ALP-POS-d2866bdf-1
  -OEChem-08212018533D

 49 52  0     0  0  0  0  0  0999 V2000
    9.2940   -4.7330   25.5510 N   0  0  0  0  0  0  0  0  0  0  0  0
    9.6550   -5.9590   24.8650 C   0  0  0  0  0  0  0  0  0  0  0  0
    9.2690    1.4140   20.9380 O   0  0  0  0  0  0  0  0  0  0  0  0
    8.3680   -4.9600   26.6520 C   0  0  0  0  0  0  0  0  0  0  0  0
    9.4560    0.1560   22.8130 N   0  0  0  0  0  0  0  0  0  0  0  0
    9.3070   -3.5340   24.8780 C   0  0  0  0  0  0  0  0  0  0  0  0
    7.3170   -0.1610   19.8550 N   0  0  0  0  0  0  0  0  0  0  0  0
    8.9960   -2.3380   25.5320 C   0  0  0  0  0  0  0  0  0  0  0  0
    7.6390   -0.2680   18.5410 N   0  0  0  0  0  0  0  0  0  0  0  0
    9.0720   -1.1280   24.8640 C   0  0  0  0  0  0  0  0  0  0  0  0
    6.7580    0.3810   17.8350 N   0  0  0  0  0  0  0  0  0  0  0  0
    9.3350   -1.0880   23.5010 C   0  0  0  0  0  0  0  0  0  0  0  0
    9.7200   -2.2600   22.8630 C   0  0  0  0  0  0  0  0  0  0  0  0
    9.6730   -3.4710   23.5300 C   0  0  0  0  0  0  0  0  0  0  0  0
    9.8870    1.3260   23.5730 C   0  0  0  0  0  0  0  0  0  0  0  0
   11.3540    1.6190   23.3910 C   0  0  0  0  0  0  0  0  0  0  0  0
   12.3110    0.6640   23.5760 C   0  0  0  0  0  0  0  0  0  0  0  0
   13.2890    2.8040   22.8220 C   0  0  0  0  0  0  0  0  0  0  0  0
   11.9200    2.8550   22.9600 C   0  0  0  0  0  0  0  0  0  0  0  0
    9.0420    0.3700   21.5280 C   0  0  0  0  0  0  0  0  0  0  0  0
    8.1890   -0.7180   20.8700 C   0  0  0  0  0  0  0  0  0  0  0  0
    5.8300    0.9190   18.6970 C   0  0  0  0  0  0  0  0  0  0  0  0
    6.1790    0.5730   19.9990 C   0  0  0  0  0  0  0  0  0  0  0  0
    5.4210    0.9600   21.0930 C   0  0  0  0  0  0  0  0  0  0  0  0
    4.2750    1.7050   20.8490 C   0  0  0  0  0  0  0  0  0  0  0  0
    3.9160    2.0630   19.5520 C   0  0  0  0  0  0  0  0  0  0  0  0
    4.6890    1.6810   18.4640 C   0  0  0  0  0  0  0  0  0  0  0  0
   13.8810    1.2400   23.2310 S   0  0  0  0  0  0  0  0  0  0  0  0
   10.3531   -5.7298   24.0464 H   0  0  0  0  0  0  0  0  0  0  0  0
   10.1360   -6.6482   25.5747 H   0  0  0  0  0  0  0  0  0  0  0  0
    8.7496   -6.4292   24.4538 H   0  0  0  0  0  0  0  0  0  0  0  0
    8.1292   -4.0008   27.1347 H   0  0  0  0  0  0  0  0  0  0  0  0
    7.4444   -5.4160   26.2660 H   0  0  0  0  0  0  0  0  0  0  0  0
    8.8308   -5.6350   27.3870 H   0  0  0  0  0  0  0  0  0  0  0  0
    8.6935   -2.3584   26.5686 H   0  0  0  0  0  0  0  0  0  0  0  0
    8.9254   -0.2065   25.4079 H   0  0  0  0  0  0  0  0  0  0  0  0
   10.0587   -2.2257   21.8381 H   0  0  0  0  0  0  0  0  0  0  0  0
    9.9223   -4.3799   23.0025 H   0  0  0  0  0  0  0  0  0  0  0  0
    9.3078    2.1988   23.2371 H   0  0  0  0  0  0  0  0  0  0  0  0
    9.6923    1.1455   24.6405 H   0  0  0  0  0  0  0  0  0  0  0  0
   12.0992   -0.3430   23.9038 H   0  0  0  0  0  0  0  0  0  0  0  0
   13.9059    3.6305   22.5016 H   0  0  0  0  0  0  0  0  0  0  0  0
   11.3345    3.7407   22.7620 H   0  0  0  0  0  0  0  0  0  0  0  0
    7.5752   -1.2072   21.6407 H   0  0  0  0  0  0  0  0  0  0  0  0
    8.8529   -1.4609   20.4038 H   0  0  0  0  0  0  0  0  0  0  0  0
    5.7111    0.6919   22.0982 H   0  0  0  0  0  0  0  0  0  0  0  0
    3.6530    2.0113   21.6771 H   0  0  0  0  0  0  0  0  0  0  0  0
    3.0221    2.6470   19.3900 H   0  0  0  0  0  0  0  0  0  0  0  0
    4.4115    1.9683   17.4606 H   0  0  0  0  0  0  0  0  0  0  0  0
  1  2  1  0  0  0  0
  1  4  1  0  0  0  0
  1  6  1  0  0  0  0
  3 20  2  0  0  0  0
  5 12  1  0  0  0  0
  5 15  1  0  0  0  0
  5 20  1  0  0  0  0
  6  8  2  0  0  0  0
  6 14  1  0  0  0  0
  7  9  1  0  0  0  0
  7 21  1  0  0  0  0
  7 23  1  0  0  0  0
  8 10  1  0  0  0  0
  9 11  2  0  0  0  0
 10 12  2  0  0  0  0
 11 22  1  0  0  0  0
 12 13  1  0  0  0  0
 13 14  2  0  0  0  0
 15 16  1  0  0  0  0
 16 17  2  0  0  0  0
 16 19  1  0  0  0  0
 17 28  1  0  0  0  0
 18 19  2  0  0  0  0
 18 28  1  0  0  0  0
 20 21  1  0  0  0  0
 22 23  2  0  0  0  0
 22 27  1  0  0  0  0
 23 24  1  0  0  0  0
 24 25  2  0  0  0  0
 25 26  1  0  0  0  0
 26 27  2  0  0  0  0
  2 29  1  0  0  0  0
  2 30  1  0  0  0  0
  2 31  1  0  0  0  0
  4 32  1  0  0  0  0
  4 33  1  0  0  0  0
  4 34  1  0  0  0  0
  8 35  1  0  0  0  0
 10 36  1  0  0  0  0
 13 37  1  0  0  0  0
 14 38  1  0  0  0  0
 15 39  1  0  0  0  0
 15 40  1  0  0  0  0
 17 41  1  0  0  0  0
 18 42  1  0  0  0  0
 19 43  1  0  0  0  0
 21 44  1  0  0  0  0
 21 45  1  0  0  0  0
 24 46  1  0  0  0  0
 25 47  1  0  0  0  0
 26 48  1  0  0  0  0
 27 49  1  0  0  0  0
M  END
> <canonical_CID>
ALP-POS-d2866bdf-1

> <r_inhibition_at_20_uM>

> <r_inhibition_at_50_uM>
90.2864920436047

> <r_avg_IC50>
5.36883150229248

> <f_inhibition_at_20_uM>
84.433275

> <f_inhibition_at_50_uM>
90.45516

> <f_avg_IC50>
1.79372477414291

> <f_avg_pIC50>
5.74624419353312

> <relative_solubility_at_20_uM>
0.92

> <relative_solubility_at_100_uM>
0.48

> <trypsin_IC50>
99.0

> <NMR_std_ratio>

> <acrylamide>
False

> <chloroacetamide>
False

> <series>
3-aminopyridine-like

> <clash_score>
0.0

$$$$
BENZO_1_1
  -OEChem-08212018573D

 51 54  0     0  0  0  0  0  0999 V2000
   14.1526    1.4694   24.0176 C   0  0  0  0  0  0  0  0  0  0  0  0
   13.3741    0.8121   24.9701 C   0  0  0  0  0  0  0  0  0  0  0  0
   13.5446    2.0802   22.9208 C   0  0  0  0  0  0  0  0  0  0  0  0
    3.9160    2.0630   19.5520 C   0  0  0  0  0  0  0  0  0  0  0  0
    4.2750    1.7050   20.8490 C   0  0  0  0  0  0  0  0  0  0  0  0
   11.9875    0.7654   24.8258 C   0  0  0  0  0  0  0  0  0  0  0  0
   12.1580    2.0335   22.7765 C   0  0  0  0  0  0  0  0  0  0  0  0
    4.6890    1.6810   18.4640 C   0  0  0  0  0  0  0  0  0  0  0  0
    5.4210    0.9600   21.0930 C   0  0  0  0  0  0  0  0  0  0  0  0
    9.0720   -1.1280   24.8640 C   0  0  0  0  0  0  0  0  0  0  0  0
    9.7200   -2.2600   22.8630 C   0  0  0  0  0  0  0  0  0  0  0  0
    8.9960   -2.3380   25.5320 C   0  0  0  0  0  0  0  0  0  0  0  0
    9.6730   -3.4710   23.5300 C   0  0  0  0  0  0  0  0  0  0  0  0
   11.3794    1.3761   23.7290 C   0  0  0  0  0  0  0  0  0  0  0  0
    5.8300    0.9190   18.6970 C   0  0  0  0  0  0  0  0  0  0  0  0
    6.1790    0.5730   19.9990 C   0  0  0  0  0  0  0  0  0  0  0  0
    9.3350   -1.0880   23.5010 C   0  0  0  0  0  0  0  0  0  0  0  0
    9.3070   -3.5340   24.8780 C   0  0  0  0  0  0  0  0  0  0  0  0
    9.0420    0.3700   21.5280 C   0  0  0  0  0  0  0  0  0  0  0  0
    8.0128   -5.2151   26.1416 C   0  0  0  0  0  0  0  0  0  0  0  0
   10.4372   -5.5860   25.6589 C   0  0  0  0  0  0  0  0  0  0  0  0
    9.8870    1.3260   23.5730 C   0  0  0  0  0  0  0  0  0  0  0  0
    6.7580    0.3810   17.8350 N   0  0  0  0  0  0  0  0  0  0  0  0
    7.6390   -0.2680   18.5410 N   0  0  0  0  0  0  0  0  0  0  0  0
    7.3170   -0.1610   19.8550 N   0  0  0  0  0  0  0  0  0  0  0  0
    8.1890   -0.7180   20.8700 N   0  0  0  0  0  0  0  0  0  0  0  0
    9.4560    0.1560   22.8130 N   0  0  0  0  0  0  0  0  0  0  0  0
    9.2543   -4.7552   25.5519 N   0  0  0  0  0  0  0  0  0  0  0  0
    9.2690    1.4140   20.9380 O   0  0  0  0  0  0  0  0  0  0  0  0
   15.2322    1.5068   24.1308 H   0  0  0  0  0  0  0  0  0  0  0  0
   13.8473    0.3374   25.8248 H   0  0  0  0  0  0  0  0  0  0  0  0
   14.1503    2.5930   22.1795 H   0  0  0  0  0  0  0  0  0  0  0  0
    3.0136    2.6526   19.3908 H   0  0  0  0  0  0  0  0  0  0  0  0
    3.6480    2.0140   21.6821 H   0  0  0  0  0  0  0  0  0  0  0  0
   11.3889    0.2508   25.5729 H   0  0  0  0  0  0  0  0  0  0  0  0
   11.6930    2.5120   21.9187 H   0  0  0  0  0  0  0  0  0  0  0  0
    4.4042    1.9741   17.4524 H   0  0  0  0  0  0  0  0  0  0  0  0
    5.7089    0.6919   22.1150 H   0  0  0  0  0  0  0  0  0  0  0  0
    8.9217   -0.1995   25.4232 H   0  0  0  0  0  0  0  0  0  0  0  0
   10.0643   -2.2341   21.8254 H   0  0  0  0  0  0  0  0  0  0  0  0
    8.6893   -2.3540   26.5808 H   0  0  0  0  0  0  0  0  0  0  0  0
    9.9257   -4.3898   22.9921 H   0  0  0  0  0  0  0  0  0  0  0  0
    8.1744   -6.1904   26.6238 H   0  0  0  0  0  0  0  0  0  0  0  0
    7.6718   -4.4870   26.8924 H   0  0  0  0  0  0  0  0  0  0  0  0
    7.2494   -5.3166   25.3561 H   0  0  0  0  0  0  0  0  0  0  0  0
   10.1947   -6.4995   26.2216 H   0  0  0  0  0  0  0  0  0  0  0  0
   10.7865   -5.8577   24.6518 H   0  0  0  0  0  0  0  0  0  0  0  0
   11.2285   -5.0312   26.1842 H   0  0  0  0  0  0  0  0  0  0  0  0
    9.3974    1.2912   24.5523 H   0  0  0  0  0  0  0  0  0  0  0  0
    9.5159    2.2168   23.0553 H   0  0  0  0  0  0  0  0  0  0  0  0
    8.2278   -1.5705   21.0849 H   0  0  0  0  0  0  0  0  0  0  0  0
  1  2  1  0  0  0  0
  1  3  2  0  0  0  0
  2  6  2  0  0  0  0
  3  7  1  0  0  0  0
  4  5  1  0  0  0  0
  4  8  2  0  0  0  0
  5  9  2  0  0  0  0
  6 14  1  0  0  0  0
  7 14  2  0  0  0  0
  8 15  1  0  0  0  0
  9 16  1  0  0  0  0
 10 12  2  0  0  0  0
 10 17  1  0  0  0  0
 11 13  1  0  0  0  0
 11 17  2  0  0  0  0
 12 18  1  0  0  0  0
 13 18  2  0  0  0  0
 14 22  1  0  0  0  0
 15 16  2  0  0  0  0
 15 23  1  0  0  0  0
 16 25  1  0  0  0  0
 17 27  1  0  0  0  0
 18 28  1  0  0  0  0
 19 26  1  0  0  0  0
 19 27  1  0  0  0  0
 19 29  2  0  0  0  0
 20 28  1  0  0  0  0
 21 28  1  0  0  0  0
 22 27  1  0  0  0  0
 23 24  2  0  0  0  0
 24 25  1  0  0  0  0
 25 26  1  0  0  0  0
  1 30  1  0  0  0  0
  2 31  1  0  0  0  0
  3 32  1  0  0  0  0
  4 33  1  0  0  0  0
  5 34  1  0  0  0  0
  6 35  1  0  0  0  0
  7 36  1  0  0  0  0
  8 37  1  0  0  0  0
  9 38  1  0  0  0  0
 10 39  1  0  0  0  0
 11 40  1  0  0  0  0
 12 41  1  0  0  0  0
 13 42  1  0  0  0  0
 20 43  1  0  0  0  0
 20 44  1  0  0  0  0
 20 45  1  0  0  0  0
 21 46  1  0  0  0  0
 21 47  1  0  0  0  0
 21 48  1  0  0  0  0
 22 49  1  0  0  0  0
 22 50  1  0  0  0  0
 26 51  1  0  0  0  0
M  END
> <clash_score>
0

> <docking_score>
-9.183611869812012

$$$$
BENZO_6_1
  -OEChem-08212018573D

 53 56  0     0  0  0  0  0  0999 V2000
    3.9160    2.0630   19.5520 C   0  0  0  0  0  0  0  0  0  0  0  0
    4.2750    1.7050   20.8490 C   0  0  0  0  0  0  0  0  0  0  0  0
    6.4089    2.0844   24.8766 C   0  0  0  0  0  0  0  0  0  0  0  0
    7.4847    1.4191   24.2887 C   0  0  0  0  0  0  0  0  0  0  0  0
    4.6890    1.6810   18.4640 C   0  0  0  0  0  0  0  0  0  0  0  0
    5.4210    0.9600   21.0930 C   0  0  0  0  0  0  0  0  0  0  0  0
    8.9960   -2.3380   25.5320 C   0  0  0  0  0  0  0  0  0  0  0  0
    9.6730   -3.4710   23.5300 C   0  0  0  0  0  0  0  0  0  0  0  0
    9.0720   -1.1280   24.8640 C   0  0  0  0  0  0  0  0  0  0  0  0
    9.7200   -2.2600   22.8630 C   0  0  0  0  0  0  0  0  0  0  0  0
    6.5777    3.3741   25.3805 C   0  0  0  0  0  0  0  0  0  0  0  0
    8.8980    3.3330   24.7088 C   0  0  0  0  0  0  0  0  0  0  0  0
    8.7292    2.0433   24.2048 C   0  0  0  0  0  0  0  0  0  0  0  0
    5.8300    0.9190   18.6970 C   0  0  0  0  0  0  0  0  0  0  0  0
    6.1790    0.5730   19.9990 C   0  0  0  0  0  0  0  0  0  0  0  0
    9.3070   -3.5340   24.8780 C   0  0  0  0  0  0  0  0  0  0  0  0
    9.3350   -1.0880   23.5010 C   0  0  0  0  0  0  0  0  0  0  0  0
    7.8222    3.9984   25.2966 C   0  0  0  0  0  0  0  0  0  0  0  0
    9.5333   -6.0236   25.0414 C   0  0  0  0  0  0  0  0  0  0  0  0
    9.0420    0.3700   21.5280 C   0  0  0  0  0  0  0  0  0  0  0  0
   10.6330   -7.3746   26.8775 C   0  0  0  0  0  0  0  0  0  0  0  0
    9.8870    1.3260   23.5730 C   0  0  0  0  0  0  0  0  0  0  0  0
    9.3522   -7.0865   26.1149 C   0  0  0  0  0  0  0  0  0  0  0  0
    6.7580    0.3810   17.8350 N   0  0  0  0  0  0  0  0  0  0  0  0
    7.6390   -0.2680   18.5410 N   0  0  0  0  0  0  0  0  0  0  0  0
    7.3170   -0.1610   19.8550 N   0  0  0  0  0  0  0  0  0  0  0  0
    9.2546   -4.7422   25.5438 N   0  0  0  0  0  0  0  0  0  0  0  0
    8.1890   -0.7180   20.8700 N   0  0  0  0  0  0  0  0  0  0  0  0
    9.4560    0.1560   22.8130 N   0  0  0  0  0  0  0  0  0  0  0  0
    9.8805   -6.3053   23.8992 O   0  0  0  0  0  0  0  0  0  0  0  0
    9.2690    1.4140   20.9380 O   0  0  0  0  0  0  0  0  0  0  0  0
    8.0301    5.5891   25.9196 Cl  0  0  0  0  0  0  0  0  0  0  0  0
    3.0136    2.6526   19.3908 H   0  0  0  0  0  0  0  0  0  0  0  0
    3.6480    2.0140   21.6821 H   0  0  0  0  0  0  0  0  0  0  0  0
    5.4400    1.5979   24.9418 H   0  0  0  0  0  0  0  0  0  0  0  0
    7.3441    0.4143   23.8988 H   0  0  0  0  0  0  0  0  0  0  0  0
    4.4042    1.9741   17.4524 H   0  0  0  0  0  0  0  0  0  0  0  0
    5.7089    0.6919   22.1150 H   0  0  0  0  0  0  0  0  0  0  0  0
    8.6895   -2.3529   26.5807 H   0  0  0  0  0  0  0  0  0  0  0  0
    9.9262   -4.3897   22.9916 H   0  0  0  0  0  0  0  0  0  0  0  0
    8.9224   -0.1998   25.4238 H   0  0  0  0  0  0  0  0  0  0  0  0
   10.0649   -2.2343   21.8258 H   0  0  0  0  0  0  0  0  0  0  0  0
    5.7304    3.8806   25.8363 H   0  0  0  0  0  0  0  0  0  0  0  0
    9.8702    3.8156   24.6405 H   0  0  0  0  0  0  0  0  0  0  0  0
   11.4241   -7.7171   26.2024 H   0  0  0  0  0  0  0  0  0  0  0  0
   10.4628   -8.1530   27.6277 H   0  0  0  0  0  0  0  0  0  0  0  0
   10.9949   -6.4779   27.3911 H   0  0  0  0  0  0  0  0  0  0  0  0
   10.4274    1.9911   22.8906 H   0  0  0  0  0  0  0  0  0  0  0  0
   10.6011    0.9882   24.3313 H   0  0  0  0  0  0  0  0  0  0  0  0
    8.5795   -6.7463   26.8138 H   0  0  0  0  0  0  0  0  0  0  0  0
    8.9965   -8.0064   25.6368 H   0  0  0  0  0  0  0  0  0  0  0  0
    8.9776   -4.7057   26.5317 H   0  0  0  0  0  0  0  0  0  0  0  0
    8.2278   -1.5705   21.0849 H   0  0  0  0  0  0  0  0  0  0  0  0
  1  2  1  0  0  0  0
  1  5  2  0  0  0  0
  2  6  2  0  0  0  0
  3  4  2  0  0  0  0
  3 11  1  0  0  0  0
  4 13  1  0  0  0  0
  5 14  1  0  0  0  0
  6 15  1  0  0  0  0
  7  9  2  0  0  0  0
  7 16  1  0  0  0  0
  8 10  1  0  0  0  0
  8 16  2  0  0  0  0
  9 17  1  0  0  0  0
 10 17  2  0  0  0  0
 11 18  2  0  0  0  0
 12 13  2  0  0  0  0
 12 18  1  0  0  0  0
 13 22  1  0  0  0  0
 14 15  2  0  0  0  0
 14 24  1  0  0  0  0
 15 26  1  0  0  0  0
 16 27  1  0  0  0  0
 17 29  1  0  0  0  0
 18 32  1  0  0  0  0
 19 23  1  0  0  0  0
 19 27  1  0  0  0  0
 19 30  2  0  0  0  0
 20 28  1  0  0  0  0
 20 29  1  0  0  0  0
 20 31  2  0  0  0  0
 21 23  1  0  0  0  0
 22 29  1  0  0  0  0
 24 25  2  0  0  0  0
 25 26  1  0  0  0  0
 26 28  1  0  0  0  0
  1 33  1  0  0  0  0
  2 34  1  0  0  0  0
  3 35  1  0  0  0  0
  4 36  1  0  0  0  0
  5 37  1  0  0  0  0
  6 38  1  0  0  0  0
  7 39  1  0  0  0  0
  8 40  1  0  0  0  0
  9 41  1  0  0  0  0
 10 42  1  0  0  0  0
 11 43  1  0  0  0  0
 12 44  1  0  0  0  0
 21 45  1  0  0  0  0
 21 46  1  0  0  0  0
 21 47  1  0  0  0  0
 22 48  1  0  0  0  0
 22 49  1  0  0  0  0
 23 50  1  0  0  0  0
 23 51  1  0  0  0  0
 27 52  1  0  0  0  0
 28 53  1  0  0  0  0
M  END
> <clash_score>
1.498663752905594

> <docking_score>
-5.375349998474121

$$$$
BENZO_5_1
  -OEChem-08212018573D

 53 56  0     0  0  0  0  0  0999 V2000
   14.1526    1.4694   24.0176 C   0  0  0  0  0  0  0  0  0  0  0  0
   13.3741    0.8121   24.9701 C   0  0  0  0  0  0  0  0  0  0  0  0
   13.5446    2.0802   22.9208 C   0  0  0  0  0  0  0  0  0  0  0  0
    3.9160    2.0630   19.5520 C   0  0  0  0  0  0  0  0  0  0  0  0
    4.2750    1.7050   20.8490 C   0  0  0  0  0  0  0  0  0  0  0  0
   11.9875    0.7654   24.8258 C   0  0  0  0  0  0  0  0  0  0  0  0
   12.1580    2.0335   22.7765 C   0  0  0  0  0  0  0  0  0  0  0  0
    4.6890    1.6810   18.4640 C   0  0  0  0  0  0  0  0  0  0  0  0
    5.4210    0.9600   21.0930 C   0  0  0  0  0  0  0  0  0  0  0  0
    8.9960   -2.3380   25.5320 C   0  0  0  0  0  0  0  0  0  0  0  0
    9.6730   -3.4710   23.5300 C   0  0  0  0  0  0  0  0  0  0  0  0
    9.0720   -1.1280   24.8640 C   0  0  0  0  0  0  0  0  0  0  0  0
    9.7200   -2.2600   22.8630 C   0  0  0  0  0  0  0  0  0  0  0  0
   11.3794    1.3761   23.7290 C   0  0  0  0  0  0  0  0  0  0  0  0
    5.8300    0.9190   18.6970 C   0  0  0  0  0  0  0  0  0  0  0  0
    6.1790    0.5730   19.9990 C   0  0  0  0  0  0  0  0  0  0  0  0
    9.3070   -3.5340   24.8780 C   0  0  0  0  0  0  0  0  0  0  0  0
    9.3350   -1.0880   23.5010 C   0  0  0  0  0  0  0  0  0  0  0  0
    9.5333   -6.0236   25.0414 C   0  0  0  0  0  0  0  0  0  0  0  0
    9.0420    0.3700   21.5280 C   0  0  0  0  0  0  0  0  0  0  0  0
   10.6330   -7.3746   26.8775 C   0  0  0  0  0  0  0  0  0  0  0  0
    9.8870    1.3260   23.5730 C   0  0  0  0  0  0  0  0  0  0  0  0
    9.3522   -7.0865   26.1149 C   0  0  0  0  0  0  0  0  0  0  0  0
    6.7580    0.3810   17.8350 N   0  0  0  0  0  0  0  0  0  0  0  0
    7.6390   -0.2680   18.5410 N   0  0  0  0  0  0  0  0  0  0  0  0
    7.3170   -0.1610   19.8550 N   0  0  0  0  0  0  0  0  0  0  0  0
    9.2546   -4.7422   25.5438 N   0  0  0  0  0  0  0  0  0  0  0  0
    8.1890   -0.7180   20.8700 N   0  0  0  0  0  0  0  0  0  0  0  0
    9.4560    0.1560   22.8130 N   0  0  0  0  0  0  0  0  0  0  0  0
    9.8805   -6.3053   23.8992 O   0  0  0  0  0  0  0  0  0  0  0  0
    9.2690    1.4140   20.9380 O   0  0  0  0  0  0  0  0  0  0  0  0
   15.2322    1.5068   24.1308 H   0  0  0  0  0  0  0  0  0  0  0  0
   13.8473    0.3374   25.8248 H   0  0  0  0  0  0  0  0  0  0  0  0
   14.1503    2.5930   22.1795 H   0  0  0  0  0  0  0  0  0  0  0  0
    3.0136    2.6526   19.3908 H   0  0  0  0  0  0  0  0  0  0  0  0
    3.6480    2.0140   21.6821 H   0  0  0  0  0  0  0  0  0  0  0  0
   11.3889    0.2508   25.5729 H   0  0  0  0  0  0  0  0  0  0  0  0
   11.6930    2.5120   21.9187 H   0  0  0  0  0  0  0  0  0  0  0  0
    4.4042    1.9741   17.4524 H   0  0  0  0  0  0  0  0  0  0  0  0
    5.7089    0.6919   22.1150 H   0  0  0  0  0  0  0  0  0  0  0  0
    8.6895   -2.3529   26.5807 H   0  0  0  0  0  0  0  0  0  0  0  0
    9.9262   -4.3897   22.9916 H   0  0  0  0  0  0  0  0  0  0  0  0
    8.9224   -0.1998   25.4238 H   0  0  0  0  0  0  0  0  0  0  0  0
   10.0649   -2.2343   21.8258 H   0  0  0  0  0  0  0  0  0  0  0  0
   11.4241   -7.7171   26.2024 H   0  0  0  0  0  0  0  0  0  0  0  0
   10.4628   -8.1530   27.6277 H   0  0  0  0  0  0  0  0  0  0  0  0
   10.9949   -6.4779   27.3911 H   0  0  0  0  0  0  0  0  0  0  0  0
    9.3974    1.2912   24.5523 H   0  0  0  0  0  0  0  0  0  0  0  0
    9.5159    2.2168   23.0553 H   0  0  0  0  0  0  0  0  0  0  0  0
    8.5795   -6.7463   26.8138 H   0  0  0  0  0  0  0  0  0  0  0  0
    8.9965   -8.0064   25.6368 H   0  0  0  0  0  0  0  0  0  0  0  0
    8.9776   -4.7057   26.5317 H   0  0  0  0  0  0  0  0  0  0  0  0
    8.2278   -1.5705   21.0849 H   0  0  0  0  0  0  0  0  0  0  0  0
  1  2  1  0  0  0  0
  1  3  2  0  0  0  0
  2  6  2  0  0  0  0
  3  7  1  0  0  0  0
  4  5  1  0  0  0  0
  4  8  2  0  0  0  0
  5  9  2  0  0  0  0
  6 14  1  0  0  0  0
  7 14  2  0  0  0  0
  8 15  1  0  0  0  0
  9 16  1  0  0  0  0
 10 12  2  0  0  0  0
 10 17  1  0  0  0  0
 11 13  1  0  0  0  0
 11 17  2  0  0  0  0
 12 18  1  0  0  0  0
 13 18  2  0  0  0  0
 14 22  1  0  0  0  0
 15 16  2  0  0  0  0
 15 24  1  0  0  0  0
 16 26  1  0  0  0  0
 17 27  1  0  0  0  0
 18 29  1  0  0  0  0
 19 23  1  0  0  0  0
 19 27  1  0  0  0  0
 19 30  2  0  0  0  0
 20 28  1  0  0  0  0
 20 29  1  0  0  0  0
 20 31  2  0  0  0  0
 21 23  1  0  0  0  0
 22 29  1  0  0  0  0
 24 25  2  0  0  0  0
 25 26  1  0  0  0  0
 26 28  1  0  0  0  0
  1 32  1  0  0  0  0
  2 33  1  0  0  0  0
  3 34  1  0  0  0  0
  4 35  1  0  0  0  0
  5 36  1  0  0  0  0
  6 37  1  0  0  0  0
  7 38  1  0  0  0  0
  8 39  1  0  0  0  0
  9 40  1  0  0  0  0
 10 41  1  0  0  0  0
 11 42  1  0  0  0  0
 12 43  1  0  0  0  0
 13 44  1  0  0  0  0
 21 45  1  0  0  0  0
 21 46  1  0  0  0  0
 21 47  1  0  0  0  0
 22 48  1  0  0  0  0
 22 49  1  0  0  0  0
 23 50  1  0  0  0  0
 23 51  1  0  0  0  0
 27 52  1  0  0  0  0
 28 53  1  0  0  0  0
M  END
> <clash_score>
1.498663752905594

> <docking_score>
-5.989333152770996

$$$$
BENZO_4_1
  -OEChem-08212018573D

 50 53  0     0  0  0  0  0  0999 V2000
    3.9160    2.0630   19.5520 C   0  0  0  0  0  0  0  0  0  0  0  0
    4.2750    1.7050   20.8490 C   0  0  0  0  0  0  0  0  0  0  0  0
    4.6890    1.6810   18.4640 C   0  0  0  0  0  0  0  0  0  0  0  0
    5.4210    0.9600   21.0930 C   0  0  0  0  0  0  0  0  0  0  0  0
    8.9960   -2.3380   25.5320 C   0  0  0  0  0  0  0  0  0  0  0  0
    9.6730   -3.4710   23.5300 C   0  0  0  0  0  0  0  0  0  0  0  0
    9.0720   -1.1280   24.8640 C   0  0  0  0  0  0  0  0  0  0  0  0
    9.7200   -2.2600   22.8630 C   0  0  0  0  0  0  0  0  0  0  0  0
   12.2913    1.4279   22.6355 C   0  0  0  0  0  0  0  0  0  0  0  0
   13.6024    1.4661   23.0564 C   0  0  0  0  0  0  0  0  0  0  0  0
   12.0284    1.3764   24.9443 C   0  0  0  0  0  0  0  0  0  0  0  0
   11.3794    1.3761   23.7290 C   0  0  0  0  0  0  0  0  0  0  0  0
    5.8300    0.9190   18.6970 C   0  0  0  0  0  0  0  0  0  0  0  0
    6.1790    0.5730   19.9990 C   0  0  0  0  0  0  0  0  0  0  0  0
    9.3070   -3.5340   24.8780 C   0  0  0  0  0  0  0  0  0  0  0  0
    9.3350   -1.0880   23.5010 C   0  0  0  0  0  0  0  0  0  0  0  0
    9.5333   -6.0236   25.0414 C   0  0  0  0  0  0  0  0  0  0  0  0
    9.0420    0.3700   21.5280 C   0  0  0  0  0  0  0  0  0  0  0  0
   10.6330   -7.3746   26.8775 C   0  0  0  0  0  0  0  0  0  0  0  0
    9.8870    1.3260   23.5730 C   0  0  0  0  0  0  0  0  0  0  0  0
    9.3522   -7.0865   26.1149 C   0  0  0  0  0  0  0  0  0  0  0  0
    6.7580    0.3810   17.8350 N   0  0  0  0  0  0  0  0  0  0  0  0
    7.6390   -0.2680   18.5410 N   0  0  0  0  0  0  0  0  0  0  0  0
    7.3170   -0.1610   19.8550 N   0  0  0  0  0  0  0  0  0  0  0  0
    9.2546   -4.7422   25.5438 N   0  0  0  0  0  0  0  0  0  0  0  0
    8.1890   -0.7180   20.8700 N   0  0  0  0  0  0  0  0  0  0  0  0
    9.4560    0.1560   22.8130 N   0  0  0  0  0  0  0  0  0  0  0  0
    9.8805   -6.3053   23.8992 O   0  0  0  0  0  0  0  0  0  0  0  0
    9.2690    1.4140   20.9380 O   0  0  0  0  0  0  0  0  0  0  0  0
   13.7301    1.4394   24.7638 S   0  0  0  0  0  0  0  0  0  0  0  0
    3.0136    2.6526   19.3908 H   0  0  0  0  0  0  0  0  0  0  0  0
    3.6480    2.0140   21.6821 H   0  0  0  0  0  0  0  0  0  0  0  0
    4.4042    1.9741   17.4524 H   0  0  0  0  0  0  0  0  0  0  0  0
    5.7089    0.6919   22.1150 H   0  0  0  0  0  0  0  0  0  0  0  0
    8.6895   -2.3529   26.5807 H   0  0  0  0  0  0  0  0  0  0  0  0
    9.9262   -4.3897   22.9916 H   0  0  0  0  0  0  0  0  0  0  0  0
    8.9224   -0.1998   25.4238 H   0  0  0  0  0  0  0  0  0  0  0  0
   10.0649   -2.2343   21.8258 H   0  0  0  0  0  0  0  0  0  0  0  0
   12.0045    1.4365   21.5915 H   0  0  0  0  0  0  0  0  0  0  0  0
   14.4914    1.5078   22.4431 H   0  0  0  0  0  0  0  0  0  0  0  0
   11.5886    1.3416   25.9314 H   0  0  0  0  0  0  0  0  0  0  0  0
   11.4241   -7.7171   26.2024 H   0  0  0  0  0  0  0  0  0  0  0  0
   10.4628   -8.1530   27.6277 H   0  0  0  0  0  0  0  0  0  0  0  0
   10.9949   -6.4779   27.3911 H   0  0  0  0  0  0  0  0  0  0  0  0
    9.3974    1.2912   24.5523 H   0  0  0  0  0  0  0  0  0  0  0  0
    9.5159    2.2168   23.0553 H   0  0  0  0  0  0  0  0  0  0  0  0
    8.5795   -6.7463   26.8138 H   0  0  0  0  0  0  0  0  0  0  0  0
    8.9965   -8.0064   25.6368 H   0  0  0  0  0  0  0  0  0  0  0  0
    8.9776   -4.7057   26.5317 H   0  0  0  0  0  0  0  0  0  0  0  0
    8.2278   -1.5705   21.0849 H   0  0  0  0  0  0  0  0  0  0  0  0
  1  2  1  0  0  0  0
  1  3  2  0  0  0  0
  2  4  2  0  0  0  0
  3 13  1  0  0  0  0
  4 14  1  0  0  0  0
  5  7  2  0  0  0  0
  5 15  1  0  0  0  0
  6  8  1  0  0  0  0
  6 15  2  0  0  0  0
  7 16  1  0  0  0  0
  8 16  2  0  0  0  0
  9 10  2  0  0  0  0
  9 12  1  0  0  0  0
 10 30  1  0  0  0  0
 11 12  2  0  0  0  0
 11 30  1  0  0  0  0
 12 20  1  0  0  0  0
 13 14  2  0  0  0  0
 13 22  1  0  0  0  0
 14 24  1  0  0  0  0
 15 25  1  0  0  0  0
 16 27  1  0  0  0  0
 17 21  1  0  0  0  0
 17 25  1  0  0  0  0
 17 28  2  0  0  0  0
 18 26  1  0  0  0  0
 18 27  1  0  0  0  0
 18 29  2  0  0  0  0
 19 21  1  0  0  0  0
 20 27  1  0  0  0  0
 22 23  2  0  0  0  0
 23 24  1  0  0  0  0
 24 26  1  0  0  0  0
  1 31  1  0  0  0  0
  2 32  1  0  0  0  0
  3 33  1  0  0  0  0
  4 34  1  0  0  0  0
  5 35  1  0  0  0  0
  6 36  1  0  0  0  0
  7 37  1  0  0  0  0
  8 38  1  0  0  0  0
  9 39  1  0  0  0  0
 10 40  1  0  0  0  0
 11 41  1  0  0  0  0
 19 42  1  0  0  0  0
 19 43  1  0  0  0  0
 19 44  1  0  0  0  0
 20 45  1  0  0  0  0
 20 46  1  0  0  0  0
 21 47  1  0  0  0  0
 21 48  1  0  0  0  0
 25 49  1  0  0  0  0
 26 50  1  0  0  0  0
M  END
> <clash_score>
1.498663752905594

> <docking_score>
-6.068190574645996

$$$$
BENZO_0_1
  -OEChem-08212018573D

 48 51  0     0  0  0  0  0  0999 V2000
    3.9160    2.0630   19.5520 C   0  0  0  0  0  0  0  0  0  0  0  0
    4.2750    1.7050   20.8490 C   0  0  0  0  0  0  0  0  0  0  0  0
    4.6890    1.6810   18.4640 C   0  0  0  0  0  0  0  0  0  0  0  0
    5.4210    0.9600   21.0930 C   0  0  0  0  0  0  0  0  0  0  0  0
    9.0720   -1.1280   24.8640 C   0  0  0  0  0  0  0  0  0  0  0  0
    9.7200   -2.2600   22.8630 C   0  0  0  0  0  0  0  0  0  0  0  0
    8.9960   -2.3380   25.5320 C   0  0  0  0  0  0  0  0  0  0  0  0
    9.6730   -3.4710   23.5300 C   0  0  0  0  0  0  0  0  0  0  0  0
   12.2913    1.4279   22.6355 C   0  0  0  0  0  0  0  0  0  0  0  0
   13.6024    1.4661   23.0564 C   0  0  0  0  0  0  0  0  0  0  0  0
   12.0284    1.3764   24.9443 C   0  0  0  0  0  0  0  0  0  0  0  0
   11.3794    1.3761   23.7290 C   0  0  0  0  0  0  0  0  0  0  0  0
    5.8300    0.9190   18.6970 C   0  0  0  0  0  0  0  0  0  0  0  0
    6.1790    0.5730   19.9990 C   0  0  0  0  0  0  0  0  0  0  0  0
    9.3350   -1.0880   23.5010 C   0  0  0  0  0  0  0  0  0  0  0  0
    9.3070   -3.5340   24.8780 C   0  0  0  0  0  0  0  0  0  0  0  0
    9.0420    0.3700   21.5280 C   0  0  0  0  0  0  0  0  0  0  0  0
    8.0128   -5.2151   26.1416 C   0  0  0  0  0  0  0  0  0  0  0  0
   10.4372   -5.5860   25.6589 C   0  0  0  0  0  0  0  0  0  0  0  0
    9.8870    1.3260   23.5730 C   0  0  0  0  0  0  0  0  0  0  0  0
    6.7580    0.3810   17.8350 N   0  0  0  0  0  0  0  0  0  0  0  0
    7.6390   -0.2680   18.5410 N   0  0  0  0  0  0  0  0  0  0  0  0
    7.3170   -0.1610   19.8550 N   0  0  0  0  0  0  0  0  0  0  0  0
    8.1890   -0.7180   20.8700 N   0  0  0  0  0  0  0  0  0  0  0  0
    9.4560    0.1560   22.8130 N   0  0  0  0  0  0  0  0  0  0  0  0
    9.2543   -4.7552   25.5519 N   0  0  0  0  0  0  0  0  0  0  0  0
    9.2690    1.4140   20.9380 O   0  0  0  0  0  0  0  0  0  0  0  0
   13.7301    1.4394   24.7638 S   0  0  0  0  0  0  0  0  0  0  0  0
    3.0136    2.6526   19.3908 H   0  0  0  0  0  0  0  0  0  0  0  0
    3.6480    2.0140   21.6821 H   0  0  0  0  0  0  0  0  0  0  0  0
    4.4042    1.9741   17.4524 H   0  0  0  0  0  0  0  0  0  0  0  0
    5.7089    0.6919   22.1150 H   0  0  0  0  0  0  0  0  0  0  0  0
    8.9217   -0.1995   25.4232 H   0  0  0  0  0  0  0  0  0  0  0  0
   10.0643   -2.2341   21.8254 H   0  0  0  0  0  0  0  0  0  0  0  0
    8.6893   -2.3540   26.5808 H   0  0  0  0  0  0  0  0  0  0  0  0
    9.9257   -4.3898   22.9921 H   0  0  0  0  0  0  0  0  0  0  0  0
   12.0045    1.4365   21.5915 H   0  0  0  0  0  0  0  0  0  0  0  0
   14.4914    1.5078   22.4431 H   0  0  0  0  0  0  0  0  0  0  0  0
   11.5886    1.3416   25.9314 H   0  0  0  0  0  0  0  0  0  0  0  0
    8.1744   -6.1904   26.6238 H   0  0  0  0  0  0  0  0  0  0  0  0
    7.6718   -4.4870   26.8924 H   0  0  0  0  0  0  0  0  0  0  0  0
    7.2494   -5.3166   25.3561 H   0  0  0  0  0  0  0  0  0  0  0  0
   10.1947   -6.4995   26.2216 H   0  0  0  0  0  0  0  0  0  0  0  0
   10.7865   -5.8577   24.6518 H   0  0  0  0  0  0  0  0  0  0  0  0
   11.2285   -5.0312   26.1842 H   0  0  0  0  0  0  0  0  0  0  0  0
    9.3974    1.2912   24.5523 H   0  0  0  0  0  0  0  0  0  0  0  0
    9.5159    2.2168   23.0553 H   0  0  0  0  0  0  0  0  0  0  0  0
    8.2278   -1.5705   21.0849 H   0  0  0  0  0  0  0  0  0  0  0  0
  1  2  1  0  0  0  0
  1  3  2  0  0  0  0
  2  4  2  0  0  0  0
  3 13  1  0  0  0  0
  4 14  1  0  0  0  0
  5  7  2  0  0  0  0
  5 15  1  0  0  0  0
  6  8  1  0  0  0  0
  6 15  2  0  0  0  0
  7 16  1  0  0  0  0
  8 16  2  0  0  0  0
  9 10  2  0  0  0  0
  9 12  1  0  0  0  0
 10 28  1  0  0  0  0
 11 12  2  0  0  0  0
 11 28  1  0  0  0  0
 12 20  1  0  0  0  0
 13 14  2  0  0  0  0
 13 21  1  0  0  0  0
 14 23  1  0  0  0  0
 15 25  1  0  0  0  0
 16 26  1  0  0  0  0
 17 24  1  0  0  0  0
 17 25  1  0  0  0  0
 17 27  2  0  0  0  0
 18 26  1  0  0  0  0
 19 26  1  0  0  0  0
 20 25  1  0  0  0  0
 21 22  2  0  0  0  0
 22 23  1  0  0  0  0
 23 24  1  0  0  0  0
  1 29  1  0  0  0  0
  2 30  1  0  0  0  0
  3 31  1  0  0  0  0
  4 32  1  0  0  0  0
  5 33  1  0  0  0  0
  6 34  1  0  0  0  0
  7 35  1  0  0  0  0
  8 36  1  0  0  0  0
  9 37  1  0  0  0  0
 10 38  1  0  0  0  0
 11 39  1  0  0  0  0
 18 40  1  0  0  0  0
 18 41  1  0  0  0  0
 18 42  1  0  0  0  0
 19 43  1  0  0  0  0
 19 44  1  0  0  0  0
 19 45  1  0  0  0  0
 20 46  1  0  0  0  0
 20 47  1  0  0  0  0
 24 48  1  0  0  0  0
M  END
> <clash_score>
0

> <docking_score>
-9.262466430664062

$$$$
BENZO_7_1
  -OEChem-08212018573D

 53 56  0     0  0  0  0  0  0999 V2000
    3.9160    2.0630   19.5520 C   0  0  0  0  0  0  0  0  0  0  0  0
    4.2750    1.7050   20.8490 C   0  0  0  0  0  0  0  0  0  0  0  0
    4.6890    1.6810   18.4640 C   0  0  0  0  0  0  0  0  0  0  0  0
    5.4210    0.9600   21.0930 C   0  0  0  0  0  0  0  0  0  0  0  0
    8.9960   -2.3380   25.5320 C   0  0  0  0  0  0  0  0  0  0  0  0
    9.6730   -3.4710   23.5300 C   0  0  0  0  0  0  0  0  0  0  0  0
    9.0720   -1.1280   24.8640 C   0  0  0  0  0  0  0  0  0  0  0  0
    9.7200   -2.2600   22.8630 C   0  0  0  0  0  0  0  0  0  0  0  0
   12.1233    1.3811   24.9242 C   0  0  0  0  0  0  0  0  0  0  0  0
   12.3261    1.4247   22.7351 C   0  0  0  0  0  0  0  0  0  0  0  0
   11.3794    1.3761   23.7290 C   0  0  0  0  0  0  0  0  0  0  0  0
    5.8300    0.9190   18.6970 C   0  0  0  0  0  0  0  0  0  0  0  0
    6.1790    0.5730   19.9990 C   0  0  0  0  0  0  0  0  0  0  0  0
    9.3070   -3.5340   24.8780 C   0  0  0  0  0  0  0  0  0  0  0  0
    9.3350   -1.0880   23.5010 C   0  0  0  0  0  0  0  0  0  0  0  0
    9.5333   -6.0236   25.0414 C   0  0  0  0  0  0  0  0  0  0  0  0
    9.0420    0.3700   21.5280 C   0  0  0  0  0  0  0  0  0  0  0  0
   10.6330   -7.3746   26.8775 C   0  0  0  0  0  0  0  0  0  0  0  0
   14.8305    1.5084   22.7418 C   0  0  0  0  0  0  0  0  0  0  0  0
    9.8870    1.3260   23.5730 C   0  0  0  0  0  0  0  0  0  0  0  0
    9.3522   -7.0865   26.1149 C   0  0  0  0  0  0  0  0  0  0  0  0
   13.4410    1.4289   24.7112 N   0  0  0  0  0  0  0  0  0  0  0  0
    6.7580    0.3810   17.8350 N   0  0  0  0  0  0  0  0  0  0  0  0
    7.6390   -0.2680   18.5410 N   0  0  0  0  0  0  0  0  0  0  0  0
   13.5326    1.4543   23.3706 N   0  0  0  0  0  0  0  0  0  0  0  0
    7.3170   -0.1610   19.8550 N   0  0  0  0  0  0  0  0  0  0  0  0
    9.2546   -4.7422   25.5438 N   0  0  0  0  0  0  0  0  0  0  0  0
    8.1890   -0.7180   20.8700 N   0  0  0  0  0  0  0  0  0  0  0  0
    9.4560    0.1560   22.8130 N   0  0  0  0  0  0  0  0  0  0  0  0
    9.8805   -6.3053   23.8992 O   0  0  0  0  0  0  0  0  0  0  0  0
    9.2690    1.4140   20.9380 O   0  0  0  0  0  0  0  0  0  0  0  0
    3.0136    2.6526   19.3908 H   0  0  0  0  0  0  0  0  0  0  0  0
    3.6480    2.0140   21.6821 H   0  0  0  0  0  0  0  0  0  0  0  0
    4.4042    1.9741   17.4524 H   0  0  0  0  0  0  0  0  0  0  0  0
    5.7089    0.6919   22.1150 H   0  0  0  0  0  0  0  0  0  0  0  0
    8.6895   -2.3529   26.5807 H   0  0  0  0  0  0  0  0  0  0  0  0
    9.9262   -4.3897   22.9916 H   0  0  0  0  0  0  0  0  0  0  0  0
    8.9224   -0.1998   25.4238 H   0  0  0  0  0  0  0  0  0  0  0  0
   10.0649   -2.2343   21.8258 H   0  0  0  0  0  0  0  0  0  0  0  0
   11.7624    1.3510   25.9426 H   0  0  0  0  0  0  0  0  0  0  0  0
   12.2462    1.4390   21.6566 H   0  0  0  0  0  0  0  0  0  0  0  0
   11.4241   -7.7171   26.2024 H   0  0  0  0  0  0  0  0  0  0  0  0
   10.4628   -8.1530   27.6277 H   0  0  0  0  0  0  0  0  0  0  0  0
   10.9949   -6.4779   27.3911 H   0  0  0  0  0  0  0  0  0  0  0  0
   15.0990    2.5601   22.6124 H   0  0  0  0  0  0  0  0  0  0  0  0
   15.5636    1.0018   23.3756 H   0  0  0  0  0  0  0  0  0  0  0  0
   14.7841    1.0025   21.7733 H   0  0  0  0  0  0  0  0  0  0  0  0
    9.3974    1.2912   24.5523 H   0  0  0  0  0  0  0  0  0  0  0  0
    9.5159    2.2168   23.0553 H   0  0  0  0  0  0  0  0  0  0  0  0
    8.5795   -6.7463   26.8138 H   0  0  0  0  0  0  0  0  0  0  0  0
    8.9965   -8.0064   25.6368 H   0  0  0  0  0  0  0  0  0  0  0  0
    8.9776   -4.7057   26.5317 H   0  0  0  0  0  0  0  0  0  0  0  0
    8.2278   -1.5705   21.0849 H   0  0  0  0  0  0  0  0  0  0  0  0
  1  2  1  0  0  0  0
  1  3  2  0  0  0  0
  2  4  2  0  0  0  0
  3 12  1  0  0  0  0
  4 13  1  0  0  0  0
  5  7  2  0  0  0  0
  5 14  1  0  0  0  0
  6  8  1  0  0  0  0
  6 14  2  0  0  0  0
  7 15  1  0  0  0  0
  8 15  2  0  0  0  0
  9 11  1  0  0  0  0
  9 22  2  0  0  0  0
 10 11  2  0  0  0  0
 10 25  1  0  0  0  0
 11 20  1  0  0  0  0
 12 13  2  0  0  0  0
 12 23  1  0  0  0  0
 13 26  1  0  0  0  0
 14 27  1  0  0  0  0
 15 29  1  0  0  0  0
 16 21  1  0  0  0  0
 16 27  1  0  0  0  0
 16 30  2  0  0  0  0
 17 28  1  0  0  0  0
 17 29  1  0  0  0  0
 17 31  2  0  0  0  0
 18 21  1  0  0  0  0
 19 25  1  0  0  0  0
 20 29  1  0  0  0  0
 22 25  1  0  0  0  0
 23 24  2  0  0  0  0
 24 26  1  0  0  0  0
 26 28  1  0  0  0  0
  1 32  1  0  0  0  0
  2 33  1  0  0  0  0
  3 34  1  0  0  0  0
  4 35  1  0  0  0  0
  5 36  1  0  0  0  0
  6 37  1  0  0  0  0
  7 38  1  0  0  0  0
  8 39  1  0  0  0  0
  9 40  1  0  0  0  0
 10 41  1  0  0  0  0
 18 42  1  0  0  0  0
 18 43  1  0  0  0  0
 18 44  1  0  0  0  0
 19 45  1  0  0  0  0
 19 46  1  0  0  0  0
 19 47  1  0  0  0  0
 20 48  1  0  0  0  0
 20 49  1  0  0  0  0
 21 50  1  0  0  0  0
 21 51  1  0  0  0  0
 27 52  1  0  0  0  0
 28 53  1  0  0  0  0
M  END
> <clash_score>
1.498663752905594

> <docking_score>
-5.705465793609619

$$$$
BENZO_3_1
  -OEChem-08212018573D

 51 54  0     0  0  0  0  0  0999 V2000
    3.9160    2.0630   19.5520 C   0  0  0  0  0  0  0  0  0  0  0  0
    4.2750    1.7050   20.8490 C   0  0  0  0  0  0  0  0  0  0  0  0
    4.6890    1.6810   18.4640 C   0  0  0  0  0  0  0  0  0  0  0  0
    5.4210    0.9600   21.0930 C   0  0  0  0  0  0  0  0  0  0  0  0
    9.0720   -1.1280   24.8640 C   0  0  0  0  0  0  0  0  0  0  0  0
    9.7200   -2.2600   22.8630 C   0  0  0  0  0  0  0  0  0  0  0  0
    8.9960   -2.3380   25.5320 C   0  0  0  0  0  0  0  0  0  0  0  0
    9.6730   -3.4710   23.5300 C   0  0  0  0  0  0  0  0  0  0  0  0
   12.1233    1.3811   24.9242 C   0  0  0  0  0  0  0  0  0  0  0  0
   12.3261    1.4247   22.7351 C   0  0  0  0  0  0  0  0  0  0  0  0
   11.3794    1.3761   23.7290 C   0  0  0  0  0  0  0  0  0  0  0  0
    5.8300    0.9190   18.6970 C   0  0  0  0  0  0  0  0  0  0  0  0
    6.1790    0.5730   19.9990 C   0  0  0  0  0  0  0  0  0  0  0  0
    9.3350   -1.0880   23.5010 C   0  0  0  0  0  0  0  0  0  0  0  0
    9.3070   -3.5340   24.8780 C   0  0  0  0  0  0  0  0  0  0  0  0
    9.0420    0.3700   21.5280 C   0  0  0  0  0  0  0  0  0  0  0  0
   14.8305    1.5084   22.7418 C   0  0  0  0  0  0  0  0  0  0  0  0
    8.0128   -5.2151   26.1416 C   0  0  0  0  0  0  0  0  0  0  0  0
   10.4372   -5.5860   25.6589 C   0  0  0  0  0  0  0  0  0  0  0  0
    9.8870    1.3260   23.5730 C   0  0  0  0  0  0  0  0  0  0  0  0
   13.4410    1.4289   24.7112 N   0  0  0  0  0  0  0  0  0  0  0  0
    6.7580    0.3810   17.8350 N   0  0  0  0  0  0  0  0  0  0  0  0
    7.6390   -0.2680   18.5410 N   0  0  0  0  0  0  0  0  0  0  0  0
   13.5326    1.4543   23.3706 N   0  0  0  0  0  0  0  0  0  0  0  0
    7.3170   -0.1610   19.8550 N   0  0  0  0  0  0  0  0  0  0  0  0
    8.1890   -0.7180   20.8700 N   0  0  0  0  0  0  0  0  0  0  0  0
    9.4560    0.1560   22.8130 N   0  0  0  0  0  0  0  0  0  0  0  0
    9.2543   -4.7552   25.5519 N   0  0  0  0  0  0  0  0  0  0  0  0
    9.2690    1.4140   20.9380 O   0  0  0  0  0  0  0  0  0  0  0  0
    3.0136    2.6526   19.3908 H   0  0  0  0  0  0  0  0  0  0  0  0
    3.6480    2.0140   21.6821 H   0  0  0  0  0  0  0  0  0  0  0  0
    4.4042    1.9741   17.4524 H   0  0  0  0  0  0  0  0  0  0  0  0
    5.7089    0.6919   22.1150 H   0  0  0  0  0  0  0  0  0  0  0  0
    8.9217   -0.1995   25.4232 H   0  0  0  0  0  0  0  0  0  0  0  0
   10.0643   -2.2341   21.8254 H   0  0  0  0  0  0  0  0  0  0  0  0
    8.6893   -2.3540   26.5808 H   0  0  0  0  0  0  0  0  0  0  0  0
    9.9257   -4.3898   22.9921 H   0  0  0  0  0  0  0  0  0  0  0  0
   11.7624    1.3510   25.9426 H   0  0  0  0  0  0  0  0  0  0  0  0
   12.2462    1.4390   21.6566 H   0  0  0  0  0  0  0  0  0  0  0  0
   15.0990    2.5601   22.6124 H   0  0  0  0  0  0  0  0  0  0  0  0
   15.5636    1.0018   23.3756 H   0  0  0  0  0  0  0  0  0  0  0  0
   14.7841    1.0025   21.7733 H   0  0  0  0  0  0  0  0  0  0  0  0
    8.1744   -6.1904   26.6238 H   0  0  0  0  0  0  0  0  0  0  0  0
    7.6718   -4.4870   26.8924 H   0  0  0  0  0  0  0  0  0  0  0  0
    7.2494   -5.3166   25.3561 H   0  0  0  0  0  0  0  0  0  0  0  0
   10.1947   -6.4995   26.2216 H   0  0  0  0  0  0  0  0  0  0  0  0
   10.7865   -5.8577   24.6518 H   0  0  0  0  0  0  0  0  0  0  0  0
   11.2285   -5.0312   26.1842 H   0  0  0  0  0  0  0  0  0  0  0  0
    9.3974    1.2912   24.5523 H   0  0  0  0  0  0  0  0  0  0  0  0
    9.5159    2.2168   23.0553 H   0  0  0  0  0  0  0  0  0  0  0  0
    8.2278   -1.5705   21.0849 H   0  0  0  0  0  0  0  0  0  0  0  0
  1  2  1  0  0  0  0
  1  3  2  0  0  0  0
  2  4  2  0  0  0  0
  3 12  1  0  0  0  0
  4 13  1  0  0  0  0
  5  7  2  0  0  0  0
  5 14  1  0  0  0  0
  6  8  1  0  0  0  0
  6 14  2  0  0  0  0
  7 15  1  0  0  0  0
  8 15  2  0  0  0  0
  9 11  1  0  0  0  0
  9 21  2  0  0  0  0
 10 11  2  0  0  0  0
 10 24  1  0  0  0  0
 11 20  1  0  0  0  0
 12 13  2  0  0  0  0
 12 22  1  0  0  0  0
 13 25  1  0  0  0  0
 14 27  1  0  0  0  0
 15 28  1  0  0  0  0
 16 26  1  0  0  0  0
 16 27  1  0  0  0  0
 16 29  2  0  0  0  0
 17 24  1  0  0  0  0
 18 28  1  0  0  0  0
 19 28  1  0  0  0  0
 20 27  1  0  0  0  0
 21 24  1  0  0  0  0
 22 23  2  0  0  0  0
 23 25  1  0  0  0  0
 25 26  1  0  0  0  0
  1 30  1  0  0  0  0
  2 31  1  0  0  0  0
  3 32  1  0  0  0  0
  4 33  1  0  0  0  0
  5 34  1  0  0  0  0
  6 35  1  0  0  0  0
  7 36  1  0  0  0  0
  8 37  1  0  0  0  0
  9 38  1  0  0  0  0
 10 39  1  0  0  0  0
 17 40  1  0  0  0  0
 17 41  1  0  0  0  0
 17 42  1  0  0  0  0
 18 43  1  0  0  0  0
 18 44  1  0  0  0  0
 18 45  1  0  0  0  0
 19 46  1  0  0  0  0
 19 47  1  0  0  0  0
 19 48  1  0  0  0  0
 20 49  1  0  0  0  0
 20 50  1  0  0  0  0
 26 51  1  0  0  0  0
M  END
> <clash_score>
0

> <docking_score>
-8.899744033813477

$$$$
BENZO_2_1
  -OEChem-08212018573D

 51 54  0     0  0  0  0  0  0999 V2000
    3.9160    2.0630   19.5520 C   0  0  0  0  0  0  0  0  0  0  0  0
    4.2750    1.7050   20.8490 C   0  0  0  0  0  0  0  0  0  0  0  0
    6.4089    2.0844   24.8766 C   0  0  0  0  0  0  0  0  0  0  0  0
    7.4847    1.4191   24.2887 C   0  0  0  0  0  0  0  0  0  0  0  0
    4.6890    1.6810   18.4640 C   0  0  0  0  0  0  0  0  0  0  0  0
    5.4210    0.9600   21.0930 C   0  0  0  0  0  0  0  0  0  0  0  0
    9.0720   -1.1280   24.8640 C   0  0  0  0  0  0  0  0  0  0  0  0
    9.7200   -2.2600   22.8630 C   0  0  0  0  0  0  0  0  0  0  0  0
    8.9960   -2.3380   25.5320 C   0  0  0  0  0  0  0  0  0  0  0  0
    9.6730   -3.4710   23.5300 C   0  0  0  0  0  0  0  0  0  0  0  0
    6.5777    3.3741   25.3805 C   0  0  0  0  0  0  0  0  0  0  0  0
    8.8980    3.3330   24.7088 C   0  0  0  0  0  0  0  0  0  0  0  0
    8.7292    2.0433   24.2048 C   0  0  0  0  0  0  0  0  0  0  0  0
    5.8300    0.9190   18.6970 C   0  0  0  0  0  0  0  0  0  0  0  0
    6.1790    0.5730   19.9990 C   0  0  0  0  0  0  0  0  0  0  0  0
    9.3350   -1.0880   23.5010 C   0  0  0  0  0  0  0  0  0  0  0  0
    9.3070   -3.5340   24.8780 C   0  0  0  0  0  0  0  0  0  0  0  0
    7.8222    3.9984   25.2966 C   0  0  0  0  0  0  0  0  0  0  0  0
    9.0420    0.3700   21.5280 C   0  0  0  0  0  0  0  0  0  0  0  0
    8.0128   -5.2151   26.1416 C   0  0  0  0  0  0  0  0  0  0  0  0
   10.4372   -5.5860   25.6589 C   0  0  0  0  0  0  0  0  0  0  0  0
    9.8870    1.3260   23.5730 C   0  0  0  0  0  0  0  0  0  0  0  0
    6.7580    0.3810   17.8350 N   0  0  0  0  0  0  0  0  0  0  0  0
    7.6390   -0.2680   18.5410 N   0  0  0  0  0  0  0  0  0  0  0  0
    7.3170   -0.1610   19.8550 N   0  0  0  0  0  0  0  0  0  0  0  0
    8.1890   -0.7180   20.8700 N   0  0  0  0  0  0  0  0  0  0  0  0
    9.4560    0.1560   22.8130 N   0  0  0  0  0  0  0  0  0  0  0  0
    9.2543   -4.7552   25.5519 N   0  0  0  0  0  0  0  0  0  0  0  0
    9.2690    1.4140   20.9380 O   0  0  0  0  0  0  0  0  0  0  0  0
    8.0301    5.5891   25.9196 Cl  0  0  0  0  0  0  0  0  0  0  0  0
    3.0136    2.6526   19.3908 H   0  0  0  0  0  0  0  0  0  0  0  0
    3.6480    2.0140   21.6821 H   0  0  0  0  0  0  0  0  0  0  0  0
    5.4400    1.5979   24.9418 H   0  0  0  0  0  0  0  0  0  0  0  0
    7.3441    0.4143   23.8988 H   0  0  0  0  0  0  0  0  0  0  0  0
    4.4042    1.9741   17.4524 H   0  0  0  0  0  0  0  0  0  0  0  0
    5.7089    0.6919   22.1150 H   0  0  0  0  0  0  0  0  0  0  0  0
    8.9217   -0.1995   25.4232 H   0  0  0  0  0  0  0  0  0  0  0  0
   10.0643   -2.2341   21.8254 H   0  0  0  0  0  0  0  0  0  0  0  0
    8.6893   -2.3540   26.5808 H   0  0  0  0  0  0  0  0  0  0  0  0
    9.9257   -4.3898   22.9921 H   0  0  0  0  0  0  0  0  0  0  0  0
    5.7304    3.8806   25.8363 H   0  0  0  0  0  0  0  0  0  0  0  0
    9.8702    3.8156   24.6405 H   0  0  0  0  0  0  0  0  0  0  0  0
    8.1744   -6.1904   26.6238 H   0  0  0  0  0  0  0  0  0  0  0  0
    7.6718   -4.4870   26.8924 H   0  0  0  0  0  0  0  0  0  0  0  0
    7.2494   -5.3166   25.3561 H   0  0  0  0  0  0  0  0  0  0  0  0
   10.1947   -6.4995   26.2216 H   0  0  0  0  0  0  0  0  0  0  0  0
   10.7865   -5.8577   24.6518 H   0  0  0  0  0  0  0  0  0  0  0  0
   11.2285   -5.0312   26.1842 H   0  0  0  0  0  0  0  0  0  0  0  0
   10.4274    1.9911   22.8906 H   0  0  0  0  0  0  0  0  0  0  0  0
   10.6011    0.9882   24.3313 H   0  0  0  0  0  0  0  0  0  0  0  0
    8.2278   -1.5705   21.0849 H   0  0  0  0  0  0  0  0  0  0  0  0
  1  2  1  0  0  0  0
  1  5  2  0  0  0  0
  2  6  2  0  0  0  0
  3  4  2  0  0  0  0
  3 11  1  0  0  0  0
  4 13  1  0  0  0  0
  5 14  1  0  0  0  0
  6 15  1  0  0  0  0
  7  9  2  0  0  0  0
  7 16  1  0  0  0  0
  8 10  1  0  0  0  0
  8 16  2  0  0  0  0
  9 17  1  0  0  0  0
 10 17  2  0  0  0  0
 11 18  2  0  0  0  0
 12 13  2  0  0  0  0
 12 18  1  0  0  0  0
 13 22  1  0  0  0  0
 14 15  2  0  0  0  0
 14 23  1  0  0  0  0
 15 25  1  0  0  0  0
 16 27  1  0  0  0  0
 17 28  1  0  0  0  0
 18 30  1  0  0  0  0
 19 26  1  0  0  0  0
 19 27  1  0  0  0  0
 19 29  2  0  0  0  0
 20 28  1  0  0  0  0
 21 28  1  0  0  0  0
 22 27  1  0  0  0  0
 23 24  2  0  0  0  0
 24 25  1  0  0  0  0
 25 26  1  0  0  0  0
  1 31  1  0  0  0  0
  2 32  1  0  0  0  0
  3 33  1  0  0  0  0
  4 34  1  0  0  0  0
  5 35  1  0  0  0  0
  6 36  1  0  0  0  0
  7 37  1  0  0  0  0
  8 38  1  0  0  0  0
  9 39  1  0  0  0  0
 10 40  1  0  0  0  0
 11 41  1  0  0  0  0
 12 42  1  0  0  0  0
 20 43  1  0  0  0  0
 20 44  1  0  0  0  0
 20 45  1  0  0  0  0
 21 46  1  0  0  0  0
 21 47  1  0  0  0  0
 21 48  1  0  0  0  0
 22 49  1  0  0  0  0
 22 50  1  0  0  0  0
 26 51  1  0  0  0  0
M  END
> <clash_score>
0

> <docking_score>
-8.56962776184082

$$$$
BENZO_9_1
  -OEChem-08212019013D

 58 62  0     0  0  0  0  0  0999 V2000
   14.1526    1.4694   24.0176 C   0  0  0  0  0  0  0  0  0  0  0  0
   13.3741    0.8121   24.9701 C   0  0  0  0  0  0  0  0  0  0  0  0
   13.5446    2.0802   22.9208 C   0  0  0  0  0  0  0  0  0  0  0  0
    3.9160    2.0630   19.5520 C   0  0  0  0  0  0  0  0  0  0  0  0
    4.2750    1.7050   20.8490 C   0  0  0  0  0  0  0  0  0  0  0  0
   11.9875    0.7654   24.8259 C   0  0  0  0  0  0  0  0  0  0  0  0
   12.1580    2.0335   22.7765 C   0  0  0  0  0  0  0  0  0  0  0  0
    4.6890    1.6810   18.4640 C   0  0  0  0  0  0  0  0  0  0  0  0
    5.4210    0.9600   21.0930 C   0  0  0  0  0  0  0  0  0  0  0  0
    8.9960   -2.3380   25.5320 C   0  0  0  0  0  0  0  0  0  0  0  0
    9.6730   -3.4710   23.5300 C   0  0  0  0  0  0  0  0  0  0  0  0
    9.0720   -1.1280   24.8640 C   0  0  0  0  0  0  0  0  0  0  0  0
    9.7200   -2.2600   22.8630 C   0  0  0  0  0  0  0  0  0  0  0  0
   11.3794    1.3761   23.7290 C   0  0  0  0  0  0  0  0  0  0  0  0
    5.8300    0.9190   18.6970 C   0  0  0  0  0  0  0  0  0  0  0  0
    6.1790    0.5730   19.9990 C   0  0  0  0  0  0  0  0  0  0  0  0
    9.3070   -3.5340   24.8780 C   0  0  0  0  0  0  0  0  0  0  0  0
    9.3350   -1.0880   23.5010 C   0  0  0  0  0  0  0  0  0  0  0  0
    9.0420    0.3700   21.5280 C   0  0  0  0  0  0  0  0  0  0  0  0
    7.3635   -6.1361   27.1888 C   0  0  0  0  0  0  0  0  0  0  0  0
    8.1961   -4.9735   27.7341 C   0  0  0  0  0  0  0  0  0  0  0  0
    7.1942   -6.0394   25.6709 C   0  0  0  0  0  0  0  0  0  0  0  0
    9.5196   -4.8490   26.9797 C   0  0  0  0  0  0  0  0  0  0  0  0
    8.5442   -5.8838   24.9639 C   0  0  0  0  0  0  0  0  0  0  0  0
    9.8870    1.3260   23.5730 C   0  0  0  0  0  0  0  0  0  0  0  0
    6.7580    0.3810   17.8350 N   0  0  0  0  0  0  0  0  0  0  0  0
    7.6390   -0.2680   18.5410 N   0  0  0  0  0  0  0  0  0  0  0  0
    7.3170   -0.1610   19.8550 N   0  0  0  0  0  0  0  0  0  0  0  0
    9.2562   -4.7384   25.5422 N   0  0  0  0  0  0  0  0  0  0  0  0
    8.1890   -0.7180   20.8700 N   0  0  0  0  0  0  0  0  0  0  0  0
    9.4560    0.1560   22.8130 N   0  0  0  0  0  0  0  0  0  0  0  0
    9.2690    1.4140   20.9380 O   0  0  0  0  0  0  0  0  0  0  0  0
   15.2322    1.5068   24.1308 H   0  0  0  0  0  0  0  0  0  0  0  0
   13.8473    0.3374   25.8248 H   0  0  0  0  0  0  0  0  0  0  0  0
   14.1503    2.5930   22.1795 H   0  0  0  0  0  0  0  0  0  0  0  0
    3.0136    2.6526   19.3908 H   0  0  0  0  0  0  0  0  0  0  0  0
    3.6480    2.0140   21.6821 H   0  0  0  0  0  0  0  0  0  0  0  0
   11.3889    0.2508   25.5729 H   0  0  0  0  0  0  0  0  0  0  0  0
   11.6930    2.5120   21.9187 H   0  0  0  0  0  0  0  0  0  0  0  0
    4.4042    1.9741   17.4524 H   0  0  0  0  0  0  0  0  0  0  0  0
    5.7089    0.6919   22.1150 H   0  0  0  0  0  0  0  0  0  0  0  0
    8.6905   -2.3533   26.5810 H   0  0  0  0  0  0  0  0  0  0  0  0
    9.9266   -4.3896   22.9917 H   0  0  0  0  0  0  0  0  0  0  0  0
    8.9233   -0.1992   25.4231 H   0  0  0  0  0  0  0  0  0  0  0  0
   10.0650   -2.2330   21.8256 H   0  0  0  0  0  0  0  0  0  0  0  0
    7.8482   -7.0901   27.4469 H   0  0  0  0  0  0  0  0  0  0  0  0
    6.3760   -6.1438   27.6724 H   0  0  0  0  0  0  0  0  0  0  0  0
    7.6307   -4.0424   27.6403 H   0  0  0  0  0  0  0  0  0  0  0  0
    8.3915   -5.1310   28.7968 H   0  0  0  0  0  0  0  0  0  0  0  0
    6.6888   -6.9376   25.3010 H   0  0  0  0  0  0  0  0  0  0  0  0
    6.5515   -5.1859   25.4257 H   0  0  0  0  0  0  0  0  0  0  0  0
   10.0492   -3.9640   27.3414 H   0  0  0  0  0  0  0  0  0  0  0  0
   10.1431   -5.7254   27.1778 H   0  0  0  0  0  0  0  0  0  0  0  0
    9.1338   -6.7931   25.0868 H   0  0  0  0  0  0  0  0  0  0  0  0
    8.3656   -5.7264   23.8998 H   0  0  0  0  0  0  0  0  0  0  0  0
    9.3974    1.2912   24.5523 H   0  0  0  0  0  0  0  0  0  0  0  0
    9.5159    2.2168   23.0553 H   0  0  0  0  0  0  0  0  0  0  0  0
    8.2565   -1.5523   21.1108 H   0  0  0  0  0  0  0  0  0  0  0  0
  1  2  1  0  0  0  0
  1  3  2  0  0  0  0
  2  6  2  0  0  0  0
  3  7  1  0  0  0  0
  4  5  1  0  0  0  0
  4  8  2  0  0  0  0
  5  9  2  0  0  0  0
  6 14  1  0  0  0  0
  7 14  2  0  0  0  0
  8 15  1  0  0  0  0
  9 16  1  0  0  0  0
 10 12  2  0  0  0  0
 10 17  1  0  0  0  0
 11 13  1  0  0  0  0
 11 17  2  0  0  0  0
 12 18  1  0  0  0  0
 13 18  2  0  0  0  0
 14 25  1  0  0  0  0
 15 16  2  0  0  0  0
 15 26  1  0  0  0  0
 16 28  1  0  0  0  0
 17 29  1  0  0  0  0
 18 31  1  0  0  0  0
 19 30  1  0  0  0  0
 19 31  1  0  0  0  0
 19 32  2  0  0  0  0
 20 21  1  0  0  0  0
 20 22  1  0  0  0  0
 21 23  1  0  0  0  0
 22 24  1  0  0  0  0
 23 29  1  0  0  0  0
 24 29  1  0  0  0  0
 25 31  1  0  0  0  0
 26 27  2  0  0  0  0
 27 28  1  0  0  0  0
 28 30  1  0  0  0  0
  1 33  1  0  0  0  0
  2 34  1  0  0  0  0
  3 35  1  0  0  0  0
  4 36  1  0  0  0  0
  5 37  1  0  0  0  0
  6 38  1  0  0  0  0
  7 39  1  0  0  0  0
  8 40  1  0  0  0  0
  9 41  1  0  0  0  0
 10 42  1  0  0  0  0
 11 43  1  0  0  0  0
 12 44  1  0  0  0  0
 13 45  1  0  0  0  0
 20 46  1  0  0  0  0
 20 47  1  0  0  0  0
 21 48  1  0  0  0  0
 21 49  1  0  0  0  0
 22 50  1  0  0  0  0
 22 51  1  0  0  0  0
 23 52  1  0  0  0  0
 23 53  1  0  0  0  0
 24 54  1  0  0  0  0
 24 55  1  0  0  0  0
 25 56  1  0  0  0  0
 25 57  1  0  0  0  0
 30 58  1  0  0  0  0
M  END
> <clash_score>
0

> <docking_score>
-8.279372215270996

$$$$
BENZO_15_1
  -OEChem-08212019013D

 46 49  0     0  0  0  0  0  0999 V2000
    3.9160    2.0630   19.5520 C   0  0  0  0  0  0  0  0  0  0  0  0
    4.2750    1.7050   20.8490 C   0  0  0  0  0  0  0  0  0  0  0  0
    8.9960   -2.3380   25.5320 C   0  0  0  0  0  0  0  0  0  0  0  0
    9.6730   -3.4710   23.5300 C   0  0  0  0  0  0  0  0  0  0  0  0
    4.6890    1.6810   18.4640 C   0  0  0  0  0  0  0  0  0  0  0  0
    5.4210    0.9600   21.0930 C   0  0  0  0  0  0  0  0  0  0  0  0
    9.0720   -1.1280   24.8640 C   0  0  0  0  0  0  0  0  0  0  0  0
    9.7200   -2.2600   22.8630 C   0  0  0  0  0  0  0  0  0  0  0  0
   12.1233    1.3811   24.9242 C   0  0  0  0  0  0  0  0  0  0  0  0
   12.3261    1.4247   22.7351 C   0  0  0  0  0  0  0  0  0  0  0  0
    9.3070   -3.5340   24.8780 C   0  0  0  0  0  0  0  0  0  0  0  0
   11.3794    1.3761   23.7290 C   0  0  0  0  0  0  0  0  0  0  0  0
    5.8300    0.9190   18.6970 C   0  0  0  0  0  0  0  0  0  0  0  0
    6.1790    0.5730   19.9990 C   0  0  0  0  0  0  0  0  0  0  0  0
    9.3350   -1.0880   23.5010 C   0  0  0  0  0  0  0  0  0  0  0  0
    9.0420    0.3700   21.5280 C   0  0  0  0  0  0  0  0  0  0  0  0
    9.2505   -4.8264   25.5904 C   0  0  0  0  0  0  0  0  0  0  0  0
   14.8305    1.5084   22.7418 C   0  0  0  0  0  0  0  0  0  0  0  0
    9.8870    1.3260   23.5730 C   0  0  0  0  0  0  0  0  0  0  0  0
   13.4410    1.4289   24.7112 N   0  0  0  0  0  0  0  0  0  0  0  0
    6.7580    0.3810   17.8350 N   0  0  0  0  0  0  0  0  0  0  0  0
    7.6390   -0.2680   18.5410 N   0  0  0  0  0  0  0  0  0  0  0  0
   13.5326    1.4543   23.3706 N   0  0  0  0  0  0  0  0  0  0  0  0
    7.3170   -0.1610   19.8550 N   0  0  0  0  0  0  0  0  0  0  0  0
    8.1890   -0.7180   20.8700 N   0  0  0  0  0  0  0  0  0  0  0  0
    9.4560    0.1560   22.8130 N   0  0  0  0  0  0  0  0  0  0  0  0
    9.2690    1.4140   20.9380 O   0  0  0  0  0  0  0  0  0  0  0  0
    3.0136    2.6526   19.3908 H   0  0  0  0  0  0  0  0  0  0  0  0
    3.6480    2.0140   21.6821 H   0  0  0  0  0  0  0  0  0  0  0  0
    8.6919   -2.3557   26.5813 H   0  0  0  0  0  0  0  0  0  0  0  0
    9.9267   -4.3907   22.9939 H   0  0  0  0  0  0  0  0  0  0  0  0
    4.4042    1.9741   17.4524 H   0  0  0  0  0  0  0  0  0  0  0  0
    5.7089    0.6919   22.1150 H   0  0  0  0  0  0  0  0  0  0  0  0
    8.9217   -0.1995   25.4231 H   0  0  0  0  0  0  0  0  0  0  0  0
   10.0653   -2.2339   21.8256 H   0  0  0  0  0  0  0  0  0  0  0  0
   11.7624    1.3510   25.9426 H   0  0  0  0  0  0  0  0  0  0  0  0
   12.2462    1.4390   21.6566 H   0  0  0  0  0  0  0  0  0  0  0  0
    8.2503   -5.2678   25.5020 H   0  0  0  0  0  0  0  0  0  0  0  0
    9.9817   -5.5374   25.1845 H   0  0  0  0  0  0  0  0  0  0  0  0
    9.4841   -4.7043   26.6562 H   0  0  0  0  0  0  0  0  0  0  0  0
   15.0990    2.5601   22.6124 H   0  0  0  0  0  0  0  0  0  0  0  0
   15.5636    1.0018   23.3756 H   0  0  0  0  0  0  0  0  0  0  0  0
   14.7841    1.0025   21.7733 H   0  0  0  0  0  0  0  0  0  0  0  0
    9.3974    1.2912   24.5523 H   0  0  0  0  0  0  0  0  0  0  0  0
    9.5159    2.2168   23.0553 H   0  0  0  0  0  0  0  0  0  0  0  0
    8.2278   -1.5705   21.0849 H   0  0  0  0  0  0  0  0  0  0  0  0
  1  2  1  0  0  0  0
  1  5  2  0  0  0  0
  2  6  2  0  0  0  0
  3  7  2  0  0  0  0
  3 11  1  0  0  0  0
  4  8  1  0  0  0  0
  4 11  2  0  0  0  0
  5 13  1  0  0  0  0
  6 14  1  0  0  0  0
  7 15  1  0  0  0  0
  8 15  2  0  0  0  0
  9 12  1  0  0  0  0
  9 20  2  0  0  0  0
 10 12  2  0  0  0  0
 10 23  1  0  0  0  0
 11 17  1  0  0  0  0
 12 19  1  0  0  0  0
 13 14  2  0  0  0  0
 13 21  1  0  0  0  0
 14 24  1  0  0  0  0
 15 26  1  0  0  0  0
 16 25  1  0  0  0  0
 16 26  1  0  0  0  0
 16 27  2  0  0  0  0
 18 23  1  0  0  0  0
 19 26  1  0  0  0  0
 20 23  1  0  0  0  0
 21 22  2  0  0  0  0
 22 24  1  0  0  0  0
 24 25  1  0  0  0  0
  1 28  1  0  0  0  0
  2 29  1  0  0  0  0
  3 30  1  0  0  0  0
  4 31  1  0  0  0  0
  5 32  1  0  0  0  0
  6 33  1  0  0  0  0
  7 34  1  0  0  0  0
  8 35  1  0  0  0  0
  9 36  1  0  0  0  0
 10 37  1  0  0  0  0
 17 38  1  0  0  0  0
 17 39  1  0  0  0  0
 17 40  1  0  0  0  0
 18 41  1  0  0  0  0
 18 42  1  0  0  0  0
 18 43  1  0  0  0  0
 19 44  1  0  0  0  0
 19 45  1  0  0  0  0
 25 46  1  0  0  0  0
M  END
> <clash_score>
0

> <docking_score>
-8.240541458129883

$$$$
BENZO_8_1
  -OEChem-08212019013D

 55 59  0     0  0  0  0  0  0999 V2000
    3.9160    2.0630   19.5520 C   0  0  0  0  0  0  0  0  0  0  0  0
    4.2750    1.7050   20.8490 C   0  0  0  0  0  0  0  0  0  0  0  0
    4.6890    1.6810   18.4640 C   0  0  0  0  0  0  0  0  0  0  0  0
    5.4210    0.9600   21.0930 C   0  0  0  0  0  0  0  0  0  0  0  0
    8.9960   -2.3380   25.5320 C   0  0  0  0  0  0  0  0  0  0  0  0
    9.6730   -3.4710   23.5300 C   0  0  0  0  0  0  0  0  0  0  0  0
    9.0720   -1.1280   24.8640 C   0  0  0  0  0  0  0  0  0  0  0  0
    9.7200   -2.2600   22.8630 C   0  0  0  0  0  0  0  0  0  0  0  0
   12.2913    1.4279   22.6355 C   0  0  0  0  0  0  0  0  0  0  0  0
   13.6024    1.4662   23.0564 C   0  0  0  0  0  0  0  0  0  0  0  0
   12.0284    1.3764   24.9443 C   0  0  0  0  0  0  0  0  0  0  0  0
   11.3794    1.3761   23.7290 C   0  0  0  0  0  0  0  0  0  0  0  0
    5.8300    0.9190   18.6970 C   0  0  0  0  0  0  0  0  0  0  0  0
    6.1790    0.5730   19.9990 C   0  0  0  0  0  0  0  0  0  0  0  0
    9.3070   -3.5340   24.8780 C   0  0  0  0  0  0  0  0  0  0  0  0
    9.3350   -1.0880   23.5010 C   0  0  0  0  0  0  0  0  0  0  0  0
    9.0420    0.3700   21.5280 C   0  0  0  0  0  0  0  0  0  0  0  0
    7.3635   -6.1361   27.1888 C   0  0  0  0  0  0  0  0  0  0  0  0
    8.1961   -4.9735   27.7341 C   0  0  0  0  0  0  0  0  0  0  0  0
    7.1942   -6.0394   25.6709 C   0  0  0  0  0  0  0  0  0  0  0  0
    9.5196   -4.8490   26.9797 C   0  0  0  0  0  0  0  0  0  0  0  0
    8.5442   -5.8838   24.9639 C   0  0  0  0  0  0  0  0  0  0  0  0
    9.8870    1.3260   23.5730 C   0  0  0  0  0  0  0  0  0  0  0  0
    6.7580    0.3810   17.8350 N   0  0  0  0  0  0  0  0  0  0  0  0
    7.6390   -0.2680   18.5410 N   0  0  0  0  0  0  0  0  0  0  0  0
    7.3170   -0.1610   19.8550 N   0  0  0  0  0  0  0  0  0  0  0  0
    9.2562   -4.7384   25.5422 N   0  0  0  0  0  0  0  0  0  0  0  0
    8.1890   -0.7180   20.8700 N   0  0  0  0  0  0  0  0  0  0  0  0
    9.4560    0.1560   22.8130 N   0  0  0  0  0  0  0  0  0  0  0  0
    9.2690    1.4140   20.9380 O   0  0  0  0  0  0  0  0  0  0  0  0
   13.7301    1.4394   24.7638 S   0  0  0  0  0  0  0  0  0  0  0  0
    3.0136    2.6526   19.3908 H   0  0  0  0  0  0  0  0  0  0  0  0
    3.6480    2.0140   21.6821 H   0  0  0  0  0  0  0  0  0  0  0  0
    4.4042    1.9741   17.4524 H   0  0  0  0  0  0  0  0  0  0  0  0
    5.7089    0.6919   22.1150 H   0  0  0  0  0  0  0  0  0  0  0  0
    8.6905   -2.3533   26.5810 H   0  0  0  0  0  0  0  0  0  0  0  0
    9.9266   -4.3896   22.9917 H   0  0  0  0  0  0  0  0  0  0  0  0
    8.9233   -0.1992   25.4231 H   0  0  0  0  0  0  0  0  0  0  0  0
   10.0650   -2.2330   21.8256 H   0  0  0  0  0  0  0  0  0  0  0  0
   12.0045    1.4365   21.5915 H   0  0  0  0  0  0  0  0  0  0  0  0
   14.4914    1.5078   22.4431 H   0  0  0  0  0  0  0  0  0  0  0  0
   11.5886    1.3416   25.9314 H   0  0  0  0  0  0  0  0  0  0  0  0
    7.8482   -7.0901   27.4469 H   0  0  0  0  0  0  0  0  0  0  0  0
    6.3760   -6.1438   27.6724 H   0  0  0  0  0  0  0  0  0  0  0  0
    7.6307   -4.0424   27.6403 H   0  0  0  0  0  0  0  0  0  0  0  0
    8.3915   -5.1310   28.7968 H   0  0  0  0  0  0  0  0  0  0  0  0
    6.6888   -6.9376   25.3010 H   0  0  0  0  0  0  0  0  0  0  0  0
    6.5515   -5.1859   25.4257 H   0  0  0  0  0  0  0  0  0  0  0  0
   10.0492   -3.9640   27.3414 H   0  0  0  0  0  0  0  0  0  0  0  0
   10.1431   -5.7254   27.1778 H   0  0  0  0  0  0  0  0  0  0  0  0
    9.1338   -6.7931   25.0868 H   0  0  0  0  0  0  0  0  0  0  0  0
    8.3656   -5.7264   23.8998 H   0  0  0  0  0  0  0  0  0  0  0  0
    9.3974    1.2912   24.5523 H   0  0  0  0  0  0  0  0  0  0  0  0
    9.5159    2.2168   23.0553 H   0  0  0  0  0  0  0  0  0  0  0  0
    8.2565   -1.5523   21.1108 H   0  0  0  0  0  0  0  0  0  0  0  0
  1  2  1  0  0  0  0
  1  3  2  0  0  0  0
  2  4  2  0  0  0  0
  3 13  1  0  0  0  0
  4 14  1  0  0  0  0
  5  7  2  0  0  0  0
  5 15  1  0  0  0  0
  6  8  1  0  0  0  0
  6 15  2  0  0  0  0
  7 16  1  0  0  0  0
  8 16  2  0  0  0  0
  9 10  2  0  0  0  0
  9 12  1  0  0  0  0
 10 31  1  0  0  0  0
 11 12  2  0  0  0  0
 11 31  1  0  0  0  0
 12 23  1  0  0  0  0
 13 14  2  0  0  0  0
 13 24  1  0  0  0  0
 14 26  1  0  0  0  0
 15 27  1  0  0  0  0
 16 29  1  0  0  0  0
 17 28  1  0  0  0  0
 17 29  1  0  0  0  0
 17 30  2  0  0  0  0
 18 19  1  0  0  0  0
 18 20  1  0  0  0  0
 19 21  1  0  0  0  0
 20 22  1  0  0  0  0
 21 27  1  0  0  0  0
 22 27  1  0  0  0  0
 23 29  1  0  0  0  0
 24 25  2  0  0  0  0
 25 26  1  0  0  0  0
 26 28  1  0  0  0  0
  1 32  1  0  0  0  0
  2 33  1  0  0  0  0
  3 34  1  0  0  0  0
  4 35  1  0  0  0  0
  5 36  1  0  0  0  0
  6 37  1  0  0  0  0
  7 38  1  0  0  0  0
  8 39  1  0  0  0  0
  9 40  1  0  0  0  0
 10 41  1  0  0  0  0
 11 42  1  0  0  0  0
 18 43  1  0  0  0  0
 18 44  1  0  0  0  0
 19 45  1  0  0  0  0
 19 46  1  0  0  0  0
 20 47  1  0  0  0  0
 20 48  1  0  0  0  0
 21 49  1  0  0  0  0
 21 50  1  0  0  0  0
 22 51  1  0  0  0  0
 22 52  1  0  0  0  0
 23 53  1  0  0  0  0
 23 54  1  0  0  0  0
 28 55  1  0  0  0  0
M  END
> <clash_score>
0

> <docking_score>
-8.358237266540527

$$$$
BENZO_14_1
  -OEChem-08212019013D

 46 49  0     0  0  0  0  0  0999 V2000
    3.9160    2.0630   19.5520 C   0  0  0  0  0  0  0  0  0  0  0  0
    4.2750    1.7050   20.8490 C   0  0  0  0  0  0  0  0  0  0  0  0
    6.4089    2.0844   24.8766 C   0  0  0  0  0  0  0  0  0  0  0  0
    7.4847    1.4191   24.2887 C   0  0  0  0  0  0  0  0  0  0  0  0
    8.9960   -2.3380   25.5320 C   0  0  0  0  0  0  0  0  0  0  0  0
    9.6730   -3.4710   23.5300 C   0  0  0  0  0  0  0  0  0  0  0  0
    4.6890    1.6810   18.4640 C   0  0  0  0  0  0  0  0  0  0  0  0
    5.4210    0.9600   21.0930 C   0  0  0  0  0  0  0  0  0  0  0  0
    9.0720   -1.1280   24.8640 C   0  0  0  0  0  0  0  0  0  0  0  0
    9.7200   -2.2600   22.8630 C   0  0  0  0  0  0  0  0  0  0  0  0
    6.5777    3.3741   25.3805 C   0  0  0  0  0  0  0  0  0  0  0  0
    8.8980    3.3330   24.7088 C   0  0  0  0  0  0  0  0  0  0  0  0
    9.3070   -3.5340   24.8780 C   0  0  0  0  0  0  0  0  0  0  0  0
    8.7292    2.0433   24.2048 C   0  0  0  0  0  0  0  0  0  0  0  0
    5.8300    0.9190   18.6970 C   0  0  0  0  0  0  0  0  0  0  0  0
    6.1790    0.5730   19.9990 C   0  0  0  0  0  0  0  0  0  0  0  0
    9.3350   -1.0880   23.5010 C   0  0  0  0  0  0  0  0  0  0  0  0
    7.8222    3.9984   25.2966 C   0  0  0  0  0  0  0  0  0  0  0  0
    9.0420    0.3700   21.5280 C   0  0  0  0  0  0  0  0  0  0  0  0
    9.2505   -4.8264   25.5904 C   0  0  0  0  0  0  0  0  0  0  0  0
    9.8870    1.3260   23.5730 C   0  0  0  0  0  0  0  0  0  0  0  0
    6.7580    0.3810   17.8350 N   0  0  0  0  0  0  0  0  0  0  0  0
    7.6390   -0.2680   18.5410 N   0  0  0  0  0  0  0  0  0  0  0  0
    7.3170   -0.1610   19.8550 N   0  0  0  0  0  0  0  0  0  0  0  0
    8.1890   -0.7180   20.8700 N   0  0  0  0  0  0  0  0  0  0  0  0
    9.4560    0.1560   22.8130 N   0  0  0  0  0  0  0  0  0  0  0  0
    9.2690    1.4140   20.9380 O   0  0  0  0  0  0  0  0  0  0  0  0
    8.0301    5.5891   25.9196 Cl  0  0  0  0  0  0  0  0  0  0  0  0
    3.0136    2.6526   19.3908 H   0  0  0  0  0  0  0  0  0  0  0  0
    3.6480    2.0140   21.6821 H   0  0  0  0  0  0  0  0  0  0  0  0
    5.4400    1.5979   24.9418 H   0  0  0  0  0  0  0  0  0  0  0  0
    7.3441    0.4143   23.8988 H   0  0  0  0  0  0  0  0  0  0  0  0
    8.6919   -2.3557   26.5813 H   0  0  0  0  0  0  0  0  0  0  0  0
    9.9267   -4.3907   22.9939 H   0  0  0  0  0  0  0  0  0  0  0  0
    4.4042    1.9741   17.4524 H   0  0  0  0  0  0  0  0  0  0  0  0
    5.7089    0.6919   22.1150 H   0  0  0  0  0  0  0  0  0  0  0  0
    8.9217   -0.1995   25.4231 H   0  0  0  0  0  0  0  0  0  0  0  0
   10.0653   -2.2339   21.8256 H   0  0  0  0  0  0  0  0  0  0  0  0
    5.7304    3.8806   25.8363 H   0  0  0  0  0  0  0  0  0  0  0  0
    9.8702    3.8156   24.6405 H   0  0  0  0  0  0  0  0  0  0  0  0
    8.2503   -5.2678   25.5020 H   0  0  0  0  0  0  0  0  0  0  0  0
    9.9817   -5.5374   25.1845 H   0  0  0  0  0  0  0  0  0  0  0  0
    9.4841   -4.7043   26.6562 H   0  0  0  0  0  0  0  0  0  0  0  0
   10.4274    1.9911   22.8906 H   0  0  0  0  0  0  0  0  0  0  0  0
   10.6011    0.9882   24.3313 H   0  0  0  0  0  0  0  0  0  0  0  0
    8.2278   -1.5705   21.0849 H   0  0  0  0  0  0  0  0  0  0  0  0
  1  2  1  0  0  0  0
  1  7  2  0  0  0  0
  2  8  2  0  0  0  0
  3  4  2  0  0  0  0
  3 11  1  0  0  0  0
  4 14  1  0  0  0  0
  5  9  2  0  0  0  0
  5 13  1  0  0  0  0
  6 10  1  0  0  0  0
  6 13  2  0  0  0  0
  7 15  1  0  0  0  0
  8 16  1  0  0  0  0
  9 17  1  0  0  0  0
 10 17  2  0  0  0  0
 11 18  2  0  0  0  0
 12 14  2  0  0  0  0
 12 18  1  0  0  0  0
 13 20  1  0  0  0  0
 14 21  1  0  0  0  0
 15 16  2  0  0  0  0
 15 22  1  0  0  0  0
 16 24  1  0  0  0  0
 17 26  1  0  0  0  0
 18 28  1  0  0  0  0
 19 25  1  0  0  0  0
 19 26  1  0  0  0  0
 19 27  2  0  0  0  0
 21 26  1  0  0  0  0
 22 23  2  0  0  0  0
 23 24  1  0  0  0  0
 24 25  1  0  0  0  0
  1 29  1  0  0  0  0
  2 30  1  0  0  0  0
  3 31  1  0  0  0  0
  4 32  1  0  0  0  0
  5 33  1  0  0  0  0
  6 34  1  0  0  0  0
  7 35  1  0  0  0  0
  8 36  1  0  0  0  0
  9 37  1  0  0  0  0
 10 38  1  0  0  0  0
 11 39  1  0  0  0  0
 12 40  1  0  0  0  0
 20 41  1  0  0  0  0
 20 42  1  0  0  0  0
 20 43  1  0  0  0  0
 21 44  1  0  0  0  0
 21 45  1  0  0  0  0
 25 46  1  0  0  0  0
M  END
> <clash_score>
0

> <docking_score>
-7.91042423248291

$$$$
BENZO_11_1
  -OEChem-08212019013D

 58 62  0     0  0  0  0  0  0999 V2000
    3.9160    2.0630   19.5520 C   0  0  0  0  0  0  0  0  0  0  0  0
    4.2750    1.7050   20.8490 C   0  0  0  0  0  0  0  0  0  0  0  0
    4.6890    1.6810   18.4640 C   0  0  0  0  0  0  0  0  0  0  0  0
    5.4210    0.9600   21.0930 C   0  0  0  0  0  0  0  0  0  0  0  0
    8.9960   -2.3380   25.5320 C   0  0  0  0  0  0  0  0  0  0  0  0
    9.6730   -3.4710   23.5300 C   0  0  0  0  0  0  0  0  0  0  0  0
    9.0720   -1.1280   24.8640 C   0  0  0  0  0  0  0  0  0  0  0  0
    9.7200   -2.2600   22.8630 C   0  0  0  0  0  0  0  0  0  0  0  0
   12.1233    1.3811   24.9242 C   0  0  0  0  0  0  0  0  0  0  0  0
   12.3262    1.4247   22.7351 C   0  0  0  0  0  0  0  0  0  0  0  0
   11.3794    1.3761   23.7290 C   0  0  0  0  0  0  0  0  0  0  0  0
    5.8300    0.9190   18.6970 C   0  0  0  0  0  0  0  0  0  0  0  0
    6.1790    0.5730   19.9990 C   0  0  0  0  0  0  0  0  0  0  0  0
    9.3070   -3.5340   24.8780 C   0  0  0  0  0  0  0  0  0  0  0  0
    9.3350   -1.0880   23.5010 C   0  0  0  0  0  0  0  0  0  0  0  0
    9.0420    0.3700   21.5280 C   0  0  0  0  0  0  0  0  0  0  0  0
    7.3635   -6.1361   27.1888 C   0  0  0  0  0  0  0  0  0  0  0  0
    8.1961   -4.9735   27.7341 C   0  0  0  0  0  0  0  0  0  0  0  0
    7.1942   -6.0394   25.6709 C   0  0  0  0  0  0  0  0  0  0  0  0
    9.5196   -4.8490   26.9797 C   0  0  0  0  0  0  0  0  0  0  0  0
    8.5442   -5.8838   24.9639 C   0  0  0  0  0  0  0  0  0  0  0  0
   14.8305    1.5084   22.7418 C   0  0  0  0  0  0  0  0  0  0  0  0
    9.8870    1.3260   23.5730 C   0  0  0  0  0  0  0  0  0  0  0  0
   13.4410    1.4289   24.7112 N   0  0  0  0  0  0  0  0  0  0  0  0
    6.7580    0.3810   17.8350 N   0  0  0  0  0  0  0  0  0  0  0  0
    7.6390   -0.2680   18.5410 N   0  0  0  0  0  0  0  0  0  0  0  0
   13.5326    1.4543   23.3706 N   0  0  0  0  0  0  0  0  0  0  0  0
    7.3170   -0.1610   19.8550 N   0  0  0  0  0  0  0  0  0  0  0  0
    9.2562   -4.7384   25.5422 N   0  0  0  0  0  0  0  0  0  0  0  0
    8.1890   -0.7180   20.8700 N   0  0  0  0  0  0  0  0  0  0  0  0
    9.4560    0.1560   22.8130 N   0  0  0  0  0  0  0  0  0  0  0  0
    9.2690    1.4140   20.9380 O   0  0  0  0  0  0  0  0  0  0  0  0
    3.0136    2.6526   19.3908 H   0  0  0  0  0  0  0  0  0  0  0  0
    3.6480    2.0140   21.6821 H   0  0  0  0  0  0  0  0  0  0  0  0
    4.4042    1.9741   17.4524 H   0  0  0  0  0  0  0  0  0  0  0  0
    5.7089    0.6919   22.1150 H   0  0  0  0  0  0  0  0  0  0  0  0
    8.6905   -2.3533   26.5810 H   0  0  0  0  0  0  0  0  0  0  0  0
    9.9266   -4.3896   22.9917 H   0  0  0  0  0  0  0  0  0  0  0  0
    8.9233   -0.1992   25.4231 H   0  0  0  0  0  0  0  0  0  0  0  0
   10.0650   -2.2330   21.8256 H   0  0  0  0  0  0  0  0  0  0  0  0
   11.7624    1.3510   25.9426 H   0  0  0  0  0  0  0  0  0  0  0  0
   12.2462    1.4390   21.6566 H   0  0  0  0  0  0  0  0  0  0  0  0
    7.8482   -7.0901   27.4469 H   0  0  0  0  0  0  0  0  0  0  0  0
    6.3760   -6.1438   27.6724 H   0  0  0  0  0  0  0  0  0  0  0  0
    7.6307   -4.0424   27.6403 H   0  0  0  0  0  0  0  0  0  0  0  0
    8.3915   -5.1310   28.7968 H   0  0  0  0  0  0  0  0  0  0  0  0
    6.6888   -6.9376   25.3010 H   0  0  0  0  0  0  0  0  0  0  0  0
    6.5515   -5.1859   25.4257 H   0  0  0  0  0  0  0  0  0  0  0  0
   10.0492   -3.9640   27.3414 H   0  0  0  0  0  0  0  0  0  0  0  0
   10.1431   -5.7254   27.1778 H   0  0  0  0  0  0  0  0  0  0  0  0
    9.1338   -6.7931   25.0868 H   0  0  0  0  0  0  0  0  0  0  0  0
    8.3656   -5.7264   23.8998 H   0  0  0  0  0  0  0  0  0  0  0  0
   15.0990    2.5601   22.6124 H   0  0  0  0  0  0  0  0  0  0  0  0
   15.5636    1.0018   23.3756 H   0  0  0  0  0  0  0  0  0  0  0  0
   14.7841    1.0025   21.7733 H   0  0  0  0  0  0  0  0  0  0  0  0
    9.3974    1.2912   24.5523 H   0  0  0  0  0  0  0  0  0  0  0  0
    9.5159    2.2168   23.0553 H   0  0  0  0  0  0  0  0  0  0  0  0
    8.2565   -1.5523   21.1108 H   0  0  0  0  0  0  0  0  0  0  0  0
  1  2  1  0  0  0  0
  1  3  2  0  0  0  0
  2  4  2  0  0  0  0
  3 12  1  0  0  0  0
  4 13  1  0  0  0  0
  5  7  2  0  0  0  0
  5 14  1  0  0  0  0
  6  8  1  0  0  0  0
  6 14  2  0  0  0  0
  7 15  1  0  0  0  0
  8 15  2  0  0  0  0
  9 11  1  0  0  0  0
  9 24  2  0  0  0  0
 10 11  2  0  0  0  0
 10 27  1  0  0  0  0
 11 23  1  0  0  0  0
 12 13  2  0  0  0  0
 12 25  1  0  0  0  0
 13 28  1  0  0  0  0
 14 29  1  0  0  0  0
 15 31  1  0  0  0  0
 16 30  1  0  0  0  0
 16 31  1  0  0  0  0
 16 32  2  0  0  0  0
 17 18  1  0  0  0  0
 17 19  1  0  0  0  0
 18 20  1  0  0  0  0
 19 21  1  0  0  0  0
 20 29  1  0  0  0  0
 21 29  1  0  0  0  0
 22 27  1  0  0  0  0
 23 31  1  0  0  0  0
 24 27  1  0  0  0  0
 25 26  2  0  0  0  0
 26 28  1  0  0  0  0
 28 30  1  0  0  0  0
  1 33  1  0  0  0  0
  2 34  1  0  0  0  0
  3 35  1  0  0  0  0
  4 36  1  0  0  0  0
  5 37  1  0  0  0  0
  6 38  1  0  0  0  0
  7 39  1  0  0  0  0
  8 40  1  0  0  0  0
  9 41  1  0  0  0  0
 10 42  1  0  0  0  0
 17 43  1  0  0  0  0
 17 44  1  0  0  0  0
 18 45  1  0  0  0  0
 18 46  1  0  0  0  0
 19 47  1  0  0  0  0
 19 48  1  0  0  0  0
 20 49  1  0  0  0  0
 20 50  1  0  0  0  0
 21 51  1  0  0  0  0
 21 52  1  0  0  0  0
 22 53  1  0  0  0  0
 22 54  1  0  0  0  0
 22 55  1  0  0  0  0
 23 56  1  0  0  0  0
 23 57  1  0  0  0  0
 30 58  1  0  0  0  0
M  END
> <clash_score>
0

> <docking_score>
-7.995509147644043

$$$$
BENZO_13_1
  -OEChem-08212019013D

 46 49  0     0  0  0  0  0  0999 V2000
   14.1526    1.4694   24.0176 C   0  0  0  0  0  0  0  0  0  0  0  0
   13.3741    0.8121   24.9701 C   0  0  0  0  0  0  0  0  0  0  0  0
   13.5446    2.0802   22.9208 C   0  0  0  0  0  0  0  0  0  0  0  0
    3.9160    2.0630   19.5520 C   0  0  0  0  0  0  0  0  0  0  0  0
    4.2750    1.7050   20.8490 C   0  0  0  0  0  0  0  0  0  0  0  0
   11.9875    0.7654   24.8258 C   0  0  0  0  0  0  0  0  0  0  0  0
   12.1580    2.0335   22.7765 C   0  0  0  0  0  0  0  0  0  0  0  0
    8.9960   -2.3380   25.5320 C   0  0  0  0  0  0  0  0  0  0  0  0
    9.6730   -3.4710   23.5300 C   0  0  0  0  0  0  0  0  0  0  0  0
    4.6890    1.6810   18.4640 C   0  0  0  0  0  0  0  0  0  0  0  0
    5.4210    0.9600   21.0930 C   0  0  0  0  0  0  0  0  0  0  0  0
    9.0720   -1.1280   24.8640 C   0  0  0  0  0  0  0  0  0  0  0  0
    9.7200   -2.2600   22.8630 C   0  0  0  0  0  0  0  0  0  0  0  0
    9.3070   -3.5340   24.8780 C   0  0  0  0  0  0  0  0  0  0  0  0
   11.3794    1.3761   23.7290 C   0  0  0  0  0  0  0  0  0  0  0  0
    5.8300    0.9190   18.6970 C   0  0  0  0  0  0  0  0  0  0  0  0
    6.1790    0.5730   19.9990 C   0  0  0  0  0  0  0  0  0  0  0  0
    9.3350   -1.0880   23.5010 C   0  0  0  0  0  0  0  0  0  0  0  0
    9.0420    0.3700   21.5280 C   0  0  0  0  0  0  0  0  0  0  0  0
    9.2505   -4.8264   25.5904 C   0  0  0  0  0  0  0  0  0  0  0  0
    9.8870    1.3260   23.5730 C   0  0  0  0  0  0  0  0  0  0  0  0
    6.7580    0.3810   17.8350 N   0  0  0  0  0  0  0  0  0  0  0  0
    7.6390   -0.2680   18.5410 N   0  0  0  0  0  0  0  0  0  0  0  0
    7.3170   -0.1610   19.8550 N   0  0  0  0  0  0  0  0  0  0  0  0
    8.1890   -0.7180   20.8700 N   0  0  0  0  0  0  0  0  0  0  0  0
    9.4560    0.1560   22.8130 N   0  0  0  0  0  0  0  0  0  0  0  0
    9.2690    1.4140   20.9380 O   0  0  0  0  0  0  0  0  0  0  0  0
   15.2322    1.5068   24.1308 H   0  0  0  0  0  0  0  0  0  0  0  0
   13.8473    0.3374   25.8248 H   0  0  0  0  0  0  0  0  0  0  0  0
   14.1503    2.5930   22.1795 H   0  0  0  0  0  0  0  0  0  0  0  0
    3.0136    2.6526   19.3908 H   0  0  0  0  0  0  0  0  0  0  0  0
    3.6480    2.0140   21.6821 H   0  0  0  0  0  0  0  0  0  0  0  0
   11.3889    0.2508   25.5729 H   0  0  0  0  0  0  0  0  0  0  0  0
   11.6930    2.5120   21.9187 H   0  0  0  0  0  0  0  0  0  0  0  0
    8.6919   -2.3557   26.5813 H   0  0  0  0  0  0  0  0  0  0  0  0
    9.9267   -4.3907   22.9939 H   0  0  0  0  0  0  0  0  0  0  0  0
    4.4042    1.9741   17.4524 H   0  0  0  0  0  0  0  0  0  0  0  0
    5.7089    0.6919   22.1150 H   0  0  0  0  0  0  0  0  0  0  0  0
    8.9217   -0.1995   25.4231 H   0  0  0  0  0  0  0  0  0  0  0  0
   10.0653   -2.2339   21.8256 H   0  0  0  0  0  0  0  0  0  0  0  0
    8.2503   -5.2678   25.5020 H   0  0  0  0  0  0  0  0  0  0  0  0
    9.9817   -5.5374   25.1845 H   0  0  0  0  0  0  0  0  0  0  0  0
    9.4841   -4.7043   26.6562 H   0  0  0  0  0  0  0  0  0  0  0  0
    9.3974    1.2912   24.5523 H   0  0  0  0  0  0  0  0  0  0  0  0
    9.5159    2.2168   23.0553 H   0  0  0  0  0  0  0  0  0  0  0  0
    8.2278   -1.5705   21.0849 H   0  0  0  0  0  0  0  0  0  0  0  0
  1  2  1  0  0  0  0
  1  3  2  0  0  0  0
  2  6  2  0  0  0  0
  3  7  1  0  0  0  0
  4  5  1  0  0  0  0
  4 10  2  0  0  0  0
  5 11  2  0  0  0  0
  6 15  1  0  0  0  0
  7 15  2  0  0  0  0
  8 12  2  0  0  0  0
  8 14  1  0  0  0  0
  9 13  1  0  0  0  0
  9 14  2  0  0  0  0
 10 16  1  0  0  0  0
 11 17  1  0  0  0  0
 12 18  1  0  0  0  0
 13 18  2  0  0  0  0
 14 20  1  0  0  0  0
 15 21  1  0  0  0  0
 16 17  2  0  0  0  0
 16 22  1  0  0  0  0
 17 24  1  0  0  0  0
 18 26  1  0  0  0  0
 19 25  1  0  0  0  0
 19 26  1  0  0  0  0
 19 27  2  0  0  0  0
 21 26  1  0  0  0  0
 22 23  2  0  0  0  0
 23 24  1  0  0  0  0
 24 25  1  0  0  0  0
  1 28  1  0  0  0  0
  2 29  1  0  0  0  0
  3 30  1  0  0  0  0
  4 31  1  0  0  0  0
  5 32  1  0  0  0  0
  6 33  1  0  0  0  0
  7 34  1  0  0  0  0
  8 35  1  0  0  0  0
  9 36  1  0  0  0  0
 10 37  1  0  0  0  0
 11 38  1  0  0  0  0
 12 39  1  0  0  0  0
 13 40  1  0  0  0  0
 20 41  1  0  0  0  0
 20 42  1  0  0  0  0
 20 43  1  0  0  0  0
 21 44  1  0  0  0  0
 21 45  1  0  0  0  0
 25 46  1  0  0  0  0
M  END
> <clash_score>
0

> <docking_score>
-8.524407386779785

$$$$
BENZO_10_1
  -OEChem-08212019013D

 58 62  0     0  0  0  0  0  0999 V2000
    3.9160    2.0630   19.5520 C   0  0  0  0  0  0  0  0  0  0  0  0
    4.2750    1.7050   20.8490 C   0  0  0  0  0  0  0  0  0  0  0  0
    6.4089    2.0844   24.8766 C   0  0  0  0  0  0  0  0  0  0  0  0
    7.4847    1.4191   24.2887 C   0  0  0  0  0  0  0  0  0  0  0  0
    4.6890    1.6810   18.4640 C   0  0  0  0  0  0  0  0  0  0  0  0
    5.4210    0.9600   21.0930 C   0  0  0  0  0  0  0  0  0  0  0  0
    8.9960   -2.3380   25.5320 C   0  0  0  0  0  0  0  0  0  0  0  0
    9.6730   -3.4710   23.5300 C   0  0  0  0  0  0  0  0  0  0  0  0
    9.0720   -1.1280   24.8640 C   0  0  0  0  0  0  0  0  0  0  0  0
    9.7200   -2.2600   22.8630 C   0  0  0  0  0  0  0  0  0  0  0  0
    6.5777    3.3741   25.3805 C   0  0  0  0  0  0  0  0  0  0  0  0
    8.8980    3.3330   24.7088 C   0  0  0  0  0  0  0  0  0  0  0  0
    8.7292    2.0433   24.2048 C   0  0  0  0  0  0  0  0  0  0  0  0
    5.8300    0.9190   18.6970 C   0  0  0  0  0  0  0  0  0  0  0  0
    6.1790    0.5730   19.9990 C   0  0  0  0  0  0  0  0  0  0  0  0
    9.3070   -3.5340   24.8780 C   0  0  0  0  0  0  0  0  0  0  0  0
    9.3350   -1.0880   23.5010 C   0  0  0  0  0  0  0  0  0  0  0  0
    7.8222    3.9984   25.2966 C   0  0  0  0  0  0  0  0  0  0  0  0
    9.0420    0.3700   21.5280 C   0  0  0  0  0  0  0  0  0  0  0  0
    7.3635   -6.1361   27.1888 C   0  0  0  0  0  0  0  0  0  0  0  0
    8.1961   -4.9735   27.7341 C   0  0  0  0  0  0  0  0  0  0  0  0
    7.1942   -6.0394   25.6709 C   0  0  0  0  0  0  0  0  0  0  0  0
    9.5196   -4.8490   26.9797 C   0  0  0  0  0  0  0  0  0  0  0  0
    8.5442   -5.8838   24.9639 C   0  0  0  0  0  0  0  0  0  0  0  0
    9.8870    1.3260   23.5730 C   0  0  0  0  0  0  0  0  0  0  0  0
    6.7580    0.3810   17.8350 N   0  0  0  0  0  0  0  0  0  0  0  0
    7.6390   -0.2680   18.5410 N   0  0  0  0  0  0  0  0  0  0  0  0
    7.3170   -0.1610   19.8550 N   0  0  0  0  0  0  0  0  0  0  0  0
    9.2562   -4.7384   25.5422 N   0  0  0  0  0  0  0  0  0  0  0  0
    8.1890   -0.7180   20.8700 N   0  0  0  0  0  0  0  0  0  0  0  0
    9.4560    0.1560   22.8130 N   0  0  0  0  0  0  0  0  0  0  0  0
    9.2690    1.4140   20.9380 O   0  0  0  0  0  0  0  0  0  0  0  0
    8.0301    5.5891   25.9196 Cl  0  0  0  0  0  0  0  0  0  0  0  0
    3.0136    2.6526   19.3908 H   0  0  0  0  0  0  0  0  0  0  0  0
    3.6480    2.0140   21.6821 H   0  0  0  0  0  0  0  0  0  0  0  0
    5.4400    1.5979   24.9418 H   0  0  0  0  0  0  0  0  0  0  0  0
    7.3441    0.4143   23.8988 H   0  0  0  0  0  0  0  0  0  0  0  0
    4.4042    1.9741   17.4524 H   0  0  0  0  0  0  0  0  0  0  0  0
    5.7089    0.6919   22.1150 H   0  0  0  0  0  0  0  0  0  0  0  0
    8.6905   -2.3533   26.5810 H   0  0  0  0  0  0  0  0  0  0  0  0
    9.9266   -4.3896   22.9917 H   0  0  0  0  0  0  0  0  0  0  0  0
    8.9233   -0.1992   25.4231 H   0  0  0  0  0  0  0  0  0  0  0  0
   10.0650   -2.2330   21.8256 H   0  0  0  0  0  0  0  0  0  0  0  0
    5.7304    3.8806   25.8363 H   0  0  0  0  0  0  0  0  0  0  0  0
    9.8702    3.8156   24.6405 H   0  0  0  0  0  0  0  0  0  0  0  0
    7.8482   -7.0901   27.4469 H   0  0  0  0  0  0  0  0  0  0  0  0
    6.3760   -6.1438   27.6724 H   0  0  0  0  0  0  0  0  0  0  0  0
    7.6307   -4.0424   27.6403 H   0  0  0  0  0  0  0  0  0  0  0  0
    8.3915   -5.1310   28.7968 H   0  0  0  0  0  0  0  0  0  0  0  0
    6.6888   -6.9376   25.3010 H   0  0  0  0  0  0  0  0  0  0  0  0
    6.5515   -5.1859   25.4257 H   0  0  0  0  0  0  0  0  0  0  0  0
   10.0492   -3.9640   27.3414 H   0  0  0  0  0  0  0  0  0  0  0  0
   10.1431   -5.7254   27.1778 H   0  0  0  0  0  0  0  0  0  0  0  0
    9.1338   -6.7931   25.0868 H   0  0  0  0  0  0  0  0  0  0  0  0
    8.3656   -5.7264   23.8998 H   0  0  0  0  0  0  0  0  0  0  0  0
   10.4274    1.9911   22.8906 H   0  0  0  0  0  0  0  0  0  0  0  0
   10.6011    0.9882   24.3313 H   0  0  0  0  0  0  0  0  0  0  0  0
    8.2565   -1.5523   21.1108 H   0  0  0  0  0  0  0  0  0  0  0  0
  1  2  1  0  0  0  0
  1  5  2  0  0  0  0
  2  6  2  0  0  0  0
  3  4  2  0  0  0  0
  3 11  1  0  0  0  0
  4 13  1  0  0  0  0
  5 14  1  0  0  0  0
  6 15  1  0  0  0  0
  7  9  2  0  0  0  0
  7 16  1  0  0  0  0
  8 10  1  0  0  0  0
  8 16  2  0  0  0  0
  9 17  1  0  0  0  0
 10 17  2  0  0  0  0
 11 18  2  0  0  0  0
 12 13  2  0  0  0  0
 12 18  1  0  0  0  0
 13 25  1  0  0  0  0
 14 15  2  0  0  0  0
 14 26  1  0  0  0  0
 15 28  1  0  0  0  0
 16 29  1  0  0  0  0
 17 31  1  0  0  0  0
 18 33  1  0  0  0  0
 19 30  1  0  0  0  0
 19 31  1  0  0  0  0
 19 32  2  0  0  0  0
 20 21  1  0  0  0  0
 20 22  1  0  0  0  0
 21 23  1  0  0  0  0
 22 24  1  0  0  0  0
 23 29  1  0  0  0  0
 24 29  1  0  0  0  0
 25 31  1  0  0  0  0
 26 27  2  0  0  0  0
 27 28  1  0  0  0  0
 28 30  1  0  0  0  0
  1 34  1  0  0  0  0
  2 35  1  0  0  0  0
  3 36  1  0  0  0  0
  4 37  1  0  0  0  0
  5 38  1  0  0  0  0
  6 39  1  0  0  0  0
  7 40  1  0  0  0  0
  8 41  1  0  0  0  0
  9 42  1  0  0  0  0
 10 43  1  0  0  0  0
 11 44  1  0  0  0  0
 12 45  1  0  0  0  0
 20 46  1  0  0  0  0
 20 47  1  0  0  0  0
 21 48  1  0  0  0  0
 21 49  1  0  0  0  0
 22 50  1  0  0  0  0
 22 51  1  0  0  0  0
 23 52  1  0  0  0  0
 23 53  1  0  0  0  0
 24 54  1  0  0  0  0
 24 55  1  0  0  0  0
 25 56  1  0  0  0  0
 25 57  1  0  0  0  0
 30 58  1  0  0  0  0
M  END
> <clash_score>
0

> <docking_score>
-7.665395736694336

$$$$
BENZO_12_1
  -OEChem-08212019013D

 43 46  0     0  0  0  0  0  0999 V2000
    3.9160    2.0630   19.5520 C   0  0  0  0  0  0  0  0  0  0  0  0
    4.2750    1.7050   20.8490 C   0  0  0  0  0  0  0  0  0  0  0  0
    8.9960   -2.3380   25.5320 C   0  0  0  0  0  0  0  0  0  0  0  0
    9.6730   -3.4710   23.5300 C   0  0  0  0  0  0  0  0  0  0  0  0
    4.6890    1.6810   18.4640 C   0  0  0  0  0  0  0  0  0  0  0  0
    5.4210    0.9600   21.0930 C   0  0  0  0  0  0  0  0  0  0  0  0
    9.0720   -1.1280   24.8640 C   0  0  0  0  0  0  0  0  0  0  0  0
    9.7200   -2.2600   22.8630 C   0  0  0  0  0  0  0  0  0  0  0  0
   12.2913    1.4279   22.6355 C   0  0  0  0  0  0  0  0  0  0  0  0
   13.6024    1.4661   23.0564 C   0  0  0  0  0  0  0  0  0  0  0  0
   12.0284    1.3764   24.9443 C   0  0  0  0  0  0  0  0  0  0  0  0
    9.3070   -3.5340   24.8780 C   0  0  0  0  0  0  0  0  0  0  0  0
   11.3794    1.3761   23.7290 C   0  0  0  0  0  0  0  0  0  0  0  0
    5.8300    0.9190   18.6970 C   0  0  0  0  0  0  0  0  0  0  0  0
    6.1790    0.5730   19.9990 C   0  0  0  0  0  0  0  0  0  0  0  0
    9.3350   -1.0880   23.5010 C   0  0  0  0  0  0  0  0  0  0  0  0
    9.0420    0.3700   21.5280 C   0  0  0  0  0  0  0  0  0  0  0  0
    9.2505   -4.8264   25.5904 C   0  0  0  0  0  0  0  0  0  0  0  0
    9.8870    1.3260   23.5730 C   0  0  0  0  0  0  0  0  0  0  0  0
    6.7580    0.3810   17.8350 N   0  0  0  0  0  0  0  0  0  0  0  0
    7.6390   -0.2680   18.5410 N   0  0  0  0  0  0  0  0  0  0  0  0
    7.3170   -0.1610   19.8550 N   0  0  0  0  0  0  0  0  0  0  0  0
    8.1890   -0.7180   20.8700 N   0  0  0  0  0  0  0  0  0  0  0  0
    9.4560    0.1560   22.8130 N   0  0  0  0  0  0  0  0  0  0  0  0
    9.2690    1.4140   20.9380 O   0  0  0  0  0  0  0  0  0  0  0  0
   13.7301    1.4394   24.7638 S   0  0  0  0  0  0  0  0  0  0  0  0
    3.0136    2.6526   19.3908 H   0  0  0  0  0  0  0  0  0  0  0  0
    3.6480    2.0140   21.6821 H   0  0  0  0  0  0  0  0  0  0  0  0
    8.6919   -2.3557   26.5813 H   0  0  0  0  0  0  0  0  0  0  0  0
    9.9267   -4.3907   22.9939 H   0  0  0  0  0  0  0  0  0  0  0  0
    4.4042    1.9741   17.4524 H   0  0  0  0  0  0  0  0  0  0  0  0
    5.7089    0.6919   22.1150 H   0  0  0  0  0  0  0  0  0  0  0  0
    8.9217   -0.1995   25.4231 H   0  0  0  0  0  0  0  0  0  0  0  0
   10.0653   -2.2339   21.8256 H   0  0  0  0  0  0  0  0  0  0  0  0
   12.0045    1.4365   21.5915 H   0  0  0  0  0  0  0  0  0  0  0  0
   14.4914    1.5078   22.4431 H   0  0  0  0  0  0  0  0  0  0  0  0
   11.5886    1.3416   25.9314 H   0  0  0  0  0  0  0  0  0  0  0  0
    8.2503   -5.2678   25.5020 H   0  0  0  0  0  0  0  0  0  0  0  0
    9.9817   -5.5374   25.1845 H   0  0  0  0  0  0  0  0  0  0  0  0
    9.4841   -4.7043   26.6562 H   0  0  0  0  0  0  0  0  0  0  0  0
    9.3974    1.2912   24.5523 H   0  0  0  0  0  0  0  0  0  0  0  0
    9.5159    2.2168   23.0553 H   0  0  0  0  0  0  0  0  0  0  0  0
    8.2278   -1.5705   21.0849 H   0  0  0  0  0  0  0  0  0  0  0  0
  1  2  1  0  0  0  0
  1  5  2  0  0  0  0
  2  6  2  0  0  0  0
  3  7  2  0  0  0  0
  3 12  1  0  0  0  0
  4  8  1  0  0  0  0
  4 12  2  0  0  0  0
  5 14  1  0  0  0  0
  6 15  1  0  0  0  0
  7 16  1  0  0  0  0
  8 16  2  0  0  0  0
  9 10  2  0  0  0  0
  9 13  1  0  0  0  0
 10 26  1  0  0  0  0
 11 13  2  0  0  0  0
 11 26  1  0  0  0  0
 12 18  1  0  0  0  0
 13 19  1  0  0  0  0
 14 15  2  0  0  0  0
 14 20  1  0  0  0  0
 15 22  1  0  0  0  0
 16 24  1  0  0  0  0
 17 23  1  0  0  0  0
 17 24  1  0  0  0  0
 17 25  2  0  0  0  0
 19 24  1  0  0  0  0
 20 21  2  0  0  0  0
 21 22  1  0  0  0  0
 22 23  1  0  0  0  0
  1 27  1  0  0  0  0
  2 28  1  0  0  0  0
  3 29  1  0  0  0  0
  4 30  1  0  0  0  0
  5 31  1  0  0  0  0
  6 32  1  0  0  0  0
  7 33  1  0  0  0  0
  8 34  1  0  0  0  0
  9 35  1  0  0  0  0
 10 36  1  0  0  0  0
 11 37  1  0  0  0  0
 18 38  1  0  0  0  0
 18 39  1  0  0  0  0
 18 40  1  0  0  0  0
 19 41  1  0  0  0  0
 19 42  1  0  0  0  0
 23 43  1  0  0  0  0
M  END
> <clash_score>
0

> <docking_score>
-8.603262901306152

$$$$
BENZO_16_1
  -OEChem-08212019053D

 44 47  0     0  0  0  0  0  0999 V2000
    3.9160    2.0630   19.5520 C   0  0  0  0  0  0  0  0  0  0  0  0
    4.2750    1.7050   20.8490 C   0  0  0  0  0  0  0  0  0  0  0  0
    4.6890    1.6810   18.4640 C   0  0  0  0  0  0  0  0  0  0  0  0
    5.4210    0.9600   21.0930 C   0  0  0  0  0  0  0  0  0  0  0  0
    9.0720   -1.1280   24.8640 C   0  0  0  0  0  0  0  0  0  0  0  0
    9.7200   -2.2600   22.8630 C   0  0  0  0  0  0  0  0  0  0  0  0
    8.9960   -2.3380   25.5320 C   0  0  0  0  0  0  0  0  0  0  0  0
    9.6730   -3.4710   23.5300 C   0  0  0  0  0  0  0  0  0  0  0  0
   12.2913    1.4279   22.6355 C   0  0  0  0  0  0  0  0  0  0  0  0
   13.6024    1.4661   23.0564 C   0  0  0  0  0  0  0  0  0  0  0  0
   12.0284    1.3764   24.9443 C   0  0  0  0  0  0  0  0  0  0  0  0
   11.3794    1.3761   23.7290 C   0  0  0  0  0  0  0  0  0  0  0  0
    5.8300    0.9190   18.6970 C   0  0  0  0  0  0  0  0  0  0  0  0
    6.1790    0.5730   19.9990 C   0  0  0  0  0  0  0  0  0  0  0  0
    9.3350   -1.0880   23.5010 C   0  0  0  0  0  0  0  0  0  0  0  0
    9.3070   -3.5340   24.8780 C   0  0  0  0  0  0  0  0  0  0  0  0
    9.0420    0.3700   21.5280 C   0  0  0  0  0  0  0  0  0  0  0  0
    8.8720   -4.6805   26.9013 C   0  0  0  0  0  0  0  0  0  0  0  0
    9.8870    1.3260   23.5730 C   0  0  0  0  0  0  0  0  0  0  0  0
    6.7580    0.3810   17.8350 N   0  0  0  0  0  0  0  0  0  0  0  0
    7.6390   -0.2680   18.5410 N   0  0  0  0  0  0  0  0  0  0  0  0
    7.3170   -0.1610   19.8550 N   0  0  0  0  0  0  0  0  0  0  0  0
    8.1890   -0.7180   20.8700 N   0  0  0  0  0  0  0  0  0  0  0  0
    9.4560    0.1560   22.8130 N   0  0  0  0  0  0  0  0  0  0  0  0
    9.2690    1.4140   20.9380 O   0  0  0  0  0  0  0  0  0  0  0  0
    9.2555   -4.7124   25.5274 O   0  0  0  0  0  0  0  0  0  0  0  0
   13.7301    1.4394   24.7638 S   0  0  0  0  0  0  0  0  0  0  0  0
    3.0136    2.6526   19.3908 H   0  0  0  0  0  0  0  0  0  0  0  0
    3.6480    2.0140   21.6821 H   0  0  0  0  0  0  0  0  0  0  0  0
    4.4042    1.9741   17.4524 H   0  0  0  0  0  0  0  0  0  0  0  0
    5.7089    0.6919   22.1150 H   0  0  0  0  0  0  0  0  0  0  0  0
    8.9221   -0.1995   25.4231 H   0  0  0  0  0  0  0  0  0  0  0  0
   10.0642   -2.2347   21.8253 H   0  0  0  0  0  0  0  0  0  0  0  0
    8.6902   -2.3588   26.5805 H   0  0  0  0  0  0  0  0  0  0  0  0
    9.9254   -4.3921   22.9961 H   0  0  0  0  0  0  0  0  0  0  0  0
   12.0045    1.4365   21.5915 H   0  0  0  0  0  0  0  0  0  0  0  0
   14.4914    1.5078   22.4431 H   0  0  0  0  0  0  0  0  0  0  0  0
   11.5886    1.3416   25.9314 H   0  0  0  0  0  0  0  0  0  0  0  0
    8.8711   -5.6964   27.3038 H   0  0  0  0  0  0  0  0  0  0  0  0
    7.8758   -4.2402   26.9923 H   0  0  0  0  0  0  0  0  0  0  0  0
    9.5894   -4.0716   27.4566 H   0  0  0  0  0  0  0  0  0  0  0  0
    9.3974    1.2912   24.5523 H   0  0  0  0  0  0  0  0  0  0  0  0
    9.5159    2.2168   23.0553 H   0  0  0  0  0  0  0  0  0  0  0  0
    8.2278   -1.5705   21.0849 H   0  0  0  0  0  0  0  0  0  0  0  0
  1  2  1  0  0  0  0
  1  3  2  0  0  0  0
  2  4  2  0  0  0  0
  3 13  1  0  0  0  0
  4 14  1  0  0  0  0
  5  7  2  0  0  0  0
  5 15  1  0  0  0  0
  6  8  1  0  0  0  0
  6 15  2  0  0  0  0
  7 16  1  0  0  0  0
  8 16  2  0  0  0  0
  9 10  2  0  0  0  0
  9 12  1  0  0  0  0
 10 27  1  0  0  0  0
 11 12  2  0  0  0  0
 11 27  1  0  0  0  0
 12 19  1  0  0  0  0
 13 14  2  0  0  0  0
 13 20  1  0  0  0  0
 14 22  1  0  0  0  0
 15 24  1  0  0  0  0
 16 26  1  0  0  0  0
 17 23  1  0  0  0  0
 17 24  1  0  0  0  0
 17 25  2  0  0  0  0
 18 26  1  0  0  0  0
 19 24  1  0  0  0  0
 20 21  2  0  0  0  0
 21 22  1  0  0  0  0
 22 23  1  0  0  0  0
  1 28  1  0  0  0  0
  2 29  1  0  0  0  0
  3 30  1  0  0  0  0
  4 31  1  0  0  0  0
  5 32  1  0  0  0  0
  6 33  1  0  0  0  0
  7 34  1  0  0  0  0
  8 35  1  0  0  0  0
  9 36  1  0  0  0  0
 10 37  1  0  0  0  0
 11 38  1  0  0  0  0
 18 39  1  0  0  0  0
 18 40  1  0  0  0  0
 18 41  1  0  0  0  0
 19 42  1  0  0  0  0
 19 43  1  0  0  0  0
 23 44  1  0  0  0  0
M  END
> <clash_score>
0

> <docking_score>
-8.339567184448242

$$$$
BENZO_21_1
  -OEChem-08212019053D

 57 61  0     0  0  0  0  0  0999 V2000
   14.1526    1.4694   24.0176 C   0  0  0  0  0  0  0  0  0  0  0  0
   13.3741    0.8121   24.9701 C   0  0  0  0  0  0  0  0  0  0  0  0
   13.5446    2.0802   22.9208 C   0  0  0  0  0  0  0  0  0  0  0  0
    3.9160    2.0630   19.5520 C   0  0  0  0  0  0  0  0  0  0  0  0
    4.2750    1.7050   20.8490 C   0  0  0  0  0  0  0  0  0  0  0  0
   11.9875    0.7654   24.8259 C   0  0  0  0  0  0  0  0  0  0  0  0
   12.1580    2.0335   22.7765 C   0  0  0  0  0  0  0  0  0  0  0  0
    4.6890    1.6810   18.4640 C   0  0  0  0  0  0  0  0  0  0  0  0
    5.4210    0.9600   21.0930 C   0  0  0  0  0  0  0  0  0  0  0  0
    8.9960   -2.3380   25.5320 C   0  0  0  0  0  0  0  0  0  0  0  0
    9.6730   -3.4710   23.5300 C   0  0  0  0  0  0  0  0  0  0  0  0
    9.0720   -1.1280   24.8640 C   0  0  0  0  0  0  0  0  0  0  0  0
    9.7200   -2.2600   22.8630 C   0  0  0  0  0  0  0  0  0  0  0  0
   11.3794    1.3761   23.7290 C   0  0  0  0  0  0  0  0  0  0  0  0
    5.8300    0.9190   18.6970 C   0  0  0  0  0  0  0  0  0  0  0  0
    6.1790    0.5730   19.9990 C   0  0  0  0  0  0  0  0  0  0  0  0
    9.3070   -3.5340   24.8780 C   0  0  0  0  0  0  0  0  0  0  0  0
    9.3350   -1.0880   23.5010 C   0  0  0  0  0  0  0  0  0  0  0  0
    8.3597   -5.0073   26.6307 C   0  0  0  0  0  0  0  0  0  0  0  0
    9.0420    0.3700   21.5280 C   0  0  0  0  0  0  0  0  0  0  0  0
    8.4720   -6.3981   27.2296 C   0  0  0  0  0  0  0  0  0  0  0  0
    9.9252   -6.7605   27.4803 C   0  0  0  0  0  0  0  0  0  0  0  0
   10.7833   -6.6094   26.2282 C   0  0  0  0  0  0  0  0  0  0  0  0
   10.0539   -5.9099   25.0823 C   0  0  0  0  0  0  0  0  0  0  0  0
    9.8870    1.3260   23.5730 C   0  0  0  0  0  0  0  0  0  0  0  0
    6.7580    0.3810   17.8350 N   0  0  0  0  0  0  0  0  0  0  0  0
    7.6390   -0.2680   18.5410 N   0  0  0  0  0  0  0  0  0  0  0  0
    7.3170   -0.1610   19.8550 N   0  0  0  0  0  0  0  0  0  0  0  0
    9.2530   -4.7797   25.5644 N   0  0  0  0  0  0  0  0  0  0  0  0
    8.1890   -0.7180   20.8700 N   0  0  0  0  0  0  0  0  0  0  0  0
    9.4560    0.1560   22.8130 N   0  0  0  0  0  0  0  0  0  0  0  0
    7.4954   -4.2356   27.0450 O   0  0  0  0  0  0  0  0  0  0  0  0
    9.2690    1.4140   20.9380 O   0  0  0  0  0  0  0  0  0  0  0  0
   15.2322    1.5068   24.1308 H   0  0  0  0  0  0  0  0  0  0  0  0
   13.8473    0.3374   25.8248 H   0  0  0  0  0  0  0  0  0  0  0  0
   14.1503    2.5930   22.1795 H   0  0  0  0  0  0  0  0  0  0  0  0
    3.0136    2.6526   19.3908 H   0  0  0  0  0  0  0  0  0  0  0  0
    3.6480    2.0140   21.6821 H   0  0  0  0  0  0  0  0  0  0  0  0
   11.3889    0.2508   25.5729 H   0  0  0  0  0  0  0  0  0  0  0  0
   11.6930    2.5120   21.9187 H   0  0  0  0  0  0  0  0  0  0  0  0
    4.4042    1.9741   17.4524 H   0  0  0  0  0  0  0  0  0  0  0  0
    5.7089    0.6919   22.1150 H   0  0  0  0  0  0  0  0  0  0  0  0
    8.6895   -2.3529   26.5807 H   0  0  0  0  0  0  0  0  0  0  0  0
    9.9262   -4.3897   22.9916 H   0  0  0  0  0  0  0  0  0  0  0  0
    8.9224   -0.1998   25.4238 H   0  0  0  0  0  0  0  0  0  0  0  0
   10.0649   -2.2343   21.8258 H   0  0  0  0  0  0  0  0  0  0  0  0
    7.9325   -6.4148   28.1641 H   0  0  0  0  0  0  0  0  0  0  0  0
    8.0254   -7.0920   26.5333 H   0  0  0  0  0  0  0  0  0  0  0  0
   10.3387   -6.1267   28.2923 H   0  0  0  0  0  0  0  0  0  0  0  0
    9.9904   -7.8023   27.8537 H   0  0  0  0  0  0  0  0  0  0  0  0
   11.7037   -6.0404   26.4771 H   0  0  0  0  0  0  0  0  0  0  0  0
   11.1411   -7.6068   25.8918 H   0  0  0  0  0  0  0  0  0  0  0  0
   10.7782   -5.5162   24.3756 H   0  0  0  0  0  0  0  0  0  0  0  0
    9.4042   -6.6189   24.5807 H   0  0  0  0  0  0  0  0  0  0  0  0
    9.3974    1.2912   24.5523 H   0  0  0  0  0  0  0  0  0  0  0  0
    9.5159    2.2168   23.0553 H   0  0  0  0  0  0  0  0  0  0  0  0
    8.2565   -1.5523   21.1108 H   0  0  0  0  0  0  0  0  0  0  0  0
  1  2  1  0  0  0  0
  1  3  2  0  0  0  0
  2  6  2  0  0  0  0
  3  7  1  0  0  0  0
  4  5  1  0  0  0  0
  4  8  2  0  0  0  0
  5  9  2  0  0  0  0
  6 14  1  0  0  0  0
  7 14  2  0  0  0  0
  8 15  1  0  0  0  0
  9 16  1  0  0  0  0
 10 12  2  0  0  0  0
 10 17  1  0  0  0  0
 11 13  1  0  0  0  0
 11 17  2  0  0  0  0
 12 18  1  0  0  0  0
 13 18  2  0  0  0  0
 14 25  1  0  0  0  0
 15 16  2  0  0  0  0
 15 26  1  0  0  0  0
 16 28  1  0  0  0  0
 17 29  1  0  0  0  0
 18 31  1  0  0  0  0
 19 21  1  0  0  0  0
 19 29  1  0  0  0  0
 19 32  2  0  0  0  0
 20 30  1  0  0  0  0
 20 31  1  0  0  0  0
 20 33  2  0  0  0  0
 21 22  1  0  0  0  0
 22 23  1  0  0  0  0
 23 24  1  0  0  0  0
 24 29  1  0  0  0  0
 25 31  1  0  0  0  0
 26 27  2  0  0  0  0
 27 28  1  0  0  0  0
 28 30  1  0  0  0  0
  1 34  1  0  0  0  0
  2 35  1  0  0  0  0
  3 36  1  0  0  0  0
  4 37  1  0  0  0  0
  5 38  1  0  0  0  0
  6 39  1  0  0  0  0
  7 40  1  0  0  0  0
  8 41  1  0  0  0  0
  9 42  1  0  0  0  0
 10 43  1  0  0  0  0
 11 44  1  0  0  0  0
 12 45  1  0  0  0  0
 13 46  1  0  0  0  0
 21 47  1  0  0  0  0
 21 48  1  0  0  0  0
 22 49  1  0  0  0  0
 22 50  1  0  0  0  0
 23 51  1  0  0  0  0
 23 52  1  0  0  0  0
 24 53  1  0  0  0  0
 24 54  1  0  0  0  0
 25 55  1  0  0  0  0
 25 56  1  0  0  0  0
 30 57  1  0  0  0  0
M  END
> <clash_score>
0.7790763812073098

> <docking_score>
-7.620327949523926

$$$$
BENZO_19_1
  -OEChem-08212019053D

 47 50  0     0  0  0  0  0  0999 V2000
    3.9160    2.0630   19.5520 C   0  0  0  0  0  0  0  0  0  0  0  0
    4.2750    1.7050   20.8490 C   0  0  0  0  0  0  0  0  0  0  0  0
    4.6890    1.6810   18.4640 C   0  0  0  0  0  0  0  0  0  0  0  0
    5.4210    0.9600   21.0930 C   0  0  0  0  0  0  0  0  0  0  0  0
    9.0720   -1.1280   24.8640 C   0  0  0  0  0  0  0  0  0  0  0  0
    9.7200   -2.2600   22.8630 C   0  0  0  0  0  0  0  0  0  0  0  0
    8.9960   -2.3380   25.5320 C   0  0  0  0  0  0  0  0  0  0  0  0
    9.6730   -3.4710   23.5300 C   0  0  0  0  0  0  0  0  0  0  0  0
   12.1233    1.3811   24.9242 C   0  0  0  0  0  0  0  0  0  0  0  0
   12.3261    1.4247   22.7351 C   0  0  0  0  0  0  0  0  0  0  0  0
   11.3794    1.3761   23.7290 C   0  0  0  0  0  0  0  0  0  0  0  0
    5.8300    0.9190   18.6970 C   0  0  0  0  0  0  0  0  0  0  0  0
    6.1790    0.5730   19.9990 C   0  0  0  0  0  0  0  0  0  0  0  0
    9.3350   -1.0880   23.5010 C   0  0  0  0  0  0  0  0  0  0  0  0
    9.3070   -3.5340   24.8780 C   0  0  0  0  0  0  0  0  0  0  0  0
    9.0420    0.3700   21.5280 C   0  0  0  0  0  0  0  0  0  0  0  0
   14.8305    1.5084   22.7418 C   0  0  0  0  0  0  0  0  0  0  0  0
    8.8720   -4.6805   26.9013 C   0  0  0  0  0  0  0  0  0  0  0  0
    9.8870    1.3260   23.5730 C   0  0  0  0  0  0  0  0  0  0  0  0
   13.4410    1.4289   24.7112 N   0  0  0  0  0  0  0  0  0  0  0  0
    6.7580    0.3810   17.8350 N   0  0  0  0  0  0  0  0  0  0  0  0
    7.6390   -0.2680   18.5410 N   0  0  0  0  0  0  0  0  0  0  0  0
   13.5326    1.4543   23.3706 N   0  0  0  0  0  0  0  0  0  0  0  0
    7.3170   -0.1610   19.8550 N   0  0  0  0  0  0  0  0  0  0  0  0
    8.1890   -0.7180   20.8700 N   0  0  0  0  0  0  0  0  0  0  0  0
    9.4560    0.1560   22.8130 N   0  0  0  0  0  0  0  0  0  0  0  0
    9.2690    1.4140   20.9380 O   0  0  0  0  0  0  0  0  0  0  0  0
    9.2555   -4.7124   25.5274 O   0  0  0  0  0  0  0  0  0  0  0  0
    3.0136    2.6526   19.3908 H   0  0  0  0  0  0  0  0  0  0  0  0
    3.6480    2.0140   21.6821 H   0  0  0  0  0  0  0  0  0  0  0  0
    4.4042    1.9741   17.4524 H   0  0  0  0  0  0  0  0  0  0  0  0
    5.7089    0.6919   22.1150 H   0  0  0  0  0  0  0  0  0  0  0  0
    8.9221   -0.1995   25.4231 H   0  0  0  0  0  0  0  0  0  0  0  0
   10.0642   -2.2347   21.8253 H   0  0  0  0  0  0  0  0  0  0  0  0
    8.6902   -2.3588   26.5805 H   0  0  0  0  0  0  0  0  0  0  0  0
    9.9254   -4.3921   22.9961 H   0  0  0  0  0  0  0  0  0  0  0  0
   11.7624    1.3510   25.9426 H   0  0  0  0  0  0  0  0  0  0  0  0
   12.2462    1.4390   21.6566 H   0  0  0  0  0  0  0  0  0  0  0  0
   15.0990    2.5601   22.6124 H   0  0  0  0  0  0  0  0  0  0  0  0
   15.5636    1.0018   23.3756 H   0  0  0  0  0  0  0  0  0  0  0  0
   14.7841    1.0025   21.7733 H   0  0  0  0  0  0  0  0  0  0  0  0
    8.8711   -5.6964   27.3038 H   0  0  0  0  0  0  0  0  0  0  0  0
    7.8758   -4.2402   26.9923 H   0  0  0  0  0  0  0  0  0  0  0  0
    9.5894   -4.0716   27.4566 H   0  0  0  0  0  0  0  0  0  0  0  0
    9.3974    1.2912   24.5523 H   0  0  0  0  0  0  0  0  0  0  0  0
    9.5159    2.2168   23.0553 H   0  0  0  0  0  0  0  0  0  0  0  0
    8.2278   -1.5705   21.0849 H   0  0  0  0  0  0  0  0  0  0  0  0
  1  2  1  0  0  0  0
  1  3  2  0  0  0  0
  2  4  2  0  0  0  0
  3 12  1  0  0  0  0
  4 13  1  0  0  0  0
  5  7  2  0  0  0  0
  5 14  1  0  0  0  0
  6  8  1  0  0  0  0
  6 14  2  0  0  0  0
  7 15  1  0  0  0  0
  8 15  2  0  0  0  0
  9 11  1  0  0  0  0
  9 20  2  0  0  0  0
 10 11  2  0  0  0  0
 10 23  1  0  0  0  0
 11 19  1  0  0  0  0
 12 13  2  0  0  0  0
 12 21  1  0  0  0  0
 13 24  1  0  0  0  0
 14 26  1  0  0  0  0
 15 28  1  0  0  0  0
 16 25  1  0  0  0  0
 16 26  1  0  0  0  0
 16 27  2  0  0  0  0
 17 23  1  0  0  0  0
 18 28  1  0  0  0  0
 19 26  1  0  0  0  0
 20 23  1  0  0  0  0
 21 22  2  0  0  0  0
 22 24  1  0  0  0  0
 24 25  1  0  0  0  0
  1 29  1  0  0  0  0
  2 30  1  0  0  0  0
  3 31  1  0  0  0  0
  4 32  1  0  0  0  0
  5 33  1  0  0  0  0
  6 34  1  0  0  0  0
  7 35  1  0  0  0  0
  8 36  1  0  0  0  0
  9 37  1  0  0  0  0
 10 38  1  0  0  0  0
 17 39  1  0  0  0  0
 17 40  1  0  0  0  0
 17 41  1  0  0  0  0
 18 42  1  0  0  0  0
 18 43  1  0  0  0  0
 18 44  1  0  0  0  0
 19 45  1  0  0  0  0
 19 46  1  0  0  0  0
 25 47  1  0  0  0  0
M  END
> <clash_score>
0

> <docking_score>
-7.976844787597656

$$$$
BENZO_17_1
  -OEChem-08212019053D

 47 50  0     0  0  0  0  0  0999 V2000
   14.1526    1.4694   24.0176 C   0  0  0  0  0  0  0  0  0  0  0  0
   13.3741    0.8121   24.9701 C   0  0  0  0  0  0  0  0  0  0  0  0
   13.5446    2.0802   22.9208 C   0  0  0  0  0  0  0  0  0  0  0  0
    3.9160    2.0630   19.5520 C   0  0  0  0  0  0  0  0  0  0  0  0
    4.2750    1.7050   20.8490 C   0  0  0  0  0  0  0  0  0  0  0  0
   11.9875    0.7654   24.8258 C   0  0  0  0  0  0  0  0  0  0  0  0
   12.1580    2.0335   22.7765 C   0  0  0  0  0  0  0  0  0  0  0  0
    4.6890    1.6810   18.4640 C   0  0  0  0  0  0  0  0  0  0  0  0
    5.4210    0.9600   21.0930 C   0  0  0  0  0  0  0  0  0  0  0  0
    9.0720   -1.1280   24.8640 C   0  0  0  0  0  0  0  0  0  0  0  0
    9.7200   -2.2600   22.8630 C   0  0  0  0  0  0  0  0  0  0  0  0
    8.9960   -2.3380   25.5320 C   0  0  0  0  0  0  0  0  0  0  0  0
    9.6730   -3.4710   23.5300 C   0  0  0  0  0  0  0  0  0  0  0  0
   11.3794    1.3761   23.7290 C   0  0  0  0  0  0  0  0  0  0  0  0
    5.8300    0.9190   18.6970 C   0  0  0  0  0  0  0  0  0  0  0  0
    6.1790    0.5730   19.9990 C   0  0  0  0  0  0  0  0  0  0  0  0
    9.3350   -1.0880   23.5010 C   0  0  0  0  0  0  0  0  0  0  0  0
    9.3070   -3.5340   24.8780 C   0  0  0  0  0  0  0  0  0  0  0  0
    9.0420    0.3700   21.5280 C   0  0  0  0  0  0  0  0  0  0  0  0
    8.8720   -4.6805   26.9013 C   0  0  0  0  0  0  0  0  0  0  0  0
    9.8870    1.3260   23.5730 C   0  0  0  0  0  0  0  0  0  0  0  0
    6.7580    0.3810   17.8350 N   0  0  0  0  0  0  0  0  0  0  0  0
    7.6390   -0.2680   18.5410 N   0  0  0  0  0  0  0  0  0  0  0  0
    7.3170   -0.1610   19.8550 N   0  0  0  0  0  0  0  0  0  0  0  0
    8.1890   -0.7180   20.8700 N   0  0  0  0  0  0  0  0  0  0  0  0
    9.4560    0.1560   22.8130 N   0  0  0  0  0  0  0  0  0  0  0  0
    9.2690    1.4140   20.9380 O   0  0  0  0  0  0  0  0  0  0  0  0
    9.2555   -4.7124   25.5274 O   0  0  0  0  0  0  0  0  0  0  0  0
   15.2322    1.5068   24.1308 H   0  0  0  0  0  0  0  0  0  0  0  0
   13.8473    0.3374   25.8248 H   0  0  0  0  0  0  0  0  0  0  0  0
   14.1503    2.5930   22.1795 H   0  0  0  0  0  0  0  0  0  0  0  0
    3.0136    2.6526   19.3908 H   0  0  0  0  0  0  0  0  0  0  0  0
    3.6480    2.0140   21.6821 H   0  0  0  0  0  0  0  0  0  0  0  0
   11.3889    0.2508   25.5729 H   0  0  0  0  0  0  0  0  0  0  0  0
   11.6930    2.5120   21.9187 H   0  0  0  0  0  0  0  0  0  0  0  0
    4.4042    1.9741   17.4524 H   0  0  0  0  0  0  0  0  0  0  0  0
    5.7089    0.6919   22.1150 H   0  0  0  0  0  0  0  0  0  0  0  0
    8.9221   -0.1995   25.4231 H   0  0  0  0  0  0  0  0  0  0  0  0
   10.0642   -2.2347   21.8253 H   0  0  0  0  0  0  0  0  0  0  0  0
    8.6902   -2.3588   26.5805 H   0  0  0  0  0  0  0  0  0  0  0  0
    9.9254   -4.3921   22.9961 H   0  0  0  0  0  0  0  0  0  0  0  0
    8.8711   -5.6964   27.3038 H   0  0  0  0  0  0  0  0  0  0  0  0
    7.8758   -4.2402   26.9923 H   0  0  0  0  0  0  0  0  0  0  0  0
    9.5894   -4.0716   27.4566 H   0  0  0  0  0  0  0  0  0  0  0  0
    9.3974    1.2912   24.5523 H   0  0  0  0  0  0  0  0  0  0  0  0
    9.5159    2.2168   23.0553 H   0  0  0  0  0  0  0  0  0  0  0  0
    8.2278   -1.5705   21.0849 H   0  0  0  0  0  0  0  0  0  0  0  0
  1  2  1  0  0  0  0
  1  3  2  0  0  0  0
  2  6  2  0  0  0  0
  3  7  1  0  0  0  0
  4  5  1  0  0  0  0
  4  8  2  0  0  0  0
  5  9  2  0  0  0  0
  6 14  1  0  0  0  0
  7 14  2  0  0  0  0
  8 15  1  0  0  0  0
  9 16  1  0  0  0  0
 10 12  2  0  0  0  0
 10 17  1  0  0  0  0
 11 13  1  0  0  0  0
 11 17  2  0  0  0  0
 12 18  1  0  0  0  0
 13 18  2  0  0  0  0
 14 21  1  0  0  0  0
 15 16  2  0  0  0  0
 15 22  1  0  0  0  0
 16 24  1  0  0  0  0
 17 26  1  0  0  0  0
 18 28  1  0  0  0  0
 19 25  1  0  0  0  0
 19 26  1  0  0  0  0
 19 27  2  0  0  0  0
 20 28  1  0  0  0  0
 21 26  1  0  0  0  0
 22 23  2  0  0  0  0
 23 24  1  0  0  0  0
 24 25  1  0  0  0  0
  1 29  1  0  0  0  0
  2 30  1  0  0  0  0
  3 31  1  0  0  0  0
  4 32  1  0  0  0  0
  5 33  1  0  0  0  0
  6 34  1  0  0  0  0
  7 35  1  0  0  0  0
  8 36  1  0  0  0  0
  9 37  1  0  0  0  0
 10 38  1  0  0  0  0
 11 39  1  0  0  0  0
 12 40  1  0  0  0  0
 13 41  1  0  0  0  0
 20 42  1  0  0  0  0
 20 43  1  0  0  0  0
 20 44  1  0  0  0  0
 21 45  1  0  0  0  0
 21 46  1  0  0  0  0
 25 47  1  0  0  0  0
M  END
> <clash_score>
0

> <docking_score>
-8.260712623596191

$$$$
BENZO_22_1
  -OEChem-08212019053D

 57 61  0     0  0  0  0  0  0999 V2000
    3.9160    2.0630   19.5520 C   0  0  0  0  0  0  0  0  0  0  0  0
    4.2750    1.7050   20.8490 C   0  0  0  0  0  0  0  0  0  0  0  0
    6.4089    2.0844   24.8766 C   0  0  0  0  0  0  0  0  0  0  0  0
    7.4847    1.4191   24.2887 C   0  0  0  0  0  0  0  0  0  0  0  0
    4.6890    1.6810   18.4640 C   0  0  0  0  0  0  0  0  0  0  0  0
    5.4210    0.9600   21.0930 C   0  0  0  0  0  0  0  0  0  0  0  0
    8.9960   -2.3380   25.5320 C   0  0  0  0  0  0  0  0  0  0  0  0
    9.6730   -3.4710   23.5300 C   0  0  0  0  0  0  0  0  0  0  0  0
    9.0720   -1.1280   24.8640 C   0  0  0  0  0  0  0  0  0  0  0  0
    9.7200   -2.2600   22.8630 C   0  0  0  0  0  0  0  0  0  0  0  0
    6.5777    3.3741   25.3805 C   0  0  0  0  0  0  0  0  0  0  0  0
    8.8980    3.3330   24.7088 C   0  0  0  0  0  0  0  0  0  0  0  0
    8.7292    2.0433   24.2048 C   0  0  0  0  0  0  0  0  0  0  0  0
    5.8300    0.9190   18.6970 C   0  0  0  0  0  0  0  0  0  0  0  0
    6.1790    0.5730   19.9990 C   0  0  0  0  0  0  0  0  0  0  0  0
    9.3070   -3.5340   24.8780 C   0  0  0  0  0  0  0  0  0  0  0  0
    9.3350   -1.0880   23.5010 C   0  0  0  0  0  0  0  0  0  0  0  0
    7.8222    3.9984   25.2966 C   0  0  0  0  0  0  0  0  0  0  0  0
    8.3597   -5.0073   26.6307 C   0  0  0  0  0  0  0  0  0  0  0  0
    9.0420    0.3700   21.5280 C   0  0  0  0  0  0  0  0  0  0  0  0
    8.4720   -6.3981   27.2296 C   0  0  0  0  0  0  0  0  0  0  0  0
    9.9252   -6.7605   27.4803 C   0  0  0  0  0  0  0  0  0  0  0  0
   10.7833   -6.6094   26.2282 C   0  0  0  0  0  0  0  0  0  0  0  0
   10.0539   -5.9099   25.0823 C   0  0  0  0  0  0  0  0  0  0  0  0
    9.8870    1.3260   23.5730 C   0  0  0  0  0  0  0  0  0  0  0  0
    6.7580    0.3810   17.8350 N   0  0  0  0  0  0  0  0  0  0  0  0
    7.6390   -0.2680   18.5410 N   0  0  0  0  0  0  0  0  0  0  0  0
    7.3170   -0.1610   19.8550 N   0  0  0  0  0  0  0  0  0  0  0  0
    9.2530   -4.7797   25.5644 N   0  0  0  0  0  0  0  0  0  0  0  0
    8.1890   -0.7180   20.8700 N   0  0  0  0  0  0  0  0  0  0  0  0
    9.4560    0.1560   22.8130 N   0  0  0  0  0  0  0  0  0  0  0  0
    7.4954   -4.2356   27.0450 O   0  0  0  0  0  0  0  0  0  0  0  0
    9.2690    1.4140   20.9380 O   0  0  0  0  0  0  0  0  0  0  0  0
    8.0301    5.5891   25.9196 Cl  0  0  0  0  0  0  0  0  0  0  0  0
    3.0136    2.6526   19.3908 H   0  0  0  0  0  0  0  0  0  0  0  0
    3.6480    2.0140   21.6821 H   0  0  0  0  0  0  0  0  0  0  0  0
    5.4400    1.5979   24.9418 H   0  0  0  0  0  0  0  0  0  0  0  0
    7.3441    0.4143   23.8988 H   0  0  0  0  0  0  0  0  0  0  0  0
    4.4042    1.9741   17.4524 H   0  0  0  0  0  0  0  0  0  0  0  0
    5.7089    0.6919   22.1150 H   0  0  0  0  0  0  0  0  0  0  0  0
    8.6895   -2.3529   26.5807 H   0  0  0  0  0  0  0  0  0  0  0  0
    9.9262   -4.3897   22.9916 H   0  0  0  0  0  0  0  0  0  0  0  0
    8.9224   -0.1998   25.4238 H   0  0  0  0  0  0  0  0  0  0  0  0
   10.0649   -2.2343   21.8258 H   0  0  0  0  0  0  0  0  0  0  0  0
    5.7304    3.8806   25.8363 H   0  0  0  0  0  0  0  0  0  0  0  0
    9.8703    3.8156   24.6405 H   0  0  0  0  0  0  0  0  0  0  0  0
    7.9325   -6.4148   28.1641 H   0  0  0  0  0  0  0  0  0  0  0  0
    8.0254   -7.0920   26.5333 H   0  0  0  0  0  0  0  0  0  0  0  0
   10.3387   -6.1267   28.2923 H   0  0  0  0  0  0  0  0  0  0  0  0
    9.9904   -7.8023   27.8537 H   0  0  0  0  0  0  0  0  0  0  0  0
   11.7037   -6.0404   26.4771 H   0  0  0  0  0  0  0  0  0  0  0  0
   11.1411   -7.6068   25.8918 H   0  0  0  0  0  0  0  0  0  0  0  0
   10.7782   -5.5162   24.3756 H   0  0  0  0  0  0  0  0  0  0  0  0
    9.4042   -6.6189   24.5807 H   0  0  0  0  0  0  0  0  0  0  0  0
   10.4274    1.9911   22.8906 H   0  0  0  0  0  0  0  0  0  0  0  0
   10.6011    0.9882   24.3313 H   0  0  0  0  0  0  0  0  0  0  0  0
    8.2565   -1.5523   21.1108 H   0  0  0  0  0  0  0  0  0  0  0  0
  1  2  1  0  0  0  0
  1  5  2  0  0  0  0
  2  6  2  0  0  0  0
  3  4  2  0  0  0  0
  3 11  1  0  0  0  0
  4 13  1  0  0  0  0
  5 14  1  0  0  0  0
  6 15  1  0  0  0  0
  7  9  2  0  0  0  0
  7 16  1  0  0  0  0
  8 10  1  0  0  0  0
  8 16  2  0  0  0  0
  9 17  1  0  0  0  0
 10 17  2  0  0  0  0
 11 18  2  0  0  0  0
 12 13  2  0  0  0  0
 12 18  1  0  0  0  0
 13 25  1  0  0  0  0
 14 15  2  0  0  0  0
 14 26  1  0  0  0  0
 15 28  1  0  0  0  0
 16 29  1  0  0  0  0
 17 31  1  0  0  0  0
 18 34  1  0  0  0  0
 19 21  1  0  0  0  0
 19 29  1  0  0  0  0
 19 32  2  0  0  0  0
 20 30  1  0  0  0  0
 20 31  1  0  0  0  0
 20 33  2  0  0  0  0
 21 22  1  0  0  0  0
 22 23  1  0  0  0  0
 23 24  1  0  0  0  0
 24 29  1  0  0  0  0
 25 31  1  0  0  0  0
 26 27  2  0  0  0  0
 27 28  1  0  0  0  0
 28 30  1  0  0  0  0
  1 35  1  0  0  0  0
  2 36  1  0  0  0  0
  3 37  1  0  0  0  0
  4 38  1  0  0  0  0
  5 39  1  0  0  0  0
  6 40  1  0  0  0  0
  7 41  1  0  0  0  0
  8 42  1  0  0  0  0
  9 43  1  0  0  0  0
 10 44  1  0  0  0  0
 11 45  1  0  0  0  0
 12 46  1  0  0  0  0
 21 47  1  0  0  0  0
 21 48  1  0  0  0  0
 22 49  1  0  0  0  0
 22 50  1  0  0  0  0
 23 51  1  0  0  0  0
 23 52  1  0  0  0  0
 24 53  1  0  0  0  0
 24 54  1  0  0  0  0
 25 55  1  0  0  0  0
 25 56  1  0  0  0  0
 30 57  1  0  0  0  0
M  END
> <clash_score>
0.7790763812073098

> <docking_score>
-7.006353378295898

$$$$
BENZO_20_1
  -OEChem-08212019053D

 54 58  0     0  0  0  0  0  0999 V2000
    3.9160    2.0630   19.5520 C   0  0  0  0  0  0  0  0  0  0  0  0
    4.2750    1.7050   20.8490 C   0  0  0  0  0  0  0  0  0  0  0  0
    4.6890    1.6810   18.4640 C   0  0  0  0  0  0  0  0  0  0  0  0
    5.4210    0.9600   21.0930 C   0  0  0  0  0  0  0  0  0  0  0  0
    8.9960   -2.3380   25.5320 C   0  0  0  0  0  0  0  0  0  0  0  0
    9.6730   -3.4710   23.5300 C   0  0  0  0  0  0  0  0  0  0  0  0
    9.0720   -1.1280   24.8640 C   0  0  0  0  0  0  0  0  0  0  0  0
    9.7200   -2.2600   22.8630 C   0  0  0  0  0  0  0  0  0  0  0  0
   12.2913    1.4279   22.6355 C   0  0  0  0  0  0  0  0  0  0  0  0
   13.6024    1.4662   23.0564 C   0  0  0  0  0  0  0  0  0  0  0  0
   12.0284    1.3764   24.9443 C   0  0  0  0  0  0  0  0  0  0  0  0
   11.3794    1.3761   23.7290 C   0  0  0  0  0  0  0  0  0  0  0  0
    5.8300    0.9190   18.6970 C   0  0  0  0  0  0  0  0  0  0  0  0
    6.1790    0.5730   19.9990 C   0  0  0  0  0  0  0  0  0  0  0  0
    9.3070   -3.5340   24.8780 C   0  0  0  0  0  0  0  0  0  0  0  0
    9.3350   -1.0880   23.5010 C   0  0  0  0  0  0  0  0  0  0  0  0
    8.3597   -5.0073   26.6307 C   0  0  0  0  0  0  0  0  0  0  0  0
    9.0420    0.3700   21.5280 C   0  0  0  0  0  0  0  0  0  0  0  0
    8.4720   -6.3981   27.2296 C   0  0  0  0  0  0  0  0  0  0  0  0
    9.9252   -6.7605   27.4803 C   0  0  0  0  0  0  0  0  0  0  0  0
   10.7833   -6.6094   26.2282 C   0  0  0  0  0  0  0  0  0  0  0  0
   10.0539   -5.9099   25.0823 C   0  0  0  0  0  0  0  0  0  0  0  0
    9.8870    1.3260   23.5730 C   0  0  0  0  0  0  0  0  0  0  0  0
    6.7580    0.3810   17.8350 N   0  0  0  0  0  0  0  0  0  0  0  0
    7.6390   -0.2680   18.5410 N   0  0  0  0  0  0  0  0  0  0  0  0
    7.3170   -0.1610   19.8550 N   0  0  0  0  0  0  0  0  0  0  0  0
    9.2530   -4.7797   25.5644 N   0  0  0  0  0  0  0  0  0  0  0  0
    8.1890   -0.7180   20.8700 N   0  0  0  0  0  0  0  0  0  0  0  0
    9.4560    0.1560   22.8130 N   0  0  0  0  0  0  0  0  0  0  0  0
    7.4954   -4.2356   27.0450 O   0  0  0  0  0  0  0  0  0  0  0  0
    9.2690    1.4140   20.9380 O   0  0  0  0  0  0  0  0  0  0  0  0
   13.7301    1.4394   24.7638 S   0  0  0  0  0  0  0  0  0  0  0  0
    3.0136    2.6526   19.3908 H   0  0  0  0  0  0  0  0  0  0  0  0
    3.6480    2.0140   21.6821 H   0  0  0  0  0  0  0  0  0  0  0  0
    4.4042    1.9741   17.4524 H   0  0  0  0  0  0  0  0  0  0  0  0
    5.7089    0.6919   22.1150 H   0  0  0  0  0  0  0  0  0  0  0  0
    8.6895   -2.3529   26.5807 H   0  0  0  0  0  0  0  0  0  0  0  0
    9.9262   -4.3897   22.9916 H   0  0  0  0  0  0  0  0  0  0  0  0
    8.9224   -0.1998   25.4238 H   0  0  0  0  0  0  0  0  0  0  0  0
   10.0649   -2.2343   21.8258 H   0  0  0  0  0  0  0  0  0  0  0  0
   12.0045    1.4365   21.5915 H   0  0  0  0  0  0  0  0  0  0  0  0
   14.4914    1.5078   22.4431 H   0  0  0  0  0  0  0  0  0  0  0  0
   11.5886    1.3416   25.9314 H   0  0  0  0  0  0  0  0  0  0  0  0
    7.9325   -6.4148   28.1641 H   0  0  0  0  0  0  0  0  0  0  0  0
    8.0254   -7.0920   26.5333 H   0  0  0  0  0  0  0  0  0  0  0  0
   10.3387   -6.1267   28.2923 H   0  0  0  0  0  0  0  0  0  0  0  0
    9.9904   -7.8023   27.8537 H   0  0  0  0  0  0  0  0  0  0  0  0
   11.7037   -6.0404   26.4771 H   0  0  0  0  0  0  0  0  0  0  0  0
   11.1411   -7.6068   25.8918 H   0  0  0  0  0  0  0  0  0  0  0  0
   10.7782   -5.5162   24.3756 H   0  0  0  0  0  0  0  0  0  0  0  0
    9.4042   -6.6189   24.5807 H   0  0  0  0  0  0  0  0  0  0  0  0
    9.3974    1.2912   24.5523 H   0  0  0  0  0  0  0  0  0  0  0  0
    9.5159    2.2168   23.0553 H   0  0  0  0  0  0  0  0  0  0  0  0
    8.2565   -1.5523   21.1108 H   0  0  0  0  0  0  0  0  0  0  0  0
  1  2  1  0  0  0  0
  1  3  2  0  0  0  0
  2  4  2  0  0  0  0
  3 13  1  0  0  0  0
  4 14  1  0  0  0  0
  5  7  2  0  0  0  0
  5 15  1  0  0  0  0
  6  8  1  0  0  0  0
  6 15  2  0  0  0  0
  7 16  1  0  0  0  0
  8 16  2  0  0  0  0
  9 10  2  0  0  0  0
  9 12  1  0  0  0  0
 10 32  1  0  0  0  0
 11 12  2  0  0  0  0
 11 32  1  0  0  0  0
 12 23  1  0  0  0  0
 13 14  2  0  0  0  0
 13 24  1  0  0  0  0
 14 26  1  0  0  0  0
 15 27  1  0  0  0  0
 16 29  1  0  0  0  0
 17 19  1  0  0  0  0
 17 27  1  0  0  0  0
 17 30  2  0  0  0  0
 18 28  1  0  0  0  0
 18 29  1  0  0  0  0
 18 31  2  0  0  0  0
 19 20  1  0  0  0  0
 20 21  1  0  0  0  0
 21 22  1  0  0  0  0
 22 27  1  0  0  0  0
 23 29  1  0  0  0  0
 24 25  2  0  0  0  0
 25 26  1  0  0  0  0
 26 28  1  0  0  0  0
  1 33  1  0  0  0  0
  2 34  1  0  0  0  0
  3 35  1  0  0  0  0
  4 36  1  0  0  0  0
  5 37  1  0  0  0  0
  6 38  1  0  0  0  0
  7 39  1  0  0  0  0
  8 40  1  0  0  0  0
  9 41  1  0  0  0  0
 10 42  1  0  0  0  0
 11 43  1  0  0  0  0
 19 44  1  0  0  0  0
 19 45  1  0  0  0  0
 20 46  1  0  0  0  0
 20 47  1  0  0  0  0
 21 48  1  0  0  0  0
 21 49  1  0  0  0  0
 22 50  1  0  0  0  0
 22 51  1  0  0  0  0
 23 52  1  0  0  0  0
 23 53  1  0  0  0  0
 28 54  1  0  0  0  0
M  END
> <clash_score>
0.7790763812073098

> <docking_score>
-7.6991987228393555

$$$$
BENZO_18_1
  -OEChem-08212019053D

 47 50  0     0  0  0  0  0  0999 V2000
    3.9160    2.0630   19.5520 C   0  0  0  0  0  0  0  0  0  0  0  0
    4.2750    1.7050   20.8490 C   0  0  0  0  0  0  0  0  0  0  0  0
    6.4089    2.0844   24.8766 C   0  0  0  0  0  0  0  0  0  0  0  0
    7.4847    1.4191   24.2887 C   0  0  0  0  0  0  0  0  0  0  0  0
    4.6890    1.6810   18.4640 C   0  0  0  0  0  0  0  0  0  0  0  0
    5.4210    0.9600   21.0930 C   0  0  0  0  0  0  0  0  0  0  0  0
    9.0720   -1.1280   24.8640 C   0  0  0  0  0  0  0  0  0  0  0  0
    9.7200   -2.2600   22.8630 C   0  0  0  0  0  0  0  0  0  0  0  0
    8.9960   -2.3380   25.5320 C   0  0  0  0  0  0  0  0  0  0  0  0
    9.6730   -3.4710   23.5300 C   0  0  0  0  0  0  0  0  0  0  0  0
    6.5777    3.3741   25.3805 C   0  0  0  0  0  0  0  0  0  0  0  0
    8.8980    3.3330   24.7088 C   0  0  0  0  0  0  0  0  0  0  0  0
    8.7292    2.0433   24.2048 C   0  0  0  0  0  0  0  0  0  0  0  0
    5.8300    0.9190   18.6970 C   0  0  0  0  0  0  0  0  0  0  0  0
    6.1790    0.5730   19.9990 C   0  0  0  0  0  0  0  0  0  0  0  0
    9.3350   -1.0880   23.5010 C   0  0  0  0  0  0  0  0  0  0  0  0
    9.3070   -3.5340   24.8780 C   0  0  0  0  0  0  0  0  0  0  0  0
    7.8222    3.9984   25.2966 C   0  0  0  0  0  0  0  0  0  0  0  0
    9.0420    0.3700   21.5280 C   0  0  0  0  0  0  0  0  0  0  0  0
    8.8720   -4.6805   26.9013 C   0  0  0  0  0  0  0  0  0  0  0  0
    9.8870    1.3260   23.5730 C   0  0  0  0  0  0  0  0  0  0  0  0
    6.7580    0.3810   17.8350 N   0  0  0  0  0  0  0  0  0  0  0  0
    7.6390   -0.2680   18.5410 N   0  0  0  0  0  0  0  0  0  0  0  0
    7.3170   -0.1610   19.8550 N   0  0  0  0  0  0  0  0  0  0  0  0
    8.1890   -0.7180   20.8700 N   0  0  0  0  0  0  0  0  0  0  0  0
    9.4560    0.1560   22.8130 N   0  0  0  0  0  0  0  0  0  0  0  0
    9.2690    1.4140   20.9380 O   0  0  0  0  0  0  0  0  0  0  0  0
    9.2555   -4.7124   25.5274 O   0  0  0  0  0  0  0  0  0  0  0  0
    8.0301    5.5891   25.9196 Cl  0  0  0  0  0  0  0  0  0  0  0  0
    3.0136    2.6526   19.3908 H   0  0  0  0  0  0  0  0  0  0  0  0
    3.6480    2.0140   21.6821 H   0  0  0  0  0  0  0  0  0  0  0  0
    5.4400    1.5979   24.9418 H   0  0  0  0  0  0  0  0  0  0  0  0
    7.3441    0.4143   23.8988 H   0  0  0  0  0  0  0  0  0  0  0  0
    4.4042    1.9741   17.4524 H   0  0  0  0  0  0  0  0  0  0  0  0
    5.7089    0.6919   22.1150 H   0  0  0  0  0  0  0  0  0  0  0  0
    8.9221   -0.1995   25.4231 H   0  0  0  0  0  0  0  0  0  0  0  0
   10.0642   -2.2347   21.8253 H   0  0  0  0  0  0  0  0  0  0  0  0
    8.6902   -2.3588   26.5805 H   0  0  0  0  0  0  0  0  0  0  0  0
    9.9254   -4.3921   22.9961 H   0  0  0  0  0  0  0  0  0  0  0  0
    5.7304    3.8806   25.8363 H   0  0  0  0  0  0  0  0  0  0  0  0
    9.8702    3.8156   24.6405 H   0  0  0  0  0  0  0  0  0  0  0  0
    8.8711   -5.6964   27.3038 H   0  0  0  0  0  0  0  0  0  0  0  0
    7.8758   -4.2402   26.9923 H   0  0  0  0  0  0  0  0  0  0  0  0
    9.5894   -4.0716   27.4566 H   0  0  0  0  0  0  0  0  0  0  0  0
   10.4274    1.9911   22.8906 H   0  0  0  0  0  0  0  0  0  0  0  0
   10.6011    0.9882   24.3313 H   0  0  0  0  0  0  0  0  0  0  0  0
    8.2278   -1.5705   21.0849 H   0  0  0  0  0  0  0  0  0  0  0  0
  1  2  1  0  0  0  0
  1  5  2  0  0  0  0
  2  6  2  0  0  0  0
  3  4  2  0  0  0  0
  3 11  1  0  0  0  0
  4 13  1  0  0  0  0
  5 14  1  0  0  0  0
  6 15  1  0  0  0  0
  7  9  2  0  0  0  0
  7 16  1  0  0  0  0
  8 10  1  0  0  0  0
  8 16  2  0  0  0  0
  9 17  1  0  0  0  0
 10 17  2  0  0  0  0
 11 18  2  0  0  0  0
 12 13  2  0  0  0  0
 12 18  1  0  0  0  0
 13 21  1  0  0  0  0
 14 15  2  0  0  0  0
 14 22  1  0  0  0  0
 15 24  1  0  0  0  0
 16 26  1  0  0  0  0
 17 28  1  0  0  0  0
 18 29  1  0  0  0  0
 19 25  1  0  0  0  0
 19 26  1  0  0  0  0
 19 27  2  0  0  0  0
 20 28  1  0  0  0  0
 21 26  1  0  0  0  0
 22 23  2  0  0  0  0
 23 24  1  0  0  0  0
 24 25  1  0  0  0  0
  1 30  1  0  0  0  0
  2 31  1  0  0  0  0
  3 32  1  0  0  0  0
  4 33  1  0  0  0  0
  5 34  1  0  0  0  0
  6 35  1  0  0  0  0
  7 36  1  0  0  0  0
  8 37  1  0  0  0  0
  9 38  1  0  0  0  0
 10 39  1  0  0  0  0
 11 40  1  0  0  0  0
 12 41  1  0  0  0  0
 20 42  1  0  0  0  0
 20 43  1  0  0  0  0
 20 44  1  0  0  0  0
 21 45  1  0  0  0  0
 21 46  1  0  0  0  0
 25 47  1  0  0  0  0
M  END
> <clash_score>
0

> <docking_score>
-7.646729469299316

$$$$
BENZO_23_1
  -OEChem-08212019053D

 57 61  0     0  0  0  0  0  0999 V2000
    3.9160    2.0630   19.5520 C   0  0  0  0  0  0  0  0  0  0  0  0
    4.2750    1.7050   20.8490 C   0  0  0  0  0  0  0  0  0  0  0  0
    4.6890    1.6810   18.4640 C   0  0  0  0  0  0  0  0  0  0  0  0
    5.4210    0.9600   21.0930 C   0  0  0  0  0  0  0  0  0  0  0  0
    8.9960   -2.3380   25.5320 C   0  0  0  0  0  0  0  0  0  0  0  0
    9.6730   -3.4710   23.5300 C   0  0  0  0  0  0  0  0  0  0  0  0
    9.0720   -1.1280   24.8640 C   0  0  0  0  0  0  0  0  0  0  0  0
    9.7200   -2.2600   22.8630 C   0  0  0  0  0  0  0  0  0  0  0  0
   12.1233    1.3811   24.9242 C   0  0  0  0  0  0  0  0  0  0  0  0
   12.3262    1.4247   22.7351 C   0  0  0  0  0  0  0  0  0  0  0  0
   11.3794    1.3761   23.7290 C   0  0  0  0  0  0  0  0  0  0  0  0
    5.8300    0.9190   18.6970 C   0  0  0  0  0  0  0  0  0  0  0  0
    6.1790    0.5730   19.9990 C   0  0  0  0  0  0  0  0  0  0  0  0
    9.3070   -3.5340   24.8780 C   0  0  0  0  0  0  0  0  0  0  0  0
    9.3350   -1.0880   23.5010 C   0  0  0  0  0  0  0  0  0  0  0  0
    8.3597   -5.0073   26.6307 C   0  0  0  0  0  0  0  0  0  0  0  0
    9.0420    0.3700   21.5280 C   0  0  0  0  0  0  0  0  0  0  0  0
    8.4720   -6.3981   27.2296 C   0  0  0  0  0  0  0  0  0  0  0  0
    9.9252   -6.7605   27.4803 C   0  0  0  0  0  0  0  0  0  0  0  0
   10.7833   -6.6094   26.2282 C   0  0  0  0  0  0  0  0  0  0  0  0
   10.0539   -5.9099   25.0823 C   0  0  0  0  0  0  0  0  0  0  0  0
   14.8305    1.5084   22.7418 C   0  0  0  0  0  0  0  0  0  0  0  0
    9.8870    1.3260   23.5730 C   0  0  0  0  0  0  0  0  0  0  0  0
   13.4410    1.4289   24.7112 N   0  0  0  0  0  0  0  0  0  0  0  0
    6.7580    0.3810   17.8350 N   0  0  0  0  0  0  0  0  0  0  0  0
    7.6390   -0.2680   18.5410 N   0  0  0  0  0  0  0  0  0  0  0  0
   13.5326    1.4543   23.3707 N   0  0  0  0  0  0  0  0  0  0  0  0
    7.3170   -0.1610   19.8550 N   0  0  0  0  0  0  0  0  0  0  0  0
    9.2530   -4.7797   25.5644 N   0  0  0  0  0  0  0  0  0  0  0  0
    8.1890   -0.7180   20.8700 N   0  0  0  0  0  0  0  0  0  0  0  0
    9.4560    0.1560   22.8130 N   0  0  0  0  0  0  0  0  0  0  0  0
    7.4954   -4.2356   27.0450 O   0  0  0  0  0  0  0  0  0  0  0  0
    9.2690    1.4140   20.9380 O   0  0  0  0  0  0  0  0  0  0  0  0
    3.0136    2.6526   19.3908 H   0  0  0  0  0  0  0  0  0  0  0  0
    3.6480    2.0140   21.6821 H   0  0  0  0  0  0  0  0  0  0  0  0
    4.4042    1.9741   17.4524 H   0  0  0  0  0  0  0  0  0  0  0  0
    5.7089    0.6919   22.1150 H   0  0  0  0  0  0  0  0  0  0  0  0
    8.6895   -2.3529   26.5807 H   0  0  0  0  0  0  0  0  0  0  0  0
    9.9262   -4.3897   22.9916 H   0  0  0  0  0  0  0  0  0  0  0  0
    8.9224   -0.1998   25.4238 H   0  0  0  0  0  0  0  0  0  0  0  0
   10.0649   -2.2343   21.8258 H   0  0  0  0  0  0  0  0  0  0  0  0
   11.7624    1.3510   25.9426 H   0  0  0  0  0  0  0  0  0  0  0  0
   12.2462    1.4390   21.6566 H   0  0  0  0  0  0  0  0  0  0  0  0
    7.9325   -6.4148   28.1641 H   0  0  0  0  0  0  0  0  0  0  0  0
    8.0254   -7.0920   26.5333 H   0  0  0  0  0  0  0  0  0  0  0  0
   10.3387   -6.1267   28.2923 H   0  0  0  0  0  0  0  0  0  0  0  0
    9.9904   -7.8023   27.8537 H   0  0  0  0  0  0  0  0  0  0  0  0
   11.7037   -6.0404   26.4771 H   0  0  0  0  0  0  0  0  0  0  0  0
   11.1411   -7.6068   25.8918 H   0  0  0  0  0  0  0  0  0  0  0  0
   10.7782   -5.5162   24.3756 H   0  0  0  0  0  0  0  0  0  0  0  0
    9.4042   -6.6189   24.5807 H   0  0  0  0  0  0  0  0  0  0  0  0
   15.0990    2.5601   22.6124 H   0  0  0  0  0  0  0  0  0  0  0  0
   15.5636    1.0018   23.3756 H   0  0  0  0  0  0  0  0  0  0  0  0
   14.7841    1.0025   21.7733 H   0  0  0  0  0  0  0  0  0  0  0  0
    9.3974    1.2912   24.5523 H   0  0  0  0  0  0  0  0  0  0  0  0
    9.5159    2.2168   23.0553 H   0  0  0  0  0  0  0  0  0  0  0  0
    8.2565   -1.5523   21.1108 H   0  0  0  0  0  0  0  0  0  0  0  0
  1  2  1  0  0  0  0
  1  3  2  0  0  0  0
  2  4  2  0  0  0  0
  3 12  1  0  0  0  0
  4 13  1  0  0  0  0
  5  7  2  0  0  0  0
  5 14  1  0  0  0  0
  6  8  1  0  0  0  0
  6 14  2  0  0  0  0
  7 15  1  0  0  0  0
  8 15  2  0  0  0  0
  9 11  1  0  0  0  0
  9 24  2  0  0  0  0
 10 11  2  0  0  0  0
 10 27  1  0  0  0  0
 11 23  1  0  0  0  0
 12 13  2  0  0  0  0
 12 25  1  0  0  0  0
 13 28  1  0  0  0  0
 14 29  1  0  0  0  0
 15 31  1  0  0  0  0
 16 18  1  0  0  0  0
 16 29  1  0  0  0  0
 16 32  2  0  0  0  0
 17 30  1  0  0  0  0
 17 31  1  0  0  0  0
 17 33  2  0  0  0  0
 18 19  1  0  0  0  0
 19 20  1  0  0  0  0
 20 21  1  0  0  0  0
 21 29  1  0  0  0  0
 22 27  1  0  0  0  0
 23 31  1  0  0  0  0
 24 27  1  0  0  0  0
 25 26  2  0  0  0  0
 26 28  1  0  0  0  0
 28 30  1  0  0  0  0
  1 34  1  0  0  0  0
  2 35  1  0  0  0  0
  3 36  1  0  0  0  0
  4 37  1  0  0  0  0
  5 38  1  0  0  0  0
  6 39  1  0  0  0  0
  7 40  1  0  0  0  0
  8 41  1  0  0  0  0
  9 42  1  0  0  0  0
 10 43  1  0  0  0  0
 18 44  1  0  0  0  0
 18 45  1  0  0  0  0
 19 46  1  0  0  0  0
 19 47  1  0  0  0  0
 20 48  1  0  0  0  0
 20 49  1  0  0  0  0
 21 50  1  0  0  0  0
 21 51  1  0  0  0  0
 22 52  1  0  0  0  0
 22 53  1  0  0  0  0
 22 54  1  0  0  0  0
 23 55  1  0  0  0  0
 23 56  1  0  0  0  0
 30 57  1  0  0  0  0
M  END
> <clash_score>
0.7790763812073098

> <docking_score>
-7.336463928222656

$$$$
BENZO_26_1
  -OEChem-08212019093D

 56 60  0     0  0  0  0  0  0999 V2000
    3.9160    2.0630   19.5520 C   0  0  0  0  0  0  0  0  0  0  0  0
    4.2750    1.7050   20.8490 C   0  0  0  0  0  0  0  0  0  0  0  0
    6.4089    2.0844   24.8766 C   0  0  0  0  0  0  0  0  0  0  0  0
    7.4847    1.4191   24.2887 C   0  0  0  0  0  0  0  0  0  0  0  0
    4.6890    1.6810   18.4640 C   0  0  0  0  0  0  0  0  0  0  0  0
    5.4210    0.9600   21.0930 C   0  0  0  0  0  0  0  0  0  0  0  0
    8.9960   -2.3380   25.5320 C   0  0  0  0  0  0  0  0  0  0  0  0
    9.6730   -3.4710   23.5300 C   0  0  0  0  0  0  0  0  0  0  0  0
    9.0720   -1.1280   24.8640 C   0  0  0  0  0  0  0  0  0  0  0  0
    9.7200   -2.2600   22.8630 C   0  0  0  0  0  0  0  0  0  0  0  0
    6.5777    3.3741   25.3805 C   0  0  0  0  0  0  0  0  0  0  0  0
    8.8980    3.3330   24.7088 C   0  0  0  0  0  0  0  0  0  0  0  0
    8.7292    2.0433   24.2048 C   0  0  0  0  0  0  0  0  0  0  0  0
    5.8300    0.9190   18.6970 C   0  0  0  0  0  0  0  0  0  0  0  0
    6.1790    0.5730   19.9990 C   0  0  0  0  0  0  0  0  0  0  0  0
    9.3070   -3.5340   24.8780 C   0  0  0  0  0  0  0  0  0  0  0  0
    9.3350   -1.0880   23.5010 C   0  0  0  0  0  0  0  0  0  0  0  0
    7.8222    3.9984   25.2966 C   0  0  0  0  0  0  0  0  0  0  0  0
    9.0420    0.3700   21.5280 C   0  0  0  0  0  0  0  0  0  0  0  0
    9.5174   -4.8597   26.9770 C   0  0  0  0  0  0  0  0  0  0  0  0
    8.5165   -5.8725   24.9808 C   0  0  0  0  0  0  0  0  0  0  0  0
    8.1868   -5.0439   27.6987 C   0  0  0  0  0  0  0  0  0  0  0  0
    7.2200   -6.0347   25.7755 C   0  0  0  0  0  0  0  0  0  0  0  0
    9.8870    1.3260   23.5730 C   0  0  0  0  0  0  0  0  0  0  0  0
    6.7580    0.3810   17.8350 N   0  0  0  0  0  0  0  0  0  0  0  0
    7.6390   -0.2680   18.5410 N   0  0  0  0  0  0  0  0  0  0  0  0
    7.3170   -0.1610   19.8550 N   0  0  0  0  0  0  0  0  0  0  0  0
    9.2563   -4.7368   25.5413 N   0  0  0  0  0  0  0  0  0  0  0  0
    8.1890   -0.7180   20.8700 N   0  0  0  0  0  0  0  0  0  0  0  0
    9.4560    0.1560   22.8130 N   0  0  0  0  0  0  0  0  0  0  0  0
    9.2690    1.4140   20.9380 O   0  0  0  0  0  0  0  0  0  0  0  0
    7.4994   -6.1853   27.1719 O   0  0  0  0  0  0  0  0  0  0  0  0
    8.0301    5.5891   25.9196 Cl  0  0  0  0  0  0  0  0  0  0  0  0
    3.0136    2.6526   19.3908 H   0  0  0  0  0  0  0  0  0  0  0  0
    3.6480    2.0140   21.6821 H   0  0  0  0  0  0  0  0  0  0  0  0
    5.4400    1.5979   24.9418 H   0  0  0  0  0  0  0  0  0  0  0  0
    7.3441    0.4143   23.8988 H   0  0  0  0  0  0  0  0  0  0  0  0
    4.4042    1.9741   17.4524 H   0  0  0  0  0  0  0  0  0  0  0  0
    5.7089    0.6919   22.1150 H   0  0  0  0  0  0  0  0  0  0  0  0
    8.6905   -2.3533   26.5810 H   0  0  0  0  0  0  0  0  0  0  0  0
    9.9266   -4.3896   22.9917 H   0  0  0  0  0  0  0  0  0  0  0  0
    8.9233   -0.1992   25.4232 H   0  0  0  0  0  0  0  0  0  0  0  0
   10.0650   -2.2330   21.8256 H   0  0  0  0  0  0  0  0  0  0  0  0
    5.7304    3.8806   25.8363 H   0  0  0  0  0  0  0  0  0  0  0  0
    9.8703    3.8156   24.6405 H   0  0  0  0  0  0  0  0  0  0  0  0
   10.0205   -3.9698   27.3609 H   0  0  0  0  0  0  0  0  0  0  0  0
   10.1535   -5.7310   27.1549 H   0  0  0  0  0  0  0  0  0  0  0  0
    9.1181   -6.7773   25.0755 H   0  0  0  0  0  0  0  0  0  0  0  0
    8.2812   -5.7064   23.9304 H   0  0  0  0  0  0  0  0  0  0  0  0
    8.3628   -5.2252   28.7611 H   0  0  0  0  0  0  0  0  0  0  0  0
    7.5530   -4.1570   27.6103 H   0  0  0  0  0  0  0  0  0  0  0  0
    6.5459   -5.1839   25.6221 H   0  0  0  0  0  0  0  0  0  0  0  0
    6.6948   -6.9354   25.4436 H   0  0  0  0  0  0  0  0  0  0  0  0
   10.4274    1.9911   22.8906 H   0  0  0  0  0  0  0  0  0  0  0  0
   10.6011    0.9882   24.3313 H   0  0  0  0  0  0  0  0  0  0  0  0
    8.2565   -1.5523   21.1108 H   0  0  0  0  0  0  0  0  0  0  0  0
  1  2  1  0  0  0  0
  1  5  2  0  0  0  0
  2  6  2  0  0  0  0
  3  4  2  0  0  0  0
  3 11  1  0  0  0  0
  4 13  1  0  0  0  0
  5 14  1  0  0  0  0
  6 15  1  0  0  0  0
  7  9  2  0  0  0  0
  7 16  1  0  0  0  0
  8 10  1  0  0  0  0
  8 16  2  0  0  0  0
  9 17  1  0  0  0  0
 10 17  2  0  0  0  0
 11 18  2  0  0  0  0
 12 13  2  0  0  0  0
 12 18  1  0  0  0  0
 13 24  1  0  0  0  0
 14 15  2  0  0  0  0
 14 25  1  0  0  0  0
 15 27  1  0  0  0  0
 16 28  1  0  0  0  0
 17 30  1  0  0  0  0
 18 33  1  0  0  0  0
 19 29  1  0  0  0  0
 19 30  1  0  0  0  0
 19 31  2  0  0  0  0
 20 22  1  0  0  0  0
 20 28  1  0  0  0  0
 21 23  1  0  0  0  0
 21 28  1  0  0  0  0
 22 32  1  0  0  0  0
 23 32  1  0  0  0  0
 24 30  1  0  0  0  0
 25 26  2  0  0  0  0
 26 27  1  0  0  0  0
 27 29  1  0  0  0  0
  1 34  1  0  0  0  0
  2 35  1  0  0  0  0
  3 36  1  0  0  0  0
  4 37  1  0  0  0  0
  5 38  1  0  0  0  0
  6 39  1  0  0  0  0
  7 40  1  0  0  0  0
  8 41  1  0  0  0  0
  9 42  1  0  0  0  0
 10 43  1  0  0  0  0
 11 44  1  0  0  0  0
 12 45  1  0  0  0  0
 20 46  1  0  0  0  0
 20 47  1  0  0  0  0
 21 48  1  0  0  0  0
 21 49  1  0  0  0  0
 22 50  1  0  0  0  0
 22 51  1  0  0  0  0
 23 52  1  0  0  0  0
 23 53  1  0  0  0  0
 24 54  1  0  0  0  0
 24 55  1  0  0  0  0
 29 56  1  0  0  0  0
M  END
> <clash_score>
0

> <docking_score>
-7.949588298797607

$$$$
BENZO_24_1
  -OEChem-08212019093D

 53 57  0     0  0  0  0  0  0999 V2000
    3.9160    2.0630   19.5520 C   0  0  0  0  0  0  0  0  0  0  0  0
    4.2750    1.7050   20.8490 C   0  0  0  0  0  0  0  0  0  0  0  0
    4.6890    1.6810   18.4640 C   0  0  0  0  0  0  0  0  0  0  0  0
    5.4210    0.9600   21.0930 C   0  0  0  0  0  0  0  0  0  0  0  0
    8.9960   -2.3380   25.5320 C   0  0  0  0  0  0  0  0  0  0  0  0
    9.6730   -3.4710   23.5300 C   0  0  0  0  0  0  0  0  0  0  0  0
    9.0720   -1.1280   24.8640 C   0  0  0  0  0  0  0  0  0  0  0  0
    9.7200   -2.2600   22.8630 C   0  0  0  0  0  0  0  0  0  0  0  0
   12.2913    1.4279   22.6355 C   0  0  0  0  0  0  0  0  0  0  0  0
   13.6024    1.4662   23.0564 C   0  0  0  0  0  0  0  0  0  0  0  0
   12.0284    1.3764   24.9443 C   0  0  0  0  0  0  0  0  0  0  0  0
   11.3794    1.3761   23.7290 C   0  0  0  0  0  0  0  0  0  0  0  0
    5.8300    0.9190   18.6970 C   0  0  0  0  0  0  0  0  0  0  0  0
    6.1790    0.5730   19.9990 C   0  0  0  0  0  0  0  0  0  0  0  0
    9.3070   -3.5340   24.8780 C   0  0  0  0  0  0  0  0  0  0  0  0
    9.3350   -1.0880   23.5010 C   0  0  0  0  0  0  0  0  0  0  0  0
    9.0420    0.3700   21.5280 C   0  0  0  0  0  0  0  0  0  0  0  0
   10.0771   -5.0255   26.7193 C   0  0  0  0  0  0  0  0  0  0  0  0
    8.0926   -5.6195   25.4071 C   0  0  0  0  0  0  0  0  0  0  0  0
    9.1933   -4.9427   27.9592 C   0  0  0  0  0  0  0  0  0  0  0  0
    7.2756   -5.5290   26.6967 C   0  0  0  0  0  0  0  0  0  0  0  0
    9.8870    1.3260   23.5730 C   0  0  0  0  0  0  0  0  0  0  0  0
    6.7580    0.3810   17.8350 N   0  0  0  0  0  0  0  0  0  0  0  0
    7.6390   -0.2680   18.5410 N   0  0  0  0  0  0  0  0  0  0  0  0
    7.3170   -0.1610   19.8550 N   0  0  0  0  0  0  0  0  0  0  0  0
    9.2563   -4.7368   25.5413 N   0  0  0  0  0  0  0  0  0  0  0  0
    8.1890   -0.7180   20.8700 N   0  0  0  0  0  0  0  0  0  0  0  0
    9.4560    0.1560   22.8130 N   0  0  0  0  0  0  0  0  0  0  0  0
    9.2690    1.4140   20.9380 O   0  0  0  0  0  0  0  0  0  0  0  0
    8.0883   -5.8459   27.8325 O   0  0  0  0  0  0  0  0  0  0  0  0
   13.7301    1.4394   24.7638 S   0  0  0  0  0  0  0  0  0  0  0  0
    3.0136    2.6526   19.3908 H   0  0  0  0  0  0  0  0  0  0  0  0
    3.6480    2.0140   21.6821 H   0  0  0  0  0  0  0  0  0  0  0  0
    4.4042    1.9741   17.4524 H   0  0  0  0  0  0  0  0  0  0  0  0
    5.7089    0.6919   22.1150 H   0  0  0  0  0  0  0  0  0  0  0  0
    8.6905   -2.3533   26.5810 H   0  0  0  0  0  0  0  0  0  0  0  0
    9.9266   -4.3896   22.9917 H   0  0  0  0  0  0  0  0  0  0  0  0
    8.9233   -0.1992   25.4232 H   0  0  0  0  0  0  0  0  0  0  0  0
   10.0650   -2.2330   21.8256 H   0  0  0  0  0  0  0  0  0  0  0  0
   12.0045    1.4365   21.5915 H   0  0  0  0  0  0  0  0  0  0  0  0
   14.4914    1.5078   22.4431 H   0  0  0  0  0  0  0  0  0  0  0  0
   11.5886    1.3416   25.9314 H   0  0  0  0  0  0  0  0  0  0  0  0
   10.8985   -4.3115   26.8085 H   0  0  0  0  0  0  0  0  0  0  0  0
   10.4915   -6.0334   26.6323 H   0  0  0  0  0  0  0  0  0  0  0  0
    8.4327   -6.6456   25.2620 H   0  0  0  0  0  0  0  0  0  0  0  0
    7.4725   -5.3241   24.5619 H   0  0  0  0  0  0  0  0  0  0  0  0
    9.7636   -5.2398   28.8419 H   0  0  0  0  0  0  0  0  0  0  0  0
    8.8236   -3.9268   28.1248 H   0  0  0  0  0  0  0  0  0  0  0  0
    6.8339   -4.5337   26.8232 H   0  0  0  0  0  0  0  0  0  0  0  0
    6.4550   -6.2521   26.6643 H   0  0  0  0  0  0  0  0  0  0  0  0
    9.3974    1.2912   24.5523 H   0  0  0  0  0  0  0  0  0  0  0  0
    9.5159    2.2168   23.0554 H   0  0  0  0  0  0  0  0  0  0  0  0
    8.2565   -1.5523   21.1108 H   0  0  0  0  0  0  0  0  0  0  0  0
  1  2  1  0  0  0  0
  1  3  2  0  0  0  0
  2  4  2  0  0  0  0
  3 13  1  0  0  0  0
  4 14  1  0  0  0  0
  5  7  2  0  0  0  0
  5 15  1  0  0  0  0
  6  8  1  0  0  0  0
  6 15  2  0  0  0  0
  7 16  1  0  0  0  0
  8 16  2  0  0  0  0
  9 10  2  0  0  0  0
  9 12  1  0  0  0  0
 10 31  1  0  0  0  0
 11 12  2  0  0  0  0
 11 31  1  0  0  0  0
 12 22  1  0  0  0  0
 13 14  2  0  0  0  0
 13 23  1  0  0  0  0
 14 25  1  0  0  0  0
 15 26  1  0  0  0  0
 16 28  1  0  0  0  0
 17 27  1  0  0  0  0
 17 28  1  0  0  0  0
 17 29  2  0  0  0  0
 18 20  1  0  0  0  0
 18 26  1  0  0  0  0
 19 21  1  0  0  0  0
 19 26  1  0  0  0  0
 20 30  1  0  0  0  0
 21 30  1  0  0  0  0
 22 28  1  0  0  0  0
 23 24  2  0  0  0  0
 24 25  1  0  0  0  0
 25 27  1  0  0  0  0
  1 32  1  0  0  0  0
  2 33  1  0  0  0  0
  3 34  1  0  0  0  0
  4 35  1  0  0  0  0
  5 36  1  0  0  0  0
  6 37  1  0  0  0  0
  7 38  1  0  0  0  0
  8 39  1  0  0  0  0
  9 40  1  0  0  0  0
 10 41  1  0  0  0  0
 11 42  1  0  0  0  0
 18 43  1  0  0  0  0
 18 44  1  0  0  0  0
 19 45  1  0  0  0  0
 19 46  1  0  0  0  0
 20 47  1  0  0  0  0
 20 48  1  0  0  0  0
 21 49  1  0  0  0  0
 21 50  1  0  0  0  0
 22 51  1  0  0  0  0
 22 52  1  0  0  0  0
 27 53  1  0  0  0  0
M  END
> <clash_score>
0

> <docking_score>
-8.680327415466309

$$$$
BENZO_27_1
  -OEChem-08212019093D

 56 60  0     0  0  0  0  0  0999 V2000
    3.9160    2.0630   19.5520 C   0  0  0  0  0  0  0  0  0  0  0  0
    4.2750    1.7050   20.8490 C   0  0  0  0  0  0  0  0  0  0  0  0
    4.6890    1.6810   18.4640 C   0  0  0  0  0  0  0  0  0  0  0  0
    5.4210    0.9600   21.0930 C   0  0  0  0  0  0  0  0  0  0  0  0
    8.9960   -2.3380   25.5320 C   0  0  0  0  0  0  0  0  0  0  0  0
    9.6730   -3.4710   23.5300 C   0  0  0  0  0  0  0  0  0  0  0  0
    9.0720   -1.1280   24.8640 C   0  0  0  0  0  0  0  0  0  0  0  0
    9.7200   -2.2600   22.8630 C   0  0  0  0  0  0  0  0  0  0  0  0
   12.1233    1.3811   24.9242 C   0  0  0  0  0  0  0  0  0  0  0  0
   12.3262    1.4247   22.7351 C   0  0  0  0  0  0  0  0  0  0  0  0
   11.3794    1.3761   23.7290 C   0  0  0  0  0  0  0  0  0  0  0  0
    5.8300    0.9190   18.6970 C   0  0  0  0  0  0  0  0  0  0  0  0
    6.1790    0.5730   19.9990 C   0  0  0  0  0  0  0  0  0  0  0  0
    9.3070   -3.5340   24.8780 C   0  0  0  0  0  0  0  0  0  0  0  0
    9.3350   -1.0880   23.5010 C   0  0  0  0  0  0  0  0  0  0  0  0
    9.0420    0.3700   21.5280 C   0  0  0  0  0  0  0  0  0  0  0  0
   10.0771   -5.0255   26.7193 C   0  0  0  0  0  0  0  0  0  0  0  0
    8.0926   -5.6195   25.4071 C   0  0  0  0  0  0  0  0  0  0  0  0
    9.1933   -4.9427   27.9592 C   0  0  0  0  0  0  0  0  0  0  0  0
    7.2756   -5.5290   26.6967 C   0  0  0  0  0  0  0  0  0  0  0  0
   14.8305    1.5084   22.7418 C   0  0  0  0  0  0  0  0  0  0  0  0
    9.8870    1.3260   23.5730 C   0  0  0  0  0  0  0  0  0  0  0  0
   13.4410    1.4289   24.7112 N   0  0  0  0  0  0  0  0  0  0  0  0
    6.7580    0.3810   17.8350 N   0  0  0  0  0  0  0  0  0  0  0  0
    7.6390   -0.2680   18.5410 N   0  0  0  0  0  0  0  0  0  0  0  0
   13.5326    1.4543   23.3706 N   0  0  0  0  0  0  0  0  0  0  0  0
    7.3170   -0.1610   19.8550 N   0  0  0  0  0  0  0  0  0  0  0  0
    9.2563   -4.7368   25.5413 N   0  0  0  0  0  0  0  0  0  0  0  0
    8.1890   -0.7180   20.8700 N   0  0  0  0  0  0  0  0  0  0  0  0
    9.4560    0.1560   22.8130 N   0  0  0  0  0  0  0  0  0  0  0  0
    9.2690    1.4140   20.9380 O   0  0  0  0  0  0  0  0  0  0  0  0
    8.0883   -5.8459   27.8325 O   0  0  0  0  0  0  0  0  0  0  0  0
    3.0136    2.6526   19.3908 H   0  0  0  0  0  0  0  0  0  0  0  0
    3.6480    2.0140   21.6821 H   0  0  0  0  0  0  0  0  0  0  0  0
    4.4042    1.9741   17.4524 H   0  0  0  0  0  0  0  0  0  0  0  0
    5.7089    0.6919   22.1150 H   0  0  0  0  0  0  0  0  0  0  0  0
    8.6905   -2.3533   26.5810 H   0  0  0  0  0  0  0  0  0  0  0  0
    9.9266   -4.3896   22.9917 H   0  0  0  0  0  0  0  0  0  0  0  0
    8.9233   -0.1992   25.4232 H   0  0  0  0  0  0  0  0  0  0  0  0
   10.0650   -2.2330   21.8256 H   0  0  0  0  0  0  0  0  0  0  0  0
   11.7624    1.3510   25.9426 H   0  0  0  0  0  0  0  0  0  0  0  0
   12.2462    1.4390   21.6566 H   0  0  0  0  0  0  0  0  0  0  0  0
   10.8985   -4.3115   26.8085 H   0  0  0  0  0  0  0  0  0  0  0  0
   10.4915   -6.0334   26.6323 H   0  0  0  0  0  0  0  0  0  0  0  0
    8.4327   -6.6456   25.2620 H   0  0  0  0  0  0  0  0  0  0  0  0
    7.4725   -5.3241   24.5619 H   0  0  0  0  0  0  0  0  0  0  0  0
    9.7636   -5.2398   28.8419 H   0  0  0  0  0  0  0  0  0  0  0  0
    8.8236   -3.9268   28.1248 H   0  0  0  0  0  0  0  0  0  0  0  0
    6.8339   -4.5337   26.8232 H   0  0  0  0  0  0  0  0  0  0  0  0
    6.4550   -6.2521   26.6643 H   0  0  0  0  0  0  0  0  0  0  0  0
   15.0990    2.5601   22.6124 H   0  0  0  0  0  0  0  0  0  0  0  0
   15.5636    1.0018   23.3756 H   0  0  0  0  0  0  0  0  0  0  0  0
   14.7841    1.0025   21.7733 H   0  0  0  0  0  0  0  0  0  0  0  0
    9.3974    1.2912   24.5523 H   0  0  0  0  0  0  0  0  0  0  0  0
    9.5159    2.2168   23.0554 H   0  0  0  0  0  0  0  0  0  0  0  0
    8.2565   -1.5523   21.1108 H   0  0  0  0  0  0  0  0  0  0  0  0
  1  2  1  0  0  0  0
  1  3  2  0  0  0  0
  2  4  2  0  0  0  0
  3 12  1  0  0  0  0
  4 13  1  0  0  0  0
  5  7  2  0  0  0  0
  5 14  1  0  0  0  0
  6  8  1  0  0  0  0
  6 14  2  0  0  0  0
  7 15  1  0  0  0  0
  8 15  2  0  0  0  0
  9 11  1  0  0  0  0
  9 23  2  0  0  0  0
 10 11  2  0  0  0  0
 10 26  1  0  0  0  0
 11 22  1  0  0  0  0
 12 13  2  0  0  0  0
 12 24  1  0  0  0  0
 13 27  1  0  0  0  0
 14 28  1  0  0  0  0
 15 30  1  0  0  0  0
 16 29  1  0  0  0  0
 16 30  1  0  0  0  0
 16 31  2  0  0  0  0
 17 19  1  0  0  0  0
 17 28  1  0  0  0  0
 18 20  1  0  0  0  0
 18 28  1  0  0  0  0
 19 32  1  0  0  0  0
 20 32  1  0  0  0  0
 21 26  1  0  0  0  0
 22 30  1  0  0  0  0
 23 26  1  0  0  0  0
 24 25  2  0  0  0  0
 25 27  1  0  0  0  0
 27 29  1  0  0  0  0
  1 33  1  0  0  0  0
  2 34  1  0  0  0  0
  3 35  1  0  0  0  0
  4 36  1  0  0  0  0
  5 37  1  0  0  0  0
  6 38  1  0  0  0  0
  7 39  1  0  0  0  0
  8 40  1  0  0  0  0
  9 41  1  0  0  0  0
 10 42  1  0  0  0  0
 17 43  1  0  0  0  0
 17 44  1  0  0  0  0
 18 45  1  0  0  0  0
 18 46  1  0  0  0  0
 19 47  1  0  0  0  0
 19 48  1  0  0  0  0
 20 49  1  0  0  0  0
 20 50  1  0  0  0  0
 21 51  1  0  0  0  0
 21 52  1  0  0  0  0
 21 53  1  0  0  0  0
 22 54  1  0  0  0  0
 22 55  1  0  0  0  0
 29 56  1  0  0  0  0
M  END
> <clash_score>
0

> <docking_score>
-8.317610740661621

$$$$
BENZO_29_1
  -OEChem-08212019093D

 52 55  0     0  0  0  0  0  0999 V2000
   14.1526    1.4694   24.0176 C   0  0  0  0  0  0  0  0  0  0  0  0
   13.3741    0.8121   24.9701 C   0  0  0  0  0  0  0  0  0  0  0  0
   13.5446    2.0802   22.9208 C   0  0  0  0  0  0  0  0  0  0  0  0
    3.9160    2.0630   19.5520 C   0  0  0  0  0  0  0  0  0  0  0  0
    4.2750    1.7050   20.8490 C   0  0  0  0  0  0  0  0  0  0  0  0
   11.9875    0.7654   24.8258 C   0  0  0  0  0  0  0  0  0  0  0  0
   12.1580    2.0335   22.7765 C   0  0  0  0  0  0  0  0  0  0  0  0
    4.6890    1.6810   18.4640 C   0  0  0  0  0  0  0  0  0  0  0  0
    5.4210    0.9600   21.0930 C   0  0  0  0  0  0  0  0  0  0  0  0
    9.0720   -1.1280   24.8640 C   0  0  0  0  0  0  0  0  0  0  0  0
    9.7200   -2.2600   22.8630 C   0  0  0  0  0  0  0  0  0  0  0  0
    8.9960   -2.3380   25.5320 C   0  0  0  0  0  0  0  0  0  0  0  0
    9.6730   -3.4710   23.5300 C   0  0  0  0  0  0  0  0  0  0  0  0
    7.6390   -0.2680   18.5410 C   0  0  0  0  0  0  0  0  0  0  0  0
   11.3794    1.3761   23.7290 C   0  0  0  0  0  0  0  0  0  0  0  0
    5.8300    0.9190   18.6970 C   0  0  0  0  0  0  0  0  0  0  0  0
    6.1790    0.5730   19.9990 C   0  0  0  0  0  0  0  0  0  0  0  0
    9.3350   -1.0880   23.5010 C   0  0  0  0  0  0  0  0  0  0  0  0
    9.3070   -3.5340   24.8780 C   0  0  0  0  0  0  0  0  0  0  0  0
    9.0420    0.3700   21.5280 C   0  0  0  0  0  0  0  0  0  0  0  0
    8.0128   -5.2151   26.1416 C   0  0  0  0  0  0  0  0  0  0  0  0
   10.4372   -5.5860   25.6589 C   0  0  0  0  0  0  0  0  0  0  0  0
    9.8870    1.3260   23.5730 C   0  0  0  0  0  0  0  0  0  0  0  0
    6.7580    0.3810   17.8350 N   0  0  0  0  0  0  0  0  0  0  0  0
    7.3170   -0.1610   19.8550 N   0  0  0  0  0  0  0  0  0  0  0  0
    8.1890   -0.7180   20.8700 N   0  0  0  0  0  0  0  0  0  0  0  0
    9.4560    0.1560   22.8130 N   0  0  0  0  0  0  0  0  0  0  0  0
    9.2543   -4.7552   25.5519 N   0  0  0  0  0  0  0  0  0  0  0  0
    9.2690    1.4140   20.9380 O   0  0  0  0  0  0  0  0  0  0  0  0
   15.2322    1.5068   24.1308 H   0  0  0  0  0  0  0  0  0  0  0  0
   13.8473    0.3374   25.8248 H   0  0  0  0  0  0  0  0  0  0  0  0
   14.1503    2.5930   22.1795 H   0  0  0  0  0  0  0  0  0  0  0  0
    3.0134    2.6521   19.3911 H   0  0  0  0  0  0  0  0  0  0  0  0
    3.6460    2.0127   21.6812 H   0  0  0  0  0  0  0  0  0  0  0  0
   11.3889    0.2508   25.5729 H   0  0  0  0  0  0  0  0  0  0  0  0
   11.6930    2.5120   21.9187 H   0  0  0  0  0  0  0  0  0  0  0  0
    4.4037    1.9731   17.4543 H   0  0  0  0  0  0  0  0  0  0  0  0
    5.7084    0.6923   22.1132 H   0  0  0  0  0  0  0  0  0  0  0  0
    8.9217   -0.1995   25.4232 H   0  0  0  0  0  0  0  0  0  0  0  0
   10.0643   -2.2341   21.8254 H   0  0  0  0  0  0  0  0  0  0  0  0
    8.6893   -2.3540   26.5808 H   0  0  0  0  0  0  0  0  0  0  0  0
    9.9257   -4.3898   22.9921 H   0  0  0  0  0  0  0  0  0  0  0  0
    8.4862   -0.8060   18.1787 H   0  0  0  0  0  0  0  0  0  0  0  0
    8.1744   -6.1904   26.6238 H   0  0  0  0  0  0  0  0  0  0  0  0
    7.6718   -4.4870   26.8924 H   0  0  0  0  0  0  0  0  0  0  0  0
    7.2494   -5.3166   25.3561 H   0  0  0  0  0  0  0  0  0  0  0  0
   10.1946   -6.4995   26.2216 H   0  0  0  0  0  0  0  0  0  0  0  0
   10.7865   -5.8578   24.6518 H   0  0  0  0  0  0  0  0  0  0  0  0
   11.2285   -5.0312   26.1842 H   0  0  0  0  0  0  0  0  0  0  0  0
    9.3974    1.2912   24.5523 H   0  0  0  0  0  0  0  0  0  0  0  0
    9.5159    2.2168   23.0553 H   0  0  0  0  0  0  0  0  0  0  0  0
    8.2233   -1.5737   21.0809 H   0  0  0  0  0  0  0  0  0  0  0  0
  1  2  1  0  0  0  0
  1  3  2  0  0  0  0
  2  6  2  0  0  0  0
  3  7  1  0  0  0  0
  4  5  1  0  0  0  0
  4  8  2  0  0  0  0
  5  9  2  0  0  0  0
  6 15  1  0  0  0  0
  7 15  2  0  0  0  0
  8 16  1  0  0  0  0
  9 17  1  0  0  0  0
 10 12  2  0  0  0  0
 10 18  1  0  0  0  0
 11 13  1  0  0  0  0
 11 18  2  0  0  0  0
 12 19  1  0  0  0  0
 13 19  2  0  0  0  0
 14 24  2  0  0  0  0
 14 25  1  0  0  0  0
 15 23  1  0  0  0  0
 16 17  2  0  0  0  0
 16 24  1  0  0  0  0
 17 25  1  0  0  0  0
 18 27  1  0  0  0  0
 19 28  1  0  0  0  0
 20 26  1  0  0  0  0
 20 27  1  0  0  0  0
 20 29  2  0  0  0  0
 21 28  1  0  0  0  0
 22 28  1  0  0  0  0
 23 27  1  0  0  0  0
 25 26  1  0  0  0  0
  1 30  1  0  0  0  0
  2 31  1  0  0  0  0
  3 32  1  0  0  0  0
  4 33  1  0  0  0  0
  5 34  1  0  0  0  0
  6 35  1  0  0  0  0
  7 36  1  0  0  0  0
  8 37  1  0  0  0  0
  9 38  1  0  0  0  0
 10 39  1  0  0  0  0
 11 40  1  0  0  0  0
 12 41  1  0  0  0  0
 13 42  1  0  0  0  0
 14 43  1  0  0  0  0
 21 44  1  0  0  0  0
 21 45  1  0  0  0  0
 21 46  1  0  0  0  0
 22 47  1  0  0  0  0
 22 48  1  0  0  0  0
 22 49  1  0  0  0  0
 23 50  1  0  0  0  0
 23 51  1  0  0  0  0
 26 52  1  0  0  0  0
M  END
> <clash_score>
0

> <docking_score>
-9.45349407196045

$$$$
BENZO_30_1
  -OEChem-08212019093D

 52 55  0     0  0  0  0  0  0999 V2000
    3.9160    2.0630   19.5520 C   0  0  0  0  0  0  0  0  0  0  0  0
    4.2750    1.7050   20.8490 C   0  0  0  0  0  0  0  0  0  0  0  0
    6.4089    2.0844   24.8766 C   0  0  0  0  0  0  0  0  0  0  0  0
    7.4847    1.4191   24.2887 C   0  0  0  0  0  0  0  0  0  0  0  0
    4.6890    1.6810   18.4640 C   0  0  0  0  0  0  0  0  0  0  0  0
    5.4210    0.9600   21.0930 C   0  0  0  0  0  0  0  0  0  0  0  0
    9.0720   -1.1280   24.8640 C   0  0  0  0  0  0  0  0  0  0  0  0
    9.7200   -2.2600   22.8630 C   0  0  0  0  0  0  0  0  0  0  0  0
    8.9960   -2.3380   25.5320 C   0  0  0  0  0  0  0  0  0  0  0  0
    9.6730   -3.4710   23.5300 C   0  0  0  0  0  0  0  0  0  0  0  0
    6.5777    3.3741   25.3805 C   0  0  0  0  0  0  0  0  0  0  0  0
    8.8980    3.3330   24.7088 C   0  0  0  0  0  0  0  0  0  0  0  0
    7.6390   -0.2680   18.5410 C   0  0  0  0  0  0  0  0  0  0  0  0
    8.7292    2.0433   24.2048 C   0  0  0  0  0  0  0  0  0  0  0  0
    5.8300    0.9190   18.6970 C   0  0  0  0  0  0  0  0  0  0  0  0
    6.1790    0.5730   19.9990 C   0  0  0  0  0  0  0  0  0  0  0  0
    9.3350   -1.0880   23.5010 C   0  0  0  0  0  0  0  0  0  0  0  0
    9.3070   -3.5340   24.8780 C   0  0  0  0  0  0  0  0  0  0  0  0
    7.8222    3.9984   25.2966 C   0  0  0  0  0  0  0  0  0  0  0  0
    9.0420    0.3700   21.5280 C   0  0  0  0  0  0  0  0  0  0  0  0
    8.0128   -5.2151   26.1416 C   0  0  0  0  0  0  0  0  0  0  0  0
   10.4372   -5.5860   25.6589 C   0  0  0  0  0  0  0  0  0  0  0  0
    9.8870    1.3260   23.5730 C   0  0  0  0  0  0  0  0  0  0  0  0
    6.7580    0.3810   17.8350 N   0  0  0  0  0  0  0  0  0  0  0  0
    7.3170   -0.1610   19.8550 N   0  0  0  0  0  0  0  0  0  0  0  0
    8.1890   -0.7180   20.8700 N   0  0  0  0  0  0  0  0  0  0  0  0
    9.4560    0.1560   22.8130 N   0  0  0  0  0  0  0  0  0  0  0  0
    9.2543   -4.7552   25.5519 N   0  0  0  0  0  0  0  0  0  0  0  0
    9.2690    1.4140   20.9380 O   0  0  0  0  0  0  0  0  0  0  0  0
    8.0301    5.5891   25.9196 Cl  0  0  0  0  0  0  0  0  0  0  0  0
    3.0134    2.6521   19.3911 H   0  0  0  0  0  0  0  0  0  0  0  0
    3.6460    2.0127   21.6812 H   0  0  0  0  0  0  0  0  0  0  0  0
    5.4400    1.5979   24.9418 H   0  0  0  0  0  0  0  0  0  0  0  0
    7.3441    0.4143   23.8988 H   0  0  0  0  0  0  0  0  0  0  0  0
    4.4037    1.9731   17.4543 H   0  0  0  0  0  0  0  0  0  0  0  0
    5.7084    0.6923   22.1132 H   0  0  0  0  0  0  0  0  0  0  0  0
    8.9217   -0.1995   25.4232 H   0  0  0  0  0  0  0  0  0  0  0  0
   10.0643   -2.2341   21.8254 H   0  0  0  0  0  0  0  0  0  0  0  0
    8.6893   -2.3540   26.5808 H   0  0  0  0  0  0  0  0  0  0  0  0
    9.9257   -4.3898   22.9921 H   0  0  0  0  0  0  0  0  0  0  0  0
    5.7304    3.8806   25.8363 H   0  0  0  0  0  0  0  0  0  0  0  0
    9.8703    3.8156   24.6405 H   0  0  0  0  0  0  0  0  0  0  0  0
    8.4862   -0.8060   18.1787 H   0  0  0  0  0  0  0  0  0  0  0  0
    8.1744   -6.1904   26.6238 H   0  0  0  0  0  0  0  0  0  0  0  0
    7.6718   -4.4870   26.8924 H   0  0  0  0  0  0  0  0  0  0  0  0
    7.2494   -5.3166   25.3561 H   0  0  0  0  0  0  0  0  0  0  0  0
   10.1946   -6.4995   26.2216 H   0  0  0  0  0  0  0  0  0  0  0  0
   10.7865   -5.8578   24.6518 H   0  0  0  0  0  0  0  0  0  0  0  0
   11.2285   -5.0312   26.1842 H   0  0  0  0  0  0  0  0  0  0  0  0
   10.4274    1.9911   22.8906 H   0  0  0  0  0  0  0  0  0  0  0  0
   10.6011    0.9882   24.3313 H   0  0  0  0  0  0  0  0  0  0  0  0
    8.2233   -1.5737   21.0809 H   0  0  0  0  0  0  0  0  0  0  0  0
  1  2  1  0  0  0  0
  1  5  2  0  0  0  0
  2  6  2  0  0  0  0
  3  4  2  0  0  0  0
  3 11  1  0  0  0  0
  4 14  1  0  0  0  0
  5 15  1  0  0  0  0
  6 16  1  0  0  0  0
  7  9  2  0  0  0  0
  7 17  1  0  0  0  0
  8 10  1  0  0  0  0
  8 17  2  0  0  0  0
  9 18  1  0  0  0  0
 10 18  2  0  0  0  0
 11 19  2  0  0  0  0
 12 14  2  0  0  0  0
 12 19  1  0  0  0  0
 13 24  2  0  0  0  0
 13 25  1  0  0  0  0
 14 23  1  0  0  0  0
 15 16  2  0  0  0  0
 15 24  1  0  0  0  0
 16 25  1  0  0  0  0
 17 27  1  0  0  0  0
 18 28  1  0  0  0  0
 19 30  1  0  0  0  0
 20 26  1  0  0  0  0
 20 27  1  0  0  0  0
 20 29  2  0  0  0  0
 21 28  1  0  0  0  0
 22 28  1  0  0  0  0
 23 27  1  0  0  0  0
 25 26  1  0  0  0  0
  1 31  1  0  0  0  0
  2 32  1  0  0  0  0
  3 33  1  0  0  0  0
  4 34  1  0  0  0  0
  5 35  1  0  0  0  0
  6 36  1  0  0  0  0
  7 37  1  0  0  0  0
  8 38  1  0  0  0  0
  9 39  1  0  0  0  0
 10 40  1  0  0  0  0
 11 41  1  0  0  0  0
 12 42  1  0  0  0  0
 13 43  1  0  0  0  0
 21 44  1  0  0  0  0
 21 45  1  0  0  0  0
 21 46  1  0  0  0  0
 22 47  1  0  0  0  0
 22 48  1  0  0  0  0
 22 49  1  0  0  0  0
 23 50  1  0  0  0  0
 23 51  1  0  0  0  0
 26 52  1  0  0  0  0
M  END
> <clash_score>
0

> <docking_score>
-8.839509963989258

$$$$
BENZO_31_1
  -OEChem-08212019093D

 52 55  0     0  0  0  0  0  0999 V2000
    3.9160    2.0630   19.5520 C   0  0  0  0  0  0  0  0  0  0  0  0
    4.2750    1.7050   20.8490 C   0  0  0  0  0  0  0  0  0  0  0  0
    4.6890    1.6810   18.4640 C   0  0  0  0  0  0  0  0  0  0  0  0
    5.4210    0.9600   21.0930 C   0  0  0  0  0  0  0  0  0  0  0  0
    9.0720   -1.1280   24.8640 C   0  0  0  0  0  0  0  0  0  0  0  0
    9.7200   -2.2600   22.8630 C   0  0  0  0  0  0  0  0  0  0  0  0
    8.9960   -2.3380   25.5320 C   0  0  0  0  0  0  0  0  0  0  0  0
    9.6730   -3.4710   23.5300 C   0  0  0  0  0  0  0  0  0  0  0  0
   12.1233    1.3811   24.9242 C   0  0  0  0  0  0  0  0  0  0  0  0
   12.3262    1.4247   22.7351 C   0  0  0  0  0  0  0  0  0  0  0  0
    7.6390   -0.2680   18.5410 C   0  0  0  0  0  0  0  0  0  0  0  0
   11.3794    1.3761   23.7290 C   0  0  0  0  0  0  0  0  0  0  0  0
    5.8300    0.9190   18.6970 C   0  0  0  0  0  0  0  0  0  0  0  0
    6.1790    0.5730   19.9990 C   0  0  0  0  0  0  0  0  0  0  0  0
    9.3350   -1.0880   23.5010 C   0  0  0  0  0  0  0  0  0  0  0  0
    9.3070   -3.5340   24.8780 C   0  0  0  0  0  0  0  0  0  0  0  0
    9.0420    0.3700   21.5280 C   0  0  0  0  0  0  0  0  0  0  0  0
   14.8305    1.5084   22.7418 C   0  0  0  0  0  0  0  0  0  0  0  0
    8.0128   -5.2151   26.1416 C   0  0  0  0  0  0  0  0  0  0  0  0
   10.4372   -5.5860   25.6589 C   0  0  0  0  0  0  0  0  0  0  0  0
    9.8870    1.3260   23.5730 C   0  0  0  0  0  0  0  0  0  0  0  0
   13.4410    1.4289   24.7112 N   0  0  0  0  0  0  0  0  0  0  0  0
    6.7580    0.3810   17.8350 N   0  0  0  0  0  0  0  0  0  0  0  0
   13.5326    1.4543   23.3706 N   0  0  0  0  0  0  0  0  0  0  0  0
    7.3170   -0.1610   19.8550 N   0  0  0  0  0  0  0  0  0  0  0  0
    8.1890   -0.7180   20.8700 N   0  0  0  0  0  0  0  0  0  0  0  0
    9.4560    0.1560   22.8130 N   0  0  0  0  0  0  0  0  0  0  0  0
    9.2543   -4.7552   25.5519 N   0  0  0  0  0  0  0  0  0  0  0  0
    9.2690    1.4140   20.9380 O   0  0  0  0  0  0  0  0  0  0  0  0
    3.0134    2.6521   19.3911 H   0  0  0  0  0  0  0  0  0  0  0  0
    3.6460    2.0127   21.6812 H   0  0  0  0  0  0  0  0  0  0  0  0
    4.4037    1.9731   17.4543 H   0  0  0  0  0  0  0  0  0  0  0  0
    5.7084    0.6923   22.1132 H   0  0  0  0  0  0  0  0  0  0  0  0
    8.9217   -0.1995   25.4232 H   0  0  0  0  0  0  0  0  0  0  0  0
   10.0643   -2.2341   21.8254 H   0  0  0  0  0  0  0  0  0  0  0  0
    8.6893   -2.3540   26.5808 H   0  0  0  0  0  0  0  0  0  0  0  0
    9.9257   -4.3898   22.9921 H   0  0  0  0  0  0  0  0  0  0  0  0
   11.7624    1.3510   25.9426 H   0  0  0  0  0  0  0  0  0  0  0  0
   12.2462    1.4390   21.6566 H   0  0  0  0  0  0  0  0  0  0  0  0
    8.4862   -0.8060   18.1787 H   0  0  0  0  0  0  0  0  0  0  0  0
   15.0990    2.5601   22.6124 H   0  0  0  0  0  0  0  0  0  0  0  0
   15.5636    1.0018   23.3756 H   0  0  0  0  0  0  0  0  0  0  0  0
   14.7841    1.0025   21.7733 H   0  0  0  0  0  0  0  0  0  0  0  0
    8.1744   -6.1904   26.6238 H   0  0  0  0  0  0  0  0  0  0  0  0
    7.6718   -4.4870   26.8924 H   0  0  0  0  0  0  0  0  0  0  0  0
    7.2494   -5.3166   25.3561 H   0  0  0  0  0  0  0  0  0  0  0  0
   10.1946   -6.4995   26.2216 H   0  0  0  0  0  0  0  0  0  0  0  0
   10.7865   -5.8578   24.6518 H   0  0  0  0  0  0  0  0  0  0  0  0
   11.2285   -5.0312   26.1842 H   0  0  0  0  0  0  0  0  0  0  0  0
    9.3974    1.2912   24.5523 H   0  0  0  0  0  0  0  0  0  0  0  0
    9.5159    2.2168   23.0553 H   0  0  0  0  0  0  0  0  0  0  0  0
    8.2233   -1.5737   21.0809 H   0  0  0  0  0  0  0  0  0  0  0  0
  1  2  1  0  0  0  0
  1  3  2  0  0  0  0
  2  4  2  0  0  0  0
  3 13  1  0  0  0  0
  4 14  1  0  0  0  0
  5  7  2  0  0  0  0
  5 15  1  0  0  0  0
  6  8  1  0  0  0  0
  6 15  2  0  0  0  0
  7 16  1  0  0  0  0
  8 16  2  0  0  0  0
  9 12  1  0  0  0  0
  9 22  2  0  0  0  0
 10 12  2  0  0  0  0
 10 24  1  0  0  0  0
 11 23  2  0  0  0  0
 11 25  1  0  0  0  0
 12 21  1  0  0  0  0
 13 14  2  0  0  0  0
 13 23  1  0  0  0  0
 14 25  1  0  0  0  0
 15 27  1  0  0  0  0
 16 28  1  0  0  0  0
 17 26  1  0  0  0  0
 17 27  1  0  0  0  0
 17 29  2  0  0  0  0
 18 24  1  0  0  0  0
 19 28  1  0  0  0  0
 20 28  1  0  0  0  0
 21 27  1  0  0  0  0
 22 24  1  0  0  0  0
 25 26  1  0  0  0  0
  1 30  1  0  0  0  0
  2 31  1  0  0  0  0
  3 32  1  0  0  0  0
  4 33  1  0  0  0  0
  5 34  1  0  0  0  0
  6 35  1  0  0  0  0
  7 36  1  0  0  0  0
  8 37  1  0  0  0  0
  9 38  1  0  0  0  0
 10 39  1  0  0  0  0
 11 40  1  0  0  0  0
 18 41  1  0  0  0  0
 18 42  1  0  0  0  0
 18 43  1  0  0  0  0
 19 44  1  0  0  0  0
 19 45  1  0  0  0  0
 19 46  1  0  0  0  0
 20 47  1  0  0  0  0
 20 48  1  0  0  0  0
 20 49  1  0  0  0  0
 21 50  1  0  0  0  0
 21 51  1  0  0  0  0
 26 52  1  0  0  0  0
M  END
> <clash_score>
0

> <docking_score>
-9.16962718963623

$$$$
BENZO_25_1
  -OEChem-08212019093D

 56 60  0     0  0  0  0  0  0999 V2000
   14.1526    1.4694   24.0176 C   0  0  0  0  0  0  0  0  0  0  0  0
   13.3741    0.8121   24.9701 C   0  0  0  0  0  0  0  0  0  0  0  0
   13.5446    2.0802   22.9208 C   0  0  0  0  0  0  0  0  0  0  0  0
    3.9160    2.0630   19.5520 C   0  0  0  0  0  0  0  0  0  0  0  0
    4.2750    1.7050   20.8490 C   0  0  0  0  0  0  0  0  0  0  0  0
   11.9875    0.7654   24.8258 C   0  0  0  0  0  0  0  0  0  0  0  0
   12.1580    2.0335   22.7765 C   0  0  0  0  0  0  0  0  0  0  0  0
    4.6890    1.6810   18.4640 C   0  0  0  0  0  0  0  0  0  0  0  0
    5.4210    0.9600   21.0930 C   0  0  0  0  0  0  0  0  0  0  0  0
    8.9960   -2.3380   25.5320 C   0  0  0  0  0  0  0  0  0  0  0  0
    9.6730   -3.4710   23.5300 C   0  0  0  0  0  0  0  0  0  0  0  0
    9.0720   -1.1280   24.8640 C   0  0  0  0  0  0  0  0  0  0  0  0
    9.7200   -2.2600   22.8630 C   0  0  0  0  0  0  0  0  0  0  0  0
   11.3794    1.3761   23.7290 C   0  0  0  0  0  0  0  0  0  0  0  0
    5.8300    0.9190   18.6970 C   0  0  0  0  0  0  0  0  0  0  0  0
    6.1790    0.5730   19.9990 C   0  0  0  0  0  0  0  0  0  0  0  0
    9.3070   -3.5340   24.8780 C   0  0  0  0  0  0  0  0  0  0  0  0
    9.3350   -1.0880   23.5010 C   0  0  0  0  0  0  0  0  0  0  0  0
    9.0420    0.3700   21.5280 C   0  0  0  0  0  0  0  0  0  0  0  0
   10.0771   -5.0255   26.7193 C   0  0  0  0  0  0  0  0  0  0  0  0
    8.0926   -5.6195   25.4071 C   0  0  0  0  0  0  0  0  0  0  0  0
    9.1933   -4.9427   27.9592 C   0  0  0  0  0  0  0  0  0  0  0  0
    7.2756   -5.5290   26.6967 C   0  0  0  0  0  0  0  0  0  0  0  0
    9.8870    1.3260   23.5730 C   0  0  0  0  0  0  0  0  0  0  0  0
    6.7580    0.3810   17.8350 N   0  0  0  0  0  0  0  0  0  0  0  0
    7.6390   -0.2680   18.5410 N   0  0  0  0  0  0  0  0  0  0  0  0
    7.3170   -0.1610   19.8550 N   0  0  0  0  0  0  0  0  0  0  0  0
    9.2563   -4.7368   25.5413 N   0  0  0  0  0  0  0  0  0  0  0  0
    8.1890   -0.7180   20.8700 N   0  0  0  0  0  0  0  0  0  0  0  0
    9.4560    0.1560   22.8130 N   0  0  0  0  0  0  0  0  0  0  0  0
    9.2690    1.4140   20.9380 O   0  0  0  0  0  0  0  0  0  0  0  0
    8.0883   -5.8459   27.8325 O   0  0  0  0  0  0  0  0  0  0  0  0
   15.2322    1.5068   24.1308 H   0  0  0  0  0  0  0  0  0  0  0  0
   13.8473    0.3374   25.8248 H   0  0  0  0  0  0  0  0  0  0  0  0
   14.1503    2.5930   22.1795 H   0  0  0  0  0  0  0  0  0  0  0  0
    3.0136    2.6526   19.3908 H   0  0  0  0  0  0  0  0  0  0  0  0
    3.6480    2.0140   21.6821 H   0  0  0  0  0  0  0  0  0  0  0  0
   11.3889    0.2508   25.5729 H   0  0  0  0  0  0  0  0  0  0  0  0
   11.6930    2.5120   21.9187 H   0  0  0  0  0  0  0  0  0  0  0  0
    4.4042    1.9741   17.4524 H   0  0  0  0  0  0  0  0  0  0  0  0
    5.7089    0.6919   22.1150 H   0  0  0  0  0  0  0  0  0  0  0  0
    8.6905   -2.3533   26.5810 H   0  0  0  0  0  0  0  0  0  0  0  0
    9.9266   -4.3896   22.9917 H   0  0  0  0  0  0  0  0  0  0  0  0
    8.9233   -0.1992   25.4232 H   0  0  0  0  0  0  0  0  0  0  0  0
   10.0650   -2.2330   21.8256 H   0  0  0  0  0  0  0  0  0  0  0  0
   10.8985   -4.3115   26.8085 H   0  0  0  0  0  0  0  0  0  0  0  0
   10.4915   -6.0334   26.6323 H   0  0  0  0  0  0  0  0  0  0  0  0
    8.4327   -6.6456   25.2620 H   0  0  0  0  0  0  0  0  0  0  0  0
    7.4725   -5.3241   24.5619 H   0  0  0  0  0  0  0  0  0  0  0  0
    9.7636   -5.2398   28.8419 H   0  0  0  0  0  0  0  0  0  0  0  0
    8.8236   -3.9268   28.1248 H   0  0  0  0  0  0  0  0  0  0  0  0
    6.8339   -4.5337   26.8232 H   0  0  0  0  0  0  0  0  0  0  0  0
    6.4550   -6.2521   26.6643 H   0  0  0  0  0  0  0  0  0  0  0  0
    9.3974    1.2912   24.5523 H   0  0  0  0  0  0  0  0  0  0  0  0
    9.5159    2.2168   23.0554 H   0  0  0  0  0  0  0  0  0  0  0  0
    8.2565   -1.5523   21.1108 H   0  0  0  0  0  0  0  0  0  0  0  0
  1  2  1  0  0  0  0
  1  3  2  0  0  0  0
  2  6  2  0  0  0  0
  3  7  1  0  0  0  0
  4  5  1  0  0  0  0
  4  8  2  0  0  0  0
  5  9  2  0  0  0  0
  6 14  1  0  0  0  0
  7 14  2  0  0  0  0
  8 15  1  0  0  0  0
  9 16  1  0  0  0  0
 10 12  2  0  0  0  0
 10 17  1  0  0  0  0
 11 13  1  0  0  0  0
 11 17  2  0  0  0  0
 12 18  1  0  0  0  0
 13 18  2  0  0  0  0
 14 24  1  0  0  0  0
 15 16  2  0  0  0  0
 15 25  1  0  0  0  0
 16 27  1  0  0  0  0
 17 28  1  0  0  0  0
 18 30  1  0  0  0  0
 19 29  1  0  0  0  0
 19 30  1  0  0  0  0
 19 31  2  0  0  0  0
 20 22  1  0  0  0  0
 20 28  1  0  0  0  0
 21 23  1  0  0  0  0
 21 28  1  0  0  0  0
 22 32  1  0  0  0  0
 23 32  1  0  0  0  0
 24 30  1  0  0  0  0
 25 26  2  0  0  0  0
 26 27  1  0  0  0  0
 27 29  1  0  0  0  0
  1 33  1  0  0  0  0
  2 34  1  0  0  0  0
  3 35  1  0  0  0  0
  4 36  1  0  0  0  0
  5 37  1  0  0  0  0
  6 38  1  0  0  0  0
  7 39  1  0  0  0  0
  8 40  1  0  0  0  0
  9 41  1  0  0  0  0
 10 42  1  0  0  0  0
 11 43  1  0  0  0  0
 12 44  1  0  0  0  0
 13 45  1  0  0  0  0
 20 46  1  0  0  0  0
 20 47  1  0  0  0  0
 21 48  1  0  0  0  0
 21 49  1  0  0  0  0
 22 50  1  0  0  0  0
 22 51  1  0  0  0  0
 23 52  1  0  0  0  0
 23 53  1  0  0  0  0
 24 54  1  0  0  0  0
 24 55  1  0  0  0  0
 29 56  1  0  0  0  0
M  END
> <clash_score>
0

> <docking_score>
-8.601471900939941

$$$$
BENZO_28_1
  -OEChem-08212019093D

 49 52  0     0  0  0  0  0  0999 V2000
    3.9160    2.0630   19.5520 C   0  0  0  0  0  0  0  0  0  0  0  0
    4.2750    1.7050   20.8490 C   0  0  0  0  0  0  0  0  0  0  0  0
    4.6890    1.6810   18.4640 C   0  0  0  0  0  0  0  0  0  0  0  0
    5.4210    0.9600   21.0930 C   0  0  0  0  0  0  0  0  0  0  0  0
    9.0720   -1.1280   24.8640 C   0  0  0  0  0  0  0  0  0  0  0  0
    9.7200   -2.2600   22.8630 C   0  0  0  0  0  0  0  0  0  0  0  0
    8.9960   -2.3380   25.5320 C   0  0  0  0  0  0  0  0  0  0  0  0
    9.6730   -3.4710   23.5300 C   0  0  0  0  0  0  0  0  0  0  0  0
   12.2913    1.4279   22.6355 C   0  0  0  0  0  0  0  0  0  0  0  0
   13.6024    1.4661   23.0564 C   0  0  0  0  0  0  0  0  0  0  0  0
   12.0284    1.3764   24.9443 C   0  0  0  0  0  0  0  0  0  0  0  0
    7.6390   -0.2680   18.5410 C   0  0  0  0  0  0  0  0  0  0  0  0
   11.3794    1.3761   23.7290 C   0  0  0  0  0  0  0  0  0  0  0  0
    5.8300    0.9190   18.6970 C   0  0  0  0  0  0  0  0  0  0  0  0
    6.1790    0.5730   19.9990 C   0  0  0  0  0  0  0  0  0  0  0  0
    9.3350   -1.0880   23.5010 C   0  0  0  0  0  0  0  0  0  0  0  0
    9.3070   -3.5340   24.8780 C   0  0  0  0  0  0  0  0  0  0  0  0
    9.0420    0.3700   21.5280 C   0  0  0  0  0  0  0  0  0  0  0  0
    8.0128   -5.2151   26.1416 C   0  0  0  0  0  0  0  0  0  0  0  0
   10.4372   -5.5860   25.6589 C   0  0  0  0  0  0  0  0  0  0  0  0
    9.8870    1.3260   23.5730 C   0  0  0  0  0  0  0  0  0  0  0  0
    6.7580    0.3810   17.8350 N   0  0  0  0  0  0  0  0  0  0  0  0
    7.3170   -0.1610   19.8550 N   0  0  0  0  0  0  0  0  0  0  0  0
    8.1890   -0.7180   20.8700 N   0  0  0  0  0  0  0  0  0  0  0  0
    9.4560    0.1560   22.8130 N   0  0  0  0  0  0  0  0  0  0  0  0
    9.2543   -4.7552   25.5519 N   0  0  0  0  0  0  0  0  0  0  0  0
    9.2690    1.4140   20.9380 O   0  0  0  0  0  0  0  0  0  0  0  0
   13.7301    1.4394   24.7638 S   0  0  0  0  0  0  0  0  0  0  0  0
    3.0134    2.6521   19.3911 H   0  0  0  0  0  0  0  0  0  0  0  0
    3.6460    2.0127   21.6812 H   0  0  0  0  0  0  0  0  0  0  0  0
    4.4037    1.9731   17.4543 H   0  0  0  0  0  0  0  0  0  0  0  0
    5.7084    0.6923   22.1132 H   0  0  0  0  0  0  0  0  0  0  0  0
    8.9217   -0.1995   25.4232 H   0  0  0  0  0  0  0  0  0  0  0  0
   10.0643   -2.2341   21.8254 H   0  0  0  0  0  0  0  0  0  0  0  0
    8.6893   -2.3540   26.5808 H   0  0  0  0  0  0  0  0  0  0  0  0
    9.9257   -4.3898   22.9921 H   0  0  0  0  0  0  0  0  0  0  0  0
   12.0045    1.4365   21.5915 H   0  0  0  0  0  0  0  0  0  0  0  0
   14.4914    1.5078   22.4431 H   0  0  0  0  0  0  0  0  0  0  0  0
   11.5886    1.3416   25.9314 H   0  0  0  0  0  0  0  0  0  0  0  0
    8.4862   -0.8060   18.1787 H   0  0  0  0  0  0  0  0  0  0  0  0
    8.1744   -6.1904   26.6238 H   0  0  0  0  0  0  0  0  0  0  0  0
    7.6718   -4.4870   26.8924 H   0  0  0  0  0  0  0  0  0  0  0  0
    7.2494   -5.3166   25.3561 H   0  0  0  0  0  0  0  0  0  0  0  0
   10.1946   -6.4995   26.2216 H   0  0  0  0  0  0  0  0  0  0  0  0
   10.7865   -5.8578   24.6518 H   0  0  0  0  0  0  0  0  0  0  0  0
   11.2285   -5.0312   26.1842 H   0  0  0  0  0  0  0  0  0  0  0  0
    9.3974    1.2912   24.5523 H   0  0  0  0  0  0  0  0  0  0  0  0
    9.5159    2.2168   23.0553 H   0  0  0  0  0  0  0  0  0  0  0  0
    8.2233   -1.5737   21.0809 H   0  0  0  0  0  0  0  0  0  0  0  0
  1  2  1  0  0  0  0
  1  3  2  0  0  0  0
  2  4  2  0  0  0  0
  3 14  1  0  0  0  0
  4 15  1  0  0  0  0
  5  7  2  0  0  0  0
  5 16  1  0  0  0  0
  6  8  1  0  0  0  0
  6 16  2  0  0  0  0
  7 17  1  0  0  0  0
  8 17  2  0  0  0  0
  9 10  2  0  0  0  0
  9 13  1  0  0  0  0
 10 28  1  0  0  0  0
 11 13  2  0  0  0  0
 11 28  1  0  0  0  0
 12 22  2  0  0  0  0
 12 23  1  0  0  0  0
 13 21  1  0  0  0  0
 14 15  2  0  0  0  0
 14 22  1  0  0  0  0
 15 23  1  0  0  0  0
 16 25  1  0  0  0  0
 17 26  1  0  0  0  0
 18 24  1  0  0  0  0
 18 25  1  0  0  0  0
 18 27  2  0  0  0  0
 19 26  1  0  0  0  0
 20 26  1  0  0  0  0
 21 25  1  0  0  0  0
 23 24  1  0  0  0  0
  1 29  1  0  0  0  0
  2 30  1  0  0  0  0
  3 31  1  0  0  0  0
  4 32  1  0  0  0  0
  5 33  1  0  0  0  0
  6 34  1  0  0  0  0
  7 35  1  0  0  0  0
  8 36  1  0  0  0  0
  9 37  1  0  0  0  0
 10 38  1  0  0  0  0
 11 39  1  0  0  0  0
 12 40  1  0  0  0  0
 19 41  1  0  0  0  0
 19 42  1  0  0  0  0
 19 43  1  0  0  0  0
 20 44  1  0  0  0  0
 20 45  1  0  0  0  0
 20 46  1  0  0  0  0
 21 47  1  0  0  0  0
 21 48  1  0  0  0  0
 24 49  1  0  0  0  0
M  END
> <clash_score>
0

> <docking_score>
-9.53234577178955

$$$$
BENZO_35_1
  -OEChem-08212019133D

 54 57  0     0  0  0  0  0  0999 V2000
    3.9160    2.0630   19.5520 C   0  0  0  0  0  0  0  0  0  0  0  0
    4.2750    1.7050   20.8490 C   0  0  0  0  0  0  0  0  0  0  0  0
    4.6890    1.6810   18.4640 C   0  0  0  0  0  0  0  0  0  0  0  0
    5.4210    0.9600   21.0930 C   0  0  0  0  0  0  0  0  0  0  0  0
    8.9960   -2.3380   25.5320 C   0  0  0  0  0  0  0  0  0  0  0  0
    9.6730   -3.4710   23.5300 C   0  0  0  0  0  0  0  0  0  0  0  0
    9.0720   -1.1280   24.8640 C   0  0  0  0  0  0  0  0  0  0  0  0
    9.7200   -2.2600   22.8630 C   0  0  0  0  0  0  0  0  0  0  0  0
   12.1233    1.3811   24.9242 C   0  0  0  0  0  0  0  0  0  0  0  0
   12.3262    1.4247   22.7351 C   0  0  0  0  0  0  0  0  0  0  0  0
    7.6390   -0.2680   18.5410 C   0  0  0  0  0  0  0  0  0  0  0  0
   11.3794    1.3761   23.7290 C   0  0  0  0  0  0  0  0  0  0  0  0
    5.8300    0.9190   18.6970 C   0  0  0  0  0  0  0  0  0  0  0  0
    6.1790    0.5730   19.9990 C   0  0  0  0  0  0  0  0  0  0  0  0
    9.3070   -3.5340   24.8780 C   0  0  0  0  0  0  0  0  0  0  0  0
    9.3350   -1.0880   23.5010 C   0  0  0  0  0  0  0  0  0  0  0  0
    9.5334   -6.0236   25.0413 C   0  0  0  0  0  0  0  0  0  0  0  0
    9.0420    0.3700   21.5280 C   0  0  0  0  0  0  0  0  0  0  0  0
   10.6330   -7.3747   26.8774 C   0  0  0  0  0  0  0  0  0  0  0  0
   14.8305    1.5084   22.7418 C   0  0  0  0  0  0  0  0  0  0  0  0
    9.8870    1.3260   23.5730 C   0  0  0  0  0  0  0  0  0  0  0  0
    9.3523   -7.0865   26.1148 C   0  0  0  0  0  0  0  0  0  0  0  0
   13.4410    1.4289   24.7112 N   0  0  0  0  0  0  0  0  0  0  0  0
    6.7580    0.3810   17.8350 N   0  0  0  0  0  0  0  0  0  0  0  0
   13.5326    1.4543   23.3706 N   0  0  0  0  0  0  0  0  0  0  0  0
    7.3170   -0.1610   19.8550 N   0  0  0  0  0  0  0  0  0  0  0  0
    9.2546   -4.7422   25.5438 N   0  0  0  0  0  0  0  0  0  0  0  0
    8.1890   -0.7180   20.8700 N   0  0  0  0  0  0  0  0  0  0  0  0
    9.4560    0.1560   22.8130 N   0  0  0  0  0  0  0  0  0  0  0  0
    9.8806   -6.3052   23.8991 O   0  0  0  0  0  0  0  0  0  0  0  0
    9.2690    1.4140   20.9380 O   0  0  0  0  0  0  0  0  0  0  0  0
    3.0134    2.6521   19.3911 H   0  0  0  0  0  0  0  0  0  0  0  0
    3.6460    2.0127   21.6812 H   0  0  0  0  0  0  0  0  0  0  0  0
    4.4037    1.9731   17.4543 H   0  0  0  0  0  0  0  0  0  0  0  0
    5.7084    0.6923   22.1132 H   0  0  0  0  0  0  0  0  0  0  0  0
    8.6895   -2.3529   26.5807 H   0  0  0  0  0  0  0  0  0  0  0  0
    9.9262   -4.3897   22.9916 H   0  0  0  0  0  0  0  0  0  0  0  0
    8.9224   -0.1998   25.4238 H   0  0  0  0  0  0  0  0  0  0  0  0
   10.0649   -2.2343   21.8258 H   0  0  0  0  0  0  0  0  0  0  0  0
   11.7624    1.3510   25.9426 H   0  0  0  0  0  0  0  0  0  0  0  0
   12.2462    1.4390   21.6566 H   0  0  0  0  0  0  0  0  0  0  0  0
    8.4862   -0.8060   18.1787 H   0  0  0  0  0  0  0  0  0  0  0  0
   11.4241   -7.7171   26.2023 H   0  0  0  0  0  0  0  0  0  0  0  0
   10.4629   -8.1531   27.6275 H   0  0  0  0  0  0  0  0  0  0  0  0
   10.9950   -6.4779   27.3911 H   0  0  0  0  0  0  0  0  0  0  0  0
   15.0990    2.5601   22.6124 H   0  0  0  0  0  0  0  0  0  0  0  0
   15.5636    1.0018   23.3756 H   0  0  0  0  0  0  0  0  0  0  0  0
   14.7841    1.0025   21.7733 H   0  0  0  0  0  0  0  0  0  0  0  0
    9.3974    1.2912   24.5523 H   0  0  0  0  0  0  0  0  0  0  0  0
    9.5159    2.2168   23.0553 H   0  0  0  0  0  0  0  0  0  0  0  0
    8.5795   -6.7463   26.8137 H   0  0  0  0  0  0  0  0  0  0  0  0
    8.9966   -8.0064   25.6366 H   0  0  0  0  0  0  0  0  0  0  0  0
    8.9776   -4.7057   26.5317 H   0  0  0  0  0  0  0  0  0  0  0  0
    8.2233   -1.5737   21.0809 H   0  0  0  0  0  0  0  0  0  0  0  0
  1  2  1  0  0  0  0
  1  3  2  0  0  0  0
  2  4  2  0  0  0  0
  3 13  1  0  0  0  0
  4 14  1  0  0  0  0
  5  7  2  0  0  0  0
  5 15  1  0  0  0  0
  6  8  1  0  0  0  0
  6 15  2  0  0  0  0
  7 16  1  0  0  0  0
  8 16  2  0  0  0  0
  9 12  1  0  0  0  0
  9 23  2  0  0  0  0
 10 12  2  0  0  0  0
 10 25  1  0  0  0  0
 11 24  2  0  0  0  0
 11 26  1  0  0  0  0
 12 21  1  0  0  0  0
 13 14  2  0  0  0  0
 13 24  1  0  0  0  0
 14 26  1  0  0  0  0
 15 27  1  0  0  0  0
 16 29  1  0  0  0  0
 17 22  1  0  0  0  0
 17 27  1  0  0  0  0
 17 30  2  0  0  0  0
 18 28  1  0  0  0  0
 18 29  1  0  0  0  0
 18 31  2  0  0  0  0
 19 22  1  0  0  0  0
 20 25  1  0  0  0  0
 21 29  1  0  0  0  0
 23 25  1  0  0  0  0
 26 28  1  0  0  0  0
  1 32  1  0  0  0  0
  2 33  1  0  0  0  0
  3 34  1  0  0  0  0
  4 35  1  0  0  0  0
  5 36  1  0  0  0  0
  6 37  1  0  0  0  0
  7 38  1  0  0  0  0
  8 39  1  0  0  0  0
  9 40  1  0  0  0  0
 10 41  1  0  0  0  0
 11 42  1  0  0  0  0
 19 43  1  0  0  0  0
 19 44  1  0  0  0  0
 19 45  1  0  0  0  0
 20 46  1  0  0  0  0
 20 47  1  0  0  0  0
 20 48  1  0  0  0  0
 21 49  1  0  0  0  0
 21 50  1  0  0  0  0
 22 51  1  0  0  0  0
 22 52  1  0  0  0  0
 27 53  1  0  0  0  0
 28 54  1  0  0  0  0
M  END
> <clash_score>
1.4986180656309704

> <docking_score>
-5.9753265380859375

$$$$
BENZO_33_1
  -OEChem-08212019133D

 54 57  0     0  0  0  0  0  0999 V2000
   14.1526    1.4694   24.0176 C   0  0  0  0  0  0  0  0  0  0  0  0
   13.3741    0.8121   24.9701 C   0  0  0  0  0  0  0  0  0  0  0  0
   13.5446    2.0802   22.9208 C   0  0  0  0  0  0  0  0  0  0  0  0
    3.9160    2.0630   19.5520 C   0  0  0  0  0  0  0  0  0  0  0  0
    4.2750    1.7050   20.8490 C   0  0  0  0  0  0  0  0  0  0  0  0
   11.9875    0.7654   24.8258 C   0  0  0  0  0  0  0  0  0  0  0  0
   12.1580    2.0335   22.7765 C   0  0  0  0  0  0  0  0  0  0  0  0
    4.6890    1.6810   18.4640 C   0  0  0  0  0  0  0  0  0  0  0  0
    5.4210    0.9600   21.0930 C   0  0  0  0  0  0  0  0  0  0  0  0
    8.9960   -2.3380   25.5320 C   0  0  0  0  0  0  0  0  0  0  0  0
    9.6730   -3.4710   23.5300 C   0  0  0  0  0  0  0  0  0  0  0  0
    9.0720   -1.1280   24.8640 C   0  0  0  0  0  0  0  0  0  0  0  0
    9.7200   -2.2600   22.8630 C   0  0  0  0  0  0  0  0  0  0  0  0
    7.6390   -0.2680   18.5410 C   0  0  0  0  0  0  0  0  0  0  0  0
   11.3794    1.3761   23.7290 C   0  0  0  0  0  0  0  0  0  0  0  0
    5.8300    0.9190   18.6970 C   0  0  0  0  0  0  0  0  0  0  0  0
    6.1790    0.5730   19.9990 C   0  0  0  0  0  0  0  0  0  0  0  0
    9.3070   -3.5340   24.8780 C   0  0  0  0  0  0  0  0  0  0  0  0
    9.3350   -1.0880   23.5010 C   0  0  0  0  0  0  0  0  0  0  0  0
    9.5334   -6.0236   25.0413 C   0  0  0  0  0  0  0  0  0  0  0  0
    9.0420    0.3700   21.5280 C   0  0  0  0  0  0  0  0  0  0  0  0
   10.6330   -7.3747   26.8774 C   0  0  0  0  0  0  0  0  0  0  0  0
    9.8870    1.3260   23.5730 C   0  0  0  0  0  0  0  0  0  0  0  0
    9.3523   -7.0865   26.1148 C   0  0  0  0  0  0  0  0  0  0  0  0
    6.7580    0.3810   17.8350 N   0  0  0  0  0  0  0  0  0  0  0  0
    7.3170   -0.1610   19.8550 N   0  0  0  0  0  0  0  0  0  0  0  0
    9.2546   -4.7422   25.5438 N   0  0  0  0  0  0  0  0  0  0  0  0
    8.1890   -0.7180   20.8700 N   0  0  0  0  0  0  0  0  0  0  0  0
    9.4560    0.1560   22.8130 N   0  0  0  0  0  0  0  0  0  0  0  0
    9.8806   -6.3052   23.8991 O   0  0  0  0  0  0  0  0  0  0  0  0
    9.2690    1.4140   20.9380 O   0  0  0  0  0  0  0  0  0  0  0  0
   15.2322    1.5068   24.1308 H   0  0  0  0  0  0  0  0  0  0  0  0
   13.8473    0.3374   25.8248 H   0  0  0  0  0  0  0  0  0  0  0  0
   14.1503    2.5930   22.1795 H   0  0  0  0  0  0  0  0  0  0  0  0
    3.0134    2.6521   19.3911 H   0  0  0  0  0  0  0  0  0  0  0  0
    3.6460    2.0127   21.6812 H   0  0  0  0  0  0  0  0  0  0  0  0
   11.3889    0.2508   25.5729 H   0  0  0  0  0  0  0  0  0  0  0  0
   11.6930    2.5120   21.9187 H   0  0  0  0  0  0  0  0  0  0  0  0
    4.4037    1.9731   17.4543 H   0  0  0  0  0  0  0  0  0  0  0  0
    5.7084    0.6923   22.1132 H   0  0  0  0  0  0  0  0  0  0  0  0
    8.6895   -2.3529   26.5807 H   0  0  0  0  0  0  0  0  0  0  0  0
    9.9262   -4.3897   22.9916 H   0  0  0  0  0  0  0  0  0  0  0  0
    8.9224   -0.1998   25.4238 H   0  0  0  0  0  0  0  0  0  0  0  0
   10.0649   -2.2343   21.8258 H   0  0  0  0  0  0  0  0  0  0  0  0
    8.4862   -0.8060   18.1787 H   0  0  0  0  0  0  0  0  0  0  0  0
   11.4241   -7.7171   26.2023 H   0  0  0  0  0  0  0  0  0  0  0  0
   10.4629   -8.1531   27.6275 H   0  0  0  0  0  0  0  0  0  0  0  0
   10.9950   -6.4779   27.3911 H   0  0  0  0  0  0  0  0  0  0  0  0
    9.3974    1.2912   24.5523 H   0  0  0  0  0  0  0  0  0  0  0  0
    9.5159    2.2168   23.0553 H   0  0  0  0  0  0  0  0  0  0  0  0
    8.5795   -6.7463   26.8137 H   0  0  0  0  0  0  0  0  0  0  0  0
    8.9966   -8.0064   25.6366 H   0  0  0  0  0  0  0  0  0  0  0  0
    8.9776   -4.7057   26.5317 H   0  0  0  0  0  0  0  0  0  0  0  0
    8.2233   -1.5737   21.0809 H   0  0  0  0  0  0  0  0  0  0  0  0
  1  2  1  0  0  0  0
  1  3  2  0  0  0  0
  2  6  2  0  0  0  0
  3  7  1  0  0  0  0
  4  5  1  0  0  0  0
  4  8  2  0  0  0  0
  5  9  2  0  0  0  0
  6 15  1  0  0  0  0
  7 15  2  0  0  0  0
  8 16  1  0  0  0  0
  9 17  1  0  0  0  0
 10 12  2  0  0  0  0
 10 18  1  0  0  0  0
 11 13  1  0  0  0  0
 11 18  2  0  0  0  0
 12 19  1  0  0  0  0
 13 19  2  0  0  0  0
 14 25  2  0  0  0  0
 14 26  1  0  0  0  0
 15 23  1  0  0  0  0
 16 17  2  0  0  0  0
 16 25  1  0  0  0  0
 17 26  1  0  0  0  0
 18 27  1  0  0  0  0
 19 29  1  0  0  0  0
 20 24  1  0  0  0  0
 20 27  1  0  0  0  0
 20 30  2  0  0  0  0
 21 28  1  0  0  0  0
 21 29  1  0  0  0  0
 21 31  2  0  0  0  0
 22 24  1  0  0  0  0
 23 29  1  0  0  0  0
 26 28  1  0  0  0  0
  1 32  1  0  0  0  0
  2 33  1  0  0  0  0
  3 34  1  0  0  0  0
  4 35  1  0  0  0  0
  5 36  1  0  0  0  0
  6 37  1  0  0  0  0
  7 38  1  0  0  0  0
  8 39  1  0  0  0  0
  9 40  1  0  0  0  0
 10 41  1  0  0  0  0
 11 42  1  0  0  0  0
 12 43  1  0  0  0  0
 13 44  1  0  0  0  0
 14 45  1  0  0  0  0
 22 46  1  0  0  0  0
 22 47  1  0  0  0  0
 22 48  1  0  0  0  0
 23 49  1  0  0  0  0
 23 50  1  0  0  0  0
 24 51  1  0  0  0  0
 24 52  1  0  0  0  0
 27 53  1  0  0  0  0
 28 54  1  0  0  0  0
M  END
> <clash_score>
1.4986180656309704

> <docking_score>
-6.259191513061523

$$$$
BENZO_34_1
  -OEChem-08212019133D

 54 57  0     0  0  0  0  0  0999 V2000
    3.9160    2.0630   19.5520 C   0  0  0  0  0  0  0  0  0  0  0  0
    4.2750    1.7050   20.8490 C   0  0  0  0  0  0  0  0  0  0  0  0
    6.4089    2.0844   24.8766 C   0  0  0  0  0  0  0  0  0  0  0  0
    7.4847    1.4191   24.2887 C   0  0  0  0  0  0  0  0  0  0  0  0
    4.6890    1.6810   18.4640 C   0  0  0  0  0  0  0  0  0  0  0  0
    5.4210    0.9600   21.0930 C   0  0  0  0  0  0  0  0  0  0  0  0
    8.9960   -2.3380   25.5320 C   0  0  0  0  0  0  0  0  0  0  0  0
    9.6730   -3.4710   23.5300 C   0  0  0  0  0  0  0  0  0  0  0  0
    9.0720   -1.1280   24.8640 C   0  0  0  0  0  0  0  0  0  0  0  0
    9.7200   -2.2600   22.8630 C   0  0  0  0  0  0  0  0  0  0  0  0
    6.5777    3.3741   25.3805 C   0  0  0  0  0  0  0  0  0  0  0  0
    8.8980    3.3330   24.7088 C   0  0  0  0  0  0  0  0  0  0  0  0
    7.6390   -0.2680   18.5410 C   0  0  0  0  0  0  0  0  0  0  0  0
    8.7292    2.0433   24.2048 C   0  0  0  0  0  0  0  0  0  0  0  0
    5.8300    0.9190   18.6970 C   0  0  0  0  0  0  0  0  0  0  0  0
    6.1790    0.5730   19.9990 C   0  0  0  0  0  0  0  0  0  0  0  0
    9.3070   -3.5340   24.8780 C   0  0  0  0  0  0  0  0  0  0  0  0
    9.3350   -1.0880   23.5010 C   0  0  0  0  0  0  0  0  0  0  0  0
    7.8222    3.9984   25.2966 C   0  0  0  0  0  0  0  0  0  0  0  0
    9.5334   -6.0236   25.0413 C   0  0  0  0  0  0  0  0  0  0  0  0
    9.0420    0.3700   21.5280 C   0  0  0  0  0  0  0  0  0  0  0  0
   10.6330   -7.3747   26.8774 C   0  0  0  0  0  0  0  0  0  0  0  0
    9.8870    1.3260   23.5730 C   0  0  0  0  0  0  0  0  0  0  0  0
    9.3523   -7.0865   26.1148 C   0  0  0  0  0  0  0  0  0  0  0  0
    6.7580    0.3810   17.8350 N   0  0  0  0  0  0  0  0  0  0  0  0
    7.3170   -0.1610   19.8550 N   0  0  0  0  0  0  0  0  0  0  0  0
    9.2546   -4.7422   25.5438 N   0  0  0  0  0  0  0  0  0  0  0  0
    8.1890   -0.7180   20.8700 N   0  0  0  0  0  0  0  0  0  0  0  0
    9.4560    0.1560   22.8130 N   0  0  0  0  0  0  0  0  0  0  0  0
    9.8806   -6.3052   23.8991 O   0  0  0  0  0  0  0  0  0  0  0  0
    9.2690    1.4140   20.9380 O   0  0  0  0  0  0  0  0  0  0  0  0
    8.0301    5.5891   25.9196 Cl  0  0  0  0  0  0  0  0  0  0  0  0
    3.0134    2.6521   19.3911 H   0  0  0  0  0  0  0  0  0  0  0  0
    3.6460    2.0127   21.6812 H   0  0  0  0  0  0  0  0  0  0  0  0
    5.4400    1.5979   24.9418 H   0  0  0  0  0  0  0  0  0  0  0  0
    7.3441    0.4143   23.8988 H   0  0  0  0  0  0  0  0  0  0  0  0
    4.4037    1.9731   17.4543 H   0  0  0  0  0  0  0  0  0  0  0  0
    5.7084    0.6923   22.1132 H   0  0  0  0  0  0  0  0  0  0  0  0
    8.6895   -2.3529   26.5807 H   0  0  0  0  0  0  0  0  0  0  0  0
    9.9262   -4.3897   22.9916 H   0  0  0  0  0  0  0  0  0  0  0  0
    8.9224   -0.1998   25.4238 H   0  0  0  0  0  0  0  0  0  0  0  0
   10.0649   -2.2343   21.8258 H   0  0  0  0  0  0  0  0  0  0  0  0
    5.7304    3.8806   25.8363 H   0  0  0  0  0  0  0  0  0  0  0  0
    9.8703    3.8156   24.6405 H   0  0  0  0  0  0  0  0  0  0  0  0
    8.4862   -0.8060   18.1787 H   0  0  0  0  0  0  0  0  0  0  0  0
   11.4241   -7.7171   26.2023 H   0  0  0  0  0  0  0  0  0  0  0  0
   10.4629   -8.1531   27.6275 H   0  0  0  0  0  0  0  0  0  0  0  0
   10.9950   -6.4779   27.3911 H   0  0  0  0  0  0  0  0  0  0  0  0
   10.4274    1.9911   22.8906 H   0  0  0  0  0  0  0  0  0  0  0  0
   10.6011    0.9882   24.3313 H   0  0  0  0  0  0  0  0  0  0  0  0
    8.5795   -6.7463   26.8137 H   0  0  0  0  0  0  0  0  0  0  0  0
    8.9966   -8.0064   25.6366 H   0  0  0  0  0  0  0  0  0  0  0  0
    8.9776   -4.7057   26.5317 H   0  0  0  0  0  0  0  0  0  0  0  0
    8.2233   -1.5737   21.0809 H   0  0  0  0  0  0  0  0  0  0  0  0
  1  2  1  0  0  0  0
  1  5  2  0  0  0  0
  2  6  2  0  0  0  0
  3  4  2  0  0  0  0
  3 11  1  0  0  0  0
  4 14  1  0  0  0  0
  5 15  1  0  0  0  0
  6 16  1  0  0  0  0
  7  9  2  0  0  0  0
  7 17  1  0  0  0  0
  8 10  1  0  0  0  0
  8 17  2  0  0  0  0
  9 18  1  0  0  0  0
 10 18  2  0  0  0  0
 11 19  2  0  0  0  0
 12 14  2  0  0  0  0
 12 19  1  0  0  0  0
 13 25  2  0  0  0  0
 13 26  1  0  0  0  0
 14 23  1  0  0  0  0
 15 16  2  0  0  0  0
 15 25  1  0  0  0  0
 16 26  1  0  0  0  0
 17 27  1  0  0  0  0
 18 29  1  0  0  0  0
 19 32  1  0  0  0  0
 20 24  1  0  0  0  0
 20 27  1  0  0  0  0
 20 30  2  0  0  0  0
 21 28  1  0  0  0  0
 21 29  1  0  0  0  0
 21 31  2  0  0  0  0
 22 24  1  0  0  0  0
 23 29  1  0  0  0  0
 26 28  1  0  0  0  0
  1 33  1  0  0  0  0
  2 34  1  0  0  0  0
  3 35  1  0  0  0  0
  4 36  1  0  0  0  0
  5 37  1  0  0  0  0
  6 38  1  0  0  0  0
  7 39  1  0  0  0  0
  8 40  1  0  0  0  0
  9 41  1  0  0  0  0
 10 42  1  0  0  0  0
 11 43  1  0  0  0  0
 12 44  1  0  0  0  0
 13 45  1  0  0  0  0
 22 46  1  0  0  0  0
 22 47  1  0  0  0  0
 22 48  1  0  0  0  0
 23 49  1  0  0  0  0
 23 50  1  0  0  0  0
 24 51  1  0  0  0  0
 24 52  1  0  0  0  0
 27 53  1  0  0  0  0
 28 54  1  0  0  0  0
M  END
> <clash_score>
1.4986180656309704

> <docking_score>
-5.645209312438965

$$$$
BENZO_32_1
  -OEChem-08212019133D

 51 54  0     0  0  0  0  0  0999 V2000
    3.9160    2.0630   19.5520 C   0  0  0  0  0  0  0  0  0  0  0  0
    4.2750    1.7050   20.8490 C   0  0  0  0  0  0  0  0  0  0  0  0
    4.6890    1.6810   18.4640 C   0  0  0  0  0  0  0  0  0  0  0  0
    5.4210    0.9600   21.0930 C   0  0  0  0  0  0  0  0  0  0  0  0
    8.9960   -2.3380   25.5320 C   0  0  0  0  0  0  0  0  0  0  0  0
    9.6730   -3.4710   23.5300 C   0  0  0  0  0  0  0  0  0  0  0  0
    9.0720   -1.1280   24.8640 C   0  0  0  0  0  0  0  0  0  0  0  0
    9.7200   -2.2600   22.8630 C   0  0  0  0  0  0  0  0  0  0  0  0
   12.2913    1.4279   22.6355 C   0  0  0  0  0  0  0  0  0  0  0  0
   13.6024    1.4661   23.0564 C   0  0  0  0  0  0  0  0  0  0  0  0
   12.0284    1.3764   24.9443 C   0  0  0  0  0  0  0  0  0  0  0  0
    7.6390   -0.2680   18.5410 C   0  0  0  0  0  0  0  0  0  0  0  0
   11.3794    1.3761   23.7290 C   0  0  0  0  0  0  0  0  0  0  0  0
    5.8300    0.9190   18.6970 C   0  0  0  0  0  0  0  0  0  0  0  0
    6.1790    0.5730   19.9990 C   0  0  0  0  0  0  0  0  0  0  0  0
    9.3070   -3.5340   24.8780 C   0  0  0  0  0  0  0  0  0  0  0  0
    9.3350   -1.0880   23.5010 C   0  0  0  0  0  0  0  0  0  0  0  0
    9.5334   -6.0236   25.0413 C   0  0  0  0  0  0  0  0  0  0  0  0
    9.0420    0.3700   21.5280 C   0  0  0  0  0  0  0  0  0  0  0  0
   10.6330   -7.3747   26.8774 C   0  0  0  0  0  0  0  0  0  0  0  0
    9.8870    1.3260   23.5730 C   0  0  0  0  0  0  0  0  0  0  0  0
    9.3523   -7.0865   26.1148 C   0  0  0  0  0  0  0  0  0  0  0  0
    6.7580    0.3810   17.8350 N   0  0  0  0  0  0  0  0  0  0  0  0
    7.3170   -0.1610   19.8550 N   0  0  0  0  0  0  0  0  0  0  0  0
    9.2546   -4.7422   25.5438 N   0  0  0  0  0  0  0  0  0  0  0  0
    8.1890   -0.7180   20.8700 N   0  0  0  0  0  0  0  0  0  0  0  0
    9.4560    0.1560   22.8130 N   0  0  0  0  0  0  0  0  0  0  0  0
    9.8806   -6.3052   23.8991 O   0  0  0  0  0  0  0  0  0  0  0  0
    9.2690    1.4140   20.9380 O   0  0  0  0  0  0  0  0  0  0  0  0
   13.7301    1.4394   24.7638 S   0  0  0  0  0  0  0  0  0  0  0  0
    3.0134    2.6521   19.3911 H   0  0  0  0  0  0  0  0  0  0  0  0
    3.6460    2.0127   21.6812 H   0  0  0  0  0  0  0  0  0  0  0  0
    4.4037    1.9731   17.4543 H   0  0  0  0  0  0  0  0  0  0  0  0
    5.7084    0.6923   22.1132 H   0  0  0  0  0  0  0  0  0  0  0  0
    8.6895   -2.3529   26.5807 H   0  0  0  0  0  0  0  0  0  0  0  0
    9.9262   -4.3897   22.9916 H   0  0  0  0  0  0  0  0  0  0  0  0
    8.9224   -0.1998   25.4238 H   0  0  0  0  0  0  0  0  0  0  0  0
   10.0649   -2.2343   21.8258 H   0  0  0  0  0  0  0  0  0  0  0  0
   12.0045    1.4365   21.5915 H   0  0  0  0  0  0  0  0  0  0  0  0
   14.4914    1.5078   22.4431 H   0  0  0  0  0  0  0  0  0  0  0  0
   11.5886    1.3416   25.9314 H   0  0  0  0  0  0  0  0  0  0  0  0
    8.4862   -0.8060   18.1787 H   0  0  0  0  0  0  0  0  0  0  0  0
   11.4241   -7.7171   26.2023 H   0  0  0  0  0  0  0  0  0  0  0  0
   10.4629   -8.1531   27.6275 H   0  0  0  0  0  0  0  0  0  0  0  0
   10.9950   -6.4779   27.3911 H   0  0  0  0  0  0  0  0  0  0  0  0
    9.3974    1.2912   24.5523 H   0  0  0  0  0  0  0  0  0  0  0  0
    9.5159    2.2168   23.0553 H   0  0  0  0  0  0  0  0  0  0  0  0
    8.5795   -6.7463   26.8137 H   0  0  0  0  0  0  0  0  0  0  0  0
    8.9966   -8.0064   25.6366 H   0  0  0  0  0  0  0  0  0  0  0  0
    8.9776   -4.7057   26.5317 H   0  0  0  0  0  0  0  0  0  0  0  0
    8.2233   -1.5737   21.0809 H   0  0  0  0  0  0  0  0  0  0  0  0
  1  2  1  0  0  0  0
  1  3  2  0  0  0  0
  2  4  2  0  0  0  0
  3 14  1  0  0  0  0
  4 15  1  0  0  0  0
  5  7  2  0  0  0  0
  5 16  1  0  0  0  0
  6  8  1  0  0  0  0
  6 16  2  0  0  0  0
  7 17  1  0  0  0  0
  8 17  2  0  0  0  0
  9 10  2  0  0  0  0
  9 13  1  0  0  0  0
 10 30  1  0  0  0  0
 11 13  2  0  0  0  0
 11 30  1  0  0  0  0
 12 23  2  0  0  0  0
 12 24  1  0  0  0  0
 13 21  1  0  0  0  0
 14 15  2  0  0  0  0
 14 23  1  0  0  0  0
 15 24  1  0  0  0  0
 16 25  1  0  0  0  0
 17 27  1  0  0  0  0
 18 22  1  0  0  0  0
 18 25  1  0  0  0  0
 18 28  2  0  0  0  0
 19 26  1  0  0  0  0
 19 27  1  0  0  0  0
 19 29  2  0  0  0  0
 20 22  1  0  0  0  0
 21 27  1  0  0  0  0
 24 26  1  0  0  0  0
  1 31  1  0  0  0  0
  2 32  1  0  0  0  0
  3 33  1  0  0  0  0
  4 34  1  0  0  0  0
  5 35  1  0  0  0  0
  6 36  1  0  0  0  0
  7 37  1  0  0  0  0
  8 38  1  0  0  0  0
  9 39  1  0  0  0  0
 10 40  1  0  0  0  0
 11 41  1  0  0  0  0
 12 42  1  0  0  0  0
 20 43  1  0  0  0  0
 20 44  1  0  0  0  0
 20 45  1  0  0  0  0
 21 46  1  0  0  0  0
 21 47  1  0  0  0  0
 22 48  1  0  0  0  0
 22 49  1  0  0  0  0
 25 50  1  0  0  0  0
 26 51  1  0  0  0  0
M  END
> <clash_score>
1.4986180656309704

> <docking_score>
-6.338047027587891

$$$$
BENZO_37_1
  -OEChem-08212019133D

 59 63  0     0  0  0  0  0  0999 V2000
   14.1526    1.4694   24.0176 C   0  0  0  0  0  0  0  0  0  0  0  0
   13.3741    0.8121   24.9701 C   0  0  0  0  0  0  0  0  0  0  0  0
   13.5446    2.0802   22.9208 C   0  0  0  0  0  0  0  0  0  0  0  0
    3.9160    2.0630   19.5520 C   0  0  0  0  0  0  0  0  0  0  0  0
    4.2750    1.7050   20.8490 C   0  0  0  0  0  0  0  0  0  0  0  0
   11.9875    0.7654   24.8259 C   0  0  0  0  0  0  0  0  0  0  0  0
   12.1580    2.0335   22.7765 C   0  0  0  0  0  0  0  0  0  0  0  0
    4.6890    1.6810   18.4640 C   0  0  0  0  0  0  0  0  0  0  0  0
    5.4210    0.9600   21.0930 C   0  0  0  0  0  0  0  0  0  0  0  0
    8.9960   -2.3380   25.5320 C   0  0  0  0  0  0  0  0  0  0  0  0
    9.6730   -3.4710   23.5300 C   0  0  0  0  0  0  0  0  0  0  0  0
    9.0720   -1.1280   24.8640 C   0  0  0  0  0  0  0  0  0  0  0  0
    9.7200   -2.2600   22.8630 C   0  0  0  0  0  0  0  0  0  0  0  0
    7.6390   -0.2680   18.5410 C   0  0  0  0  0  0  0  0  0  0  0  0
   11.3794    1.3761   23.7290 C   0  0  0  0  0  0  0  0  0  0  0  0
    5.8300    0.9190   18.6970 C   0  0  0  0  0  0  0  0  0  0  0  0
    6.1790    0.5730   19.9990 C   0  0  0  0  0  0  0  0  0  0  0  0
    9.3070   -3.5340   24.8780 C   0  0  0  0  0  0  0  0  0  0  0  0
    9.3350   -1.0880   23.5010 C   0  0  0  0  0  0  0  0  0  0  0  0
    9.0420    0.3700   21.5280 C   0  0  0  0  0  0  0  0  0  0  0  0
    7.3635   -6.1361   27.1888 C   0  0  0  0  0  0  0  0  0  0  0  0
    8.1961   -4.9735   27.7341 C   0  0  0  0  0  0  0  0  0  0  0  0
    7.1942   -6.0394   25.6709 C   0  0  0  0  0  0  0  0  0  0  0  0
    9.5196   -4.8490   26.9797 C   0  0  0  0  0  0  0  0  0  0  0  0
    8.5442   -5.8838   24.9639 C   0  0  0  0  0  0  0  0  0  0  0  0
    9.8870    1.3260   23.5730 C   0  0  0  0  0  0  0  0  0  0  0  0
    6.7580    0.3810   17.8350 N   0  0  0  0  0  0  0  0  0  0  0  0
    7.3170   -0.1610   19.8550 N   0  0  0  0  0  0  0  0  0  0  0  0
    9.2562   -4.7384   25.5422 N   0  0  0  0  0  0  0  0  0  0  0  0
    8.1890   -0.7180   20.8700 N   0  0  0  0  0  0  0  0  0  0  0  0
    9.4560    0.1560   22.8130 N   0  0  0  0  0  0  0  0  0  0  0  0
    9.2690    1.4140   20.9380 O   0  0  0  0  0  0  0  0  0  0  0  0
   15.2322    1.5068   24.1308 H   0  0  0  0  0  0  0  0  0  0  0  0
   13.8473    0.3374   25.8248 H   0  0  0  0  0  0  0  0  0  0  0  0
   14.1503    2.5930   22.1795 H   0  0  0  0  0  0  0  0  0  0  0  0
    3.0134    2.6521   19.3911 H   0  0  0  0  0  0  0  0  0  0  0  0
    3.6460    2.0127   21.6812 H   0  0  0  0  0  0  0  0  0  0  0  0
   11.3889    0.2508   25.5729 H   0  0  0  0  0  0  0  0  0  0  0  0
   11.6930    2.5120   21.9187 H   0  0  0  0  0  0  0  0  0  0  0  0
    4.4037    1.9731   17.4543 H   0  0  0  0  0  0  0  0  0  0  0  0
    5.7084    0.6923   22.1132 H   0  0  0  0  0  0  0  0  0  0  0  0
    8.6905   -2.3533   26.5810 H   0  0  0  0  0  0  0  0  0  0  0  0
    9.9266   -4.3896   22.9917 H   0  0  0  0  0  0  0  0  0  0  0  0
    8.9233   -0.1992   25.4231 H   0  0  0  0  0  0  0  0  0  0  0  0
   10.0650   -2.2330   21.8256 H   0  0  0  0  0  0  0  0  0  0  0  0
    8.4862   -0.8060   18.1787 H   0  0  0  0  0  0  0  0  0  0  0  0
    7.8482   -7.0901   27.4469 H   0  0  0  0  0  0  0  0  0  0  0  0
    6.3760   -6.1438   27.6724 H   0  0  0  0  0  0  0  0  0  0  0  0
    7.6307   -4.0424   27.6403 H   0  0  0  0  0  0  0  0  0  0  0  0
    8.3915   -5.1310   28.7968 H   0  0  0  0  0  0  0  0  0  0  0  0
    6.6888   -6.9376   25.3010 H   0  0  0  0  0  0  0  0  0  0  0  0
    6.5515   -5.1859   25.4257 H   0  0  0  0  0  0  0  0  0  0  0  0
   10.0492   -3.9640   27.3414 H   0  0  0  0  0  0  0  0  0  0  0  0
   10.1431   -5.7254   27.1778 H   0  0  0  0  0  0  0  0  0  0  0  0
    9.1338   -6.7931   25.0868 H   0  0  0  0  0  0  0  0  0  0  0  0
    8.3656   -5.7264   23.8998 H   0  0  0  0  0  0  0  0  0  0  0  0
    9.3974    1.2912   24.5523 H   0  0  0  0  0  0  0  0  0  0  0  0
    9.5159    2.2168   23.0553 H   0  0  0  0  0  0  0  0  0  0  0  0
    8.2565   -1.5523   21.1108 H   0  0  0  0  0  0  0  0  0  0  0  0
  1  2  1  0  0  0  0
  1  3  2  0  0  0  0
  2  6  2  0  0  0  0
  3  7  1  0  0  0  0
  4  5  1  0  0  0  0
  4  8  2  0  0  0  0
  5  9  2  0  0  0  0
  6 15  1  0  0  0  0
  7 15  2  0  0  0  0
  8 16  1  0  0  0  0
  9 17  1  0  0  0  0
 10 12  2  0  0  0  0
 10 18  1  0  0  0  0
 11 13  1  0  0  0  0
 11 18  2  0  0  0  0
 12 19  1  0  0  0  0
 13 19  2  0  0  0  0
 14 27  2  0  0  0  0
 14 28  1  0  0  0  0
 15 26  1  0  0  0  0
 16 17  2  0  0  0  0
 16 27  1  0  0  0  0
 17 28  1  0  0  0  0
 18 29  1  0  0  0  0
 19 31  1  0  0  0  0
 20 30  1  0  0  0  0
 20 31  1  0  0  0  0
 20 32  2  0  0  0  0
 21 22  1  0  0  0  0
 21 23  1  0  0  0  0
 22 24  1  0  0  0  0
 23 25  1  0  0  0  0
 24 29  1  0  0  0  0
 25 29  1  0  0  0  0
 26 31  1  0  0  0  0
 28 30  1  0  0  0  0
  1 33  1  0  0  0  0
  2 34  1  0  0  0  0
  3 35  1  0  0  0  0
  4 36  1  0  0  0  0
  5 37  1  0  0  0  0
  6 38  1  0  0  0  0
  7 39  1  0  0  0  0
  8 40  1  0  0  0  0
  9 41  1  0  0  0  0
 10 42  1  0  0  0  0
 11 43  1  0  0  0  0
 12 44  1  0  0  0  0
 13 45  1  0  0  0  0
 14 46  1  0  0  0  0
 21 47  1  0  0  0  0
 21 48  1  0  0  0  0
 22 49  1  0  0  0  0
 22 50  1  0  0  0  0
 23 51  1  0  0  0  0
 23 52  1  0  0  0  0
 24 53  1  0  0  0  0
 24 54  1  0  0  0  0
 25 55  1  0  0  0  0
 25 56  1  0  0  0  0
 26 57  1  0  0  0  0
 26 58  1  0  0  0  0
 30 59  1  0  0  0  0
M  END
> <clash_score>
0

> <docking_score>
-8.549254417419434

$$$$
BENZO_36_1
  -OEChem-08212019133D

 56 60  0     0  0  0  0  0  0999 V2000
    3.9160    2.0630   19.5520 C   0  0  0  0  0  0  0  0  0  0  0  0
    4.2750    1.7050   20.8490 C   0  0  0  0  0  0  0  0  0  0  0  0
    4.6890    1.6810   18.4640 C   0  0  0  0  0  0  0  0  0  0  0  0
    5.4210    0.9600   21.0930 C   0  0  0  0  0  0  0  0  0  0  0  0
    8.9960   -2.3380   25.5320 C   0  0  0  0  0  0  0  0  0  0  0  0
    9.6730   -3.4710   23.5300 C   0  0  0  0  0  0  0  0  0  0  0  0
    9.0720   -1.1280   24.8640 C   0  0  0  0  0  0  0  0  0  0  0  0
    9.7200   -2.2600   22.8630 C   0  0  0  0  0  0  0  0  0  0  0  0
   12.2913    1.4279   22.6355 C   0  0  0  0  0  0  0  0  0  0  0  0
   13.6024    1.4662   23.0564 C   0  0  0  0  0  0  0  0  0  0  0  0
   12.0284    1.3764   24.9443 C   0  0  0  0  0  0  0  0  0  0  0  0
    7.6390   -0.2680   18.5410 C   0  0  0  0  0  0  0  0  0  0  0  0
   11.3794    1.3761   23.7290 C   0  0  0  0  0  0  0  0  0  0  0  0
    5.8300    0.9190   18.6970 C   0  0  0  0  0  0  0  0  0  0  0  0
    6.1790    0.5730   19.9990 C   0  0  0  0  0  0  0  0  0  0  0  0
    9.3070   -3.5340   24.8780 C   0  0  0  0  0  0  0  0  0  0  0  0
    9.3350   -1.0880   23.5010 C   0  0  0  0  0  0  0  0  0  0  0  0
    9.0420    0.3700   21.5280 C   0  0  0  0  0  0  0  0  0  0  0  0
    7.3635   -6.1361   27.1888 C   0  0  0  0  0  0  0  0  0  0  0  0
    8.1961   -4.9735   27.7341 C   0  0  0  0  0  0  0  0  0  0  0  0
    7.1942   -6.0394   25.6709 C   0  0  0  0  0  0  0  0  0  0  0  0
    9.5196   -4.8490   26.9797 C   0  0  0  0  0  0  0  0  0  0  0  0
    8.5442   -5.8838   24.9639 C   0  0  0  0  0  0  0  0  0  0  0  0
    9.8870    1.3260   23.5730 C   0  0  0  0  0  0  0  0  0  0  0  0
    6.7580    0.3810   17.8350 N   0  0  0  0  0  0  0  0  0  0  0  0
    7.3170   -0.1610   19.8550 N   0  0  0  0  0  0  0  0  0  0  0  0
    9.2562   -4.7384   25.5422 N   0  0  0  0  0  0  0  0  0  0  0  0
    8.1890   -0.7180   20.8700 N   0  0  0  0  0  0  0  0  0  0  0  0
    9.4560    0.1560   22.8130 N   0  0  0  0  0  0  0  0  0  0  0  0
    9.2690    1.4140   20.9380 O   0  0  0  0  0  0  0  0  0  0  0  0
   13.7301    1.4394   24.7638 S   0  0  0  0  0  0  0  0  0  0  0  0
    3.0134    2.6521   19.3911 H   0  0  0  0  0  0  0  0  0  0  0  0
    3.6460    2.0127   21.6812 H   0  0  0  0  0  0  0  0  0  0  0  0
    4.4037    1.9731   17.4543 H   0  0  0  0  0  0  0  0  0  0  0  0
    5.7084    0.6923   22.1132 H   0  0  0  0  0  0  0  0  0  0  0  0
    8.6905   -2.3533   26.5810 H   0  0  0  0  0  0  0  0  0  0  0  0
    9.9266   -4.3896   22.9917 H   0  0  0  0  0  0  0  0  0  0  0  0
    8.9233   -0.1992   25.4231 H   0  0  0  0  0  0  0  0  0  0  0  0
   10.0650   -2.2330   21.8256 H   0  0  0  0  0  0  0  0  0  0  0  0
   12.0045    1.4365   21.5915 H   0  0  0  0  0  0  0  0  0  0  0  0
   14.4914    1.5078   22.4431 H   0  0  0  0  0  0  0  0  0  0  0  0
   11.5886    1.3416   25.9314 H   0  0  0  0  0  0  0  0  0  0  0  0
    8.4862   -0.8060   18.1787 H   0  0  0  0  0  0  0  0  0  0  0  0
    7.8482   -7.0901   27.4469 H   0  0  0  0  0  0  0  0  0  0  0  0
    6.3760   -6.1438   27.6724 H   0  0  0  0  0  0  0  0  0  0  0  0
    7.6307   -4.0424   27.6403 H   0  0  0  0  0  0  0  0  0  0  0  0
    8.3915   -5.1310   28.7968 H   0  0  0  0  0  0  0  0  0  0  0  0
    6.6888   -6.9376   25.3010 H   0  0  0  0  0  0  0  0  0  0  0  0
    6.5515   -5.1859   25.4257 H   0  0  0  0  0  0  0  0  0  0  0  0
   10.0492   -3.9640   27.3414 H   0  0  0  0  0  0  0  0  0  0  0  0
   10.1431   -5.7254   27.1778 H   0  0  0  0  0  0  0  0  0  0  0  0
    9.1338   -6.7931   25.0868 H   0  0  0  0  0  0  0  0  0  0  0  0
    8.3656   -5.7264   23.8998 H   0  0  0  0  0  0  0  0  0  0  0  0
    9.3974    1.2912   24.5523 H   0  0  0  0  0  0  0  0  0  0  0  0
    9.5159    2.2168   23.0553 H   0  0  0  0  0  0  0  0  0  0  0  0
    8.2565   -1.5523   21.1108 H   0  0  0  0  0  0  0  0  0  0  0  0
  1  2  1  0  0  0  0
  1  3  2  0  0  0  0
  2  4  2  0  0  0  0
  3 14  1  0  0  0  0
  4 15  1  0  0  0  0
  5  7  2  0  0  0  0
  5 16  1  0  0  0  0
  6  8  1  0  0  0  0
  6 16  2  0  0  0  0
  7 17  1  0  0  0  0
  8 17  2  0  0  0  0
  9 10  2  0  0  0  0
  9 13  1  0  0  0  0
 10 31  1  0  0  0  0
 11 13  2  0  0  0  0
 11 31  1  0  0  0  0
 12 25  2  0  0  0  0
 12 26  1  0  0  0  0
 13 24  1  0  0  0  0
 14 15  2  0  0  0  0
 14 25  1  0  0  0  0
 15 26  1  0  0  0  0
 16 27  1  0  0  0  0
 17 29  1  0  0  0  0
 18 28  1  0  0  0  0
 18 29  1  0  0  0  0
 18 30  2  0  0  0  0
 19 20  1  0  0  0  0
 19 21  1  0  0  0  0
 20 22  1  0  0  0  0
 21 23  1  0  0  0  0
 22 27  1  0  0  0  0
 23 27  1  0  0  0  0
 24 29  1  0  0  0  0
 26 28  1  0  0  0  0
  1 32  1  0  0  0  0
  2 33  1  0  0  0  0
  3 34  1  0  0  0  0
  4 35  1  0  0  0  0
  5 36  1  0  0  0  0
  6 37  1  0  0  0  0
  7 38  1  0  0  0  0
  8 39  1  0  0  0  0
  9 40  1  0  0  0  0
 10 41  1  0  0  0  0
 11 42  1  0  0  0  0
 12 43  1  0  0  0  0
 19 44  1  0  0  0  0
 19 45  1  0  0  0  0
 20 46  1  0  0  0  0
 20 47  1  0  0  0  0
 21 48  1  0  0  0  0
 21 49  1  0  0  0  0
 22 50  1  0  0  0  0
 22 51  1  0  0  0  0
 23 52  1  0  0  0  0
 23 53  1  0  0  0  0
 24 54  1  0  0  0  0
 24 55  1  0  0  0  0
 28 56  1  0  0  0  0
M  END
> <clash_score>
0

> <docking_score>
-8.628117561340332

$$$$
BENZO_38_1
  -OEChem-08212019133D

 59 63  0     0  0  0  0  0  0999 V2000
    3.9160    2.0630   19.5520 C   0  0  0  0  0  0  0  0  0  0  0  0
    4.2750    1.7050   20.8490 C   0  0  0  0  0  0  0  0  0  0  0  0
    6.4089    2.0844   24.8766 C   0  0  0  0  0  0  0  0  0  0  0  0
    7.4847    1.4191   24.2887 C   0  0  0  0  0  0  0  0  0  0  0  0
    4.6890    1.6810   18.4640 C   0  0  0  0  0  0  0  0  0  0  0  0
    5.4210    0.9600   21.0930 C   0  0  0  0  0  0  0  0  0  0  0  0
    8.9960   -2.3380   25.5320 C   0  0  0  0  0  0  0  0  0  0  0  0
    9.6730   -3.4710   23.5300 C   0  0  0  0  0  0  0  0  0  0  0  0
    9.0720   -1.1280   24.8640 C   0  0  0  0  0  0  0  0  0  0  0  0
    9.7200   -2.2600   22.8630 C   0  0  0  0  0  0  0  0  0  0  0  0
    6.5777    3.3741   25.3805 C   0  0  0  0  0  0  0  0  0  0  0  0
    8.8980    3.3330   24.7088 C   0  0  0  0  0  0  0  0  0  0  0  0
    7.6390   -0.2680   18.5410 C   0  0  0  0  0  0  0  0  0  0  0  0
    8.7292    2.0433   24.2048 C   0  0  0  0  0  0  0  0  0  0  0  0
    5.8300    0.9190   18.6970 C   0  0  0  0  0  0  0  0  0  0  0  0
    6.1790    0.5730   19.9990 C   0  0  0  0  0  0  0  0  0  0  0  0
    9.3070   -3.5340   24.8780 C   0  0  0  0  0  0  0  0  0  0  0  0
    9.3350   -1.0880   23.5010 C   0  0  0  0  0  0  0  0  0  0  0  0
    7.8222    3.9984   25.2966 C   0  0  0  0  0  0  0  0  0  0  0  0
    9.0420    0.3700   21.5280 C   0  0  0  0  0  0  0  0  0  0  0  0
    7.3635   -6.1361   27.1888 C   0  0  0  0  0  0  0  0  0  0  0  0
    8.1961   -4.9735   27.7341 C   0  0  0  0  0  0  0  0  0  0  0  0
    7.1942   -6.0394   25.6709 C   0  0  0  0  0  0  0  0  0  0  0  0
    9.5196   -4.8490   26.9797 C   0  0  0  0  0  0  0  0  0  0  0  0
    8.5442   -5.8838   24.9639 C   0  0  0  0  0  0  0  0  0  0  0  0
    9.8870    1.3260   23.5730 C   0  0  0  0  0  0  0  0  0  0  0  0
    6.7580    0.3810   17.8350 N   0  0  0  0  0  0  0  0  0  0  0  0
    7.3170   -0.1610   19.8550 N   0  0  0  0  0  0  0  0  0  0  0  0
    9.2562   -4.7384   25.5422 N   0  0  0  0  0  0  0  0  0  0  0  0
    8.1890   -0.7180   20.8700 N   0  0  0  0  0  0  0  0  0  0  0  0
    9.4560    0.1560   22.8130 N   0  0  0  0  0  0  0  0  0  0  0  0
    9.2690    1.4140   20.9380 O   0  0  0  0  0  0  0  0  0  0  0  0
    8.0301    5.5891   25.9196 Cl  0  0  0  0  0  0  0  0  0  0  0  0
    3.0134    2.6521   19.3911 H   0  0  0  0  0  0  0  0  0  0  0  0
    3.6460    2.0127   21.6812 H   0  0  0  0  0  0  0  0  0  0  0  0
    5.4400    1.5979   24.9418 H   0  0  0  0  0  0  0  0  0  0  0  0
    7.3441    0.4143   23.8988 H   0  0  0  0  0  0  0  0  0  0  0  0
    4.4037    1.9731   17.4543 H   0  0  0  0  0  0  0  0  0  0  0  0
    5.7084    0.6923   22.1132 H   0  0  0  0  0  0  0  0  0  0  0  0
    8.6905   -2.3533   26.5810 H   0  0  0  0  0  0  0  0  0  0  0  0
    9.9266   -4.3896   22.9917 H   0  0  0  0  0  0  0  0  0  0  0  0
    8.9233   -0.1992   25.4231 H   0  0  0  0  0  0  0  0  0  0  0  0
   10.0650   -2.2330   21.8256 H   0  0  0  0  0  0  0  0  0  0  0  0
    5.7304    3.8806   25.8363 H   0  0  0  0  0  0  0  0  0  0  0  0
    9.8702    3.8156   24.6405 H   0  0  0  0  0  0  0  0  0  0  0  0
    8.4862   -0.8060   18.1787 H   0  0  0  0  0  0  0  0  0  0  0  0
    7.8482   -7.0901   27.4469 H   0  0  0  0  0  0  0  0  0  0  0  0
    6.3760   -6.1438   27.6724 H   0  0  0  0  0  0  0  0  0  0  0  0
    7.6307   -4.0424   27.6403 H   0  0  0  0  0  0  0  0  0  0  0  0
    8.3915   -5.1310   28.7968 H   0  0  0  0  0  0  0  0  0  0  0  0
    6.6888   -6.9376   25.3010 H   0  0  0  0  0  0  0  0  0  0  0  0
    6.5515   -5.1859   25.4257 H   0  0  0  0  0  0  0  0  0  0  0  0
   10.0492   -3.9640   27.3414 H   0  0  0  0  0  0  0  0  0  0  0  0
   10.1431   -5.7254   27.1778 H   0  0  0  0  0  0  0  0  0  0  0  0
    9.1338   -6.7931   25.0868 H   0  0  0  0  0  0  0  0  0  0  0  0
    8.3656   -5.7264   23.8998 H   0  0  0  0  0  0  0  0  0  0  0  0
   10.4274    1.9911   22.8906 H   0  0  0  0  0  0  0  0  0  0  0  0
   10.6011    0.9882   24.3313 H   0  0  0  0  0  0  0  0  0  0  0  0
    8.2565   -1.5523   21.1108 H   0  0  0  0  0  0  0  0  0  0  0  0
  1  2  1  0  0  0  0
  1  5  2  0  0  0  0
  2  6  2  0  0  0  0
  3  4  2  0  0  0  0
  3 11  1  0  0  0  0
  4 14  1  0  0  0  0
  5 15  1  0  0  0  0
  6 16  1  0  0  0  0
  7  9  2  0  0  0  0
  7 17  1  0  0  0  0
  8 10  1  0  0  0  0
  8 17  2  0  0  0  0
  9 18  1  0  0  0  0
 10 18  2  0  0  0  0
 11 19  2  0  0  0  0
 12 14  2  0  0  0  0
 12 19  1  0  0  0  0
 13 27  2  0  0  0  0
 13 28  1  0  0  0  0
 14 26  1  0  0  0  0
 15 16  2  0  0  0  0
 15 27  1  0  0  0  0
 16 28  1  0  0  0  0
 17 29  1  0  0  0  0
 18 31  1  0  0  0  0
 19 33  1  0  0  0  0
 20 30  1  0  0  0  0
 20 31  1  0  0  0  0
 20 32  2  0  0  0  0
 21 22  1  0  0  0  0
 21 23  1  0  0  0  0
 22 24  1  0  0  0  0
 23 25  1  0  0  0  0
 24 29  1  0  0  0  0
 25 29  1  0  0  0  0
 26 31  1  0  0  0  0
 28 30  1  0  0  0  0
  1 34  1  0  0  0  0
  2 35  1  0  0  0  0
  3 36  1  0  0  0  0
  4 37  1  0  0  0  0
  5 38  1  0  0  0  0
  6 39  1  0  0  0  0
  7 40  1  0  0  0  0
  8 41  1  0  0  0  0
  9 42  1  0  0  0  0
 10 43  1  0  0  0  0
 11 44  1  0  0  0  0
 12 45  1  0  0  0  0
 13 46  1  0  0  0  0
 21 47  1  0  0  0  0
 21 48  1  0  0  0  0
 22 49  1  0  0  0  0
 22 50  1  0  0  0  0
 23 51  1  0  0  0  0
 23 52  1  0  0  0  0
 24 53  1  0  0  0  0
 24 54  1  0  0  0  0
 25 55  1  0  0  0  0
 25 56  1  0  0  0  0
 26 57  1  0  0  0  0
 26 58  1  0  0  0  0
 30 59  1  0  0  0  0
M  END
> <clash_score>
0

> <docking_score>
-7.935276985168457

$$$$
BENZO_39_1
  -OEChem-08212019133D

 59 63  0     0  0  0  0  0  0999 V2000
    3.9160    2.0630   19.5520 C   0  0  0  0  0  0  0  0  0  0  0  0
    4.2750    1.7050   20.8490 C   0  0  0  0  0  0  0  0  0  0  0  0
    4.6890    1.6810   18.4640 C   0  0  0  0  0  0  0  0  0  0  0  0
    5.4210    0.9600   21.0930 C   0  0  0  0  0  0  0  0  0  0  0  0
    8.9960   -2.3380   25.5320 C   0  0  0  0  0  0  0  0  0  0  0  0
    9.6730   -3.4710   23.5300 C   0  0  0  0  0  0  0  0  0  0  0  0
    9.0720   -1.1280   24.8640 C   0  0  0  0  0  0  0  0  0  0  0  0
    9.7200   -2.2600   22.8630 C   0  0  0  0  0  0  0  0  0  0  0  0
   12.1233    1.3811   24.9242 C   0  0  0  0  0  0  0  0  0  0  0  0
   12.3262    1.4247   22.7351 C   0  0  0  0  0  0  0  0  0  0  0  0
    7.6390   -0.2680   18.5410 C   0  0  0  0  0  0  0  0  0  0  0  0
   11.3794    1.3761   23.7290 C   0  0  0  0  0  0  0  0  0  0  0  0
    5.8300    0.9190   18.6970 C   0  0  0  0  0  0  0  0  0  0  0  0
    6.1790    0.5730   19.9990 C   0  0  0  0  0  0  0  0  0  0  0  0
    9.3070   -3.5340   24.8780 C   0  0  0  0  0  0  0  0  0  0  0  0
    9.3350   -1.0880   23.5010 C   0  0  0  0  0  0  0  0  0  0  0  0
    9.0420    0.3700   21.5280 C   0  0  0  0  0  0  0  0  0  0  0  0
    7.3635   -6.1361   27.1888 C   0  0  0  0  0  0  0  0  0  0  0  0
    8.1961   -4.9735   27.7341 C   0  0  0  0  0  0  0  0  0  0  0  0
    7.1942   -6.0394   25.6709 C   0  0  0  0  0  0  0  0  0  0  0  0
    9.5196   -4.8490   26.9797 C   0  0  0  0  0  0  0  0  0  0  0  0
    8.5442   -5.8838   24.9639 C   0  0  0  0  0  0  0  0  0  0  0  0
   14.8305    1.5084   22.7418 C   0  0  0  0  0  0  0  0  0  0  0  0
    9.8870    1.3260   23.5730 C   0  0  0  0  0  0  0  0  0  0  0  0
   13.4410    1.4289   24.7112 N   0  0  0  0  0  0  0  0  0  0  0  0
    6.7580    0.3810   17.8350 N   0  0  0  0  0  0  0  0  0  0  0  0
   13.5326    1.4543   23.3706 N   0  0  0  0  0  0  0  0  0  0  0  0
    7.3170   -0.1610   19.8550 N   0  0  0  0  0  0  0  0  0  0  0  0
    9.2562   -4.7384   25.5422 N   0  0  0  0  0  0  0  0  0  0  0  0
    8.1890   -0.7180   20.8700 N   0  0  0  0  0  0  0  0  0  0  0  0
    9.4560    0.1560   22.8130 N   0  0  0  0  0  0  0  0  0  0  0  0
    9.2690    1.4140   20.9380 O   0  0  0  0  0  0  0  0  0  0  0  0
    3.0134    2.6521   19.3911 H   0  0  0  0  0  0  0  0  0  0  0  0
    3.6460    2.0127   21.6812 H   0  0  0  0  0  0  0  0  0  0  0  0
    4.4037    1.9731   17.4543 H   0  0  0  0  0  0  0  0  0  0  0  0
    5.7084    0.6923   22.1132 H   0  0  0  0  0  0  0  0  0  0  0  0
    8.6905   -2.3533   26.5810 H   0  0  0  0  0  0  0  0  0  0  0  0
    9.9266   -4.3896   22.9917 H   0  0  0  0  0  0  0  0  0  0  0  0
    8.9233   -0.1992   25.4231 H   0  0  0  0  0  0  0  0  0  0  0  0
   10.0650   -2.2330   21.8256 H   0  0  0  0  0  0  0  0  0  0  0  0
   11.7624    1.3510   25.9426 H   0  0  0  0  0  0  0  0  0  0  0  0
   12.2462    1.4390   21.6566 H   0  0  0  0  0  0  0  0  0  0  0  0
    8.4862   -0.8060   18.1787 H   0  0  0  0  0  0  0  0  0  0  0  0
    7.8482   -7.0901   27.4469 H   0  0  0  0  0  0  0  0  0  0  0  0
    6.3760   -6.1438   27.6724 H   0  0  0  0  0  0  0  0  0  0  0  0
    7.6307   -4.0424   27.6403 H   0  0  0  0  0  0  0  0  0  0  0  0
    8.3915   -5.1310   28.7968 H   0  0  0  0  0  0  0  0  0  0  0  0
    6.6888   -6.9376   25.3010 H   0  0  0  0  0  0  0  0  0  0  0  0
    6.5515   -5.1859   25.4257 H   0  0  0  0  0  0  0  0  0  0  0  0
   10.0492   -3.9640   27.3414 H   0  0  0  0  0  0  0  0  0  0  0  0
   10.1431   -5.7254   27.1778 H   0  0  0  0  0  0  0  0  0  0  0  0
    9.1338   -6.7931   25.0868 H   0  0  0  0  0  0  0  0  0  0  0  0
    8.3656   -5.7264   23.8998 H   0  0  0  0  0  0  0  0  0  0  0  0
   15.0990    2.5601   22.6124 H   0  0  0  0  0  0  0  0  0  0  0  0
   15.5636    1.0018   23.3756 H   0  0  0  0  0  0  0  0  0  0  0  0
   14.7841    1.0025   21.7733 H   0  0  0  0  0  0  0  0  0  0  0  0
    9.3974    1.2912   24.5523 H   0  0  0  0  0  0  0  0  0  0  0  0
    9.5159    2.2168   23.0553 H   0  0  0  0  0  0  0  0  0  0  0  0
    8.2565   -1.5523   21.1108 H   0  0  0  0  0  0  0  0  0  0  0  0
  1  2  1  0  0  0  0
  1  3  2  0  0  0  0
  2  4  2  0  0  0  0
  3 13  1  0  0  0  0
  4 14  1  0  0  0  0
  5  7  2  0  0  0  0
  5 15  1  0  0  0  0
  6  8  1  0  0  0  0
  6 15  2  0  0  0  0
  7 16  1  0  0  0  0
  8 16  2  0  0  0  0
  9 12  1  0  0  0  0
  9 25  2  0  0  0  0
 10 12  2  0  0  0  0
 10 27  1  0  0  0  0
 11 26  2  0  0  0  0
 11 28  1  0  0  0  0
 12 24  1  0  0  0  0
 13 14  2  0  0  0  0
 13 26  1  0  0  0  0
 14 28  1  0  0  0  0
 15 29  1  0  0  0  0
 16 31  1  0  0  0  0
 17 30  1  0  0  0  0
 17 31  1  0  0  0  0
 17 32  2  0  0  0  0
 18 19  1  0  0  0  0
 18 20  1  0  0  0  0
 19 21  1  0  0  0  0
 20 22  1  0  0  0  0
 21 29  1  0  0  0  0
 22 29  1  0  0  0  0
 23 27  1  0  0  0  0
 24 31  1  0  0  0  0
 25 27  1  0  0  0  0
 28 30  1  0  0  0  0
  1 33  1  0  0  0  0
  2 34  1  0  0  0  0
  3 35  1  0  0  0  0
  4 36  1  0  0  0  0
  5 37  1  0  0  0  0
  6 38  1  0  0  0  0
  7 39  1  0  0  0  0
  8 40  1  0  0  0  0
  9 41  1  0  0  0  0
 10 42  1  0  0  0  0
 11 43  1  0  0  0  0
 18 44  1  0  0  0  0
 18 45  1  0  0  0  0
 19 46  1  0  0  0  0
 19 47  1  0  0  0  0
 20 48  1  0  0  0  0
 20 49  1  0  0  0  0
 21 50  1  0  0  0  0
 21 51  1  0  0  0  0
 22 52  1  0  0  0  0
 22 53  1  0  0  0  0
 23 54  1  0  0  0  0
 23 55  1  0  0  0  0
 23 56  1  0  0  0  0
 24 57  1  0  0  0  0
 24 58  1  0  0  0  0
 30 59  1  0  0  0  0
M  END
> <clash_score>
0

> <docking_score>
-8.265389442443848

$$$$
BENZO_41_1
  -OEChem-08212019183D

 47 50  0     0  0  0  0  0  0999 V2000
   14.1526    1.4694   24.0176 C   0  0  0  0  0  0  0  0  0  0  0  0
   13.3741    0.8121   24.9701 C   0  0  0  0  0  0  0  0  0  0  0  0
   13.5446    2.0802   22.9208 C   0  0  0  0  0  0  0  0  0  0  0  0
    3.9160    2.0630   19.5520 C   0  0  0  0  0  0  0  0  0  0  0  0
    4.2750    1.7050   20.8490 C   0  0  0  0  0  0  0  0  0  0  0  0
   11.9875    0.7654   24.8258 C   0  0  0  0  0  0  0  0  0  0  0  0
   12.1580    2.0335   22.7765 C   0  0  0  0  0  0  0  0  0  0  0  0
    8.9960   -2.3380   25.5320 C   0  0  0  0  0  0  0  0  0  0  0  0
    9.6730   -3.4710   23.5300 C   0  0  0  0  0  0  0  0  0  0  0  0
    4.6890    1.6810   18.4640 C   0  0  0  0  0  0  0  0  0  0  0  0
    5.4210    0.9600   21.0930 C   0  0  0  0  0  0  0  0  0  0  0  0
    9.0720   -1.1280   24.8640 C   0  0  0  0  0  0  0  0  0  0  0  0
    9.7200   -2.2600   22.8630 C   0  0  0  0  0  0  0  0  0  0  0  0
    7.6390   -0.2680   18.5410 C   0  0  0  0  0  0  0  0  0  0  0  0
    9.3070   -3.5340   24.8780 C   0  0  0  0  0  0  0  0  0  0  0  0
   11.3794    1.3761   23.7290 C   0  0  0  0  0  0  0  0  0  0  0  0
    5.8300    0.9190   18.6970 C   0  0  0  0  0  0  0  0  0  0  0  0
    6.1790    0.5730   19.9990 C   0  0  0  0  0  0  0  0  0  0  0  0
    9.3350   -1.0880   23.5010 C   0  0  0  0  0  0  0  0  0  0  0  0
    9.0420    0.3700   21.5280 C   0  0  0  0  0  0  0  0  0  0  0  0
    9.2505   -4.8264   25.5904 C   0  0  0  0  0  0  0  0  0  0  0  0
    9.8870    1.3260   23.5730 C   0  0  0  0  0  0  0  0  0  0  0  0
    6.7580    0.3810   17.8350 N   0  0  0  0  0  0  0  0  0  0  0  0
    7.3170   -0.1610   19.8550 N   0  0  0  0  0  0  0  0  0  0  0  0
    8.1890   -0.7180   20.8700 N   0  0  0  0  0  0  0  0  0  0  0  0
    9.4560    0.1560   22.8130 N   0  0  0  0  0  0  0  0  0  0  0  0
    9.2690    1.4140   20.9380 O   0  0  0  0  0  0  0  0  0  0  0  0
   15.2322    1.5068   24.1308 H   0  0  0  0  0  0  0  0  0  0  0  0
   13.8473    0.3374   25.8248 H   0  0  0  0  0  0  0  0  0  0  0  0
   14.1503    2.5930   22.1795 H   0  0  0  0  0  0  0  0  0  0  0  0
    3.0134    2.6521   19.3911 H   0  0  0  0  0  0  0  0  0  0  0  0
    3.6460    2.0127   21.6812 H   0  0  0  0  0  0  0  0  0  0  0  0
   11.3889    0.2508   25.5729 H   0  0  0  0  0  0  0  0  0  0  0  0
   11.6930    2.5120   21.9187 H   0  0  0  0  0  0  0  0  0  0  0  0
    8.6919   -2.3557   26.5813 H   0  0  0  0  0  0  0  0  0  0  0  0
    9.9267   -4.3907   22.9939 H   0  0  0  0  0  0  0  0  0  0  0  0
    4.4037    1.9731   17.4543 H   0  0  0  0  0  0  0  0  0  0  0  0
    5.7084    0.6923   22.1132 H   0  0  0  0  0  0  0  0  0  0  0  0
    8.9217   -0.1995   25.4231 H   0  0  0  0  0  0  0  0  0  0  0  0
   10.0653   -2.2339   21.8256 H   0  0  0  0  0  0  0  0  0  0  0  0
    8.4862   -0.8060   18.1787 H   0  0  0  0  0  0  0  0  0  0  0  0
    8.2503   -5.2678   25.5020 H   0  0  0  0  0  0  0  0  0  0  0  0
    9.9817   -5.5374   25.1845 H   0  0  0  0  0  0  0  0  0  0  0  0
    9.4841   -4.7043   26.6562 H   0  0  0  0  0  0  0  0  0  0  0  0
    9.3974    1.2912   24.5523 H   0  0  0  0  0  0  0  0  0  0  0  0
    9.5159    2.2168   23.0553 H   0  0  0  0  0  0  0  0  0  0  0  0
    8.2233   -1.5737   21.0809 H   0  0  0  0  0  0  0  0  0  0  0  0
  1  2  1  0  0  0  0
  1  3  2  0  0  0  0
  2  6  2  0  0  0  0
  3  7  1  0  0  0  0
  4  5  1  0  0  0  0
  4 10  2  0  0  0  0
  5 11  2  0  0  0  0
  6 16  1  0  0  0  0
  7 16  2  0  0  0  0
  8 12  2  0  0  0  0
  8 15  1  0  0  0  0
  9 13  1  0  0  0  0
  9 15  2  0  0  0  0
 10 17  1  0  0  0  0
 11 18  1  0  0  0  0
 12 19  1  0  0  0  0
 13 19  2  0  0  0  0
 14 23  2  0  0  0  0
 14 24  1  0  0  0  0
 15 21  1  0  0  0  0
 16 22  1  0  0  0  0
 17 18  2  0  0  0  0
 17 23  1  0  0  0  0
 18 24  1  0  0  0  0
 19 26  1  0  0  0  0
 20 25  1  0  0  0  0
 20 26  1  0  0  0  0
 20 27  2  0  0  0  0
 22 26  1  0  0  0  0
 24 25  1  0  0  0  0
  1 28  1  0  0  0  0
  2 29  1  0  0  0  0
  3 30  1  0  0  0  0
  4 31  1  0  0  0  0
  5 32  1  0  0  0  0
  6 33  1  0  0  0  0
  7 34  1  0  0  0  0
  8 35  1  0  0  0  0
  9 36  1  0  0  0  0
 10 37  1  0  0  0  0
 11 38  1  0  0  0  0
 12 39  1  0  0  0  0
 13 40  1  0  0  0  0
 14 41  1  0  0  0  0
 21 42  1  0  0  0  0
 21 43  1  0  0  0  0
 21 44  1  0  0  0  0
 22 45  1  0  0  0  0
 22 46  1  0  0  0  0
 25 47  1  0  0  0  0
M  END
> <clash_score>
0

> <docking_score>
-8.794289588928223

$$$$
BENZO_40_1
  -OEChem-08212019183D

 44 47  0     0  0  0  0  0  0999 V2000
    3.9160    2.0630   19.5520 C   0  0  0  0  0  0  0  0  0  0  0  0
    4.2750    1.7050   20.8490 C   0  0  0  0  0  0  0  0  0  0  0  0
    8.9960   -2.3380   25.5320 C   0  0  0  0  0  0  0  0  0  0  0  0
    9.6730   -3.4710   23.5300 C   0  0  0  0  0  0  0  0  0  0  0  0
    4.6890    1.6810   18.4640 C   0  0  0  0  0  0  0  0  0  0  0  0
    5.4210    0.9600   21.0930 C   0  0  0  0  0  0  0  0  0  0  0  0
    9.0720   -1.1280   24.8640 C   0  0  0  0  0  0  0  0  0  0  0  0
    9.7200   -2.2600   22.8630 C   0  0  0  0  0  0  0  0  0  0  0  0
   12.2913    1.4279   22.6355 C   0  0  0  0  0  0  0  0  0  0  0  0
   13.6024    1.4661   23.0564 C   0  0  0  0  0  0  0  0  0  0  0  0
   12.0284    1.3764   24.9443 C   0  0  0  0  0  0  0  0  0  0  0  0
    7.6390   -0.2680   18.5410 C   0  0  0  0  0  0  0  0  0  0  0  0
    9.3070   -3.5340   24.8780 C   0  0  0  0  0  0  0  0  0  0  0  0
   11.3794    1.3761   23.7290 C   0  0  0  0  0  0  0  0  0  0  0  0
    5.8300    0.9190   18.6970 C   0  0  0  0  0  0  0  0  0  0  0  0
    6.1790    0.5730   19.9990 C   0  0  0  0  0  0  0  0  0  0  0  0
    9.3350   -1.0880   23.5010 C   0  0  0  0  0  0  0  0  0  0  0  0
    9.0420    0.3700   21.5280 C   0  0  0  0  0  0  0  0  0  0  0  0
    9.2505   -4.8264   25.5904 C   0  0  0  0  0  0  0  0  0  0  0  0
    9.8870    1.3260   23.5730 C   0  0  0  0  0  0  0  0  0  0  0  0
    6.7580    0.3810   17.8350 N   0  0  0  0  0  0  0  0  0  0  0  0
    7.3170   -0.1610   19.8550 N   0  0  0  0  0  0  0  0  0  0  0  0
    8.1890   -0.7180   20.8700 N   0  0  0  0  0  0  0  0  0  0  0  0
    9.4560    0.1560   22.8130 N   0  0  0  0  0  0  0  0  0  0  0  0
    9.2690    1.4140   20.9380 O   0  0  0  0  0  0  0  0  0  0  0  0
   13.7301    1.4394   24.7638 S   0  0  0  0  0  0  0  0  0  0  0  0
    3.0134    2.6521   19.3911 H   0  0  0  0  0  0  0  0  0  0  0  0
    3.6460    2.0127   21.6812 H   0  0  0  0  0  0  0  0  0  0  0  0
    8.6919   -2.3557   26.5813 H   0  0  0  0  0  0  0  0  0  0  0  0
    9.9267   -4.3907   22.9939 H   0  0  0  0  0  0  0  0  0  0  0  0
    4.4037    1.9731   17.4543 H   0  0  0  0  0  0  0  0  0  0  0  0
    5.7084    0.6923   22.1132 H   0  0  0  0  0  0  0  0  0  0  0  0
    8.9217   -0.1995   25.4231 H   0  0  0  0  0  0  0  0  0  0  0  0
   10.0653   -2.2339   21.8256 H   0  0  0  0  0  0  0  0  0  0  0  0
   12.0045    1.4365   21.5915 H   0  0  0  0  0  0  0  0  0  0  0  0
   14.4914    1.5078   22.4431 H   0  0  0  0  0  0  0  0  0  0  0  0
   11.5886    1.3416   25.9314 H   0  0  0  0  0  0  0  0  0  0  0  0
    8.4862   -0.8060   18.1787 H   0  0  0  0  0  0  0  0  0  0  0  0
    8.2503   -5.2678   25.5020 H   0  0  0  0  0  0  0  0  0  0  0  0
    9.9817   -5.5374   25.1845 H   0  0  0  0  0  0  0  0  0  0  0  0
    9.4841   -4.7043   26.6562 H   0  0  0  0  0  0  0  0  0  0  0  0
    9.3974    1.2912   24.5523 H   0  0  0  0  0  0  0  0  0  0  0  0
    9.5159    2.2168   23.0553 H   0  0  0  0  0  0  0  0  0  0  0  0
    8.2233   -1.5737   21.0809 H   0  0  0  0  0  0  0  0  0  0  0  0
  1  2  1  0  0  0  0
  1  5  2  0  0  0  0
  2  6  2  0  0  0  0
  3  7  2  0  0  0  0
  3 13  1  0  0  0  0
  4  8  1  0  0  0  0
  4 13  2  0  0  0  0
  5 15  1  0  0  0  0
  6 16  1  0  0  0  0
  7 17  1  0  0  0  0
  8 17  2  0  0  0  0
  9 10  2  0  0  0  0
  9 14  1  0  0  0  0
 10 26  1  0  0  0  0
 11 14  2  0  0  0  0
 11 26  1  0  0  0  0
 12 21  2  0  0  0  0
 12 22  1  0  0  0  0
 13 19  1  0  0  0  0
 14 20  1  0  0  0  0
 15 16  2  0  0  0  0
 15 21  1  0  0  0  0
 16 22  1  0  0  0  0
 17 24  1  0  0  0  0
 18 23  1  0  0  0  0
 18 24  1  0  0  0  0
 18 25  2  0  0  0  0
 20 24  1  0  0  0  0
 22 23  1  0  0  0  0
  1 27  1  0  0  0  0
  2 28  1  0  0  0  0
  3 29  1  0  0  0  0
  4 30  1  0  0  0  0
  5 31  1  0  0  0  0
  6 32  1  0  0  0  0
  7 33  1  0  0  0  0
  8 34  1  0  0  0  0
  9 35  1  0  0  0  0
 10 36  1  0  0  0  0
 11 37  1  0  0  0  0
 12 38  1  0  0  0  0
 19 39  1  0  0  0  0
 19 40  1  0  0  0  0
 19 41  1  0  0  0  0
 20 42  1  0  0  0  0
 20 43  1  0  0  0  0
 23 44  1  0  0  0  0
M  END
> <clash_score>
0

> <docking_score>
-8.87314510345459

$$$$
BENZO_45_1
  -OEChem-08212019183D

 48 51  0     0  0  0  0  0  0999 V2000
   14.1526    1.4694   24.0176 C   0  0  0  0  0  0  0  0  0  0  0  0
   13.3741    0.8121   24.9701 C   0  0  0  0  0  0  0  0  0  0  0  0
   13.5446    2.0802   22.9208 C   0  0  0  0  0  0  0  0  0  0  0  0
    3.9160    2.0630   19.5520 C   0  0  0  0  0  0  0  0  0  0  0  0
    4.2750    1.7050   20.8490 C   0  0  0  0  0  0  0  0  0  0  0  0
   11.9875    0.7654   24.8258 C   0  0  0  0  0  0  0  0  0  0  0  0
   12.1580    2.0335   22.7765 C   0  0  0  0  0  0  0  0  0  0  0  0
    4.6890    1.6810   18.4640 C   0  0  0  0  0  0  0  0  0  0  0  0
    5.4210    0.9600   21.0930 C   0  0  0  0  0  0  0  0  0  0  0  0
    9.0720   -1.1280   24.8640 C   0  0  0  0  0  0  0  0  0  0  0  0
    9.7200   -2.2600   22.8630 C   0  0  0  0  0  0  0  0  0  0  0  0
    8.9960   -2.3380   25.5320 C   0  0  0  0  0  0  0  0  0  0  0  0
    9.6730   -3.4710   23.5300 C   0  0  0  0  0  0  0  0  0  0  0  0
    7.6390   -0.2680   18.5410 C   0  0  0  0  0  0  0  0  0  0  0  0
   11.3794    1.3761   23.7290 C   0  0  0  0  0  0  0  0  0  0  0  0
    5.8300    0.9190   18.6970 C   0  0  0  0  0  0  0  0  0  0  0  0
    6.1790    0.5730   19.9990 C   0  0  0  0  0  0  0  0  0  0  0  0
    9.3350   -1.0880   23.5010 C   0  0  0  0  0  0  0  0  0  0  0  0
    9.3070   -3.5340   24.8780 C   0  0  0  0  0  0  0  0  0  0  0  0
    9.0420    0.3700   21.5280 C   0  0  0  0  0  0  0  0  0  0  0  0
    8.8720   -4.6805   26.9013 C   0  0  0  0  0  0  0  0  0  0  0  0
    9.8870    1.3260   23.5730 C   0  0  0  0  0  0  0  0  0  0  0  0
    6.7580    0.3810   17.8350 N   0  0  0  0  0  0  0  0  0  0  0  0
    7.3170   -0.1610   19.8550 N   0  0  0  0  0  0  0  0  0  0  0  0
    8.1890   -0.7180   20.8700 N   0  0  0  0  0  0  0  0  0  0  0  0
    9.4560    0.1560   22.8130 N   0  0  0  0  0  0  0  0  0  0  0  0
    9.2690    1.4140   20.9380 O   0  0  0  0  0  0  0  0  0  0  0  0
    9.2555   -4.7124   25.5274 O   0  0  0  0  0  0  0  0  0  0  0  0
   15.2322    1.5068   24.1308 H   0  0  0  0  0  0  0  0  0  0  0  0
   13.8473    0.3374   25.8248 H   0  0  0  0  0  0  0  0  0  0  0  0
   14.1503    2.5930   22.1795 H   0  0  0  0  0  0  0  0  0  0  0  0
    3.0134    2.6521   19.3911 H   0  0  0  0  0  0  0  0  0  0  0  0
    3.6460    2.0127   21.6812 H   0  0  0  0  0  0  0  0  0  0  0  0
   11.3889    0.2508   25.5729 H   0  0  0  0  0  0  0  0  0  0  0  0
   11.6930    2.5120   21.9187 H   0  0  0  0  0  0  0  0  0  0  0  0
    4.4037    1.9731   17.4543 H   0  0  0  0  0  0  0  0  0  0  0  0
    5.7084    0.6923   22.1132 H   0  0  0  0  0  0  0  0  0  0  0  0
    8.9221   -0.1995   25.4231 H   0  0  0  0  0  0  0  0  0  0  0  0
   10.0642   -2.2347   21.8253 H   0  0  0  0  0  0  0  0  0  0  0  0
    8.6902   -2.3588   26.5805 H   0  0  0  0  0  0  0  0  0  0  0  0
    9.9254   -4.3921   22.9961 H   0  0  0  0  0  0  0  0  0  0  0  0
    8.4862   -0.8060   18.1787 H   0  0  0  0  0  0  0  0  0  0  0  0
    8.8711   -5.6964   27.3038 H   0  0  0  0  0  0  0  0  0  0  0  0
    7.8758   -4.2402   26.9923 H   0  0  0  0  0  0  0  0  0  0  0  0
    9.5894   -4.0716   27.4566 H   0  0  0  0  0  0  0  0  0  0  0  0
    9.3974    1.2912   24.5523 H   0  0  0  0  0  0  0  0  0  0  0  0
    9.5159    2.2168   23.0553 H   0  0  0  0  0  0  0  0  0  0  0  0
    8.2233   -1.5737   21.0809 H   0  0  0  0  0  0  0  0  0  0  0  0
  1  2  1  0  0  0  0
  1  3  2  0  0  0  0
  2  6  2  0  0  0  0
  3  7  1  0  0  0  0
  4  5  1  0  0  0  0
  4  8  2  0  0  0  0
  5  9  2  0  0  0  0
  6 15  1  0  0  0  0
  7 15  2  0  0  0  0
  8 16  1  0  0  0  0
  9 17  1  0  0  0  0
 10 12  2  0  0  0  0
 10 18  1  0  0  0  0
 11 13  1  0  0  0  0
 11 18  2  0  0  0  0
 12 19  1  0  0  0  0
 13 19  2  0  0  0  0
 14 23  2  0  0  0  0
 14 24  1  0  0  0  0
 15 22  1  0  0  0  0
 16 17  2  0  0  0  0
 16 23  1  0  0  0  0
 17 24  1  0  0  0  0
 18 26  1  0  0  0  0
 19 28  1  0  0  0  0
 20 25  1  0  0  0  0
 20 26  1  0  0  0  0
 20 27  2  0  0  0  0
 21 28  1  0  0  0  0
 22 26  1  0  0  0  0
 24 25  1  0  0  0  0
  1 29  1  0  0  0  0
  2 30  1  0  0  0  0
  3 31  1  0  0  0  0
  4 32  1  0  0  0  0
  5 33  1  0  0  0  0
  6 34  1  0  0  0  0
  7 35  1  0  0  0  0
  8 36  1  0  0  0  0
  9 37  1  0  0  0  0
 10 38  1  0  0  0  0
 11 39  1  0  0  0  0
 12 40  1  0  0  0  0
 13 41  1  0  0  0  0
 14 42  1  0  0  0  0
 21 43  1  0  0  0  0
 21 44  1  0  0  0  0
 21 45  1  0  0  0  0
 22 46  1  0  0  0  0
 22 47  1  0  0  0  0
 25 48  1  0  0  0  0
M  END
> <clash_score>
0

> <docking_score>
-8.53059196472168

$$$$
BENZO_42_1
  -OEChem-08212019183D

 47 50  0     0  0  0  0  0  0999 V2000
    3.9160    2.0630   19.5520 C   0  0  0  0  0  0  0  0  0  0  0  0
    4.2750    1.7050   20.8490 C   0  0  0  0  0  0  0  0  0  0  0  0
    6.4089    2.0844   24.8766 C   0  0  0  0  0  0  0  0  0  0  0  0
    7.4847    1.4191   24.2887 C   0  0  0  0  0  0  0  0  0  0  0  0
    8.9960   -2.3380   25.5320 C   0  0  0  0  0  0  0  0  0  0  0  0
    9.6730   -3.4710   23.5300 C   0  0  0  0  0  0  0  0  0  0  0  0
    4.6890    1.6810   18.4640 C   0  0  0  0  0  0  0  0  0  0  0  0
    5.4210    0.9600   21.0930 C   0  0  0  0  0  0  0  0  0  0  0  0
    9.0720   -1.1280   24.8640 C   0  0  0  0  0  0  0  0  0  0  0  0
    9.7200   -2.2600   22.8630 C   0  0  0  0  0  0  0  0  0  0  0  0
    6.5777    3.3741   25.3805 C   0  0  0  0  0  0  0  0  0  0  0  0
    8.8980    3.3330   24.7088 C   0  0  0  0  0  0  0  0  0  0  0  0
    7.6390   -0.2680   18.5410 C   0  0  0  0  0  0  0  0  0  0  0  0
    9.3070   -3.5340   24.8780 C   0  0  0  0  0  0  0  0  0  0  0  0
    8.7292    2.0433   24.2048 C   0  0  0  0  0  0  0  0  0  0  0  0
    5.8300    0.9190   18.6970 C   0  0  0  0  0  0  0  0  0  0  0  0
    6.1790    0.5730   19.9990 C   0  0  0  0  0  0  0  0  0  0  0  0
    9.3350   -1.0880   23.5010 C   0  0  0  0  0  0  0  0  0  0  0  0
    7.8222    3.9984   25.2966 C   0  0  0  0  0  0  0  0  0  0  0  0
    9.0420    0.3700   21.5280 C   0  0  0  0  0  0  0  0  0  0  0  0
    9.2505   -4.8264   25.5904 C   0  0  0  0  0  0  0  0  0  0  0  0
    9.8870    1.3260   23.5730 C   0  0  0  0  0  0  0  0  0  0  0  0
    6.7580    0.3810   17.8350 N   0  0  0  0  0  0  0  0  0  0  0  0
    7.3170   -0.1610   19.8550 N   0  0  0  0  0  0  0  0  0  0  0  0
    8.1890   -0.7180   20.8700 N   0  0  0  0  0  0  0  0  0  0  0  0
    9.4560    0.1560   22.8130 N   0  0  0  0  0  0  0  0  0  0  0  0
    9.2690    1.4140   20.9380 O   0  0  0  0  0  0  0  0  0  0  0  0
    8.0301    5.5891   25.9196 Cl  0  0  0  0  0  0  0  0  0  0  0  0
    3.0134    2.6521   19.3911 H   0  0  0  0  0  0  0  0  0  0  0  0
    3.6460    2.0127   21.6812 H   0  0  0  0  0  0  0  0  0  0  0  0
    5.4400    1.5979   24.9418 H   0  0  0  0  0  0  0  0  0  0  0  0
    7.3441    0.4143   23.8988 H   0  0  0  0  0  0  0  0  0  0  0  0
    8.6919   -2.3557   26.5813 H   0  0  0  0  0  0  0  0  0  0  0  0
    9.9267   -4.3907   22.9939 H   0  0  0  0  0  0  0  0  0  0  0  0
    4.4037    1.9731   17.4543 H   0  0  0  0  0  0  0  0  0  0  0  0
    5.7084    0.6923   22.1132 H   0  0  0  0  0  0  0  0  0  0  0  0
    8.9217   -0.1995   25.4231 H   0  0  0  0  0  0  0  0  0  0  0  0
   10.0653   -2.2339   21.8256 H   0  0  0  0  0  0  0  0  0  0  0  0
    5.7304    3.8806   25.8363 H   0  0  0  0  0  0  0  0  0  0  0  0
    9.8703    3.8156   24.6405 H   0  0  0  0  0  0  0  0  0  0  0  0
    8.4862   -0.8060   18.1787 H   0  0  0  0  0  0  0  0  0  0  0  0
    8.2503   -5.2678   25.5020 H   0  0  0  0  0  0  0  0  0  0  0  0
    9.9817   -5.5374   25.1845 H   0  0  0  0  0  0  0  0  0  0  0  0
    9.4841   -4.7043   26.6562 H   0  0  0  0  0  0  0  0  0  0  0  0
   10.4274    1.9911   22.8906 H   0  0  0  0  0  0  0  0  0  0  0  0
   10.6011    0.9882   24.3313 H   0  0  0  0  0  0  0  0  0  0  0  0
    8.2233   -1.5737   21.0809 H   0  0  0  0  0  0  0  0  0  0  0  0
  1  2  1  0  0  0  0
  1  7  2  0  0  0  0
  2  8  2  0  0  0  0
  3  4  2  0  0  0  0
  3 11  1  0  0  0  0
  4 15  1  0  0  0  0
  5  9  2  0  0  0  0
  5 14  1  0  0  0  0
  6 10  1  0  0  0  0
  6 14  2  0  0  0  0
  7 16  1  0  0  0  0
  8 17  1  0  0  0  0
  9 18  1  0  0  0  0
 10 18  2  0  0  0  0
 11 19  2  0  0  0  0
 12 15  2  0  0  0  0
 12 19  1  0  0  0  0
 13 23  2  0  0  0  0
 13 24  1  0  0  0  0
 14 21  1  0  0  0  0
 15 22  1  0  0  0  0
 16 17  2  0  0  0  0
 16 23  1  0  0  0  0
 17 24  1  0  0  0  0
 18 26  1  0  0  0  0
 19 28  1  0  0  0  0
 20 25  1  0  0  0  0
 20 26  1  0  0  0  0
 20 27  2  0  0  0  0
 22 26  1  0  0  0  0
 24 25  1  0  0  0  0
  1 29  1  0  0  0  0
  2 30  1  0  0  0  0
  3 31  1  0  0  0  0
  4 32  1  0  0  0  0
  5 33  1  0  0  0  0
  6 34  1  0  0  0  0
  7 35  1  0  0  0  0
  8 36  1  0  0  0  0
  9 37  1  0  0  0  0
 10 38  1  0  0  0  0
 11 39  1  0  0  0  0
 12 40  1  0  0  0  0
 13 41  1  0  0  0  0
 21 42  1  0  0  0  0
 21 43  1  0  0  0  0
 21 44  1  0  0  0  0
 22 45  1  0  0  0  0
 22 46  1  0  0  0  0
 25 47  1  0  0  0  0
M  END
> <clash_score>
0

> <docking_score>
-8.180309295654297

$$$$
BENZO_46_1
  -OEChem-08212019183D

 48 51  0     0  0  0  0  0  0999 V2000
    3.9160    2.0630   19.5520 C   0  0  0  0  0  0  0  0  0  0  0  0
    4.2750    1.7050   20.8490 C   0  0  0  0  0  0  0  0  0  0  0  0
    6.4089    2.0844   24.8766 C   0  0  0  0  0  0  0  0  0  0  0  0
    7.4847    1.4191   24.2887 C   0  0  0  0  0  0  0  0  0  0  0  0
    4.6890    1.6810   18.4640 C   0  0  0  0  0  0  0  0  0  0  0  0
    5.4210    0.9600   21.0930 C   0  0  0  0  0  0  0  0  0  0  0  0
    9.0720   -1.1280   24.8640 C   0  0  0  0  0  0  0  0  0  0  0  0
    9.7200   -2.2600   22.8630 C   0  0  0  0  0  0  0  0  0  0  0  0
    8.9960   -2.3380   25.5320 C   0  0  0  0  0  0  0  0  0  0  0  0
    9.6730   -3.4710   23.5300 C   0  0  0  0  0  0  0  0  0  0  0  0
    6.5777    3.3741   25.3805 C   0  0  0  0  0  0  0  0  0  0  0  0
    8.8980    3.3330   24.7088 C   0  0  0  0  0  0  0  0  0  0  0  0
    7.6390   -0.2680   18.5410 C   0  0  0  0  0  0  0  0  0  0  0  0
    8.7292    2.0433   24.2048 C   0  0  0  0  0  0  0  0  0  0  0  0
    5.8300    0.9190   18.6970 C   0  0  0  0  0  0  0  0  0  0  0  0
    6.1790    0.5730   19.9990 C   0  0  0  0  0  0  0  0  0  0  0  0
    9.3350   -1.0880   23.5010 C   0  0  0  0  0  0  0  0  0  0  0  0
    9.3070   -3.5340   24.8780 C   0  0  0  0  0  0  0  0  0  0  0  0
    7.8222    3.9984   25.2966 C   0  0  0  0  0  0  0  0  0  0  0  0
    9.0420    0.3700   21.5280 C   0  0  0  0  0  0  0  0  0  0  0  0
    8.8720   -4.6805   26.9013 C   0  0  0  0  0  0  0  0  0  0  0  0
    9.8870    1.3260   23.5730 C   0  0  0  0  0  0  0  0  0  0  0  0
    6.7580    0.3810   17.8350 N   0  0  0  0  0  0  0  0  0  0  0  0
    7.3170   -0.1610   19.8550 N   0  0  0  0  0  0  0  0  0  0  0  0
    8.1890   -0.7180   20.8700 N   0  0  0  0  0  0  0  0  0  0  0  0
    9.4560    0.1560   22.8130 N   0  0  0  0  0  0  0  0  0  0  0  0
    9.2690    1.4140   20.9380 O   0  0  0  0  0  0  0  0  0  0  0  0
    9.2555   -4.7124   25.5274 O   0  0  0  0  0  0  0  0  0  0  0  0
    8.0301    5.5891   25.9196 Cl  0  0  0  0  0  0  0  0  0  0  0  0
    3.0134    2.6521   19.3911 H   0  0  0  0  0  0  0  0  0  0  0  0
    3.6460    2.0127   21.6812 H   0  0  0  0  0  0  0  0  0  0  0  0
    5.4400    1.5979   24.9418 H   0  0  0  0  0  0  0  0  0  0  0  0
    7.3441    0.4143   23.8988 H   0  0  0  0  0  0  0  0  0  0  0  0
    4.4037    1.9731   17.4543 H   0  0  0  0  0  0  0  0  0  0  0  0
    5.7084    0.6923   22.1132 H   0  0  0  0  0  0  0  0  0  0  0  0
    8.9221   -0.1995   25.4231 H   0  0  0  0  0  0  0  0  0  0  0  0
   10.0642   -2.2347   21.8253 H   0  0  0  0  0  0  0  0  0  0  0  0
    8.6902   -2.3588   26.5805 H   0  0  0  0  0  0  0  0  0  0  0  0
    9.9254   -4.3921   22.9961 H   0  0  0  0  0  0  0  0  0  0  0  0
    5.7304    3.8806   25.8363 H   0  0  0  0  0  0  0  0  0  0  0  0
    9.8703    3.8156   24.6405 H   0  0  0  0  0  0  0  0  0  0  0  0
    8.4862   -0.8060   18.1787 H   0  0  0  0  0  0  0  0  0  0  0  0
    8.8711   -5.6964   27.3038 H   0  0  0  0  0  0  0  0  0  0  0  0
    7.8758   -4.2402   26.9923 H   0  0  0  0  0  0  0  0  0  0  0  0
    9.5894   -4.0716   27.4566 H   0  0  0  0  0  0  0  0  0  0  0  0
   10.4274    1.9911   22.8906 H   0  0  0  0  0  0  0  0  0  0  0  0
   10.6011    0.9882   24.3313 H   0  0  0  0  0  0  0  0  0  0  0  0
    8.2233   -1.5737   21.0809 H   0  0  0  0  0  0  0  0  0  0  0  0
  1  2  1  0  0  0  0
  1  5  2  0  0  0  0
  2  6  2  0  0  0  0
  3  4  2  0  0  0  0
  3 11  1  0  0  0  0
  4 14  1  0  0  0  0
  5 15  1  0  0  0  0
  6 16  1  0  0  0  0
  7  9  2  0  0  0  0
  7 17  1  0  0  0  0
  8 10  1  0  0  0  0
  8 17  2  0  0  0  0
  9 18  1  0  0  0  0
 10 18  2  0  0  0  0
 11 19  2  0  0  0  0
 12 14  2  0  0  0  0
 12 19  1  0  0  0  0
 13 23  2  0  0  0  0
 13 24  1  0  0  0  0
 14 22  1  0  0  0  0
 15 16  2  0  0  0  0
 15 23  1  0  0  0  0
 16 24  1  0  0  0  0
 17 26  1  0  0  0  0
 18 28  1  0  0  0  0
 19 29  1  0  0  0  0
 20 25  1  0  0  0  0
 20 26  1  0  0  0  0
 20 27  2  0  0  0  0
 21 28  1  0  0  0  0
 22 26  1  0  0  0  0
 24 25  1  0  0  0  0
  1 30  1  0  0  0  0
  2 31  1  0  0  0  0
  3 32  1  0  0  0  0
  4 33  1  0  0  0  0
  5 34  1  0  0  0  0
  6 35  1  0  0  0  0
  7 36  1  0  0  0  0
  8 37  1  0  0  0  0
  9 38  1  0  0  0  0
 10 39  1  0  0  0  0
 11 40  1  0  0  0  0
 12 41  1  0  0  0  0
 13 42  1  0  0  0  0
 21 43  1  0  0  0  0
 21 44  1  0  0  0  0
 21 45  1  0  0  0  0
 22 46  1  0  0  0  0
 22 47  1  0  0  0  0
 25 48  1  0  0  0  0
M  END
> <clash_score>
0

> <docking_score>
-7.9166083335876465

$$$$
BENZO_47_1
  -OEChem-08212019183D

 48 51  0     0  0  0  0  0  0999 V2000
    3.9160    2.0630   19.5520 C   0  0  0  0  0  0  0  0  0  0  0  0
    4.2750    1.7050   20.8490 C   0  0  0  0  0  0  0  0  0  0  0  0
    4.6890    1.6810   18.4640 C   0  0  0  0  0  0  0  0  0  0  0  0
    5.4210    0.9600   21.0930 C   0  0  0  0  0  0  0  0  0  0  0  0
    9.0720   -1.1280   24.8640 C   0  0  0  0  0  0  0  0  0  0  0  0
    9.7200   -2.2600   22.8630 C   0  0  0  0  0  0  0  0  0  0  0  0
    8.9960   -2.3380   25.5320 C   0  0  0  0  0  0  0  0  0  0  0  0
    9.6730   -3.4710   23.5300 C   0  0  0  0  0  0  0  0  0  0  0  0
   12.1233    1.3811   24.9242 C   0  0  0  0  0  0  0  0  0  0  0  0
   12.3262    1.4247   22.7351 C   0  0  0  0  0  0  0  0  0  0  0  0
    7.6390   -0.2680   18.5410 C   0  0  0  0  0  0  0  0  0  0  0  0
   11.3794    1.3761   23.7290 C   0  0  0  0  0  0  0  0  0  0  0  0
    5.8300    0.9190   18.6970 C   0  0  0  0  0  0  0  0  0  0  0  0
    6.1790    0.5730   19.9990 C   0  0  0  0  0  0  0  0  0  0  0  0
    9.3350   -1.0880   23.5010 C   0  0  0  0  0  0  0  0  0  0  0  0
    9.3070   -3.5340   24.8780 C   0  0  0  0  0  0  0  0  0  0  0  0
    9.0420    0.3700   21.5280 C   0  0  0  0  0  0  0  0  0  0  0  0
   14.8305    1.5084   22.7418 C   0  0  0  0  0  0  0  0  0  0  0  0
    8.8720   -4.6805   26.9013 C   0  0  0  0  0  0  0  0  0  0  0  0
    9.8870    1.3260   23.5730 C   0  0  0  0  0  0  0  0  0  0  0  0
   13.4410    1.4289   24.7112 N   0  0  0  0  0  0  0  0  0  0  0  0
    6.7580    0.3810   17.8350 N   0  0  0  0  0  0  0  0  0  0  0  0
   13.5326    1.4543   23.3706 N   0  0  0  0  0  0  0  0  0  0  0  0
    7.3170   -0.1610   19.8550 N   0  0  0  0  0  0  0  0  0  0  0  0
    8.1890   -0.7180   20.8700 N   0  0  0  0  0  0  0  0  0  0  0  0
    9.4560    0.1560   22.8130 N   0  0  0  0  0  0  0  0  0  0  0  0
    9.2690    1.4140   20.9380 O   0  0  0  0  0  0  0  0  0  0  0  0
    9.2555   -4.7124   25.5274 O   0  0  0  0  0  0  0  0  0  0  0  0
    3.0134    2.6521   19.3911 H   0  0  0  0  0  0  0  0  0  0  0  0
    3.6460    2.0127   21.6812 H   0  0  0  0  0  0  0  0  0  0  0  0
    4.4037    1.9731   17.4543 H   0  0  0  0  0  0  0  0  0  0  0  0
    5.7084    0.6923   22.1132 H   0  0  0  0  0  0  0  0  0  0  0  0
    8.9221   -0.1995   25.4231 H   0  0  0  0  0  0  0  0  0  0  0  0
   10.0642   -2.2347   21.8253 H   0  0  0  0  0  0  0  0  0  0  0  0
    8.6902   -2.3588   26.5805 H   0  0  0  0  0  0  0  0  0  0  0  0
    9.9254   -4.3921   22.9961 H   0  0  0  0  0  0  0  0  0  0  0  0
   11.7624    1.3510   25.9426 H   0  0  0  0  0  0  0  0  0  0  0  0
   12.2462    1.4390   21.6566 H   0  0  0  0  0  0  0  0  0  0  0  0
    8.4862   -0.8060   18.1787 H   0  0  0  0  0  0  0  0  0  0  0  0
   15.0990    2.5601   22.6124 H   0  0  0  0  0  0  0  0  0  0  0  0
   15.5636    1.0018   23.3756 H   0  0  0  0  0  0  0  0  0  0  0  0
   14.7841    1.0025   21.7733 H   0  0  0  0  0  0  0  0  0  0  0  0
    8.8711   -5.6964   27.3038 H   0  0  0  0  0  0  0  0  0  0  0  0
    7.8758   -4.2402   26.9923 H   0  0  0  0  0  0  0  0  0  0  0  0
    9.5894   -4.0716   27.4566 H   0  0  0  0  0  0  0  0  0  0  0  0
    9.3974    1.2912   24.5523 H   0  0  0  0  0  0  0  0  0  0  0  0
    9.5159    2.2168   23.0553 H   0  0  0  0  0  0  0  0  0  0  0  0
    8.2233   -1.5737   21.0809 H   0  0  0  0  0  0  0  0  0  0  0  0
  1  2  1  0  0  0  0
  1  3  2  0  0  0  0
  2  4  2  0  0  0  0
  3 13  1  0  0  0  0
  4 14  1  0  0  0  0
  5  7  2  0  0  0  0
  5 15  1  0  0  0  0
  6  8  1  0  0  0  0
  6 15  2  0  0  0  0
  7 16  1  0  0  0  0
  8 16  2  0  0  0  0
  9 12  1  0  0  0  0
  9 21  2  0  0  0  0
 10 12  2  0  0  0  0
 10 23  1  0  0  0  0
 11 22  2  0  0  0  0
 11 24  1  0  0  0  0
 12 20  1  0  0  0  0
 13 14  2  0  0  0  0
 13 22  1  0  0  0  0
 14 24  1  0  0  0  0
 15 26  1  0  0  0  0
 16 28  1  0  0  0  0
 17 25  1  0  0  0  0
 17 26  1  0  0  0  0
 17 27  2  0  0  0  0
 18 23  1  0  0  0  0
 19 28  1  0  0  0  0
 20 26  1  0  0  0  0
 21 23  1  0  0  0  0
 24 25  1  0  0  0  0
  1 29  1  0  0  0  0
  2 30  1  0  0  0  0
  3 31  1  0  0  0  0
  4 32  1  0  0  0  0
  5 33  1  0  0  0  0
  6 34  1  0  0  0  0
  7 35  1  0  0  0  0
  8 36  1  0  0  0  0
  9 37  1  0  0  0  0
 10 38  1  0  0  0  0
 11 39  1  0  0  0  0
 18 40  1  0  0  0  0
 18 41  1  0  0  0  0
 18 42  1  0  0  0  0
 19 43  1  0  0  0  0
 19 44  1  0  0  0  0
 19 45  1  0  0  0  0
 20 46  1  0  0  0  0
 20 47  1  0  0  0  0
 25 48  1  0  0  0  0
M  END
> <clash_score>
0

> <docking_score>
-8.246725082397461

$$$$
BENZO_43_1
  -OEChem-08212019183D

 47 50  0     0  0  0  0  0  0999 V2000
    3.9160    2.0630   19.5520 C   0  0  0  0  0  0  0  0  0  0  0  0
    4.2750    1.7050   20.8490 C   0  0  0  0  0  0  0  0  0  0  0  0
    8.9960   -2.3380   25.5320 C   0  0  0  0  0  0  0  0  0  0  0  0
    9.6730   -3.4710   23.5300 C   0  0  0  0  0  0  0  0  0  0  0  0
    4.6890    1.6810   18.4640 C   0  0  0  0  0  0  0  0  0  0  0  0
    5.4210    0.9600   21.0930 C   0  0  0  0  0  0  0  0  0  0  0  0
    9.0720   -1.1280   24.8640 C   0  0  0  0  0  0  0  0  0  0  0  0
    9.7200   -2.2600   22.8630 C   0  0  0  0  0  0  0  0  0  0  0  0
   12.1233    1.3811   24.9242 C   0  0  0  0  0  0  0  0  0  0  0  0
   12.3262    1.4247   22.7351 C   0  0  0  0  0  0  0  0  0  0  0  0
    7.6390   -0.2680   18.5410 C   0  0  0  0  0  0  0  0  0  0  0  0
    9.3070   -3.5340   24.8780 C   0  0  0  0  0  0  0  0  0  0  0  0
   11.3794    1.3761   23.7290 C   0  0  0  0  0  0  0  0  0  0  0  0
    5.8300    0.9190   18.6970 C   0  0  0  0  0  0  0  0  0  0  0  0
    6.1790    0.5730   19.9990 C   0  0  0  0  0  0  0  0  0  0  0  0
    9.3350   -1.0880   23.5010 C   0  0  0  0  0  0  0  0  0  0  0  0
    9.0420    0.3700   21.5280 C   0  0  0  0  0  0  0  0  0  0  0  0
    9.2505   -4.8264   25.5904 C   0  0  0  0  0  0  0  0  0  0  0  0
   14.8305    1.5084   22.7418 C   0  0  0  0  0  0  0  0  0  0  0  0
    9.8870    1.3260   23.5730 C   0  0  0  0  0  0  0  0  0  0  0  0
   13.4410    1.4289   24.7112 N   0  0  0  0  0  0  0  0  0  0  0  0
    6.7580    0.3810   17.8350 N   0  0  0  0  0  0  0  0  0  0  0  0
   13.5326    1.4543   23.3706 N   0  0  0  0  0  0  0  0  0  0  0  0
    7.3170   -0.1610   19.8550 N   0  0  0  0  0  0  0  0  0  0  0  0
    8.1890   -0.7180   20.8700 N   0  0  0  0  0  0  0  0  0  0  0  0
    9.4560    0.1560   22.8130 N   0  0  0  0  0  0  0  0  0  0  0  0
    9.2690    1.4140   20.9380 O   0  0  0  0  0  0  0  0  0  0  0  0
    3.0134    2.6521   19.3911 H   0  0  0  0  0  0  0  0  0  0  0  0
    3.6460    2.0127   21.6812 H   0  0  0  0  0  0  0  0  0  0  0  0
    8.6919   -2.3557   26.5813 H   0  0  0  0  0  0  0  0  0  0  0  0
    9.9267   -4.3907   22.9939 H   0  0  0  0  0  0  0  0  0  0  0  0
    4.4037    1.9731   17.4543 H   0  0  0  0  0  0  0  0  0  0  0  0
    5.7084    0.6923   22.1132 H   0  0  0  0  0  0  0  0  0  0  0  0
    8.9217   -0.1995   25.4231 H   0  0  0  0  0  0  0  0  0  0  0  0
   10.0653   -2.2339   21.8256 H   0  0  0  0  0  0  0  0  0  0  0  0
   11.7624    1.3510   25.9426 H   0  0  0  0  0  0  0  0  0  0  0  0
   12.2462    1.4390   21.6566 H   0  0  0  0  0  0  0  0  0  0  0  0
    8.4862   -0.8060   18.1787 H   0  0  0  0  0  0  0  0  0  0  0  0
    8.2503   -5.2678   25.5020 H   0  0  0  0  0  0  0  0  0  0  0  0
    9.9817   -5.5374   25.1845 H   0  0  0  0  0  0  0  0  0  0  0  0
    9.4841   -4.7043   26.6562 H   0  0  0  0  0  0  0  0  0  0  0  0
   15.0990    2.5601   22.6124 H   0  0  0  0  0  0  0  0  0  0  0  0
   15.5636    1.0018   23.3756 H   0  0  0  0  0  0  0  0  0  0  0  0
   14.7841    1.0025   21.7733 H   0  0  0  0  0  0  0  0  0  0  0  0
    9.3974    1.2912   24.5523 H   0  0  0  0  0  0  0  0  0  0  0  0
    9.5159    2.2168   23.0553 H   0  0  0  0  0  0  0  0  0  0  0  0
    8.2233   -1.5737   21.0809 H   0  0  0  0  0  0  0  0  0  0  0  0
  1  2  1  0  0  0  0
  1  5  2  0  0  0  0
  2  6  2  0  0  0  0
  3  7  2  0  0  0  0
  3 12  1  0  0  0  0
  4  8  1  0  0  0  0
  4 12  2  0  0  0  0
  5 14  1  0  0  0  0
  6 15  1  0  0  0  0
  7 16  1  0  0  0  0
  8 16  2  0  0  0  0
  9 13  1  0  0  0  0
  9 21  2  0  0  0  0
 10 13  2  0  0  0  0
 10 23  1  0  0  0  0
 11 22  2  0  0  0  0
 11 24  1  0  0  0  0
 12 18  1  0  0  0  0
 13 20  1  0  0  0  0
 14 15  2  0  0  0  0
 14 22  1  0  0  0  0
 15 24  1  0  0  0  0
 16 26  1  0  0  0  0
 17 25  1  0  0  0  0
 17 26  1  0  0  0  0
 17 27  2  0  0  0  0
 19 23  1  0  0  0  0
 20 26  1  0  0  0  0
 21 23  1  0  0  0  0
 24 25  1  0  0  0  0
  1 28  1  0  0  0  0
  2 29  1  0  0  0  0
  3 30  1  0  0  0  0
  4 31  1  0  0  0  0
  5 32  1  0  0  0  0
  6 33  1  0  0  0  0
  7 34  1  0  0  0  0
  8 35  1  0  0  0  0
  9 36  1  0  0  0  0
 10 37  1  0  0  0  0
 11 38  1  0  0  0  0
 18 39  1  0  0  0  0
 18 40  1  0  0  0  0
 18 41  1  0  0  0  0
 19 42  1  0  0  0  0
 19 43  1  0  0  0  0
 19 44  1  0  0  0  0
 20 45  1  0  0  0  0
 20 46  1  0  0  0  0
 25 47  1  0  0  0  0
M  END
> <clash_score>
0

> <docking_score>
-8.51042366027832

$$$$
BENZO_44_1
  -OEChem-08212019183D

 45 48  0     0  0  0  0  0  0999 V2000
    3.9160    2.0630   19.5520 C   0  0  0  0  0  0  0  0  0  0  0  0
    4.2750    1.7050   20.8490 C   0  0  0  0  0  0  0  0  0  0  0  0
    4.6890    1.6810   18.4640 C   0  0  0  0  0  0  0  0  0  0  0  0
    5.4210    0.9600   21.0930 C   0  0  0  0  0  0  0  0  0  0  0  0
    9.0720   -1.1280   24.8640 C   0  0  0  0  0  0  0  0  0  0  0  0
    9.7200   -2.2600   22.8630 C   0  0  0  0  0  0  0  0  0  0  0  0
    8.9960   -2.3380   25.5320 C   0  0  0  0  0  0  0  0  0  0  0  0
    9.6730   -3.4710   23.5300 C   0  0  0  0  0  0  0  0  0  0  0  0
   12.2913    1.4279   22.6355 C   0  0  0  0  0  0  0  0  0  0  0  0
   13.6024    1.4661   23.0564 C   0  0  0  0  0  0  0  0  0  0  0  0
   12.0284    1.3764   24.9443 C   0  0  0  0  0  0  0  0  0  0  0  0
    7.6390   -0.2680   18.5410 C   0  0  0  0  0  0  0  0  0  0  0  0
   11.3794    1.3761   23.7290 C   0  0  0  0  0  0  0  0  0  0  0  0
    5.8300    0.9190   18.6970 C   0  0  0  0  0  0  0  0  0  0  0  0
    6.1790    0.5730   19.9990 C   0  0  0  0  0  0  0  0  0  0  0  0
    9.3350   -1.0880   23.5010 C   0  0  0  0  0  0  0  0  0  0  0  0
    9.3070   -3.5340   24.8780 C   0  0  0  0  0  0  0  0  0  0  0  0
    9.0420    0.3700   21.5280 C   0  0  0  0  0  0  0  0  0  0  0  0
    8.8720   -4.6805   26.9013 C   0  0  0  0  0  0  0  0  0  0  0  0
    9.8870    1.3260   23.5730 C   0  0  0  0  0  0  0  0  0  0  0  0
    6.7580    0.3810   17.8350 N   0  0  0  0  0  0  0  0  0  0  0  0
    7.3170   -0.1610   19.8550 N   0  0  0  0  0  0  0  0  0  0  0  0
    8.1890   -0.7180   20.8700 N   0  0  0  0  0  0  0  0  0  0  0  0
    9.4560    0.1560   22.8130 N   0  0  0  0  0  0  0  0  0  0  0  0
    9.2690    1.4140   20.9380 O   0  0  0  0  0  0  0  0  0  0  0  0
    9.2555   -4.7124   25.5274 O   0  0  0  0  0  0  0  0  0  0  0  0
   13.7301    1.4394   24.7638 S   0  0  0  0  0  0  0  0  0  0  0  0
    3.0134    2.6521   19.3911 H   0  0  0  0  0  0  0  0  0  0  0  0
    3.6460    2.0127   21.6812 H   0  0  0  0  0  0  0  0  0  0  0  0
    4.4037    1.9731   17.4543 H   0  0  0  0  0  0  0  0  0  0  0  0
    5.7084    0.6923   22.1132 H   0  0  0  0  0  0  0  0  0  0  0  0
    8.9221   -0.1995   25.4231 H   0  0  0  0  0  0  0  0  0  0  0  0
   10.0642   -2.2347   21.8253 H   0  0  0  0  0  0  0  0  0  0  0  0
    8.6902   -2.3588   26.5805 H   0  0  0  0  0  0  0  0  0  0  0  0
    9.9254   -4.3921   22.9961 H   0  0  0  0  0  0  0  0  0  0  0  0
   12.0045    1.4365   21.5915 H   0  0  0  0  0  0  0  0  0  0  0  0
   14.4914    1.5078   22.4431 H   0  0  0  0  0  0  0  0  0  0  0  0
   11.5886    1.3416   25.9314 H   0  0  0  0  0  0  0  0  0  0  0  0
    8.4862   -0.8060   18.1787 H   0  0  0  0  0  0  0  0  0  0  0  0
    8.8711   -5.6964   27.3038 H   0  0  0  0  0  0  0  0  0  0  0  0
    7.8758   -4.2402   26.9923 H   0  0  0  0  0  0  0  0  0  0  0  0
    9.5894   -4.0716   27.4566 H   0  0  0  0  0  0  0  0  0  0  0  0
    9.3974    1.2912   24.5523 H   0  0  0  0  0  0  0  0  0  0  0  0
    9.5159    2.2168   23.0553 H   0  0  0  0  0  0  0  0  0  0  0  0
    8.2233   -1.5737   21.0809 H   0  0  0  0  0  0  0  0  0  0  0  0
  1  2  1  0  0  0  0
  1  3  2  0  0  0  0
  2  4  2  0  0  0  0
  3 14  1  0  0  0  0
  4 15  1  0  0  0  0
  5  7  2  0  0  0  0
  5 16  1  0  0  0  0
  6  8  1  0  0  0  0
  6 16  2  0  0  0  0
  7 17  1  0  0  0  0
  8 17  2  0  0  0  0
  9 10  2  0  0  0  0
  9 13  1  0  0  0  0
 10 27  1  0  0  0  0
 11 13  2  0  0  0  0
 11 27  1  0  0  0  0
 12 21  2  0  0  0  0
 12 22  1  0  0  0  0
 13 20  1  0  0  0  0
 14 15  2  0  0  0  0
 14 21  1  0  0  0  0
 15 22  1  0  0  0  0
 16 24  1  0  0  0  0
 17 26  1  0  0  0  0
 18 23  1  0  0  0  0
 18 24  1  0  0  0  0
 18 25  2  0  0  0  0
 19 26  1  0  0  0  0
 20 24  1  0  0  0  0
 22 23  1  0  0  0  0
  1 28  1  0  0  0  0
  2 29  1  0  0  0  0
  3 30  1  0  0  0  0
  4 31  1  0  0  0  0
  5 32  1  0  0  0  0
  6 33  1  0  0  0  0
  7 34  1  0  0  0  0
  8 35  1  0  0  0  0
  9 36  1  0  0  0  0
 10 37  1  0  0  0  0
 11 38  1  0  0  0  0
 12 39  1  0  0  0  0
 19 40  1  0  0  0  0
 19 41  1  0  0  0  0
 19 42  1  0  0  0  0
 20 43  1  0  0  0  0
 20 44  1  0  0  0  0
 23 45  1  0  0  0  0
M  END
> <clash_score>
0

> <docking_score>
-8.609444618225098

$$$$
BENZO_48_1
  -OEChem-08212019223D

 55 59  0     0  0  0  0  0  0999 V2000
    3.9160    2.0630   19.5520 C   0  0  0  0  0  0  0  0  0  0  0  0
    4.2750    1.7050   20.8490 C   0  0  0  0  0  0  0  0  0  0  0  0
    4.6890    1.6810   18.4640 C   0  0  0  0  0  0  0  0  0  0  0  0
    5.4210    0.9600   21.0930 C   0  0  0  0  0  0  0  0  0  0  0  0
    8.9960   -2.3380   25.5320 C   0  0  0  0  0  0  0  0  0  0  0  0
    9.6730   -3.4710   23.5300 C   0  0  0  0  0  0  0  0  0  0  0  0
    9.0720   -1.1280   24.8640 C   0  0  0  0  0  0  0  0  0  0  0  0
    9.7200   -2.2600   22.8630 C   0  0  0  0  0  0  0  0  0  0  0  0
   12.2913    1.4279   22.6355 C   0  0  0  0  0  0  0  0  0  0  0  0
   13.6024    1.4662   23.0564 C   0  0  0  0  0  0  0  0  0  0  0  0
   12.0284    1.3764   24.9443 C   0  0  0  0  0  0  0  0  0  0  0  0
    7.6390   -0.2680   18.5410 C   0  0  0  0  0  0  0  0  0  0  0  0
   11.3794    1.3761   23.7290 C   0  0  0  0  0  0  0  0  0  0  0  0
    5.8300    0.9190   18.6970 C   0  0  0  0  0  0  0  0  0  0  0  0
    6.1790    0.5730   19.9990 C   0  0  0  0  0  0  0  0  0  0  0  0
    9.3070   -3.5340   24.8780 C   0  0  0  0  0  0  0  0  0  0  0  0
    9.3350   -1.0880   23.5010 C   0  0  0  0  0  0  0  0  0  0  0  0
    8.3597   -5.0073   26.6307 C   0  0  0  0  0  0  0  0  0  0  0  0
    9.0420    0.3700   21.5280 C   0  0  0  0  0  0  0  0  0  0  0  0
    8.4720   -6.3981   27.2296 C   0  0  0  0  0  0  0  0  0  0  0  0
    9.9252   -6.7605   27.4803 C   0  0  0  0  0  0  0  0  0  0  0  0
   10.7833   -6.6094   26.2282 C   0  0  0  0  0  0  0  0  0  0  0  0
   10.0539   -5.9099   25.0823 C   0  0  0  0  0  0  0  0  0  0  0  0
    9.8870    1.3260   23.5730 C   0  0  0  0  0  0  0  0  0  0  0  0
    6.7580    0.3810   17.8350 N   0  0  0  0  0  0  0  0  0  0  0  0
    7.3170   -0.1610   19.8550 N   0  0  0  0  0  0  0  0  0  0  0  0
    9.2530   -4.7797   25.5644 N   0  0  0  0  0  0  0  0  0  0  0  0
    8.1890   -0.7180   20.8700 N   0  0  0  0  0  0  0  0  0  0  0  0
    9.4560    0.1560   22.8130 N   0  0  0  0  0  0  0  0  0  0  0  0
    7.4954   -4.2356   27.0450 O   0  0  0  0  0  0  0  0  0  0  0  0
    9.2690    1.4140   20.9380 O   0  0  0  0  0  0  0  0  0  0  0  0
   13.7301    1.4394   24.7638 S   0  0  0  0  0  0  0  0  0  0  0  0
    3.0134    2.6521   19.3911 H   0  0  0  0  0  0  0  0  0  0  0  0
    3.6460    2.0127   21.6812 H   0  0  0  0  0  0  0  0  0  0  0  0
    4.4037    1.9731   17.4543 H   0  0  0  0  0  0  0  0  0  0  0  0
    5.7084    0.6923   22.1132 H   0  0  0  0  0  0  0  0  0  0  0  0
    8.6895   -2.3529   26.5807 H   0  0  0  0  0  0  0  0  0  0  0  0
    9.9262   -4.3897   22.9916 H   0  0  0  0  0  0  0  0  0  0  0  0
    8.9224   -0.1998   25.4238 H   0  0  0  0  0  0  0  0  0  0  0  0
   10.0649   -2.2343   21.8258 H   0  0  0  0  0  0  0  0  0  0  0  0
   12.0045    1.4365   21.5915 H   0  0  0  0  0  0  0  0  0  0  0  0
   14.4914    1.5078   22.4431 H   0  0  0  0  0  0  0  0  0  0  0  0
   11.5886    1.3416   25.9314 H   0  0  0  0  0  0  0  0  0  0  0  0
    8.4862   -0.8060   18.1787 H   0  0  0  0  0  0  0  0  0  0  0  0
    7.9325   -6.4148   28.1641 H   0  0  0  0  0  0  0  0  0  0  0  0
    8.0254   -7.0920   26.5333 H   0  0  0  0  0  0  0  0  0  0  0  0
   10.3387   -6.1267   28.2923 H   0  0  0  0  0  0  0  0  0  0  0  0
    9.9904   -7.8023   27.8537 H   0  0  0  0  0  0  0  0  0  0  0  0
   11.7037   -6.0404   26.4771 H   0  0  0  0  0  0  0  0  0  0  0  0
   11.1411   -7.6068   25.8918 H   0  0  0  0  0  0  0  0  0  0  0  0
   10.7782   -5.5162   24.3756 H   0  0  0  0  0  0  0  0  0  0  0  0
    9.4042   -6.6189   24.5807 H   0  0  0  0  0  0  0  0  0  0  0  0
    9.3974    1.2912   24.5523 H   0  0  0  0  0  0  0  0  0  0  0  0
    9.5159    2.2168   23.0553 H   0  0  0  0  0  0  0  0  0  0  0  0
    8.2565   -1.5523   21.1108 H   0  0  0  0  0  0  0  0  0  0  0  0
  1  2  1  0  0  0  0
  1  3  2  0  0  0  0
  2  4  2  0  0  0  0
  3 14  1  0  0  0  0
  4 15  1  0  0  0  0
  5  7  2  0  0  0  0
  5 16  1  0  0  0  0
  6  8  1  0  0  0  0
  6 16  2  0  0  0  0
  7 17  1  0  0  0  0
  8 17  2  0  0  0  0
  9 10  2  0  0  0  0
  9 13  1  0  0  0  0
 10 32  1  0  0  0  0
 11 13  2  0  0  0  0
 11 32  1  0  0  0  0
 12 25  2  0  0  0  0
 12 26  1  0  0  0  0
 13 24  1  0  0  0  0
 14 15  2  0  0  0  0
 14 25  1  0  0  0  0
 15 26  1  0  0  0  0
 16 27  1  0  0  0  0
 17 29  1  0  0  0  0
 18 20  1  0  0  0  0
 18 27  1  0  0  0  0
 18 30  2  0  0  0  0
 19 28  1  0  0  0  0
 19 29  1  0  0  0  0
 19 31  2  0  0  0  0
 20 21  1  0  0  0  0
 21 22  1  0  0  0  0
 22 23  1  0  0  0  0
 23 27  1  0  0  0  0
 24 29  1  0  0  0  0
 26 28  1  0  0  0  0
  1 33  1  0  0  0  0
  2 34  1  0  0  0  0
  3 35  1  0  0  0  0
  4 36  1  0  0  0  0
  5 37  1  0  0  0  0
  6 38  1  0  0  0  0
  7 39  1  0  0  0  0
  8 40  1  0  0  0  0
  9 41  1  0  0  0  0
 10 42  1  0  0  0  0
 11 43  1  0  0  0  0
 12 44  1  0  0  0  0
 20 45  1  0  0  0  0
 20 46  1  0  0  0  0
 21 47  1  0  0  0  0
 21 48  1  0  0  0  0
 22 49  1  0  0  0  0
 22 50  1  0  0  0  0
 23 51  1  0  0  0  0
 23 52  1  0  0  0  0
 24 53  1  0  0  0  0
 24 54  1  0  0  0  0
 28 55  1  0  0  0  0
M  END
> <clash_score>
0.7790763812073098

> <docking_score>
-7.96907901763916

$$$$
BENZO_53_1
  -OEChem-08212019223D

 57 61  0     0  0  0  0  0  0999 V2000
   14.1526    1.4694   24.0176 C   0  0  0  0  0  0  0  0  0  0  0  0
   13.3741    0.8121   24.9701 C   0  0  0  0  0  0  0  0  0  0  0  0
   13.5446    2.0802   22.9208 C   0  0  0  0  0  0  0  0  0  0  0  0
    3.9160    2.0630   19.5520 C   0  0  0  0  0  0  0  0  0  0  0  0
    4.2750    1.7050   20.8490 C   0  0  0  0  0  0  0  0  0  0  0  0
   11.9875    0.7654   24.8258 C   0  0  0  0  0  0  0  0  0  0  0  0
   12.1580    2.0335   22.7765 C   0  0  0  0  0  0  0  0  0  0  0  0
    4.6890    1.6810   18.4640 C   0  0  0  0  0  0  0  0  0  0  0  0
    5.4210    0.9600   21.0930 C   0  0  0  0  0  0  0  0  0  0  0  0
    8.9960   -2.3380   25.5320 C   0  0  0  0  0  0  0  0  0  0  0  0
    9.6730   -3.4710   23.5300 C   0  0  0  0  0  0  0  0  0  0  0  0
    9.0720   -1.1280   24.8640 C   0  0  0  0  0  0  0  0  0  0  0  0
    9.7200   -2.2600   22.8630 C   0  0  0  0  0  0  0  0  0  0  0  0
    7.6390   -0.2680   18.5410 C   0  0  0  0  0  0  0  0  0  0  0  0
   11.3794    1.3761   23.7290 C   0  0  0  0  0  0  0  0  0  0  0  0
    5.8300    0.9190   18.6970 C   0  0  0  0  0  0  0  0  0  0  0  0
    6.1790    0.5730   19.9990 C   0  0  0  0  0  0  0  0  0  0  0  0
    9.3070   -3.5340   24.8780 C   0  0  0  0  0  0  0  0  0  0  0  0
    9.3350   -1.0880   23.5010 C   0  0  0  0  0  0  0  0  0  0  0  0
    9.0420    0.3700   21.5280 C   0  0  0  0  0  0  0  0  0  0  0  0
   10.0771   -5.0255   26.7193 C   0  0  0  0  0  0  0  0  0  0  0  0
    8.0926   -5.6195   25.4071 C   0  0  0  0  0  0  0  0  0  0  0  0
    9.1933   -4.9427   27.9592 C   0  0  0  0  0  0  0  0  0  0  0  0
    7.2756   -5.5290   26.6967 C   0  0  0  0  0  0  0  0  0  0  0  0
    9.8870    1.3260   23.5730 C   0  0  0  0  0  0  0  0  0  0  0  0
    6.7580    0.3810   17.8350 N   0  0  0  0  0  0  0  0  0  0  0  0
    7.3170   -0.1610   19.8550 N   0  0  0  0  0  0  0  0  0  0  0  0
    9.2563   -4.7368   25.5413 N   0  0  0  0  0  0  0  0  0  0  0  0
    8.1890   -0.7180   20.8700 N   0  0  0  0  0  0  0  0  0  0  0  0
    9.4560    0.1560   22.8130 N   0  0  0  0  0  0  0  0  0  0  0  0
    9.2690    1.4140   20.9380 O   0  0  0  0  0  0  0  0  0  0  0  0
    8.0883   -5.8459   27.8325 O   0  0  0  0  0  0  0  0  0  0  0  0
   15.2322    1.5068   24.1308 H   0  0  0  0  0  0  0  0  0  0  0  0
   13.8473    0.3374   25.8248 H   0  0  0  0  0  0  0  0  0  0  0  0
   14.1503    2.5930   22.1795 H   0  0  0  0  0  0  0  0  0  0  0  0
    3.0134    2.6521   19.3911 H   0  0  0  0  0  0  0  0  0  0  0  0
    3.6460    2.0127   21.6812 H   0  0  0  0  0  0  0  0  0  0  0  0
   11.3889    0.2508   25.5729 H   0  0  0  0  0  0  0  0  0  0  0  0
   11.6930    2.5120   21.9187 H   0  0  0  0  0  0  0  0  0  0  0  0
    4.4037    1.9731   17.4543 H   0  0  0  0  0  0  0  0  0  0  0  0
    5.7084    0.6923   22.1132 H   0  0  0  0  0  0  0  0  0  0  0  0
    8.6905   -2.3533   26.5810 H   0  0  0  0  0  0  0  0  0  0  0  0
    9.9266   -4.3896   22.9917 H   0  0  0  0  0  0  0  0  0  0  0  0
    8.9233   -0.1992   25.4232 H   0  0  0  0  0  0  0  0  0  0  0  0
   10.0650   -2.2330   21.8256 H   0  0  0  0  0  0  0  0  0  0  0  0
    8.4862   -0.8060   18.1787 H   0  0  0  0  0  0  0  0  0  0  0  0
   10.8985   -4.3115   26.8085 H   0  0  0  0  0  0  0  0  0  0  0  0
   10.4915   -6.0334   26.6323 H   0  0  0  0  0  0  0  0  0  0  0  0
    8.4327   -6.6456   25.2620 H   0  0  0  0  0  0  0  0  0  0  0  0
    7.4725   -5.3241   24.5619 H   0  0  0  0  0  0  0  0  0  0  0  0
    9.7636   -5.2398   28.8419 H   0  0  0  0  0  0  0  0  0  0  0  0
    8.8236   -3.9268   28.1248 H   0  0  0  0  0  0  0  0  0  0  0  0
    6.8339   -4.5337   26.8232 H   0  0  0  0  0  0  0  0  0  0  0  0
    6.4550   -6.2521   26.6643 H   0  0  0  0  0  0  0  0  0  0  0  0
    9.3974    1.2912   24.5523 H   0  0  0  0  0  0  0  0  0  0  0  0
    9.5159    2.2168   23.0554 H   0  0  0  0  0  0  0  0  0  0  0  0
    8.2565   -1.5523   21.1108 H   0  0  0  0  0  0  0  0  0  0  0  0
  1  2  1  0  0  0  0
  1  3  2  0  0  0  0
  2  6  2  0  0  0  0
  3  7  1  0  0  0  0
  4  5  1  0  0  0  0
  4  8  2  0  0  0  0
  5  9  2  0  0  0  0
  6 15  1  0  0  0  0
  7 15  2  0  0  0  0
  8 16  1  0  0  0  0
  9 17  1  0  0  0  0
 10 12  2  0  0  0  0
 10 18  1  0  0  0  0
 11 13  1  0  0  0  0
 11 18  2  0  0  0  0
 12 19  1  0  0  0  0
 13 19  2  0  0  0  0
 14 26  2  0  0  0  0
 14 27  1  0  0  0  0
 15 25  1  0  0  0  0
 16 17  2  0  0  0  0
 16 26  1  0  0  0  0
 17 27  1  0  0  0  0
 18 28  1  0  0  0  0
 19 30  1  0  0  0  0
 20 29  1  0  0  0  0
 20 30  1  0  0  0  0
 20 31  2  0  0  0  0
 21 23  1  0  0  0  0
 21 28  1  0  0  0  0
 22 24  1  0  0  0  0
 22 28  1  0  0  0  0
 23 32  1  0  0  0  0
 24 32  1  0  0  0  0
 25 30  1  0  0  0  0
 27 29  1  0  0  0  0
  1 33  1  0  0  0  0
  2 34  1  0  0  0  0
  3 35  1  0  0  0  0
  4 36  1  0  0  0  0
  5 37  1  0  0  0  0
  6 38  1  0  0  0  0
  7 39  1  0  0  0  0
  8 40  1  0  0  0  0
  9 41  1  0  0  0  0
 10 42  1  0  0  0  0
 11 43  1  0  0  0  0
 12 44  1  0  0  0  0
 13 45  1  0  0  0  0
 14 46  1  0  0  0  0
 21 47  1  0  0  0  0
 21 48  1  0  0  0  0
 22 49  1  0  0  0  0
 22 50  1  0  0  0  0
 23 51  1  0  0  0  0
 23 52  1  0  0  0  0
 24 53  1  0  0  0  0
 24 54  1  0  0  0  0
 25 55  1  0  0  0  0
 25 56  1  0  0  0  0
 29 57  1  0  0  0  0
M  END
> <clash_score>
0

> <docking_score>
-8.871355056762695

$$$$
BENZO_50_1
  -OEChem-08212019223D

 58 62  0     0  0  0  0  0  0999 V2000
    3.9160    2.0630   19.5520 C   0  0  0  0  0  0  0  0  0  0  0  0
    4.2750    1.7050   20.8490 C   0  0  0  0  0  0  0  0  0  0  0  0
    6.4089    2.0844   24.8766 C   0  0  0  0  0  0  0  0  0  0  0  0
    7.4847    1.4191   24.2887 C   0  0  0  0  0  0  0  0  0  0  0  0
    4.6890    1.6810   18.4640 C   0  0  0  0  0  0  0  0  0  0  0  0
    5.4210    0.9600   21.0930 C   0  0  0  0  0  0  0  0  0  0  0  0
    8.9960   -2.3380   25.5320 C   0  0  0  0  0  0  0  0  0  0  0  0
    9.6730   -3.4710   23.5300 C   0  0  0  0  0  0  0  0  0  0  0  0
    9.0720   -1.1280   24.8640 C   0  0  0  0  0  0  0  0  0  0  0  0
    9.7200   -2.2600   22.8630 C   0  0  0  0  0  0  0  0  0  0  0  0
    6.5777    3.3741   25.3805 C   0  0  0  0  0  0  0  0  0  0  0  0
    8.8980    3.3330   24.7088 C   0  0  0  0  0  0  0  0  0  0  0  0
    7.6390   -0.2680   18.5410 C   0  0  0  0  0  0  0  0  0  0  0  0
    8.7292    2.0433   24.2048 C   0  0  0  0  0  0  0  0  0  0  0  0
    5.8300    0.9190   18.6970 C   0  0  0  0  0  0  0  0  0  0  0  0
    6.1790    0.5730   19.9990 C   0  0  0  0  0  0  0  0  0  0  0  0
    9.3070   -3.5340   24.8780 C   0  0  0  0  0  0  0  0  0  0  0  0
    9.3350   -1.0880   23.5010 C   0  0  0  0  0  0  0  0  0  0  0  0
    7.8222    3.9984   25.2966 C   0  0  0  0  0  0  0  0  0  0  0  0
    8.3597   -5.0073   26.6307 C   0  0  0  0  0  0  0  0  0  0  0  0
    9.0420    0.3700   21.5280 C   0  0  0  0  0  0  0  0  0  0  0  0
    8.4720   -6.3981   27.2296 C   0  0  0  0  0  0  0  0  0  0  0  0
    9.9252   -6.7605   27.4803 C   0  0  0  0  0  0  0  0  0  0  0  0
   10.7833   -6.6094   26.2282 C   0  0  0  0  0  0  0  0  0  0  0  0
   10.0539   -5.9099   25.0823 C   0  0  0  0  0  0  0  0  0  0  0  0
    9.8870    1.3260   23.5730 C   0  0  0  0  0  0  0  0  0  0  0  0
    6.7580    0.3810   17.8350 N   0  0  0  0  0  0  0  0  0  0  0  0
    7.3170   -0.1610   19.8550 N   0  0  0  0  0  0  0  0  0  0  0  0
    9.2530   -4.7797   25.5644 N   0  0  0  0  0  0  0  0  0  0  0  0
    8.1890   -0.7180   20.8700 N   0  0  0  0  0  0  0  0  0  0  0  0
    9.4560    0.1560   22.8130 N   0  0  0  0  0  0  0  0  0  0  0  0
    7.4954   -4.2356   27.0450 O   0  0  0  0  0  0  0  0  0  0  0  0
    9.2690    1.4140   20.9380 O   0  0  0  0  0  0  0  0  0  0  0  0
    8.0301    5.5891   25.9196 Cl  0  0  0  0  0  0  0  0  0  0  0  0
    3.0134    2.6521   19.3911 H   0  0  0  0  0  0  0  0  0  0  0  0
    3.6460    2.0127   21.6812 H   0  0  0  0  0  0  0  0  0  0  0  0
    5.4400    1.5979   24.9418 H   0  0  0  0  0  0  0  0  0  0  0  0
    7.3441    0.4143   23.8988 H   0  0  0  0  0  0  0  0  0  0  0  0
    4.4037    1.9731   17.4543 H   0  0  0  0  0  0  0  0  0  0  0  0
    5.7084    0.6923   22.1132 H   0  0  0  0  0  0  0  0  0  0  0  0
    8.6895   -2.3529   26.5807 H   0  0  0  0  0  0  0  0  0  0  0  0
    9.9262   -4.3897   22.9916 H   0  0  0  0  0  0  0  0  0  0  0  0
    8.9224   -0.1998   25.4238 H   0  0  0  0  0  0  0  0  0  0  0  0
   10.0649   -2.2343   21.8258 H   0  0  0  0  0  0  0  0  0  0  0  0
    5.7304    3.8806   25.8363 H   0  0  0  0  0  0  0  0  0  0  0  0
    9.8703    3.8156   24.6405 H   0  0  0  0  0  0  0  0  0  0  0  0
    8.4862   -0.8060   18.1787 H   0  0  0  0  0  0  0  0  0  0  0  0
    7.9325   -6.4148   28.1641 H   0  0  0  0  0  0  0  0  0  0  0  0
    8.0254   -7.0920   26.5333 H   0  0  0  0  0  0  0  0  0  0  0  0
   10.3387   -6.1267   28.2923 H   0  0  0  0  0  0  0  0  0  0  0  0
    9.9904   -7.8023   27.8537 H   0  0  0  0  0  0  0  0  0  0  0  0
   11.7037   -6.0404   26.4771 H   0  0  0  0  0  0  0  0  0  0  0  0
   11.1411   -7.6068   25.8918 H   0  0  0  0  0  0  0  0  0  0  0  0
   10.7782   -5.5162   24.3756 H   0  0  0  0  0  0  0  0  0  0  0  0
    9.4042   -6.6189   24.5807 H   0  0  0  0  0  0  0  0  0  0  0  0
   10.4274    1.9911   22.8906 H   0  0  0  0  0  0  0  0  0  0  0  0
   10.6011    0.9882   24.3313 H   0  0  0  0  0  0  0  0  0  0  0  0
    8.2565   -1.5523   21.1108 H   0  0  0  0  0  0  0  0  0  0  0  0
  1  2  1  0  0  0  0
  1  5  2  0  0  0  0
  2  6  2  0  0  0  0
  3  4  2  0  0  0  0
  3 11  1  0  0  0  0
  4 14  1  0  0  0  0
  5 15  1  0  0  0  0
  6 16  1  0  0  0  0
  7  9  2  0  0  0  0
  7 17  1  0  0  0  0
  8 10  1  0  0  0  0
  8 17  2  0  0  0  0
  9 18  1  0  0  0  0
 10 18  2  0  0  0  0
 11 19  2  0  0  0  0
 12 14  2  0  0  0  0
 12 19  1  0  0  0  0
 13 27  2  0  0  0  0
 13 28  1  0  0  0  0
 14 26  1  0  0  0  0
 15 16  2  0  0  0  0
 15 27  1  0  0  0  0
 16 28  1  0  0  0  0
 17 29  1  0  0  0  0
 18 31  1  0  0  0  0
 19 34  1  0  0  0  0
 20 22  1  0  0  0  0
 20 29  1  0  0  0  0
 20 32  2  0  0  0  0
 21 30  1  0  0  0  0
 21 31  1  0  0  0  0
 21 33  2  0  0  0  0
 22 23  1  0  0  0  0
 23 24  1  0  0  0  0
 24 25  1  0  0  0  0
 25 29  1  0  0  0  0
 26 31  1  0  0  0  0
 28 30  1  0  0  0  0
  1 35  1  0  0  0  0
  2 36  1  0  0  0  0
  3 37  1  0  0  0  0
  4 38  1  0  0  0  0
  5 39  1  0  0  0  0
  6 40  1  0  0  0  0
  7 41  1  0  0  0  0
  8 42  1  0  0  0  0
  9 43  1  0  0  0  0
 10 44  1  0  0  0  0
 11 45  1  0  0  0  0
 12 46  1  0  0  0  0
 13 47  1  0  0  0  0
 22 48  1  0  0  0  0
 22 49  1  0  0  0  0
 23 50  1  0  0  0  0
 23 51  1  0  0  0  0
 24 52  1  0  0  0  0
 24 53  1  0  0  0  0
 25 54  1  0  0  0  0
 25 55  1  0  0  0  0
 26 56  1  0  0  0  0
 26 57  1  0  0  0  0
 30 58  1  0  0  0  0
M  END
> <clash_score>
0.7790763812073098

> <docking_score>
-7.276236057281494

$$$$
BENZO_51_1
  -OEChem-08212019223D

 58 62  0     0  0  0  0  0  0999 V2000
    3.9160    2.0630   19.5520 C   0  0  0  0  0  0  0  0  0  0  0  0
    4.2750    1.7050   20.8490 C   0  0  0  0  0  0  0  0  0  0  0  0
    4.6890    1.6810   18.4640 C   0  0  0  0  0  0  0  0  0  0  0  0
    5.4210    0.9600   21.0930 C   0  0  0  0  0  0  0  0  0  0  0  0
    8.9960   -2.3380   25.5320 C   0  0  0  0  0  0  0  0  0  0  0  0
    9.6730   -3.4710   23.5300 C   0  0  0  0  0  0  0  0  0  0  0  0
    9.0720   -1.1280   24.8640 C   0  0  0  0  0  0  0  0  0  0  0  0
    9.7200   -2.2600   22.8630 C   0  0  0  0  0  0  0  0  0  0  0  0
   12.1233    1.3811   24.9242 C   0  0  0  0  0  0  0  0  0  0  0  0
   12.3262    1.4247   22.7351 C   0  0  0  0  0  0  0  0  0  0  0  0
    7.6390   -0.2680   18.5410 C   0  0  0  0  0  0  0  0  0  0  0  0
   11.3794    1.3761   23.7290 C   0  0  0  0  0  0  0  0  0  0  0  0
    5.8300    0.9190   18.6970 C   0  0  0  0  0  0  0  0  0  0  0  0
    6.1790    0.5730   19.9990 C   0  0  0  0  0  0  0  0  0  0  0  0
    9.3070   -3.5340   24.8780 C   0  0  0  0  0  0  0  0  0  0  0  0
    9.3350   -1.0880   23.5010 C   0  0  0  0  0  0  0  0  0  0  0  0
    8.3597   -5.0073   26.6307 C   0  0  0  0  0  0  0  0  0  0  0  0
    9.0420    0.3700   21.5280 C   0  0  0  0  0  0  0  0  0  0  0  0
    8.4720   -6.3981   27.2296 C   0  0  0  0  0  0  0  0  0  0  0  0
    9.9252   -6.7605   27.4803 C   0  0  0  0  0  0  0  0  0  0  0  0
   10.7833   -6.6094   26.2282 C   0  0  0  0  0  0  0  0  0  0  0  0
   10.0539   -5.9099   25.0823 C   0  0  0  0  0  0  0  0  0  0  0  0
   14.8305    1.5084   22.7418 C   0  0  0  0  0  0  0  0  0  0  0  0
    9.8870    1.3260   23.5730 C   0  0  0  0  0  0  0  0  0  0  0  0
   13.4410    1.4289   24.7112 N   0  0  0  0  0  0  0  0  0  0  0  0
    6.7580    0.3810   17.8350 N   0  0  0  0  0  0  0  0  0  0  0  0
   13.5326    1.4543   23.3707 N   0  0  0  0  0  0  0  0  0  0  0  0
    7.3170   -0.1610   19.8550 N   0  0  0  0  0  0  0  0  0  0  0  0
    9.2530   -4.7797   25.5644 N   0  0  0  0  0  0  0  0  0  0  0  0
    8.1890   -0.7180   20.8700 N   0  0  0  0  0  0  0  0  0  0  0  0
    9.4560    0.1560   22.8130 N   0  0  0  0  0  0  0  0  0  0  0  0
    7.4954   -4.2356   27.0450 O   0  0  0  0  0  0  0  0  0  0  0  0
    9.2690    1.4140   20.9380 O   0  0  0  0  0  0  0  0  0  0  0  0
    3.0134    2.6521   19.3911 H   0  0  0  0  0  0  0  0  0  0  0  0
    3.6460    2.0127   21.6812 H   0  0  0  0  0  0  0  0  0  0  0  0
    4.4037    1.9731   17.4543 H   0  0  0  0  0  0  0  0  0  0  0  0
    5.7084    0.6923   22.1132 H   0  0  0  0  0  0  0  0  0  0  0  0
    8.6895   -2.3529   26.5807 H   0  0  0  0  0  0  0  0  0  0  0  0
    9.9262   -4.3897   22.9916 H   0  0  0  0  0  0  0  0  0  0  0  0
    8.9224   -0.1998   25.4238 H   0  0  0  0  0  0  0  0  0  0  0  0
   10.0649   -2.2343   21.8258 H   0  0  0  0  0  0  0  0  0  0  0  0
   11.7624    1.3510   25.9426 H   0  0  0  0  0  0  0  0  0  0  0  0
   12.2462    1.4390   21.6566 H   0  0  0  0  0  0  0  0  0  0  0  0
    8.4862   -0.8060   18.1787 H   0  0  0  0  0  0  0  0  0  0  0  0
    7.9325   -6.4148   28.1641 H   0  0  0  0  0  0  0  0  0  0  0  0
    8.0254   -7.0920   26.5333 H   0  0  0  0  0  0  0  0  0  0  0  0
   10.3387   -6.1267   28.2923 H   0  0  0  0  0  0  0  0  0  0  0  0
    9.9904   -7.8023   27.8537 H   0  0  0  0  0  0  0  0  0  0  0  0
   11.7037   -6.0404   26.4771 H   0  0  0  0  0  0  0  0  0  0  0  0
   11.1411   -7.6068   25.8918 H   0  0  0  0  0  0  0  0  0  0  0  0
   10.7782   -5.5162   24.3756 H   0  0  0  0  0  0  0  0  0  0  0  0
    9.4042   -6.6189   24.5807 H   0  0  0  0  0  0  0  0  0  0  0  0
   15.0990    2.5601   22.6124 H   0  0  0  0  0  0  0  0  0  0  0  0
   15.5636    1.0018   23.3756 H   0  0  0  0  0  0  0  0  0  0  0  0
   14.7841    1.0025   21.7733 H   0  0  0  0  0  0  0  0  0  0  0  0
    9.3974    1.2912   24.5523 H   0  0  0  0  0  0  0  0  0  0  0  0
    9.5159    2.2168   23.0553 H   0  0  0  0  0  0  0  0  0  0  0  0
    8.2565   -1.5523   21.1108 H   0  0  0  0  0  0  0  0  0  0  0  0
  1  2  1  0  0  0  0
  1  3  2  0  0  0  0
  2  4  2  0  0  0  0
  3 13  1  0  0  0  0
  4 14  1  0  0  0  0
  5  7  2  0  0  0  0
  5 15  1  0  0  0  0
  6  8  1  0  0  0  0
  6 15  2  0  0  0  0
  7 16  1  0  0  0  0
  8 16  2  0  0  0  0
  9 12  1  0  0  0  0
  9 25  2  0  0  0  0
 10 12  2  0  0  0  0
 10 27  1  0  0  0  0
 11 26  2  0  0  0  0
 11 28  1  0  0  0  0
 12 24  1  0  0  0  0
 13 14  2  0  0  0  0
 13 26  1  0  0  0  0
 14 28  1  0  0  0  0
 15 29  1  0  0  0  0
 16 31  1  0  0  0  0
 17 19  1  0  0  0  0
 17 29  1  0  0  0  0
 17 32  2  0  0  0  0
 18 30  1  0  0  0  0
 18 31  1  0  0  0  0
 18 33  2  0  0  0  0
 19 20  1  0  0  0  0
 20 21  1  0  0  0  0
 21 22  1  0  0  0  0
 22 29  1  0  0  0  0
 23 27  1  0  0  0  0
 24 31  1  0  0  0  0
 25 27  1  0  0  0  0
 28 30  1  0  0  0  0
  1 34  1  0  0  0  0
  2 35  1  0  0  0  0
  3 36  1  0  0  0  0
  4 37  1  0  0  0  0
  5 38  1  0  0  0  0
  6 39  1  0  0  0  0
  7 40  1  0  0  0  0
  8 41  1  0  0  0  0
  9 42  1  0  0  0  0
 10 43  1  0  0  0  0
 11 44  1  0  0  0  0
 19 45  1  0  0  0  0
 19 46  1  0  0  0  0
 20 47  1  0  0  0  0
 20 48  1  0  0  0  0
 21 49  1  0  0  0  0
 21 50  1  0  0  0  0
 22 51  1  0  0  0  0
 22 52  1  0  0  0  0
 23 53  1  0  0  0  0
 23 54  1  0  0  0  0
 23 55  1  0  0  0  0
 24 56  1  0  0  0  0
 24 57  1  0  0  0  0
 30 58  1  0  0  0  0
M  END
> <clash_score>
0.7790763812073098

> <docking_score>
-7.606344699859619

$$$$
BENZO_49_1
  -OEChem-08212019223D

 58 62  0     0  0  0  0  0  0999 V2000
   14.1526    1.4694   24.0176 C   0  0  0  0  0  0  0  0  0  0  0  0
   13.3741    0.8121   24.9701 C   0  0  0  0  0  0  0  0  0  0  0  0
   13.5446    2.0802   22.9208 C   0  0  0  0  0  0  0  0  0  0  0  0
    3.9160    2.0630   19.5520 C   0  0  0  0  0  0  0  0  0  0  0  0
    4.2750    1.7050   20.8490 C   0  0  0  0  0  0  0  0  0  0  0  0
   11.9875    0.7654   24.8259 C   0  0  0  0  0  0  0  0  0  0  0  0
   12.1580    2.0335   22.7765 C   0  0  0  0  0  0  0  0  0  0  0  0
    4.6890    1.6810   18.4640 C   0  0  0  0  0  0  0  0  0  0  0  0
    5.4210    0.9600   21.0930 C   0  0  0  0  0  0  0  0  0  0  0  0
    8.9960   -2.3380   25.5320 C   0  0  0  0  0  0  0  0  0  0  0  0
    9.6730   -3.4710   23.5300 C   0  0  0  0  0  0  0  0  0  0  0  0
    9.0720   -1.1280   24.8640 C   0  0  0  0  0  0  0  0  0  0  0  0
    9.7200   -2.2600   22.8630 C   0  0  0  0  0  0  0  0  0  0  0  0
    7.6390   -0.2680   18.5410 C   0  0  0  0  0  0  0  0  0  0  0  0
   11.3794    1.3761   23.7290 C   0  0  0  0  0  0  0  0  0  0  0  0
    5.8300    0.9190   18.6970 C   0  0  0  0  0  0  0  0  0  0  0  0
    6.1790    0.5730   19.9990 C   0  0  0  0  0  0  0  0  0  0  0  0
    9.3070   -3.5340   24.8780 C   0  0  0  0  0  0  0  0  0  0  0  0
    9.3350   -1.0880   23.5010 C   0  0  0  0  0  0  0  0  0  0  0  0
    8.3597   -5.0073   26.6307 C   0  0  0  0  0  0  0  0  0  0  0  0
    9.0420    0.3700   21.5280 C   0  0  0  0  0  0  0  0  0  0  0  0
    8.4720   -6.3981   27.2296 C   0  0  0  0  0  0  0  0  0  0  0  0
    9.9252   -6.7605   27.4803 C   0  0  0  0  0  0  0  0  0  0  0  0
   10.7833   -6.6094   26.2282 C   0  0  0  0  0  0  0  0  0  0  0  0
   10.0539   -5.9099   25.0823 C   0  0  0  0  0  0  0  0  0  0  0  0
    9.8870    1.3260   23.5730 C   0  0  0  0  0  0  0  0  0  0  0  0
    6.7580    0.3810   17.8350 N   0  0  0  0  0  0  0  0  0  0  0  0
    7.3170   -0.1610   19.8550 N   0  0  0  0  0  0  0  0  0  0  0  0
    9.2530   -4.7797   25.5644 N   0  0  0  0  0  0  0  0  0  0  0  0
    8.1890   -0.7180   20.8700 N   0  0  0  0  0  0  0  0  0  0  0  0
    9.4560    0.1560   22.8130 N   0  0  0  0  0  0  0  0  0  0  0  0
    7.4954   -4.2356   27.0450 O   0  0  0  0  0  0  0  0  0  0  0  0
    9.2690    1.4140   20.9380 O   0  0  0  0  0  0  0  0  0  0  0  0
   15.2322    1.5068   24.1308 H   0  0  0  0  0  0  0  0  0  0  0  0
   13.8473    0.3374   25.8248 H   0  0  0  0  0  0  0  0  0  0  0  0
   14.1503    2.5930   22.1795 H   0  0  0  0  0  0  0  0  0  0  0  0
    3.0134    2.6521   19.3911 H   0  0  0  0  0  0  0  0  0  0  0  0
    3.6460    2.0127   21.6812 H   0  0  0  0  0  0  0  0  0  0  0  0
   11.3889    0.2508   25.5729 H   0  0  0  0  0  0  0  0  0  0  0  0
   11.6930    2.5120   21.9187 H   0  0  0  0  0  0  0  0  0  0  0  0
    4.4037    1.9731   17.4543 H   0  0  0  0  0  0  0  0  0  0  0  0
    5.7084    0.6923   22.1132 H   0  0  0  0  0  0  0  0  0  0  0  0
    8.6895   -2.3529   26.5807 H   0  0  0  0  0  0  0  0  0  0  0  0
    9.9262   -4.3897   22.9916 H   0  0  0  0  0  0  0  0  0  0  0  0
    8.9224   -0.1998   25.4238 H   0  0  0  0  0  0  0  0  0  0  0  0
   10.0649   -2.2343   21.8258 H   0  0  0  0  0  0  0  0  0  0  0  0
    8.4862   -0.8060   18.1787 H   0  0  0  0  0  0  0  0  0  0  0  0
    7.9325   -6.4148   28.1641 H   0  0  0  0  0  0  0  0  0  0  0  0
    8.0254   -7.0920   26.5333 H   0  0  0  0  0  0  0  0  0  0  0  0
   10.3387   -6.1267   28.2923 H   0  0  0  0  0  0  0  0  0  0  0  0
    9.9904   -7.8023   27.8537 H   0  0  0  0  0  0  0  0  0  0  0  0
   11.7037   -6.0404   26.4771 H   0  0  0  0  0  0  0  0  0  0  0  0
   11.1411   -7.6068   25.8918 H   0  0  0  0  0  0  0  0  0  0  0  0
   10.7782   -5.5162   24.3756 H   0  0  0  0  0  0  0  0  0  0  0  0
    9.4042   -6.6189   24.5807 H   0  0  0  0  0  0  0  0  0  0  0  0
    9.3974    1.2912   24.5523 H   0  0  0  0  0  0  0  0  0  0  0  0
    9.5159    2.2168   23.0553 H   0  0  0  0  0  0  0  0  0  0  0  0
    8.2565   -1.5523   21.1108 H   0  0  0  0  0  0  0  0  0  0  0  0
  1  2  1  0  0  0  0
  1  3  2  0  0  0  0
  2  6  2  0  0  0  0
  3  7  1  0  0  0  0
  4  5  1  0  0  0  0
  4  8  2  0  0  0  0
  5  9  2  0  0  0  0
  6 15  1  0  0  0  0
  7 15  2  0  0  0  0
  8 16  1  0  0  0  0
  9 17  1  0  0  0  0
 10 12  2  0  0  0  0
 10 18  1  0  0  0  0
 11 13  1  0  0  0  0
 11 18  2  0  0  0  0
 12 19  1  0  0  0  0
 13 19  2  0  0  0  0
 14 27  2  0  0  0  0
 14 28  1  0  0  0  0
 15 26  1  0  0  0  0
 16 17  2  0  0  0  0
 16 27  1  0  0  0  0
 17 28  1  0  0  0  0
 18 29  1  0  0  0  0
 19 31  1  0  0  0  0
 20 22  1  0  0  0  0
 20 29  1  0  0  0  0
 20 32  2  0  0  0  0
 21 30  1  0  0  0  0
 21 31  1  0  0  0  0
 21 33  2  0  0  0  0
 22 23  1  0  0  0  0
 23 24  1  0  0  0  0
 24 25  1  0  0  0  0
 25 29  1  0  0  0  0
 26 31  1  0  0  0  0
 28 30  1  0  0  0  0
  1 34  1  0  0  0  0
  2 35  1  0  0  0  0
  3 36  1  0  0  0  0
  4 37  1  0  0  0  0
  5 38  1  0  0  0  0
  6 39  1  0  0  0  0
  7 40  1  0  0  0  0
  8 41  1  0  0  0  0
  9 42  1  0  0  0  0
 10 43  1  0  0  0  0
 11 44  1  0  0  0  0
 12 45  1  0  0  0  0
 13 46  1  0  0  0  0
 14 47  1  0  0  0  0
 22 48  1  0  0  0  0
 22 49  1  0  0  0  0
 23 50  1  0  0  0  0
 23 51  1  0  0  0  0
 24 52  1  0  0  0  0
 24 53  1  0  0  0  0
 25 54  1  0  0  0  0
 25 55  1  0  0  0  0
 26 56  1  0  0  0  0
 26 57  1  0  0  0  0
 30 58  1  0  0  0  0
M  END
> <clash_score>
0.7790763812073098

> <docking_score>
-7.890211582183838

$$$$
BENZO_52_1
  -OEChem-08212019223D

 54 58  0     0  0  0  0  0  0999 V2000
    3.9160    2.0630   19.5520 C   0  0  0  0  0  0  0  0  0  0  0  0
    4.2750    1.7050   20.8490 C   0  0  0  0  0  0  0  0  0  0  0  0
    4.6890    1.6810   18.4640 C   0  0  0  0  0  0  0  0  0  0  0  0
    5.4210    0.9600   21.0930 C   0  0  0  0  0  0  0  0  0  0  0  0
    8.9960   -2.3380   25.5320 C   0  0  0  0  0  0  0  0  0  0  0  0
    9.6730   -3.4710   23.5300 C   0  0  0  0  0  0  0  0  0  0  0  0
    9.0720   -1.1280   24.8640 C   0  0  0  0  0  0  0  0  0  0  0  0
    9.7200   -2.2600   22.8630 C   0  0  0  0  0  0  0  0  0  0  0  0
   12.2913    1.4279   22.6355 C   0  0  0  0  0  0  0  0  0  0  0  0
   13.6024    1.4662   23.0564 C   0  0  0  0  0  0  0  0  0  0  0  0
   12.0284    1.3764   24.9443 C   0  0  0  0  0  0  0  0  0  0  0  0
    7.6390   -0.2680   18.5410 C   0  0  0  0  0  0  0  0  0  0  0  0
   11.3794    1.3761   23.7290 C   0  0  0  0  0  0  0  0  0  0  0  0
    5.8300    0.9190   18.6970 C   0  0  0  0  0  0  0  0  0  0  0  0
    6.1790    0.5730   19.9990 C   0  0  0  0  0  0  0  0  0  0  0  0
    9.3070   -3.5340   24.8780 C   0  0  0  0  0  0  0  0  0  0  0  0
    9.3350   -1.0880   23.5010 C   0  0  0  0  0  0  0  0  0  0  0  0
    9.0420    0.3700   21.5280 C   0  0  0  0  0  0  0  0  0  0  0  0
   10.0771   -5.0255   26.7193 C   0  0  0  0  0  0  0  0  0  0  0  0
    8.0926   -5.6195   25.4071 C   0  0  0  0  0  0  0  0  0  0  0  0
    9.1933   -4.9427   27.9592 C   0  0  0  0  0  0  0  0  0  0  0  0
    7.2756   -5.5290   26.6967 C   0  0  0  0  0  0  0  0  0  0  0  0
    9.8870    1.3260   23.5730 C   0  0  0  0  0  0  0  0  0  0  0  0
    6.7580    0.3810   17.8350 N   0  0  0  0  0  0  0  0  0  0  0  0
    7.3170   -0.1610   19.8550 N   0  0  0  0  0  0  0  0  0  0  0  0
    9.2563   -4.7368   25.5413 N   0  0  0  0  0  0  0  0  0  0  0  0
    8.1890   -0.7180   20.8700 N   0  0  0  0  0  0  0  0  0  0  0  0
    9.4560    0.1560   22.8130 N   0  0  0  0  0  0  0  0  0  0  0  0
    9.2690    1.4140   20.9380 O   0  0  0  0  0  0  0  0  0  0  0  0
    8.0883   -5.8459   27.8325 O   0  0  0  0  0  0  0  0  0  0  0  0
   13.7301    1.4394   24.7638 S   0  0  0  0  0  0  0  0  0  0  0  0
    3.0134    2.6521   19.3911 H   0  0  0  0  0  0  0  0  0  0  0  0
    3.6460    2.0127   21.6812 H   0  0  0  0  0  0  0  0  0  0  0  0
    4.4037    1.9731   17.4543 H   0  0  0  0  0  0  0  0  0  0  0  0
    5.7084    0.6923   22.1132 H   0  0  0  0  0  0  0  0  0  0  0  0
    8.6905   -2.3533   26.5810 H   0  0  0  0  0  0  0  0  0  0  0  0
    9.9266   -4.3896   22.9917 H   0  0  0  0  0  0  0  0  0  0  0  0
    8.9233   -0.1992   25.4232 H   0  0  0  0  0  0  0  0  0  0  0  0
   10.0650   -2.2330   21.8256 H   0  0  0  0  0  0  0  0  0  0  0  0
   12.0045    1.4365   21.5915 H   0  0  0  0  0  0  0  0  0  0  0  0
   14.4914    1.5078   22.4431 H   0  0  0  0  0  0  0  0  0  0  0  0
   11.5886    1.3416   25.9314 H   0  0  0  0  0  0  0  0  0  0  0  0
    8.4862   -0.8060   18.1787 H   0  0  0  0  0  0  0  0  0  0  0  0
   10.8985   -4.3115   26.8085 H   0  0  0  0  0  0  0  0  0  0  0  0
   10.4915   -6.0334   26.6323 H   0  0  0  0  0  0  0  0  0  0  0  0
    8.4327   -6.6456   25.2620 H   0  0  0  0  0  0  0  0  0  0  0  0
    7.4725   -5.3241   24.5619 H   0  0  0  0  0  0  0  0  0  0  0  0
    9.7636   -5.2398   28.8419 H   0  0  0  0  0  0  0  0  0  0  0  0
    8.8236   -3.9268   28.1248 H   0  0  0  0  0  0  0  0  0  0  0  0
    6.8339   -4.5337   26.8232 H   0  0  0  0  0  0  0  0  0  0  0  0
    6.4550   -6.2521   26.6643 H   0  0  0  0  0  0  0  0  0  0  0  0
    9.3974    1.2912   24.5523 H   0  0  0  0  0  0  0  0  0  0  0  0
    9.5159    2.2168   23.0554 H   0  0  0  0  0  0  0  0  0  0  0  0
    8.2565   -1.5523   21.1108 H   0  0  0  0  0  0  0  0  0  0  0  0
  1  2  1  0  0  0  0
  1  3  2  0  0  0  0
  2  4  2  0  0  0  0
  3 14  1  0  0  0  0
  4 15  1  0  0  0  0
  5  7  2  0  0  0  0
  5 16  1  0  0  0  0
  6  8  1  0  0  0  0
  6 16  2  0  0  0  0
  7 17  1  0  0  0  0
  8 17  2  0  0  0  0
  9 10  2  0  0  0  0
  9 13  1  0  0  0  0
 10 31  1  0  0  0  0
 11 13  2  0  0  0  0
 11 31  1  0  0  0  0
 12 24  2  0  0  0  0
 12 25  1  0  0  0  0
 13 23  1  0  0  0  0
 14 15  2  0  0  0  0
 14 24  1  0  0  0  0
 15 25  1  0  0  0  0
 16 26  1  0  0  0  0
 17 28  1  0  0  0  0
 18 27  1  0  0  0  0
 18 28  1  0  0  0  0
 18 29  2  0  0  0  0
 19 21  1  0  0  0  0
 19 26  1  0  0  0  0
 20 22  1  0  0  0  0
 20 26  1  0  0  0  0
 21 30  1  0  0  0  0
 22 30  1  0  0  0  0
 23 28  1  0  0  0  0
 25 27  1  0  0  0  0
  1 32  1  0  0  0  0
  2 33  1  0  0  0  0
  3 34  1  0  0  0  0
  4 35  1  0  0  0  0
  5 36  1  0  0  0  0
  6 37  1  0  0  0  0
  7 38  1  0  0  0  0
  8 39  1  0  0  0  0
  9 40  1  0  0  0  0
 10 41  1  0  0  0  0
 11 42  1  0  0  0  0
 12 43  1  0  0  0  0
 19 44  1  0  0  0  0
 19 45  1  0  0  0  0
 20 46  1  0  0  0  0
 20 47  1  0  0  0  0
 21 48  1  0  0  0  0
 21 49  1  0  0  0  0
 22 50  1  0  0  0  0
 22 51  1  0  0  0  0
 23 52  1  0  0  0  0
 23 53  1  0  0  0  0
 27 54  1  0  0  0  0
M  END
> <clash_score>
0

> <docking_score>
-8.950210571289062

$$$$
BENZO_54_1
  -OEChem-08212019223D

 57 61  0     0  0  0  0  0  0999 V2000
    3.9160    2.0630   19.5520 C   0  0  0  0  0  0  0  0  0  0  0  0
    4.2750    1.7050   20.8490 C   0  0  0  0  0  0  0  0  0  0  0  0
    6.4089    2.0844   24.8766 C   0  0  0  0  0  0  0  0  0  0  0  0
    7.4847    1.4191   24.2887 C   0  0  0  0  0  0  0  0  0  0  0  0
    4.6890    1.6810   18.4640 C   0  0  0  0  0  0  0  0  0  0  0  0
    5.4210    0.9600   21.0930 C   0  0  0  0  0  0  0  0  0  0  0  0
    8.9960   -2.3380   25.5320 C   0  0  0  0  0  0  0  0  0  0  0  0
    9.6730   -3.4710   23.5300 C   0  0  0  0  0  0  0  0  0  0  0  0
    9.0720   -1.1280   24.8640 C   0  0  0  0  0  0  0  0  0  0  0  0
    9.7200   -2.2600   22.8630 C   0  0  0  0  0  0  0  0  0  0  0  0
    6.5777    3.3741   25.3805 C   0  0  0  0  0  0  0  0  0  0  0  0
    8.8980    3.3330   24.7088 C   0  0  0  0  0  0  0  0  0  0  0  0
    7.6390   -0.2680   18.5410 C   0  0  0  0  0  0  0  0  0  0  0  0
    8.7292    2.0433   24.2048 C   0  0  0  0  0  0  0  0  0  0  0  0
    5.8300    0.9190   18.6970 C   0  0  0  0  0  0  0  0  0  0  0  0
    6.1790    0.5730   19.9990 C   0  0  0  0  0  0  0  0  0  0  0  0
    9.3070   -3.5340   24.8780 C   0  0  0  0  0  0  0  0  0  0  0  0
    9.3350   -1.0880   23.5010 C   0  0  0  0  0  0  0  0  0  0  0  0
    7.8222    3.9984   25.2966 C   0  0  0  0  0  0  0  0  0  0  0  0
    9.0420    0.3700   21.5280 C   0  0  0  0  0  0  0  0  0  0  0  0
    9.5174   -4.8597   26.9770 C   0  0  0  0  0  0  0  0  0  0  0  0
    8.5165   -5.8725   24.9808 C   0  0  0  0  0  0  0  0  0  0  0  0
    8.1868   -5.0439   27.6987 C   0  0  0  0  0  0  0  0  0  0  0  0
    7.2200   -6.0347   25.7755 C   0  0  0  0  0  0  0  0  0  0  0  0
    9.8870    1.3260   23.5730 C   0  0  0  0  0  0  0  0  0  0  0  0
    6.7580    0.3810   17.8350 N   0  0  0  0  0  0  0  0  0  0  0  0
    7.3170   -0.1610   19.8550 N   0  0  0  0  0  0  0  0  0  0  0  0
    9.2563   -4.7368   25.5413 N   0  0  0  0  0  0  0  0  0  0  0  0
    8.1890   -0.7180   20.8700 N   0  0  0  0  0  0  0  0  0  0  0  0
    9.4560    0.1560   22.8130 N   0  0  0  0  0  0  0  0  0  0  0  0
    9.2690    1.4140   20.9380 O   0  0  0  0  0  0  0  0  0  0  0  0
    7.4994   -6.1853   27.1719 O   0  0  0  0  0  0  0  0  0  0  0  0
    8.0301    5.5891   25.9196 Cl  0  0  0  0  0  0  0  0  0  0  0  0
    3.0134    2.6521   19.3911 H   0  0  0  0  0  0  0  0  0  0  0  0
    3.6460    2.0127   21.6812 H   0  0  0  0  0  0  0  0  0  0  0  0
    5.4400    1.5979   24.9418 H   0  0  0  0  0  0  0  0  0  0  0  0
    7.3441    0.4143   23.8988 H   0  0  0  0  0  0  0  0  0  0  0  0
    4.4037    1.9731   17.4543 H   0  0  0  0  0  0  0  0  0  0  0  0
    5.7084    0.6923   22.1132 H   0  0  0  0  0  0  0  0  0  0  0  0
    8.6905   -2.3533   26.5810 H   0  0  0  0  0  0  0  0  0  0  0  0
    9.9266   -4.3896   22.9917 H   0  0  0  0  0  0  0  0  0  0  0  0
    8.9233   -0.1992   25.4232 H   0  0  0  0  0  0  0  0  0  0  0  0
   10.0650   -2.2330   21.8256 H   0  0  0  0  0  0  0  0  0  0  0  0
    5.7304    3.8806   25.8363 H   0  0  0  0  0  0  0  0  0  0  0  0
    9.8703    3.8156   24.6405 H   0  0  0  0  0  0  0  0  0  0  0  0
    8.4862   -0.8060   18.1787 H   0  0  0  0  0  0  0  0  0  0  0  0
   10.0205   -3.9698   27.3609 H   0  0  0  0  0  0  0  0  0  0  0  0
   10.1535   -5.7310   27.1549 H   0  0  0  0  0  0  0  0  0  0  0  0
    9.1181   -6.7773   25.0755 H   0  0  0  0  0  0  0  0  0  0  0  0
    8.2812   -5.7064   23.9304 H   0  0  0  0  0  0  0  0  0  0  0  0
    8.3628   -5.2252   28.7611 H   0  0  0  0  0  0  0  0  0  0  0  0
    7.5530   -4.1570   27.6103 H   0  0  0  0  0  0  0  0  0  0  0  0
    6.5459   -5.1839   25.6221 H   0  0  0  0  0  0  0  0  0  0  0  0
    6.6948   -6.9354   25.4436 H   0  0  0  0  0  0  0  0  0  0  0  0
   10.4274    1.9911   22.8906 H   0  0  0  0  0  0  0  0  0  0  0  0
   10.6011    0.9882   24.3313 H   0  0  0  0  0  0  0  0  0  0  0  0
    8.2565   -1.5523   21.1108 H   0  0  0  0  0  0  0  0  0  0  0  0
  1  2  1  0  0  0  0
  1  5  2  0  0  0  0
  2  6  2  0  0  0  0
  3  4  2  0  0  0  0
  3 11  1  0  0  0  0
  4 14  1  0  0  0  0
  5 15  1  0  0  0  0
  6 16  1  0  0  0  0
  7  9  2  0  0  0  0
  7 17  1  0  0  0  0
  8 10  1  0  0  0  0
  8 17  2  0  0  0  0
  9 18  1  0  0  0  0
 10 18  2  0  0  0  0
 11 19  2  0  0  0  0
 12 14  2  0  0  0  0
 12 19  1  0  0  0  0
 13 26  2  0  0  0  0
 13 27  1  0  0  0  0
 14 25  1  0  0  0  0
 15 16  2  0  0  0  0
 15 26  1  0  0  0  0
 16 27  1  0  0  0  0
 17 28  1  0  0  0  0
 18 30  1  0  0  0  0
 19 33  1  0  0  0  0
 20 29  1  0  0  0  0
 20 30  1  0  0  0  0
 20 31  2  0  0  0  0
 21 23  1  0  0  0  0
 21 28  1  0  0  0  0
 22 24  1  0  0  0  0
 22 28  1  0  0  0  0
 23 32  1  0  0  0  0
 24 32  1  0  0  0  0
 25 30  1  0  0  0  0
 27 29  1  0  0  0  0
  1 34  1  0  0  0  0
  2 35  1  0  0  0  0
  3 36  1  0  0  0  0
  4 37  1  0  0  0  0
  5 38  1  0  0  0  0
  6 39  1  0  0  0  0
  7 40  1  0  0  0  0
  8 41  1  0  0  0  0
  9 42  1  0  0  0  0
 10 43  1  0  0  0  0
 11 44  1  0  0  0  0
 12 45  1  0  0  0  0
 13 46  1  0  0  0  0
 21 47  1  0  0  0  0
 21 48  1  0  0  0  0
 22 49  1  0  0  0  0
 22 50  1  0  0  0  0
 23 51  1  0  0  0  0
 23 52  1  0  0  0  0
 24 53  1  0  0  0  0
 24 54  1  0  0  0  0
 25 55  1  0  0  0  0
 25 56  1  0  0  0  0
 29 57  1  0  0  0  0
M  END
> <clash_score>
0

> <docking_score>
-8.219470024108887

$$$$
BENZO_55_1
  -OEChem-08212019223D

 57 61  0     0  0  0  0  0  0999 V2000
    3.9160    2.0630   19.5520 C   0  0  0  0  0  0  0  0  0  0  0  0
    4.2750    1.7050   20.8490 C   0  0  0  0  0  0  0  0  0  0  0  0
    4.6890    1.6810   18.4640 C   0  0  0  0  0  0  0  0  0  0  0  0
    5.4210    0.9600   21.0930 C   0  0  0  0  0  0  0  0  0  0  0  0
    8.9960   -2.3380   25.5320 C   0  0  0  0  0  0  0  0  0  0  0  0
    9.6730   -3.4710   23.5300 C   0  0  0  0  0  0  0  0  0  0  0  0
    9.0720   -1.1280   24.8640 C   0  0  0  0  0  0  0  0  0  0  0  0
    9.7200   -2.2600   22.8630 C   0  0  0  0  0  0  0  0  0  0  0  0
   12.1233    1.3811   24.9242 C   0  0  0  0  0  0  0  0  0  0  0  0
   12.3262    1.4247   22.7351 C   0  0  0  0  0  0  0  0  0  0  0  0
    7.6390   -0.2680   18.5410 C   0  0  0  0  0  0  0  0  0  0  0  0
   11.3794    1.3761   23.7290 C   0  0  0  0  0  0  0  0  0  0  0  0
    5.8300    0.9190   18.6970 C   0  0  0  0  0  0  0  0  0  0  0  0
    6.1790    0.5730   19.9990 C   0  0  0  0  0  0  0  0  0  0  0  0
    9.3070   -3.5340   24.8780 C   0  0  0  0  0  0  0  0  0  0  0  0
    9.3350   -1.0880   23.5010 C   0  0  0  0  0  0  0  0  0  0  0  0
    9.0420    0.3700   21.5280 C   0  0  0  0  0  0  0  0  0  0  0  0
   10.0771   -5.0255   26.7193 C   0  0  0  0  0  0  0  0  0  0  0  0
    8.0926   -5.6195   25.4071 C   0  0  0  0  0  0  0  0  0  0  0  0
    9.1933   -4.9427   27.9592 C   0  0  0  0  0  0  0  0  0  0  0  0
    7.2756   -5.5290   26.6967 C   0  0  0  0  0  0  0  0  0  0  0  0
   14.8305    1.5084   22.7418 C   0  0  0  0  0  0  0  0  0  0  0  0
    9.8870    1.3260   23.5730 C   0  0  0  0  0  0  0  0  0  0  0  0
   13.4410    1.4289   24.7112 N   0  0  0  0  0  0  0  0  0  0  0  0
    6.7580    0.3810   17.8350 N   0  0  0  0  0  0  0  0  0  0  0  0
   13.5326    1.4543   23.3706 N   0  0  0  0  0  0  0  0  0  0  0  0
    7.3170   -0.1610   19.8550 N   0  0  0  0  0  0  0  0  0  0  0  0
    9.2563   -4.7368   25.5413 N   0  0  0  0  0  0  0  0  0  0  0  0
    8.1890   -0.7180   20.8700 N   0  0  0  0  0  0  0  0  0  0  0  0
    9.4560    0.1560   22.8130 N   0  0  0  0  0  0  0  0  0  0  0  0
    9.2690    1.4140   20.9380 O   0  0  0  0  0  0  0  0  0  0  0  0
    8.0883   -5.8459   27.8325 O   0  0  0  0  0  0  0  0  0  0  0  0
    3.0134    2.6521   19.3911 H   0  0  0  0  0  0  0  0  0  0  0  0
    3.6460    2.0127   21.6812 H   0  0  0  0  0  0  0  0  0  0  0  0
    4.4037    1.9731   17.4543 H   0  0  0  0  0  0  0  0  0  0  0  0
    5.7084    0.6923   22.1132 H   0  0  0  0  0  0  0  0  0  0  0  0
    8.6905   -2.3533   26.5810 H   0  0  0  0  0  0  0  0  0  0  0  0
    9.9266   -4.3896   22.9917 H   0  0  0  0  0  0  0  0  0  0  0  0
    8.9233   -0.1992   25.4232 H   0  0  0  0  0  0  0  0  0  0  0  0
   10.0650   -2.2330   21.8256 H   0  0  0  0  0  0  0  0  0  0  0  0
   11.7624    1.3510   25.9426 H   0  0  0  0  0  0  0  0  0  0  0  0
   12.2462    1.4390   21.6566 H   0  0  0  0  0  0  0  0  0  0  0  0
    8.4862   -0.8060   18.1787 H   0  0  0  0  0  0  0  0  0  0  0  0
   10.8985   -4.3115   26.8085 H   0  0  0  0  0  0  0  0  0  0  0  0
   10.4915   -6.0334   26.6323 H   0  0  0  0  0  0  0  0  0  0  0  0
    8.4327   -6.6456   25.2620 H   0  0  0  0  0  0  0  0  0  0  0  0
    7.4725   -5.3241   24.5619 H   0  0  0  0  0  0  0  0  0  0  0  0
    9.7636   -5.2398   28.8419 H   0  0  0  0  0  0  0  0  0  0  0  0
    8.8236   -3.9268   28.1248 H   0  0  0  0  0  0  0  0  0  0  0  0
    6.8339   -4.5337   26.8232 H   0  0  0  0  0  0  0  0  0  0  0  0
    6.4550   -6.2521   26.6643 H   0  0  0  0  0  0  0  0  0  0  0  0
   15.0990    2.5601   22.6124 H   0  0  0  0  0  0  0  0  0  0  0  0
   15.5636    1.0018   23.3756 H   0  0  0  0  0  0  0  0  0  0  0  0
   14.7841    1.0025   21.7733 H   0  0  0  0  0  0  0  0  0  0  0  0
    9.3974    1.2912   24.5523 H   0  0  0  0  0  0  0  0  0  0  0  0
    9.5159    2.2168   23.0554 H   0  0  0  0  0  0  0  0  0  0  0  0
    8.2565   -1.5523   21.1108 H   0  0  0  0  0  0  0  0  0  0  0  0
  1  2  1  0  0  0  0
  1  3  2  0  0  0  0
  2  4  2  0  0  0  0
  3 13  1  0  0  0  0
  4 14  1  0  0  0  0
  5  7  2  0  0  0  0
  5 15  1  0  0  0  0
  6  8  1  0  0  0  0
  6 15  2  0  0  0  0
  7 16  1  0  0  0  0
  8 16  2  0  0  0  0
  9 12  1  0  0  0  0
  9 24  2  0  0  0  0
 10 12  2  0  0  0  0
 10 26  1  0  0  0  0
 11 25  2  0  0  0  0
 11 27  1  0  0  0  0
 12 23  1  0  0  0  0
 13 14  2  0  0  0  0
 13 25  1  0  0  0  0
 14 27  1  0  0  0  0
 15 28  1  0  0  0  0
 16 30  1  0  0  0  0
 17 29  1  0  0  0  0
 17 30  1  0  0  0  0
 17 31  2  0  0  0  0
 18 20  1  0  0  0  0
 18 28  1  0  0  0  0
 19 21  1  0  0  0  0
 19 28  1  0  0  0  0
 20 32  1  0  0  0  0
 21 32  1  0  0  0  0
 22 26  1  0  0  0  0
 23 30  1  0  0  0  0
 24 26  1  0  0  0  0
 27 29  1  0  0  0  0
  1 33  1  0  0  0  0
  2 34  1  0  0  0  0
  3 35  1  0  0  0  0
  4 36  1  0  0  0  0
  5 37  1  0  0  0  0
  6 38  1  0  0  0  0
  7 39  1  0  0  0  0
  8 40  1  0  0  0  0
  9 41  1  0  0  0  0
 10 42  1  0  0  0  0
 11 43  1  0  0  0  0
 18 44  1  0  0  0  0
 18 45  1  0  0  0  0
 19 46  1  0  0  0  0
 19 47  1  0  0  0  0
 20 48  1  0  0  0  0
 20 49  1  0  0  0  0
 21 50  1  0  0  0  0
 21 51  1  0  0  0  0
 22 52  1  0  0  0  0
 22 53  1  0  0  0  0
 22 54  1  0  0  0  0
 23 55  1  0  0  0  0
 23 56  1  0  0  0  0
 29 57  1  0  0  0  0
M  END
> <clash_score>
0

> <docking_score>
-8.587492942810059

$$$$
BENZO_57_1
  -OEChem-08212019263D

 52 55  0     0  0  0  0  0  0999 V2000
   14.1526    1.4694   24.0176 C   0  0  0  0  0  0  0  0  0  0  0  0
    4.2750    1.7050   20.8490 C   0  0  0  0  0  0  0  0  0  0  0  0
   13.3741    0.8121   24.9701 C   0  0  0  0  0  0  0  0  0  0  0  0
   13.5446    2.0802   22.9208 C   0  0  0  0  0  0  0  0  0  0  0  0
    3.9160    2.0630   19.5520 C   0  0  0  0  0  0  0  0  0  0  0  0
    5.4210    0.9600   21.0930 C   0  0  0  0  0  0  0  0  0  0  0  0
   11.9875    0.7654   24.8258 C   0  0  0  0  0  0  0  0  0  0  0  0
   12.1580    2.0335   22.7765 C   0  0  0  0  0  0  0  0  0  0  0  0
    4.6890    1.6810   18.4640 C   0  0  0  0  0  0  0  0  0  0  0  0
    9.0720   -1.1280   24.8640 C   0  0  0  0  0  0  0  0  0  0  0  0
    9.7200   -2.2600   22.8630 C   0  0  0  0  0  0  0  0  0  0  0  0
    8.9960   -2.3380   25.5320 C   0  0  0  0  0  0  0  0  0  0  0  0
    9.6730   -3.4710   23.5300 C   0  0  0  0  0  0  0  0  0  0  0  0
    6.1790    0.5730   19.9990 C   0  0  0  0  0  0  0  0  0  0  0  0
   11.3794    1.3761   23.7290 C   0  0  0  0  0  0  0  0  0  0  0  0
    5.8300    0.9190   18.6970 C   0  0  0  0  0  0  0  0  0  0  0  0
    9.3350   -1.0880   23.5010 C   0  0  0  0  0  0  0  0  0  0  0  0
    9.3070   -3.5340   24.8780 C   0  0  0  0  0  0  0  0  0  0  0  0
    7.3170   -0.1610   19.8550 C   0  0  0  0  0  0  0  0  0  0  0  0
    9.0420    0.3700   21.5280 C   0  0  0  0  0  0  0  0  0  0  0  0
    8.0128   -5.2151   26.1416 C   0  0  0  0  0  0  0  0  0  0  0  0
   10.4372   -5.5860   25.6589 C   0  0  0  0  0  0  0  0  0  0  0  0
    9.8870    1.3260   23.5730 C   0  0  0  0  0  0  0  0  0  0  0  0
    7.6390   -0.2680   18.5410 N   0  0  0  0  0  0  0  0  0  0  0  0
    6.7580    0.3810   17.8350 N   0  0  0  0  0  0  0  0  0  0  0  0
    8.1890   -0.7180   20.8700 N   0  0  0  0  0  0  0  0  0  0  0  0
    9.4560    0.1560   22.8130 N   0  0  0  0  0  0  0  0  0  0  0  0
    9.2543   -4.7552   25.5519 N   0  0  0  0  0  0  0  0  0  0  0  0
    9.2690    1.4140   20.9380 O   0  0  0  0  0  0  0  0  0  0  0  0
   15.2322    1.5068   24.1308 H   0  0  0  0  0  0  0  0  0  0  0  0
    3.6468    2.0173   21.6825 H   0  0  0  0  0  0  0  0  0  0  0  0
   13.8473    0.3374   25.8248 H   0  0  0  0  0  0  0  0  0  0  0  0
   14.1503    2.5930   22.1795 H   0  0  0  0  0  0  0  0  0  0  0  0
    3.0153    2.6527   19.3907 H   0  0  0  0  0  0  0  0  0  0  0  0
    5.7015    0.6980   22.1071 H   0  0  0  0  0  0  0  0  0  0  0  0
   11.3889    0.2508   25.5729 H   0  0  0  0  0  0  0  0  0  0  0  0
   11.6930    2.5120   21.9187 H   0  0  0  0  0  0  0  0  0  0  0  0
    4.4064    1.9744   17.4453 H   0  0  0  0  0  0  0  0  0  0  0  0
    8.9217   -0.1995   25.4232 H   0  0  0  0  0  0  0  0  0  0  0  0
   10.0643   -2.2341   21.8254 H   0  0  0  0  0  0  0  0  0  0  0  0
    8.6893   -2.3540   26.5808 H   0  0  0  0  0  0  0  0  0  0  0  0
    9.9257   -4.3898   22.9921 H   0  0  0  0  0  0  0  0  0  0  0  0
    8.1744   -6.1904   26.6238 H   0  0  0  0  0  0  0  0  0  0  0  0
    7.6718   -4.4870   26.8924 H   0  0  0  0  0  0  0  0  0  0  0  0
    7.2494   -5.3166   25.3561 H   0  0  0  0  0  0  0  0  0  0  0  0
   10.1946   -6.4995   26.2216 H   0  0  0  0  0  0  0  0  0  0  0  0
   10.7865   -5.8577   24.6518 H   0  0  0  0  0  0  0  0  0  0  0  0
   11.2285   -5.0312   26.1842 H   0  0  0  0  0  0  0  0  0  0  0  0
    9.3974    1.2912   24.5523 H   0  0  0  0  0  0  0  0  0  0  0  0
    9.5159    2.2168   23.0553 H   0  0  0  0  0  0  0  0  0  0  0  0
    6.8044    0.4388   16.8592 H   0  0  0  0  0  0  0  0  0  0  0  0
    8.2409   -1.5618   21.0967 H   0  0  0  0  0  0  0  0  0  0  0  0
  1  3  1  0  0  0  0
  1  4  2  0  0  0  0
  2  5  1  0  0  0  0
  2  6  2  0  0  0  0
  3  7  2  0  0  0  0
  4  8  1  0  0  0  0
  5  9  2  0  0  0  0
  6 14  1  0  0  0  0
  7 15  1  0  0  0  0
  8 15  2  0  0  0  0
  9 16  1  0  0  0  0
 10 12  2  0  0  0  0
 10 17  1  0  0  0  0
 11 13  1  0  0  0  0
 11 17  2  0  0  0  0
 12 18  1  0  0  0  0
 13 18  2  0  0  0  0
 14 16  2  0  0  0  0
 14 19  1  0  0  0  0
 15 23  1  0  0  0  0
 16 25  1  0  0  0  0
 17 27  1  0  0  0  0
 18 28  1  0  0  0  0
 19 24  2  0  0  0  0
 19 26  1  0  0  0  0
 20 26  1  0  0  0  0
 20 27  1  0  0  0  0
 20 29  2  0  0  0  0
 21 28  1  0  0  0  0
 22 28  1  0  0  0  0
 23 27  1  0  0  0  0
 24 25  1  0  0  0  0
  1 30  1  0  0  0  0
  2 31  1  0  0  0  0
  3 32  1  0  0  0  0
  4 33  1  0  0  0  0
  5 34  1  0  0  0  0
  6 35  1  0  0  0  0
  7 36  1  0  0  0  0
  8 37  1  0  0  0  0
  9 38  1  0  0  0  0
 10 39  1  0  0  0  0
 11 40  1  0  0  0  0
 12 41  1  0  0  0  0
 13 42  1  0  0  0  0
 21 43  1  0  0  0  0
 21 44  1  0  0  0  0
 21 45  1  0  0  0  0
 22 46  1  0  0  0  0
 22 47  1  0  0  0  0
 22 48  1  0  0  0  0
 23 49  1  0  0  0  0
 23 50  1  0  0  0  0
 25 51  1  0  0  0  0
 26 52  1  0  0  0  0
M  END
> <clash_score>
0

> <docking_score>
-8.66699504852295

$$$$
BENZO_59_1
  -OEChem-08212019263D

 52 55  0     0  0  0  0  0  0999 V2000
    4.2750    1.7050   20.8490 C   0  0  0  0  0  0  0  0  0  0  0  0
    3.9160    2.0630   19.5520 C   0  0  0  0  0  0  0  0  0  0  0  0
    5.4210    0.9600   21.0930 C   0  0  0  0  0  0  0  0  0  0  0  0
    4.6890    1.6810   18.4640 C   0  0  0  0  0  0  0  0  0  0  0  0
    9.0720   -1.1280   24.8640 C   0  0  0  0  0  0  0  0  0  0  0  0
    9.7200   -2.2600   22.8630 C   0  0  0  0  0  0  0  0  0  0  0  0
    8.9960   -2.3380   25.5320 C   0  0  0  0  0  0  0  0  0  0  0  0
    9.6730   -3.4710   23.5300 C   0  0  0  0  0  0  0  0  0  0  0  0
   12.1233    1.3811   24.9242 C   0  0  0  0  0  0  0  0  0  0  0  0
   12.3262    1.4247   22.7351 C   0  0  0  0  0  0  0  0  0  0  0  0
    6.1790    0.5730   19.9990 C   0  0  0  0  0  0  0  0  0  0  0  0
   11.3794    1.3761   23.7290 C   0  0  0  0  0  0  0  0  0  0  0  0
    5.8300    0.9190   18.6970 C   0  0  0  0  0  0  0  0  0  0  0  0
    9.3350   -1.0880   23.5010 C   0  0  0  0  0  0  0  0  0  0  0  0
    9.3070   -3.5340   24.8780 C   0  0  0  0  0  0  0  0  0  0  0  0
    7.3170   -0.1610   19.8550 C   0  0  0  0  0  0  0  0  0  0  0  0
    9.0420    0.3700   21.5280 C   0  0  0  0  0  0  0  0  0  0  0  0
   14.8305    1.5084   22.7418 C   0  0  0  0  0  0  0  0  0  0  0  0
    8.0128   -5.2151   26.1416 C   0  0  0  0  0  0  0  0  0  0  0  0
   10.4372   -5.5860   25.6589 C   0  0  0  0  0  0  0  0  0  0  0  0
    9.8870    1.3260   23.5730 C   0  0  0  0  0  0  0  0  0  0  0  0
   13.4410    1.4289   24.7112 N   0  0  0  0  0  0  0  0  0  0  0  0
    7.6390   -0.2680   18.5410 N   0  0  0  0  0  0  0  0  0  0  0  0
    6.7580    0.3810   17.8350 N   0  0  0  0  0  0  0  0  0  0  0  0
   13.5326    1.4543   23.3706 N   0  0  0  0  0  0  0  0  0  0  0  0
    8.1890   -0.7180   20.8700 N   0  0  0  0  0  0  0  0  0  0  0  0
    9.4560    0.1560   22.8130 N   0  0  0  0  0  0  0  0  0  0  0  0
    9.2543   -4.7552   25.5519 N   0  0  0  0  0  0  0  0  0  0  0  0
    9.2690    1.4140   20.9380 O   0  0  0  0  0  0  0  0  0  0  0  0
    3.6468    2.0173   21.6825 H   0  0  0  0  0  0  0  0  0  0  0  0
    3.0153    2.6527   19.3907 H   0  0  0  0  0  0  0  0  0  0  0  0
    5.7015    0.6980   22.1071 H   0  0  0  0  0  0  0  0  0  0  0  0
    4.4064    1.9744   17.4453 H   0  0  0  0  0  0  0  0  0  0  0  0
    8.9217   -0.1995   25.4232 H   0  0  0  0  0  0  0  0  0  0  0  0
   10.0643   -2.2341   21.8254 H   0  0  0  0  0  0  0  0  0  0  0  0
    8.6893   -2.3540   26.5808 H   0  0  0  0  0  0  0  0  0  0  0  0
    9.9257   -4.3898   22.9921 H   0  0  0  0  0  0  0  0  0  0  0  0
   11.7624    1.3510   25.9426 H   0  0  0  0  0  0  0  0  0  0  0  0
   12.2462    1.4390   21.6566 H   0  0  0  0  0  0  0  0  0  0  0  0
   15.0990    2.5601   22.6124 H   0  0  0  0  0  0  0  0  0  0  0  0
   15.5636    1.0018   23.3756 H   0  0  0  0  0  0  0  0  0  0  0  0
   14.7841    1.0025   21.7733 H   0  0  0  0  0  0  0  0  0  0  0  0
    8.1744   -6.1904   26.6238 H   0  0  0  0  0  0  0  0  0  0  0  0
    7.6718   -4.4870   26.8924 H   0  0  0  0  0  0  0  0  0  0  0  0
    7.2494   -5.3166   25.3561 H   0  0  0  0  0  0  0  0  0  0  0  0
   10.1946   -6.4995   26.2216 H   0  0  0  0  0  0  0  0  0  0  0  0
   10.7865   -5.8577   24.6518 H   0  0  0  0  0  0  0  0  0  0  0  0
   11.2285   -5.0312   26.1842 H   0  0  0  0  0  0  0  0  0  0  0  0
    9.3974    1.2912   24.5523 H   0  0  0  0  0  0  0  0  0  0  0  0
    9.5159    2.2168   23.0553 H   0  0  0  0  0  0  0  0  0  0  0  0
    6.8044    0.4388   16.8592 H   0  0  0  0  0  0  0  0  0  0  0  0
    8.2409   -1.5618   21.0967 H   0  0  0  0  0  0  0  0  0  0  0  0
  1  2  1  0  0  0  0
  1  3  2  0  0  0  0
  2  4  2  0  0  0  0
  3 11  1  0  0  0  0
  4 13  1  0  0  0  0
  5  7  2  0  0  0  0
  5 14  1  0  0  0  0
  6  8  1  0  0  0  0
  6 14  2  0  0  0  0
  7 15  1  0  0  0  0
  8 15  2  0  0  0  0
  9 12  1  0  0  0  0
  9 22  2  0  0  0  0
 10 12  2  0  0  0  0
 10 25  1  0  0  0  0
 11 13  2  0  0  0  0
 11 16  1  0  0  0  0
 12 21  1  0  0  0  0
 13 24  1  0  0  0  0
 14 27  1  0  0  0  0
 15 28  1  0  0  0  0
 16 23  2  0  0  0  0
 16 26  1  0  0  0  0
 17 26  1  0  0  0  0
 17 27  1  0  0  0  0
 17 29  2  0  0  0  0
 18 25  1  0  0  0  0
 19 28  1  0  0  0  0
 20 28  1  0  0  0  0
 21 27  1  0  0  0  0
 22 25  1  0  0  0  0
 23 24  1  0  0  0  0
  1 30  1  0  0  0  0
  2 31  1  0  0  0  0
  3 32  1  0  0  0  0
  4 33  1  0  0  0  0
  5 34  1  0  0  0  0
  6 35  1  0  0  0  0
  7 36  1  0  0  0  0
  8 37  1  0  0  0  0
  9 38  1  0  0  0  0
 10 39  1  0  0  0  0
 18 40  1  0  0  0  0
 18 41  1  0  0  0  0
 18 42  1  0  0  0  0
 19 43  1  0  0  0  0
 19 44  1  0  0  0  0
 19 45  1  0  0  0  0
 20 46  1  0  0  0  0
 20 47  1  0  0  0  0
 20 48  1  0  0  0  0
 21 49  1  0  0  0  0
 21 50  1  0  0  0  0
 24 51  1  0  0  0  0
 26 52  1  0  0  0  0
M  END
> <clash_score>
0

> <docking_score>
-8.383130073547363

$$$$
BENZO_58_1
  -OEChem-08212019263D

 52 55  0     0  0  0  0  0  0999 V2000
    4.2750    1.7050   20.8490 C   0  0  0  0  0  0  0  0  0  0  0  0
    3.9160    2.0630   19.5520 C   0  0  0  0  0  0  0  0  0  0  0  0
    6.4089    2.0844   24.8766 C   0  0  0  0  0  0  0  0  0  0  0  0
    5.4210    0.9600   21.0930 C   0  0  0  0  0  0  0  0  0  0  0  0
    7.4847    1.4191   24.2887 C   0  0  0  0  0  0  0  0  0  0  0  0
    4.6890    1.6810   18.4640 C   0  0  0  0  0  0  0  0  0  0  0  0
    9.0720   -1.1280   24.8640 C   0  0  0  0  0  0  0  0  0  0  0  0
    9.7200   -2.2600   22.8630 C   0  0  0  0  0  0  0  0  0  0  0  0
    8.9960   -2.3380   25.5320 C   0  0  0  0  0  0  0  0  0  0  0  0
    9.6730   -3.4710   23.5300 C   0  0  0  0  0  0  0  0  0  0  0  0
    6.5777    3.3741   25.3805 C   0  0  0  0  0  0  0  0  0  0  0  0
    8.8980    3.3330   24.7088 C   0  0  0  0  0  0  0  0  0  0  0  0
    6.1790    0.5730   19.9990 C   0  0  0  0  0  0  0  0  0  0  0  0
    8.7292    2.0433   24.2048 C   0  0  0  0  0  0  0  0  0  0  0  0
    5.8300    0.9190   18.6970 C   0  0  0  0  0  0  0  0  0  0  0  0
    9.3350   -1.0880   23.5010 C   0  0  0  0  0  0  0  0  0  0  0  0
    9.3070   -3.5340   24.8780 C   0  0  0  0  0  0  0  0  0  0  0  0
    7.8222    3.9984   25.2966 C   0  0  0  0  0  0  0  0  0  0  0  0
    7.3170   -0.1610   19.8550 C   0  0  0  0  0  0  0  0  0  0  0  0
    9.0420    0.3700   21.5280 C   0  0  0  0  0  0  0  0  0  0  0  0
    8.0128   -5.2151   26.1416 C   0  0  0  0  0  0  0  0  0  0  0  0
   10.4372   -5.5860   25.6589 C   0  0  0  0  0  0  0  0  0  0  0  0
    9.8870    1.3260   23.5730 C   0  0  0  0  0  0  0  0  0  0  0  0
    7.6390   -0.2680   18.5410 N   0  0  0  0  0  0  0  0  0  0  0  0
    6.7580    0.3810   17.8350 N   0  0  0  0  0  0  0  0  0  0  0  0
    8.1890   -0.7180   20.8700 N   0  0  0  0  0  0  0  0  0  0  0  0
    9.4560    0.1560   22.8130 N   0  0  0  0  0  0  0  0  0  0  0  0
    9.2543   -4.7552   25.5519 N   0  0  0  0  0  0  0  0  0  0  0  0
    9.2690    1.4140   20.9380 O   0  0  0  0  0  0  0  0  0  0  0  0
    8.0301    5.5891   25.9196 Cl  0  0  0  0  0  0  0  0  0  0  0  0
    3.6468    2.0173   21.6825 H   0  0  0  0  0  0  0  0  0  0  0  0
    3.0153    2.6527   19.3907 H   0  0  0  0  0  0  0  0  0  0  0  0
    5.4400    1.5979   24.9418 H   0  0  0  0  0  0  0  0  0  0  0  0
    5.7015    0.6980   22.1071 H   0  0  0  0  0  0  0  0  0  0  0  0
    7.3441    0.4143   23.8988 H   0  0  0  0  0  0  0  0  0  0  0  0
    4.4064    1.9744   17.4453 H   0  0  0  0  0  0  0  0  0  0  0  0
    8.9217   -0.1995   25.4232 H   0  0  0  0  0  0  0  0  0  0  0  0
   10.0643   -2.2341   21.8254 H   0  0  0  0  0  0  0  0  0  0  0  0
    8.6893   -2.3540   26.5808 H   0  0  0  0  0  0  0  0  0  0  0  0
    9.9257   -4.3898   22.9921 H   0  0  0  0  0  0  0  0  0  0  0  0
    5.7304    3.8806   25.8363 H   0  0  0  0  0  0  0  0  0  0  0  0
    9.8703    3.8156   24.6405 H   0  0  0  0  0  0  0  0  0  0  0  0
    8.1744   -6.1904   26.6238 H   0  0  0  0  0  0  0  0  0  0  0  0
    7.6718   -4.4870   26.8924 H   0  0  0  0  0  0  0  0  0  0  0  0
    7.2494   -5.3166   25.3561 H   0  0  0  0  0  0  0  0  0  0  0  0
   10.1946   -6.4995   26.2216 H   0  0  0  0  0  0  0  0  0  0  0  0
   10.7865   -5.8577   24.6518 H   0  0  0  0  0  0  0  0  0  0  0  0
   11.2285   -5.0312   26.1842 H   0  0  0  0  0  0  0  0  0  0  0  0
   10.4274    1.9911   22.8906 H   0  0  0  0  0  0  0  0  0  0  0  0
   10.6011    0.9882   24.3313 H   0  0  0  0  0  0  0  0  0  0  0  0
    6.8044    0.4388   16.8592 H   0  0  0  0  0  0  0  0  0  0  0  0
    8.2409   -1.5618   21.0967 H   0  0  0  0  0  0  0  0  0  0  0  0
  1  2  1  0  0  0  0
  1  4  2  0  0  0  0
  2  6  2  0  0  0  0
  3  5  2  0  0  0  0
  3 11  1  0  0  0  0
  4 13  1  0  0  0  0
  5 14  1  0  0  0  0
  6 15  1  0  0  0  0
  7  9  2  0  0  0  0
  7 16  1  0  0  0  0
  8 10  1  0  0  0  0
  8 16  2  0  0  0  0
  9 17  1  0  0  0  0
 10 17  2  0  0  0  0
 11 18  2  0  0  0  0
 12 14  2  0  0  0  0
 12 18  1  0  0  0  0
 13 15  2  0  0  0  0
 13 19  1  0  0  0  0
 14 23  1  0  0  0  0
 15 25  1  0  0  0  0
 16 27  1  0  0  0  0
 17 28  1  0  0  0  0
 18 30  1  0  0  0  0
 19 24  2  0  0  0  0
 19 26  1  0  0  0  0
 20 26  1  0  0  0  0
 20 27  1  0  0  0  0
 20 29  2  0  0  0  0
 21 28  1  0  0  0  0
 22 28  1  0  0  0  0
 23 27  1  0  0  0  0
 24 25  1  0  0  0  0
  1 31  1  0  0  0  0
  2 32  1  0  0  0  0
  3 33  1  0  0  0  0
  4 34  1  0  0  0  0
  5 35  1  0  0  0  0
  6 36  1  0  0  0  0
  7 37  1  0  0  0  0
  8 38  1  0  0  0  0
  9 39  1  0  0  0  0
 10 40  1  0  0  0  0
 11 41  1  0  0  0  0
 12 42  1  0  0  0  0
 21 43  1  0  0  0  0
 21 44  1  0  0  0  0
 21 45  1  0  0  0  0
 22 46  1  0  0  0  0
 22 47  1  0  0  0  0
 22 48  1  0  0  0  0
 23 49  1  0  0  0  0
 23 50  1  0  0  0  0
 25 51  1  0  0  0  0
 26 52  1  0  0  0  0
M  END
> <clash_score>
0

> <docking_score>
-8.053022384643555

$$$$
BENZO_61_1
  -OEChem-08212019263D

 54 57  0     0  0  0  0  0  0999 V2000
   14.1526    1.4694   24.0176 C   0  0  0  0  0  0  0  0  0  0  0  0
    4.2750    1.7050   20.8490 C   0  0  0  0  0  0  0  0  0  0  0  0
   13.3741    0.8121   24.9701 C   0  0  0  0  0  0  0  0  0  0  0  0
   13.5446    2.0802   22.9208 C   0  0  0  0  0  0  0  0  0  0  0  0
    3.9160    2.0630   19.5520 C   0  0  0  0  0  0  0  0  0  0  0  0
    5.4210    0.9600   21.0930 C   0  0  0  0  0  0  0  0  0  0  0  0
   11.9875    0.7654   24.8258 C   0  0  0  0  0  0  0  0  0  0  0  0
   12.1580    2.0335   22.7765 C   0  0  0  0  0  0  0  0  0  0  0  0
    4.6890    1.6810   18.4640 C   0  0  0  0  0  0  0  0  0  0  0  0
    8.9960   -2.3380   25.5320 C   0  0  0  0  0  0  0  0  0  0  0  0
    9.6730   -3.4710   23.5300 C   0  0  0  0  0  0  0  0  0  0  0  0
    9.0720   -1.1280   24.8640 C   0  0  0  0  0  0  0  0  0  0  0  0
    9.7200   -2.2600   22.8630 C   0  0  0  0  0  0  0  0  0  0  0  0
    6.1790    0.5730   19.9990 C   0  0  0  0  0  0  0  0  0  0  0  0
   11.3794    1.3761   23.7290 C   0  0  0  0  0  0  0  0  0  0  0  0
    5.8300    0.9190   18.6970 C   0  0  0  0  0  0  0  0  0  0  0  0
    9.3070   -3.5340   24.8780 C   0  0  0  0  0  0  0  0  0  0  0  0
    9.3350   -1.0880   23.5010 C   0  0  0  0  0  0  0  0  0  0  0  0
    7.3170   -0.1610   19.8550 C   0  0  0  0  0  0  0  0  0  0  0  0
    9.5334   -6.0236   25.0414 C   0  0  0  0  0  0  0  0  0  0  0  0
    9.0420    0.3700   21.5280 C   0  0  0  0  0  0  0  0  0  0  0  0
   10.6330   -7.3746   26.8775 C   0  0  0  0  0  0  0  0  0  0  0  0
    9.8870    1.3260   23.5730 C   0  0  0  0  0  0  0  0  0  0  0  0
    9.3523   -7.0865   26.1149 C   0  0  0  0  0  0  0  0  0  0  0  0
    7.6390   -0.2680   18.5410 N   0  0  0  0  0  0  0  0  0  0  0  0
    6.7580    0.3810   17.8350 N   0  0  0  0  0  0  0  0  0  0  0  0
    9.2546   -4.7422   25.5438 N   0  0  0  0  0  0  0  0  0  0  0  0
    8.1890   -0.7180   20.8700 N   0  0  0  0  0  0  0  0  0  0  0  0
    9.4560    0.1560   22.8130 N   0  0  0  0  0  0  0  0  0  0  0  0
    9.8806   -6.3053   23.8992 O   0  0  0  0  0  0  0  0  0  0  0  0
    9.2690    1.4140   20.9380 O   0  0  0  0  0  0  0  0  0  0  0  0
   15.2322    1.5068   24.1308 H   0  0  0  0  0  0  0  0  0  0  0  0
    3.6468    2.0173   21.6825 H   0  0  0  0  0  0  0  0  0  0  0  0
   13.8473    0.3374   25.8248 H   0  0  0  0  0  0  0  0  0  0  0  0
   14.1503    2.5930   22.1795 H   0  0  0  0  0  0  0  0  0  0  0  0
    3.0153    2.6527   19.3907 H   0  0  0  0  0  0  0  0  0  0  0  0
    5.7015    0.6980   22.1071 H   0  0  0  0  0  0  0  0  0  0  0  0
   11.3889    0.2508   25.5729 H   0  0  0  0  0  0  0  0  0  0  0  0
   11.6930    2.5120   21.9187 H   0  0  0  0  0  0  0  0  0  0  0  0
    4.4064    1.9744   17.4453 H   0  0  0  0  0  0  0  0  0  0  0  0
    8.6895   -2.3529   26.5807 H   0  0  0  0  0  0  0  0  0  0  0  0
    9.9262   -4.3897   22.9916 H   0  0  0  0  0  0  0  0  0  0  0  0
    8.9224   -0.1998   25.4238 H   0  0  0  0  0  0  0  0  0  0  0  0
   10.0649   -2.2343   21.8258 H   0  0  0  0  0  0  0  0  0  0  0  0
   11.4241   -7.7171   26.2024 H   0  0  0  0  0  0  0  0  0  0  0  0
   10.4629   -8.1530   27.6277 H   0  0  0  0  0  0  0  0  0  0  0  0
   10.9949   -6.4779   27.3912 H   0  0  0  0  0  0  0  0  0  0  0  0
    9.3974    1.2912   24.5523 H   0  0  0  0  0  0  0  0  0  0  0  0
    9.5159    2.2168   23.0553 H   0  0  0  0  0  0  0  0  0  0  0  0
    8.5795   -6.7463   26.8138 H   0  0  0  0  0  0  0  0  0  0  0  0
    8.9966   -8.0064   25.6368 H   0  0  0  0  0  0  0  0  0  0  0  0
    6.8044    0.4388   16.8592 H   0  0  0  0  0  0  0  0  0  0  0  0
    8.9776   -4.7057   26.5317 H   0  0  0  0  0  0  0  0  0  0  0  0
    8.2409   -1.5618   21.0967 H   0  0  0  0  0  0  0  0  0  0  0  0
  1  3  1  0  0  0  0
  1  4  2  0  0  0  0
  2  5  1  0  0  0  0
  2  6  2  0  0  0  0
  3  7  2  0  0  0  0
  4  8  1  0  0  0  0
  5  9  2  0  0  0  0
  6 14  1  0  0  0  0
  7 15  1  0  0  0  0
  8 15  2  0  0  0  0
  9 16  1  0  0  0  0
 10 12  2  0  0  0  0
 10 17  1  0  0  0  0
 11 13  1  0  0  0  0
 11 17  2  0  0  0  0
 12 18  1  0  0  0  0
 13 18  2  0  0  0  0
 14 16  2  0  0  0  0
 14 19  1  0  0  0  0
 15 23  1  0  0  0  0
 16 26  1  0  0  0  0
 17 27  1  0  0  0  0
 18 29  1  0  0  0  0
 19 25  2  0  0  0  0
 19 28  1  0  0  0  0
 20 24  1  0  0  0  0
 20 27  1  0  0  0  0
 20 30  2  0  0  0  0
 21 28  1  0  0  0  0
 21 29  1  0  0  0  0
 21 31  2  0  0  0  0
 22 24  1  0  0  0  0
 23 29  1  0  0  0  0
 25 26  1  0  0  0  0
  1 32  1  0  0  0  0
  2 33  1  0  0  0  0
  3 34  1  0  0  0  0
  4 35  1  0  0  0  0
  5 36  1  0  0  0  0
  6 37  1  0  0  0  0
  7 38  1  0  0  0  0
  8 39  1  0  0  0  0
  9 40  1  0  0  0  0
 10 41  1  0  0  0  0
 11 42  1  0  0  0  0
 12 43  1  0  0  0  0
 13 44  1  0  0  0  0
 22 45  1  0  0  0  0
 22 46  1  0  0  0  0
 22 47  1  0  0  0  0
 23 48  1  0  0  0  0
 23 49  1  0  0  0  0
 24 50  1  0  0  0  0
 24 51  1  0  0  0  0
 26 52  1  0  0  0  0
 27 53  1  0  0  0  0
 28 54  1  0  0  0  0
M  END
> <clash_score>
1.4986627179605445

> <docking_score>
-5.472719192504883

$$$$
BENZO_60_1
  -OEChem-08212019263D

 51 54  0     0  0  0  0  0  0999 V2000
    4.2750    1.7050   20.8490 C   0  0  0  0  0  0  0  0  0  0  0  0
    3.9160    2.0630   19.5520 C   0  0  0  0  0  0  0  0  0  0  0  0
    5.4210    0.9600   21.0930 C   0  0  0  0  0  0  0  0  0  0  0  0
    4.6890    1.6810   18.4640 C   0  0  0  0  0  0  0  0  0  0  0  0
    8.9960   -2.3380   25.5320 C   0  0  0  0  0  0  0  0  0  0  0  0
    9.6730   -3.4710   23.5300 C   0  0  0  0  0  0  0  0  0  0  0  0
    9.0720   -1.1280   24.8640 C   0  0  0  0  0  0  0  0  0  0  0  0
    9.7200   -2.2600   22.8630 C   0  0  0  0  0  0  0  0  0  0  0  0
   12.2913    1.4279   22.6355 C   0  0  0  0  0  0  0  0  0  0  0  0
   13.6024    1.4661   23.0564 C   0  0  0  0  0  0  0  0  0  0  0  0
   12.0284    1.3764   24.9443 C   0  0  0  0  0  0  0  0  0  0  0  0
    6.1790    0.5730   19.9990 C   0  0  0  0  0  0  0  0  0  0  0  0
   11.3794    1.3761   23.7290 C   0  0  0  0  0  0  0  0  0  0  0  0
    5.8300    0.9190   18.6970 C   0  0  0  0  0  0  0  0  0  0  0  0
    9.3070   -3.5340   24.8780 C   0  0  0  0  0  0  0  0  0  0  0  0
    9.3350   -1.0880   23.5010 C   0  0  0  0  0  0  0  0  0  0  0  0
    7.3170   -0.1610   19.8550 C   0  0  0  0  0  0  0  0  0  0  0  0
    9.5334   -6.0236   25.0414 C   0  0  0  0  0  0  0  0  0  0  0  0
    9.0420    0.3700   21.5280 C   0  0  0  0  0  0  0  0  0  0  0  0
   10.6330   -7.3746   26.8775 C   0  0  0  0  0  0  0  0  0  0  0  0
    9.8870    1.3260   23.5730 C   0  0  0  0  0  0  0  0  0  0  0  0
    9.3523   -7.0865   26.1149 C   0  0  0  0  0  0  0  0  0  0  0  0
    7.6390   -0.2680   18.5410 N   0  0  0  0  0  0  0  0  0  0  0  0
    6.7580    0.3810   17.8350 N   0  0  0  0  0  0  0  0  0  0  0  0
    9.2546   -4.7422   25.5438 N   0  0  0  0  0  0  0  0  0  0  0  0
    8.1890   -0.7180   20.8700 N   0  0  0  0  0  0  0  0  0  0  0  0
    9.4560    0.1560   22.8130 N   0  0  0  0  0  0  0  0  0  0  0  0
    9.8806   -6.3053   23.8992 O   0  0  0  0  0  0  0  0  0  0  0  0
    9.2690    1.4140   20.9380 O   0  0  0  0  0  0  0  0  0  0  0  0
   13.7301    1.4394   24.7638 S   0  0  0  0  0  0  0  0  0  0  0  0
    3.6468    2.0173   21.6825 H   0  0  0  0  0  0  0  0  0  0  0  0
    3.0153    2.6527   19.3907 H   0  0  0  0  0  0  0  0  0  0  0  0
    5.7015    0.6980   22.1071 H   0  0  0  0  0  0  0  0  0  0  0  0
    4.4064    1.9744   17.4453 H   0  0  0  0  0  0  0  0  0  0  0  0
    8.6895   -2.3529   26.5807 H   0  0  0  0  0  0  0  0  0  0  0  0
    9.9262   -4.3897   22.9916 H   0  0  0  0  0  0  0  0  0  0  0  0
    8.9224   -0.1998   25.4238 H   0  0  0  0  0  0  0  0  0  0  0  0
   10.0649   -2.2343   21.8258 H   0  0  0  0  0  0  0  0  0  0  0  0
   12.0045    1.4365   21.5915 H   0  0  0  0  0  0  0  0  0  0  0  0
   14.4914    1.5078   22.4431 H   0  0  0  0  0  0  0  0  0  0  0  0
   11.5886    1.3416   25.9314 H   0  0  0  0  0  0  0  0  0  0  0  0
   11.4241   -7.7171   26.2024 H   0  0  0  0  0  0  0  0  0  0  0  0
   10.4629   -8.1530   27.6277 H   0  0  0  0  0  0  0  0  0  0  0  0
   10.9949   -6.4779   27.3912 H   0  0  0  0  0  0  0  0  0  0  0  0
    9.3974    1.2912   24.5523 H   0  0  0  0  0  0  0  0  0  0  0  0
    9.5159    2.2168   23.0553 H   0  0  0  0  0  0  0  0  0  0  0  0
    8.5795   -6.7463   26.8138 H   0  0  0  0  0  0  0  0  0  0  0  0
    8.9966   -8.0064   25.6368 H   0  0  0  0  0  0  0  0  0  0  0  0
    6.8044    0.4388   16.8592 H   0  0  0  0  0  0  0  0  0  0  0  0
    8.9776   -4.7057   26.5317 H   0  0  0  0  0  0  0  0  0  0  0  0
    8.2409   -1.5618   21.0967 H   0  0  0  0  0  0  0  0  0  0  0  0
  1  2  1  0  0  0  0
  1  3  2  0  0  0  0
  2  4  2  0  0  0  0
  3 12  1  0  0  0  0
  4 14  1  0  0  0  0
  5  7  2  0  0  0  0
  5 15  1  0  0  0  0
  6  8  1  0  0  0  0
  6 15  2  0  0  0  0
  7 16  1  0  0  0  0
  8 16  2  0  0  0  0
  9 10  2  0  0  0  0
  9 13  1  0  0  0  0
 10 30  1  0  0  0  0
 11 13  2  0  0  0  0
 11 30  1  0  0  0  0
 12 14  2  0  0  0  0
 12 17  1  0  0  0  0
 13 21  1  0  0  0  0
 14 24  1  0  0  0  0
 15 25  1  0  0  0  0
 16 27  1  0  0  0  0
 17 23  2  0  0  0  0
 17 26  1  0  0  0  0
 18 22  1  0  0  0  0
 18 25  1  0  0  0  0
 18 28  2  0  0  0  0
 19 26  1  0  0  0  0
 19 27  1  0  0  0  0
 19 29  2  0  0  0  0
 20 22  1  0  0  0  0
 21 27  1  0  0  0  0
 23 24  1  0  0  0  0
  1 31  1  0  0  0  0
  2 32  1  0  0  0  0
  3 33  1  0  0  0  0
  4 34  1  0  0  0  0
  5 35  1  0  0  0  0
  6 36  1  0  0  0  0
  7 37  1  0  0  0  0
  8 38  1  0  0  0  0
  9 39  1  0  0  0  0
 10 40  1  0  0  0  0
 11 41  1  0  0  0  0
 20 42  1  0  0  0  0
 20 43  1  0  0  0  0
 20 44  1  0  0  0  0
 21 45  1  0  0  0  0
 21 46  1  0  0  0  0
 22 47  1  0  0  0  0
 22 48  1  0  0  0  0
 24 49  1  0  0  0  0
 25 50  1  0  0  0  0
 26 51  1  0  0  0  0
M  END
> <clash_score>
1.4986627179605445

> <docking_score>
-5.551572799682617

$$$$
BENZO_56_1
  -OEChem-08212019263D

 49 52  0     0  0  0  0  0  0999 V2000
    4.2750    1.7050   20.8490 C   0  0  0  0  0  0  0  0  0  0  0  0
    3.9160    2.0630   19.5520 C   0  0  0  0  0  0  0  0  0  0  0  0
    5.4210    0.9600   21.0930 C   0  0  0  0  0  0  0  0  0  0  0  0
    4.6890    1.6810   18.4640 C   0  0  0  0  0  0  0  0  0  0  0  0
    9.0720   -1.1280   24.8640 C   0  0  0  0  0  0  0  0  0  0  0  0
    9.7200   -2.2600   22.8630 C   0  0  0  0  0  0  0  0  0  0  0  0
    8.9960   -2.3380   25.5320 C   0  0  0  0  0  0  0  0  0  0  0  0
    9.6730   -3.4710   23.5300 C   0  0  0  0  0  0  0  0  0  0  0  0
   12.2913    1.4279   22.6355 C   0  0  0  0  0  0  0  0  0  0  0  0
   13.6024    1.4661   23.0564 C   0  0  0  0  0  0  0  0  0  0  0  0
   12.0284    1.3764   24.9443 C   0  0  0  0  0  0  0  0  0  0  0  0
    6.1790    0.5730   19.9990 C   0  0  0  0  0  0  0  0  0  0  0  0
   11.3794    1.3761   23.7290 C   0  0  0  0  0  0  0  0  0  0  0  0
    5.8300    0.9190   18.6970 C   0  0  0  0  0  0  0  0  0  0  0  0
    9.3350   -1.0880   23.5010 C   0  0  0  0  0  0  0  0  0  0  0  0
    9.3070   -3.5340   24.8780 C   0  0  0  0  0  0  0  0  0  0  0  0
    7.3170   -0.1610   19.8550 C   0  0  0  0  0  0  0  0  0  0  0  0
    9.0420    0.3700   21.5280 C   0  0  0  0  0  0  0  0  0  0  0  0
    8.0128   -5.2151   26.1416 C   0  0  0  0  0  0  0  0  0  0  0  0
   10.4372   -5.5860   25.6589 C   0  0  0  0  0  0  0  0  0  0  0  0
    9.8870    1.3260   23.5730 C   0  0  0  0  0  0  0  0  0  0  0  0
    7.6390   -0.2680   18.5410 N   0  0  0  0  0  0  0  0  0  0  0  0
    6.7580    0.3810   17.8350 N   0  0  0  0  0  0  0  0  0  0  0  0
    8.1890   -0.7180   20.8700 N   0  0  0  0  0  0  0  0  0  0  0  0
    9.4560    0.1560   22.8130 N   0  0  0  0  0  0  0  0  0  0  0  0
    9.2543   -4.7552   25.5519 N   0  0  0  0  0  0  0  0  0  0  0  0
    9.2690    1.4140   20.9380 O   0  0  0  0  0  0  0  0  0  0  0  0
   13.7301    1.4394   24.7638 S   0  0  0  0  0  0  0  0  0  0  0  0
    3.6468    2.0173   21.6825 H   0  0  0  0  0  0  0  0  0  0  0  0
    3.0153    2.6527   19.3907 H   0  0  0  0  0  0  0  0  0  0  0  0
    5.7015    0.6980   22.1071 H   0  0  0  0  0  0  0  0  0  0  0  0
    4.4064    1.9744   17.4453 H   0  0  0  0  0  0  0  0  0  0  0  0
    8.9217   -0.1995   25.4232 H   0  0  0  0  0  0  0  0  0  0  0  0
   10.0643   -2.2341   21.8254 H   0  0  0  0  0  0  0  0  0  0  0  0
    8.6893   -2.3540   26.5808 H   0  0  0  0  0  0  0  0  0  0  0  0
    9.9257   -4.3898   22.9921 H   0  0  0  0  0  0  0  0  0  0  0  0
   12.0045    1.4365   21.5915 H   0  0  0  0  0  0  0  0  0  0  0  0
   14.4914    1.5078   22.4431 H   0  0  0  0  0  0  0  0  0  0  0  0
   11.5886    1.3416   25.9314 H   0  0  0  0  0  0  0  0  0  0  0  0
    8.1744   -6.1904   26.6238 H   0  0  0  0  0  0  0  0  0  0  0  0
    7.6718   -4.4870   26.8924 H   0  0  0  0  0  0  0  0  0  0  0  0
    7.2494   -5.3166   25.3561 H   0  0  0  0  0  0  0  0  0  0  0  0
   10.1946   -6.4995   26.2216 H   0  0  0  0  0  0  0  0  0  0  0  0
   10.7865   -5.8577   24.6518 H   0  0  0  0  0  0  0  0  0  0  0  0
   11.2285   -5.0312   26.1842 H   0  0  0  0  0  0  0  0  0  0  0  0
    9.3974    1.2912   24.5523 H   0  0  0  0  0  0  0  0  0  0  0  0
    9.5159    2.2168   23.0553 H   0  0  0  0  0  0  0  0  0  0  0  0
    6.8044    0.4388   16.8592 H   0  0  0  0  0  0  0  0  0  0  0  0
    8.2409   -1.5618   21.0967 H   0  0  0  0  0  0  0  0  0  0  0  0
  1  2  1  0  0  0  0
  1  3  2  0  0  0  0
  2  4  2  0  0  0  0
  3 12  1  0  0  0  0
  4 14  1  0  0  0  0
  5  7  2  0  0  0  0
  5 15  1  0  0  0  0
  6  8  1  0  0  0  0
  6 15  2  0  0  0  0
  7 16  1  0  0  0  0
  8 16  2  0  0  0  0
  9 10  2  0  0  0  0
  9 13  1  0  0  0  0
 10 28  1  0  0  0  0
 11 13  2  0  0  0  0
 11 28  1  0  0  0  0
 12 14  2  0  0  0  0
 12 17  1  0  0  0  0
 13 21  1  0  0  0  0
 14 23  1  0  0  0  0
 15 25  1  0  0  0  0
 16 26  1  0  0  0  0
 17 22  2  0  0  0  0
 17 24  1  0  0  0  0
 18 24  1  0  0  0  0
 18 25  1  0  0  0  0
 18 27  2  0  0  0  0
 19 26  1  0  0  0  0
 20 26  1  0  0  0  0
 21 25  1  0  0  0  0
 22 23  1  0  0  0  0
  1 29  1  0  0  0  0
  2 30  1  0  0  0  0
  3 31  1  0  0  0  0
  4 32  1  0  0  0  0
  5 33  1  0  0  0  0
  6 34  1  0  0  0  0
  7 35  1  0  0  0  0
  8 36  1  0  0  0  0
  9 37  1  0  0  0  0
 10 38  1  0  0  0  0
 11 39  1  0  0  0  0
 19 40  1  0  0  0  0
 19 41  1  0  0  0  0
 19 42  1  0  0  0  0
 20 43  1  0  0  0  0
 20 44  1  0  0  0  0
 20 45  1  0  0  0  0
 21 46  1  0  0  0  0
 21 47  1  0  0  0  0
 23 48  1  0  0  0  0
 24 49  1  0  0  0  0
M  END
> <clash_score>
0

> <docking_score>
-8.745848655700684

$$$$
BENZO_62_1
  -OEChem-08212019263D

 54 57  0     0  0  0  0  0  0999 V2000
    4.2750    1.7050   20.8490 C   0  0  0  0  0  0  0  0  0  0  0  0
    3.9160    2.0630   19.5520 C   0  0  0  0  0  0  0  0  0  0  0  0
    6.4089    2.0844   24.8766 C   0  0  0  0  0  0  0  0  0  0  0  0
    5.4210    0.9600   21.0930 C   0  0  0  0  0  0  0  0  0  0  0  0
    7.4847    1.4191   24.2887 C   0  0  0  0  0  0  0  0  0  0  0  0
    4.6890    1.6810   18.4640 C   0  0  0  0  0  0  0  0  0  0  0  0
    8.9960   -2.3380   25.5320 C   0  0  0  0  0  0  0  0  0  0  0  0
    9.6730   -3.4710   23.5300 C   0  0  0  0  0  0  0  0  0  0  0  0
    9.0720   -1.1280   24.8640 C   0  0  0  0  0  0  0  0  0  0  0  0
    9.7200   -2.2600   22.8630 C   0  0  0  0  0  0  0  0  0  0  0  0
    6.5777    3.3741   25.3805 C   0  0  0  0  0  0  0  0  0  0  0  0
    8.8980    3.3330   24.7088 C   0  0  0  0  0  0  0  0  0  0  0  0
    6.1790    0.5730   19.9990 C   0  0  0  0  0  0  0  0  0  0  0  0
    8.7292    2.0433   24.2048 C   0  0  0  0  0  0  0  0  0  0  0  0
    5.8300    0.9190   18.6970 C   0  0  0  0  0  0  0  0  0  0  0  0
    9.3070   -3.5340   24.8780 C   0  0  0  0  0  0  0  0  0  0  0  0
    9.3350   -1.0880   23.5010 C   0  0  0  0  0  0  0  0  0  0  0  0
    7.8222    3.9984   25.2966 C   0  0  0  0  0  0  0  0  0  0  0  0
    7.3170   -0.1610   19.8550 C   0  0  0  0  0  0  0  0  0  0  0  0
    9.5334   -6.0236   25.0414 C   0  0  0  0  0  0  0  0  0  0  0  0
    9.0420    0.3700   21.5280 C   0  0  0  0  0  0  0  0  0  0  0  0
   10.6330   -7.3746   26.8775 C   0  0  0  0  0  0  0  0  0  0  0  0
    9.8870    1.3260   23.5730 C   0  0  0  0  0  0  0  0  0  0  0  0
    9.3523   -7.0865   26.1149 C   0  0  0  0  0  0  0  0  0  0  0  0
    7.6390   -0.2680   18.5410 N   0  0  0  0  0  0  0  0  0  0  0  0
    6.7580    0.3810   17.8350 N   0  0  0  0  0  0  0  0  0  0  0  0
    9.2546   -4.7422   25.5438 N   0  0  0  0  0  0  0  0  0  0  0  0
    8.1890   -0.7180   20.8700 N   0  0  0  0  0  0  0  0  0  0  0  0
    9.4560    0.1560   22.8130 N   0  0  0  0  0  0  0  0  0  0  0  0
    9.8806   -6.3053   23.8992 O   0  0  0  0  0  0  0  0  0  0  0  0
    9.2690    1.4140   20.9380 O   0  0  0  0  0  0  0  0  0  0  0  0
    8.0301    5.5891   25.9196 Cl  0  0  0  0  0  0  0  0  0  0  0  0
    3.6468    2.0173   21.6825 H   0  0  0  0  0  0  0  0  0  0  0  0
    3.0153    2.6527   19.3907 H   0  0  0  0  0  0  0  0  0  0  0  0
    5.4400    1.5979   24.9418 H   0  0  0  0  0  0  0  0  0  0  0  0
    5.7015    0.6980   22.1071 H   0  0  0  0  0  0  0  0  0  0  0  0
    7.3441    0.4143   23.8988 H   0  0  0  0  0  0  0  0  0  0  0  0
    4.4064    1.9744   17.4453 H   0  0  0  0  0  0  0  0  0  0  0  0
    8.6895   -2.3529   26.5807 H   0  0  0  0  0  0  0  0  0  0  0  0
    9.9262   -4.3897   22.9916 H   0  0  0  0  0  0  0  0  0  0  0  0
    8.9224   -0.1998   25.4238 H   0  0  0  0  0  0  0  0  0  0  0  0
   10.0649   -2.2343   21.8258 H   0  0  0  0  0  0  0  0  0  0  0  0
    5.7304    3.8806   25.8363 H   0  0  0  0  0  0  0  0  0  0  0  0
    9.8703    3.8156   24.6405 H   0  0  0  0  0  0  0  0  0  0  0  0
   11.4241   -7.7171   26.2024 H   0  0  0  0  0  0  0  0  0  0  0  0
   10.4629   -8.1530   27.6277 H   0  0  0  0  0  0  0  0  0  0  0  0
   10.9949   -6.4779   27.3912 H   0  0  0  0  0  0  0  0  0  0  0  0
   10.4274    1.9911   22.8906 H   0  0  0  0  0  0  0  0  0  0  0  0
   10.6011    0.9882   24.3313 H   0  0  0  0  0  0  0  0  0  0  0  0
    8.5795   -6.7463   26.8138 H   0  0  0  0  0  0  0  0  0  0  0  0
    8.9966   -8.0064   25.6368 H   0  0  0  0  0  0  0  0  0  0  0  0
    6.8044    0.4388   16.8592 H   0  0  0  0  0  0  0  0  0  0  0  0
    8.9776   -4.7057   26.5317 H   0  0  0  0  0  0  0  0  0  0  0  0
    8.2409   -1.5618   21.0967 H   0  0  0  0  0  0  0  0  0  0  0  0
  1  2  1  0  0  0  0
  1  4  2  0  0  0  0
  2  6  2  0  0  0  0
  3  5  2  0  0  0  0
  3 11  1  0  0  0  0
  4 13  1  0  0  0  0
  5 14  1  0  0  0  0
  6 15  1  0  0  0  0
  7  9  2  0  0  0  0
  7 16  1  0  0  0  0
  8 10  1  0  0  0  0
  8 16  2  0  0  0  0
  9 17  1  0  0  0  0
 10 17  2  0  0  0  0
 11 18  2  0  0  0  0
 12 14  2  0  0  0  0
 12 18  1  0  0  0  0
 13 15  2  0  0  0  0
 13 19  1  0  0  0  0
 14 23  1  0  0  0  0
 15 26  1  0  0  0  0
 16 27  1  0  0  0  0
 17 29  1  0  0  0  0
 18 32  1  0  0  0  0
 19 25  2  0  0  0  0
 19 28  1  0  0  0  0
 20 24  1  0  0  0  0
 20 27  1  0  0  0  0
 20 30  2  0  0  0  0
 21 28  1  0  0  0  0
 21 29  1  0  0  0  0
 21 31  2  0  0  0  0
 22 24  1  0  0  0  0
 23 29  1  0  0  0  0
 25 26  1  0  0  0  0
  1 33  1  0  0  0  0
  2 34  1  0  0  0  0
  3 35  1  0  0  0  0
  4 36  1  0  0  0  0
  5 37  1  0  0  0  0
  6 38  1  0  0  0  0
  7 39  1  0  0  0  0
  8 40  1  0  0  0  0
  9 41  1  0  0  0  0
 10 42  1  0  0  0  0
 11 43  1  0  0  0  0
 12 44  1  0  0  0  0
 22 45  1  0  0  0  0
 22 46  1  0  0  0  0
 22 47  1  0  0  0  0
 23 48  1  0  0  0  0
 23 49  1  0  0  0  0
 24 50  1  0  0  0  0
 24 51  1  0  0  0  0
 26 52  1  0  0  0  0
 27 53  1  0  0  0  0
 28 54  1  0  0  0  0
M  END
> <clash_score>
1.4986627179605445

> <docking_score>
-4.858743667602539

$$$$
BENZO_63_1
  -OEChem-08212019263D

 54 57  0     0  0  0  0  0  0999 V2000
    4.2750    1.7050   20.8490 C   0  0  0  0  0  0  0  0  0  0  0  0
    3.9160    2.0630   19.5520 C   0  0  0  0  0  0  0  0  0  0  0  0
    5.4210    0.9600   21.0930 C   0  0  0  0  0  0  0  0  0  0  0  0
    4.6890    1.6810   18.4640 C   0  0  0  0  0  0  0  0  0  0  0  0
    8.9960   -2.3380   25.5320 C   0  0  0  0  0  0  0  0  0  0  0  0
    9.6730   -3.4710   23.5300 C   0  0  0  0  0  0  0  0  0  0  0  0
    9.0720   -1.1280   24.8640 C   0  0  0  0  0  0  0  0  0  0  0  0
    9.7200   -2.2600   22.8630 C   0  0  0  0  0  0  0  0  0  0  0  0
   12.1233    1.3811   24.9242 C   0  0  0  0  0  0  0  0  0  0  0  0
   12.3262    1.4247   22.7351 C   0  0  0  0  0  0  0  0  0  0  0  0
    6.1790    0.5730   19.9990 C   0  0  0  0  0  0  0  0  0  0  0  0
   11.3794    1.3761   23.7290 C   0  0  0  0  0  0  0  0  0  0  0  0
    5.8300    0.9190   18.6970 C   0  0  0  0  0  0  0  0  0  0  0  0
    9.3070   -3.5340   24.8780 C   0  0  0  0  0  0  0  0  0  0  0  0
    9.3350   -1.0880   23.5010 C   0  0  0  0  0  0  0  0  0  0  0  0
    7.3170   -0.1610   19.8550 C   0  0  0  0  0  0  0  0  0  0  0  0
    9.5334   -6.0236   25.0414 C   0  0  0  0  0  0  0  0  0  0  0  0
    9.0420    0.3700   21.5280 C   0  0  0  0  0  0  0  0  0  0  0  0
   10.6330   -7.3746   26.8775 C   0  0  0  0  0  0  0  0  0  0  0  0
   14.8305    1.5084   22.7418 C   0  0  0  0  0  0  0  0  0  0  0  0
    9.8870    1.3260   23.5730 C   0  0  0  0  0  0  0  0  0  0  0  0
    9.3523   -7.0865   26.1149 C   0  0  0  0  0  0  0  0  0  0  0  0
   13.4410    1.4289   24.7112 N   0  0  0  0  0  0  0  0  0  0  0  0
    7.6390   -0.2680   18.5410 N   0  0  0  0  0  0  0  0  0  0  0  0
    6.7580    0.3810   17.8350 N   0  0  0  0  0  0  0  0  0  0  0  0
   13.5326    1.4543   23.3706 N   0  0  0  0  0  0  0  0  0  0  0  0
    9.2546   -4.7422   25.5438 N   0  0  0  0  0  0  0  0  0  0  0  0
    8.1890   -0.7180   20.8700 N   0  0  0  0  0  0  0  0  0  0  0  0
    9.4560    0.1560   22.8130 N   0  0  0  0  0  0  0  0  0  0  0  0
    9.8806   -6.3053   23.8992 O   0  0  0  0  0  0  0  0  0  0  0  0
    9.2690    1.4140   20.9380 O   0  0  0  0  0  0  0  0  0  0  0  0
    3.6468    2.0173   21.6825 H   0  0  0  0  0  0  0  0  0  0  0  0
    3.0153    2.6527   19.3907 H   0  0  0  0  0  0  0  0  0  0  0  0
    5.7015    0.6980   22.1071 H   0  0  0  0  0  0  0  0  0  0  0  0
    4.4064    1.9744   17.4453 H   0  0  0  0  0  0  0  0  0  0  0  0
    8.6895   -2.3529   26.5807 H   0  0  0  0  0  0  0  0  0  0  0  0
    9.9262   -4.3897   22.9916 H   0  0  0  0  0  0  0  0  0  0  0  0
    8.9224   -0.1998   25.4238 H   0  0  0  0  0  0  0  0  0  0  0  0
   10.0649   -2.2343   21.8258 H   0  0  0  0  0  0  0  0  0  0  0  0
   11.7624    1.3510   25.9426 H   0  0  0  0  0  0  0  0  0  0  0  0
   12.2462    1.4390   21.6566 H   0  0  0  0  0  0  0  0  0  0  0  0
   11.4241   -7.7171   26.2024 H   0  0  0  0  0  0  0  0  0  0  0  0
   10.4629   -8.1530   27.6277 H   0  0  0  0  0  0  0  0  0  0  0  0
   10.9949   -6.4779   27.3912 H   0  0  0  0  0  0  0  0  0  0  0  0
   15.0990    2.5601   22.6124 H   0  0  0  0  0  0  0  0  0  0  0  0
   15.5636    1.0018   23.3756 H   0  0  0  0  0  0  0  0  0  0  0  0
   14.7841    1.0025   21.7733 H   0  0  0  0  0  0  0  0  0  0  0  0
    9.3974    1.2912   24.5523 H   0  0  0  0  0  0  0  0  0  0  0  0
    9.5159    2.2168   23.0553 H   0  0  0  0  0  0  0  0  0  0  0  0
    8.5795   -6.7463   26.8138 H   0  0  0  0  0  0  0  0  0  0  0  0
    8.9966   -8.0064   25.6368 H   0  0  0  0  0  0  0  0  0  0  0  0
    6.8044    0.4388   16.8592 H   0  0  0  0  0  0  0  0  0  0  0  0
    8.9776   -4.7057   26.5317 H   0  0  0  0  0  0  0  0  0  0  0  0
    8.2409   -1.5618   21.0967 H   0  0  0  0  0  0  0  0  0  0  0  0
  1  2  1  0  0  0  0
  1  3  2  0  0  0  0
  2  4  2  0  0  0  0
  3 11  1  0  0  0  0
  4 13  1  0  0  0  0
  5  7  2  0  0  0  0
  5 14  1  0  0  0  0
  6  8  1  0  0  0  0
  6 14  2  0  0  0  0
  7 15  1  0  0  0  0
  8 15  2  0  0  0  0
  9 12  1  0  0  0  0
  9 23  2  0  0  0  0
 10 12  2  0  0  0  0
 10 26  1  0  0  0  0
 11 13  2  0  0  0  0
 11 16  1  0  0  0  0
 12 21  1  0  0  0  0
 13 25  1  0  0  0  0
 14 27  1  0  0  0  0
 15 29  1  0  0  0  0
 16 24  2  0  0  0  0
 16 28  1  0  0  0  0
 17 22  1  0  0  0  0
 17 27  1  0  0  0  0
 17 30  2  0  0  0  0
 18 28  1  0  0  0  0
 18 29  1  0  0  0  0
 18 31  2  0  0  0  0
 19 22  1  0  0  0  0
 20 26  1  0  0  0  0
 21 29  1  0  0  0  0
 23 26  1  0  0  0  0
 24 25  1  0  0  0  0
  1 32  1  0  0  0  0
  2 33  1  0  0  0  0
  3 34  1  0  0  0  0
  4 35  1  0  0  0  0
  5 36  1  0  0  0  0
  6 37  1  0  0  0  0
  7 38  1  0  0  0  0
  8 39  1  0  0  0  0
  9 40  1  0  0  0  0
 10 41  1  0  0  0  0
 19 42  1  0  0  0  0
 19 43  1  0  0  0  0
 19 44  1  0  0  0  0
 20 45  1  0  0  0  0
 20 46  1  0  0  0  0
 20 47  1  0  0  0  0
 21 48  1  0  0  0  0
 21 49  1  0  0  0  0
 22 50  1  0  0  0  0
 22 51  1  0  0  0  0
 25 52  1  0  0  0  0
 27 53  1  0  0  0  0
 28 54  1  0  0  0  0
M  END
> <clash_score>
1.4986627179605445

> <docking_score>
-5.188854217529297

$$$$
BENZO_66_1
  -OEChem-08212019303D

 59 63  0     0  0  0  0  0  0999 V2000
    4.2750    1.7050   20.8490 C   0  0  0  0  0  0  0  0  0  0  0  0
    3.9160    2.0630   19.5520 C   0  0  0  0  0  0  0  0  0  0  0  0
    6.4089    2.0844   24.8766 C   0  0  0  0  0  0  0  0  0  0  0  0
    5.4210    0.9600   21.0930 C   0  0  0  0  0  0  0  0  0  0  0  0
    7.4847    1.4191   24.2887 C   0  0  0  0  0  0  0  0  0  0  0  0
    4.6890    1.6810   18.4640 C   0  0  0  0  0  0  0  0  0  0  0  0
    8.9960   -2.3380   25.5320 C   0  0  0  0  0  0  0  0  0  0  0  0
    9.6730   -3.4710   23.5300 C   0  0  0  0  0  0  0  0  0  0  0  0
    9.0720   -1.1280   24.8640 C   0  0  0  0  0  0  0  0  0  0  0  0
    9.7200   -2.2600   22.8630 C   0  0  0  0  0  0  0  0  0  0  0  0
    6.5777    3.3741   25.3805 C   0  0  0  0  0  0  0  0  0  0  0  0
    8.8980    3.3330   24.7088 C   0  0  0  0  0  0  0  0  0  0  0  0
    6.1790    0.5730   19.9990 C   0  0  0  0  0  0  0  0  0  0  0  0
    8.7292    2.0433   24.2048 C   0  0  0  0  0  0  0  0  0  0  0  0
    5.8300    0.9190   18.6970 C   0  0  0  0  0  0  0  0  0  0  0  0
    9.3070   -3.5340   24.8780 C   0  0  0  0  0  0  0  0  0  0  0  0
    9.3350   -1.0880   23.5010 C   0  0  0  0  0  0  0  0  0  0  0  0
    7.8222    3.9984   25.2966 C   0  0  0  0  0  0  0  0  0  0  0  0
    7.3170   -0.1610   19.8550 C   0  0  0  0  0  0  0  0  0  0  0  0
    9.0420    0.3700   21.5280 C   0  0  0  0  0  0  0  0  0  0  0  0
    7.3635   -6.1361   27.1888 C   0  0  0  0  0  0  0  0  0  0  0  0
    8.1961   -4.9735   27.7341 C   0  0  0  0  0  0  0  0  0  0  0  0
    7.1942   -6.0394   25.6709 C   0  0  0  0  0  0  0  0  0  0  0  0
    9.5196   -4.8490   26.9797 C   0  0  0  0  0  0  0  0  0  0  0  0
    8.5442   -5.8838   24.9639 C   0  0  0  0  0  0  0  0  0  0  0  0
    9.8870    1.3260   23.5730 C   0  0  0  0  0  0  0  0  0  0  0  0
    7.6390   -0.2680   18.5410 N   0  0  0  0  0  0  0  0  0  0  0  0
    6.7580    0.3810   17.8350 N   0  0  0  0  0  0  0  0  0  0  0  0
    9.2562   -4.7384   25.5422 N   0  0  0  0  0  0  0  0  0  0  0  0
    8.1890   -0.7180   20.8700 N   0  0  0  0  0  0  0  0  0  0  0  0
    9.4560    0.1560   22.8130 N   0  0  0  0  0  0  0  0  0  0  0  0
    9.2690    1.4140   20.9380 O   0  0  0  0  0  0  0  0  0  0  0  0
    8.0301    5.5891   25.9196 Cl  0  0  0  0  0  0  0  0  0  0  0  0
    3.6468    2.0173   21.6825 H   0  0  0  0  0  0  0  0  0  0  0  0
    3.0153    2.6527   19.3907 H   0  0  0  0  0  0  0  0  0  0  0  0
    5.4400    1.5979   24.9418 H   0  0  0  0  0  0  0  0  0  0  0  0
    5.7015    0.6980   22.1071 H   0  0  0  0  0  0  0  0  0  0  0  0
    7.3441    0.4143   23.8988 H   0  0  0  0  0  0  0  0  0  0  0  0
    4.4064    1.9744   17.4453 H   0  0  0  0  0  0  0  0  0  0  0  0
    8.6905   -2.3533   26.5810 H   0  0  0  0  0  0  0  0  0  0  0  0
    9.9266   -4.3896   22.9917 H   0  0  0  0  0  0  0  0  0  0  0  0
    8.9233   -0.1992   25.4231 H   0  0  0  0  0  0  0  0  0  0  0  0
   10.0650   -2.2330   21.8256 H   0  0  0  0  0  0  0  0  0  0  0  0
    5.7304    3.8806   25.8363 H   0  0  0  0  0  0  0  0  0  0  0  0
    9.8703    3.8156   24.6405 H   0  0  0  0  0  0  0  0  0  0  0  0
    7.8482   -7.0901   27.4469 H   0  0  0  0  0  0  0  0  0  0  0  0
    6.3760   -6.1438   27.6724 H   0  0  0  0  0  0  0  0  0  0  0  0
    7.6307   -4.0424   27.6403 H   0  0  0  0  0  0  0  0  0  0  0  0
    8.3915   -5.1310   28.7968 H   0  0  0  0  0  0  0  0  0  0  0  0
    6.6888   -6.9376   25.3010 H   0  0  0  0  0  0  0  0  0  0  0  0
    6.5515   -5.1859   25.4257 H   0  0  0  0  0  0  0  0  0  0  0  0
   10.0492   -3.9640   27.3414 H   0  0  0  0  0  0  0  0  0  0  0  0
   10.1431   -5.7254   27.1778 H   0  0  0  0  0  0  0  0  0  0  0  0
    9.1338   -6.7931   25.0868 H   0  0  0  0  0  0  0  0  0  0  0  0
    8.3656   -5.7264   23.8998 H   0  0  0  0  0  0  0  0  0  0  0  0
   10.4274    1.9911   22.8906 H   0  0  0  0  0  0  0  0  0  0  0  0
   10.6011    0.9882   24.3313 H   0  0  0  0  0  0  0  0  0  0  0  0
    6.8044    0.4388   16.8592 H   0  0  0  0  0  0  0  0  0  0  0  0
    8.2565   -1.5523   21.1108 H   0  0  0  0  0  0  0  0  0  0  0  0
  1  2  1  0  0  0  0
  1  4  2  0  0  0  0
  2  6  2  0  0  0  0
  3  5  2  0  0  0  0
  3 11  1  0  0  0  0
  4 13  1  0  0  0  0
  5 14  1  0  0  0  0
  6 15  1  0  0  0  0
  7  9  2  0  0  0  0
  7 16  1  0  0  0  0
  8 10  1  0  0  0  0
  8 16  2  0  0  0  0
  9 17  1  0  0  0  0
 10 17  2  0  0  0  0
 11 18  2  0  0  0  0
 12 14  2  0  0  0  0
 12 18  1  0  0  0  0
 13 15  2  0  0  0  0
 13 19  1  0  0  0  0
 14 26  1  0  0  0  0
 15 28  1  0  0  0  0
 16 29  1  0  0  0  0
 17 31  1  0  0  0  0
 18 33  1  0  0  0  0
 19 27  2  0  0  0  0
 19 30  1  0  0  0  0
 20 30  1  0  0  0  0
 20 31  1  0  0  0  0
 20 32  2  0  0  0  0
 21 22  1  0  0  0  0
 21 23  1  0  0  0  0
 22 24  1  0  0  0  0
 23 25  1  0  0  0  0
 24 29  1  0  0  0  0
 25 29  1  0  0  0  0
 26 31  1  0  0  0  0
 27 28  1  0  0  0  0
  1 34  1  0  0  0  0
  2 35  1  0  0  0  0
  3 36  1  0  0  0  0
  4 37  1  0  0  0  0
  5 38  1  0  0  0  0
  6 39  1  0  0  0  0
  7 40  1  0  0  0  0
  8 41  1  0  0  0  0
  9 42  1  0  0  0  0
 10 43  1  0  0  0  0
 11 44  1  0  0  0  0
 12 45  1  0  0  0  0
 21 46  1  0  0  0  0
 21 47  1  0  0  0  0
 22 48  1  0  0  0  0
 22 49  1  0  0  0  0
 23 50  1  0  0  0  0
 23 51  1  0  0  0  0
 24 52  1  0  0  0  0
 24 53  1  0  0  0  0
 25 54  1  0  0  0  0
 25 55  1  0  0  0  0
 26 56  1  0  0  0  0
 26 57  1  0  0  0  0
 28 58  1  0  0  0  0
 30 59  1  0  0  0  0
M  END
> <clash_score>
0

> <docking_score>
-7.148789405822754

$$$$
BENZO_67_1
  -OEChem-08212019303D

 59 63  0     0  0  0  0  0  0999 V2000
    4.2750    1.7050   20.8490 C   0  0  0  0  0  0  0  0  0  0  0  0
    3.9160    2.0630   19.5520 C   0  0  0  0  0  0  0  0  0  0  0  0
    5.4210    0.9600   21.0930 C   0  0  0  0  0  0  0  0  0  0  0  0
    4.6890    1.6810   18.4640 C   0  0  0  0  0  0  0  0  0  0  0  0
    8.9960   -2.3380   25.5320 C   0  0  0  0  0  0  0  0  0  0  0  0
    9.6730   -3.4710   23.5300 C   0  0  0  0  0  0  0  0  0  0  0  0
    9.0720   -1.1280   24.8640 C   0  0  0  0  0  0  0  0  0  0  0  0
    9.7200   -2.2600   22.8630 C   0  0  0  0  0  0  0  0  0  0  0  0
   12.1233    1.3811   24.9242 C   0  0  0  0  0  0  0  0  0  0  0  0
   12.3261    1.4247   22.7351 C   0  0  0  0  0  0  0  0  0  0  0  0
    6.1790    0.5730   19.9990 C   0  0  0  0  0  0  0  0  0  0  0  0
   11.3794    1.3761   23.7290 C   0  0  0  0  0  0  0  0  0  0  0  0
    5.8300    0.9190   18.6970 C   0  0  0  0  0  0  0  0  0  0  0  0
    9.3070   -3.5340   24.8780 C   0  0  0  0  0  0  0  0  0  0  0  0
    9.3350   -1.0880   23.5010 C   0  0  0  0  0  0  0  0  0  0  0  0
    7.3170   -0.1610   19.8550 C   0  0  0  0  0  0  0  0  0  0  0  0
    9.0420    0.3700   21.5280 C   0  0  0  0  0  0  0  0  0  0  0  0
    7.3635   -6.1361   27.1888 C   0  0  0  0  0  0  0  0  0  0  0  0
    8.1961   -4.9735   27.7341 C   0  0  0  0  0  0  0  0  0  0  0  0
    7.1942   -6.0394   25.6709 C   0  0  0  0  0  0  0  0  0  0  0  0
    9.5196   -4.8490   26.9797 C   0  0  0  0  0  0  0  0  0  0  0  0
    8.5442   -5.8838   24.9639 C   0  0  0  0  0  0  0  0  0  0  0  0
   14.8305    1.5084   22.7418 C   0  0  0  0  0  0  0  0  0  0  0  0
    9.8870    1.3260   23.5730 C   0  0  0  0  0  0  0  0  0  0  0  0
   13.4410    1.4289   24.7112 N   0  0  0  0  0  0  0  0  0  0  0  0
    7.6390   -0.2680   18.5410 N   0  0  0  0  0  0  0  0  0  0  0  0
    6.7580    0.3810   17.8350 N   0  0  0  0  0  0  0  0  0  0  0  0
   13.5326    1.4543   23.3706 N   0  0  0  0  0  0  0  0  0  0  0  0
    9.2562   -4.7384   25.5422 N   0  0  0  0  0  0  0  0  0  0  0  0
    8.1890   -0.7180   20.8700 N   0  0  0  0  0  0  0  0  0  0  0  0
    9.4560    0.1560   22.8130 N   0  0  0  0  0  0  0  0  0  0  0  0
    9.2690    1.4140   20.9380 O   0  0  0  0  0  0  0  0  0  0  0  0
    3.6468    2.0173   21.6825 H   0  0  0  0  0  0  0  0  0  0  0  0
    3.0153    2.6527   19.3907 H   0  0  0  0  0  0  0  0  0  0  0  0
    5.7015    0.6980   22.1071 H   0  0  0  0  0  0  0  0  0  0  0  0
    4.4064    1.9744   17.4453 H   0  0  0  0  0  0  0  0  0  0  0  0
    8.6905   -2.3533   26.5810 H   0  0  0  0  0  0  0  0  0  0  0  0
    9.9266   -4.3896   22.9917 H   0  0  0  0  0  0  0  0  0  0  0  0
    8.9233   -0.1992   25.4231 H   0  0  0  0  0  0  0  0  0  0  0  0
   10.0650   -2.2330   21.8256 H   0  0  0  0  0  0  0  0  0  0  0  0
   11.7624    1.3510   25.9426 H   0  0  0  0  0  0  0  0  0  0  0  0
   12.2462    1.4390   21.6566 H   0  0  0  0  0  0  0  0  0  0  0  0
    7.8482   -7.0901   27.4469 H   0  0  0  0  0  0  0  0  0  0  0  0
    6.3760   -6.1438   27.6724 H   0  0  0  0  0  0  0  0  0  0  0  0
    7.6307   -4.0424   27.6403 H   0  0  0  0  0  0  0  0  0  0  0  0
    8.3915   -5.1310   28.7968 H   0  0  0  0  0  0  0  0  0  0  0  0
    6.6888   -6.9376   25.3010 H   0  0  0  0  0  0  0  0  0  0  0  0
    6.5515   -5.1859   25.4257 H   0  0  0  0  0  0  0  0  0  0  0  0
   10.0492   -3.9640   27.3414 H   0  0  0  0  0  0  0  0  0  0  0  0
   10.1431   -5.7254   27.1778 H   0  0  0  0  0  0  0  0  0  0  0  0
    9.1338   -6.7931   25.0868 H   0  0  0  0  0  0  0  0  0  0  0  0
    8.3656   -5.7264   23.8998 H   0  0  0  0  0  0  0  0  0  0  0  0
   15.0990    2.5601   22.6124 H   0  0  0  0  0  0  0  0  0  0  0  0
   15.5636    1.0018   23.3756 H   0  0  0  0  0  0  0  0  0  0  0  0
   14.7841    1.0025   21.7733 H   0  0  0  0  0  0  0  0  0  0  0  0
    9.3974    1.2912   24.5523 H   0  0  0  0  0  0  0  0  0  0  0  0
    9.5159    2.2168   23.0553 H   0  0  0  0  0  0  0  0  0  0  0  0
    6.8044    0.4388   16.8592 H   0  0  0  0  0  0  0  0  0  0  0  0
    8.2565   -1.5523   21.1108 H   0  0  0  0  0  0  0  0  0  0  0  0
  1  2  1  0  0  0  0
  1  3  2  0  0  0  0
  2  4  2  0  0  0  0
  3 11  1  0  0  0  0
  4 13  1  0  0  0  0
  5  7  2  0  0  0  0
  5 14  1  0  0  0  0
  6  8  1  0  0  0  0
  6 14  2  0  0  0  0
  7 15  1  0  0  0  0
  8 15  2  0  0  0  0
  9 12  1  0  0  0  0
  9 25  2  0  0  0  0
 10 12  2  0  0  0  0
 10 28  1  0  0  0  0
 11 13  2  0  0  0  0
 11 16  1  0  0  0  0
 12 24  1  0  0  0  0
 13 27  1  0  0  0  0
 14 29  1  0  0  0  0
 15 31  1  0  0  0  0
 16 26  2  0  0  0  0
 16 30  1  0  0  0  0
 17 30  1  0  0  0  0
 17 31  1  0  0  0  0
 17 32  2  0  0  0  0
 18 19  1  0  0  0  0
 18 20  1  0  0  0  0
 19 21  1  0  0  0  0
 20 22  1  0  0  0  0
 21 29  1  0  0  0  0
 22 29  1  0  0  0  0
 23 28  1  0  0  0  0
 24 31  1  0  0  0  0
 25 28  1  0  0  0  0
 26 27  1  0  0  0  0
  1 33  1  0  0  0  0
  2 34  1  0  0  0  0
  3 35  1  0  0  0  0
  4 36  1  0  0  0  0
  5 37  1  0  0  0  0
  6 38  1  0  0  0  0
  7 39  1  0  0  0  0
  8 40  1  0  0  0  0
  9 41  1  0  0  0  0
 10 42  1  0  0  0  0
 18 43  1  0  0  0  0
 18 44  1  0  0  0  0
 19 45  1  0  0  0  0
 19 46  1  0  0  0  0
 20 47  1  0  0  0  0
 20 48  1  0  0  0  0
 21 49  1  0  0  0  0
 21 50  1  0  0  0  0
 22 51  1  0  0  0  0
 22 52  1  0  0  0  0
 23 53  1  0  0  0  0
 23 54  1  0  0  0  0
 23 55  1  0  0  0  0
 24 56  1  0  0  0  0
 24 57  1  0  0  0  0
 27 58  1  0  0  0  0
 30 59  1  0  0  0  0
M  END
> <clash_score>
0

> <docking_score>
-7.478886127471924

$$$$
BENZO_69_1
  -OEChem-08212019303D

 47 50  0     0  0  0  0  0  0999 V2000
   14.1526    1.4694   24.0176 C   0  0  0  0  0  0  0  0  0  0  0  0
    4.2750    1.7050   20.8490 C   0  0  0  0  0  0  0  0  0  0  0  0
   13.3741    0.8121   24.9701 C   0  0  0  0  0  0  0  0  0  0  0  0
   13.5446    2.0802   22.9208 C   0  0  0  0  0  0  0  0  0  0  0  0
    3.9160    2.0630   19.5520 C   0  0  0  0  0  0  0  0  0  0  0  0
    5.4210    0.9600   21.0930 C   0  0  0  0  0  0  0  0  0  0  0  0
   11.9875    0.7654   24.8258 C   0  0  0  0  0  0  0  0  0  0  0  0
   12.1580    2.0335   22.7765 C   0  0  0  0  0  0  0  0  0  0  0  0
    8.9960   -2.3380   25.5320 C   0  0  0  0  0  0  0  0  0  0  0  0
    9.6730   -3.4710   23.5300 C   0  0  0  0  0  0  0  0  0  0  0  0
    4.6890    1.6810   18.4640 C   0  0  0  0  0  0  0  0  0  0  0  0
    9.0720   -1.1280   24.8640 C   0  0  0  0  0  0  0  0  0  0  0  0
    9.7200   -2.2600   22.8630 C   0  0  0  0  0  0  0  0  0  0  0  0
    6.1790    0.5730   19.9990 C   0  0  0  0  0  0  0  0  0  0  0  0
    9.3070   -3.5340   24.8780 C   0  0  0  0  0  0  0  0  0  0  0  0
   11.3794    1.3761   23.7290 C   0  0  0  0  0  0  0  0  0  0  0  0
    5.8300    0.9190   18.6970 C   0  0  0  0  0  0  0  0  0  0  0  0
    9.3350   -1.0880   23.5010 C   0  0  0  0  0  0  0  0  0  0  0  0
    7.3170   -0.1610   19.8550 C   0  0  0  0  0  0  0  0  0  0  0  0
    9.0420    0.3700   21.5280 C   0  0  0  0  0  0  0  0  0  0  0  0
    9.2505   -4.8264   25.5904 C   0  0  0  0  0  0  0  0  0  0  0  0
    9.8870    1.3260   23.5730 C   0  0  0  0  0  0  0  0  0  0  0  0
    7.6390   -0.2680   18.5410 N   0  0  0  0  0  0  0  0  0  0  0  0
    6.7580    0.3810   17.8350 N   0  0  0  0  0  0  0  0  0  0  0  0
    8.1890   -0.7180   20.8700 N   0  0  0  0  0  0  0  0  0  0  0  0
    9.4560    0.1560   22.8130 N   0  0  0  0  0  0  0  0  0  0  0  0
    9.2690    1.4140   20.9380 O   0  0  0  0  0  0  0  0  0  0  0  0
   15.2322    1.5068   24.1308 H   0  0  0  0  0  0  0  0  0  0  0  0
    3.6468    2.0173   21.6825 H   0  0  0  0  0  0  0  0  0  0  0  0
   13.8473    0.3374   25.8248 H   0  0  0  0  0  0  0  0  0  0  0  0
   14.1503    2.5930   22.1795 H   0  0  0  0  0  0  0  0  0  0  0  0
    3.0153    2.6527   19.3907 H   0  0  0  0  0  0  0  0  0  0  0  0
    5.7015    0.6980   22.1071 H   0  0  0  0  0  0  0  0  0  0  0  0
   11.3889    0.2508   25.5729 H   0  0  0  0  0  0  0  0  0  0  0  0
   11.6930    2.5120   21.9187 H   0  0  0  0  0  0  0  0  0  0  0  0
    8.6919   -2.3557   26.5813 H   0  0  0  0  0  0  0  0  0  0  0  0
    9.9267   -4.3907   22.9939 H   0  0  0  0  0  0  0  0  0  0  0  0
    4.4064    1.9744   17.4453 H   0  0  0  0  0  0  0  0  0  0  0  0
    8.9217   -0.1995   25.4231 H   0  0  0  0  0  0  0  0  0  0  0  0
   10.0653   -2.2339   21.8256 H   0  0  0  0  0  0  0  0  0  0  0  0
    8.2503   -5.2678   25.5020 H   0  0  0  0  0  0  0  0  0  0  0  0
    9.9817   -5.5374   25.1845 H   0  0  0  0  0  0  0  0  0  0  0  0
    9.4841   -4.7043   26.6562 H   0  0  0  0  0  0  0  0  0  0  0  0
    9.3974    1.2912   24.5523 H   0  0  0  0  0  0  0  0  0  0  0  0
    9.5159    2.2168   23.0553 H   0  0  0  0  0  0  0  0  0  0  0  0
    6.8044    0.4388   16.8592 H   0  0  0  0  0  0  0  0  0  0  0  0
    8.2409   -1.5618   21.0967 H   0  0  0  0  0  0  0  0  0  0  0  0
  1  3  1  0  0  0  0
  1  4  2  0  0  0  0
  2  5  1  0  0  0  0
  2  6  2  0  0  0  0
  3  7  2  0  0  0  0
  4  8  1  0  0  0  0
  5 11  2  0  0  0  0
  6 14  1  0  0  0  0
  7 16  1  0  0  0  0
  8 16  2  0  0  0  0
  9 12  2  0  0  0  0
  9 15  1  0  0  0  0
 10 13  1  0  0  0  0
 10 15  2  0  0  0  0
 11 17  1  0  0  0  0
 12 18  1  0  0  0  0
 13 18  2  0  0  0  0
 14 17  2  0  0  0  0
 14 19  1  0  0  0  0
 15 21  1  0  0  0  0
 16 22  1  0  0  0  0
 17 24  1  0  0  0  0
 18 26  1  0  0  0  0
 19 23  2  0  0  0  0
 19 25  1  0  0  0  0
 20 25  1  0  0  0  0
 20 26  1  0  0  0  0
 20 27  2  0  0  0  0
 22 26  1  0  0  0  0
 23 24  1  0  0  0  0
  1 28  1  0  0  0  0
  2 29  1  0  0  0  0
  3 30  1  0  0  0  0
  4 31  1  0  0  0  0
  5 32  1  0  0  0  0
  6 33  1  0  0  0  0
  7 34  1  0  0  0  0
  8 35  1  0  0  0  0
  9 36  1  0  0  0  0
 10 37  1  0  0  0  0
 11 38  1  0  0  0  0
 12 39  1  0  0  0  0
 13 40  1  0  0  0  0
 21 41  1  0  0  0  0
 21 42  1  0  0  0  0
 21 43  1  0  0  0  0
 22 44  1  0  0  0  0
 22 45  1  0  0  0  0
 24 46  1  0  0  0  0
 25 47  1  0  0  0  0
M  END
> <clash_score>
0

> <docking_score>
-8.007792472839355

$$$$
BENZO_65_1
  -OEChem-08212019303D

 59 63  0     0  0  0  0  0  0999 V2000
   14.1526    1.4694   24.0176 C   0  0  0  0  0  0  0  0  0  0  0  0
    4.2750    1.7050   20.8490 C   0  0  0  0  0  0  0  0  0  0  0  0
   13.3741    0.8121   24.9701 C   0  0  0  0  0  0  0  0  0  0  0  0
   13.5446    2.0802   22.9208 C   0  0  0  0  0  0  0  0  0  0  0  0
    3.9160    2.0630   19.5520 C   0  0  0  0  0  0  0  0  0  0  0  0
    5.4210    0.9600   21.0930 C   0  0  0  0  0  0  0  0  0  0  0  0
   11.9875    0.7654   24.8258 C   0  0  0  0  0  0  0  0  0  0  0  0
   12.1580    2.0335   22.7765 C   0  0  0  0  0  0  0  0  0  0  0  0
    4.6890    1.6810   18.4640 C   0  0  0  0  0  0  0  0  0  0  0  0
    8.9960   -2.3380   25.5320 C   0  0  0  0  0  0  0  0  0  0  0  0
    9.6730   -3.4710   23.5300 C   0  0  0  0  0  0  0  0  0  0  0  0
    9.0720   -1.1280   24.8640 C   0  0  0  0  0  0  0  0  0  0  0  0
    9.7200   -2.2600   22.8630 C   0  0  0  0  0  0  0  0  0  0  0  0
    6.1790    0.5730   19.9990 C   0  0  0  0  0  0  0  0  0  0  0  0
   11.3794    1.3761   23.7290 C   0  0  0  0  0  0  0  0  0  0  0  0
    5.8300    0.9190   18.6970 C   0  0  0  0  0  0  0  0  0  0  0  0
    9.3070   -3.5340   24.8780 C   0  0  0  0  0  0  0  0  0  0  0  0
    9.3350   -1.0880   23.5010 C   0  0  0  0  0  0  0  0  0  0  0  0
    7.3170   -0.1610   19.8550 C   0  0  0  0  0  0  0  0  0  0  0  0
    9.0420    0.3700   21.5280 C   0  0  0  0  0  0  0  0  0  0  0  0
    7.3635   -6.1361   27.1888 C   0  0  0  0  0  0  0  0  0  0  0  0
    8.1961   -4.9735   27.7341 C   0  0  0  0  0  0  0  0  0  0  0  0
    7.1942   -6.0394   25.6709 C   0  0  0  0  0  0  0  0  0  0  0  0
    9.5196   -4.8490   26.9797 C   0  0  0  0  0  0  0  0  0  0  0  0
    8.5442   -5.8838   24.9639 C   0  0  0  0  0  0  0  0  0  0  0  0
    9.8870    1.3260   23.5730 C   0  0  0  0  0  0  0  0  0  0  0  0
    7.6390   -0.2680   18.5410 N   0  0  0  0  0  0  0  0  0  0  0  0
    6.7580    0.3810   17.8350 N   0  0  0  0  0  0  0  0  0  0  0  0
    9.2562   -4.7384   25.5422 N   0  0  0  0  0  0  0  0  0  0  0  0
    8.1890   -0.7180   20.8700 N   0  0  0  0  0  0  0  0  0  0  0  0
    9.4560    0.1560   22.8130 N   0  0  0  0  0  0  0  0  0  0  0  0
    9.2690    1.4140   20.9380 O   0  0  0  0  0  0  0  0  0  0  0  0
   15.2322    1.5068   24.1308 H   0  0  0  0  0  0  0  0  0  0  0  0
    3.6468    2.0173   21.6825 H   0  0  0  0  0  0  0  0  0  0  0  0
   13.8473    0.3374   25.8248 H   0  0  0  0  0  0  0  0  0  0  0  0
   14.1503    2.5930   22.1795 H   0  0  0  0  0  0  0  0  0  0  0  0
    3.0153    2.6527   19.3907 H   0  0  0  0  0  0  0  0  0  0  0  0
    5.7015    0.6980   22.1071 H   0  0  0  0  0  0  0  0  0  0  0  0
   11.3889    0.2508   25.5729 H   0  0  0  0  0  0  0  0  0  0  0  0
   11.6930    2.5120   21.9187 H   0  0  0  0  0  0  0  0  0  0  0  0
    4.4064    1.9744   17.4453 H   0  0  0  0  0  0  0  0  0  0  0  0
    8.6905   -2.3533   26.5810 H   0  0  0  0  0  0  0  0  0  0  0  0
    9.9266   -4.3896   22.9917 H   0  0  0  0  0  0  0  0  0  0  0  0
    8.9233   -0.1992   25.4231 H   0  0  0  0  0  0  0  0  0  0  0  0
   10.0650   -2.2330   21.8256 H   0  0  0  0  0  0  0  0  0  0  0  0
    7.8482   -7.0901   27.4469 H   0  0  0  0  0  0  0  0  0  0  0  0
    6.3760   -6.1438   27.6724 H   0  0  0  0  0  0  0  0  0  0  0  0
    7.6307   -4.0424   27.6403 H   0  0  0  0  0  0  0  0  0  0  0  0
    8.3915   -5.1310   28.7968 H   0  0  0  0  0  0  0  0  0  0  0  0
    6.6888   -6.9376   25.3010 H   0  0  0  0  0  0  0  0  0  0  0  0
    6.5515   -5.1859   25.4257 H   0  0  0  0  0  0  0  0  0  0  0  0
   10.0492   -3.9640   27.3414 H   0  0  0  0  0  0  0  0  0  0  0  0
   10.1431   -5.7254   27.1778 H   0  0  0  0  0  0  0  0  0  0  0  0
    9.1338   -6.7931   25.0868 H   0  0  0  0  0  0  0  0  0  0  0  0
    8.3656   -5.7264   23.8998 H   0  0  0  0  0  0  0  0  0  0  0  0
    9.3974    1.2912   24.5523 H   0  0  0  0  0  0  0  0  0  0  0  0
    9.5159    2.2168   23.0553 H   0  0  0  0  0  0  0  0  0  0  0  0
    6.8044    0.4388   16.8592 H   0  0  0  0  0  0  0  0  0  0  0  0
    8.2565   -1.5523   21.1108 H   0  0  0  0  0  0  0  0  0  0  0  0
  1  3  1  0  0  0  0
  1  4  2  0  0  0  0
  2  5  1  0  0  0  0
  2  6  2  0  0  0  0
  3  7  2  0  0  0  0
  4  8  1  0  0  0  0
  5  9  2  0  0  0  0
  6 14  1  0  0  0  0
  7 15  1  0  0  0  0
  8 15  2  0  0  0  0
  9 16  1  0  0  0  0
 10 12  2  0  0  0  0
 10 17  1  0  0  0  0
 11 13  1  0  0  0  0
 11 17  2  0  0  0  0
 12 18  1  0  0  0  0
 13 18  2  0  0  0  0
 14 16  2  0  0  0  0
 14 19  1  0  0  0  0
 15 26  1  0  0  0  0
 16 28  1  0  0  0  0
 17 29  1  0  0  0  0
 18 31  1  0  0  0  0
 19 27  2  0  0  0  0
 19 30  1  0  0  0  0
 20 30  1  0  0  0  0
 20 31  1  0  0  0  0
 20 32  2  0  0  0  0
 21 22  1  0  0  0  0
 21 23  1  0  0  0  0
 22 24  1  0  0  0  0
 23 25  1  0  0  0  0
 24 29  1  0  0  0  0
 25 29  1  0  0  0  0
 26 31  1  0  0  0  0
 27 28  1  0  0  0  0
  1 33  1  0  0  0  0
  2 34  1  0  0  0  0
  3 35  1  0  0  0  0
  4 36  1  0  0  0  0
  5 37  1  0  0  0  0
  6 38  1  0  0  0  0
  7 39  1  0  0  0  0
  8 40  1  0  0  0  0
  9 41  1  0  0  0  0
 10 42  1  0  0  0  0
 11 43  1  0  0  0  0
 12 44  1  0  0  0  0
 13 45  1  0  0  0  0
 21 46  1  0  0  0  0
 21 47  1  0  0  0  0
 22 48  1  0  0  0  0
 22 49  1  0  0  0  0
 23 50  1  0  0  0  0
 23 51  1  0  0  0  0
 24 52  1  0  0  0  0
 24 53  1  0  0  0  0
 25 54  1  0  0  0  0
 25 55  1  0  0  0  0
 26 56  1  0  0  0  0
 26 57  1  0  0  0  0
 28 58  1  0  0  0  0
 30 59  1  0  0  0  0
M  END
> <clash_score>
0

> <docking_score>
-7.762760162353516

$$$$
BENZO_64_1
  -OEChem-08212019303D

 56 60  0     0  0  0  0  0  0999 V2000
    4.2750    1.7050   20.8490 C   0  0  0  0  0  0  0  0  0  0  0  0
    3.9160    2.0630   19.5520 C   0  0  0  0  0  0  0  0  0  0  0  0
    5.4210    0.9600   21.0930 C   0  0  0  0  0  0  0  0  0  0  0  0
    4.6890    1.6810   18.4640 C   0  0  0  0  0  0  0  0  0  0  0  0
    8.9960   -2.3380   25.5320 C   0  0  0  0  0  0  0  0  0  0  0  0
    9.6730   -3.4710   23.5300 C   0  0  0  0  0  0  0  0  0  0  0  0
    9.0720   -1.1280   24.8640 C   0  0  0  0  0  0  0  0  0  0  0  0
    9.7200   -2.2600   22.8630 C   0  0  0  0  0  0  0  0  0  0  0  0
   12.2913    1.4279   22.6355 C   0  0  0  0  0  0  0  0  0  0  0  0
   13.6024    1.4662   23.0564 C   0  0  0  0  0  0  0  0  0  0  0  0
   12.0284    1.3764   24.9443 C   0  0  0  0  0  0  0  0  0  0  0  0
    6.1790    0.5730   19.9990 C   0  0  0  0  0  0  0  0  0  0  0  0
   11.3794    1.3761   23.7290 C   0  0  0  0  0  0  0  0  0  0  0  0
    5.8300    0.9190   18.6970 C   0  0  0  0  0  0  0  0  0  0  0  0
    9.3070   -3.5340   24.8780 C   0  0  0  0  0  0  0  0  0  0  0  0
    9.3350   -1.0880   23.5010 C   0  0  0  0  0  0  0  0  0  0  0  0
    7.3170   -0.1610   19.8550 C   0  0  0  0  0  0  0  0  0  0  0  0
    9.0420    0.3700   21.5280 C   0  0  0  0  0  0  0  0  0  0  0  0
    7.3635   -6.1361   27.1888 C   0  0  0  0  0  0  0  0  0  0  0  0
    8.1961   -4.9735   27.7341 C   0  0  0  0  0  0  0  0  0  0  0  0
    7.1942   -6.0394   25.6709 C   0  0  0  0  0  0  0  0  0  0  0  0
    9.5196   -4.8490   26.9797 C   0  0  0  0  0  0  0  0  0  0  0  0
    8.5442   -5.8838   24.9639 C   0  0  0  0  0  0  0  0  0  0  0  0
    9.8870    1.3260   23.5730 C   0  0  0  0  0  0  0  0  0  0  0  0
    7.6390   -0.2680   18.5410 N   0  0  0  0  0  0  0  0  0  0  0  0
    6.7580    0.3810   17.8350 N   0  0  0  0  0  0  0  0  0  0  0  0
    9.2562   -4.7384   25.5422 N   0  0  0  0  0  0  0  0  0  0  0  0
    8.1890   -0.7180   20.8700 N   0  0  0  0  0  0  0  0  0  0  0  0
    9.4560    0.1560   22.8130 N   0  0  0  0  0  0  0  0  0  0  0  0
    9.2690    1.4140   20.9380 O   0  0  0  0  0  0  0  0  0  0  0  0
   13.7301    1.4394   24.7638 S   0  0  0  0  0  0  0  0  0  0  0  0
    3.6468    2.0173   21.6825 H   0  0  0  0  0  0  0  0  0  0  0  0
    3.0153    2.6527   19.3907 H   0  0  0  0  0  0  0  0  0  0  0  0
    5.7015    0.6980   22.1071 H   0  0  0  0  0  0  0  0  0  0  0  0
    4.4064    1.9744   17.4453 H   0  0  0  0  0  0  0  0  0  0  0  0
    8.6905   -2.3533   26.5810 H   0  0  0  0  0  0  0  0  0  0  0  0
    9.9266   -4.3896   22.9917 H   0  0  0  0  0  0  0  0  0  0  0  0
    8.9233   -0.1992   25.4231 H   0  0  0  0  0  0  0  0  0  0  0  0
   10.0650   -2.2330   21.8256 H   0  0  0  0  0  0  0  0  0  0  0  0
   12.0045    1.4365   21.5915 H   0  0  0  0  0  0  0  0  0  0  0  0
   14.4914    1.5078   22.4431 H   0  0  0  0  0  0  0  0  0  0  0  0
   11.5886    1.3416   25.9314 H   0  0  0  0  0  0  0  0  0  0  0  0
    7.8482   -7.0901   27.4469 H   0  0  0  0  0  0  0  0  0  0  0  0
    6.3760   -6.1438   27.6724 H   0  0  0  0  0  0  0  0  0  0  0  0
    7.6307   -4.0424   27.6403 H   0  0  0  0  0  0  0  0  0  0  0  0
    8.3915   -5.1310   28.7968 H   0  0  0  0  0  0  0  0  0  0  0  0
    6.6888   -6.9376   25.3010 H   0  0  0  0  0  0  0  0  0  0  0  0
    6.5515   -5.1859   25.4257 H   0  0  0  0  0  0  0  0  0  0  0  0
   10.0492   -3.9640   27.3414 H   0  0  0  0  0  0  0  0  0  0  0  0
   10.1431   -5.7254   27.1778 H   0  0  0  0  0  0  0  0  0  0  0  0
    9.1338   -6.7931   25.0868 H   0  0  0  0  0  0  0  0  0  0  0  0
    8.3656   -5.7264   23.8998 H   0  0  0  0  0  0  0  0  0  0  0  0
    9.3974    1.2912   24.5523 H   0  0  0  0  0  0  0  0  0  0  0  0
    9.5159    2.2168   23.0553 H   0  0  0  0  0  0  0  0  0  0  0  0
    6.8044    0.4388   16.8592 H   0  0  0  0  0  0  0  0  0  0  0  0
    8.2565   -1.5523   21.1108 H   0  0  0  0  0  0  0  0  0  0  0  0
  1  2  1  0  0  0  0
  1  3  2  0  0  0  0
  2  4  2  0  0  0  0
  3 12  1  0  0  0  0
  4 14  1  0  0  0  0
  5  7  2  0  0  0  0
  5 15  1  0  0  0  0
  6  8  1  0  0  0  0
  6 15  2  0  0  0  0
  7 16  1  0  0  0  0
  8 16  2  0  0  0  0
  9 10  2  0  0  0  0
  9 13  1  0  0  0  0
 10 31  1  0  0  0  0
 11 13  2  0  0  0  0
 11 31  1  0  0  0  0
 12 14  2  0  0  0  0
 12 17  1  0  0  0  0
 13 24  1  0  0  0  0
 14 26  1  0  0  0  0
 15 27  1  0  0  0  0
 16 29  1  0  0  0  0
 17 25  2  0  0  0  0
 17 28  1  0  0  0  0
 18 28  1  0  0  0  0
 18 29  1  0  0  0  0
 18 30  2  0  0  0  0
 19 20  1  0  0  0  0
 19 21  1  0  0  0  0
 20 22  1  0  0  0  0
 21 23  1  0  0  0  0
 22 27  1  0  0  0  0
 23 27  1  0  0  0  0
 24 29  1  0  0  0  0
 25 26  1  0  0  0  0
  1 32  1  0  0  0  0
  2 33  1  0  0  0  0
  3 34  1  0  0  0  0
  4 35  1  0  0  0  0
  5 36  1  0  0  0  0
  6 37  1  0  0  0  0
  7 38  1  0  0  0  0
  8 39  1  0  0  0  0
  9 40  1  0  0  0  0
 10 41  1  0  0  0  0
 11 42  1  0  0  0  0
 19 43  1  0  0  0  0
 19 44  1  0  0  0  0
 20 45  1  0  0  0  0
 20 46  1  0  0  0  0
 21 47  1  0  0  0  0
 21 48  1  0  0  0  0
 22 49  1  0  0  0  0
 22 50  1  0  0  0  0
 23 51  1  0  0  0  0
 23 52  1  0  0  0  0
 24 53  1  0  0  0  0
 24 54  1  0  0  0  0
 26 55  1  0  0  0  0
 28 56  1  0  0  0  0
M  END
> <clash_score>
0

> <docking_score>
-7.841614723205566

$$$$
BENZO_70_1
  -OEChem-08212019303D

 47 50  0     0  0  0  0  0  0999 V2000
    4.2750    1.7050   20.8490 C   0  0  0  0  0  0  0  0  0  0  0  0
    3.9160    2.0630   19.5520 C   0  0  0  0  0  0  0  0  0  0  0  0
    6.4089    2.0844   24.8766 C   0  0  0  0  0  0  0  0  0  0  0  0
    5.4210    0.9600   21.0930 C   0  0  0  0  0  0  0  0  0  0  0  0
    7.4847    1.4191   24.2887 C   0  0  0  0  0  0  0  0  0  0  0  0
    8.9960   -2.3380   25.5320 C   0  0  0  0  0  0  0  0  0  0  0  0
    9.6730   -3.4710   23.5300 C   0  0  0  0  0  0  0  0  0  0  0  0
    4.6890    1.6810   18.4640 C   0  0  0  0  0  0  0  0  0  0  0  0
    9.0720   -1.1280   24.8640 C   0  0  0  0  0  0  0  0  0  0  0  0
    9.7200   -2.2600   22.8630 C   0  0  0  0  0  0  0  0  0  0  0  0
    6.5777    3.3741   25.3805 C   0  0  0  0  0  0  0  0  0  0  0  0
    8.8980    3.3330   24.7088 C   0  0  0  0  0  0  0  0  0  0  0  0
    6.1790    0.5730   19.9990 C   0  0  0  0  0  0  0  0  0  0  0  0
    9.3070   -3.5340   24.8780 C   0  0  0  0  0  0  0  0  0  0  0  0
    8.7292    2.0433   24.2048 C   0  0  0  0  0  0  0  0  0  0  0  0
    5.8300    0.9190   18.6970 C   0  0  0  0  0  0  0  0  0  0  0  0
    9.3350   -1.0880   23.5010 C   0  0  0  0  0  0  0  0  0  0  0  0
    7.8222    3.9984   25.2966 C   0  0  0  0  0  0  0  0  0  0  0  0
    7.3170   -0.1610   19.8550 C   0  0  0  0  0  0  0  0  0  0  0  0
    9.0420    0.3700   21.5280 C   0  0  0  0  0  0  0  0  0  0  0  0
    9.2505   -4.8264   25.5904 C   0  0  0  0  0  0  0  0  0  0  0  0
    9.8870    1.3260   23.5730 C   0  0  0  0  0  0  0  0  0  0  0  0
    7.6390   -0.2680   18.5410 N   0  0  0  0  0  0  0  0  0  0  0  0
    6.7580    0.3810   17.8350 N   0  0  0  0  0  0  0  0  0  0  0  0
    8.1890   -0.7180   20.8700 N   0  0  0  0  0  0  0  0  0  0  0  0
    9.4560    0.1560   22.8130 N   0  0  0  0  0  0  0  0  0  0  0  0
    9.2690    1.4140   20.9380 O   0  0  0  0  0  0  0  0  0  0  0  0
    8.0301    5.5891   25.9196 Cl  0  0  0  0  0  0  0  0  0  0  0  0
    3.6468    2.0173   21.6825 H   0  0  0  0  0  0  0  0  0  0  0  0
    3.0153    2.6527   19.3907 H   0  0  0  0  0  0  0  0  0  0  0  0
    5.4400    1.5979   24.9418 H   0  0  0  0  0  0  0  0  0  0  0  0
    5.7015    0.6980   22.1071 H   0  0  0  0  0  0  0  0  0  0  0  0
    7.3441    0.4143   23.8988 H   0  0  0  0  0  0  0  0  0  0  0  0
    8.6919   -2.3557   26.5813 H   0  0  0  0  0  0  0  0  0  0  0  0
    9.9267   -4.3907   22.9939 H   0  0  0  0  0  0  0  0  0  0  0  0
    4.4064    1.9744   17.4453 H   0  0  0  0  0  0  0  0  0  0  0  0
    8.9217   -0.1995   25.4231 H   0  0  0  0  0  0  0  0  0  0  0  0
   10.0653   -2.2339   21.8256 H   0  0  0  0  0  0  0  0  0  0  0  0
    5.7304    3.8806   25.8363 H   0  0  0  0  0  0  0  0  0  0  0  0
    9.8703    3.8156   24.6405 H   0  0  0  0  0  0  0  0  0  0  0  0
    8.2503   -5.2678   25.5020 H   0  0  0  0  0  0  0  0  0  0  0  0
    9.9817   -5.5374   25.1845 H   0  0  0  0  0  0  0  0  0  0  0  0
    9.4841   -4.7043   26.6562 H   0  0  0  0  0  0  0  0  0  0  0  0
   10.4274    1.9911   22.8906 H   0  0  0  0  0  0  0  0  0  0  0  0
   10.6011    0.9882   24.3313 H   0  0  0  0  0  0  0  0  0  0  0  0
    6.8044    0.4388   16.8592 H   0  0  0  0  0  0  0  0  0  0  0  0
    8.2409   -1.5618   21.0967 H   0  0  0  0  0  0  0  0  0  0  0  0
  1  2  1  0  0  0  0
  1  4  2  0  0  0  0
  2  8  2  0  0  0  0
  3  5  2  0  0  0  0
  3 11  1  0  0  0  0
  4 13  1  0  0  0  0
  5 15  1  0  0  0  0
  6  9  2  0  0  0  0
  6 14  1  0  0  0  0
  7 10  1  0  0  0  0
  7 14  2  0  0  0  0
  8 16  1  0  0  0  0
  9 17  1  0  0  0  0
 10 17  2  0  0  0  0
 11 18  2  0  0  0  0
 12 15  2  0  0  0  0
 12 18  1  0  0  0  0
 13 16  2  0  0  0  0
 13 19  1  0  0  0  0
 14 21  1  0  0  0  0
 15 22  1  0  0  0  0
 16 24  1  0  0  0  0
 17 26  1  0  0  0  0
 18 28  1  0  0  0  0
 19 23  2  0  0  0  0
 19 25  1  0  0  0  0
 20 25  1  0  0  0  0
 20 26  1  0  0  0  0
 20 27  2  0  0  0  0
 22 26  1  0  0  0  0
 23 24  1  0  0  0  0
  1 29  1  0  0  0  0
  2 30  1  0  0  0  0
  3 31  1  0  0  0  0
  4 32  1  0  0  0  0
  5 33  1  0  0  0  0
  6 34  1  0  0  0  0
  7 35  1  0  0  0  0
  8 36  1  0  0  0  0
  9 37  1  0  0  0  0
 10 38  1  0  0  0  0
 11 39  1  0  0  0  0
 12 40  1  0  0  0  0
 21 41  1  0  0  0  0
 21 42  1  0  0  0  0
 21 43  1  0  0  0  0
 22 44  1  0  0  0  0
 22 45  1  0  0  0  0
 24 46  1  0  0  0  0
 25 47  1  0  0  0  0
M  END
> <clash_score>
0

> <docking_score>
-7.393820762634277

$$$$
BENZO_68_1
  -OEChem-08212019303D

 44 47  0     0  0  0  0  0  0999 V2000
    4.2750    1.7050   20.8490 C   0  0  0  0  0  0  0  0  0  0  0  0
    3.9160    2.0630   19.5520 C   0  0  0  0  0  0  0  0  0  0  0  0
    5.4210    0.9600   21.0930 C   0  0  0  0  0  0  0  0  0  0  0  0
    8.9960   -2.3380   25.5320 C   0  0  0  0  0  0  0  0  0  0  0  0
    9.6730   -3.4710   23.5300 C   0  0  0  0  0  0  0  0  0  0  0  0
    4.6890    1.6810   18.4640 C   0  0  0  0  0  0  0  0  0  0  0  0
    9.0720   -1.1280   24.8640 C   0  0  0  0  0  0  0  0  0  0  0  0
    9.7200   -2.2600   22.8630 C   0  0  0  0  0  0  0  0  0  0  0  0
   12.2913    1.4279   22.6355 C   0  0  0  0  0  0  0  0  0  0  0  0
   13.6024    1.4661   23.0564 C   0  0  0  0  0  0  0  0  0  0  0  0
   12.0284    1.3764   24.9443 C   0  0  0  0  0  0  0  0  0  0  0  0
    6.1790    0.5730   19.9990 C   0  0  0  0  0  0  0  0  0  0  0  0
    9.3070   -3.5340   24.8780 C   0  0  0  0  0  0  0  0  0  0  0  0
   11.3794    1.3761   23.7290 C   0  0  0  0  0  0  0  0  0  0  0  0
    5.8300    0.9190   18.6970 C   0  0  0  0  0  0  0  0  0  0  0  0
    9.3350   -1.0880   23.5010 C   0  0  0  0  0  0  0  0  0  0  0  0
    7.3170   -0.1610   19.8550 C   0  0  0  0  0  0  0  0  0  0  0  0
    9.0420    0.3700   21.5280 C   0  0  0  0  0  0  0  0  0  0  0  0
    9.2505   -4.8264   25.5904 C   0  0  0  0  0  0  0  0  0  0  0  0
    9.8870    1.3260   23.5730 C   0  0  0  0  0  0  0  0  0  0  0  0
    7.6390   -0.2680   18.5410 N   0  0  0  0  0  0  0  0  0  0  0  0
    6.7580    0.3810   17.8350 N   0  0  0  0  0  0  0  0  0  0  0  0
    8.1890   -0.7180   20.8700 N   0  0  0  0  0  0  0  0  0  0  0  0
    9.4560    0.1560   22.8130 N   0  0  0  0  0  0  0  0  0  0  0  0
    9.2690    1.4140   20.9380 O   0  0  0  0  0  0  0  0  0  0  0  0
   13.7301    1.4394   24.7638 S   0  0  0  0  0  0  0  0  0  0  0  0
    3.6468    2.0173   21.6825 H   0  0  0  0  0  0  0  0  0  0  0  0
    3.0153    2.6527   19.3907 H   0  0  0  0  0  0  0  0  0  0  0  0
    5.7015    0.6980   22.1071 H   0  0  0  0  0  0  0  0  0  0  0  0
    8.6919   -2.3557   26.5813 H   0  0  0  0  0  0  0  0  0  0  0  0
    9.9267   -4.3907   22.9939 H   0  0  0  0  0  0  0  0  0  0  0  0
    4.4064    1.9744   17.4453 H   0  0  0  0  0  0  0  0  0  0  0  0
    8.9217   -0.1995   25.4231 H   0  0  0  0  0  0  0  0  0  0  0  0
   10.0653   -2.2339   21.8256 H   0  0  0  0  0  0  0  0  0  0  0  0
   12.0045    1.4365   21.5915 H   0  0  0  0  0  0  0  0  0  0  0  0
   14.4914    1.5078   22.4431 H   0  0  0  0  0  0  0  0  0  0  0  0
   11.5886    1.3416   25.9314 H   0  0  0  0  0  0  0  0  0  0  0  0
    8.2503   -5.2678   25.5020 H   0  0  0  0  0  0  0  0  0  0  0  0
    9.9817   -5.5374   25.1845 H   0  0  0  0  0  0  0  0  0  0  0  0
    9.4841   -4.7043   26.6562 H   0  0  0  0  0  0  0  0  0  0  0  0
    9.3974    1.2912   24.5523 H   0  0  0  0  0  0  0  0  0  0  0  0
    9.5159    2.2168   23.0553 H   0  0  0  0  0  0  0  0  0  0  0  0
    6.8044    0.4388   16.8592 H   0  0  0  0  0  0  0  0  0  0  0  0
    8.2409   -1.5618   21.0967 H   0  0  0  0  0  0  0  0  0  0  0  0
  1  2  1  0  0  0  0
  1  3  2  0  0  0  0
  2  6  2  0  0  0  0
  3 12  1  0  0  0  0
  4  7  2  0  0  0  0
  4 13  1  0  0  0  0
  5  8  1  0  0  0  0
  5 13  2  0  0  0  0
  6 15  1  0  0  0  0
  7 16  1  0  0  0  0
  8 16  2  0  0  0  0
  9 10  2  0  0  0  0
  9 14  1  0  0  0  0
 10 26  1  0  0  0  0
 11 14  2  0  0  0  0
 11 26  1  0  0  0  0
 12 15  2  0  0  0  0
 12 17  1  0  0  0  0
 13 19  1  0  0  0  0
 14 20  1  0  0  0  0
 15 22  1  0  0  0  0
 16 24  1  0  0  0  0
 17 21  2  0  0  0  0
 17 23  1  0  0  0  0
 18 23  1  0  0  0  0
 18 24  1  0  0  0  0
 18 25  2  0  0  0  0
 20 24  1  0  0  0  0
 21 22  1  0  0  0  0
  1 27  1  0  0  0  0
  2 28  1  0  0  0  0
  3 29  1  0  0  0  0
  4 30  1  0  0  0  0
  5 31  1  0  0  0  0
  6 32  1  0  0  0  0
  7 33  1  0  0  0  0
  8 34  1  0  0  0  0
  9 35  1  0  0  0  0
 10 36  1  0  0  0  0
 11 37  1  0  0  0  0
 19 38  1  0  0  0  0
 19 39  1  0  0  0  0
 19 40  1  0  0  0  0
 20 41  1  0  0  0  0
 20 42  1  0  0  0  0
 22 43  1  0  0  0  0
 23 44  1  0  0  0  0
M  END
> <clash_score>
0

> <docking_score>
-8.086647987365723

$$$$
BENZO_71_1
  -OEChem-08212019303D

 47 50  0     0  0  0  0  0  0999 V2000
    4.2750    1.7050   20.8490 C   0  0  0  0  0  0  0  0  0  0  0  0
    3.9160    2.0630   19.5520 C   0  0  0  0  0  0  0  0  0  0  0  0
    5.4210    0.9600   21.0930 C   0  0  0  0  0  0  0  0  0  0  0  0
    8.9960   -2.3380   25.5320 C   0  0  0  0  0  0  0  0  0  0  0  0
    9.6730   -3.4710   23.5300 C   0  0  0  0  0  0  0  0  0  0  0  0
    4.6890    1.6810   18.4640 C   0  0  0  0  0  0  0  0  0  0  0  0
    9.0720   -1.1280   24.8640 C   0  0  0  0  0  0  0  0  0  0  0  0
    9.7200   -2.2600   22.8630 C   0  0  0  0  0  0  0  0  0  0  0  0
   12.1233    1.3811   24.9242 C   0  0  0  0  0  0  0  0  0  0  0  0
   12.3262    1.4247   22.7351 C   0  0  0  0  0  0  0  0  0  0  0  0
    6.1790    0.5730   19.9990 C   0  0  0  0  0  0  0  0  0  0  0  0
    9.3070   -3.5340   24.8780 C   0  0  0  0  0  0  0  0  0  0  0  0
   11.3794    1.3761   23.7290 C   0  0  0  0  0  0  0  0  0  0  0  0
    5.8300    0.9190   18.6970 C   0  0  0  0  0  0  0  0  0  0  0  0
    9.3350   -1.0880   23.5010 C   0  0  0  0  0  0  0  0  0  0  0  0
    7.3170   -0.1610   19.8550 C   0  0  0  0  0  0  0  0  0  0  0  0
    9.0420    0.3700   21.5280 C   0  0  0  0  0  0  0  0  0  0  0  0
    9.2505   -4.8264   25.5904 C   0  0  0  0  0  0  0  0  0  0  0  0
   14.8305    1.5084   22.7418 C   0  0  0  0  0  0  0  0  0  0  0  0
    9.8870    1.3260   23.5730 C   0  0  0  0  0  0  0  0  0  0  0  0
   13.4410    1.4289   24.7112 N   0  0  0  0  0  0  0  0  0  0  0  0
    7.6390   -0.2680   18.5410 N   0  0  0  0  0  0  0  0  0  0  0  0
    6.7580    0.3810   17.8350 N   0  0  0  0  0  0  0  0  0  0  0  0
   13.5326    1.4543   23.3706 N   0  0  0  0  0  0  0  0  0  0  0  0
    8.1890   -0.7180   20.8700 N   0  0  0  0  0  0  0  0  0  0  0  0
    9.4560    0.1560   22.8130 N   0  0  0  0  0  0  0  0  0  0  0  0
    9.2690    1.4140   20.9380 O   0  0  0  0  0  0  0  0  0  0  0  0
    3.6468    2.0173   21.6825 H   0  0  0  0  0  0  0  0  0  0  0  0
    3.0153    2.6527   19.3907 H   0  0  0  0  0  0  0  0  0  0  0  0
    5.7015    0.6980   22.1071 H   0  0  0  0  0  0  0  0  0  0  0  0
    8.6919   -2.3557   26.5813 H   0  0  0  0  0  0  0  0  0  0  0  0
    9.9267   -4.3907   22.9939 H   0  0  0  0  0  0  0  0  0  0  0  0
    4.4064    1.9744   17.4453 H   0  0  0  0  0  0  0  0  0  0  0  0
    8.9217   -0.1995   25.4231 H   0  0  0  0  0  0  0  0  0  0  0  0
   10.0653   -2.2339   21.8256 H   0  0  0  0  0  0  0  0  0  0  0  0
   11.7624    1.3510   25.9426 H   0  0  0  0  0  0  0  0  0  0  0  0
   12.2462    1.4390   21.6566 H   0  0  0  0  0  0  0  0  0  0  0  0
    8.2503   -5.2678   25.5020 H   0  0  0  0  0  0  0  0  0  0  0  0
    9.9817   -5.5374   25.1845 H   0  0  0  0  0  0  0  0  0  0  0  0
    9.4841   -4.7043   26.6562 H   0  0  0  0  0  0  0  0  0  0  0  0
   15.0990    2.5601   22.6124 H   0  0  0  0  0  0  0  0  0  0  0  0
   15.5636    1.0018   23.3756 H   0  0  0  0  0  0  0  0  0  0  0  0
   14.7841    1.0025   21.7733 H   0  0  0  0  0  0  0  0  0  0  0  0
    9.3974    1.2912   24.5523 H   0  0  0  0  0  0  0  0  0  0  0  0
    9.5159    2.2168   23.0553 H   0  0  0  0  0  0  0  0  0  0  0  0
    6.8044    0.4388   16.8592 H   0  0  0  0  0  0  0  0  0  0  0  0
    8.2409   -1.5618   21.0967 H   0  0  0  0  0  0  0  0  0  0  0  0
  1  2  1  0  0  0  0
  1  3  2  0  0  0  0
  2  6  2  0  0  0  0
  3 11  1  0  0  0  0
  4  7  2  0  0  0  0
  4 12  1  0  0  0  0
  5  8  1  0  0  0  0
  5 12  2  0  0  0  0
  6 14  1  0  0  0  0
  7 15  1  0  0  0  0
  8 15  2  0  0  0  0
  9 13  1  0  0  0  0
  9 21  2  0  0  0  0
 10 13  2  0  0  0  0
 10 24  1  0  0  0  0
 11 14  2  0  0  0  0
 11 16  1  0  0  0  0
 12 18  1  0  0  0  0
 13 20  1  0  0  0  0
 14 23  1  0  0  0  0
 15 26  1  0  0  0  0
 16 22  2  0  0  0  0
 16 25  1  0  0  0  0
 17 25  1  0  0  0  0
 17 26  1  0  0  0  0
 17 27  2  0  0  0  0
 19 24  1  0  0  0  0
 20 26  1  0  0  0  0
 21 24  1  0  0  0  0
 22 23  1  0  0  0  0
  1 28  1  0  0  0  0
  2 29  1  0  0  0  0
  3 30  1  0  0  0  0
  4 31  1  0  0  0  0
  5 32  1  0  0  0  0
  6 33  1  0  0  0  0
  7 34  1  0  0  0  0
  8 35  1  0  0  0  0
  9 36  1  0  0  0  0
 10 37  1  0  0  0  0
 18 38  1  0  0  0  0
 18 39  1  0  0  0  0
 18 40  1  0  0  0  0
 19 41  1  0  0  0  0
 19 42  1  0  0  0  0
 19 43  1  0  0  0  0
 20 44  1  0  0  0  0
 20 45  1  0  0  0  0
 23 46  1  0  0  0  0
 25 47  1  0  0  0  0
M  END
> <clash_score>
0

> <docking_score>
-7.723928451538086

$$$$
BENZO_73_1
  -OEChem-08212019343D

 48 51  0     0  0  0  0  0  0999 V2000
   14.1526    1.4694   24.0176 C   0  0  0  0  0  0  0  0  0  0  0  0
    4.2750    1.7050   20.8490 C   0  0  0  0  0  0  0  0  0  0  0  0
   13.3741    0.8121   24.9701 C   0  0  0  0  0  0  0  0  0  0  0  0
   13.5446    2.0802   22.9208 C   0  0  0  0  0  0  0  0  0  0  0  0
    3.9160    2.0630   19.5520 C   0  0  0  0  0  0  0  0  0  0  0  0
    5.4210    0.9600   21.0930 C   0  0  0  0  0  0  0  0  0  0  0  0
   11.9875    0.7654   24.8258 C   0  0  0  0  0  0  0  0  0  0  0  0
   12.1580    2.0335   22.7765 C   0  0  0  0  0  0  0  0  0  0  0  0
    4.6890    1.6810   18.4640 C   0  0  0  0  0  0  0  0  0  0  0  0
    9.0720   -1.1280   24.8640 C   0  0  0  0  0  0  0  0  0  0  0  0
    9.7200   -2.2600   22.8630 C   0  0  0  0  0  0  0  0  0  0  0  0
    8.9960   -2.3380   25.5320 C   0  0  0  0  0  0  0  0  0  0  0  0
    9.6730   -3.4710   23.5300 C   0  0  0  0  0  0  0  0  0  0  0  0
    6.1790    0.5730   19.9990 C   0  0  0  0  0  0  0  0  0  0  0  0
   11.3794    1.3761   23.7290 C   0  0  0  0  0  0  0  0  0  0  0  0
    5.8300    0.9190   18.6970 C   0  0  0  0  0  0  0  0  0  0  0  0
    9.3350   -1.0880   23.5010 C   0  0  0  0  0  0  0  0  0  0  0  0
    9.3070   -3.5340   24.8780 C   0  0  0  0  0  0  0  0  0  0  0  0
    7.3170   -0.1610   19.8550 C   0  0  0  0  0  0  0  0  0  0  0  0
    9.0420    0.3700   21.5280 C   0  0  0  0  0  0  0  0  0  0  0  0
    8.8720   -4.6805   26.9013 C   0  0  0  0  0  0  0  0  0  0  0  0
    9.8870    1.3260   23.5730 C   0  0  0  0  0  0  0  0  0  0  0  0
    7.6390   -0.2680   18.5410 N   0  0  0  0  0  0  0  0  0  0  0  0
    6.7580    0.3810   17.8350 N   0  0  0  0  0  0  0  0  0  0  0  0
    8.1890   -0.7180   20.8700 N   0  0  0  0  0  0  0  0  0  0  0  0
    9.4560    0.1560   22.8130 N   0  0  0  0  0  0  0  0  0  0  0  0
    9.2690    1.4140   20.9380 O   0  0  0  0  0  0  0  0  0  0  0  0
    9.2555   -4.7124   25.5274 O   0  0  0  0  0  0  0  0  0  0  0  0
   15.2322    1.5068   24.1308 H   0  0  0  0  0  0  0  0  0  0  0  0
    3.6468    2.0173   21.6825 H   0  0  0  0  0  0  0  0  0  0  0  0
   13.8473    0.3374   25.8248 H   0  0  0  0  0  0  0  0  0  0  0  0
   14.1503    2.5930   22.1795 H   0  0  0  0  0  0  0  0  0  0  0  0
    3.0153    2.6527   19.3907 H   0  0  0  0  0  0  0  0  0  0  0  0
    5.7015    0.6980   22.1071 H   0  0  0  0  0  0  0  0  0  0  0  0
   11.3889    0.2508   25.5729 H   0  0  0  0  0  0  0  0  0  0  0  0
   11.6930    2.5120   21.9187 H   0  0  0  0  0  0  0  0  0  0  0  0
    4.4064    1.9744   17.4453 H   0  0  0  0  0  0  0  0  0  0  0  0
    8.9221   -0.1995   25.4231 H   0  0  0  0  0  0  0  0  0  0  0  0
   10.0642   -2.2347   21.8253 H   0  0  0  0  0  0  0  0  0  0  0  0
    8.6902   -2.3588   26.5805 H   0  0  0  0  0  0  0  0  0  0  0  0
    9.9254   -4.3921   22.9961 H   0  0  0  0  0  0  0  0  0  0  0  0
    8.8711   -5.6964   27.3038 H   0  0  0  0  0  0  0  0  0  0  0  0
    7.8758   -4.2402   26.9923 H   0  0  0  0  0  0  0  0  0  0  0  0
    9.5894   -4.0716   27.4566 H   0  0  0  0  0  0  0  0  0  0  0  0
    9.3974    1.2912   24.5523 H   0  0  0  0  0  0  0  0  0  0  0  0
    9.5159    2.2168   23.0553 H   0  0  0  0  0  0  0  0  0  0  0  0
    6.8044    0.4388   16.8592 H   0  0  0  0  0  0  0  0  0  0  0  0
    8.2409   -1.5618   21.0967 H   0  0  0  0  0  0  0  0  0  0  0  0
  1  3  1  0  0  0  0
  1  4  2  0  0  0  0
  2  5  1  0  0  0  0
  2  6  2  0  0  0  0
  3  7  2  0  0  0  0
  4  8  1  0  0  0  0
  5  9  2  0  0  0  0
  6 14  1  0  0  0  0
  7 15  1  0  0  0  0
  8 15  2  0  0  0  0
  9 16  1  0  0  0  0
 10 12  2  0  0  0  0
 10 17  1  0  0  0  0
 11 13  1  0  0  0  0
 11 17  2  0  0  0  0
 12 18  1  0  0  0  0
 13 18  2  0  0  0  0
 14 16  2  0  0  0  0
 14 19  1  0  0  0  0
 15 22  1  0  0  0  0
 16 24  1  0  0  0  0
 17 26  1  0  0  0  0
 18 28  1  0  0  0  0
 19 23  2  0  0  0  0
 19 25  1  0  0  0  0
 20 25  1  0  0  0  0
 20 26  1  0  0  0  0
 20 27  2  0  0  0  0
 21 28  1  0  0  0  0
 22 26  1  0  0  0  0
 23 24  1  0  0  0  0
  1 29  1  0  0  0  0
  2 30  1  0  0  0  0
  3 31  1  0  0  0  0
  4 32  1  0  0  0  0
  5 33  1  0  0  0  0
  6 34  1  0  0  0  0
  7 35  1  0  0  0  0
  8 36  1  0  0  0  0
  9 37  1  0  0  0  0
 10 38  1  0  0  0  0
 11 39  1  0  0  0  0
 12 40  1  0  0  0  0
 13 41  1  0  0  0  0
 21 42  1  0  0  0  0
 21 43  1  0  0  0  0
 21 44  1  0  0  0  0
 22 45  1  0  0  0  0
 22 46  1  0  0  0  0
 24 47  1  0  0  0  0
 25 48  1  0  0  0  0
M  END
> <clash_score>
0

> <docking_score>
-7.7440924644470215

$$$$
BENZO_72_1
  -OEChem-08212019343D

 45 48  0     0  0  0  0  0  0999 V2000
    4.2750    1.7050   20.8490 C   0  0  0  0  0  0  0  0  0  0  0  0
    3.9160    2.0630   19.5520 C   0  0  0  0  0  0  0  0  0  0  0  0
    5.4210    0.9600   21.0930 C   0  0  0  0  0  0  0  0  0  0  0  0
    4.6890    1.6810   18.4640 C   0  0  0  0  0  0  0  0  0  0  0  0
    9.0720   -1.1280   24.8640 C   0  0  0  0  0  0  0  0  0  0  0  0
    9.7200   -2.2600   22.8630 C   0  0  0  0  0  0  0  0  0  0  0  0
    8.9960   -2.3380   25.5320 C   0  0  0  0  0  0  0  0  0  0  0  0
    9.6730   -3.4710   23.5300 C   0  0  0  0  0  0  0  0  0  0  0  0
   12.2913    1.4279   22.6355 C   0  0  0  0  0  0  0  0  0  0  0  0
   13.6024    1.4661   23.0564 C   0  0  0  0  0  0  0  0  0  0  0  0
   12.0284    1.3764   24.9443 C   0  0  0  0  0  0  0  0  0  0  0  0
    6.1790    0.5730   19.9990 C   0  0  0  0  0  0  0  0  0  0  0  0
   11.3794    1.3761   23.7290 C   0  0  0  0  0  0  0  0  0  0  0  0
    5.8300    0.9190   18.6970 C   0  0  0  0  0  0  0  0  0  0  0  0
    9.3350   -1.0880   23.5010 C   0  0  0  0  0  0  0  0  0  0  0  0
    9.3070   -3.5340   24.8780 C   0  0  0  0  0  0  0  0  0  0  0  0
    7.3170   -0.1610   19.8550 C   0  0  0  0  0  0  0  0  0  0  0  0
    9.0420    0.3700   21.5280 C   0  0  0  0  0  0  0  0  0  0  0  0
    8.8720   -4.6805   26.9013 C   0  0  0  0  0  0  0  0  0  0  0  0
    9.8870    1.3260   23.5730 C   0  0  0  0  0  0  0  0  0  0  0  0
    7.6390   -0.2680   18.5410 N   0  0  0  0  0  0  0  0  0  0  0  0
    6.7580    0.3810   17.8350 N   0  0  0  0  0  0  0  0  0  0  0  0
    8.1890   -0.7180   20.8700 N   0  0  0  0  0  0  0  0  0  0  0  0
    9.4560    0.1560   22.8130 N   0  0  0  0  0  0  0  0  0  0  0  0
    9.2690    1.4140   20.9380 O   0  0  0  0  0  0  0  0  0  0  0  0
    9.2555   -4.7124   25.5274 O   0  0  0  0  0  0  0  0  0  0  0  0
   13.7301    1.4394   24.7638 S   0  0  0  0  0  0  0  0  0  0  0  0
    3.6468    2.0173   21.6825 H   0  0  0  0  0  0  0  0  0  0  0  0
    3.0153    2.6527   19.3907 H   0  0  0  0  0  0  0  0  0  0  0  0
    5.7015    0.6980   22.1071 H   0  0  0  0  0  0  0  0  0  0  0  0
    4.4064    1.9744   17.4453 H   0  0  0  0  0  0  0  0  0  0  0  0
    8.9221   -0.1995   25.4231 H   0  0  0  0  0  0  0  0  0  0  0  0
   10.0642   -2.2347   21.8253 H   0  0  0  0  0  0  0  0  0  0  0  0
    8.6902   -2.3588   26.5805 H   0  0  0  0  0  0  0  0  0  0  0  0
    9.9254   -4.3921   22.9961 H   0  0  0  0  0  0  0  0  0  0  0  0
   12.0045    1.4365   21.5915 H   0  0  0  0  0  0  0  0  0  0  0  0
   14.4914    1.5078   22.4431 H   0  0  0  0  0  0  0  0  0  0  0  0
   11.5886    1.3416   25.9314 H   0  0  0  0  0  0  0  0  0  0  0  0
    8.8711   -5.6964   27.3038 H   0  0  0  0  0  0  0  0  0  0  0  0
    7.8758   -4.2402   26.9923 H   0  0  0  0  0  0  0  0  0  0  0  0
    9.5894   -4.0716   27.4566 H   0  0  0  0  0  0  0  0  0  0  0  0
    9.3974    1.2912   24.5523 H   0  0  0  0  0  0  0  0  0  0  0  0
    9.5159    2.2168   23.0553 H   0  0  0  0  0  0  0  0  0  0  0  0
    6.8044    0.4388   16.8592 H   0  0  0  0  0  0  0  0  0  0  0  0
    8.2409   -1.5618   21.0967 H   0  0  0  0  0  0  0  0  0  0  0  0
  1  2  1  0  0  0  0
  1  3  2  0  0  0  0
  2  4  2  0  0  0  0
  3 12  1  0  0  0  0
  4 14  1  0  0  0  0
  5  7  2  0  0  0  0
  5 15  1  0  0  0  0
  6  8  1  0  0  0  0
  6 15  2  0  0  0  0
  7 16  1  0  0  0  0
  8 16  2  0  0  0  0
  9 10  2  0  0  0  0
  9 13  1  0  0  0  0
 10 27  1  0  0  0  0
 11 13  2  0  0  0  0
 11 27  1  0  0  0  0
 12 14  2  0  0  0  0
 12 17  1  0  0  0  0
 13 20  1  0  0  0  0
 14 22  1  0  0  0  0
 15 24  1  0  0  0  0
 16 26  1  0  0  0  0
 17 21  2  0  0  0  0
 17 23  1  0  0  0  0
 18 23  1  0  0  0  0
 18 24  1  0  0  0  0
 18 25  2  0  0  0  0
 19 26  1  0  0  0  0
 20 24  1  0  0  0  0
 21 22  1  0  0  0  0
  1 28  1  0  0  0  0
  2 29  1  0  0  0  0
  3 30  1  0  0  0  0
  4 31  1  0  0  0  0
  5 32  1  0  0  0  0
  6 33  1  0  0  0  0
  7 34  1  0  0  0  0
  8 35  1  0  0  0  0
  9 36  1  0  0  0  0
 10 37  1  0  0  0  0
 11 38  1  0  0  0  0
 19 39  1  0  0  0  0
 19 40  1  0  0  0  0
 19 41  1  0  0  0  0
 20 42  1  0  0  0  0
 20 43  1  0  0  0  0
 22 44  1  0  0  0  0
 23 45  1  0  0  0  0
M  END
> <clash_score>
0

> <docking_score>
-7.822946071624756

$$$$
BENZO_74_1
  -OEChem-08212019343D

 48 51  0     0  0  0  0  0  0999 V2000
    4.2750    1.7050   20.8490 C   0  0  0  0  0  0  0  0  0  0  0  0
    3.9160    2.0630   19.5520 C   0  0  0  0  0  0  0  0  0  0  0  0
    6.4089    2.0844   24.8766 C   0  0  0  0  0  0  0  0  0  0  0  0
    5.4210    0.9600   21.0930 C   0  0  0  0  0  0  0  0  0  0  0  0
    7.4847    1.4191   24.2887 C   0  0  0  0  0  0  0  0  0  0  0  0
    4.6890    1.6810   18.4640 C   0  0  0  0  0  0  0  0  0  0  0  0
    9.0720   -1.1280   24.8640 C   0  0  0  0  0  0  0  0  0  0  0  0
    9.7200   -2.2600   22.8630 C   0  0  0  0  0  0  0  0  0  0  0  0
    8.9960   -2.3380   25.5320 C   0  0  0  0  0  0  0  0  0  0  0  0
    9.6730   -3.4710   23.5300 C   0  0  0  0  0  0  0  0  0  0  0  0
    6.5777    3.3741   25.3805 C   0  0  0  0  0  0  0  0  0  0  0  0
    8.8980    3.3330   24.7088 C   0  0  0  0  0  0  0  0  0  0  0  0
    6.1790    0.5730   19.9990 C   0  0  0  0  0  0  0  0  0  0  0  0
    8.7292    2.0433   24.2048 C   0  0  0  0  0  0  0  0  0  0  0  0
    5.8300    0.9190   18.6970 C   0  0  0  0  0  0  0  0  0  0  0  0
    9.3350   -1.0880   23.5010 C   0  0  0  0  0  0  0  0  0  0  0  0
    9.3070   -3.5340   24.8780 C   0  0  0  0  0  0  0  0  0  0  0  0
    7.8222    3.9984   25.2966 C   0  0  0  0  0  0  0  0  0  0  0  0
    7.3170   -0.1610   19.8550 C   0  0  0  0  0  0  0  0  0  0  0  0
    9.0420    0.3700   21.5280 C   0  0  0  0  0  0  0  0  0  0  0  0
    8.8720   -4.6805   26.9013 C   0  0  0  0  0  0  0  0  0  0  0  0
    9.8870    1.3260   23.5730 C   0  0  0  0  0  0  0  0  0  0  0  0
    7.6390   -0.2680   18.5410 N   0  0  0  0  0  0  0  0  0  0  0  0
    6.7580    0.3810   17.8350 N   0  0  0  0  0  0  0  0  0  0  0  0
    8.1890   -0.7180   20.8700 N   0  0  0  0  0  0  0  0  0  0  0  0
    9.4560    0.1560   22.8130 N   0  0  0  0  0  0  0  0  0  0  0  0
    9.2690    1.4140   20.9380 O   0  0  0  0  0  0  0  0  0  0  0  0
    9.2555   -4.7124   25.5274 O   0  0  0  0  0  0  0  0  0  0  0  0
    8.0301    5.5891   25.9196 Cl  0  0  0  0  0  0  0  0  0  0  0  0
    3.6468    2.0173   21.6825 H   0  0  0  0  0  0  0  0  0  0  0  0
    3.0153    2.6527   19.3907 H   0  0  0  0  0  0  0  0  0  0  0  0
    5.4400    1.5979   24.9418 H   0  0  0  0  0  0  0  0  0  0  0  0
    5.7015    0.6980   22.1071 H   0  0  0  0  0  0  0  0  0  0  0  0
    7.3441    0.4143   23.8988 H   0  0  0  0  0  0  0  0  0  0  0  0
    4.4064    1.9744   17.4453 H   0  0  0  0  0  0  0  0  0  0  0  0
    8.9221   -0.1995   25.4231 H   0  0  0  0  0  0  0  0  0  0  0  0
   10.0642   -2.2347   21.8253 H   0  0  0  0  0  0  0  0  0  0  0  0
    8.6902   -2.3588   26.5805 H   0  0  0  0  0  0  0  0  0  0  0  0
    9.9254   -4.3921   22.9961 H   0  0  0  0  0  0  0  0  0  0  0  0
    5.7304    3.8806   25.8363 H   0  0  0  0  0  0  0  0  0  0  0  0
    9.8703    3.8156   24.6405 H   0  0  0  0  0  0  0  0  0  0  0  0
    8.8711   -5.6964   27.3038 H   0  0  0  0  0  0  0  0  0  0  0  0
    7.8758   -4.2402   26.9923 H   0  0  0  0  0  0  0  0  0  0  0  0
    9.5894   -4.0716   27.4566 H   0  0  0  0  0  0  0  0  0  0  0  0
   10.4274    1.9911   22.8906 H   0  0  0  0  0  0  0  0  0  0  0  0
   10.6011    0.9882   24.3313 H   0  0  0  0  0  0  0  0  0  0  0  0
    6.8044    0.4388   16.8592 H   0  0  0  0  0  0  0  0  0  0  0  0
    8.2409   -1.5618   21.0967 H   0  0  0  0  0  0  0  0  0  0  0  0
  1  2  1  0  0  0  0
  1  4  2  0  0  0  0
  2  6  2  0  0  0  0
  3  5  2  0  0  0  0
  3 11  1  0  0  0  0
  4 13  1  0  0  0  0
  5 14  1  0  0  0  0
  6 15  1  0  0  0  0
  7  9  2  0  0  0  0
  7 16  1  0  0  0  0
  8 10  1  0  0  0  0
  8 16  2  0  0  0  0
  9 17  1  0  0  0  0
 10 17  2  0  0  0  0
 11 18  2  0  0  0  0
 12 14  2  0  0  0  0
 12 18  1  0  0  0  0
 13 15  2  0  0  0  0
 13 19  1  0  0  0  0
 14 22  1  0  0  0  0
 15 24  1  0  0  0  0
 16 26  1  0  0  0  0
 17 28  1  0  0  0  0
 18 29  1  0  0  0  0
 19 23  2  0  0  0  0
 19 25  1  0  0  0  0
 20 25  1  0  0  0  0
 20 26  1  0  0  0  0
 20 27  2  0  0  0  0
 21 28  1  0  0  0  0
 22 26  1  0  0  0  0
 23 24  1  0  0  0  0
  1 30  1  0  0  0  0
  2 31  1  0  0  0  0
  3 32  1  0  0  0  0
  4 33  1  0  0  0  0
  5 34  1  0  0  0  0
  6 35  1  0  0  0  0
  7 36  1  0  0  0  0
  8 37  1  0  0  0  0
  9 38  1  0  0  0  0
 10 39  1  0  0  0  0
 11 40  1  0  0  0  0
 12 41  1  0  0  0  0
 21 42  1  0  0  0  0
 21 43  1  0  0  0  0
 21 44  1  0  0  0  0
 22 45  1  0  0  0  0
 22 46  1  0  0  0  0
 24 47  1  0  0  0  0
 25 48  1  0  0  0  0
M  END
> <clash_score>
0

> <docking_score>
-7.130119800567627

$$$$
BENZO_78_1
  -OEChem-08212019343D

 58 62  0     0  0  0  0  0  0999 V2000
    4.2750    1.7050   20.8490 C   0  0  0  0  0  0  0  0  0  0  0  0
    3.9160    2.0630   19.5520 C   0  0  0  0  0  0  0  0  0  0  0  0
    6.4089    2.0844   24.8766 C   0  0  0  0  0  0  0  0  0  0  0  0
    5.4210    0.9600   21.0930 C   0  0  0  0  0  0  0  0  0  0  0  0
    7.4847    1.4191   24.2887 C   0  0  0  0  0  0  0  0  0  0  0  0
    4.6890    1.6810   18.4640 C   0  0  0  0  0  0  0  0  0  0  0  0
    8.9960   -2.3380   25.5320 C   0  0  0  0  0  0  0  0  0  0  0  0
    9.6730   -3.4710   23.5300 C   0  0  0  0  0  0  0  0  0  0  0  0
    9.0720   -1.1280   24.8640 C   0  0  0  0  0  0  0  0  0  0  0  0
    9.7200   -2.2600   22.8630 C   0  0  0  0  0  0  0  0  0  0  0  0
    6.5777    3.3741   25.3805 C   0  0  0  0  0  0  0  0  0  0  0  0
    8.8980    3.3330   24.7088 C   0  0  0  0  0  0  0  0  0  0  0  0
    6.1790    0.5730   19.9990 C   0  0  0  0  0  0  0  0  0  0  0  0
    8.7292    2.0433   24.2048 C   0  0  0  0  0  0  0  0  0  0  0  0
    5.8300    0.9190   18.6970 C   0  0  0  0  0  0  0  0  0  0  0  0
    9.3070   -3.5340   24.8780 C   0  0  0  0  0  0  0  0  0  0  0  0
    9.3350   -1.0880   23.5010 C   0  0  0  0  0  0  0  0  0  0  0  0
    7.8222    3.9984   25.2966 C   0  0  0  0  0  0  0  0  0  0  0  0
    7.3170   -0.1610   19.8550 C   0  0  0  0  0  0  0  0  0  0  0  0
    8.3597   -5.0073   26.6307 C   0  0  0  0  0  0  0  0  0  0  0  0
    9.0420    0.3700   21.5280 C   0  0  0  0  0  0  0  0  0  0  0  0
    8.4720   -6.3981   27.2296 C   0  0  0  0  0  0  0  0  0  0  0  0
    9.9252   -6.7605   27.4803 C   0  0  0  0  0  0  0  0  0  0  0  0
   10.7833   -6.6094   26.2282 C   0  0  0  0  0  0  0  0  0  0  0  0
   10.0539   -5.9099   25.0823 C   0  0  0  0  0  0  0  0  0  0  0  0
    9.8870    1.3260   23.5730 C   0  0  0  0  0  0  0  0  0  0  0  0
    7.6390   -0.2680   18.5410 N   0  0  0  0  0  0  0  0  0  0  0  0
    6.7580    0.3810   17.8350 N   0  0  0  0  0  0  0  0  0  0  0  0
    9.2529   -4.7797   25.5644 N   0  0  0  0  0  0  0  0  0  0  0  0
    8.1890   -0.7180   20.8700 N   0  0  0  0  0  0  0  0  0  0  0  0
    9.4560    0.1560   22.8130 N   0  0  0  0  0  0  0  0  0  0  0  0
    7.4954   -4.2356   27.0449 O   0  0  0  0  0  0  0  0  0  0  0  0
    9.2690    1.4140   20.9380 O   0  0  0  0  0  0  0  0  0  0  0  0
    8.0301    5.5891   25.9196 Cl  0  0  0  0  0  0  0  0  0  0  0  0
    3.6468    2.0173   21.6825 H   0  0  0  0  0  0  0  0  0  0  0  0
    3.0153    2.6527   19.3907 H   0  0  0  0  0  0  0  0  0  0  0  0
    5.4400    1.5979   24.9418 H   0  0  0  0  0  0  0  0  0  0  0  0
    5.7015    0.6980   22.1071 H   0  0  0  0  0  0  0  0  0  0  0  0
    7.3441    0.4143   23.8988 H   0  0  0  0  0  0  0  0  0  0  0  0
    4.4064    1.9744   17.4453 H   0  0  0  0  0  0  0  0  0  0  0  0
    8.6895   -2.3529   26.5807 H   0  0  0  0  0  0  0  0  0  0  0  0
    9.9262   -4.3897   22.9916 H   0  0  0  0  0  0  0  0  0  0  0  0
    8.9224   -0.1998   25.4238 H   0  0  0  0  0  0  0  0  0  0  0  0
   10.0649   -2.2343   21.8258 H   0  0  0  0  0  0  0  0  0  0  0  0
    5.7304    3.8806   25.8363 H   0  0  0  0  0  0  0  0  0  0  0  0
    9.8702    3.8156   24.6405 H   0  0  0  0  0  0  0  0  0  0  0  0
    7.9325   -6.4148   28.1641 H   0  0  0  0  0  0  0  0  0  0  0  0
    8.0254   -7.0920   26.5333 H   0  0  0  0  0  0  0  0  0  0  0  0
   10.3387   -6.1267   28.2923 H   0  0  0  0  0  0  0  0  0  0  0  0
    9.9904   -7.8023   27.8537 H   0  0  0  0  0  0  0  0  0  0  0  0
   11.7037   -6.0404   26.4771 H   0  0  0  0  0  0  0  0  0  0  0  0
   11.1411   -7.6068   25.8918 H   0  0  0  0  0  0  0  0  0  0  0  0
   10.7782   -5.5162   24.3756 H   0  0  0  0  0  0  0  0  0  0  0  0
    9.4042   -6.6189   24.5807 H   0  0  0  0  0  0  0  0  0  0  0  0
   10.4274    1.9911   22.8906 H   0  0  0  0  0  0  0  0  0  0  0  0
   10.6011    0.9882   24.3313 H   0  0  0  0  0  0  0  0  0  0  0  0
    6.8044    0.4388   16.8592 H   0  0  0  0  0  0  0  0  0  0  0  0
    8.2565   -1.5523   21.1108 H   0  0  0  0  0  0  0  0  0  0  0  0
  1  2  1  0  0  0  0
  1  4  2  0  0  0  0
  2  6  2  0  0  0  0
  3  5  2  0  0  0  0
  3 11  1  0  0  0  0
  4 13  1  0  0  0  0
  5 14  1  0  0  0  0
  6 15  1  0  0  0  0
  7  9  2  0  0  0  0
  7 16  1  0  0  0  0
  8 10  1  0  0  0  0
  8 16  2  0  0  0  0
  9 17  1  0  0  0  0
 10 17  2  0  0  0  0
 11 18  2  0  0  0  0
 12 14  2  0  0  0  0
 12 18  1  0  0  0  0
 13 15  2  0  0  0  0
 13 19  1  0  0  0  0
 14 26  1  0  0  0  0
 15 28  1  0  0  0  0
 16 29  1  0  0  0  0
 17 31  1  0  0  0  0
 18 34  1  0  0  0  0
 19 27  2  0  0  0  0
 19 30  1  0  0  0  0
 20 22  1  0  0  0  0
 20 29  1  0  0  0  0
 20 32  2  0  0  0  0
 21 30  1  0  0  0  0
 21 31  1  0  0  0  0
 21 33  2  0  0  0  0
 22 23  1  0  0  0  0
 23 24  1  0  0  0  0
 24 25  1  0  0  0  0
 25 29  1  0  0  0  0
 26 31  1  0  0  0  0
 27 28  1  0  0  0  0
  1 35  1  0  0  0  0
  2 36  1  0  0  0  0
  3 37  1  0  0  0  0
  4 38  1  0  0  0  0
  5 39  1  0  0  0  0
  6 40  1  0  0  0  0
  7 41  1  0  0  0  0
  8 42  1  0  0  0  0
  9 43  1  0  0  0  0
 10 44  1  0  0  0  0
 11 45  1  0  0  0  0
 12 46  1  0  0  0  0
 22 47  1  0  0  0  0
 22 48  1  0  0  0  0
 23 49  1  0  0  0  0
 23 50  1  0  0  0  0
 24 51  1  0  0  0  0
 24 52  1  0  0  0  0
 25 53  1  0  0  0  0
 25 54  1  0  0  0  0
 26 55  1  0  0  0  0
 26 56  1  0  0  0  0
 28 57  1  0  0  0  0
 30 58  1  0  0  0  0
M  END
> <clash_score>
0.7790751876189459

> <docking_score>
-6.489742279052734

$$$$
BENZO_76_1
  -OEChem-08212019343D

 55 59  0     0  0  0  0  0  0999 V2000
    4.2750    1.7050   20.8490 C   0  0  0  0  0  0  0  0  0  0  0  0
    3.9160    2.0630   19.5520 C   0  0  0  0  0  0  0  0  0  0  0  0
    5.4210    0.9600   21.0930 C   0  0  0  0  0  0  0  0  0  0  0  0
    4.6890    1.6810   18.4640 C   0  0  0  0  0  0  0  0  0  0  0  0
    8.9960   -2.3380   25.5320 C   0  0  0  0  0  0  0  0  0  0  0  0
    9.6730   -3.4710   23.5300 C   0  0  0  0  0  0  0  0  0  0  0  0
    9.0720   -1.1280   24.8640 C   0  0  0  0  0  0  0  0  0  0  0  0
    9.7200   -2.2600   22.8630 C   0  0  0  0  0  0  0  0  0  0  0  0
   12.2913    1.4279   22.6355 C   0  0  0  0  0  0  0  0  0  0  0  0
   13.6024    1.4661   23.0564 C   0  0  0  0  0  0  0  0  0  0  0  0
   12.0284    1.3764   24.9443 C   0  0  0  0  0  0  0  0  0  0  0  0
    6.1790    0.5730   19.9990 C   0  0  0  0  0  0  0  0  0  0  0  0
   11.3794    1.3761   23.7290 C   0  0  0  0  0  0  0  0  0  0  0  0
    5.8300    0.9190   18.6970 C   0  0  0  0  0  0  0  0  0  0  0  0
    9.3070   -3.5340   24.8780 C   0  0  0  0  0  0  0  0  0  0  0  0
    9.3350   -1.0880   23.5010 C   0  0  0  0  0  0  0  0  0  0  0  0
    7.3170   -0.1610   19.8550 C   0  0  0  0  0  0  0  0  0  0  0  0
    8.3597   -5.0073   26.6307 C   0  0  0  0  0  0  0  0  0  0  0  0
    9.0420    0.3700   21.5280 C   0  0  0  0  0  0  0  0  0  0  0  0
    8.4720   -6.3981   27.2296 C   0  0  0  0  0  0  0  0  0  0  0  0
    9.9252   -6.7605   27.4803 C   0  0  0  0  0  0  0  0  0  0  0  0
   10.7833   -6.6094   26.2282 C   0  0  0  0  0  0  0  0  0  0  0  0
   10.0539   -5.9099   25.0823 C   0  0  0  0  0  0  0  0  0  0  0  0
    9.8870    1.3260   23.5730 C   0  0  0  0  0  0  0  0  0  0  0  0
    7.6390   -0.2680   18.5410 N   0  0  0  0  0  0  0  0  0  0  0  0
    6.7580    0.3810   17.8350 N   0  0  0  0  0  0  0  0  0  0  0  0
    9.2529   -4.7797   25.5644 N   0  0  0  0  0  0  0  0  0  0  0  0
    8.1890   -0.7180   20.8700 N   0  0  0  0  0  0  0  0  0  0  0  0
    9.4560    0.1560   22.8130 N   0  0  0  0  0  0  0  0  0  0  0  0
    7.4954   -4.2356   27.0449 O   0  0  0  0  0  0  0  0  0  0  0  0
    9.2690    1.4140   20.9380 O   0  0  0  0  0  0  0  0  0  0  0  0
   13.7301    1.4394   24.7638 S   0  0  0  0  0  0  0  0  0  0  0  0
    3.6468    2.0173   21.6825 H   0  0  0  0  0  0  0  0  0  0  0  0
    3.0153    2.6527   19.3907 H   0  0  0  0  0  0  0  0  0  0  0  0
    5.7015    0.6980   22.1071 H   0  0  0  0  0  0  0  0  0  0  0  0
    4.4064    1.9744   17.4453 H   0  0  0  0  0  0  0  0  0  0  0  0
    8.6895   -2.3529   26.5807 H   0  0  0  0  0  0  0  0  0  0  0  0
    9.9262   -4.3897   22.9916 H   0  0  0  0  0  0  0  0  0  0  0  0
    8.9224   -0.1998   25.4238 H   0  0  0  0  0  0  0  0  0  0  0  0
   10.0649   -2.2343   21.8258 H   0  0  0  0  0  0  0  0  0  0  0  0
   12.0045    1.4365   21.5915 H   0  0  0  0  0  0  0  0  0  0  0  0
   14.4914    1.5078   22.4431 H   0  0  0  0  0  0  0  0  0  0  0  0
   11.5886    1.3416   25.9314 H   0  0  0  0  0  0  0  0  0  0  0  0
    7.9325   -6.4148   28.1641 H   0  0  0  0  0  0  0  0  0  0  0  0
    8.0254   -7.0920   26.5333 H   0  0  0  0  0  0  0  0  0  0  0  0
   10.3387   -6.1267   28.2923 H   0  0  0  0  0  0  0  0  0  0  0  0
    9.9904   -7.8023   27.8537 H   0  0  0  0  0  0  0  0  0  0  0  0
   11.7037   -6.0404   26.4771 H   0  0  0  0  0  0  0  0  0  0  0  0
   11.1411   -7.6068   25.8918 H   0  0  0  0  0  0  0  0  0  0  0  0
   10.7782   -5.5162   24.3756 H   0  0  0  0  0  0  0  0  0  0  0  0
    9.4042   -6.6189   24.5807 H   0  0  0  0  0  0  0  0  0  0  0  0
    9.3974    1.2912   24.5523 H   0  0  0  0  0  0  0  0  0  0  0  0
    9.5159    2.2168   23.0553 H   0  0  0  0  0  0  0  0  0  0  0  0
    6.8044    0.4388   16.8592 H   0  0  0  0  0  0  0  0  0  0  0  0
    8.2565   -1.5523   21.1108 H   0  0  0  0  0  0  0  0  0  0  0  0
  1  2  1  0  0  0  0
  1  3  2  0  0  0  0
  2  4  2  0  0  0  0
  3 12  1  0  0  0  0
  4 14  1  0  0  0  0
  5  7  2  0  0  0  0
  5 15  1  0  0  0  0
  6  8  1  0  0  0  0
  6 15  2  0  0  0  0
  7 16  1  0  0  0  0
  8 16  2  0  0  0  0
  9 10  2  0  0  0  0
  9 13  1  0  0  0  0
 10 32  1  0  0  0  0
 11 13  2  0  0  0  0
 11 32  1  0  0  0  0
 12 14  2  0  0  0  0
 12 17  1  0  0  0  0
 13 24  1  0  0  0  0
 14 26  1  0  0  0  0
 15 27  1  0  0  0  0
 16 29  1  0  0  0  0
 17 25  2  0  0  0  0
 17 28  1  0  0  0  0
 18 20  1  0  0  0  0
 18 27  1  0  0  0  0
 18 30  2  0  0  0  0
 19 28  1  0  0  0  0
 19 29  1  0  0  0  0
 19 31  2  0  0  0  0
 20 21  1  0  0  0  0
 21 22  1  0  0  0  0
 22 23  1  0  0  0  0
 23 27  1  0  0  0  0
 24 29  1  0  0  0  0
 25 26  1  0  0  0  0
  1 33  1  0  0  0  0
  2 34  1  0  0  0  0
  3 35  1  0  0  0  0
  4 36  1  0  0  0  0
  5 37  1  0  0  0  0
  6 38  1  0  0  0  0
  7 39  1  0  0  0  0
  8 40  1  0  0  0  0
  9 41  1  0  0  0  0
 10 42  1  0  0  0  0
 11 43  1  0  0  0  0
 20 44  1  0  0  0  0
 20 45  1  0  0  0  0
 21 46  1  0  0  0  0
 21 47  1  0  0  0  0
 22 48  1  0  0  0  0
 22 49  1  0  0  0  0
 23 50  1  0  0  0  0
 23 51  1  0  0  0  0
 24 52  1  0  0  0  0
 24 53  1  0  0  0  0
 26 54  1  0  0  0  0
 28 55  1  0  0  0  0
M  END
> <clash_score>
0.7790751876189459

> <docking_score>
-7.182589054107666

$$$$
BENZO_75_1
  -OEChem-08212019343D

 48 51  0     0  0  0  0  0  0999 V2000
    4.2750    1.7050   20.8490 C   0  0  0  0  0  0  0  0  0  0  0  0
    3.9160    2.0630   19.5520 C   0  0  0  0  0  0  0  0  0  0  0  0
    5.4210    0.9600   21.0930 C   0  0  0  0  0  0  0  0  0  0  0  0
    4.6890    1.6810   18.4640 C   0  0  0  0  0  0  0  0  0  0  0  0
    9.0720   -1.1280   24.8640 C   0  0  0  0  0  0  0  0  0  0  0  0
    9.7200   -2.2600   22.8630 C   0  0  0  0  0  0  0  0  0  0  0  0
    8.9960   -2.3380   25.5320 C   0  0  0  0  0  0  0  0  0  0  0  0
    9.6730   -3.4710   23.5300 C   0  0  0  0  0  0  0  0  0  0  0  0
   12.1233    1.3811   24.9242 C   0  0  0  0  0  0  0  0  0  0  0  0
   12.3262    1.4247   22.7351 C   0  0  0  0  0  0  0  0  0  0  0  0
    6.1790    0.5730   19.9990 C   0  0  0  0  0  0  0  0  0  0  0  0
   11.3794    1.3761   23.7290 C   0  0  0  0  0  0  0  0  0  0  0  0
    5.8300    0.9190   18.6970 C   0  0  0  0  0  0  0  0  0  0  0  0
    9.3350   -1.0880   23.5010 C   0  0  0  0  0  0  0  0  0  0  0  0
    9.3070   -3.5340   24.8780 C   0  0  0  0  0  0  0  0  0  0  0  0
    7.3170   -0.1610   19.8550 C   0  0  0  0  0  0  0  0  0  0  0  0
    9.0420    0.3700   21.5280 C   0  0  0  0  0  0  0  0  0  0  0  0
   14.8305    1.5084   22.7418 C   0  0  0  0  0  0  0  0  0  0  0  0
    8.8720   -4.6805   26.9013 C   0  0  0  0  0  0  0  0  0  0  0  0
    9.8870    1.3260   23.5730 C   0  0  0  0  0  0  0  0  0  0  0  0
   13.4410    1.4289   24.7112 N   0  0  0  0  0  0  0  0  0  0  0  0
    7.6390   -0.2680   18.5410 N   0  0  0  0  0  0  0  0  0  0  0  0
    6.7580    0.3810   17.8350 N   0  0  0  0  0  0  0  0  0  0  0  0
   13.5326    1.4543   23.3706 N   0  0  0  0  0  0  0  0  0  0  0  0
    8.1890   -0.7180   20.8700 N   0  0  0  0  0  0  0  0  0  0  0  0
    9.4560    0.1560   22.8130 N   0  0  0  0  0  0  0  0  0  0  0  0
    9.2690    1.4140   20.9380 O   0  0  0  0  0  0  0  0  0  0  0  0
    9.2555   -4.7124   25.5274 O   0  0  0  0  0  0  0  0  0  0  0  0
    3.6468    2.0173   21.6825 H   0  0  0  0  0  0  0  0  0  0  0  0
    3.0153    2.6527   19.3907 H   0  0  0  0  0  0  0  0  0  0  0  0
    5.7015    0.6980   22.1071 H   0  0  0  0  0  0  0  0  0  0  0  0
    4.4064    1.9744   17.4453 H   0  0  0  0  0  0  0  0  0  0  0  0
    8.9221   -0.1995   25.4231 H   0  0  0  0  0  0  0  0  0  0  0  0
   10.0642   -2.2347   21.8253 H   0  0  0  0  0  0  0  0  0  0  0  0
    8.6902   -2.3588   26.5805 H   0  0  0  0  0  0  0  0  0  0  0  0
    9.9254   -4.3921   22.9961 H   0  0  0  0  0  0  0  0  0  0  0  0
   11.7624    1.3510   25.9426 H   0  0  0  0  0  0  0  0  0  0  0  0
   12.2462    1.4390   21.6566 H   0  0  0  0  0  0  0  0  0  0  0  0
   15.0990    2.5601   22.6124 H   0  0  0  0  0  0  0  0  0  0  0  0
   15.5636    1.0018   23.3756 H   0  0  0  0  0  0  0  0  0  0  0  0
   14.7841    1.0025   21.7733 H   0  0  0  0  0  0  0  0  0  0  0  0
    8.8711   -5.6964   27.3038 H   0  0  0  0  0  0  0  0  0  0  0  0
    7.8758   -4.2402   26.9923 H   0  0  0  0  0  0  0  0  0  0  0  0
    9.5894   -4.0716   27.4566 H   0  0  0  0  0  0  0  0  0  0  0  0
    9.3974    1.2912   24.5523 H   0  0  0  0  0  0  0  0  0  0  0  0
    9.5159    2.2168   23.0553 H   0  0  0  0  0  0  0  0  0  0  0  0
    6.8044    0.4388   16.8592 H   0  0  0  0  0  0  0  0  0  0  0  0
    8.2409   -1.5618   21.0967 H   0  0  0  0  0  0  0  0  0  0  0  0
  1  2  1  0  0  0  0
  1  3  2  0  0  0  0
  2  4  2  0  0  0  0
  3 11  1  0  0  0  0
  4 13  1  0  0  0  0
  5  7  2  0  0  0  0
  5 14  1  0  0  0  0
  6  8  1  0  0  0  0
  6 14  2  0  0  0  0
  7 15  1  0  0  0  0
  8 15  2  0  0  0  0
  9 12  1  0  0  0  0
  9 21  2  0  0  0  0
 10 12  2  0  0  0  0
 10 24  1  0  0  0  0
 11 13  2  0  0  0  0
 11 16  1  0  0  0  0
 12 20  1  0  0  0  0
 13 23  1  0  0  0  0
 14 26  1  0  0  0  0
 15 28  1  0  0  0  0
 16 22  2  0  0  0  0
 16 25  1  0  0  0  0
 17 25  1  0  0  0  0
 17 26  1  0  0  0  0
 17 27  2  0  0  0  0
 18 24  1  0  0  0  0
 19 28  1  0  0  0  0
 20 26  1  0  0  0  0
 21 24  1  0  0  0  0
 22 23  1  0  0  0  0
  1 29  1  0  0  0  0
  2 30  1  0  0  0  0
  3 31  1  0  0  0  0
  4 32  1  0  0  0  0
  5 33  1  0  0  0  0
  6 34  1  0  0  0  0
  7 35  1  0  0  0  0
  8 36  1  0  0  0  0
  9 37  1  0  0  0  0
 10 38  1  0  0  0  0
 18 39  1  0  0  0  0
 18 40  1  0  0  0  0
 18 41  1  0  0  0  0
 19 42  1  0  0  0  0
 19 43  1  0  0  0  0
 19 44  1  0  0  0  0
 20 45  1  0  0  0  0
 20 46  1  0  0  0  0
 23 47  1  0  0  0  0
 25 48  1  0  0  0  0
M  END
> <clash_score>
0

> <docking_score>
-7.460227966308594

$$$$
BENZO_77_1
  -OEChem-08212019343D

 58 62  0     0  0  0  0  0  0999 V2000
   14.1526    1.4694   24.0176 C   0  0  0  0  0  0  0  0  0  0  0  0
    4.2750    1.7050   20.8490 C   0  0  0  0  0  0  0  0  0  0  0  0
   13.3741    0.8121   24.9701 C   0  0  0  0  0  0  0  0  0  0  0  0
   13.5446    2.0802   22.9208 C   0  0  0  0  0  0  0  0  0  0  0  0
    3.9160    2.0630   19.5520 C   0  0  0  0  0  0  0  0  0  0  0  0
    5.4210    0.9600   21.0930 C   0  0  0  0  0  0  0  0  0  0  0  0
   11.9875    0.7654   24.8259 C   0  0  0  0  0  0  0  0  0  0  0  0
   12.1580    2.0335   22.7765 C   0  0  0  0  0  0  0  0  0  0  0  0
    4.6890    1.6810   18.4640 C   0  0  0  0  0  0  0  0  0  0  0  0
    8.9960   -2.3380   25.5320 C   0  0  0  0  0  0  0  0  0  0  0  0
    9.6730   -3.4710   23.5300 C   0  0  0  0  0  0  0  0  0  0  0  0
    9.0720   -1.1280   24.8640 C   0  0  0  0  0  0  0  0  0  0  0  0
    9.7200   -2.2600   22.8630 C   0  0  0  0  0  0  0  0  0  0  0  0
    6.1790    0.5730   19.9990 C   0  0  0  0  0  0  0  0  0  0  0  0
   11.3794    1.3761   23.7290 C   0  0  0  0  0  0  0  0  0  0  0  0
    5.8300    0.9190   18.6970 C   0  0  0  0  0  0  0  0  0  0  0  0
    9.3070   -3.5340   24.8780 C   0  0  0  0  0  0  0  0  0  0  0  0
    9.3350   -1.0880   23.5010 C   0  0  0  0  0  0  0  0  0  0  0  0
    7.3170   -0.1610   19.8550 C   0  0  0  0  0  0  0  0  0  0  0  0
    8.3597   -5.0073   26.6307 C   0  0  0  0  0  0  0  0  0  0  0  0
    9.0420    0.3700   21.5280 C   0  0  0  0  0  0  0  0  0  0  0  0
    8.4720   -6.3981   27.2296 C   0  0  0  0  0  0  0  0  0  0  0  0
    9.9252   -6.7605   27.4803 C   0  0  0  0  0  0  0  0  0  0  0  0
   10.7833   -6.6094   26.2282 C   0  0  0  0  0  0  0  0  0  0  0  0
   10.0539   -5.9099   25.0823 C   0  0  0  0  0  0  0  0  0  0  0  0
    9.8870    1.3260   23.5730 C   0  0  0  0  0  0  0  0  0  0  0  0
    7.6390   -0.2680   18.5410 N   0  0  0  0  0  0  0  0  0  0  0  0
    6.7580    0.3810   17.8350 N   0  0  0  0  0  0  0  0  0  0  0  0
    9.2529   -4.7797   25.5644 N   0  0  0  0  0  0  0  0  0  0  0  0
    8.1890   -0.7180   20.8700 N   0  0  0  0  0  0  0  0  0  0  0  0
    9.4560    0.1560   22.8130 N   0  0  0  0  0  0  0  0  0  0  0  0
    7.4954   -4.2356   27.0449 O   0  0  0  0  0  0  0  0  0  0  0  0
    9.2690    1.4140   20.9380 O   0  0  0  0  0  0  0  0  0  0  0  0
   15.2322    1.5068   24.1308 H   0  0  0  0  0  0  0  0  0  0  0  0
    3.6468    2.0173   21.6825 H   0  0  0  0  0  0  0  0  0  0  0  0
   13.8473    0.3374   25.8248 H   0  0  0  0  0  0  0  0  0  0  0  0
   14.1503    2.5930   22.1795 H   0  0  0  0  0  0  0  0  0  0  0  0
    3.0153    2.6527   19.3907 H   0  0  0  0  0  0  0  0  0  0  0  0
    5.7015    0.6980   22.1071 H   0  0  0  0  0  0  0  0  0  0  0  0
   11.3889    0.2508   25.5729 H   0  0  0  0  0  0  0  0  0  0  0  0
   11.6930    2.5120   21.9187 H   0  0  0  0  0  0  0  0  0  0  0  0
    4.4064    1.9744   17.4453 H   0  0  0  0  0  0  0  0  0  0  0  0
    8.6895   -2.3529   26.5807 H   0  0  0  0  0  0  0  0  0  0  0  0
    9.9262   -4.3897   22.9916 H   0  0  0  0  0  0  0  0  0  0  0  0
    8.9224   -0.1998   25.4238 H   0  0  0  0  0  0  0  0  0  0  0  0
   10.0649   -2.2343   21.8258 H   0  0  0  0  0  0  0  0  0  0  0  0
    7.9325   -6.4148   28.1641 H   0  0  0  0  0  0  0  0  0  0  0  0
    8.0254   -7.0920   26.5333 H   0  0  0  0  0  0  0  0  0  0  0  0
   10.3387   -6.1267   28.2923 H   0  0  0  0  0  0  0  0  0  0  0  0
    9.9904   -7.8023   27.8537 H   0  0  0  0  0  0  0  0  0  0  0  0
   11.7037   -6.0404   26.4771 H   0  0  0  0  0  0  0  0  0  0  0  0
   11.1411   -7.6068   25.8918 H   0  0  0  0  0  0  0  0  0  0  0  0
   10.7782   -5.5162   24.3756 H   0  0  0  0  0  0  0  0  0  0  0  0
    9.4042   -6.6189   24.5807 H   0  0  0  0  0  0  0  0  0  0  0  0
    9.3974    1.2912   24.5523 H   0  0  0  0  0  0  0  0  0  0  0  0
    9.5159    2.2168   23.0553 H   0  0  0  0  0  0  0  0  0  0  0  0
    6.8044    0.4388   16.8592 H   0  0  0  0  0  0  0  0  0  0  0  0
    8.2565   -1.5523   21.1108 H   0  0  0  0  0  0  0  0  0  0  0  0
  1  3  1  0  0  0  0
  1  4  2  0  0  0  0
  2  5  1  0  0  0  0
  2  6  2  0  0  0  0
  3  7  2  0  0  0  0
  4  8  1  0  0  0  0
  5  9  2  0  0  0  0
  6 14  1  0  0  0  0
  7 15  1  0  0  0  0
  8 15  2  0  0  0  0
  9 16  1  0  0  0  0
 10 12  2  0  0  0  0
 10 17  1  0  0  0  0
 11 13  1  0  0  0  0
 11 17  2  0  0  0  0
 12 18  1  0  0  0  0
 13 18  2  0  0  0  0
 14 16  2  0  0  0  0
 14 19  1  0  0  0  0
 15 26  1  0  0  0  0
 16 28  1  0  0  0  0
 17 29  1  0  0  0  0
 18 31  1  0  0  0  0
 19 27  2  0  0  0  0
 19 30  1  0  0  0  0
 20 22  1  0  0  0  0
 20 29  1  0  0  0  0
 20 32  2  0  0  0  0
 21 30  1  0  0  0  0
 21 31  1  0  0  0  0
 21 33  2  0  0  0  0
 22 23  1  0  0  0  0
 23 24  1  0  0  0  0
 24 25  1  0  0  0  0
 25 29  1  0  0  0  0
 26 31  1  0  0  0  0
 27 28  1  0  0  0  0
  1 34  1  0  0  0  0
  2 35  1  0  0  0  0
  3 36  1  0  0  0  0
  4 37  1  0  0  0  0
  5 38  1  0  0  0  0
  6 39  1  0  0  0  0
  7 40  1  0  0  0  0
  8 41  1  0  0  0  0
  9 42  1  0  0  0  0
 10 43  1  0  0  0  0
 11 44  1  0  0  0  0
 12 45  1  0  0  0  0
 13 46  1  0  0  0  0
 22 47  1  0  0  0  0
 22 48  1  0  0  0  0
 23 49  1  0  0  0  0
 23 50  1  0  0  0  0
 24 51  1  0  0  0  0
 24 52  1  0  0  0  0
 25 53  1  0  0  0  0
 25 54  1  0  0  0  0
 26 55  1  0  0  0  0
 26 56  1  0  0  0  0
 28 57  1  0  0  0  0
 30 58  1  0  0  0  0
M  END
> <clash_score>
0.7790751876189459

> <docking_score>
-7.103707790374756

$$$$
BENZO_79_1
  -OEChem-08212019343D

 58 62  0     0  0  0  0  0  0999 V2000
    4.2750    1.7050   20.8490 C   0  0  0  0  0  0  0  0  0  0  0  0
    3.9160    2.0630   19.5520 C   0  0  0  0  0  0  0  0  0  0  0  0
    5.4210    0.9600   21.0930 C   0  0  0  0  0  0  0  0  0  0  0  0
    4.6890    1.6810   18.4640 C   0  0  0  0  0  0  0  0  0  0  0  0
    8.9960   -2.3380   25.5320 C   0  0  0  0  0  0  0  0  0  0  0  0
    9.6730   -3.4710   23.5300 C   0  0  0  0  0  0  0  0  0  0  0  0
    9.0720   -1.1280   24.8640 C   0  0  0  0  0  0  0  0  0  0  0  0
    9.7200   -2.2600   22.8630 C   0  0  0  0  0  0  0  0  0  0  0  0
   12.1233    1.3811   24.9242 C   0  0  0  0  0  0  0  0  0  0  0  0
   12.3262    1.4247   22.7351 C   0  0  0  0  0  0  0  0  0  0  0  0
    6.1790    0.5730   19.9990 C   0  0  0  0  0  0  0  0  0  0  0  0
   11.3794    1.3761   23.7290 C   0  0  0  0  0  0  0  0  0  0  0  0
    5.8300    0.9190   18.6970 C   0  0  0  0  0  0  0  0  0  0  0  0
    9.3070   -3.5340   24.8780 C   0  0  0  0  0  0  0  0  0  0  0  0
    9.3350   -1.0880   23.5010 C   0  0  0  0  0  0  0  0  0  0  0  0
    7.3170   -0.1610   19.8550 C   0  0  0  0  0  0  0  0  0  0  0  0
    8.3597   -5.0073   26.6307 C   0  0  0  0  0  0  0  0  0  0  0  0
    9.0420    0.3700   21.5280 C   0  0  0  0  0  0  0  0  0  0  0  0
    8.4720   -6.3981   27.2296 C   0  0  0  0  0  0  0  0  0  0  0  0
    9.9252   -6.7605   27.4803 C   0  0  0  0  0  0  0  0  0  0  0  0
   10.7833   -6.6094   26.2282 C   0  0  0  0  0  0  0  0  0  0  0  0
   10.0539   -5.9099   25.0823 C   0  0  0  0  0  0  0  0  0  0  0  0
   14.8305    1.5084   22.7418 C   0  0  0  0  0  0  0  0  0  0  0  0
    9.8870    1.3260   23.5730 C   0  0  0  0  0  0  0  0  0  0  0  0
   13.4410    1.4289   24.7112 N   0  0  0  0  0  0  0  0  0  0  0  0
    7.6390   -0.2680   18.5410 N   0  0  0  0  0  0  0  0  0  0  0  0
    6.7580    0.3810   17.8350 N   0  0  0  0  0  0  0  0  0  0  0  0
   13.5326    1.4543   23.3706 N   0  0  0  0  0  0  0  0  0  0  0  0
    9.2529   -4.7797   25.5644 N   0  0  0  0  0  0  0  0  0  0  0  0
    8.1890   -0.7180   20.8700 N   0  0  0  0  0  0  0  0  0  0  0  0
    9.4560    0.1560   22.8130 N   0  0  0  0  0  0  0  0  0  0  0  0
    7.4954   -4.2356   27.0449 O   0  0  0  0  0  0  0  0  0  0  0  0
    9.2690    1.4140   20.9380 O   0  0  0  0  0  0  0  0  0  0  0  0
    3.6468    2.0173   21.6825 H   0  0  0  0  0  0  0  0  0  0  0  0
    3.0153    2.6527   19.3907 H   0  0  0  0  0  0  0  0  0  0  0  0
    5.7015    0.6980   22.1071 H   0  0  0  0  0  0  0  0  0  0  0  0
    4.4064    1.9744   17.4453 H   0  0  0  0  0  0  0  0  0  0  0  0
    8.6895   -2.3529   26.5807 H   0  0  0  0  0  0  0  0  0  0  0  0
    9.9262   -4.3897   22.9916 H   0  0  0  0  0  0  0  0  0  0  0  0
    8.9224   -0.1998   25.4238 H   0  0  0  0  0  0  0  0  0  0  0  0
   10.0649   -2.2343   21.8258 H   0  0  0  0  0  0  0  0  0  0  0  0
   11.7624    1.3510   25.9426 H   0  0  0  0  0  0  0  0  0  0  0  0
   12.2462    1.4390   21.6566 H   0  0  0  0  0  0  0  0  0  0  0  0
    7.9325   -6.4148   28.1641 H   0  0  0  0  0  0  0  0  0  0  0  0
    8.0254   -7.0920   26.5333 H   0  0  0  0  0  0  0  0  0  0  0  0
   10.3387   -6.1267   28.2923 H   0  0  0  0  0  0  0  0  0  0  0  0
    9.9904   -7.8023   27.8537 H   0  0  0  0  0  0  0  0  0  0  0  0
   11.7037   -6.0404   26.4771 H   0  0  0  0  0  0  0  0  0  0  0  0
   11.1411   -7.6068   25.8918 H   0  0  0  0  0  0  0  0  0  0  0  0
   10.7782   -5.5162   24.3756 H   0  0  0  0  0  0  0  0  0  0  0  0
    9.4042   -6.6189   24.5807 H   0  0  0  0  0  0  0  0  0  0  0  0
   15.0990    2.5601   22.6124 H   0  0  0  0  0  0  0  0  0  0  0  0
   15.5636    1.0018   23.3756 H   0  0  0  0  0  0  0  0  0  0  0  0
   14.7842    1.0025   21.7733 H   0  0  0  0  0  0  0  0  0  0  0  0
    9.3974    1.2912   24.5523 H   0  0  0  0  0  0  0  0  0  0  0  0
    9.5159    2.2168   23.0553 H   0  0  0  0  0  0  0  0  0  0  0  0
    6.8044    0.4388   16.8592 H   0  0  0  0  0  0  0  0  0  0  0  0
    8.2565   -1.5523   21.1108 H   0  0  0  0  0  0  0  0  0  0  0  0
  1  2  1  0  0  0  0
  1  3  2  0  0  0  0
  2  4  2  0  0  0  0
  3 11  1  0  0  0  0
  4 13  1  0  0  0  0
  5  7  2  0  0  0  0
  5 14  1  0  0  0  0
  6  8  1  0  0  0  0
  6 14  2  0  0  0  0
  7 15  1  0  0  0  0
  8 15  2  0  0  0  0
  9 12  1  0  0  0  0
  9 25  2  0  0  0  0
 10 12  2  0  0  0  0
 10 28  1  0  0  0  0
 11 13  2  0  0  0  0
 11 16  1  0  0  0  0
 12 24  1  0  0  0  0
 13 27  1  0  0  0  0
 14 29  1  0  0  0  0
 15 31  1  0  0  0  0
 16 26  2  0  0  0  0
 16 30  1  0  0  0  0
 17 19  1  0  0  0  0
 17 29  1  0  0  0  0
 17 32  2  0  0  0  0
 18 30  1  0  0  0  0
 18 31  1  0  0  0  0
 18 33  2  0  0  0  0
 19 20  1  0  0  0  0
 20 21  1  0  0  0  0
 21 22  1  0  0  0  0
 22 29  1  0  0  0  0
 23 28  1  0  0  0  0
 24 31  1  0  0  0  0
 25 28  1  0  0  0  0
 26 27  1  0  0  0  0
  1 34  1  0  0  0  0
  2 35  1  0  0  0  0
  3 36  1  0  0  0  0
  4 37  1  0  0  0  0
  5 38  1  0  0  0  0
  6 39  1  0  0  0  0
  7 40  1  0  0  0  0
  8 41  1  0  0  0  0
  9 42  1  0  0  0  0
 10 43  1  0  0  0  0
 19 44  1  0  0  0  0
 19 45  1  0  0  0  0
 20 46  1  0  0  0  0
 20 47  1  0  0  0  0
 21 48  1  0  0  0  0
 21 49  1  0  0  0  0
 22 50  1  0  0  0  0
 22 51  1  0  0  0  0
 23 52  1  0  0  0  0
 23 53  1  0  0  0  0
 23 54  1  0  0  0  0
 24 55  1  0  0  0  0
 24 56  1  0  0  0  0
 27 57  1  0  0  0  0
 30 58  1  0  0  0  0
M  END
> <clash_score>
0.7790751876189459

> <docking_score>
-6.819869041442871

$$$$
BENZO_81_1
  -OEChem-08212019383D

 57 61  0     0  0  0  0  0  0999 V2000
   14.1526    1.4694   24.0176 C   0  0  0  0  0  0  0  0  0  0  0  0
    4.2750    1.7050   20.8490 C   0  0  0  0  0  0  0  0  0  0  0  0
   13.3741    0.8121   24.9701 C   0  0  0  0  0  0  0  0  0  0  0  0
   13.5446    2.0802   22.9208 C   0  0  0  0  0  0  0  0  0  0  0  0
    3.9160    2.0630   19.5520 C   0  0  0  0  0  0  0  0  0  0  0  0
    5.4210    0.9600   21.0930 C   0  0  0  0  0  0  0  0  0  0  0  0
   11.9875    0.7654   24.8258 C   0  0  0  0  0  0  0  0  0  0  0  0
   12.1580    2.0335   22.7765 C   0  0  0  0  0  0  0  0  0  0  0  0
    4.6890    1.6810   18.4640 C   0  0  0  0  0  0  0  0  0  0  0  0
    8.9960   -2.3380   25.5320 C   0  0  0  0  0  0  0  0  0  0  0  0
    9.6730   -3.4710   23.5300 C   0  0  0  0  0  0  0  0  0  0  0  0
    9.0720   -1.1280   24.8640 C   0  0  0  0  0  0  0  0  0  0  0  0
    9.7200   -2.2600   22.8630 C   0  0  0  0  0  0  0  0  0  0  0  0
    6.1790    0.5730   19.9990 C   0  0  0  0  0  0  0  0  0  0  0  0
   11.3794    1.3761   23.7290 C   0  0  0  0  0  0  0  0  0  0  0  0
    5.8300    0.9190   18.6970 C   0  0  0  0  0  0  0  0  0  0  0  0
    9.3070   -3.5340   24.8780 C   0  0  0  0  0  0  0  0  0  0  0  0
    9.3350   -1.0880   23.5010 C   0  0  0  0  0  0  0  0  0  0  0  0
    7.3170   -0.1610   19.8550 C   0  0  0  0  0  0  0  0  0  0  0  0
    9.0420    0.3700   21.5280 C   0  0  0  0  0  0  0  0  0  0  0  0
   10.0771   -5.0255   26.7193 C   0  0  0  0  0  0  0  0  0  0  0  0
    8.0927   -5.6195   25.4071 C   0  0  0  0  0  0  0  0  0  0  0  0
    9.1933   -4.9427   27.9592 C   0  0  0  0  0  0  0  0  0  0  0  0
    7.2756   -5.5290   26.6967 C   0  0  0  0  0  0  0  0  0  0  0  0
    9.8870    1.3260   23.5730 C   0  0  0  0  0  0  0  0  0  0  0  0
    7.6390   -0.2680   18.5410 N   0  0  0  0  0  0  0  0  0  0  0  0
    6.7580    0.3810   17.8350 N   0  0  0  0  0  0  0  0  0  0  0  0
    9.2563   -4.7368   25.5413 N   0  0  0  0  0  0  0  0  0  0  0  0
    8.1890   -0.7180   20.8700 N   0  0  0  0  0  0  0  0  0  0  0  0
    9.4560    0.1560   22.8130 N   0  0  0  0  0  0  0  0  0  0  0  0
    9.2690    1.4140   20.9380 O   0  0  0  0  0  0  0  0  0  0  0  0
    8.0883   -5.8459   27.8325 O   0  0  0  0  0  0  0  0  0  0  0  0
   15.2322    1.5068   24.1308 H   0  0  0  0  0  0  0  0  0  0  0  0
    3.6468    2.0173   21.6825 H   0  0  0  0  0  0  0  0  0  0  0  0
   13.8473    0.3374   25.8248 H   0  0  0  0  0  0  0  0  0  0  0  0
   14.1503    2.5930   22.1795 H   0  0  0  0  0  0  0  0  0  0  0  0
    3.0153    2.6527   19.3907 H   0  0  0  0  0  0  0  0  0  0  0  0
    5.7015    0.6980   22.1071 H   0  0  0  0  0  0  0  0  0  0  0  0
   11.3889    0.2508   25.5729 H   0  0  0  0  0  0  0  0  0  0  0  0
   11.6930    2.5120   21.9187 H   0  0  0  0  0  0  0  0  0  0  0  0
    4.4064    1.9744   17.4453 H   0  0  0  0  0  0  0  0  0  0  0  0
    8.6905   -2.3533   26.5810 H   0  0  0  0  0  0  0  0  0  0  0  0
    9.9266   -4.3896   22.9917 H   0  0  0  0  0  0  0  0  0  0  0  0
    8.9233   -0.1992   25.4232 H   0  0  0  0  0  0  0  0  0  0  0  0
   10.0650   -2.2330   21.8256 H   0  0  0  0  0  0  0  0  0  0  0  0
   10.8985   -4.3115   26.8085 H   0  0  0  0  0  0  0  0  0  0  0  0
   10.4915   -6.0334   26.6323 H   0  0  0  0  0  0  0  0  0  0  0  0
    8.4327   -6.6456   25.2620 H   0  0  0  0  0  0  0  0  0  0  0  0
    7.4725   -5.3241   24.5619 H   0  0  0  0  0  0  0  0  0  0  0  0
    9.7636   -5.2398   28.8419 H   0  0  0  0  0  0  0  0  0  0  0  0
    8.8236   -3.9268   28.1248 H   0  0  0  0  0  0  0  0  0  0  0  0
    6.8339   -4.5337   26.8232 H   0  0  0  0  0  0  0  0  0  0  0  0
    6.4550   -6.2521   26.6643 H   0  0  0  0  0  0  0  0  0  0  0  0
    9.3974    1.2912   24.5523 H   0  0  0  0  0  0  0  0  0  0  0  0
    9.5159    2.2168   23.0553 H   0  0  0  0  0  0  0  0  0  0  0  0
    6.8044    0.4388   16.8592 H   0  0  0  0  0  0  0  0  0  0  0  0
    8.2565   -1.5523   21.1108 H   0  0  0  0  0  0  0  0  0  0  0  0
  1  3  1  0  0  0  0
  1  4  2  0  0  0  0
  2  5  1  0  0  0  0
  2  6  2  0  0  0  0
  3  7  2  0  0  0  0
  4  8  1  0  0  0  0
  5  9  2  0  0  0  0
  6 14  1  0  0  0  0
  7 15  1  0  0  0  0
  8 15  2  0  0  0  0
  9 16  1  0  0  0  0
 10 12  2  0  0  0  0
 10 17  1  0  0  0  0
 11 13  1  0  0  0  0
 11 17  2  0  0  0  0
 12 18  1  0  0  0  0
 13 18  2  0  0  0  0
 14 16  2  0  0  0  0
 14 19  1  0  0  0  0
 15 25  1  0  0  0  0
 16 27  1  0  0  0  0
 17 28  1  0  0  0  0
 18 30  1  0  0  0  0
 19 26  2  0  0  0  0
 19 29  1  0  0  0  0
 20 29  1  0  0  0  0
 20 30  1  0  0  0  0
 20 31  2  0  0  0  0
 21 23  1  0  0  0  0
 21 28  1  0  0  0  0
 22 24  1  0  0  0  0
 22 28  1  0  0  0  0
 23 32  1  0  0  0  0
 24 32  1  0  0  0  0
 25 30  1  0  0  0  0
 26 27  1  0  0  0  0
  1 33  1  0  0  0  0
  2 34  1  0  0  0  0
  3 35  1  0  0  0  0
  4 36  1  0  0  0  0
  5 37  1  0  0  0  0
  6 38  1  0  0  0  0
  7 39  1  0  0  0  0
  8 40  1  0  0  0  0
  9 41  1  0  0  0  0
 10 42  1  0  0  0  0
 11 43  1  0  0  0  0
 12 44  1  0  0  0  0
 13 45  1  0  0  0  0
 21 46  1  0  0  0  0
 21 47  1  0  0  0  0
 22 48  1  0  0  0  0
 22 49  1  0  0  0  0
 23 50  1  0  0  0  0
 23 51  1  0  0  0  0
 24 52  1  0  0  0  0
 24 53  1  0  0  0  0
 25 54  1  0  0  0  0
 25 55  1  0  0  0  0
 27 56  1  0  0  0  0
 29 57  1  0  0  0  0
M  END
> <clash_score>
0

> <docking_score>
-8.084836959838867

$$$$
BENZO_80_1
  -OEChem-08212019393D

 54 58  0     0  0  0  0  0  0999 V2000
    4.2750    1.7050   20.8490 C   0  0  0  0  0  0  0  0  0  0  0  0
    3.9160    2.0630   19.5520 C   0  0  0  0  0  0  0  0  0  0  0  0
    5.4210    0.9600   21.0930 C   0  0  0  0  0  0  0  0  0  0  0  0
    4.6890    1.6810   18.4640 C   0  0  0  0  0  0  0  0  0  0  0  0
    8.9960   -2.3380   25.5320 C   0  0  0  0  0  0  0  0  0  0  0  0
    9.6730   -3.4710   23.5300 C   0  0  0  0  0  0  0  0  0  0  0  0
    9.0720   -1.1280   24.8640 C   0  0  0  0  0  0  0  0  0  0  0  0
    9.7200   -2.2600   22.8630 C   0  0  0  0  0  0  0  0  0  0  0  0
   12.2913    1.4279   22.6355 C   0  0  0  0  0  0  0  0  0  0  0  0
   13.6024    1.4662   23.0564 C   0  0  0  0  0  0  0  0  0  0  0  0
   12.0284    1.3764   24.9443 C   0  0  0  0  0  0  0  0  0  0  0  0
    6.1790    0.5730   19.9990 C   0  0  0  0  0  0  0  0  0  0  0  0
   11.3794    1.3761   23.7290 C   0  0  0  0  0  0  0  0  0  0  0  0
    5.8300    0.9190   18.6970 C   0  0  0  0  0  0  0  0  0  0  0  0
    9.3070   -3.5340   24.8780 C   0  0  0  0  0  0  0  0  0  0  0  0
    9.3350   -1.0880   23.5010 C   0  0  0  0  0  0  0  0  0  0  0  0
    7.3170   -0.1610   19.8550 C   0  0  0  0  0  0  0  0  0  0  0  0
    9.0420    0.3700   21.5280 C   0  0  0  0  0  0  0  0  0  0  0  0
   10.0771   -5.0255   26.7193 C   0  0  0  0  0  0  0  0  0  0  0  0
    8.0927   -5.6195   25.4071 C   0  0  0  0  0  0  0  0  0  0  0  0
    9.1933   -4.9427   27.9592 C   0  0  0  0  0  0  0  0  0  0  0  0
    7.2756   -5.5290   26.6967 C   0  0  0  0  0  0  0  0  0  0  0  0
    9.8870    1.3260   23.5730 C   0  0  0  0  0  0  0  0  0  0  0  0
    7.6390   -0.2680   18.5410 N   0  0  0  0  0  0  0  0  0  0  0  0
    6.7580    0.3810   17.8350 N   0  0  0  0  0  0  0  0  0  0  0  0
    9.2563   -4.7368   25.5413 N   0  0  0  0  0  0  0  0  0  0  0  0
    8.1890   -0.7180   20.8700 N   0  0  0  0  0  0  0  0  0  0  0  0
    9.4560    0.1560   22.8130 N   0  0  0  0  0  0  0  0  0  0  0  0
    9.2690    1.4140   20.9380 O   0  0  0  0  0  0  0  0  0  0  0  0
    8.0883   -5.8459   27.8325 O   0  0  0  0  0  0  0  0  0  0  0  0
   13.7301    1.4394   24.7638 S   0  0  0  0  0  0  0  0  0  0  0  0
    3.6468    2.0173   21.6825 H   0  0  0  0  0  0  0  0  0  0  0  0
    3.0153    2.6527   19.3907 H   0  0  0  0  0  0  0  0  0  0  0  0
    5.7015    0.6980   22.1071 H   0  0  0  0  0  0  0  0  0  0  0  0
    4.4064    1.9744   17.4453 H   0  0  0  0  0  0  0  0  0  0  0  0
    8.6905   -2.3533   26.5810 H   0  0  0  0  0  0  0  0  0  0  0  0
    9.9266   -4.3896   22.9917 H   0  0  0  0  0  0  0  0  0  0  0  0
    8.9233   -0.1992   25.4232 H   0  0  0  0  0  0  0  0  0  0  0  0
   10.0650   -2.2330   21.8256 H   0  0  0  0  0  0  0  0  0  0  0  0
   12.0045    1.4365   21.5915 H   0  0  0  0  0  0  0  0  0  0  0  0
   14.4914    1.5078   22.4431 H   0  0  0  0  0  0  0  0  0  0  0  0
   11.5886    1.3416   25.9314 H   0  0  0  0  0  0  0  0  0  0  0  0
   10.8985   -4.3115   26.8085 H   0  0  0  0  0  0  0  0  0  0  0  0
   10.4915   -6.0334   26.6323 H   0  0  0  0  0  0  0  0  0  0  0  0
    8.4327   -6.6456   25.2620 H   0  0  0  0  0  0  0  0  0  0  0  0
    7.4725   -5.3241   24.5619 H   0  0  0  0  0  0  0  0  0  0  0  0
    9.7636   -5.2398   28.8419 H   0  0  0  0  0  0  0  0  0  0  0  0
    8.8236   -3.9268   28.1248 H   0  0  0  0  0  0  0  0  0  0  0  0
    6.8339   -4.5337   26.8232 H   0  0  0  0  0  0  0  0  0  0  0  0
    6.4550   -6.2521   26.6643 H   0  0  0  0  0  0  0  0  0  0  0  0
    9.3974    1.2912   24.5523 H   0  0  0  0  0  0  0  0  0  0  0  0
    9.5159    2.2168   23.0553 H   0  0  0  0  0  0  0  0  0  0  0  0
    6.8044    0.4388   16.8592 H   0  0  0  0  0  0  0  0  0  0  0  0
    8.2565   -1.5523   21.1108 H   0  0  0  0  0  0  0  0  0  0  0  0
  1  2  1  0  0  0  0
  1  3  2  0  0  0  0
  2  4  2  0  0  0  0
  3 12  1  0  0  0  0
  4 14  1  0  0  0  0
  5  7  2  0  0  0  0
  5 15  1  0  0  0  0
  6  8  1  0  0  0  0
  6 15  2  0  0  0  0
  7 16  1  0  0  0  0
  8 16  2  0  0  0  0
  9 10  2  0  0  0  0
  9 13  1  0  0  0  0
 10 31  1  0  0  0  0
 11 13  2  0  0  0  0
 11 31  1  0  0  0  0
 12 14  2  0  0  0  0
 12 17  1  0  0  0  0
 13 23  1  0  0  0  0
 14 25  1  0  0  0  0
 15 26  1  0  0  0  0
 16 28  1  0  0  0  0
 17 24  2  0  0  0  0
 17 27  1  0  0  0  0
 18 27  1  0  0  0  0
 18 28  1  0  0  0  0
 18 29  2  0  0  0  0
 19 21  1  0  0  0  0
 19 26  1  0  0  0  0
 20 22  1  0  0  0  0
 20 26  1  0  0  0  0
 21 30  1  0  0  0  0
 22 30  1  0  0  0  0
 23 28  1  0  0  0  0
 24 25  1  0  0  0  0
  1 32  1  0  0  0  0
  2 33  1  0  0  0  0
  3 34  1  0  0  0  0
  4 35  1  0  0  0  0
  5 36  1  0  0  0  0
  6 37  1  0  0  0  0
  7 38  1  0  0  0  0
  8 39  1  0  0  0  0
  9 40  1  0  0  0  0
 10 41  1  0  0  0  0
 11 42  1  0  0  0  0
 19 43  1  0  0  0  0
 19 44  1  0  0  0  0
 20 45  1  0  0  0  0
 20 46  1  0  0  0  0
 21 47  1  0  0  0  0
 21 48  1  0  0  0  0
 22 49  1  0  0  0  0
 22 50  1  0  0  0  0
 23 51  1  0  0  0  0
 23 52  1  0  0  0  0
 25 53  1  0  0  0  0
 27 54  1  0  0  0  0
M  END
> <clash_score>
0

> <docking_score>
-8.163700103759766

$$$$
BENZO_85_1
  -OEChem-08212019393D

 51 54  0     0  0  0  0  0  0999 V2000
   14.1526    1.4694   24.0176 C   0  0  0  0  0  0  0  0  0  0  0  0
   13.3741    0.8121   24.9701 C   0  0  0  0  0  0  0  0  0  0  0  0
   13.5446    2.0802   22.9208 C   0  0  0  0  0  0  0  0  0  0  0  0
   11.9875    0.7654   24.8258 C   0  0  0  0  0  0  0  0  0  0  0  0
   12.1580    2.0335   22.7765 C   0  0  0  0  0  0  0  0  0  0  0  0
    9.0720   -1.1280   24.8640 C   0  0  0  0  0  0  0  0  0  0  0  0
    9.7200   -2.2600   22.8630 C   0  0  0  0  0  0  0  0  0  0  0  0
    8.9960   -2.3380   25.5320 C   0  0  0  0  0  0  0  0  0  0  0  0
    9.6730   -3.4710   23.5300 C   0  0  0  0  0  0  0  0  0  0  0  0
   11.3794    1.3761   23.7290 C   0  0  0  0  0  0  0  0  0  0  0  0
    9.3350   -1.0880   23.5010 C   0  0  0  0  0  0  0  0  0  0  0  0
    9.3070   -3.5340   24.8780 C   0  0  0  0  0  0  0  0  0  0  0  0
    6.1790    0.5730   19.9990 C   0  0  0  0  0  0  0  0  0  0  0  0
    7.3170   -0.1610   19.8550 C   0  0  0  0  0  0  0  0  0  0  0  0
    5.4210    0.9600   21.0930 C   0  0  0  0  0  0  0  0  0  0  0  0
    4.2750    1.7050   20.8490 C   0  0  0  0  0  0  0  0  0  0  0  0
    3.9160    2.0630   19.5520 C   0  0  0  0  0  0  0  0  0  0  0  0
    4.6890    1.6810   18.4640 C   0  0  0  0  0  0  0  0  0  0  0  0
    9.0420    0.3700   21.5280 C   0  0  0  0  0  0  0  0  0  0  0  0
    8.0128   -5.2151   26.1416 C   0  0  0  0  0  0  0  0  0  0  0  0
   10.4372   -5.5860   25.6589 C   0  0  0  0  0  0  0  0  0  0  0  0
    9.8870    1.3260   23.5730 C   0  0  0  0  0  0  0  0  0  0  0  0
    7.6390   -0.2680   18.5410 N   0  0  0  0  0  0  0  0  0  0  0  0
    6.7580    0.3810   17.8350 N   0  0  0  0  0  0  0  0  0  0  0  0
    5.8300    0.9190   18.6970 N   0  0  0  0  0  0  0  0  0  0  0  0
    8.1890   -0.7180   20.8700 N   0  0  0  0  0  0  0  0  0  0  0  0
    9.4560    0.1560   22.8130 N   0  0  0  0  0  0  0  0  0  0  0  0
    9.2543   -4.7552   25.5519 N   0  0  0  0  0  0  0  0  0  0  0  0
    9.2690    1.4140   20.9380 O   0  0  0  0  0  0  0  0  0  0  0  0
   15.2322    1.5068   24.1308 H   0  0  0  0  0  0  0  0  0  0  0  0
   13.8473    0.3374   25.8248 H   0  0  0  0  0  0  0  0  0  0  0  0
   14.1503    2.5930   22.1795 H   0  0  0  0  0  0  0  0  0  0  0  0
   11.3889    0.2508   25.5729 H   0  0  0  0  0  0  0  0  0  0  0  0
   11.6929    2.5120   21.9187 H   0  0  0  0  0  0  0  0  0  0  0  0
    8.9217   -0.1995   25.4232 H   0  0  0  0  0  0  0  0  0  0  0  0
   10.0643   -2.2341   21.8254 H   0  0  0  0  0  0  0  0  0  0  0  0
    8.6893   -2.3540   26.5808 H   0  0  0  0  0  0  0  0  0  0  0  0
    9.9257   -4.3898   22.9921 H   0  0  0  0  0  0  0  0  0  0  0  0
    5.6855    0.7074   22.1002 H   0  0  0  0  0  0  0  0  0  0  0  0
    3.6634    2.0034   21.6926 H   0  0  0  0  0  0  0  0  0  0  0  0
    3.0111    2.6563   19.3629 H   0  0  0  0  0  0  0  0  0  0  0  0
    4.4370    1.9522   17.4626 H   0  0  0  0  0  0  0  0  0  0  0  0
    8.1744   -6.1904   26.6238 H   0  0  0  0  0  0  0  0  0  0  0  0
    7.6718   -4.4870   26.8924 H   0  0  0  0  0  0  0  0  0  0  0  0
    7.2494   -5.3166   25.3561 H   0  0  0  0  0  0  0  0  0  0  0  0
   10.1946   -6.4995   26.2216 H   0  0  0  0  0  0  0  0  0  0  0  0
   10.7865   -5.8577   24.6518 H   0  0  0  0  0  0  0  0  0  0  0  0
   11.2285   -5.0312   26.1842 H   0  0  0  0  0  0  0  0  0  0  0  0
    9.3974    1.2912   24.5523 H   0  0  0  0  0  0  0  0  0  0  0  0
    9.5159    2.2168   23.0553 H   0  0  0  0  0  0  0  0  0  0  0  0
    8.2368   -1.5645   21.0930 H   0  0  0  0  0  0  0  0  0  0  0  0
  1  2  1  0  0  0  0
  1  3  2  0  0  0  0
  2  4  2  0  0  0  0
  3  5  1  0  0  0  0
  4 10  1  0  0  0  0
  5 10  2  0  0  0  0
  6  8  2  0  0  0  0
  6 11  1  0  0  0  0
  7  9  1  0  0  0  0
  7 11  2  0  0  0  0
  8 12  1  0  0  0  0
  9 12  2  0  0  0  0
 10 22  1  0  0  0  0
 11 27  1  0  0  0  0
 12 28  1  0  0  0  0
 13 14  2  0  0  0  0
 13 15  1  0  0  0  0
 13 25  1  0  0  0  0
 14 23  1  0  0  0  0
 14 26  1  0  0  0  0
 15 16  2  0  0  0  0
 16 17  1  0  0  0  0
 17 18  2  0  0  0  0
 18 25  1  0  0  0  0
 19 26  1  0  0  0  0
 19 27  1  0  0  0  0
 19 29  2  0  0  0  0
 20 28  1  0  0  0  0
 21 28  1  0  0  0  0
 22 27  1  0  0  0  0
 23 24  2  0  0  0  0
 24 25  1  0  0  0  0
  1 30  1  0  0  0  0
  2 31  1  0  0  0  0
  3 32  1  0  0  0  0
  4 33  1  0  0  0  0
  5 34  1  0  0  0  0
  6 35  1  0  0  0  0
  7 36  1  0  0  0  0
  8 37  1  0  0  0  0
  9 38  1  0  0  0  0
 15 39  1  0  0  0  0
 16 40  1  0  0  0  0
 17 41  1  0  0  0  0
 18 42  1  0  0  0  0
 20 43  1  0  0  0  0
 20 44  1  0  0  0  0
 20 45  1  0  0  0  0
 21 46  1  0  0  0  0
 21 47  1  0  0  0  0
 21 48  1  0  0  0  0
 22 49  1  0  0  0  0
 22 50  1  0  0  0  0
 26 51  1  0  0  0  0
M  END
> <clash_score>
0

> <docking_score>
-9.488998413085938

$$$$
BENZO_83_1
  -OEChem-08212019393D

 57 61  0     0  0  0  0  0  0999 V2000
    4.2750    1.7050   20.8490 C   0  0  0  0  0  0  0  0  0  0  0  0
    3.9160    2.0630   19.5520 C   0  0  0  0  0  0  0  0  0  0  0  0
    5.4210    0.9600   21.0930 C   0  0  0  0  0  0  0  0  0  0  0  0
    4.6890    1.6810   18.4640 C   0  0  0  0  0  0  0  0  0  0  0  0
    8.9960   -2.3380   25.5320 C   0  0  0  0  0  0  0  0  0  0  0  0
    9.6730   -3.4710   23.5300 C   0  0  0  0  0  0  0  0  0  0  0  0
    9.0720   -1.1280   24.8640 C   0  0  0  0  0  0  0  0  0  0  0  0
    9.7200   -2.2600   22.8630 C   0  0  0  0  0  0  0  0  0  0  0  0
   12.1233    1.3811   24.9242 C   0  0  0  0  0  0  0  0  0  0  0  0
   12.3261    1.4247   22.7351 C   0  0  0  0  0  0  0  0  0  0  0  0
    6.1790    0.5730   19.9990 C   0  0  0  0  0  0  0  0  0  0  0  0
   11.3794    1.3761   23.7290 C   0  0  0  0  0  0  0  0  0  0  0  0
    5.8300    0.9190   18.6970 C   0  0  0  0  0  0  0  0  0  0  0  0
    9.3070   -3.5340   24.8780 C   0  0  0  0  0  0  0  0  0  0  0  0
    9.3350   -1.0880   23.5010 C   0  0  0  0  0  0  0  0  0  0  0  0
    7.3170   -0.1610   19.8550 C   0  0  0  0  0  0  0  0  0  0  0  0
    9.0420    0.3700   21.5280 C   0  0  0  0  0  0  0  0  0  0  0  0
   10.0771   -5.0255   26.7193 C   0  0  0  0  0  0  0  0  0  0  0  0
    8.0927   -5.6195   25.4071 C   0  0  0  0  0  0  0  0  0  0  0  0
    9.1933   -4.9427   27.9592 C   0  0  0  0  0  0  0  0  0  0  0  0
    7.2756   -5.5290   26.6967 C   0  0  0  0  0  0  0  0  0  0  0  0
   14.8305    1.5084   22.7418 C   0  0  0  0  0  0  0  0  0  0  0  0
    9.8870    1.3260   23.5730 C   0  0  0  0  0  0  0  0  0  0  0  0
   13.4410    1.4289   24.7112 N   0  0  0  0  0  0  0  0  0  0  0  0
    7.6390   -0.2680   18.5410 N   0  0  0  0  0  0  0  0  0  0  0  0
    6.7580    0.3810   17.8350 N   0  0  0  0  0  0  0  0  0  0  0  0
   13.5326    1.4543   23.3707 N   0  0  0  0  0  0  0  0  0  0  0  0
    9.2563   -4.7368   25.5413 N   0  0  0  0  0  0  0  0  0  0  0  0
    8.1890   -0.7180   20.8700 N   0  0  0  0  0  0  0  0  0  0  0  0
    9.4560    0.1560   22.8130 N   0  0  0  0  0  0  0  0  0  0  0  0
    9.2690    1.4140   20.9380 O   0  0  0  0  0  0  0  0  0  0  0  0
    8.0883   -5.8459   27.8325 O   0  0  0  0  0  0  0  0  0  0  0  0
    3.6468    2.0173   21.6825 H   0  0  0  0  0  0  0  0  0  0  0  0
    3.0153    2.6527   19.3907 H   0  0  0  0  0  0  0  0  0  0  0  0
    5.7015    0.6980   22.1071 H   0  0  0  0  0  0  0  0  0  0  0  0
    4.4064    1.9744   17.4453 H   0  0  0  0  0  0  0  0  0  0  0  0
    8.6905   -2.3533   26.5810 H   0  0  0  0  0  0  0  0  0  0  0  0
    9.9266   -4.3896   22.9917 H   0  0  0  0  0  0  0  0  0  0  0  0
    8.9233   -0.1992   25.4232 H   0  0  0  0  0  0  0  0  0  0  0  0
   10.0650   -2.2330   21.8256 H   0  0  0  0  0  0  0  0  0  0  0  0
   11.7624    1.3510   25.9426 H   0  0  0  0  0  0  0  0  0  0  0  0
   12.2462    1.4390   21.6566 H   0  0  0  0  0  0  0  0  0  0  0  0
   10.8985   -4.3115   26.8085 H   0  0  0  0  0  0  0  0  0  0  0  0
   10.4915   -6.0334   26.6323 H   0  0  0  0  0  0  0  0  0  0  0  0
    8.4327   -6.6456   25.2620 H   0  0  0  0  0  0  0  0  0  0  0  0
    7.4725   -5.3241   24.5619 H   0  0  0  0  0  0  0  0  0  0  0  0
    9.7636   -5.2398   28.8419 H   0  0  0  0  0  0  0  0  0  0  0  0
    8.8236   -3.9268   28.1248 H   0  0  0  0  0  0  0  0  0  0  0  0
    6.8339   -4.5337   26.8232 H   0  0  0  0  0  0  0  0  0  0  0  0
    6.4550   -6.2521   26.6643 H   0  0  0  0  0  0  0  0  0  0  0  0
   15.0990    2.5601   22.6124 H   0  0  0  0  0  0  0  0  0  0  0  0
   15.5636    1.0018   23.3756 H   0  0  0  0  0  0  0  0  0  0  0  0
   14.7841    1.0025   21.7733 H   0  0  0  0  0  0  0  0  0  0  0  0
    9.3974    1.2912   24.5523 H   0  0  0  0  0  0  0  0  0  0  0  0
    9.5159    2.2168   23.0553 H   0  0  0  0  0  0  0  0  0  0  0  0
    6.8044    0.4388   16.8592 H   0  0  0  0  0  0  0  0  0  0  0  0
    8.2565   -1.5523   21.1108 H   0  0  0  0  0  0  0  0  0  0  0  0
  1  2  1  0  0  0  0
  1  3  2  0  0  0  0
  2  4  2  0  0  0  0
  3 11  1  0  0  0  0
  4 13  1  0  0  0  0
  5  7  2  0  0  0  0
  5 14  1  0  0  0  0
  6  8  1  0  0  0  0
  6 14  2  0  0  0  0
  7 15  1  0  0  0  0
  8 15  2  0  0  0  0
  9 12  1  0  0  0  0
  9 24  2  0  0  0  0
 10 12  2  0  0  0  0
 10 27  1  0  0  0  0
 11 13  2  0  0  0  0
 11 16  1  0  0  0  0
 12 23  1  0  0  0  0
 13 26  1  0  0  0  0
 14 28  1  0  0  0  0
 15 30  1  0  0  0  0
 16 25  2  0  0  0  0
 16 29  1  0  0  0  0
 17 29  1  0  0  0  0
 17 30  1  0  0  0  0
 17 31  2  0  0  0  0
 18 20  1  0  0  0  0
 18 28  1  0  0  0  0
 19 21  1  0  0  0  0
 19 28  1  0  0  0  0
 20 32  1  0  0  0  0
 21 32  1  0  0  0  0
 22 27  1  0  0  0  0
 23 30  1  0  0  0  0
 24 27  1  0  0  0  0
 25 26  1  0  0  0  0
  1 33  1  0  0  0  0
  2 34  1  0  0  0  0
  3 35  1  0  0  0  0
  4 36  1  0  0  0  0
  5 37  1  0  0  0  0
  6 38  1  0  0  0  0
  7 39  1  0  0  0  0
  8 40  1  0  0  0  0
  9 41  1  0  0  0  0
 10 42  1  0  0  0  0
 18 43  1  0  0  0  0
 18 44  1  0  0  0  0
 19 45  1  0  0  0  0
 19 46  1  0  0  0  0
 20 47  1  0  0  0  0
 20 48  1  0  0  0  0
 21 49  1  0  0  0  0
 21 50  1  0  0  0  0
 22 51  1  0  0  0  0
 22 52  1  0  0  0  0
 22 53  1  0  0  0  0
 23 54  1  0  0  0  0
 23 55  1  0  0  0  0
 26 56  1  0  0  0  0
 29 57  1  0  0  0  0
M  END
> <clash_score>
0

> <docking_score>
-7.800978660583496

$$$$
BENZO_84_1
  -OEChem-08212019393D

 48 51  0     0  0  0  0  0  0999 V2000
    9.0720   -1.1280   24.8640 C   0  0  0  0  0  0  0  0  0  0  0  0
    9.7200   -2.2600   22.8630 C   0  0  0  0  0  0  0  0  0  0  0  0
    8.9960   -2.3380   25.5320 C   0  0  0  0  0  0  0  0  0  0  0  0
    9.6730   -3.4710   23.5300 C   0  0  0  0  0  0  0  0  0  0  0  0
   12.2913    1.4279   22.6355 C   0  0  0  0  0  0  0  0  0  0  0  0
   13.6024    1.4661   23.0564 C   0  0  0  0  0  0  0  0  0  0  0  0
   12.0284    1.3764   24.9443 C   0  0  0  0  0  0  0  0  0  0  0  0
   11.3794    1.3761   23.7290 C   0  0  0  0  0  0  0  0  0  0  0  0
    9.3350   -1.0880   23.5010 C   0  0  0  0  0  0  0  0  0  0  0  0
    9.3070   -3.5340   24.8780 C   0  0  0  0  0  0  0  0  0  0  0  0
    6.1790    0.5730   19.9990 C   0  0  0  0  0  0  0  0  0  0  0  0
    7.3170   -0.1610   19.8550 C   0  0  0  0  0  0  0  0  0  0  0  0
    5.4210    0.9600   21.0930 C   0  0  0  0  0  0  0  0  0  0  0  0
    4.2750    1.7050   20.8490 C   0  0  0  0  0  0  0  0  0  0  0  0
    3.9160    2.0630   19.5520 C   0  0  0  0  0  0  0  0  0  0  0  0
    4.6890    1.6810   18.4640 C   0  0  0  0  0  0  0  0  0  0  0  0
    9.0420    0.3700   21.5280 C   0  0  0  0  0  0  0  0  0  0  0  0
    8.0128   -5.2151   26.1416 C   0  0  0  0  0  0  0  0  0  0  0  0
   10.4372   -5.5860   25.6589 C   0  0  0  0  0  0  0  0  0  0  0  0
    9.8870    1.3260   23.5730 C   0  0  0  0  0  0  0  0  0  0  0  0
    7.6390   -0.2680   18.5410 N   0  0  0  0  0  0  0  0  0  0  0  0
    6.7580    0.3810   17.8350 N   0  0  0  0  0  0  0  0  0  0  0  0
    5.8300    0.9190   18.6970 N   0  0  0  0  0  0  0  0  0  0  0  0
    8.1890   -0.7180   20.8700 N   0  0  0  0  0  0  0  0  0  0  0  0
    9.4560    0.1560   22.8130 N   0  0  0  0  0  0  0  0  0  0  0  0
    9.2543   -4.7552   25.5519 N   0  0  0  0  0  0  0  0  0  0  0  0
    9.2690    1.4140   20.9380 O   0  0  0  0  0  0  0  0  0  0  0  0
   13.7301    1.4394   24.7638 S   0  0  0  0  0  0  0  0  0  0  0  0
    8.9217   -0.1995   25.4232 H   0  0  0  0  0  0  0  0  0  0  0  0
   10.0643   -2.2341   21.8254 H   0  0  0  0  0  0  0  0  0  0  0  0
    8.6893   -2.3540   26.5808 H   0  0  0  0  0  0  0  0  0  0  0  0
    9.9257   -4.3898   22.9921 H   0  0  0  0  0  0  0  0  0  0  0  0
   12.0045    1.4365   21.5915 H   0  0  0  0  0  0  0  0  0  0  0  0
   14.4914    1.5078   22.4431 H   0  0  0  0  0  0  0  0  0  0  0  0
   11.5886    1.3416   25.9314 H   0  0  0  0  0  0  0  0  0  0  0  0
    5.6855    0.7074   22.1002 H   0  0  0  0  0  0  0  0  0  0  0  0
    3.6634    2.0034   21.6926 H   0  0  0  0  0  0  0  0  0  0  0  0
    3.0111    2.6563   19.3629 H   0  0  0  0  0  0  0  0  0  0  0  0
    4.4370    1.9522   17.4626 H   0  0  0  0  0  0  0  0  0  0  0  0
    8.1744   -6.1904   26.6238 H   0  0  0  0  0  0  0  0  0  0  0  0
    7.6718   -4.4870   26.8924 H   0  0  0  0  0  0  0  0  0  0  0  0
    7.2494   -5.3166   25.3561 H   0  0  0  0  0  0  0  0  0  0  0  0
   10.1946   -6.4995   26.2216 H   0  0  0  0  0  0  0  0  0  0  0  0
   10.7865   -5.8577   24.6518 H   0  0  0  0  0  0  0  0  0  0  0  0
   11.2285   -5.0312   26.1842 H   0  0  0  0  0  0  0  0  0  0  0  0
    9.3974    1.2912   24.5523 H   0  0  0  0  0  0  0  0  0  0  0  0
    9.5159    2.2168   23.0553 H   0  0  0  0  0  0  0  0  0  0  0  0
    8.2368   -1.5645   21.0930 H   0  0  0  0  0  0  0  0  0  0  0  0
  1  3  2  0  0  0  0
  1  9  1  0  0  0  0
  2  4  1  0  0  0  0
  2  9  2  0  0  0  0
  3 10  1  0  0  0  0
  4 10  2  0  0  0  0
  5  6  2  0  0  0  0
  5  8  1  0  0  0  0
  6 28  1  0  0  0  0
  7  8  2  0  0  0  0
  7 28  1  0  0  0  0
  8 20  1  0  0  0  0
  9 25  1  0  0  0  0
 10 26  1  0  0  0  0
 11 12  2  0  0  0  0
 11 13  1  0  0  0  0
 11 23  1  0  0  0  0
 12 21  1  0  0  0  0
 12 24  1  0  0  0  0
 13 14  2  0  0  0  0
 14 15  1  0  0  0  0
 15 16  2  0  0  0  0
 16 23  1  0  0  0  0
 17 24  1  0  0  0  0
 17 25  1  0  0  0  0
 17 27  2  0  0  0  0
 18 26  1  0  0  0  0
 19 26  1  0  0  0  0
 20 25  1  0  0  0  0
 21 22  2  0  0  0  0
 22 23  1  0  0  0  0
  1 29  1  0  0  0  0
  2 30  1  0  0  0  0
  3 31  1  0  0  0  0
  4 32  1  0  0  0  0
  5 33  1  0  0  0  0
  6 34  1  0  0  0  0
  7 35  1  0  0  0  0
 13 36  1  0  0  0  0
 14 37  1  0  0  0  0
 15 38  1  0  0  0  0
 16 39  1  0  0  0  0
 18 40  1  0  0  0  0
 18 41  1  0  0  0  0
 18 42  1  0  0  0  0
 19 43  1  0  0  0  0
 19 44  1  0  0  0  0
 19 45  1  0  0  0  0
 20 46  1  0  0  0  0
 20 47  1  0  0  0  0
 24 48  1  0  0  0  0
M  END
> <clash_score>
0

> <docking_score>
-9.567852020263672

$$$$
BENZO_82_1
  -OEChem-08212019393D

 57 61  0     0  0  0  0  0  0999 V2000
    4.2750    1.7050   20.8490 C   0  0  0  0  0  0  0  0  0  0  0  0
    3.9160    2.0630   19.5520 C   0  0  0  0  0  0  0  0  0  0  0  0
    6.4089    2.0844   24.8766 C   0  0  0  0  0  0  0  0  0  0  0  0
    5.4210    0.9600   21.0930 C   0  0  0  0  0  0  0  0  0  0  0  0
    7.4847    1.4191   24.2887 C   0  0  0  0  0  0  0  0  0  0  0  0
    4.6890    1.6810   18.4640 C   0  0  0  0  0  0  0  0  0  0  0  0
    8.9960   -2.3380   25.5320 C   0  0  0  0  0  0  0  0  0  0  0  0
    9.6730   -3.4710   23.5300 C   0  0  0  0  0  0  0  0  0  0  0  0
    9.0720   -1.1280   24.8640 C   0  0  0  0  0  0  0  0  0  0  0  0
    9.7200   -2.2600   22.8630 C   0  0  0  0  0  0  0  0  0  0  0  0
    6.5777    3.3741   25.3805 C   0  0  0  0  0  0  0  0  0  0  0  0
    8.8980    3.3330   24.7088 C   0  0  0  0  0  0  0  0  0  0  0  0
    6.1790    0.5730   19.9990 C   0  0  0  0  0  0  0  0  0  0  0  0
    8.7292    2.0433   24.2048 C   0  0  0  0  0  0  0  0  0  0  0  0
    5.8300    0.9190   18.6970 C   0  0  0  0  0  0  0  0  0  0  0  0
    9.3070   -3.5340   24.8780 C   0  0  0  0  0  0  0  0  0  0  0  0
    9.3350   -1.0880   23.5010 C   0  0  0  0  0  0  0  0  0  0  0  0
    7.8222    3.9984   25.2966 C   0  0  0  0  0  0  0  0  0  0  0  0
    7.3170   -0.1610   19.8550 C   0  0  0  0  0  0  0  0  0  0  0  0
    9.0420    0.3700   21.5280 C   0  0  0  0  0  0  0  0  0  0  0  0
    9.5175   -4.8597   26.9771 C   0  0  0  0  0  0  0  0  0  0  0  0
    8.5165   -5.8725   24.9808 C   0  0  0  0  0  0  0  0  0  0  0  0
    8.1868   -5.0439   27.6987 C   0  0  0  0  0  0  0  0  0  0  0  0
    7.2200   -6.0347   25.7755 C   0  0  0  0  0  0  0  0  0  0  0  0
    9.8870    1.3260   23.5730 C   0  0  0  0  0  0  0  0  0  0  0  0
    7.6390   -0.2680   18.5410 N   0  0  0  0  0  0  0  0  0  0  0  0
    6.7580    0.3810   17.8350 N   0  0  0  0  0  0  0  0  0  0  0  0
    9.2563   -4.7368   25.5413 N   0  0  0  0  0  0  0  0  0  0  0  0
    8.1890   -0.7180   20.8700 N   0  0  0  0  0  0  0  0  0  0  0  0
    9.4560    0.1560   22.8130 N   0  0  0  0  0  0  0  0  0  0  0  0
    9.2690    1.4140   20.9380 O   0  0  0  0  0  0  0  0  0  0  0  0
    7.4994   -6.1853   27.1719 O   0  0  0  0  0  0  0  0  0  0  0  0
    8.0301    5.5891   25.9196 Cl  0  0  0  0  0  0  0  0  0  0  0  0
    3.6468    2.0173   21.6825 H   0  0  0  0  0  0  0  0  0  0  0  0
    3.0153    2.6527   19.3907 H   0  0  0  0  0  0  0  0  0  0  0  0
    5.4400    1.5979   24.9418 H   0  0  0  0  0  0  0  0  0  0  0  0
    5.7015    0.6980   22.1071 H   0  0  0  0  0  0  0  0  0  0  0  0
    7.3441    0.4143   23.8988 H   0  0  0  0  0  0  0  0  0  0  0  0
    4.4064    1.9744   17.4453 H   0  0  0  0  0  0  0  0  0  0  0  0
    8.6905   -2.3533   26.5810 H   0  0  0  0  0  0  0  0  0  0  0  0
    9.9266   -4.3896   22.9917 H   0  0  0  0  0  0  0  0  0  0  0  0
    8.9233   -0.1992   25.4232 H   0  0  0  0  0  0  0  0  0  0  0  0
   10.0650   -2.2330   21.8256 H   0  0  0  0  0  0  0  0  0  0  0  0
    5.7304    3.8806   25.8363 H   0  0  0  0  0  0  0  0  0  0  0  0
    9.8703    3.8156   24.6405 H   0  0  0  0  0  0  0  0  0  0  0  0
   10.0205   -3.9698   27.3609 H   0  0  0  0  0  0  0  0  0  0  0  0
   10.1535   -5.7310   27.1549 H   0  0  0  0  0  0  0  0  0  0  0  0
    9.1181   -6.7773   25.0755 H   0  0  0  0  0  0  0  0  0  0  0  0
    8.2812   -5.7064   23.9305 H   0  0  0  0  0  0  0  0  0  0  0  0
    8.3629   -5.2252   28.7611 H   0  0  0  0  0  0  0  0  0  0  0  0
    7.5530   -4.1570   27.6103 H   0  0  0  0  0  0  0  0  0  0  0  0
    6.5459   -5.1839   25.6221 H   0  0  0  0  0  0  0  0  0  0  0  0
    6.6948   -6.9354   25.4436 H   0  0  0  0  0  0  0  0  0  0  0  0
   10.4274    1.9911   22.8906 H   0  0  0  0  0  0  0  0  0  0  0  0
   10.6011    0.9882   24.3313 H   0  0  0  0  0  0  0  0  0  0  0  0
    6.8044    0.4388   16.8592 H   0  0  0  0  0  0  0  0  0  0  0  0
    8.2565   -1.5523   21.1108 H   0  0  0  0  0  0  0  0  0  0  0  0
  1  2  1  0  0  0  0
  1  4  2  0  0  0  0
  2  6  2  0  0  0  0
  3  5  2  0  0  0  0
  3 11  1  0  0  0  0
  4 13  1  0  0  0  0
  5 14  1  0  0  0  0
  6 15  1  0  0  0  0
  7  9  2  0  0  0  0
  7 16  1  0  0  0  0
  8 10  1  0  0  0  0
  8 16  2  0  0  0  0
  9 17  1  0  0  0  0
 10 17  2  0  0  0  0
 11 18  2  0  0  0  0
 12 14  2  0  0  0  0
 12 18  1  0  0  0  0
 13 15  2  0  0  0  0
 13 19  1  0  0  0  0
 14 25  1  0  0  0  0
 15 27  1  0  0  0  0
 16 28  1  0  0  0  0
 17 30  1  0  0  0  0
 18 33  1  0  0  0  0
 19 26  2  0  0  0  0
 19 29  1  0  0  0  0
 20 29  1  0  0  0  0
 20 30  1  0  0  0  0
 20 31  2  0  0  0  0
 21 23  1  0  0  0  0
 21 28  1  0  0  0  0
 22 24  1  0  0  0  0
 22 28  1  0  0  0  0
 23 32  1  0  0  0  0
 24 32  1  0  0  0  0
 25 30  1  0  0  0  0
 26 27  1  0  0  0  0
  1 34  1  0  0  0  0
  2 35  1  0  0  0  0
  3 36  1  0  0  0  0
  4 37  1  0  0  0  0
  5 38  1  0  0  0  0
  6 39  1  0  0  0  0
  7 40  1  0  0  0  0
  8 41  1  0  0  0  0
  9 42  1  0  0  0  0
 10 43  1  0  0  0  0
 11 44  1  0  0  0  0
 12 45  1  0  0  0  0
 21 46  1  0  0  0  0
 21 47  1  0  0  0  0
 22 48  1  0  0  0  0
 22 49  1  0  0  0  0
 23 50  1  0  0  0  0
 23 51  1  0  0  0  0
 24 52  1  0  0  0  0
 24 53  1  0  0  0  0
 25 54  1  0  0  0  0
 25 55  1  0  0  0  0
 27 56  1  0  0  0  0
 29 57  1  0  0  0  0
M  END
> <clash_score>
0

> <docking_score>
-7.432961940765381

$$$$
BENZO_86_1
  -OEChem-08212019393D

 51 54  0     0  0  0  0  0  0999 V2000
    6.4089    2.0844   24.8766 C   0  0  0  0  0  0  0  0  0  0  0  0
    7.4847    1.4191   24.2887 C   0  0  0  0  0  0  0  0  0  0  0  0
    9.0720   -1.1280   24.8640 C   0  0  0  0  0  0  0  0  0  0  0  0
    9.7200   -2.2600   22.8630 C   0  0  0  0  0  0  0  0  0  0  0  0
    8.9960   -2.3380   25.5320 C   0  0  0  0  0  0  0  0  0  0  0  0
    9.6730   -3.4710   23.5300 C   0  0  0  0  0  0  0  0  0  0  0  0
    6.5777    3.3741   25.3805 C   0  0  0  0  0  0  0  0  0  0  0  0
    8.8980    3.3330   24.7088 C   0  0  0  0  0  0  0  0  0  0  0  0
    8.7292    2.0433   24.2048 C   0  0  0  0  0  0  0  0  0  0  0  0
    9.3350   -1.0880   23.5010 C   0  0  0  0  0  0  0  0  0  0  0  0
    9.3070   -3.5340   24.8780 C   0  0  0  0  0  0  0  0  0  0  0  0
    7.8222    3.9984   25.2966 C   0  0  0  0  0  0  0  0  0  0  0  0
    6.1790    0.5730   19.9990 C   0  0  0  0  0  0  0  0  0  0  0  0
    7.3170   -0.1610   19.8550 C   0  0  0  0  0  0  0  0  0  0  0  0
    5.4210    0.9600   21.0930 C   0  0  0  0  0  0  0  0  0  0  0  0
    4.2750    1.7050   20.8490 C   0  0  0  0  0  0  0  0  0  0  0  0
    3.9160    2.0630   19.5520 C   0  0  0  0  0  0  0  0  0  0  0  0
    4.6890    1.6810   18.4640 C   0  0  0  0  0  0  0  0  0  0  0  0
    9.0420    0.3700   21.5280 C   0  0  0  0  0  0  0  0  0  0  0  0
    8.0128   -5.2151   26.1416 C   0  0  0  0  0  0  0  0  0  0  0  0
   10.4372   -5.5860   25.6589 C   0  0  0  0  0  0  0  0  0  0  0  0
    9.8870    1.3260   23.5730 C   0  0  0  0  0  0  0  0  0  0  0  0
    7.6390   -0.2680   18.5410 N   0  0  0  0  0  0  0  0  0  0  0  0
    6.7580    0.3810   17.8350 N   0  0  0  0  0  0  0  0  0  0  0  0
    5.8300    0.9190   18.6970 N   0  0  0  0  0  0  0  0  0  0  0  0
    8.1890   -0.7180   20.8700 N   0  0  0  0  0  0  0  0  0  0  0  0
    9.4560    0.1560   22.8130 N   0  0  0  0  0  0  0  0  0  0  0  0
    9.2543   -4.7552   25.5519 N   0  0  0  0  0  0  0  0  0  0  0  0
    9.2690    1.4140   20.9380 O   0  0  0  0  0  0  0  0  0  0  0  0
    8.0301    5.5891   25.9196 Cl  0  0  0  0  0  0  0  0  0  0  0  0
    5.4400    1.5979   24.9418 H   0  0  0  0  0  0  0  0  0  0  0  0
    7.3441    0.4143   23.8988 H   0  0  0  0  0  0  0  0  0  0  0  0
    8.9217   -0.1995   25.4232 H   0  0  0  0  0  0  0  0  0  0  0  0
   10.0643   -2.2341   21.8254 H   0  0  0  0  0  0  0  0  0  0  0  0
    8.6893   -2.3540   26.5808 H   0  0  0  0  0  0  0  0  0  0  0  0
    9.9257   -4.3898   22.9921 H   0  0  0  0  0  0  0  0  0  0  0  0
    5.7304    3.8806   25.8363 H   0  0  0  0  0  0  0  0  0  0  0  0
    9.8703    3.8156   24.6405 H   0  0  0  0  0  0  0  0  0  0  0  0
    5.6855    0.7074   22.1002 H   0  0  0  0  0  0  0  0  0  0  0  0
    3.6634    2.0034   21.6926 H   0  0  0  0  0  0  0  0  0  0  0  0
    3.0111    2.6563   19.3629 H   0  0  0  0  0  0  0  0  0  0  0  0
    4.4370    1.9522   17.4626 H   0  0  0  0  0  0  0  0  0  0  0  0
    8.1744   -6.1904   26.6238 H   0  0  0  0  0  0  0  0  0  0  0  0
    7.6718   -4.4870   26.8924 H   0  0  0  0  0  0  0  0  0  0  0  0
    7.2494   -5.3166   25.3561 H   0  0  0  0  0  0  0  0  0  0  0  0
   10.1946   -6.4995   26.2216 H   0  0  0  0  0  0  0  0  0  0  0  0
   10.7865   -5.8577   24.6518 H   0  0  0  0  0  0  0  0  0  0  0  0
   11.2285   -5.0312   26.1842 H   0  0  0  0  0  0  0  0  0  0  0  0
   10.4274    1.9911   22.8906 H   0  0  0  0  0  0  0  0  0  0  0  0
   10.6011    0.9882   24.3313 H   0  0  0  0  0  0  0  0  0  0  0  0
    8.2368   -1.5645   21.0930 H   0  0  0  0  0  0  0  0  0  0  0  0
  1  2  2  0  0  0  0
  1  7  1  0  0  0  0
  2  9  1  0  0  0  0
  3  5  2  0  0  0  0
  3 10  1  0  0  0  0
  4  6  1  0  0  0  0
  4 10  2  0  0  0  0
  5 11  1  0  0  0  0
  6 11  2  0  0  0  0
  7 12  2  0  0  0  0
  8  9  2  0  0  0  0
  8 12  1  0  0  0  0
  9 22  1  0  0  0  0
 10 27  1  0  0  0  0
 11 28  1  0  0  0  0
 12 30  1  0  0  0  0
 13 14  2  0  0  0  0
 13 15  1  0  0  0  0
 13 25  1  0  0  0  0
 14 23  1  0  0  0  0
 14 26  1  0  0  0  0
 15 16  2  0  0  0  0
 16 17  1  0  0  0  0
 17 18  2  0  0  0  0
 18 25  1  0  0  0  0
 19 26  1  0  0  0  0
 19 27  1  0  0  0  0
 19 29  2  0  0  0  0
 20 28  1  0  0  0  0
 21 28  1  0  0  0  0
 22 27  1  0  0  0  0
 23 24  2  0  0  0  0
 24 25  1  0  0  0  0
  1 31  1  0  0  0  0
  2 32  1  0  0  0  0
  3 33  1  0  0  0  0
  4 34  1  0  0  0  0
  5 35  1  0  0  0  0
  6 36  1  0  0  0  0
  7 37  1  0  0  0  0
  8 38  1  0  0  0  0
 15 39  1  0  0  0  0
 16 40  1  0  0  0  0
 17 41  1  0  0  0  0
 18 42  1  0  0  0  0
 20 43  1  0  0  0  0
 20 44  1  0  0  0  0
 20 45  1  0  0  0  0
 21 46  1  0  0  0  0
 21 47  1  0  0  0  0
 21 48  1  0  0  0  0
 22 49  1  0  0  0  0
 22 50  1  0  0  0  0
 26 51  1  0  0  0  0
M  END
> <clash_score>
0

> <docking_score>
-8.875019073486328

$$$$
BENZO_87_1
  -OEChem-08212019393D

 51 54  0     0  0  0  0  0  0999 V2000
    9.0720   -1.1280   24.8640 C   0  0  0  0  0  0  0  0  0  0  0  0
    9.7200   -2.2600   22.8630 C   0  0  0  0  0  0  0  0  0  0  0  0
    8.9960   -2.3380   25.5320 C   0  0  0  0  0  0  0  0  0  0  0  0
    9.6730   -3.4710   23.5300 C   0  0  0  0  0  0  0  0  0  0  0  0
   12.1233    1.3811   24.9242 C   0  0  0  0  0  0  0  0  0  0  0  0
   12.3262    1.4247   22.7351 C   0  0  0  0  0  0  0  0  0  0  0  0
   11.3794    1.3761   23.7290 C   0  0  0  0  0  0  0  0  0  0  0  0
    9.3350   -1.0880   23.5010 C   0  0  0  0  0  0  0  0  0  0  0  0
    9.3070   -3.5340   24.8780 C   0  0  0  0  0  0  0  0  0  0  0  0
    6.1790    0.5730   19.9990 C   0  0  0  0  0  0  0  0  0  0  0  0
    7.3170   -0.1610   19.8550 C   0  0  0  0  0  0  0  0  0  0  0  0
    5.4210    0.9600   21.0930 C   0  0  0  0  0  0  0  0  0  0  0  0
    4.2750    1.7050   20.8490 C   0  0  0  0  0  0  0  0  0  0  0  0
    3.9160    2.0630   19.5520 C   0  0  0  0  0  0  0  0  0  0  0  0
    4.6890    1.6810   18.4640 C   0  0  0  0  0  0  0  0  0  0  0  0
    9.0420    0.3700   21.5280 C   0  0  0  0  0  0  0  0  0  0  0  0
   14.8305    1.5084   22.7418 C   0  0  0  0  0  0  0  0  0  0  0  0
    8.0128   -5.2151   26.1416 C   0  0  0  0  0  0  0  0  0  0  0  0
   10.4372   -5.5860   25.6589 C   0  0  0  0  0  0  0  0  0  0  0  0
    9.8870    1.3260   23.5730 C   0  0  0  0  0  0  0  0  0  0  0  0
   13.4410    1.4289   24.7112 N   0  0  0  0  0  0  0  0  0  0  0  0
    7.6390   -0.2680   18.5410 N   0  0  0  0  0  0  0  0  0  0  0  0
    6.7580    0.3810   17.8350 N   0  0  0  0  0  0  0  0  0  0  0  0
   13.5326    1.4543   23.3706 N   0  0  0  0  0  0  0  0  0  0  0  0
    5.8300    0.9190   18.6970 N   0  0  0  0  0  0  0  0  0  0  0  0
    8.1890   -0.7180   20.8700 N   0  0  0  0  0  0  0  0  0  0  0  0
    9.4560    0.1560   22.8130 N   0  0  0  0  0  0  0  0  0  0  0  0
    9.2543   -4.7552   25.5519 N   0  0  0  0  0  0  0  0  0  0  0  0
    9.2690    1.4140   20.9380 O   0  0  0  0  0  0  0  0  0  0  0  0
    8.9217   -0.1995   25.4232 H   0  0  0  0  0  0  0  0  0  0  0  0
   10.0643   -2.2341   21.8254 H   0  0  0  0  0  0  0  0  0  0  0  0
    8.6893   -2.3540   26.5808 H   0  0  0  0  0  0  0  0  0  0  0  0
    9.9257   -4.3898   22.9921 H   0  0  0  0  0  0  0  0  0  0  0  0
   11.7624    1.3510   25.9426 H   0  0  0  0  0  0  0  0  0  0  0  0
   12.2462    1.4390   21.6566 H   0  0  0  0  0  0  0  0  0  0  0  0
    5.6855    0.7074   22.1002 H   0  0  0  0  0  0  0  0  0  0  0  0
    3.6634    2.0034   21.6926 H   0  0  0  0  0  0  0  0  0  0  0  0
    3.0111    2.6563   19.3629 H   0  0  0  0  0  0  0  0  0  0  0  0
    4.4370    1.9522   17.4626 H   0  0  0  0  0  0  0  0  0  0  0  0
   15.0990    2.5601   22.6124 H   0  0  0  0  0  0  0  0  0  0  0  0
   15.5636    1.0018   23.3756 H   0  0  0  0  0  0  0  0  0  0  0  0
   14.7841    1.0025   21.7733 H   0  0  0  0  0  0  0  0  0  0  0  0
    8.1744   -6.1904   26.6238 H   0  0  0  0  0  0  0  0  0  0  0  0
    7.6718   -4.4870   26.8924 H   0  0  0  0  0  0  0  0  0  0  0  0
    7.2494   -5.3166   25.3561 H   0  0  0  0  0  0  0  0  0  0  0  0
   10.1946   -6.4995   26.2216 H   0  0  0  0  0  0  0  0  0  0  0  0
   10.7865   -5.8577   24.6518 H   0  0  0  0  0  0  0  0  0  0  0  0
   11.2285   -5.0312   26.1842 H   0  0  0  0  0  0  0  0  0  0  0  0
    9.3974    1.2912   24.5523 H   0  0  0  0  0  0  0  0  0  0  0  0
    9.5159    2.2168   23.0553 H   0  0  0  0  0  0  0  0  0  0  0  0
    8.2368   -1.5645   21.0930 H   0  0  0  0  0  0  0  0  0  0  0  0
  1  3  2  0  0  0  0
  1  8  1  0  0  0  0
  2  4  1  0  0  0  0
  2  8  2  0  0  0  0
  3  9  1  0  0  0  0
  4  9  2  0  0  0  0
  5  7  1  0  0  0  0
  5 21  2  0  0  0  0
  6  7  2  0  0  0  0
  6 24  1  0  0  0  0
  7 20  1  0  0  0  0
  8 27  1  0  0  0  0
  9 28  1  0  0  0  0
 10 11  2  0  0  0  0
 10 12  1  0  0  0  0
 10 25  1  0  0  0  0
 11 22  1  0  0  0  0
 11 26  1  0  0  0  0
 12 13  2  0  0  0  0
 13 14  1  0  0  0  0
 14 15  2  0  0  0  0
 15 25  1  0  0  0  0
 16 26  1  0  0  0  0
 16 27  1  0  0  0  0
 16 29  2  0  0  0  0
 17 24  1  0  0  0  0
 18 28  1  0  0  0  0
 19 28  1  0  0  0  0
 20 27  1  0  0  0  0
 21 24  1  0  0  0  0
 22 23  2  0  0  0  0
 23 25  1  0  0  0  0
  1 30  1  0  0  0  0
  2 31  1  0  0  0  0
  3 32  1  0  0  0  0
  4 33  1  0  0  0  0
  5 34  1  0  0  0  0
  6 35  1  0  0  0  0
 12 36  1  0  0  0  0
 13 37  1  0  0  0  0
 14 38  1  0  0  0  0
 15 39  1  0  0  0  0
 17 40  1  0  0  0  0
 17 41  1  0  0  0  0
 17 42  1  0  0  0  0
 18 43  1  0  0  0  0
 18 44  1  0  0  0  0
 18 45  1  0  0  0  0
 19 46  1  0  0  0  0
 19 47  1  0  0  0  0
 19 48  1  0  0  0  0
 20 49  1  0  0  0  0
 20 50  1  0  0  0  0
 26 51  1  0  0  0  0
M  END
> <clash_score>
0

> <docking_score>
-9.205131530761719

$$$$
BENZO_88_1
  -OEChem-08212019433D

 50 53  0     0  0  0  0  0  0999 V2000
    8.9960   -2.3380   25.5320 C   0  0  0  0  0  0  0  0  0  0  0  0
    9.6730   -3.4710   23.5300 C   0  0  0  0  0  0  0  0  0  0  0  0
    9.0720   -1.1280   24.8640 C   0  0  0  0  0  0  0  0  0  0  0  0
    9.7200   -2.2600   22.8630 C   0  0  0  0  0  0  0  0  0  0  0  0
   12.2913    1.4279   22.6355 C   0  0  0  0  0  0  0  0  0  0  0  0
   13.6024    1.4661   23.0564 C   0  0  0  0  0  0  0  0  0  0  0  0
   12.0284    1.3764   24.9443 C   0  0  0  0  0  0  0  0  0  0  0  0
   11.3794    1.3761   23.7290 C   0  0  0  0  0  0  0  0  0  0  0  0
    9.3070   -3.5340   24.8780 C   0  0  0  0  0  0  0  0  0  0  0  0
    9.3350   -1.0880   23.5010 C   0  0  0  0  0  0  0  0  0  0  0  0
    6.1790    0.5730   19.9990 C   0  0  0  0  0  0  0  0  0  0  0  0
    7.3170   -0.1610   19.8550 C   0  0  0  0  0  0  0  0  0  0  0  0
    5.4210    0.9600   21.0930 C   0  0  0  0  0  0  0  0  0  0  0  0
    4.2750    1.7050   20.8490 C   0  0  0  0  0  0  0  0  0  0  0  0
    3.9160    2.0630   19.5520 C   0  0  0  0  0  0  0  0  0  0  0  0
    4.6890    1.6810   18.4640 C   0  0  0  0  0  0  0  0  0  0  0  0
    9.5334   -6.0236   25.0413 C   0  0  0  0  0  0  0  0  0  0  0  0
    9.0420    0.3700   21.5280 C   0  0  0  0  0  0  0  0  0  0  0  0
   10.6330   -7.3747   26.8774 C   0  0  0  0  0  0  0  0  0  0  0  0
    9.8870    1.3260   23.5730 C   0  0  0  0  0  0  0  0  0  0  0  0
    9.3523   -7.0865   26.1148 C   0  0  0  0  0  0  0  0  0  0  0  0
    7.6390   -0.2680   18.5410 N   0  0  0  0  0  0  0  0  0  0  0  0
    6.7580    0.3810   17.8350 N   0  0  0  0  0  0  0  0  0  0  0  0
    5.8300    0.9190   18.6970 N   0  0  0  0  0  0  0  0  0  0  0  0
    9.2546   -4.7422   25.5438 N   0  0  0  0  0  0  0  0  0  0  0  0
    8.1890   -0.7180   20.8700 N   0  0  0  0  0  0  0  0  0  0  0  0
    9.4560    0.1560   22.8130 N   0  0  0  0  0  0  0  0  0  0  0  0
    9.8806   -6.3052   23.8991 O   0  0  0  0  0  0  0  0  0  0  0  0
    9.2690    1.4140   20.9380 O   0  0  0  0  0  0  0  0  0  0  0  0
   13.7301    1.4394   24.7638 S   0  0  0  0  0  0  0  0  0  0  0  0
    8.6895   -2.3529   26.5807 H   0  0  0  0  0  0  0  0  0  0  0  0
    9.9262   -4.3897   22.9916 H   0  0  0  0  0  0  0  0  0  0  0  0
    8.9224   -0.1998   25.4238 H   0  0  0  0  0  0  0  0  0  0  0  0
   10.0649   -2.2343   21.8258 H   0  0  0  0  0  0  0  0  0  0  0  0
   12.0045    1.4365   21.5915 H   0  0  0  0  0  0  0  0  0  0  0  0
   14.4914    1.5078   22.4431 H   0  0  0  0  0  0  0  0  0  0  0  0
   11.5886    1.3416   25.9314 H   0  0  0  0  0  0  0  0  0  0  0  0
    5.6855    0.7074   22.1002 H   0  0  0  0  0  0  0  0  0  0  0  0
    3.6634    2.0034   21.6926 H   0  0  0  0  0  0  0  0  0  0  0  0
    3.0111    2.6563   19.3629 H   0  0  0  0  0  0  0  0  0  0  0  0
    4.4370    1.9522   17.4626 H   0  0  0  0  0  0  0  0  0  0  0  0
   11.4241   -7.7171   26.2023 H   0  0  0  0  0  0  0  0  0  0  0  0
   10.4629   -8.1531   27.6275 H   0  0  0  0  0  0  0  0  0  0  0  0
   10.9949   -6.4779   27.3911 H   0  0  0  0  0  0  0  0  0  0  0  0
    9.3974    1.2912   24.5523 H   0  0  0  0  0  0  0  0  0  0  0  0
    9.5159    2.2168   23.0553 H   0  0  0  0  0  0  0  0  0  0  0  0
    8.5795   -6.7463   26.8137 H   0  0  0  0  0  0  0  0  0  0  0  0
    8.9966   -8.0064   25.6366 H   0  0  0  0  0  0  0  0  0  0  0  0
    8.9776   -4.7057   26.5317 H   0  0  0  0  0  0  0  0  0  0  0  0
    8.2368   -1.5645   21.0930 H   0  0  0  0  0  0  0  0  0  0  0  0
  1  3  2  0  0  0  0
  1  9  1  0  0  0  0
  2  4  1  0  0  0  0
  2  9  2  0  0  0  0
  3 10  1  0  0  0  0
  4 10  2  0  0  0  0
  5  6  2  0  0  0  0
  5  8  1  0  0  0  0
  6 30  1  0  0  0  0
  7  8  2  0  0  0  0
  7 30  1  0  0  0  0
  8 20  1  0  0  0  0
  9 25  1  0  0  0  0
 10 27  1  0  0  0  0
 11 12  2  0  0  0  0
 11 13  1  0  0  0  0
 11 24  1  0  0  0  0
 12 22  1  0  0  0  0
 12 26  1  0  0  0  0
 13 14  2  0  0  0  0
 14 15  1  0  0  0  0
 15 16  2  0  0  0  0
 16 24  1  0  0  0  0
 17 21  1  0  0  0  0
 17 25  1  0  0  0  0
 17 28  2  0  0  0  0
 18 26  1  0  0  0  0
 18 27  1  0  0  0  0
 18 29  2  0  0  0  0
 19 21  1  0  0  0  0
 20 27  1  0  0  0  0
 22 23  2  0  0  0  0
 23 24  1  0  0  0  0
  1 31  1  0  0  0  0
  2 32  1  0  0  0  0
  3 33  1  0  0  0  0
  4 34  1  0  0  0  0
  5 35  1  0  0  0  0
  6 36  1  0  0  0  0
  7 37  1  0  0  0  0
 13 38  1  0  0  0  0
 14 39  1  0  0  0  0
 15 40  1  0  0  0  0
 16 41  1  0  0  0  0
 19 42  1  0  0  0  0
 19 43  1  0  0  0  0
 19 44  1  0  0  0  0
 20 45  1  0  0  0  0
 20 46  1  0  0  0  0
 21 47  1  0  0  0  0
 21 48  1  0  0  0  0
 25 49  1  0  0  0  0
 26 50  1  0  0  0  0
M  END
> <clash_score>
1.4986177744906917

> <docking_score>
-6.37354040145874

$$$$
BENZO_89_1
  -OEChem-08212019433D

 53 56  0     0  0  0  0  0  0999 V2000
   14.1526    1.4694   24.0176 C   0  0  0  0  0  0  0  0  0  0  0  0
   13.3741    0.8121   24.9701 C   0  0  0  0  0  0  0  0  0  0  0  0
   13.5446    2.0802   22.9208 C   0  0  0  0  0  0  0  0  0  0  0  0
   11.9875    0.7654   24.8258 C   0  0  0  0  0  0  0  0  0  0  0  0
   12.1580    2.0335   22.7765 C   0  0  0  0  0  0  0  0  0  0  0  0
    8.9960   -2.3380   25.5320 C   0  0  0  0  0  0  0  0  0  0  0  0
    9.6730   -3.4710   23.5300 C   0  0  0  0  0  0  0  0  0  0  0  0
    9.0720   -1.1280   24.8640 C   0  0  0  0  0  0  0  0  0  0  0  0
    9.7200   -2.2600   22.8630 C   0  0  0  0  0  0  0  0  0  0  0  0
   11.3794    1.3761   23.7290 C   0  0  0  0  0  0  0  0  0  0  0  0
    9.3070   -3.5340   24.8780 C   0  0  0  0  0  0  0  0  0  0  0  0
    9.3350   -1.0880   23.5010 C   0  0  0  0  0  0  0  0  0  0  0  0
    6.1790    0.5730   19.9990 C   0  0  0  0  0  0  0  0  0  0  0  0
    7.3170   -0.1610   19.8550 C   0  0  0  0  0  0  0  0  0  0  0  0
    5.4210    0.9600   21.0930 C   0  0  0  0  0  0  0  0  0  0  0  0
    4.2750    1.7050   20.8490 C   0  0  0  0  0  0  0  0  0  0  0  0
    3.9160    2.0630   19.5520 C   0  0  0  0  0  0  0  0  0  0  0  0
    4.6890    1.6810   18.4640 C   0  0  0  0  0  0  0  0  0  0  0  0
    9.5334   -6.0236   25.0413 C   0  0  0  0  0  0  0  0  0  0  0  0
    9.0420    0.3700   21.5280 C   0  0  0  0  0  0  0  0  0  0  0  0
   10.6330   -7.3747   26.8774 C   0  0  0  0  0  0  0  0  0  0  0  0
    9.8870    1.3260   23.5730 C   0  0  0  0  0  0  0  0  0  0  0  0
    9.3523   -7.0865   26.1148 C   0  0  0  0  0  0  0  0  0  0  0  0
    7.6390   -0.2680   18.5410 N   0  0  0  0  0  0  0  0  0  0  0  0
    6.7580    0.3810   17.8350 N   0  0  0  0  0  0  0  0  0  0  0  0
    5.8300    0.9190   18.6970 N   0  0  0  0  0  0  0  0  0  0  0  0
    9.2546   -4.7422   25.5438 N   0  0  0  0  0  0  0  0  0  0  0  0
    8.1890   -0.7180   20.8700 N   0  0  0  0  0  0  0  0  0  0  0  0
    9.4560    0.1560   22.8130 N   0  0  0  0  0  0  0  0  0  0  0  0
    9.8806   -6.3052   23.8991 O   0  0  0  0  0  0  0  0  0  0  0  0
    9.2690    1.4140   20.9380 O   0  0  0  0  0  0  0  0  0  0  0  0
   15.2322    1.5068   24.1308 H   0  0  0  0  0  0  0  0  0  0  0  0
   13.8473    0.3374   25.8248 H   0  0  0  0  0  0  0  0  0  0  0  0
   14.1503    2.5930   22.1795 H   0  0  0  0  0  0  0  0  0  0  0  0
   11.3889    0.2508   25.5729 H   0  0  0  0  0  0  0  0  0  0  0  0
   11.6929    2.5120   21.9187 H   0  0  0  0  0  0  0  0  0  0  0  0
    8.6895   -2.3529   26.5807 H   0  0  0  0  0  0  0  0  0  0  0  0
    9.9262   -4.3897   22.9916 H   0  0  0  0  0  0  0  0  0  0  0  0
    8.9224   -0.1998   25.4238 H   0  0  0  0  0  0  0  0  0  0  0  0
   10.0649   -2.2343   21.8258 H   0  0  0  0  0  0  0  0  0  0  0  0
    5.6855    0.7074   22.1002 H   0  0  0  0  0  0  0  0  0  0  0  0
    3.6634    2.0034   21.6926 H   0  0  0  0  0  0  0  0  0  0  0  0
    3.0111    2.6563   19.3629 H   0  0  0  0  0  0  0  0  0  0  0  0
    4.4370    1.9522   17.4626 H   0  0  0  0  0  0  0  0  0  0  0  0
   11.4241   -7.7171   26.2023 H   0  0  0  0  0  0  0  0  0  0  0  0
   10.4629   -8.1531   27.6275 H   0  0  0  0  0  0  0  0  0  0  0  0
   10.9949   -6.4779   27.3911 H   0  0  0  0  0  0  0  0  0  0  0  0
    9.3974    1.2912   24.5523 H   0  0  0  0  0  0  0  0  0  0  0  0
    9.5159    2.2168   23.0553 H   0  0  0  0  0  0  0  0  0  0  0  0
    8.5795   -6.7463   26.8137 H   0  0  0  0  0  0  0  0  0  0  0  0
    8.9966   -8.0064   25.6366 H   0  0  0  0  0  0  0  0  0  0  0  0
    8.9776   -4.7057   26.5317 H   0  0  0  0  0  0  0  0  0  0  0  0
    8.2368   -1.5645   21.0930 H   0  0  0  0  0  0  0  0  0  0  0  0
  1  2  1  0  0  0  0
  1  3  2  0  0  0  0
  2  4  2  0  0  0  0
  3  5  1  0  0  0  0
  4 10  1  0  0  0  0
  5 10  2  0  0  0  0
  6  8  2  0  0  0  0
  6 11  1  0  0  0  0
  7  9  1  0  0  0  0
  7 11  2  0  0  0  0
  8 12  1  0  0  0  0
  9 12  2  0  0  0  0
 10 22  1  0  0  0  0
 11 27  1  0  0  0  0
 12 29  1  0  0  0  0
 13 14  2  0  0  0  0
 13 15  1  0  0  0  0
 13 26  1  0  0  0  0
 14 24  1  0  0  0  0
 14 28  1  0  0  0  0
 15 16  2  0  0  0  0
 16 17  1  0  0  0  0
 17 18  2  0  0  0  0
 18 26  1  0  0  0  0
 19 23  1  0  0  0  0
 19 27  1  0  0  0  0
 19 30  2  0  0  0  0
 20 28  1  0  0  0  0
 20 29  1  0  0  0  0
 20 31  2  0  0  0  0
 21 23  1  0  0  0  0
 22 29  1  0  0  0  0
 24 25  2  0  0  0  0
 25 26  1  0  0  0  0
  1 32  1  0  0  0  0
  2 33  1  0  0  0  0
  3 34  1  0  0  0  0
  4 35  1  0  0  0  0
  5 36  1  0  0  0  0
  6 37  1  0  0  0  0
  7 38  1  0  0  0  0
  8 39  1  0  0  0  0
  9 40  1  0  0  0  0
 15 41  1  0  0  0  0
 16 42  1  0  0  0  0
 17 43  1  0  0  0  0
 18 44  1  0  0  0  0
 21 45  1  0  0  0  0
 21 46  1  0  0  0  0
 21 47  1  0  0  0  0
 22 48  1  0  0  0  0
 22 49  1  0  0  0  0
 23 50  1  0  0  0  0
 23 51  1  0  0  0  0
 27 52  1  0  0  0  0
 28 53  1  0  0  0  0
M  END
> <clash_score>
1.4986177744906917

> <docking_score>
-6.294689178466797

$$$$
BENZO_90_1
  -OEChem-08212019433D

 53 56  0     0  0  0  0  0  0999 V2000
    6.4089    2.0844   24.8766 C   0  0  0  0  0  0  0  0  0  0  0  0
    7.4847    1.4191   24.2887 C   0  0  0  0  0  0  0  0  0  0  0  0
    8.9960   -2.3380   25.5320 C   0  0  0  0  0  0  0  0  0  0  0  0
    9.6730   -3.4710   23.5300 C   0  0  0  0  0  0  0  0  0  0  0  0
    9.0720   -1.1280   24.8640 C   0  0  0  0  0  0  0  0  0  0  0  0
    9.7200   -2.2600   22.8630 C   0  0  0  0  0  0  0  0  0  0  0  0
    6.5777    3.3741   25.3805 C   0  0  0  0  0  0  0  0  0  0  0  0
    8.8980    3.3330   24.7088 C   0  0  0  0  0  0  0  0  0  0  0  0
    8.7292    2.0433   24.2048 C   0  0  0  0  0  0  0  0  0  0  0  0
    9.3070   -3.5340   24.8780 C   0  0  0  0  0  0  0  0  0  0  0  0
    9.3350   -1.0880   23.5010 C   0  0  0  0  0  0  0  0  0  0  0  0
    7.8222    3.9984   25.2966 C   0  0  0  0  0  0  0  0  0  0  0  0
    6.1790    0.5730   19.9990 C   0  0  0  0  0  0  0  0  0  0  0  0
    7.3170   -0.1610   19.8550 C   0  0  0  0  0  0  0  0  0  0  0  0
    5.4210    0.9600   21.0930 C   0  0  0  0  0  0  0  0  0  0  0  0
    4.2750    1.7050   20.8490 C   0  0  0  0  0  0  0  0  0  0  0  0
    3.9160    2.0630   19.5520 C   0  0  0  0  0  0  0  0  0  0  0  0
    4.6890    1.6810   18.4640 C   0  0  0  0  0  0  0  0  0  0  0  0
    9.5334   -6.0236   25.0413 C   0  0  0  0  0  0  0  0  0  0  0  0
    9.0420    0.3700   21.5280 C   0  0  0  0  0  0  0  0  0  0  0  0
   10.6330   -7.3747   26.8774 C   0  0  0  0  0  0  0  0  0  0  0  0
    9.8870    1.3260   23.5730 C   0  0  0  0  0  0  0  0  0  0  0  0
    9.3523   -7.0865   26.1148 C   0  0  0  0  0  0  0  0  0  0  0  0
    7.6390   -0.2680   18.5410 N   0  0  0  0  0  0  0  0  0  0  0  0
    6.7580    0.3810   17.8350 N   0  0  0  0  0  0  0  0  0  0  0  0
    5.8300    0.9190   18.6970 N   0  0  0  0  0  0  0  0  0  0  0  0
    9.2546   -4.7422   25.5438 N   0  0  0  0  0  0  0  0  0  0  0  0
    8.1890   -0.7180   20.8700 N   0  0  0  0  0  0  0  0  0  0  0  0
    9.4560    0.1560   22.8130 N   0  0  0  0  0  0  0  0  0  0  0  0
    9.8806   -6.3052   23.8991 O   0  0  0  0  0  0  0  0  0  0  0  0
    9.2690    1.4140   20.9380 O   0  0  0  0  0  0  0  0  0  0  0  0
    8.0301    5.5891   25.9196 Cl  0  0  0  0  0  0  0  0  0  0  0  0
    5.4400    1.5979   24.9418 H   0  0  0  0  0  0  0  0  0  0  0  0
    7.3441    0.4143   23.8988 H   0  0  0  0  0  0  0  0  0  0  0  0
    8.6895   -2.3529   26.5807 H   0  0  0  0  0  0  0  0  0  0  0  0
    9.9262   -4.3897   22.9916 H   0  0  0  0  0  0  0  0  0  0  0  0
    8.9224   -0.1998   25.4238 H   0  0  0  0  0  0  0  0  0  0  0  0
   10.0649   -2.2343   21.8258 H   0  0  0  0  0  0  0  0  0  0  0  0
    5.7304    3.8806   25.8363 H   0  0  0  0  0  0  0  0  0  0  0  0
    9.8703    3.8156   24.6405 H   0  0  0  0  0  0  0  0  0  0  0  0
    5.6855    0.7074   22.1002 H   0  0  0  0  0  0  0  0  0  0  0  0
    3.6634    2.0034   21.6926 H   0  0  0  0  0  0  0  0  0  0  0  0
    3.0111    2.6563   19.3629 H   0  0  0  0  0  0  0  0  0  0  0  0
    4.4370    1.9522   17.4626 H   0  0  0  0  0  0  0  0  0  0  0  0
   11.4241   -7.7171   26.2023 H   0  0  0  0  0  0  0  0  0  0  0  0
   10.4629   -8.1531   27.6275 H   0  0  0  0  0  0  0  0  0  0  0  0
   10.9949   -6.4779   27.3911 H   0  0  0  0  0  0  0  0  0  0  0  0
   10.4274    1.9911   22.8906 H   0  0  0  0  0  0  0  0  0  0  0  0
   10.6011    0.9882   24.3313 H   0  0  0  0  0  0  0  0  0  0  0  0
    8.5795   -6.7463   26.8137 H   0  0  0  0  0  0  0  0  0  0  0  0
    8.9966   -8.0064   25.6366 H   0  0  0  0  0  0  0  0  0  0  0  0
    8.9776   -4.7057   26.5317 H   0  0  0  0  0  0  0  0  0  0  0  0
    8.2368   -1.5645   21.0930 H   0  0  0  0  0  0  0  0  0  0  0  0
  1  2  2  0  0  0  0
  1  7  1  0  0  0  0
  2  9  1  0  0  0  0
  3  5  2  0  0  0  0
  3 10  1  0  0  0  0
  4  6  1  0  0  0  0
  4 10  2  0  0  0  0
  5 11  1  0  0  0  0
  6 11  2  0  0  0  0
  7 12  2  0  0  0  0
  8  9  2  0  0  0  0
  8 12  1  0  0  0  0
  9 22  1  0  0  0  0
 10 27  1  0  0  0  0
 11 29  1  0  0  0  0
 12 32  1  0  0  0  0
 13 14  2  0  0  0  0
 13 15  1  0  0  0  0
 13 26  1  0  0  0  0
 14 24  1  0  0  0  0
 14 28  1  0  0  0  0
 15 16  2  0  0  0  0
 16 17  1  0  0  0  0
 17 18  2  0  0  0  0
 18 26  1  0  0  0  0
 19 23  1  0  0  0  0
 19 27  1  0  0  0  0
 19 30  2  0  0  0  0
 20 28  1  0  0  0  0
 20 29  1  0  0  0  0
 20 31  2  0  0  0  0
 21 23  1  0  0  0  0
 22 29  1  0  0  0  0
 24 25  2  0  0  0  0
 25 26  1  0  0  0  0
  1 33  1  0  0  0  0
  2 34  1  0  0  0  0
  3 35  1  0  0  0  0
  4 36  1  0  0  0  0
  5 37  1  0  0  0  0
  6 38  1  0  0  0  0
  7 39  1  0  0  0  0
  8 40  1  0  0  0  0
 15 41  1  0  0  0  0
 16 42  1  0  0  0  0
 17 43  1  0  0  0  0
 18 44  1  0  0  0  0
 21 45  1  0  0  0  0
 21 46  1  0  0  0  0
 21 47  1  0  0  0  0
 22 48  1  0  0  0  0
 22 49  1  0  0  0  0
 23 50  1  0  0  0  0
 23 51  1  0  0  0  0
 27 52  1  0  0  0  0
 28 53  1  0  0  0  0
M  END
> <clash_score>
1.4986177744906917

> <docking_score>
-5.680709362030029

$$$$
BENZO_91_1
  -OEChem-08212019433D

 53 56  0     0  0  0  0  0  0999 V2000
    8.9960   -2.3380   25.5320 C   0  0  0  0  0  0  0  0  0  0  0  0
    9.6730   -3.4710   23.5300 C   0  0  0  0  0  0  0  0  0  0  0  0
    9.0720   -1.1280   24.8640 C   0  0  0  0  0  0  0  0  0  0  0  0
    9.7200   -2.2600   22.8630 C   0  0  0  0  0  0  0  0  0  0  0  0
   12.1233    1.3811   24.9242 C   0  0  0  0  0  0  0  0  0  0  0  0
   12.3262    1.4247   22.7351 C   0  0  0  0  0  0  0  0  0  0  0  0
   11.3794    1.3761   23.7290 C   0  0  0  0  0  0  0  0  0  0  0  0
    9.3070   -3.5340   24.8780 C   0  0  0  0  0  0  0  0  0  0  0  0
    9.3350   -1.0880   23.5010 C   0  0  0  0  0  0  0  0  0  0  0  0
    6.1790    0.5730   19.9990 C   0  0  0  0  0  0  0  0  0  0  0  0
    7.3170   -0.1610   19.8550 C   0  0  0  0  0  0  0  0  0  0  0  0
    5.4210    0.9600   21.0930 C   0  0  0  0  0  0  0  0  0  0  0  0
    4.2750    1.7050   20.8490 C   0  0  0  0  0  0  0  0  0  0  0  0
    3.9160    2.0630   19.5520 C   0  0  0  0  0  0  0  0  0  0  0  0
    4.6890    1.6810   18.4640 C   0  0  0  0  0  0  0  0  0  0  0  0
    9.5334   -6.0236   25.0413 C   0  0  0  0  0  0  0  0  0  0  0  0
    9.0420    0.3700   21.5280 C   0  0  0  0  0  0  0  0  0  0  0  0
   10.6330   -7.3747   26.8774 C   0  0  0  0  0  0  0  0  0  0  0  0
   14.8305    1.5084   22.7418 C   0  0  0  0  0  0  0  0  0  0  0  0
    9.8870    1.3260   23.5730 C   0  0  0  0  0  0  0  0  0  0  0  0
    9.3523   -7.0865   26.1148 C   0  0  0  0  0  0  0  0  0  0  0  0
   13.4410    1.4289   24.7112 N   0  0  0  0  0  0  0  0  0  0  0  0
    7.6390   -0.2680   18.5410 N   0  0  0  0  0  0  0  0  0  0  0  0
    6.7580    0.3810   17.8350 N   0  0  0  0  0  0  0  0  0  0  0  0
   13.5326    1.4543   23.3706 N   0  0  0  0  0  0  0  0  0  0  0  0
    5.8300    0.9190   18.6970 N   0  0  0  0  0  0  0  0  0  0  0  0
    9.2546   -4.7422   25.5438 N   0  0  0  0  0  0  0  0  0  0  0  0
    8.1890   -0.7180   20.8700 N   0  0  0  0  0  0  0  0  0  0  0  0
    9.4560    0.1560   22.8130 N   0  0  0  0  0  0  0  0  0  0  0  0
    9.8806   -6.3052   23.8991 O   0  0  0  0  0  0  0  0  0  0  0  0
    9.2690    1.4140   20.9380 O   0  0  0  0  0  0  0  0  0  0  0  0
    8.6895   -2.3529   26.5807 H   0  0  0  0  0  0  0  0  0  0  0  0
    9.9262   -4.3897   22.9916 H   0  0  0  0  0  0  0  0  0  0  0  0
    8.9224   -0.1998   25.4238 H   0  0  0  0  0  0  0  0  0  0  0  0
   10.0649   -2.2343   21.8258 H   0  0  0  0  0  0  0  0  0  0  0  0
   11.7624    1.3510   25.9426 H   0  0  0  0  0  0  0  0  0  0  0  0
   12.2462    1.4390   21.6566 H   0  0  0  0  0  0  0  0  0  0  0  0
    5.6855    0.7074   22.1002 H   0  0  0  0  0  0  0  0  0  0  0  0
    3.6634    2.0034   21.6926 H   0  0  0  0  0  0  0  0  0  0  0  0
    3.0111    2.6563   19.3629 H   0  0  0  0  0  0  0  0  0  0  0  0
    4.4370    1.9522   17.4626 H   0  0  0  0  0  0  0  0  0  0  0  0
   11.4241   -7.7171   26.2023 H   0  0  0  0  0  0  0  0  0  0  0  0
   10.4629   -8.1531   27.6275 H   0  0  0  0  0  0  0  0  0  0  0  0
   10.9949   -6.4779   27.3911 H   0  0  0  0  0  0  0  0  0  0  0  0
   15.0990    2.5601   22.6124 H   0  0  0  0  0  0  0  0  0  0  0  0
   15.5636    1.0018   23.3756 H   0  0  0  0  0  0  0  0  0  0  0  0
   14.7841    1.0025   21.7733 H   0  0  0  0  0  0  0  0  0  0  0  0
    9.3974    1.2912   24.5523 H   0  0  0  0  0  0  0  0  0  0  0  0
    9.5159    2.2168   23.0553 H   0  0  0  0  0  0  0  0  0  0  0  0
    8.5795   -6.7463   26.8137 H   0  0  0  0  0  0  0  0  0  0  0  0
    8.9966   -8.0064   25.6366 H   0  0  0  0  0  0  0  0  0  0  0  0
    8.9776   -4.7057   26.5317 H   0  0  0  0  0  0  0  0  0  0  0  0
    8.2368   -1.5645   21.0930 H   0  0  0  0  0  0  0  0  0  0  0  0
  1  3  2  0  0  0  0
  1  8  1  0  0  0  0
  2  4  1  0  0  0  0
  2  8  2  0  0  0  0
  3  9  1  0  0  0  0
  4  9  2  0  0  0  0
  5  7  1  0  0  0  0
  5 22  2  0  0  0  0
  6  7  2  0  0  0  0
  6 25  1  0  0  0  0
  7 20  1  0  0  0  0
  8 27  1  0  0  0  0
  9 29  1  0  0  0  0
 10 11  2  0  0  0  0
 10 12  1  0  0  0  0
 10 26  1  0  0  0  0
 11 23  1  0  0  0  0
 11 28  1  0  0  0  0
 12 13  2  0  0  0  0
 13 14  1  0  0  0  0
 14 15  2  0  0  0  0
 15 26  1  0  0  0  0
 16 21  1  0  0  0  0
 16 27  1  0  0  0  0
 16 30  2  0  0  0  0
 17 28  1  0  0  0  0
 17 29  1  0  0  0  0
 17 31  2  0  0  0  0
 18 21  1  0  0  0  0
 19 25  1  0  0  0  0
 20 29  1  0  0  0  0
 22 25  1  0  0  0  0
 23 24  2  0  0  0  0
 24 26  1  0  0  0  0
  1 32  1  0  0  0  0
  2 33  1  0  0  0  0
  3 34  1  0  0  0  0
  4 35  1  0  0  0  0
  5 36  1  0  0  0  0
  6 37  1  0  0  0  0
 12 38  1  0  0  0  0
 13 39  1  0  0  0  0
 14 40  1  0  0  0  0
 15 41  1  0  0  0  0
 18 42  1  0  0  0  0
 18 43  1  0  0  0  0
 18 44  1  0  0  0  0
 19 45  1  0  0  0  0
 19 46  1  0  0  0  0
 19 47  1  0  0  0  0
 20 48  1  0  0  0  0
 20 49  1  0  0  0  0
 21 50  1  0  0  0  0
 21 51  1  0  0  0  0
 27 52  1  0  0  0  0
 28 53  1  0  0  0  0
M  END
> <clash_score>
1.4986177744906917

> <docking_score>
-6.010821342468262

$$$$
BENZO_92_1
  -OEChem-08212019433D

 55 59  0     0  0  0  0  0  0999 V2000
    8.9960   -2.3380   25.5320 C   0  0  0  0  0  0  0  0  0  0  0  0
    9.6730   -3.4710   23.5300 C   0  0  0  0  0  0  0  0  0  0  0  0
    9.0720   -1.1280   24.8640 C   0  0  0  0  0  0  0  0  0  0  0  0
    9.7200   -2.2600   22.8630 C   0  0  0  0  0  0  0  0  0  0  0  0
   12.2913    1.4279   22.6355 C   0  0  0  0  0  0  0  0  0  0  0  0
   13.6024    1.4662   23.0564 C   0  0  0  0  0  0  0  0  0  0  0  0
   12.0284    1.3764   24.9443 C   0  0  0  0  0  0  0  0  0  0  0  0
   11.3794    1.3761   23.7290 C   0  0  0  0  0  0  0  0  0  0  0  0
    9.3070   -3.5340   24.8780 C   0  0  0  0  0  0  0  0  0  0  0  0
    9.3350   -1.0880   23.5010 C   0  0  0  0  0  0  0  0  0  0  0  0
    6.1790    0.5730   19.9990 C   0  0  0  0  0  0  0  0  0  0  0  0
    7.3170   -0.1610   19.8550 C   0  0  0  0  0  0  0  0  0  0  0  0
    5.4210    0.9600   21.0930 C   0  0  0  0  0  0  0  0  0  0  0  0
    4.2750    1.7050   20.8490 C   0  0  0  0  0  0  0  0  0  0  0  0
    3.9160    2.0630   19.5520 C   0  0  0  0  0  0  0  0  0  0  0  0
    4.6890    1.6810   18.4640 C   0  0  0  0  0  0  0  0  0  0  0  0
    9.0420    0.3700   21.5280 C   0  0  0  0  0  0  0  0  0  0  0  0
    7.3635   -6.1361   27.1888 C   0  0  0  0  0  0  0  0  0  0  0  0
    8.1961   -4.9735   27.7341 C   0  0  0  0  0  0  0  0  0  0  0  0
    7.1942   -6.0394   25.6709 C   0  0  0  0  0  0  0  0  0  0  0  0
    9.5196   -4.8490   26.9797 C   0  0  0  0  0  0  0  0  0  0  0  0
    8.5442   -5.8838   24.9639 C   0  0  0  0  0  0  0  0  0  0  0  0
    9.8870    1.3260   23.5730 C   0  0  0  0  0  0  0  0  0  0  0  0
    7.6390   -0.2680   18.5410 N   0  0  0  0  0  0  0  0  0  0  0  0
    6.7580    0.3810   17.8350 N   0  0  0  0  0  0  0  0  0  0  0  0
    5.8300    0.9190   18.6970 N   0  0  0  0  0  0  0  0  0  0  0  0
    9.2562   -4.7384   25.5422 N   0  0  0  0  0  0  0  0  0  0  0  0
    8.1890   -0.7180   20.8700 N   0  0  0  0  0  0  0  0  0  0  0  0
    9.4560    0.1560   22.8130 N   0  0  0  0  0  0  0  0  0  0  0  0
    9.2690    1.4140   20.9380 O   0  0  0  0  0  0  0  0  0  0  0  0
   13.7301    1.4394   24.7638 S   0  0  0  0  0  0  0  0  0  0  0  0
    8.6905   -2.3533   26.5810 H   0  0  0  0  0  0  0  0  0  0  0  0
    9.9266   -4.3896   22.9917 H   0  0  0  0  0  0  0  0  0  0  0  0
    8.9233   -0.1992   25.4231 H   0  0  0  0  0  0  0  0  0  0  0  0
   10.0650   -2.2330   21.8256 H   0  0  0  0  0  0  0  0  0  0  0  0
   12.0045    1.4365   21.5915 H   0  0  0  0  0  0  0  0  0  0  0  0
   14.4914    1.5078   22.4431 H   0  0  0  0  0  0  0  0  0  0  0  0
   11.5886    1.3416   25.9314 H   0  0  0  0  0  0  0  0  0  0  0  0
    5.6855    0.7074   22.1002 H   0  0  0  0  0  0  0  0  0  0  0  0
    3.6634    2.0034   21.6926 H   0  0  0  0  0  0  0  0  0  0  0  0
    3.0111    2.6563   19.3629 H   0  0  0  0  0  0  0  0  0  0  0  0
    4.4370    1.9522   17.4626 H   0  0  0  0  0  0  0  0  0  0  0  0
    7.8482   -7.0901   27.4469 H   0  0  0  0  0  0  0  0  0  0  0  0
    6.3760   -6.1438   27.6724 H   0  0  0  0  0  0  0  0  0  0  0  0
    7.6307   -4.0424   27.6403 H   0  0  0  0  0  0  0  0  0  0  0  0
    8.3915   -5.1310   28.7968 H   0  0  0  0  0  0  0  0  0  0  0  0
    6.6888   -6.9376   25.3010 H   0  0  0  0  0  0  0  0  0  0  0  0
    6.5515   -5.1859   25.4257 H   0  0  0  0  0  0  0  0  0  0  0  0
   10.0492   -3.9640   27.3414 H   0  0  0  0  0  0  0  0  0  0  0  0
   10.1431   -5.7254   27.1778 H   0  0  0  0  0  0  0  0  0  0  0  0
    9.1338   -6.7931   25.0868 H   0  0  0  0  0  0  0  0  0  0  0  0
    8.3656   -5.7264   23.8998 H   0  0  0  0  0  0  0  0  0  0  0  0
    9.3974    1.2912   24.5523 H   0  0  0  0  0  0  0  0  0  0  0  0
    9.5159    2.2168   23.0553 H   0  0  0  0  0  0  0  0  0  0  0  0
    8.2565   -1.5523   21.1108 H   0  0  0  0  0  0  0  0  0  0  0  0
  1  3  2  0  0  0  0
  1  9  1  0  0  0  0
  2  4  1  0  0  0  0
  2  9  2  0  0  0  0
  3 10  1  0  0  0  0
  4 10  2  0  0  0  0
  5  6  2  0  0  0  0
  5  8  1  0  0  0  0
  6 31  1  0  0  0  0
  7  8  2  0  0  0  0
  7 31  1  0  0  0  0
  8 23  1  0  0  0  0
  9 27  1  0  0  0  0
 10 29  1  0  0  0  0
 11 12  2  0  0  0  0
 11 13  1  0  0  0  0
 11 26  1  0  0  0  0
 12 24  1  0  0  0  0
 12 28  1  0  0  0  0
 13 14  2  0  0  0  0
 14 15  1  0  0  0  0
 15 16  2  0  0  0  0
 16 26  1  0  0  0  0
 17 28  1  0  0  0  0
 17 29  1  0  0  0  0
 17 30  2  0  0  0  0
 18 19  1  0  0  0  0
 18 20  1  0  0  0  0
 19 21  1  0  0  0  0
 20 22  1  0  0  0  0
 21 27  1  0  0  0  0
 22 27  1  0  0  0  0
 23 29  1  0  0  0  0
 24 25  2  0  0  0  0
 25 26  1  0  0  0  0
  1 32  1  0  0  0  0
  2 33  1  0  0  0  0
  3 34  1  0  0  0  0
  4 35  1  0  0  0  0
  5 36  1  0  0  0  0
  6 37  1  0  0  0  0
  7 38  1  0  0  0  0
 13 39  1  0  0  0  0
 14 40  1  0  0  0  0
 15 41  1  0  0  0  0
 16 42  1  0  0  0  0
 18 43  1  0  0  0  0
 18 44  1  0  0  0  0
 19 45  1  0  0  0  0
 19 46  1  0  0  0  0
 20 47  1  0  0  0  0
 20 48  1  0  0  0  0
 21 49  1  0  0  0  0
 21 50  1  0  0  0  0
 22 51  1  0  0  0  0
 22 52  1  0  0  0  0
 23 53  1  0  0  0  0
 23 54  1  0  0  0  0
 28 55  1  0  0  0  0
M  END
> <clash_score>
0

> <docking_score>
-8.663616180419922

$$$$
BENZO_94_1
  -OEChem-08212019433D

 58 62  0     0  0  0  0  0  0999 V2000
    6.4089    2.0844   24.8766 C   0  0  0  0  0  0  0  0  0  0  0  0
    7.4847    1.4191   24.2887 C   0  0  0  0  0  0  0  0  0  0  0  0
    8.9960   -2.3380   25.5320 C   0  0  0  0  0  0  0  0  0  0  0  0
    9.6730   -3.4710   23.5300 C   0  0  0  0  0  0  0  0  0  0  0  0
    9.0720   -1.1280   24.8640 C   0  0  0  0  0  0  0  0  0  0  0  0
    9.7200   -2.2600   22.8630 C   0  0  0  0  0  0  0  0  0  0  0  0
    6.5777    3.3741   25.3805 C   0  0  0  0  0  0  0  0  0  0  0  0
    8.8980    3.3330   24.7088 C   0  0  0  0  0  0  0  0  0  0  0  0
    8.7292    2.0433   24.2048 C   0  0  0  0  0  0  0  0  0  0  0  0
    9.3070   -3.5340   24.8780 C   0  0  0  0  0  0  0  0  0  0  0  0
    9.3350   -1.0880   23.5010 C   0  0  0  0  0  0  0  0  0  0  0  0
    7.8222    3.9984   25.2966 C   0  0  0  0  0  0  0  0  0  0  0  0
    6.1790    0.5730   19.9990 C   0  0  0  0  0  0  0  0  0  0  0  0
    7.3170   -0.1610   19.8550 C   0  0  0  0  0  0  0  0  0  0  0  0
    5.4210    0.9600   21.0930 C   0  0  0  0  0  0  0  0  0  0  0  0
    4.2750    1.7050   20.8490 C   0  0  0  0  0  0  0  0  0  0  0  0
    3.9160    2.0630   19.5520 C   0  0  0  0  0  0  0  0  0  0  0  0
    4.6890    1.6810   18.4640 C   0  0  0  0  0  0  0  0  0  0  0  0
    9.0420    0.3700   21.5280 C   0  0  0  0  0  0  0  0  0  0  0  0
    7.3635   -6.1361   27.1888 C   0  0  0  0  0  0  0  0  0  0  0  0
    8.1961   -4.9735   27.7341 C   0  0  0  0  0  0  0  0  0  0  0  0
    7.1942   -6.0394   25.6709 C   0  0  0  0  0  0  0  0  0  0  0  0
    9.5196   -4.8490   26.9797 C   0  0  0  0  0  0  0  0  0  0  0  0
    8.5442   -5.8838   24.9639 C   0  0  0  0  0  0  0  0  0  0  0  0
    9.8870    1.3260   23.5730 C   0  0  0  0  0  0  0  0  0  0  0  0
    7.6390   -0.2680   18.5410 N   0  0  0  0  0  0  0  0  0  0  0  0
    6.7580    0.3810   17.8350 N   0  0  0  0  0  0  0  0  0  0  0  0
    5.8300    0.9190   18.6970 N   0  0  0  0  0  0  0  0  0  0  0  0
    9.2562   -4.7384   25.5422 N   0  0  0  0  0  0  0  0  0  0  0  0
    8.1890   -0.7180   20.8700 N   0  0  0  0  0  0  0  0  0  0  0  0
    9.4560    0.1560   22.8130 N   0  0  0  0  0  0  0  0  0  0  0  0
    9.2690    1.4140   20.9380 O   0  0  0  0  0  0  0  0  0  0  0  0
    8.0301    5.5891   25.9196 Cl  0  0  0  0  0  0  0  0  0  0  0  0
    5.4400    1.5979   24.9418 H   0  0  0  0  0  0  0  0  0  0  0  0
    7.3441    0.4143   23.8988 H   0  0  0  0  0  0  0  0  0  0  0  0
    8.6905   -2.3533   26.5810 H   0  0  0  0  0  0  0  0  0  0  0  0
    9.9266   -4.3896   22.9917 H   0  0  0  0  0  0  0  0  0  0  0  0
    8.9233   -0.1992   25.4231 H   0  0  0  0  0  0  0  0  0  0  0  0
   10.0650   -2.2330   21.8256 H   0  0  0  0  0  0  0  0  0  0  0  0
    5.7304    3.8806   25.8363 H   0  0  0  0  0  0  0  0  0  0  0  0
    9.8703    3.8156   24.6405 H   0  0  0  0  0  0  0  0  0  0  0  0
    5.6855    0.7074   22.1002 H   0  0  0  0  0  0  0  0  0  0  0  0
    3.6634    2.0034   21.6926 H   0  0  0  0  0  0  0  0  0  0  0  0
    3.0111    2.6563   19.3629 H   0  0  0  0  0  0  0  0  0  0  0  0
    4.4370    1.9522   17.4626 H   0  0  0  0  0  0  0  0  0  0  0  0
    7.8482   -7.0901   27.4469 H   0  0  0  0  0  0  0  0  0  0  0  0
    6.3760   -6.1438   27.6724 H   0  0  0  0  0  0  0  0  0  0  0  0
    7.6307   -4.0424   27.6403 H   0  0  0  0  0  0  0  0  0  0  0  0
    8.3915   -5.1310   28.7968 H   0  0  0  0  0  0  0  0  0  0  0  0
    6.6888   -6.9376   25.3010 H   0  0  0  0  0  0  0  0  0  0  0  0
    6.5515   -5.1859   25.4257 H   0  0  0  0  0  0  0  0  0  0  0  0
   10.0492   -3.9640   27.3414 H   0  0  0  0  0  0  0  0  0  0  0  0
   10.1431   -5.7254   27.1778 H   0  0  0  0  0  0  0  0  0  0  0  0
    9.1338   -6.7931   25.0868 H   0  0  0  0  0  0  0  0  0  0  0  0
    8.3656   -5.7264   23.8998 H   0  0  0  0  0  0  0  0  0  0  0  0
   10.4274    1.9911   22.8906 H   0  0  0  0  0  0  0  0  0  0  0  0
   10.6011    0.9882   24.3313 H   0  0  0  0  0  0  0  0  0  0  0  0
    8.2565   -1.5523   21.1108 H   0  0  0  0  0  0  0  0  0  0  0  0
  1  2  2  0  0  0  0
  1  7  1  0  0  0  0
  2  9  1  0  0  0  0
  3  5  2  0  0  0  0
  3 10  1  0  0  0  0
  4  6  1  0  0  0  0
  4 10  2  0  0  0  0
  5 11  1  0  0  0  0
  6 11  2  0  0  0  0
  7 12  2  0  0  0  0
  8  9  2  0  0  0  0
  8 12  1  0  0  0  0
  9 25  1  0  0  0  0
 10 29  1  0  0  0  0
 11 31  1  0  0  0  0
 12 33  1  0  0  0  0
 13 14  2  0  0  0  0
 13 15  1  0  0  0  0
 13 28  1  0  0  0  0
 14 26  1  0  0  0  0
 14 30  1  0  0  0  0
 15 16  2  0  0  0  0
 16 17  1  0  0  0  0
 17 18  2  0  0  0  0
 18 28  1  0  0  0  0
 19 30  1  0  0  0  0
 19 31  1  0  0  0  0
 19 32  2  0  0  0  0
 20 21  1  0  0  0  0
 20 22  1  0  0  0  0
 21 23  1  0  0  0  0
 22 24  1  0  0  0  0
 23 29  1  0  0  0  0
 24 29  1  0  0  0  0
 25 31  1  0  0  0  0
 26 27  2  0  0  0  0
 27 28  1  0  0  0  0
  1 34  1  0  0  0  0
  2 35  1  0  0  0  0
  3 36  1  0  0  0  0
  4 37  1  0  0  0  0
  5 38  1  0  0  0  0
  6 39  1  0  0  0  0
  7 40  1  0  0  0  0
  8 41  1  0  0  0  0
 15 42  1  0  0  0  0
 16 43  1  0  0  0  0
 17 44  1  0  0  0  0
 18 45  1  0  0  0  0
 20 46  1  0  0  0  0
 20 47  1  0  0  0  0
 21 48  1  0  0  0  0
 21 49  1  0  0  0  0
 22 50  1  0  0  0  0
 22 51  1  0  0  0  0
 23 52  1  0  0  0  0
 23 53  1  0  0  0  0
 24 54  1  0  0  0  0
 24 55  1  0  0  0  0
 25 56  1  0  0  0  0
 25 57  1  0  0  0  0
 30 58  1  0  0  0  0
M  END
> <clash_score>
0

> <docking_score>
-7.970789432525635

$$$$
BENZO_93_1
  -OEChem-08212019433D

 58 62  0     0  0  0  0  0  0999 V2000
   14.1526    1.4694   24.0176 C   0  0  0  0  0  0  0  0  0  0  0  0
   13.3741    0.8121   24.9701 C   0  0  0  0  0  0  0  0  0  0  0  0
   13.5446    2.0802   22.9208 C   0  0  0  0  0  0  0  0  0  0  0  0
   11.9875    0.7654   24.8258 C   0  0  0  0  0  0  0  0  0  0  0  0
   12.1580    2.0335   22.7765 C   0  0  0  0  0  0  0  0  0  0  0  0
    8.9960   -2.3380   25.5320 C   0  0  0  0  0  0  0  0  0  0  0  0
    9.6730   -3.4710   23.5300 C   0  0  0  0  0  0  0  0  0  0  0  0
    9.0720   -1.1280   24.8640 C   0  0  0  0  0  0  0  0  0  0  0  0
    9.7200   -2.2600   22.8630 C   0  0  0  0  0  0  0  0  0  0  0  0
   11.3794    1.3761   23.7290 C   0  0  0  0  0  0  0  0  0  0  0  0
    9.3070   -3.5340   24.8780 C   0  0  0  0  0  0  0  0  0  0  0  0
    9.3350   -1.0880   23.5010 C   0  0  0  0  0  0  0  0  0  0  0  0
    6.1790    0.5730   19.9990 C   0  0  0  0  0  0  0  0  0  0  0  0
    7.3170   -0.1610   19.8550 C   0  0  0  0  0  0  0  0  0  0  0  0
    5.4210    0.9600   21.0930 C   0  0  0  0  0  0  0  0  0  0  0  0
    4.2750    1.7050   20.8490 C   0  0  0  0  0  0  0  0  0  0  0  0
    3.9160    2.0630   19.5520 C   0  0  0  0  0  0  0  0  0  0  0  0
    4.6890    1.6810   18.4640 C   0  0  0  0  0  0  0  0  0  0  0  0
    9.0420    0.3700   21.5280 C   0  0  0  0  0  0  0  0  0  0  0  0
    7.3635   -6.1361   27.1888 C   0  0  0  0  0  0  0  0  0  0  0  0
    8.1961   -4.9735   27.7341 C   0  0  0  0  0  0  0  0  0  0  0  0
    7.1942   -6.0394   25.6709 C   0  0  0  0  0  0  0  0  0  0  0  0
    9.5196   -4.8490   26.9797 C   0  0  0  0  0  0  0  0  0  0  0  0
    8.5442   -5.8838   24.9639 C   0  0  0  0  0  0  0  0  0  0  0  0
    9.8870    1.3260   23.5730 C   0  0  0  0  0  0  0  0  0  0  0  0
    7.6390   -0.2680   18.5410 N   0  0  0  0  0  0  0  0  0  0  0  0
    6.7580    0.3810   17.8350 N   0  0  0  0  0  0  0  0  0  0  0  0
    5.8300    0.9190   18.6970 N   0  0  0  0  0  0  0  0  0  0  0  0
    9.2562   -4.7384   25.5422 N   0  0  0  0  0  0  0  0  0  0  0  0
    8.1890   -0.7180   20.8700 N   0  0  0  0  0  0  0  0  0  0  0  0
    9.4560    0.1560   22.8130 N   0  0  0  0  0  0  0  0  0  0  0  0
    9.2690    1.4140   20.9380 O   0  0  0  0  0  0  0  0  0  0  0  0
   15.2322    1.5068   24.1308 H   0  0  0  0  0  0  0  0  0  0  0  0
   13.8473    0.3374   25.8248 H   0  0  0  0  0  0  0  0  0  0  0  0
   14.1503    2.5930   22.1795 H   0  0  0  0  0  0  0  0  0  0  0  0
   11.3889    0.2508   25.5729 H   0  0  0  0  0  0  0  0  0  0  0  0
   11.6930    2.5120   21.9187 H   0  0  0  0  0  0  0  0  0  0  0  0
    8.6905   -2.3533   26.5810 H   0  0  0  0  0  0  0  0  0  0  0  0
    9.9266   -4.3896   22.9917 H   0  0  0  0  0  0  0  0  0  0  0  0
    8.9233   -0.1992   25.4231 H   0  0  0  0  0  0  0  0  0  0  0  0
   10.0650   -2.2330   21.8256 H   0  0  0  0  0  0  0  0  0  0  0  0
    5.6855    0.7074   22.1002 H   0  0  0  0  0  0  0  0  0  0  0  0
    3.6634    2.0034   21.6926 H   0  0  0  0  0  0  0  0  0  0  0  0
    3.0111    2.6563   19.3629 H   0  0  0  0  0  0  0  0  0  0  0  0
    4.4370    1.9522   17.4626 H   0  0  0  0  0  0  0  0  0  0  0  0
    7.8482   -7.0901   27.4469 H   0  0  0  0  0  0  0  0  0  0  0  0
    6.3760   -6.1438   27.6724 H   0  0  0  0  0  0  0  0  0  0  0  0
    7.6307   -4.0424   27.6403 H   0  0  0  0  0  0  0  0  0  0  0  0
    8.3915   -5.1310   28.7968 H   0  0  0  0  0  0  0  0  0  0  0  0
    6.6888   -6.9376   25.3010 H   0  0  0  0  0  0  0  0  0  0  0  0
    6.5515   -5.1859   25.4257 H   0  0  0  0  0  0  0  0  0  0  0  0
   10.0492   -3.9640   27.3414 H   0  0  0  0  0  0  0  0  0  0  0  0
   10.1431   -5.7254   27.1778 H   0  0  0  0  0  0  0  0  0  0  0  0
    9.1338   -6.7931   25.0868 H   0  0  0  0  0  0  0  0  0  0  0  0
    8.3656   -5.7264   23.8998 H   0  0  0  0  0  0  0  0  0  0  0  0
    9.3974    1.2912   24.5523 H   0  0  0  0  0  0  0  0  0  0  0  0
    9.5159    2.2168   23.0553 H   0  0  0  0  0  0  0  0  0  0  0  0
    8.2565   -1.5523   21.1108 H   0  0  0  0  0  0  0  0  0  0  0  0
  1  2  1  0  0  0  0
  1  3  2  0  0  0  0
  2  4  2  0  0  0  0
  3  5  1  0  0  0  0
  4 10  1  0  0  0  0
  5 10  2  0  0  0  0
  6  8  2  0  0  0  0
  6 11  1  0  0  0  0
  7  9  1  0  0  0  0
  7 11  2  0  0  0  0
  8 12  1  0  0  0  0
  9 12  2  0  0  0  0
 10 25  1  0  0  0  0
 11 29  1  0  0  0  0
 12 31  1  0  0  0  0
 13 14  2  0  0  0  0
 13 15  1  0  0  0  0
 13 28  1  0  0  0  0
 14 26  1  0  0  0  0
 14 30  1  0  0  0  0
 15 16  2  0  0  0  0
 16 17  1  0  0  0  0
 17 18  2  0  0  0  0
 18 28  1  0  0  0  0
 19 30  1  0  0  0  0
 19 31  1  0  0  0  0
 19 32  2  0  0  0  0
 20 21  1  0  0  0  0
 20 22  1  0  0  0  0
 21 23  1  0  0  0  0
 22 24  1  0  0  0  0
 23 29  1  0  0  0  0
 24 29  1  0  0  0  0
 25 31  1  0  0  0  0
 26 27  2  0  0  0  0
 27 28  1  0  0  0  0
  1 33  1  0  0  0  0
  2 34  1  0  0  0  0
  3 35  1  0  0  0  0
  4 36  1  0  0  0  0
  5 37  1  0  0  0  0
  6 38  1  0  0  0  0
  7 39  1  0  0  0  0
  8 40  1  0  0  0  0
  9 41  1  0  0  0  0
 15 42  1  0  0  0  0
 16 43  1  0  0  0  0
 17 44  1  0  0  0  0
 18 45  1  0  0  0  0
 20 46  1  0  0  0  0
 20 47  1  0  0  0  0
 21 48  1  0  0  0  0
 21 49  1  0  0  0  0
 22 50  1  0  0  0  0
 22 51  1  0  0  0  0
 23 52  1  0  0  0  0
 23 53  1  0  0  0  0
 24 54  1  0  0  0  0
 24 55  1  0  0  0  0
 25 56  1  0  0  0  0
 25 57  1  0  0  0  0
 30 58  1  0  0  0  0
M  END
> <clash_score>
0

> <docking_score>
-8.584762573242188

$$$$
BENZO_95_1
  -OEChem-08212019433D

 58 62  0     0  0  0  0  0  0999 V2000
    8.9960   -2.3380   25.5320 C   0  0  0  0  0  0  0  0  0  0  0  0
    9.6730   -3.4710   23.5300 C   0  0  0  0  0  0  0  0  0  0  0  0
    9.0720   -1.1280   24.8640 C   0  0  0  0  0  0  0  0  0  0  0  0
    9.7200   -2.2600   22.8630 C   0  0  0  0  0  0  0  0  0  0  0  0
   12.1233    1.3811   24.9242 C   0  0  0  0  0  0  0  0  0  0  0  0
   12.3261    1.4247   22.7351 C   0  0  0  0  0  0  0  0  0  0  0  0
   11.3794    1.3761   23.7290 C   0  0  0  0  0  0  0  0  0  0  0  0
    9.3070   -3.5340   24.8780 C   0  0  0  0  0  0  0  0  0  0  0  0
    9.3350   -1.0880   23.5010 C   0  0  0  0  0  0  0  0  0  0  0  0
    6.1790    0.5730   19.9990 C   0  0  0  0  0  0  0  0  0  0  0  0
    7.3170   -0.1610   19.8550 C   0  0  0  0  0  0  0  0  0  0  0  0
    5.4210    0.9600   21.0930 C   0  0  0  0  0  0  0  0  0  0  0  0
    4.2750    1.7050   20.8490 C   0  0  0  0  0  0  0  0  0  0  0  0
    3.9160    2.0630   19.5520 C   0  0  0  0  0  0  0  0  0  0  0  0
    4.6890    1.6810   18.4640 C   0  0  0  0  0  0  0  0  0  0  0  0
    9.0420    0.3700   21.5280 C   0  0  0  0  0  0  0  0  0  0  0  0
    7.3635   -6.1361   27.1888 C   0  0  0  0  0  0  0  0  0  0  0  0
    8.1961   -4.9735   27.7341 C   0  0  0  0  0  0  0  0  0  0  0  0
    7.1942   -6.0394   25.6709 C   0  0  0  0  0  0  0  0  0  0  0  0
    9.5196   -4.8490   26.9797 C   0  0  0  0  0  0  0  0  0  0  0  0
    8.5442   -5.8838   24.9639 C   0  0  0  0  0  0  0  0  0  0  0  0
   14.8305    1.5084   22.7418 C   0  0  0  0  0  0  0  0  0  0  0  0
    9.8870    1.3260   23.5730 C   0  0  0  0  0  0  0  0  0  0  0  0
   13.4410    1.4289   24.7112 N   0  0  0  0  0  0  0  0  0  0  0  0
    7.6390   -0.2680   18.5410 N   0  0  0  0  0  0  0  0  0  0  0  0
    6.7580    0.3810   17.8350 N   0  0  0  0  0  0  0  0  0  0  0  0
   13.5326    1.4543   23.3706 N   0  0  0  0  0  0  0  0  0  0  0  0
    5.8300    0.9190   18.6970 N   0  0  0  0  0  0  0  0  0  0  0  0
    9.2562   -4.7384   25.5422 N   0  0  0  0  0  0  0  0  0  0  0  0
    8.1890   -0.7180   20.8700 N   0  0  0  0  0  0  0  0  0  0  0  0
    9.4560    0.1560   22.8130 N   0  0  0  0  0  0  0  0  0  0  0  0
    9.2690    1.4140   20.9380 O   0  0  0  0  0  0  0  0  0  0  0  0
    8.6905   -2.3533   26.5810 H   0  0  0  0  0  0  0  0  0  0  0  0
    9.9266   -4.3896   22.9917 H   0  0  0  0  0  0  0  0  0  0  0  0
    8.9233   -0.1992   25.4231 H   0  0  0  0  0  0  0  0  0  0  0  0
   10.0650   -2.2330   21.8256 H   0  0  0  0  0  0  0  0  0  0  0  0
   11.7624    1.3510   25.9426 H   0  0  0  0  0  0  0  0  0  0  0  0
   12.2462    1.4390   21.6566 H   0  0  0  0  0  0  0  0  0  0  0  0
    5.6855    0.7074   22.1002 H   0  0  0  0  0  0  0  0  0  0  0  0
    3.6634    2.0034   21.6926 H   0  0  0  0  0  0  0  0  0  0  0  0
    3.0111    2.6563   19.3629 H   0  0  0  0  0  0  0  0  0  0  0  0
    4.4370    1.9522   17.4626 H   0  0  0  0  0  0  0  0  0  0  0  0
    7.8482   -7.0901   27.4469 H   0  0  0  0  0  0  0  0  0  0  0  0
    6.3760   -6.1438   27.6724 H   0  0  0  0  0  0  0  0  0  0  0  0
    7.6307   -4.0424   27.6403 H   0  0  0  0  0  0  0  0  0  0  0  0
    8.3915   -5.1310   28.7968 H   0  0  0  0  0  0  0  0  0  0  0  0
    6.6888   -6.9376   25.3010 H   0  0  0  0  0  0  0  0  0  0  0  0
    6.5515   -5.1859   25.4257 H   0  0  0  0  0  0  0  0  0  0  0  0
   10.0492   -3.9640   27.3414 H   0  0  0  0  0  0  0  0  0  0  0  0
   10.1431   -5.7254   27.1778 H   0  0  0  0  0  0  0  0  0  0  0  0
    9.1338   -6.7931   25.0868 H   0  0  0  0  0  0  0  0  0  0  0  0
    8.3656   -5.7264   23.8998 H   0  0  0  0  0  0  0  0  0  0  0  0
   15.0990    2.5601   22.6124 H   0  0  0  0  0  0  0  0  0  0  0  0
   15.5636    1.0018   23.3756 H   0  0  0  0  0  0  0  0  0  0  0  0
   14.7841    1.0025   21.7733 H   0  0  0  0  0  0  0  0  0  0  0  0
    9.3974    1.2912   24.5523 H   0  0  0  0  0  0  0  0  0  0  0  0
    9.5159    2.2168   23.0553 H   0  0  0  0  0  0  0  0  0  0  0  0
    8.2565   -1.5523   21.1108 H   0  0  0  0  0  0  0  0  0  0  0  0
  1  3  2  0  0  0  0
  1  8  1  0  0  0  0
  2  4  1  0  0  0  0
  2  8  2  0  0  0  0
  3  9  1  0  0  0  0
  4  9  2  0  0  0  0
  5  7  1  0  0  0  0
  5 24  2  0  0  0  0
  6  7  2  0  0  0  0
  6 27  1  0  0  0  0
  7 23  1  0  0  0  0
  8 29  1  0  0  0  0
  9 31  1  0  0  0  0
 10 11  2  0  0  0  0
 10 12  1  0  0  0  0
 10 28  1  0  0  0  0
 11 25  1  0  0  0  0
 11 30  1  0  0  0  0
 12 13  2  0  0  0  0
 13 14  1  0  0  0  0
 14 15  2  0  0  0  0
 15 28  1  0  0  0  0
 16 30  1  0  0  0  0
 16 31  1  0  0  0  0
 16 32  2  0  0  0  0
 17 18  1  0  0  0  0
 17 19  1  0  0  0  0
 18 20  1  0  0  0  0
 19 21  1  0  0  0  0
 20 29  1  0  0  0  0
 21 29  1  0  0  0  0
 22 27  1  0  0  0  0
 23 31  1  0  0  0  0
 24 27  1  0  0  0  0
 25 26  2  0  0  0  0
 26 28  1  0  0  0  0
  1 33  1  0  0  0  0
  2 34  1  0  0  0  0
  3 35  1  0  0  0  0
  4 36  1  0  0  0  0
  5 37  1  0  0  0  0
  6 38  1  0  0  0  0
 12 39  1  0  0  0  0
 13 40  1  0  0  0  0
 14 41  1  0  0  0  0
 15 42  1  0  0  0  0
 17 43  1  0  0  0  0
 17 44  1  0  0  0  0
 18 45  1  0  0  0  0
 18 46  1  0  0  0  0
 19 47  1  0  0  0  0
 19 48  1  0  0  0  0
 20 49  1  0  0  0  0
 20 50  1  0  0  0  0
 21 51  1  0  0  0  0
 21 52  1  0  0  0  0
 22 53  1  0  0  0  0
 22 54  1  0  0  0  0
 22 55  1  0  0  0  0
 23 56  1  0  0  0  0
 23 57  1  0  0  0  0
 30 58  1  0  0  0  0
M  END
> <clash_score>
0

> <docking_score>
-8.300888061523438

$$$$
BENZO_96_1
  -OEChem-08212019473D

 43 46  0     0  0  0  0  0  0999 V2000
    8.9960   -2.3380   25.5320 C   0  0  0  0  0  0  0  0  0  0  0  0
    9.6730   -3.4710   23.5300 C   0  0  0  0  0  0  0  0  0  0  0  0
    9.0720   -1.1280   24.8640 C   0  0  0  0  0  0  0  0  0  0  0  0
    9.7200   -2.2600   22.8630 C   0  0  0  0  0  0  0  0  0  0  0  0
   12.2913    1.4279   22.6355 C   0  0  0  0  0  0  0  0  0  0  0  0
   13.6024    1.4661   23.0564 C   0  0  0  0  0  0  0  0  0  0  0  0
   12.0284    1.3764   24.9443 C   0  0  0  0  0  0  0  0  0  0  0  0
    9.3070   -3.5340   24.8780 C   0  0  0  0  0  0  0  0  0  0  0  0
   11.3794    1.3761   23.7290 C   0  0  0  0  0  0  0  0  0  0  0  0
    9.3350   -1.0880   23.5010 C   0  0  0  0  0  0  0  0  0  0  0  0
    6.1790    0.5730   19.9990 C   0  0  0  0  0  0  0  0  0  0  0  0
    7.3170   -0.1610   19.8550 C   0  0  0  0  0  0  0  0  0  0  0  0
    5.4210    0.9600   21.0930 C   0  0  0  0  0  0  0  0  0  0  0  0
    4.2750    1.7050   20.8490 C   0  0  0  0  0  0  0  0  0  0  0  0
    3.9160    2.0630   19.5520 C   0  0  0  0  0  0  0  0  0  0  0  0
    4.6890    1.6810   18.4640 C   0  0  0  0  0  0  0  0  0  0  0  0
    9.0420    0.3700   21.5280 C   0  0  0  0  0  0  0  0  0  0  0  0
    9.2505   -4.8264   25.5904 C   0  0  0  0  0  0  0  0  0  0  0  0
    9.8870    1.3260   23.5730 C   0  0  0  0  0  0  0  0  0  0  0  0
    7.6390   -0.2680   18.5410 N   0  0  0  0  0  0  0  0  0  0  0  0
    6.7580    0.3810   17.8350 N   0  0  0  0  0  0  0  0  0  0  0  0
    5.8300    0.9190   18.6970 N   0  0  0  0  0  0  0  0  0  0  0  0
    8.1890   -0.7180   20.8700 N   0  0  0  0  0  0  0  0  0  0  0  0
    9.4560    0.1560   22.8130 N   0  0  0  0  0  0  0  0  0  0  0  0
    9.2690    1.4140   20.9380 O   0  0  0  0  0  0  0  0  0  0  0  0
   13.7301    1.4394   24.7638 S   0  0  0  0  0  0  0  0  0  0  0  0
    8.6919   -2.3557   26.5813 H   0  0  0  0  0  0  0  0  0  0  0  0
    9.9267   -4.3907   22.9939 H   0  0  0  0  0  0  0  0  0  0  0  0
    8.9217   -0.1995   25.4231 H   0  0  0  0  0  0  0  0  0  0  0  0
   10.0653   -2.2339   21.8256 H   0  0  0  0  0  0  0  0  0  0  0  0
   12.0045    1.4365   21.5915 H   0  0  0  0  0  0  0  0  0  0  0  0
   14.4914    1.5078   22.4431 H   0  0  0  0  0  0  0  0  0  0  0  0
   11.5886    1.3416   25.9314 H   0  0  0  0  0  0  0  0  0  0  0  0
    5.6855    0.7074   22.1002 H   0  0  0  0  0  0  0  0  0  0  0  0
    3.6634    2.0034   21.6926 H   0  0  0  0  0  0  0  0  0  0  0  0
    3.0111    2.6563   19.3629 H   0  0  0  0  0  0  0  0  0  0  0  0
    4.4370    1.9522   17.4626 H   0  0  0  0  0  0  0  0  0  0  0  0
    8.2503   -5.2678   25.5020 H   0  0  0  0  0  0  0  0  0  0  0  0
    9.9817   -5.5374   25.1845 H   0  0  0  0  0  0  0  0  0  0  0  0
    9.4841   -4.7043   26.6562 H   0  0  0  0  0  0  0  0  0  0  0  0
    9.3974    1.2912   24.5523 H   0  0  0  0  0  0  0  0  0  0  0  0
    9.5159    2.2168   23.0553 H   0  0  0  0  0  0  0  0  0  0  0  0
    8.2368   -1.5645   21.0930 H   0  0  0  0  0  0  0  0  0  0  0  0
  1  3  2  0  0  0  0
  1  8  1  0  0  0  0
  2  4  1  0  0  0  0
  2  8  2  0  0  0  0
  3 10  1  0  0  0  0
  4 10  2  0  0  0  0
  5  6  2  0  0  0  0
  5  9  1  0  0  0  0
  6 26  1  0  0  0  0
  7  9  2  0  0  0  0
  7 26  1  0  0  0  0
  8 18  1  0  0  0  0
  9 19  1  0  0  0  0
 10 24  1  0  0  0  0
 11 12  2  0  0  0  0
 11 13  1  0  0  0  0
 11 22  1  0  0  0  0
 12 20  1  0  0  0  0
 12 23  1  0  0  0  0
 13 14  2  0  0  0  0
 14 15  1  0  0  0  0
 15 16  2  0  0  0  0
 16 22  1  0  0  0  0
 17 23  1  0  0  0  0
 17 24  1  0  0  0  0
 17 25  2  0  0  0  0
 19 24  1  0  0  0  0
 20 21  2  0  0  0  0
 21 22  1  0  0  0  0
  1 27  1  0  0  0  0
  2 28  1  0  0  0  0
  3 29  1  0  0  0  0
  4 30  1  0  0  0  0
  5 31  1  0  0  0  0
  6 32  1  0  0  0  0
  7 33  1  0  0  0  0
 13 34  1  0  0  0  0
 14 35  1  0  0  0  0
 15 36  1  0  0  0  0
 16 37  1  0  0  0  0
 18 38  1  0  0  0  0
 18 39  1  0  0  0  0
 18 40  1  0  0  0  0
 19 41  1  0  0  0  0
 19 42  1  0  0  0  0
 23 43  1  0  0  0  0
M  END
> <clash_score>
0

> <docking_score>
-8.908645629882812

$$$$
BENZO_97_1
  -OEChem-08212019473D

 46 49  0     0  0  0  0  0  0999 V2000
   14.1526    1.4694   24.0176 C   0  0  0  0  0  0  0  0  0  0  0  0
   13.3741    0.8121   24.9701 C   0  0  0  0  0  0  0  0  0  0  0  0
   13.5446    2.0802   22.9208 C   0  0  0  0  0  0  0  0  0  0  0  0
   11.9875    0.7654   24.8258 C   0  0  0  0  0  0  0  0  0  0  0  0
   12.1580    2.0335   22.7765 C   0  0  0  0  0  0  0  0  0  0  0  0
    8.9960   -2.3380   25.5320 C   0  0  0  0  0  0  0  0  0  0  0  0
    9.6730   -3.4710   23.5300 C   0  0  0  0  0  0  0  0  0  0  0  0
    9.0720   -1.1280   24.8640 C   0  0  0  0  0  0  0  0  0  0  0  0
    9.7200   -2.2600   22.8630 C   0  0  0  0  0  0  0  0  0  0  0  0
    9.3070   -3.5340   24.8780 C   0  0  0  0  0  0  0  0  0  0  0  0
   11.3794    1.3761   23.7290 C   0  0  0  0  0  0  0  0  0  0  0  0
    9.3350   -1.0880   23.5010 C   0  0  0  0  0  0  0  0  0  0  0  0
    6.1790    0.5730   19.9990 C   0  0  0  0  0  0  0  0  0  0  0  0
    7.3170   -0.1610   19.8550 C   0  0  0  0  0  0  0  0  0  0  0  0
    5.4210    0.9600   21.0930 C   0  0  0  0  0  0  0  0  0  0  0  0
    4.2750    1.7050   20.8490 C   0  0  0  0  0  0  0  0  0  0  0  0
    3.9160    2.0630   19.5520 C   0  0  0  0  0  0  0  0  0  0  0  0
    4.6890    1.6810   18.4640 C   0  0  0  0  0  0  0  0  0  0  0  0
    9.0420    0.3700   21.5280 C   0  0  0  0  0  0  0  0  0  0  0  0
    9.2505   -4.8264   25.5904 C   0  0  0  0  0  0  0  0  0  0  0  0
    9.8870    1.3260   23.5730 C   0  0  0  0  0  0  0  0  0  0  0  0
    7.6390   -0.2680   18.5410 N   0  0  0  0  0  0  0  0  0  0  0  0
    6.7580    0.3810   17.8350 N   0  0  0  0  0  0  0  0  0  0  0  0
    5.8300    0.9190   18.6970 N   0  0  0  0  0  0  0  0  0  0  0  0
    8.1890   -0.7180   20.8700 N   0  0  0  0  0  0  0  0  0  0  0  0
    9.4560    0.1560   22.8130 N   0  0  0  0  0  0  0  0  0  0  0  0
    9.2690    1.4140   20.9380 O   0  0  0  0  0  0  0  0  0  0  0  0
   15.2322    1.5068   24.1308 H   0  0  0  0  0  0  0  0  0  0  0  0
   13.8473    0.3374   25.8248 H   0  0  0  0  0  0  0  0  0  0  0  0
   14.1503    2.5930   22.1795 H   0  0  0  0  0  0  0  0  0  0  0  0
   11.3889    0.2508   25.5729 H   0  0  0  0  0  0  0  0  0  0  0  0
   11.6929    2.5120   21.9187 H   0  0  0  0  0  0  0  0  0  0  0  0
    8.6919   -2.3557   26.5813 H   0  0  0  0  0  0  0  0  0  0  0  0
    9.9267   -4.3907   22.9939 H   0  0  0  0  0  0  0  0  0  0  0  0
    8.9217   -0.1995   25.4231 H   0  0  0  0  0  0  0  0  0  0  0  0
   10.0653   -2.2339   21.8256 H   0  0  0  0  0  0  0  0  0  0  0  0
    5.6855    0.7074   22.1002 H   0  0  0  0  0  0  0  0  0  0  0  0
    3.6634    2.0034   21.6926 H   0  0  0  0  0  0  0  0  0  0  0  0
    3.0111    2.6563   19.3629 H   0  0  0  0  0  0  0  0  0  0  0  0
    4.4370    1.9522   17.4626 H   0  0  0  0  0  0  0  0  0  0  0  0
    8.2503   -5.2678   25.5020 H   0  0  0  0  0  0  0  0  0  0  0  0
    9.9817   -5.5374   25.1845 H   0  0  0  0  0  0  0  0  0  0  0  0
    9.4841   -4.7043   26.6562 H   0  0  0  0  0  0  0  0  0  0  0  0
    9.3974    1.2912   24.5523 H   0  0  0  0  0  0  0  0  0  0  0  0
    9.5159    2.2168   23.0553 H   0  0  0  0  0  0  0  0  0  0  0  0
    8.2368   -1.5645   21.0930 H   0  0  0  0  0  0  0  0  0  0  0  0
  1  2  1  0  0  0  0
  1  3  2  0  0  0  0
  2  4  2  0  0  0  0
  3  5  1  0  0  0  0
  4 11  1  0  0  0  0
  5 11  2  0  0  0  0
  6  8  2  0  0  0  0
  6 10  1  0  0  0  0
  7  9  1  0  0  0  0
  7 10  2  0  0  0  0
  8 12  1  0  0  0  0
  9 12  2  0  0  0  0
 10 20  1  0  0  0  0
 11 21  1  0  0  0  0
 12 26  1  0  0  0  0
 13 14  2  0  0  0  0
 13 15  1  0  0  0  0
 13 24  1  0  0  0  0
 14 22  1  0  0  0  0
 14 25  1  0  0  0  0
 15 16  2  0  0  0  0
 16 17  1  0  0  0  0
 17 18  2  0  0  0  0
 18 24  1  0  0  0  0
 19 25  1  0  0  0  0
 19 26  1  0  0  0  0
 19 27  2  0  0  0  0
 21 26  1  0  0  0  0
 22 23  2  0  0  0  0
 23 24  1  0  0  0  0
  1 28  1  0  0  0  0
  2 29  1  0  0  0  0
  3 30  1  0  0  0  0
  4 31  1  0  0  0  0
  5 32  1  0  0  0  0
  6 33  1  0  0  0  0
  7 34  1  0  0  0  0
  8 35  1  0  0  0  0
  9 36  1  0  0  0  0
 15 37  1  0  0  0  0
 16 38  1  0  0  0  0
 17 39  1  0  0  0  0
 18 40  1  0  0  0  0
 20 41  1  0  0  0  0
 20 42  1  0  0  0  0
 20 43  1  0  0  0  0
 21 44  1  0  0  0  0
 21 45  1  0  0  0  0
 25 46  1  0  0  0  0
M  END
> <clash_score>
0

> <docking_score>
-8.829793930053711

$$$$
BENZO_100_1
  -OEChem-08212019473D

 44 47  0     0  0  0  0  0  0999 V2000
    9.0720   -1.1280   24.8640 C   0  0  0  0  0  0  0  0  0  0  0  0
    9.7200   -2.2600   22.8630 C   0  0  0  0  0  0  0  0  0  0  0  0
    8.9960   -2.3380   25.5320 C   0  0  0  0  0  0  0  0  0  0  0  0
    9.6730   -3.4710   23.5300 C   0  0  0  0  0  0  0  0  0  0  0  0
   12.2913    1.4279   22.6355 C   0  0  0  0  0  0  0  0  0  0  0  0
   13.6024    1.4661   23.0564 C   0  0  0  0  0  0  0  0  0  0  0  0
   12.0284    1.3764   24.9443 C   0  0  0  0  0  0  0  0  0  0  0  0
   11.3794    1.3761   23.7290 C   0  0  0  0  0  0  0  0  0  0  0  0
    9.3350   -1.0880   23.5010 C   0  0  0  0  0  0  0  0  0  0  0  0
    9.3070   -3.5340   24.8780 C   0  0  0  0  0  0  0  0  0  0  0  0
    6.1790    0.5730   19.9990 C   0  0  0  0  0  0  0  0  0  0  0  0
    7.3170   -0.1610   19.8550 C   0  0  0  0  0  0  0  0  0  0  0  0
    5.4210    0.9600   21.0930 C   0  0  0  0  0  0  0  0  0  0  0  0
    4.2750    1.7050   20.8490 C   0  0  0  0  0  0  0  0  0  0  0  0
    3.9160    2.0630   19.5520 C   0  0  0  0  0  0  0  0  0  0  0  0
    4.6890    1.6810   18.4640 C   0  0  0  0  0  0  0  0  0  0  0  0
    9.0420    0.3700   21.5280 C   0  0  0  0  0  0  0  0  0  0  0  0
    8.8720   -4.6805   26.9013 C   0  0  0  0  0  0  0  0  0  0  0  0
    9.8870    1.3260   23.5730 C   0  0  0  0  0  0  0  0  0  0  0  0
    7.6390   -0.2680   18.5410 N   0  0  0  0  0  0  0  0  0  0  0  0
    6.7580    0.3810   17.8350 N   0  0  0  0  0  0  0  0  0  0  0  0
    5.8300    0.9190   18.6970 N   0  0  0  0  0  0  0  0  0  0  0  0
    8.1890   -0.7180   20.8700 N   0  0  0  0  0  0  0  0  0  0  0  0
    9.4560    0.1560   22.8130 N   0  0  0  0  0  0  0  0  0  0  0  0
    9.2690    1.4140   20.9380 O   0  0  0  0  0  0  0  0  0  0  0  0
    9.2555   -4.7124   25.5274 O   0  0  0  0  0  0  0  0  0  0  0  0
   13.7301    1.4394   24.7638 S   0  0  0  0  0  0  0  0  0  0  0  0
    8.9221   -0.1995   25.4231 H   0  0  0  0  0  0  0  0  0  0  0  0
   10.0642   -2.2347   21.8253 H   0  0  0  0  0  0  0  0  0  0  0  0
    8.6902   -2.3588   26.5805 H   0  0  0  0  0  0  0  0  0  0  0  0
    9.9254   -4.3921   22.9961 H   0  0  0  0  0  0  0  0  0  0  0  0
   12.0045    1.4365   21.5915 H   0  0  0  0  0  0  0  0  0  0  0  0
   14.4914    1.5078   22.4431 H   0  0  0  0  0  0  0  0  0  0  0  0
   11.5886    1.3416   25.9314 H   0  0  0  0  0  0  0  0  0  0  0  0
    5.6855    0.7074   22.1002 H   0  0  0  0  0  0  0  0  0  0  0  0
    3.6634    2.0034   21.6926 H   0  0  0  0  0  0  0  0  0  0  0  0
    3.0111    2.6563   19.3629 H   0  0  0  0  0  0  0  0  0  0  0  0
    4.4370    1.9522   17.4626 H   0  0  0  0  0  0  0  0  0  0  0  0
    8.8711   -5.6964   27.3038 H   0  0  0  0  0  0  0  0  0  0  0  0
    7.8758   -4.2402   26.9923 H   0  0  0  0  0  0  0  0  0  0  0  0
    9.5894   -4.0716   27.4566 H   0  0  0  0  0  0  0  0  0  0  0  0
    9.3974    1.2912   24.5523 H   0  0  0  0  0  0  0  0  0  0  0  0
    9.5159    2.2168   23.0553 H   0  0  0  0  0  0  0  0  0  0  0  0
    8.2368   -1.5645   21.0930 H   0  0  0  0  0  0  0  0  0  0  0  0
  1  3  2  0  0  0  0
  1  9  1  0  0  0  0
  2  4  1  0  0  0  0
  2  9  2  0  0  0  0
  3 10  1  0  0  0  0
  4 10  2  0  0  0  0
  5  6  2  0  0  0  0
  5  8  1  0  0  0  0
  6 27  1  0  0  0  0
  7  8  2  0  0  0  0
  7 27  1  0  0  0  0
  8 19  1  0  0  0  0
  9 24  1  0  0  0  0
 10 26  1  0  0  0  0
 11 12  2  0  0  0  0
 11 13  1  0  0  0  0
 11 22  1  0  0  0  0
 12 20  1  0  0  0  0
 12 23  1  0  0  0  0
 13 14  2  0  0  0  0
 14 15  1  0  0  0  0
 15 16  2  0  0  0  0
 16 22  1  0  0  0  0
 17 23  1  0  0  0  0
 17 24  1  0  0  0  0
 17 25  2  0  0  0  0
 18 26  1  0  0  0  0
 19 24  1  0  0  0  0
 20 21  2  0  0  0  0
 21 22  1  0  0  0  0
  1 28  1  0  0  0  0
  2 29  1  0  0  0  0
  3 30  1  0  0  0  0
  4 31  1  0  0  0  0
  5 32  1  0  0  0  0
  6 33  1  0  0  0  0
  7 34  1  0  0  0  0
 13 35  1  0  0  0  0
 14 36  1  0  0  0  0
 15 37  1  0  0  0  0
 16 38  1  0  0  0  0
 18 39  1  0  0  0  0
 18 40  1  0  0  0  0
 18 41  1  0  0  0  0
 19 42  1  0  0  0  0
 19 43  1  0  0  0  0
 23 44  1  0  0  0  0
M  END
> <clash_score>
0

> <docking_score>
-8.644948959350586

$$$$
BENZO_99_1
  -OEChem-08212019473D

 46 49  0     0  0  0  0  0  0999 V2000
    8.9960   -2.3380   25.5320 C   0  0  0  0  0  0  0  0  0  0  0  0
    9.6730   -3.4710   23.5300 C   0  0  0  0  0  0  0  0  0  0  0  0
    9.0720   -1.1280   24.8640 C   0  0  0  0  0  0  0  0  0  0  0  0
    9.7200   -2.2600   22.8630 C   0  0  0  0  0  0  0  0  0  0  0  0
   12.1233    1.3811   24.9242 C   0  0  0  0  0  0  0  0  0  0  0  0
   12.3262    1.4247   22.7351 C   0  0  0  0  0  0  0  0  0  0  0  0
    9.3070   -3.5340   24.8780 C   0  0  0  0  0  0  0  0  0  0  0  0
   11.3794    1.3761   23.7290 C   0  0  0  0  0  0  0  0  0  0  0  0
    9.3350   -1.0880   23.5010 C   0  0  0  0  0  0  0  0  0  0  0  0
    6.1790    0.5730   19.9990 C   0  0  0  0  0  0  0  0  0  0  0  0
    7.3170   -0.1610   19.8550 C   0  0  0  0  0  0  0  0  0  0  0  0
    5.4210    0.9600   21.0930 C   0  0  0  0  0  0  0  0  0  0  0  0
    4.2750    1.7050   20.8490 C   0  0  0  0  0  0  0  0  0  0  0  0
    3.9160    2.0630   19.5520 C   0  0  0  0  0  0  0  0  0  0  0  0
    4.6890    1.6810   18.4640 C   0  0  0  0  0  0  0  0  0  0  0  0
    9.0420    0.3700   21.5280 C   0  0  0  0  0  0  0  0  0  0  0  0
    9.2505   -4.8264   25.5904 C   0  0  0  0  0  0  0  0  0  0  0  0
   14.8305    1.5084   22.7418 C   0  0  0  0  0  0  0  0  0  0  0  0
    9.8870    1.3260   23.5730 C   0  0  0  0  0  0  0  0  0  0  0  0
   13.4410    1.4289   24.7112 N   0  0  0  0  0  0  0  0  0  0  0  0
    7.6390   -0.2680   18.5410 N   0  0  0  0  0  0  0  0  0  0  0  0
    6.7580    0.3810   17.8350 N   0  0  0  0  0  0  0  0  0  0  0  0
   13.5326    1.4543   23.3706 N   0  0  0  0  0  0  0  0  0  0  0  0
    5.8300    0.9190   18.6970 N   0  0  0  0  0  0  0  0  0  0  0  0
    8.1890   -0.7180   20.8700 N   0  0  0  0  0  0  0  0  0  0  0  0
    9.4560    0.1560   22.8130 N   0  0  0  0  0  0  0  0  0  0  0  0
    9.2690    1.4140   20.9380 O   0  0  0  0  0  0  0  0  0  0  0  0
    8.6919   -2.3557   26.5813 H   0  0  0  0  0  0  0  0  0  0  0  0
    9.9267   -4.3907   22.9939 H   0  0  0  0  0  0  0  0  0  0  0  0
    8.9217   -0.1995   25.4231 H   0  0  0  0  0  0  0  0  0  0  0  0
   10.0653   -2.2339   21.8256 H   0  0  0  0  0  0  0  0  0  0  0  0
   11.7624    1.3510   25.9426 H   0  0  0  0  0  0  0  0  0  0  0  0
   12.2462    1.4390   21.6566 H   0  0  0  0  0  0  0  0  0  0  0  0
    5.6855    0.7074   22.1002 H   0  0  0  0  0  0  0  0  0  0  0  0
    3.6634    2.0034   21.6926 H   0  0  0  0  0  0  0  0  0  0  0  0
    3.0111    2.6563   19.3629 H   0  0  0  0  0  0  0  0  0  0  0  0
    4.4370    1.9522   17.4626 H   0  0  0  0  0  0  0  0  0  0  0  0
    8.2503   -5.2678   25.5020 H   0  0  0  0  0  0  0  0  0  0  0  0
    9.9817   -5.5374   25.1845 H   0  0  0  0  0  0  0  0  0  0  0  0
    9.4841   -4.7043   26.6562 H   0  0  0  0  0  0  0  0  0  0  0  0
   15.0990    2.5601   22.6124 H   0  0  0  0  0  0  0  0  0  0  0  0
   15.5636    1.0018   23.3756 H   0  0  0  0  0  0  0  0  0  0  0  0
   14.7841    1.0025   21.7733 H   0  0  0  0  0  0  0  0  0  0  0  0
    9.3974    1.2912   24.5523 H   0  0  0  0  0  0  0  0  0  0  0  0
    9.5159    2.2168   23.0553 H   0  0  0  0  0  0  0  0  0  0  0  0
    8.2368   -1.5645   21.0930 H   0  0  0  0  0  0  0  0  0  0  0  0
  1  3  2  0  0  0  0
  1  7  1  0  0  0  0
  2  4  1  0  0  0  0
  2  7  2  0  0  0  0
  3  9  1  0  0  0  0
  4  9  2  0  0  0  0
  5  8  1  0  0  0  0
  5 20  2  0  0  0  0
  6  8  2  0  0  0  0
  6 23  1  0  0  0  0
  7 17  1  0  0  0  0
  8 19  1  0  0  0  0
  9 26  1  0  0  0  0
 10 11  2  0  0  0  0
 10 12  1  0  0  0  0
 10 24  1  0  0  0  0
 11 21  1  0  0  0  0
 11 25  1  0  0  0  0
 12 13  2  0  0  0  0
 13 14  1  0  0  0  0
 14 15  2  0  0  0  0
 15 24  1  0  0  0  0
 16 25  1  0  0  0  0
 16 26  1  0  0  0  0
 16 27  2  0  0  0  0
 18 23  1  0  0  0  0
 19 26  1  0  0  0  0
 20 23  1  0  0  0  0
 21 22  2  0  0  0  0
 22 24  1  0  0  0  0
  1 28  1  0  0  0  0
  2 29  1  0  0  0  0
  3 30  1  0  0  0  0
  4 31  1  0  0  0  0
  5 32  1  0  0  0  0
  6 33  1  0  0  0  0
 12 34  1  0  0  0  0
 13 35  1  0  0  0  0
 14 36  1  0  0  0  0
 15 37  1  0  0  0  0
 17 38  1  0  0  0  0
 17 39  1  0  0  0  0
 17 40  1  0  0  0  0
 18 41  1  0  0  0  0
 18 42  1  0  0  0  0
 18 43  1  0  0  0  0
 19 44  1  0  0  0  0
 19 45  1  0  0  0  0
 25 46  1  0  0  0  0
M  END
> <clash_score>
0

> <docking_score>
-8.545928955078125

$$$$
BENZO_98_1
  -OEChem-08212019473D

 46 49  0     0  0  0  0  0  0999 V2000
    6.4089    2.0844   24.8766 C   0  0  0  0  0  0  0  0  0  0  0  0
    7.4847    1.4191   24.2887 C   0  0  0  0  0  0  0  0  0  0  0  0
    8.9960   -2.3380   25.5320 C   0  0  0  0  0  0  0  0  0  0  0  0
    9.6730   -3.4710   23.5300 C   0  0  0  0  0  0  0  0  0  0  0  0
    9.0720   -1.1280   24.8640 C   0  0  0  0  0  0  0  0  0  0  0  0
    9.7200   -2.2600   22.8630 C   0  0  0  0  0  0  0  0  0  0  0  0
    6.5777    3.3741   25.3805 C   0  0  0  0  0  0  0  0  0  0  0  0
    8.8980    3.3330   24.7088 C   0  0  0  0  0  0  0  0  0  0  0  0
    9.3070   -3.5340   24.8780 C   0  0  0  0  0  0  0  0  0  0  0  0
    8.7292    2.0433   24.2048 C   0  0  0  0  0  0  0  0  0  0  0  0
    9.3350   -1.0880   23.5010 C   0  0  0  0  0  0  0  0  0  0  0  0
    7.8222    3.9984   25.2966 C   0  0  0  0  0  0  0  0  0  0  0  0
    6.1790    0.5730   19.9990 C   0  0  0  0  0  0  0  0  0  0  0  0
    7.3170   -0.1610   19.8550 C   0  0  0  0  0  0  0  0  0  0  0  0
    5.4210    0.9600   21.0930 C   0  0  0  0  0  0  0  0  0  0  0  0
    4.2750    1.7050   20.8490 C   0  0  0  0  0  0  0  0  0  0  0  0
    3.9160    2.0630   19.5520 C   0  0  0  0  0  0  0  0  0  0  0  0
    4.6890    1.6810   18.4640 C   0  0  0  0  0  0  0  0  0  0  0  0
    9.0420    0.3700   21.5280 C   0  0  0  0  0  0  0  0  0  0  0  0
    9.2505   -4.8264   25.5904 C   0  0  0  0  0  0  0  0  0  0  0  0
    9.8870    1.3260   23.5730 C   0  0  0  0  0  0  0  0  0  0  0  0
    7.6390   -0.2680   18.5410 N   0  0  0  0  0  0  0  0  0  0  0  0
    6.7580    0.3810   17.8350 N   0  0  0  0  0  0  0  0  0  0  0  0
    5.8300    0.9190   18.6970 N   0  0  0  0  0  0  0  0  0  0  0  0
    8.1890   -0.7180   20.8700 N   0  0  0  0  0  0  0  0  0  0  0  0
    9.4560    0.1560   22.8130 N   0  0  0  0  0  0  0  0  0  0  0  0
    9.2690    1.4140   20.9380 O   0  0  0  0  0  0  0  0  0  0  0  0
    8.0301    5.5891   25.9196 Cl  0  0  0  0  0  0  0  0  0  0  0  0
    5.4400    1.5979   24.9418 H   0  0  0  0  0  0  0  0  0  0  0  0
    7.3441    0.4143   23.8988 H   0  0  0  0  0  0  0  0  0  0  0  0
    8.6919   -2.3557   26.5813 H   0  0  0  0  0  0  0  0  0  0  0  0
    9.9267   -4.3907   22.9939 H   0  0  0  0  0  0  0  0  0  0  0  0
    8.9217   -0.1995   25.4231 H   0  0  0  0  0  0  0  0  0  0  0  0
   10.0653   -2.2339   21.8256 H   0  0  0  0  0  0  0  0  0  0  0  0
    5.7304    3.8806   25.8363 H   0  0  0  0  0  0  0  0  0  0  0  0
    9.8703    3.8156   24.6405 H   0  0  0  0  0  0  0  0  0  0  0  0
    5.6855    0.7074   22.1002 H   0  0  0  0  0  0  0  0  0  0  0  0
    3.6634    2.0034   21.6926 H   0  0  0  0  0  0  0  0  0  0  0  0
    3.0111    2.6563   19.3629 H   0  0  0  0  0  0  0  0  0  0  0  0
    4.4370    1.9522   17.4626 H   0  0  0  0  0  0  0  0  0  0  0  0
    8.2503   -5.2678   25.5020 H   0  0  0  0  0  0  0  0  0  0  0  0
    9.9817   -5.5374   25.1845 H   0  0  0  0  0  0  0  0  0  0  0  0
    9.4841   -4.7043   26.6562 H   0  0  0  0  0  0  0  0  0  0  0  0
   10.4274    1.9911   22.8906 H   0  0  0  0  0  0  0  0  0  0  0  0
   10.6011    0.9882   24.3313 H   0  0  0  0  0  0  0  0  0  0  0  0
    8.2368   -1.5645   21.0930 H   0  0  0  0  0  0  0  0  0  0  0  0
  1  2  2  0  0  0  0
  1  7  1  0  0  0  0
  2 10  1  0  0  0  0
  3  5  2  0  0  0  0
  3  9  1  0  0  0  0
  4  6  1  0  0  0  0
  4  9  2  0  0  0  0
  5 11  1  0  0  0  0
  6 11  2  0  0  0  0
  7 12  2  0  0  0  0
  8 10  2  0  0  0  0
  8 12  1  0  0  0  0
  9 20  1  0  0  0  0
 10 21  1  0  0  0  0
 11 26  1  0  0  0  0
 12 28  1  0  0  0  0
 13 14  2  0  0  0  0
 13 15  1  0  0  0  0
 13 24  1  0  0  0  0
 14 22  1  0  0  0  0
 14 25  1  0  0  0  0
 15 16  2  0  0  0  0
 16 17  1  0  0  0  0
 17 18  2  0  0  0  0
 18 24  1  0  0  0  0
 19 25  1  0  0  0  0
 19 26  1  0  0  0  0
 19 27  2  0  0  0  0
 21 26  1  0  0  0  0
 22 23  2  0  0  0  0
 23 24  1  0  0  0  0
  1 29  1  0  0  0  0
  2 30  1  0  0  0  0
  3 31  1  0  0  0  0
  4 32  1  0  0  0  0
  5 33  1  0  0  0  0
  6 34  1  0  0  0  0
  7 35  1  0  0  0  0
  8 36  1  0  0  0  0
 15 37  1  0  0  0  0
 16 38  1  0  0  0  0
 17 39  1  0  0  0  0
 18 40  1  0  0  0  0
 20 41  1  0  0  0  0
 20 42  1  0  0  0  0
 20 43  1  0  0  0  0
 21 44  1  0  0  0  0
 21 45  1  0  0  0  0
 25 46  1  0  0  0  0
M  END
> <clash_score>
0

> <docking_score>
-8.215814590454102

$$$$
BENZO_103_1
  -OEChem-08212019473D

 47 50  0     0  0  0  0  0  0999 V2000
    9.0720   -1.1280   24.8640 C   0  0  0  0  0  0  0  0  0  0  0  0
    9.7200   -2.2600   22.8630 C   0  0  0  0  0  0  0  0  0  0  0  0
    8.9960   -2.3380   25.5320 C   0  0  0  0  0  0  0  0  0  0  0  0
    9.6730   -3.4710   23.5300 C   0  0  0  0  0  0  0  0  0  0  0  0
   12.1233    1.3811   24.9242 C   0  0  0  0  0  0  0  0  0  0  0  0
   12.3262    1.4247   22.7351 C   0  0  0  0  0  0  0  0  0  0  0  0
   11.3794    1.3761   23.7290 C   0  0  0  0  0  0  0  0  0  0  0  0
    9.3350   -1.0880   23.5010 C   0  0  0  0  0  0  0  0  0  0  0  0
    9.3070   -3.5340   24.8780 C   0  0  0  0  0  0  0  0  0  0  0  0
    6.1790    0.5730   19.9990 C   0  0  0  0  0  0  0  0  0  0  0  0
    7.3170   -0.1610   19.8550 C   0  0  0  0  0  0  0  0  0  0  0  0
    5.4210    0.9600   21.0930 C   0  0  0  0  0  0  0  0  0  0  0  0
    4.2750    1.7050   20.8490 C   0  0  0  0  0  0  0  0  0  0  0  0
    3.9160    2.0630   19.5520 C   0  0  0  0  0  0  0  0  0  0  0  0
    4.6890    1.6810   18.4640 C   0  0  0  0  0  0  0  0  0  0  0  0
    9.0420    0.3700   21.5280 C   0  0  0  0  0  0  0  0  0  0  0  0
   14.8305    1.5084   22.7418 C   0  0  0  0  0  0  0  0  0  0  0  0
    8.8720   -4.6805   26.9013 C   0  0  0  0  0  0  0  0  0  0  0  0
    9.8870    1.3260   23.5730 C   0  0  0  0  0  0  0  0  0  0  0  0
   13.4410    1.4289   24.7112 N   0  0  0  0  0  0  0  0  0  0  0  0
    7.6390   -0.2680   18.5410 N   0  0  0  0  0  0  0  0  0  0  0  0
    6.7580    0.3810   17.8350 N   0  0  0  0  0  0  0  0  0  0  0  0
   13.5326    1.4543   23.3706 N   0  0  0  0  0  0  0  0  0  0  0  0
    5.8300    0.9190   18.6970 N   0  0  0  0  0  0  0  0  0  0  0  0
    8.1890   -0.7180   20.8700 N   0  0  0  0  0  0  0  0  0  0  0  0
    9.4560    0.1560   22.8130 N   0  0  0  0  0  0  0  0  0  0  0  0
    9.2690    1.4140   20.9380 O   0  0  0  0  0  0  0  0  0  0  0  0
    9.2555   -4.7124   25.5274 O   0  0  0  0  0  0  0  0  0  0  0  0
    8.9221   -0.1995   25.4231 H   0  0  0  0  0  0  0  0  0  0  0  0
   10.0642   -2.2347   21.8253 H   0  0  0  0  0  0  0  0  0  0  0  0
    8.6902   -2.3588   26.5805 H   0  0  0  0  0  0  0  0  0  0  0  0
    9.9254   -4.3921   22.9961 H   0  0  0  0  0  0  0  0  0  0  0  0
   11.7624    1.3510   25.9426 H   0  0  0  0  0  0  0  0  0  0  0  0
   12.2462    1.4390   21.6566 H   0  0  0  0  0  0  0  0  0  0  0  0
    5.6855    0.7074   22.1002 H   0  0  0  0  0  0  0  0  0  0  0  0
    3.6634    2.0034   21.6926 H   0  0  0  0  0  0  0  0  0  0  0  0
    3.0111    2.6563   19.3629 H   0  0  0  0  0  0  0  0  0  0  0  0
    4.4370    1.9522   17.4626 H   0  0  0  0  0  0  0  0  0  0  0  0
   15.0990    2.5601   22.6124 H   0  0  0  0  0  0  0  0  0  0  0  0
   15.5636    1.0018   23.3756 H   0  0  0  0  0  0  0  0  0  0  0  0
   14.7841    1.0025   21.7733 H   0  0  0  0  0  0  0  0  0  0  0  0
    8.8711   -5.6964   27.3038 H   0  0  0  0  0  0  0  0  0  0  0  0
    7.8758   -4.2402   26.9923 H   0  0  0  0  0  0  0  0  0  0  0  0
    9.5894   -4.0716   27.4566 H   0  0  0  0  0  0  0  0  0  0  0  0
    9.3974    1.2912   24.5523 H   0  0  0  0  0  0  0  0  0  0  0  0
    9.5159    2.2168   23.0553 H   0  0  0  0  0  0  0  0  0  0  0  0
    8.2368   -1.5645   21.0930 H   0  0  0  0  0  0  0  0  0  0  0  0
  1  3  2  0  0  0  0
  1  8  1  0  0  0  0
  2  4  1  0  0  0  0
  2  8  2  0  0  0  0
  3  9  1  0  0  0  0
  4  9  2  0  0  0  0
  5  7  1  0  0  0  0
  5 20  2  0  0  0  0
  6  7  2  0  0  0  0
  6 23  1  0  0  0  0
  7 19  1  0  0  0  0
  8 26  1  0  0  0  0
  9 28  1  0  0  0  0
 10 11  2  0  0  0  0
 10 12  1  0  0  0  0
 10 24  1  0  0  0  0
 11 21  1  0  0  0  0
 11 25  1  0  0  0  0
 12 13  2  0  0  0  0
 13 14  1  0  0  0  0
 14 15  2  0  0  0  0
 15 24  1  0  0  0  0
 16 25  1  0  0  0  0
 16 26  1  0  0  0  0
 16 27  2  0  0  0  0
 17 23  1  0  0  0  0
 18 28  1  0  0  0  0
 19 26  1  0  0  0  0
 20 23  1  0  0  0  0
 21 22  2  0  0  0  0
 22 24  1  0  0  0  0
  1 29  1  0  0  0  0
  2 30  1  0  0  0  0
  3 31  1  0  0  0  0
  4 32  1  0  0  0  0
  5 33  1  0  0  0  0
  6 34  1  0  0  0  0
 12 35  1  0  0  0  0
 13 36  1  0  0  0  0
 14 37  1  0  0  0  0
 15 38  1  0  0  0  0
 17 39  1  0  0  0  0
 17 40  1  0  0  0  0
 17 41  1  0  0  0  0
 18 42  1  0  0  0  0
 18 43  1  0  0  0  0
 18 44  1  0  0  0  0
 19 45  1  0  0  0  0
 19 46  1  0  0  0  0
 25 47  1  0  0  0  0
M  END
> <clash_score>
0

> <docking_score>
-8.282228469848633

$$$$
BENZO_101_1
  -OEChem-08212019473D

 47 50  0     0  0  0  0  0  0999 V2000
   14.1526    1.4694   24.0176 C   0  0  0  0  0  0  0  0  0  0  0  0
   13.3741    0.8121   24.9701 C   0  0  0  0  0  0  0  0  0  0  0  0
   13.5446    2.0802   22.9208 C   0  0  0  0  0  0  0  0  0  0  0  0
   11.9875    0.7654   24.8258 C   0  0  0  0  0  0  0  0  0  0  0  0
   12.1580    2.0335   22.7765 C   0  0  0  0  0  0  0  0  0  0  0  0
    9.0720   -1.1280   24.8640 C   0  0  0  0  0  0  0  0  0  0  0  0
    9.7200   -2.2600   22.8630 C   0  0  0  0  0  0  0  0  0  0  0  0
    8.9960   -2.3380   25.5320 C   0  0  0  0  0  0  0  0  0  0  0  0
    9.6730   -3.4710   23.5300 C   0  0  0  0  0  0  0  0  0  0  0  0
   11.3794    1.3761   23.7290 C   0  0  0  0  0  0  0  0  0  0  0  0
    9.3350   -1.0880   23.5010 C   0  0  0  0  0  0  0  0  0  0  0  0
    9.3070   -3.5340   24.8780 C   0  0  0  0  0  0  0  0  0  0  0  0
    6.1790    0.5730   19.9990 C   0  0  0  0  0  0  0  0  0  0  0  0
    7.3170   -0.1610   19.8550 C   0  0  0  0  0  0  0  0  0  0  0  0
    5.4210    0.9600   21.0930 C   0  0  0  0  0  0  0  0  0  0  0  0
    4.2750    1.7050   20.8490 C   0  0  0  0  0  0  0  0  0  0  0  0
    3.9160    2.0630   19.5520 C   0  0  0  0  0  0  0  0  0  0  0  0
    4.6890    1.6810   18.4640 C   0  0  0  0  0  0  0  0  0  0  0  0
    9.0420    0.3700   21.5280 C   0  0  0  0  0  0  0  0  0  0  0  0
    8.8720   -4.6805   26.9013 C   0  0  0  0  0  0  0  0  0  0  0  0
    9.8870    1.3260   23.5730 C   0  0  0  0  0  0  0  0  0  0  0  0
    7.6390   -0.2680   18.5410 N   0  0  0  0  0  0  0  0  0  0  0  0
    6.7580    0.3810   17.8350 N   0  0  0  0  0  0  0  0  0  0  0  0
    5.8300    0.9190   18.6970 N   0  0  0  0  0  0  0  0  0  0  0  0
    8.1890   -0.7180   20.8700 N   0  0  0  0  0  0  0  0  0  0  0  0
    9.4560    0.1560   22.8130 N   0  0  0  0  0  0  0  0  0  0  0  0
    9.2690    1.4140   20.9380 O   0  0  0  0  0  0  0  0  0  0  0  0
    9.2555   -4.7124   25.5274 O   0  0  0  0  0  0  0  0  0  0  0  0
   15.2322    1.5068   24.1308 H   0  0  0  0  0  0  0  0  0  0  0  0
   13.8473    0.3374   25.8248 H   0  0  0  0  0  0  0  0  0  0  0  0
   14.1503    2.5930   22.1795 H   0  0  0  0  0  0  0  0  0  0  0  0
   11.3889    0.2508   25.5729 H   0  0  0  0  0  0  0  0  0  0  0  0
   11.6929    2.5120   21.9187 H   0  0  0  0  0  0  0  0  0  0  0  0
    8.9221   -0.1995   25.4231 H   0  0  0  0  0  0  0  0  0  0  0  0
   10.0642   -2.2347   21.8253 H   0  0  0  0  0  0  0  0  0  0  0  0
    8.6902   -2.3588   26.5805 H   0  0  0  0  0  0  0  0  0  0  0  0
    9.9254   -4.3921   22.9961 H   0  0  0  0  0  0  0  0  0  0  0  0
    5.6855    0.7074   22.1002 H   0  0  0  0  0  0  0  0  0  0  0  0
    3.6634    2.0034   21.6926 H   0  0  0  0  0  0  0  0  0  0  0  0
    3.0111    2.6563   19.3629 H   0  0  0  0  0  0  0  0  0  0  0  0
    4.4370    1.9522   17.4626 H   0  0  0  0  0  0  0  0  0  0  0  0
    8.8711   -5.6964   27.3038 H   0  0  0  0  0  0  0  0  0  0  0  0
    7.8758   -4.2402   26.9923 H   0  0  0  0  0  0  0  0  0  0  0  0
    9.5894   -4.0716   27.4566 H   0  0  0  0  0  0  0  0  0  0  0  0
    9.3974    1.2912   24.5523 H   0  0  0  0  0  0  0  0  0  0  0  0
    9.5159    2.2168   23.0553 H   0  0  0  0  0  0  0  0  0  0  0  0
    8.2368   -1.5645   21.0930 H   0  0  0  0  0  0  0  0  0  0  0  0
  1  2  1  0  0  0  0
  1  3  2  0  0  0  0
  2  4  2  0  0  0  0
  3  5  1  0  0  0  0
  4 10  1  0  0  0  0
  5 10  2  0  0  0  0
  6  8  2  0  0  0  0
  6 11  1  0  0  0  0
  7  9  1  0  0  0  0
  7 11  2  0  0  0  0
  8 12  1  0  0  0  0
  9 12  2  0  0  0  0
 10 21  1  0  0  0  0
 11 26  1  0  0  0  0
 12 28  1  0  0  0  0
 13 14  2  0  0  0  0
 13 15  1  0  0  0  0
 13 24  1  0  0  0  0
 14 22  1  0  0  0  0
 14 25  1  0  0  0  0
 15 16  2  0  0  0  0
 16 17  1  0  0  0  0
 17 18  2  0  0  0  0
 18 24  1  0  0  0  0
 19 25  1  0  0  0  0
 19 26  1  0  0  0  0
 19 27  2  0  0  0  0
 20 28  1  0  0  0  0
 21 26  1  0  0  0  0
 22 23  2  0  0  0  0
 23 24  1  0  0  0  0
  1 29  1  0  0  0  0
  2 30  1  0  0  0  0
  3 31  1  0  0  0  0
  4 32  1  0  0  0  0
  5 33  1  0  0  0  0
  6 34  1  0  0  0  0
  7 35  1  0  0  0  0
  8 36  1  0  0  0  0
  9 37  1  0  0  0  0
 15 38  1  0  0  0  0
 16 39  1  0  0  0  0
 17 40  1  0  0  0  0
 18 41  1  0  0  0  0
 20 42  1  0  0  0  0
 20 43  1  0  0  0  0
 20 44  1  0  0  0  0
 21 45  1  0  0  0  0
 21 46  1  0  0  0  0
 25 47  1  0  0  0  0
M  END
> <clash_score>
0

> <docking_score>
-8.566097259521484

$$$$
BENZO_102_1
  -OEChem-08212019473D

 47 50  0     0  0  0  0  0  0999 V2000
    6.4089    2.0844   24.8766 C   0  0  0  0  0  0  0  0  0  0  0  0
    7.4847    1.4191   24.2887 C   0  0  0  0  0  0  0  0  0  0  0  0
    9.0720   -1.1280   24.8640 C   0  0  0  0  0  0  0  0  0  0  0  0
    9.7200   -2.2600   22.8630 C   0  0  0  0  0  0  0  0  0  0  0  0
    8.9960   -2.3380   25.5320 C   0  0  0  0  0  0  0  0  0  0  0  0
    9.6730   -3.4710   23.5300 C   0  0  0  0  0  0  0  0  0  0  0  0
    6.5777    3.3741   25.3805 C   0  0  0  0  0  0  0  0  0  0  0  0
    8.8980    3.3330   24.7088 C   0  0  0  0  0  0  0  0  0  0  0  0
    8.7292    2.0433   24.2048 C   0  0  0  0  0  0  0  0  0  0  0  0
    9.3350   -1.0880   23.5010 C   0  0  0  0  0  0  0  0  0  0  0  0
    9.3070   -3.5340   24.8780 C   0  0  0  0  0  0  0  0  0  0  0  0
    7.8222    3.9984   25.2966 C   0  0  0  0  0  0  0  0  0  0  0  0
    6.1790    0.5730   19.9990 C   0  0  0  0  0  0  0  0  0  0  0  0
    7.3170   -0.1610   19.8550 C   0  0  0  0  0  0  0  0  0  0  0  0
    5.4210    0.9600   21.0930 C   0  0  0  0  0  0  0  0  0  0  0  0
    4.2750    1.7050   20.8490 C   0  0  0  0  0  0  0  0  0  0  0  0
    3.9160    2.0630   19.5520 C   0  0  0  0  0  0  0  0  0  0  0  0
    4.6890    1.6810   18.4640 C   0  0  0  0  0  0  0  0  0  0  0  0
    9.0420    0.3700   21.5280 C   0  0  0  0  0  0  0  0  0  0  0  0
    8.8720   -4.6805   26.9013 C   0  0  0  0  0  0  0  0  0  0  0  0
    9.8870    1.3260   23.5730 C   0  0  0  0  0  0  0  0  0  0  0  0
    7.6390   -0.2680   18.5410 N   0  0  0  0  0  0  0  0  0  0  0  0
    6.7580    0.3810   17.8350 N   0  0  0  0  0  0  0  0  0  0  0  0
    5.8300    0.9190   18.6970 N   0  0  0  0  0  0  0  0  0  0  0  0
    8.1890   -0.7180   20.8700 N   0  0  0  0  0  0  0  0  0  0  0  0
    9.4560    0.1560   22.8130 N   0  0  0  0  0  0  0  0  0  0  0  0
    9.2690    1.4140   20.9380 O   0  0  0  0  0  0  0  0  0  0  0  0
    9.2555   -4.7124   25.5274 O   0  0  0  0  0  0  0  0  0  0  0  0
    8.0301    5.5891   25.9196 Cl  0  0  0  0  0  0  0  0  0  0  0  0
    5.4400    1.5979   24.9418 H   0  0  0  0  0  0  0  0  0  0  0  0
    7.3441    0.4143   23.8988 H   0  0  0  0  0  0  0  0  0  0  0  0
    8.9221   -0.1995   25.4231 H   0  0  0  0  0  0  0  0  0  0  0  0
   10.0642   -2.2347   21.8253 H   0  0  0  0  0  0  0  0  0  0  0  0
    8.6902   -2.3588   26.5805 H   0  0  0  0  0  0  0  0  0  0  0  0
    9.9254   -4.3921   22.9961 H   0  0  0  0  0  0  0  0  0  0  0  0
    5.7304    3.8806   25.8363 H   0  0  0  0  0  0  0  0  0  0  0  0
    9.8703    3.8156   24.6405 H   0  0  0  0  0  0  0  0  0  0  0  0
    5.6855    0.7074   22.1002 H   0  0  0  0  0  0  0  0  0  0  0  0
    3.6634    2.0034   21.6926 H   0  0  0  0  0  0  0  0  0  0  0  0
    3.0111    2.6563   19.3629 H   0  0  0  0  0  0  0  0  0  0  0  0
    4.4370    1.9522   17.4626 H   0  0  0  0  0  0  0  0  0  0  0  0
    8.8711   -5.6964   27.3038 H   0  0  0  0  0  0  0  0  0  0  0  0
    7.8758   -4.2402   26.9923 H   0  0  0  0  0  0  0  0  0  0  0  0
    9.5894   -4.0716   27.4566 H   0  0  0  0  0  0  0  0  0  0  0  0
   10.4274    1.9911   22.8906 H   0  0  0  0  0  0  0  0  0  0  0  0
   10.6011    0.9882   24.3313 H   0  0  0  0  0  0  0  0  0  0  0  0
    8.2368   -1.5645   21.0930 H   0  0  0  0  0  0  0  0  0  0  0  0
  1  2  2  0  0  0  0
  1  7  1  0  0  0  0
  2  9  1  0  0  0  0
  3  5  2  0  0  0  0
  3 10  1  0  0  0  0
  4  6  1  0  0  0  0
  4 10  2  0  0  0  0
  5 11  1  0  0  0  0
  6 11  2  0  0  0  0
  7 12  2  0  0  0  0
  8  9  2  0  0  0  0
  8 12  1  0  0  0  0
  9 21  1  0  0  0  0
 10 26  1  0  0  0  0
 11 28  1  0  0  0  0
 12 29  1  0  0  0  0
 13 14  2  0  0  0  0
 13 15  1  0  0  0  0
 13 24  1  0  0  0  0
 14 22  1  0  0  0  0
 14 25  1  0  0  0  0
 15 16  2  0  0  0  0
 16 17  1  0  0  0  0
 17 18  2  0  0  0  0
 18 24  1  0  0  0  0
 19 25  1  0  0  0  0
 19 26  1  0  0  0  0
 19 27  2  0  0  0  0
 20 28  1  0  0  0  0
 21 26  1  0  0  0  0
 22 23  2  0  0  0  0
 23 24  1  0  0  0  0
  1 30  1  0  0  0  0
  2 31  1  0  0  0  0
  3 32  1  0  0  0  0
  4 33  1  0  0  0  0
  5 34  1  0  0  0  0
  6 35  1  0  0  0  0
  7 36  1  0  0  0  0
  8 37  1  0  0  0  0
 15 38  1  0  0  0  0
 16 39  1  0  0  0  0
 17 40  1  0  0  0  0
 18 41  1  0  0  0  0
 20 42  1  0  0  0  0
 20 43  1  0  0  0  0
 20 44  1  0  0  0  0
 21 45  1  0  0  0  0
 21 46  1  0  0  0  0
 25 47  1  0  0  0  0
M  END
> <clash_score>
0

> <docking_score>
-7.9521164894104

$$$$
BENZO_104_1
  -OEChem-08212019523D

 54 58  0     0  0  0  0  0  0999 V2000
    8.9960   -2.3380   25.5320 C   0  0  0  0  0  0  0  0  0  0  0  0
    9.6730   -3.4710   23.5300 C   0  0  0  0  0  0  0  0  0  0  0  0
    9.0720   -1.1280   24.8640 C   0  0  0  0  0  0  0  0  0  0  0  0
    9.7200   -2.2600   22.8630 C   0  0  0  0  0  0  0  0  0  0  0  0
   12.2913    1.4279   22.6355 C   0  0  0  0  0  0  0  0  0  0  0  0
   13.6024    1.4661   23.0564 C   0  0  0  0  0  0  0  0  0  0  0  0
   12.0284    1.3764   24.9443 C   0  0  0  0  0  0  0  0  0  0  0  0
   11.3794    1.3761   23.7290 C   0  0  0  0  0  0  0  0  0  0  0  0
    9.3070   -3.5340   24.8780 C   0  0  0  0  0  0  0  0  0  0  0  0
    9.3350   -1.0880   23.5010 C   0  0  0  0  0  0  0  0  0  0  0  0
    6.1790    0.5730   19.9990 C   0  0  0  0  0  0  0  0  0  0  0  0
    7.3170   -0.1610   19.8550 C   0  0  0  0  0  0  0  0  0  0  0  0
    5.4210    0.9600   21.0930 C   0  0  0  0  0  0  0  0  0  0  0  0
    4.2750    1.7050   20.8490 C   0  0  0  0  0  0  0  0  0  0  0  0
    3.9160    2.0630   19.5520 C   0  0  0  0  0  0  0  0  0  0  0  0
    4.6890    1.6810   18.4640 C   0  0  0  0  0  0  0  0  0  0  0  0
    8.3597   -5.0073   26.6307 C   0  0  0  0  0  0  0  0  0  0  0  0
    9.0420    0.3700   21.5280 C   0  0  0  0  0  0  0  0  0  0  0  0
    8.4720   -6.3981   27.2296 C   0  0  0  0  0  0  0  0  0  0  0  0
    9.9252   -6.7605   27.4803 C   0  0  0  0  0  0  0  0  0  0  0  0
   10.7833   -6.6094   26.2282 C   0  0  0  0  0  0  0  0  0  0  0  0
   10.0539   -5.9099   25.0823 C   0  0  0  0  0  0  0  0  0  0  0  0
    9.8870    1.3260   23.5730 C   0  0  0  0  0  0  0  0  0  0  0  0
    7.6390   -0.2680   18.5410 N   0  0  0  0  0  0  0  0  0  0  0  0
    6.7580    0.3810   17.8350 N   0  0  0  0  0  0  0  0  0  0  0  0
    5.8300    0.9190   18.6970 N   0  0  0  0  0  0  0  0  0  0  0  0
    9.2529   -4.7797   25.5644 N   0  0  0  0  0  0  0  0  0  0  0  0
    8.1890   -0.7180   20.8700 N   0  0  0  0  0  0  0  0  0  0  0  0
    9.4560    0.1560   22.8130 N   0  0  0  0  0  0  0  0  0  0  0  0
    7.4954   -4.2356   27.0449 O   0  0  0  0  0  0  0  0  0  0  0  0
    9.2690    1.4140   20.9380 O   0  0  0  0  0  0  0  0  0  0  0  0
   13.7301    1.4394   24.7638 S   0  0  0  0  0  0  0  0  0  0  0  0
    8.6895   -2.3529   26.5807 H   0  0  0  0  0  0  0  0  0  0  0  0
    9.9262   -4.3897   22.9916 H   0  0  0  0  0  0  0  0  0  0  0  0
    8.9224   -0.1998   25.4238 H   0  0  0  0  0  0  0  0  0  0  0  0
   10.0649   -2.2343   21.8258 H   0  0  0  0  0  0  0  0  0  0  0  0
   12.0045    1.4365   21.5915 H   0  0  0  0  0  0  0  0  0  0  0  0
   14.4914    1.5078   22.4431 H   0  0  0  0  0  0  0  0  0  0  0  0
   11.5886    1.3416   25.9314 H   0  0  0  0  0  0  0  0  0  0  0  0
    5.6855    0.7074   22.1002 H   0  0  0  0  0  0  0  0  0  0  0  0
    3.6634    2.0034   21.6926 H   0  0  0  0  0  0  0  0  0  0  0  0
    3.0111    2.6563   19.3629 H   0  0  0  0  0  0  0  0  0  0  0  0
    4.4370    1.9522   17.4626 H   0  0  0  0  0  0  0  0  0  0  0  0
    7.9325   -6.4148   28.1641 H   0  0  0  0  0  0  0  0  0  0  0  0
    8.0254   -7.0920   26.5333 H   0  0  0  0  0  0  0  0  0  0  0  0
   10.3387   -6.1267   28.2923 H   0  0  0  0  0  0  0  0  0  0  0  0
    9.9904   -7.8023   27.8537 H   0  0  0  0  0  0  0  0  0  0  0  0
   11.7037   -6.0404   26.4771 H   0  0  0  0  0  0  0  0  0  0  0  0
   11.1411   -7.6068   25.8918 H   0  0  0  0  0  0  0  0  0  0  0  0
   10.7782   -5.5162   24.3756 H   0  0  0  0  0  0  0  0  0  0  0  0
    9.4042   -6.6189   24.5807 H   0  0  0  0  0  0  0  0  0  0  0  0
    9.3974    1.2912   24.5523 H   0  0  0  0  0  0  0  0  0  0  0  0
    9.5159    2.2168   23.0553 H   0  0  0  0  0  0  0  0  0  0  0  0
    8.2565   -1.5523   21.1108 H   0  0  0  0  0  0  0  0  0  0  0  0
  1  3  2  0  0  0  0
  1  9  1  0  0  0  0
  2  4  1  0  0  0  0
  2  9  2  0  0  0  0
  3 10  1  0  0  0  0
  4 10  2  0  0  0  0
  5  6  2  0  0  0  0
  5  8  1  0  0  0  0
  6 32  1  0  0  0  0
  7  8  2  0  0  0  0
  7 32  1  0  0  0  0
  8 23  1  0  0  0  0
  9 27  1  0  0  0  0
 10 29  1  0  0  0  0
 11 12  2  0  0  0  0
 11 13  1  0  0  0  0
 11 26  1  0  0  0  0
 12 24  1  0  0  0  0
 12 28  1  0  0  0  0
 13 14  2  0  0  0  0
 14 15  1  0  0  0  0
 15 16  2  0  0  0  0
 16 26  1  0  0  0  0
 17 19  1  0  0  0  0
 17 27  1  0  0  0  0
 17 30  2  0  0  0  0
 18 28  1  0  0  0  0
 18 29  1  0  0  0  0
 18 31  2  0  0  0  0
 19 20  1  0  0  0  0
 20 21  1  0  0  0  0
 21 22  1  0  0  0  0
 22 27  1  0  0  0  0
 23 29  1  0  0  0  0
 24 25  2  0  0  0  0
 25 26  1  0  0  0  0
  1 33  1  0  0  0  0
  2 34  1  0  0  0  0
  3 35  1  0  0  0  0
  4 36  1  0  0  0  0
  5 37  1  0  0  0  0
  6 38  1  0  0  0  0
  7 39  1  0  0  0  0
 13 40  1  0  0  0  0
 14 41  1  0  0  0  0
 15 42  1  0  0  0  0
 16 43  1  0  0  0  0
 19 44  1  0  0  0  0
 19 45  1  0  0  0  0
 20 46  1  0  0  0  0
 20 47  1  0  0  0  0
 21 48  1  0  0  0  0
 21 49  1  0  0  0  0
 22 50  1  0  0  0  0
 22 51  1  0  0  0  0
 23 52  1  0  0  0  0
 23 53  1  0  0  0  0
 28 54  1  0  0  0  0
M  END
> <clash_score>
0.7790751876189459

> <docking_score>
-8.004591941833496

$$$$
BENZO_105_1
  -OEChem-08212019523D

 57 61  0     0  0  0  0  0  0999 V2000
   14.1526    1.4694   24.0176 C   0  0  0  0  0  0  0  0  0  0  0  0
   13.3741    0.8121   24.9701 C   0  0  0  0  0  0  0  0  0  0  0  0
   13.5446    2.0802   22.9208 C   0  0  0  0  0  0  0  0  0  0  0  0
   11.9875    0.7654   24.8259 C   0  0  0  0  0  0  0  0  0  0  0  0
   12.1580    2.0335   22.7765 C   0  0  0  0  0  0  0  0  0  0  0  0
    8.9960   -2.3380   25.5320 C   0  0  0  0  0  0  0  0  0  0  0  0
    9.6730   -3.4710   23.5300 C   0  0  0  0  0  0  0  0  0  0  0  0
    9.0720   -1.1280   24.8640 C   0  0  0  0  0  0  0  0  0  0  0  0
    9.7200   -2.2600   22.8630 C   0  0  0  0  0  0  0  0  0  0  0  0
   11.3794    1.3761   23.7290 C   0  0  0  0  0  0  0  0  0  0  0  0
    9.3070   -3.5340   24.8780 C   0  0  0  0  0  0  0  0  0  0  0  0
    9.3350   -1.0880   23.5010 C   0  0  0  0  0  0  0  0  0  0  0  0
    6.1790    0.5730   19.9990 C   0  0  0  0  0  0  0  0  0  0  0  0
    7.3170   -0.1610   19.8550 C   0  0  0  0  0  0  0  0  0  0  0  0
    5.4210    0.9600   21.0930 C   0  0  0  0  0  0  0  0  0  0  0  0
    4.2750    1.7050   20.8490 C   0  0  0  0  0  0  0  0  0  0  0  0
    3.9160    2.0630   19.5520 C   0  0  0  0  0  0  0  0  0  0  0  0
    4.6890    1.6810   18.4640 C   0  0  0  0  0  0  0  0  0  0  0  0
    8.3597   -5.0073   26.6307 C   0  0  0  0  0  0  0  0  0  0  0  0
    9.0420    0.3700   21.5280 C   0  0  0  0  0  0  0  0  0  0  0  0
    8.4720   -6.3981   27.2296 C   0  0  0  0  0  0  0  0  0  0  0  0
    9.9252   -6.7605   27.4803 C   0  0  0  0  0  0  0  0  0  0  0  0
   10.7833   -6.6094   26.2282 C   0  0  0  0  0  0  0  0  0  0  0  0
   10.0539   -5.9099   25.0823 C   0  0  0  0  0  0  0  0  0  0  0  0
    9.8870    1.3260   23.5730 C   0  0  0  0  0  0  0  0  0  0  0  0
    7.6390   -0.2680   18.5410 N   0  0  0  0  0  0  0  0  0  0  0  0
    6.7580    0.3810   17.8350 N   0  0  0  0  0  0  0  0  0  0  0  0
    5.8300    0.9190   18.6970 N   0  0  0  0  0  0  0  0  0  0  0  0
    9.2529   -4.7797   25.5644 N   0  0  0  0  0  0  0  0  0  0  0  0
    8.1890   -0.7180   20.8700 N   0  0  0  0  0  0  0  0  0  0  0  0
    9.4560    0.1560   22.8130 N   0  0  0  0  0  0  0  0  0  0  0  0
    7.4954   -4.2356   27.0449 O   0  0  0  0  0  0  0  0  0  0  0  0
    9.2690    1.4140   20.9380 O   0  0  0  0  0  0  0  0  0  0  0  0
   15.2322    1.5068   24.1308 H   0  0  0  0  0  0  0  0  0  0  0  0
   13.8473    0.3374   25.8248 H   0  0  0  0  0  0  0  0  0  0  0  0
   14.1503    2.5930   22.1795 H   0  0  0  0  0  0  0  0  0  0  0  0
   11.3889    0.2508   25.5729 H   0  0  0  0  0  0  0  0  0  0  0  0
   11.6930    2.5120   21.9187 H   0  0  0  0  0  0  0  0  0  0  0  0
    8.6895   -2.3529   26.5807 H   0  0  0  0  0  0  0  0  0  0  0  0
    9.9262   -4.3897   22.9916 H   0  0  0  0  0  0  0  0  0  0  0  0
    8.9224   -0.1998   25.4238 H   0  0  0  0  0  0  0  0  0  0  0  0
   10.0649   -2.2343   21.8258 H   0  0  0  0  0  0  0  0  0  0  0  0
    5.6855    0.7074   22.1002 H   0  0  0  0  0  0  0  0  0  0  0  0
    3.6634    2.0034   21.6926 H   0  0  0  0  0  0  0  0  0  0  0  0
    3.0111    2.6563   19.3629 H   0  0  0  0  0  0  0  0  0  0  0  0
    4.4370    1.9522   17.4626 H   0  0  0  0  0  0  0  0  0  0  0  0
    7.9325   -6.4148   28.1641 H   0  0  0  0  0  0  0  0  0  0  0  0
    8.0254   -7.0920   26.5333 H   0  0  0  0  0  0  0  0  0  0  0  0
   10.3387   -6.1267   28.2923 H   0  0  0  0  0  0  0  0  0  0  0  0
    9.9904   -7.8023   27.8537 H   0  0  0  0  0  0  0  0  0  0  0  0
   11.7037   -6.0404   26.4771 H   0  0  0  0  0  0  0  0  0  0  0  0
   11.1411   -7.6068   25.8918 H   0  0  0  0  0  0  0  0  0  0  0  0
   10.7782   -5.5162   24.3756 H   0  0  0  0  0  0  0  0  0  0  0  0
    9.4042   -6.6189   24.5807 H   0  0  0  0  0  0  0  0  0  0  0  0
    9.3974    1.2912   24.5523 H   0  0  0  0  0  0  0  0  0  0  0  0
    9.5159    2.2168   23.0553 H   0  0  0  0  0  0  0  0  0  0  0  0
    8.2565   -1.5523   21.1108 H   0  0  0  0  0  0  0  0  0  0  0  0
  1  2  1  0  0  0  0
  1  3  2  0  0  0  0
  2  4  2  0  0  0  0
  3  5  1  0  0  0  0
  4 10  1  0  0  0  0
  5 10  2  0  0  0  0
  6  8  2  0  0  0  0
  6 11  1  0  0  0  0
  7  9  1  0  0  0  0
  7 11  2  0  0  0  0
  8 12  1  0  0  0  0
  9 12  2  0  0  0  0
 10 25  1  0  0  0  0
 11 29  1  0  0  0  0
 12 31  1  0  0  0  0
 13 14  2  0  0  0  0
 13 15  1  0  0  0  0
 13 28  1  0  0  0  0
 14 26  1  0  0  0  0
 14 30  1  0  0  0  0
 15 16  2  0  0  0  0
 16 17  1  0  0  0  0
 17 18  2  0  0  0  0
 18 28  1  0  0  0  0
 19 21  1  0  0  0  0
 19 29  1  0  0  0  0
 19 32  2  0  0  0  0
 20 30  1  0  0  0  0
 20 31  1  0  0  0  0
 20 33  2  0  0  0  0
 21 22  1  0  0  0  0
 22 23  1  0  0  0  0
 23 24  1  0  0  0  0
 24 29  1  0  0  0  0
 25 31  1  0  0  0  0
 26 27  2  0  0  0  0
 27 28  1  0  0  0  0
  1 34  1  0  0  0  0
  2 35  1  0  0  0  0
  3 36  1  0  0  0  0
  4 37  1  0  0  0  0
  5 38  1  0  0  0  0
  6 39  1  0  0  0  0
  7 40  1  0  0  0  0
  8 41  1  0  0  0  0
  9 42  1  0  0  0  0
 15 43  1  0  0  0  0
 16 44  1  0  0  0  0
 17 45  1  0  0  0  0
 18 46  1  0  0  0  0
 21 47  1  0  0  0  0
 21 48  1  0  0  0  0
 22 49  1  0  0  0  0
 22 50  1  0  0  0  0
 23 51  1  0  0  0  0
 23 52  1  0  0  0  0
 24 53  1  0  0  0  0
 24 54  1  0  0  0  0
 25 55  1  0  0  0  0
 25 56  1  0  0  0  0
 30 57  1  0  0  0  0
M  END
> <clash_score>
0.7790751876189459

> <docking_score>
-7.9257097244262695

$$$$
BENZO_106_1
  -OEChem-08212019523D

 57 61  0     0  0  0  0  0  0999 V2000
    6.4089    2.0844   24.8766 C   0  0  0  0  0  0  0  0  0  0  0  0
    7.4847    1.4191   24.2887 C   0  0  0  0  0  0  0  0  0  0  0  0
    8.9960   -2.3380   25.5320 C   0  0  0  0  0  0  0  0  0  0  0  0
    9.6730   -3.4710   23.5300 C   0  0  0  0  0  0  0  0  0  0  0  0
    9.0720   -1.1280   24.8640 C   0  0  0  0  0  0  0  0  0  0  0  0
    9.7200   -2.2600   22.8630 C   0  0  0  0  0  0  0  0  0  0  0  0
    6.5777    3.3741   25.3805 C   0  0  0  0  0  0  0  0  0  0  0  0
    8.8980    3.3330   24.7088 C   0  0  0  0  0  0  0  0  0  0  0  0
    8.7292    2.0433   24.2048 C   0  0  0  0  0  0  0  0  0  0  0  0
    9.3070   -3.5340   24.8780 C   0  0  0  0  0  0  0  0  0  0  0  0
    9.3350   -1.0880   23.5010 C   0  0  0  0  0  0  0  0  0  0  0  0
    7.8222    3.9984   25.2966 C   0  0  0  0  0  0  0  0  0  0  0  0
    6.1790    0.5730   19.9990 C   0  0  0  0  0  0  0  0  0  0  0  0
    7.3170   -0.1610   19.8550 C   0  0  0  0  0  0  0  0  0  0  0  0
    5.4210    0.9600   21.0930 C   0  0  0  0  0  0  0  0  0  0  0  0
    4.2750    1.7050   20.8490 C   0  0  0  0  0  0  0  0  0  0  0  0
    3.9160    2.0630   19.5520 C   0  0  0  0  0  0  0  0  0  0  0  0
    4.6890    1.6810   18.4640 C   0  0  0  0  0  0  0  0  0  0  0  0
    8.3597   -5.0073   26.6307 C   0  0  0  0  0  0  0  0  0  0  0  0
    9.0420    0.3700   21.5280 C   0  0  0  0  0  0  0  0  0  0  0  0
    8.4720   -6.3981   27.2296 C   0  0  0  0  0  0  0  0  0  0  0  0
    9.9252   -6.7605   27.4803 C   0  0  0  0  0  0  0  0  0  0  0  0
   10.7833   -6.6094   26.2282 C   0  0  0  0  0  0  0  0  0  0  0  0
   10.0539   -5.9099   25.0823 C   0  0  0  0  0  0  0  0  0  0  0  0
    9.8870    1.3260   23.5730 C   0  0  0  0  0  0  0  0  0  0  0  0
    7.6390   -0.2680   18.5410 N   0  0  0  0  0  0  0  0  0  0  0  0
    6.7580    0.3810   17.8350 N   0  0  0  0  0  0  0  0  0  0  0  0
    5.8300    0.9190   18.6970 N   0  0  0  0  0  0  0  0  0  0  0  0
    9.2529   -4.7797   25.5644 N   0  0  0  0  0  0  0  0  0  0  0  0
    8.1890   -0.7180   20.8700 N   0  0  0  0  0  0  0  0  0  0  0  0
    9.4560    0.1560   22.8130 N   0  0  0  0  0  0  0  0  0  0  0  0
    7.4954   -4.2356   27.0449 O   0  0  0  0  0  0  0  0  0  0  0  0
    9.2690    1.4140   20.9380 O   0  0  0  0  0  0  0  0  0  0  0  0
    8.0301    5.5891   25.9196 Cl  0  0  0  0  0  0  0  0  0  0  0  0
    5.4400    1.5979   24.9418 H   0  0  0  0  0  0  0  0  0  0  0  0
    7.3441    0.4143   23.8988 H   0  0  0  0  0  0  0  0  0  0  0  0
    8.6895   -2.3529   26.5807 H   0  0  0  0  0  0  0  0  0  0  0  0
    9.9262   -4.3897   22.9916 H   0  0  0  0  0  0  0  0  0  0  0  0
    8.9224   -0.1998   25.4238 H   0  0  0  0  0  0  0  0  0  0  0  0
   10.0649   -2.2343   21.8258 H   0  0  0  0  0  0  0  0  0  0  0  0
    5.7304    3.8806   25.8363 H   0  0  0  0  0  0  0  0  0  0  0  0
    9.8702    3.8156   24.6405 H   0  0  0  0  0  0  0  0  0  0  0  0
    5.6855    0.7074   22.1002 H   0  0  0  0  0  0  0  0  0  0  0  0
    3.6634    2.0034   21.6926 H   0  0  0  0  0  0  0  0  0  0  0  0
    3.0111    2.6563   19.3629 H   0  0  0  0  0  0  0  0  0  0  0  0
    4.4370    1.9522   17.4626 H   0  0  0  0  0  0  0  0  0  0  0  0
    7.9325   -6.4148   28.1641 H   0  0  0  0  0  0  0  0  0  0  0  0
    8.0254   -7.0920   26.5333 H   0  0  0  0  0  0  0  0  0  0  0  0
   10.3387   -6.1267   28.2923 H   0  0  0  0  0  0  0  0  0  0  0  0
    9.9904   -7.8023   27.8537 H   0  0  0  0  0  0  0  0  0  0  0  0
   11.7037   -6.0404   26.4771 H   0  0  0  0  0  0  0  0  0  0  0  0
   11.1411   -7.6068   25.8918 H   0  0  0  0  0  0  0  0  0  0  0  0
   10.7782   -5.5162   24.3756 H   0  0  0  0  0  0  0  0  0  0  0  0
    9.4042   -6.6189   24.5807 H   0  0  0  0  0  0  0  0  0  0  0  0
   10.4274    1.9911   22.8906 H   0  0  0  0  0  0  0  0  0  0  0  0
   10.6011    0.9882   24.3313 H   0  0  0  0  0  0  0  0  0  0  0  0
    8.2565   -1.5523   21.1108 H   0  0  0  0  0  0  0  0  0  0  0  0
  1  2  2  0  0  0  0
  1  7  1  0  0  0  0
  2  9  1  0  0  0  0
  3  5  2  0  0  0  0
  3 10  1  0  0  0  0
  4  6  1  0  0  0  0
  4 10  2  0  0  0  0
  5 11  1  0  0  0  0
  6 11  2  0  0  0  0
  7 12  2  0  0  0  0
  8  9  2  0  0  0  0
  8 12  1  0  0  0  0
  9 25  1  0  0  0  0
 10 29  1  0  0  0  0
 11 31  1  0  0  0  0
 12 34  1  0  0  0  0
 13 14  2  0  0  0  0
 13 15  1  0  0  0  0
 13 28  1  0  0  0  0
 14 26  1  0  0  0  0
 14 30  1  0  0  0  0
 15 16  2  0  0  0  0
 16 17  1  0  0  0  0
 17 18  2  0  0  0  0
 18 28  1  0  0  0  0
 19 21  1  0  0  0  0
 19 29  1  0  0  0  0
 19 32  2  0  0  0  0
 20 30  1  0  0  0  0
 20 31  1  0  0  0  0
 20 33  2  0  0  0  0
 21 22  1  0  0  0  0
 22 23  1  0  0  0  0
 23 24  1  0  0  0  0
 24 29  1  0  0  0  0
 25 31  1  0  0  0  0
 26 27  2  0  0  0  0
 27 28  1  0  0  0  0
  1 35  1  0  0  0  0
  2 36  1  0  0  0  0
  3 37  1  0  0  0  0
  4 38  1  0  0  0  0
  5 39  1  0  0  0  0
  6 40  1  0  0  0  0
  7 41  1  0  0  0  0
  8 42  1  0  0  0  0
 15 43  1  0  0  0  0
 16 44  1  0  0  0  0
 17 45  1  0  0  0  0
 18 46  1  0  0  0  0
 21 47  1  0  0  0  0
 21 48  1  0  0  0  0
 22 49  1  0  0  0  0
 22 50  1  0  0  0  0
 23 51  1  0  0  0  0
 23 52  1  0  0  0  0
 24 53  1  0  0  0  0
 24 54  1  0  0  0  0
 25 55  1  0  0  0  0
 25 56  1  0  0  0  0
 30 57  1  0  0  0  0
M  END
> <clash_score>
0.7790751876189459

> <docking_score>
-7.31174373626709

$$$$
BENZO_107_1
  -OEChem-08212019523D

 57 61  0     0  0  0  0  0  0999 V2000
    8.9960   -2.3380   25.5320 C   0  0  0  0  0  0  0  0  0  0  0  0
    9.6730   -3.4710   23.5300 C   0  0  0  0  0  0  0  0  0  0  0  0
    9.0720   -1.1280   24.8640 C   0  0  0  0  0  0  0  0  0  0  0  0
    9.7200   -2.2600   22.8630 C   0  0  0  0  0  0  0  0  0  0  0  0
   12.1233    1.3811   24.9242 C   0  0  0  0  0  0  0  0  0  0  0  0
   12.3262    1.4247   22.7351 C   0  0  0  0  0  0  0  0  0  0  0  0
   11.3794    1.3761   23.7290 C   0  0  0  0  0  0  0  0  0  0  0  0
    9.3070   -3.5340   24.8780 C   0  0  0  0  0  0  0  0  0  0  0  0
    9.3350   -1.0880   23.5010 C   0  0  0  0  0  0  0  0  0  0  0  0
    6.1790    0.5730   19.9990 C   0  0  0  0  0  0  0  0  0  0  0  0
    7.3170   -0.1610   19.8550 C   0  0  0  0  0  0  0  0  0  0  0  0
    5.4210    0.9600   21.0930 C   0  0  0  0  0  0  0  0  0  0  0  0
    4.2750    1.7050   20.8490 C   0  0  0  0  0  0  0  0  0  0  0  0
    3.9160    2.0630   19.5520 C   0  0  0  0  0  0  0  0  0  0  0  0
    4.6890    1.6810   18.4640 C   0  0  0  0  0  0  0  0  0  0  0  0
    8.3597   -5.0073   26.6307 C   0  0  0  0  0  0  0  0  0  0  0  0
    9.0420    0.3700   21.5280 C   0  0  0  0  0  0  0  0  0  0  0  0
    8.4720   -6.3981   27.2296 C   0  0  0  0  0  0  0  0  0  0  0  0
    9.9252   -6.7605   27.4803 C   0  0  0  0  0  0  0  0  0  0  0  0
   10.7833   -6.6094   26.2282 C   0  0  0  0  0  0  0  0  0  0  0  0
   10.0539   -5.9099   25.0823 C   0  0  0  0  0  0  0  0  0  0  0  0
   14.8305    1.5084   22.7418 C   0  0  0  0  0  0  0  0  0  0  0  0
    9.8870    1.3260   23.5730 C   0  0  0  0  0  0  0  0  0  0  0  0
   13.4410    1.4289   24.7112 N   0  0  0  0  0  0  0  0  0  0  0  0
    7.6390   -0.2680   18.5410 N   0  0  0  0  0  0  0  0  0  0  0  0
    6.7580    0.3810   17.8350 N   0  0  0  0  0  0  0  0  0  0  0  0
   13.5326    1.4543   23.3706 N   0  0  0  0  0  0  0  0  0  0  0  0
    5.8300    0.9190   18.6970 N   0  0  0  0  0  0  0  0  0  0  0  0
    9.2529   -4.7797   25.5644 N   0  0  0  0  0  0  0  0  0  0  0  0
    8.1890   -0.7180   20.8700 N   0  0  0  0  0  0  0  0  0  0  0  0
    9.4560    0.1560   22.8130 N   0  0  0  0  0  0  0  0  0  0  0  0
    7.4954   -4.2356   27.0449 O   0  0  0  0  0  0  0  0  0  0  0  0
    9.2690    1.4140   20.9380 O   0  0  0  0  0  0  0  0  0  0  0  0
    8.6895   -2.3529   26.5807 H   0  0  0  0  0  0  0  0  0  0  0  0
    9.9262   -4.3897   22.9916 H   0  0  0  0  0  0  0  0  0  0  0  0
    8.9224   -0.1998   25.4238 H   0  0  0  0  0  0  0  0  0  0  0  0
   10.0649   -2.2343   21.8258 H   0  0  0  0  0  0  0  0  0  0  0  0
   11.7624    1.3510   25.9426 H   0  0  0  0  0  0  0  0  0  0  0  0
   12.2462    1.4390   21.6566 H   0  0  0  0  0  0  0  0  0  0  0  0
    5.6855    0.7074   22.1002 H   0  0  0  0  0  0  0  0  0  0  0  0
    3.6634    2.0034   21.6926 H   0  0  0  0  0  0  0  0  0  0  0  0
    3.0111    2.6563   19.3629 H   0  0  0  0  0  0  0  0  0  0  0  0
    4.4370    1.9522   17.4626 H   0  0  0  0  0  0  0  0  0  0  0  0
    7.9325   -6.4148   28.1641 H   0  0  0  0  0  0  0  0  0  0  0  0
    8.0254   -7.0920   26.5333 H   0  0  0  0  0  0  0  0  0  0  0  0
   10.3387   -6.1267   28.2923 H   0  0  0  0  0  0  0  0  0  0  0  0
    9.9904   -7.8023   27.8537 H   0  0  0  0  0  0  0  0  0  0  0  0
   11.7037   -6.0404   26.4771 H   0  0  0  0  0  0  0  0  0  0  0  0
   11.1411   -7.6068   25.8918 H   0  0  0  0  0  0  0  0  0  0  0  0
   10.7782   -5.5162   24.3756 H   0  0  0  0  0  0  0  0  0  0  0  0
    9.4042   -6.6189   24.5807 H   0  0  0  0  0  0  0  0  0  0  0  0
   15.0990    2.5601   22.6124 H   0  0  0  0  0  0  0  0  0  0  0  0
   15.5636    1.0018   23.3756 H   0  0  0  0  0  0  0  0  0  0  0  0
   14.7842    1.0025   21.7733 H   0  0  0  0  0  0  0  0  0  0  0  0
    9.3974    1.2912   24.5523 H   0  0  0  0  0  0  0  0  0  0  0  0
    9.5159    2.2168   23.0553 H   0  0  0  0  0  0  0  0  0  0  0  0
    8.2565   -1.5523   21.1108 H   0  0  0  0  0  0  0  0  0  0  0  0
  1  3  2  0  0  0  0
  1  8  1  0  0  0  0
  2  4  1  0  0  0  0
  2  8  2  0  0  0  0
  3  9  1  0  0  0  0
  4  9  2  0  0  0  0
  5  7  1  0  0  0  0
  5 24  2  0  0  0  0
  6  7  2  0  0  0  0
  6 27  1  0  0  0  0
  7 23  1  0  0  0  0
  8 29  1  0  0  0  0
  9 31  1  0  0  0  0
 10 11  2  0  0  0  0
 10 12  1  0  0  0  0
 10 28  1  0  0  0  0
 11 25  1  0  0  0  0
 11 30  1  0  0  0  0
 12 13  2  0  0  0  0
 13 14  1  0  0  0  0
 14 15  2  0  0  0  0
 15 28  1  0  0  0  0
 16 18  1  0  0  0  0
 16 29  1  0  0  0  0
 16 32  2  0  0  0  0
 17 30  1  0  0  0  0
 17 31  1  0  0  0  0
 17 33  2  0  0  0  0
 18 19  1  0  0  0  0
 19 20  1  0  0  0  0
 20 21  1  0  0  0  0
 21 29  1  0  0  0  0
 22 27  1  0  0  0  0
 23 31  1  0  0  0  0
 24 27  1  0  0  0  0
 25 26  2  0  0  0  0
 26 28  1  0  0  0  0
  1 34  1  0  0  0  0
  2 35  1  0  0  0  0
  3 36  1  0  0  0  0
  4 37  1  0  0  0  0
  5 38  1  0  0  0  0
  6 39  1  0  0  0  0
 12 40  1  0  0  0  0
 13 41  1  0  0  0  0
 14 42  1  0  0  0  0
 15 43  1  0  0  0  0
 18 44  1  0  0  0  0
 18 45  1  0  0  0  0
 19 46  1  0  0  0  0
 19 47  1  0  0  0  0
 20 48  1  0  0  0  0
 20 49  1  0  0  0  0
 21 50  1  0  0  0  0
 21 51  1  0  0  0  0
 22 52  1  0  0  0  0
 22 53  1  0  0  0  0
 22 54  1  0  0  0  0
 23 55  1  0  0  0  0
 23 56  1  0  0  0  0
 30 57  1  0  0  0  0
M  END
> <clash_score>
0.7790751876189459

> <docking_score>
-7.64186954498291

$$$$
BENZO_109_1
  -OEChem-08212019523D

 56 60  0     0  0  0  0  0  0999 V2000
   14.1526    1.4694   24.0176 C   0  0  0  0  0  0  0  0  0  0  0  0
   13.3741    0.8121   24.9701 C   0  0  0  0  0  0  0  0  0  0  0  0
   13.5446    2.0802   22.9208 C   0  0  0  0  0  0  0  0  0  0  0  0
   11.9875    0.7654   24.8258 C   0  0  0  0  0  0  0  0  0  0  0  0
   12.1580    2.0335   22.7765 C   0  0  0  0  0  0  0  0  0  0  0  0
    8.9960   -2.3380   25.5320 C   0  0  0  0  0  0  0  0  0  0  0  0
    9.6730   -3.4710   23.5300 C   0  0  0  0  0  0  0  0  0  0  0  0
    9.0720   -1.1280   24.8640 C   0  0  0  0  0  0  0  0  0  0  0  0
    9.7200   -2.2600   22.8630 C   0  0  0  0  0  0  0  0  0  0  0  0
   11.3794    1.3761   23.7290 C   0  0  0  0  0  0  0  0  0  0  0  0
    9.3070   -3.5340   24.8780 C   0  0  0  0  0  0  0  0  0  0  0  0
    9.3350   -1.0880   23.5010 C   0  0  0  0  0  0  0  0  0  0  0  0
    6.1790    0.5730   19.9990 C   0  0  0  0  0  0  0  0  0  0  0  0
    7.3170   -0.1610   19.8550 C   0  0  0  0  0  0  0  0  0  0  0  0
    5.4210    0.9600   21.0930 C   0  0  0  0  0  0  0  0  0  0  0  0
    4.2750    1.7050   20.8490 C   0  0  0  0  0  0  0  0  0  0  0  0
    3.9160    2.0630   19.5520 C   0  0  0  0  0  0  0  0  0  0  0  0
    4.6890    1.6810   18.4640 C   0  0  0  0  0  0  0  0  0  0  0  0
    9.0420    0.3700   21.5280 C   0  0  0  0  0  0  0  0  0  0  0  0
   10.0771   -5.0255   26.7193 C   0  0  0  0  0  0  0  0  0  0  0  0
    8.0927   -5.6195   25.4071 C   0  0  0  0  0  0  0  0  0  0  0  0
    9.1933   -4.9427   27.9592 C   0  0  0  0  0  0  0  0  0  0  0  0
    7.2756   -5.5290   26.6967 C   0  0  0  0  0  0  0  0  0  0  0  0
    9.8870    1.3260   23.5730 C   0  0  0  0  0  0  0  0  0  0  0  0
    7.6390   -0.2680   18.5410 N   0  0  0  0  0  0  0  0  0  0  0  0
    6.7580    0.3810   17.8350 N   0  0  0  0  0  0  0  0  0  0  0  0
    5.8300    0.9190   18.6970 N   0  0  0  0  0  0  0  0  0  0  0  0
    9.2563   -4.7368   25.5413 N   0  0  0  0  0  0  0  0  0  0  0  0
    8.1890   -0.7180   20.8700 N   0  0  0  0  0  0  0  0  0  0  0  0
    9.4560    0.1560   22.8130 N   0  0  0  0  0  0  0  0  0  0  0  0
    9.2690    1.4140   20.9380 O   0  0  0  0  0  0  0  0  0  0  0  0
    8.0883   -5.8459   27.8325 O   0  0  0  0  0  0  0  0  0  0  0  0
   15.2322    1.5068   24.1308 H   0  0  0  0  0  0  0  0  0  0  0  0
   13.8473    0.3374   25.8248 H   0  0  0  0  0  0  0  0  0  0  0  0
   14.1503    2.5930   22.1795 H   0  0  0  0  0  0  0  0  0  0  0  0
   11.3889    0.2508   25.5729 H   0  0  0  0  0  0  0  0  0  0  0  0
   11.6930    2.5120   21.9187 H   0  0  0  0  0  0  0  0  0  0  0  0
    8.6905   -2.3533   26.5810 H   0  0  0  0  0  0  0  0  0  0  0  0
    9.9266   -4.3896   22.9917 H   0  0  0  0  0  0  0  0  0  0  0  0
    8.9233   -0.1992   25.4232 H   0  0  0  0  0  0  0  0  0  0  0  0
   10.0650   -2.2330   21.8256 H   0  0  0  0  0  0  0  0  0  0  0  0
    5.6855    0.7074   22.1002 H   0  0  0  0  0  0  0  0  0  0  0  0
    3.6634    2.0034   21.6926 H   0  0  0  0  0  0  0  0  0  0  0  0
    3.0111    2.6563   19.3629 H   0  0  0  0  0  0  0  0  0  0  0  0
    4.4370    1.9522   17.4626 H   0  0  0  0  0  0  0  0  0  0  0  0
   10.8985   -4.3115   26.8085 H   0  0  0  0  0  0  0  0  0  0  0  0
   10.4915   -6.0334   26.6323 H   0  0  0  0  0  0  0  0  0  0  0  0
    8.4327   -6.6456   25.2620 H   0  0  0  0  0  0  0  0  0  0  0  0
    7.4725   -5.3241   24.5619 H   0  0  0  0  0  0  0  0  0  0  0  0
    9.7636   -5.2398   28.8419 H   0  0  0  0  0  0  0  0  0  0  0  0
    8.8236   -3.9268   28.1248 H   0  0  0  0  0  0  0  0  0  0  0  0
    6.8339   -4.5337   26.8232 H   0  0  0  0  0  0  0  0  0  0  0  0
    6.4550   -6.2521   26.6643 H   0  0  0  0  0  0  0  0  0  0  0  0
    9.3974    1.2912   24.5523 H   0  0  0  0  0  0  0  0  0  0  0  0
    9.5159    2.2168   23.0553 H   0  0  0  0  0  0  0  0  0  0  0  0
    8.2565   -1.5523   21.1108 H   0  0  0  0  0  0  0  0  0  0  0  0
  1  2  1  0  0  0  0
  1  3  2  0  0  0  0
  2  4  2  0  0  0  0
  3  5  1  0  0  0  0
  4 10  1  0  0  0  0
  5 10  2  0  0  0  0
  6  8  2  0  0  0  0
  6 11  1  0  0  0  0
  7  9  1  0  0  0  0
  7 11  2  0  0  0  0
  8 12  1  0  0  0  0
  9 12  2  0  0  0  0
 10 24  1  0  0  0  0
 11 28  1  0  0  0  0
 12 30  1  0  0  0  0
 13 14  2  0  0  0  0
 13 15  1  0  0  0  0
 13 27  1  0  0  0  0
 14 25  1  0  0  0  0
 14 29  1  0  0  0  0
 15 16  2  0  0  0  0
 16 17  1  0  0  0  0
 17 18  2  0  0  0  0
 18 27  1  0  0  0  0
 19 29  1  0  0  0  0
 19 30  1  0  0  0  0
 19 31  2  0  0  0  0
 20 22  1  0  0  0  0
 20 28  1  0  0  0  0
 21 23  1  0  0  0  0
 21 28  1  0  0  0  0
 22 32  1  0  0  0  0
 23 32  1  0  0  0  0
 24 30  1  0  0  0  0
 25 26  2  0  0  0  0
 26 27  1  0  0  0  0
  1 33  1  0  0  0  0
  2 34  1  0  0  0  0
  3 35  1  0  0  0  0
  4 36  1  0  0  0  0
  5 37  1  0  0  0  0
  6 38  1  0  0  0  0
  7 39  1  0  0  0  0
  8 40  1  0  0  0  0
  9 41  1  0  0  0  0
 15 42  1  0  0  0  0
 16 43  1  0  0  0  0
 17 44  1  0  0  0  0
 18 45  1  0  0  0  0
 20 46  1  0  0  0  0
 20 47  1  0  0  0  0
 21 48  1  0  0  0  0
 21 49  1  0  0  0  0
 22 50  1  0  0  0  0
 22 51  1  0  0  0  0
 23 52  1  0  0  0  0
 23 53  1  0  0  0  0
 24 54  1  0  0  0  0
 24 55  1  0  0  0  0
 29 56  1  0  0  0  0
M  END
> <clash_score>
0

> <docking_score>
-8.906838417053223

$$$$
BENZO_108_1
  -OEChem-08212019523D

 53 57  0     0  0  0  0  0  0999 V2000
    8.9960   -2.3380   25.5320 C   0  0  0  0  0  0  0  0  0  0  0  0
    9.6730   -3.4710   23.5300 C   0  0  0  0  0  0  0  0  0  0  0  0
    9.0720   -1.1280   24.8640 C   0  0  0  0  0  0  0  0  0  0  0  0
    9.7200   -2.2600   22.8630 C   0  0  0  0  0  0  0  0  0  0  0  0
   12.2913    1.4279   22.6355 C   0  0  0  0  0  0  0  0  0  0  0  0
   13.6024    1.4662   23.0564 C   0  0  0  0  0  0  0  0  0  0  0  0
   12.0284    1.3764   24.9443 C   0  0  0  0  0  0  0  0  0  0  0  0
   11.3794    1.3761   23.7290 C   0  0  0  0  0  0  0  0  0  0  0  0
    9.3070   -3.5340   24.8780 C   0  0  0  0  0  0  0  0  0  0  0  0
    9.3350   -1.0880   23.5010 C   0  0  0  0  0  0  0  0  0  0  0  0
    6.1790    0.5730   19.9990 C   0  0  0  0  0  0  0  0  0  0  0  0
    7.3170   -0.1610   19.8550 C   0  0  0  0  0  0  0  0  0  0  0  0
    5.4210    0.9600   21.0930 C   0  0  0  0  0  0  0  0  0  0  0  0
    4.2750    1.7050   20.8490 C   0  0  0  0  0  0  0  0  0  0  0  0
    3.9160    2.0630   19.5520 C   0  0  0  0  0  0  0  0  0  0  0  0
    4.6890    1.6810   18.4640 C   0  0  0  0  0  0  0  0  0  0  0  0
    9.0420    0.3700   21.5280 C   0  0  0  0  0  0  0  0  0  0  0  0
   10.0771   -5.0255   26.7193 C   0  0  0  0  0  0  0  0  0  0  0  0
    8.0927   -5.6195   25.4071 C   0  0  0  0  0  0  0  0  0  0  0  0
    9.1933   -4.9427   27.9592 C   0  0  0  0  0  0  0  0  0  0  0  0
    7.2756   -5.5290   26.6967 C   0  0  0  0  0  0  0  0  0  0  0  0
    9.8870    1.3260   23.5730 C   0  0  0  0  0  0  0  0  0  0  0  0
    7.6390   -0.2680   18.5410 N   0  0  0  0  0  0  0  0  0  0  0  0
    6.7580    0.3810   17.8350 N   0  0  0  0  0  0  0  0  0  0  0  0
    5.8300    0.9190   18.6970 N   0  0  0  0  0  0  0  0  0  0  0  0
    9.2563   -4.7368   25.5413 N   0  0  0  0  0  0  0  0  0  0  0  0
    8.1890   -0.7180   20.8700 N   0  0  0  0  0  0  0  0  0  0  0  0
    9.4560    0.1560   22.8130 N   0  0  0  0  0  0  0  0  0  0  0  0
    9.2690    1.4140   20.9380 O   0  0  0  0  0  0  0  0  0  0  0  0
    8.0883   -5.8459   27.8325 O   0  0  0  0  0  0  0  0  0  0  0  0
   13.7301    1.4394   24.7638 S   0  0  0  0  0  0  0  0  0  0  0  0
    8.6905   -2.3533   26.5810 H   0  0  0  0  0  0  0  0  0  0  0  0
    9.9266   -4.3896   22.9917 H   0  0  0  0  0  0  0  0  0  0  0  0
    8.9233   -0.1992   25.4232 H   0  0  0  0  0  0  0  0  0  0  0  0
   10.0650   -2.2330   21.8256 H   0  0  0  0  0  0  0  0  0  0  0  0
   12.0045    1.4365   21.5915 H   0  0  0  0  0  0  0  0  0  0  0  0
   14.4914    1.5078   22.4431 H   0  0  0  0  0  0  0  0  0  0  0  0
   11.5886    1.3416   25.9314 H   0  0  0  0  0  0  0  0  0  0  0  0
    5.6855    0.7074   22.1002 H   0  0  0  0  0  0  0  0  0  0  0  0
    3.6634    2.0034   21.6926 H   0  0  0  0  0  0  0  0  0  0  0  0
    3.0111    2.6563   19.3629 H   0  0  0  0  0  0  0  0  0  0  0  0
    4.4370    1.9522   17.4626 H   0  0  0  0  0  0  0  0  0  0  0  0
   10.8985   -4.3115   26.8085 H   0  0  0  0  0  0  0  0  0  0  0  0
   10.4915   -6.0334   26.6323 H   0  0  0  0  0  0  0  0  0  0  0  0
    8.4327   -6.6456   25.2620 H   0  0  0  0  0  0  0  0  0  0  0  0
    7.4725   -5.3241   24.5619 H   0  0  0  0  0  0  0  0  0  0  0  0
    9.7636   -5.2398   28.8419 H   0  0  0  0  0  0  0  0  0  0  0  0
    8.8236   -3.9268   28.1248 H   0  0  0  0  0  0  0  0  0  0  0  0
    6.8339   -4.5337   26.8232 H   0  0  0  0  0  0  0  0  0  0  0  0
    6.4550   -6.2521   26.6643 H   0  0  0  0  0  0  0  0  0  0  0  0
    9.3974    1.2912   24.5523 H   0  0  0  0  0  0  0  0  0  0  0  0
    9.5159    2.2168   23.0553 H   0  0  0  0  0  0  0  0  0  0  0  0
    8.2565   -1.5523   21.1108 H   0  0  0  0  0  0  0  0  0  0  0  0
  1  3  2  0  0  0  0
  1  9  1  0  0  0  0
  2  4  1  0  0  0  0
  2  9  2  0  0  0  0
  3 10  1  0  0  0  0
  4 10  2  0  0  0  0
  5  6  2  0  0  0  0
  5  8  1  0  0  0  0
  6 31  1  0  0  0  0
  7  8  2  0  0  0  0
  7 31  1  0  0  0  0
  8 22  1  0  0  0  0
  9 26  1  0  0  0  0
 10 28  1  0  0  0  0
 11 12  2  0  0  0  0
 11 13  1  0  0  0  0
 11 25  1  0  0  0  0
 12 23  1  0  0  0  0
 12 27  1  0  0  0  0
 13 14  2  0  0  0  0
 14 15  1  0  0  0  0
 15 16  2  0  0  0  0
 16 25  1  0  0  0  0
 17 27  1  0  0  0  0
 17 28  1  0  0  0  0
 17 29  2  0  0  0  0
 18 20  1  0  0  0  0
 18 26  1  0  0  0  0
 19 21  1  0  0  0  0
 19 26  1  0  0  0  0
 20 30  1  0  0  0  0
 21 30  1  0  0  0  0
 22 28  1  0  0  0  0
 23 24  2  0  0  0  0
 24 25  1  0  0  0  0
  1 32  1  0  0  0  0
  2 33  1  0  0  0  0
  3 34  1  0  0  0  0
  4 35  1  0  0  0  0
  5 36  1  0  0  0  0
  6 37  1  0  0  0  0
  7 38  1  0  0  0  0
 13 39  1  0  0  0  0
 14 40  1  0  0  0  0
 15 41  1  0  0  0  0
 16 42  1  0  0  0  0
 18 43  1  0  0  0  0
 18 44  1  0  0  0  0
 19 45  1  0  0  0  0
 19 46  1  0  0  0  0
 20 47  1  0  0  0  0
 20 48  1  0  0  0  0
 21 49  1  0  0  0  0
 21 50  1  0  0  0  0
 22 51  1  0  0  0  0
 22 52  1  0  0  0  0
 27 53  1  0  0  0  0
M  END
> <clash_score>
0

> <docking_score>
-8.985701560974121

$$$$
BENZO_111_1
  -OEChem-08212019523D

 56 60  0     0  0  0  0  0  0999 V2000
    8.9960   -2.3380   25.5320 C   0  0  0  0  0  0  0  0  0  0  0  0
    9.6730   -3.4710   23.5300 C   0  0  0  0  0  0  0  0  0  0  0  0
    9.0720   -1.1280   24.8640 C   0  0  0  0  0  0  0  0  0  0  0  0
    9.7200   -2.2600   22.8630 C   0  0  0  0  0  0  0  0  0  0  0  0
   12.1233    1.3811   24.9242 C   0  0  0  0  0  0  0  0  0  0  0  0
   12.3261    1.4247   22.7351 C   0  0  0  0  0  0  0  0  0  0  0  0
   11.3794    1.3761   23.7290 C   0  0  0  0  0  0  0  0  0  0  0  0
    9.3070   -3.5340   24.8780 C   0  0  0  0  0  0  0  0  0  0  0  0
    9.3350   -1.0880   23.5010 C   0  0  0  0  0  0  0  0  0  0  0  0
    6.1790    0.5730   19.9990 C   0  0  0  0  0  0  0  0  0  0  0  0
    7.3170   -0.1610   19.8550 C   0  0  0  0  0  0  0  0  0  0  0  0
    5.4210    0.9600   21.0930 C   0  0  0  0  0  0  0  0  0  0  0  0
    4.2750    1.7050   20.8490 C   0  0  0  0  0  0  0  0  0  0  0  0
    3.9160    2.0630   19.5520 C   0  0  0  0  0  0  0  0  0  0  0  0
    4.6890    1.6810   18.4640 C   0  0  0  0  0  0  0  0  0  0  0  0
    9.0420    0.3700   21.5280 C   0  0  0  0  0  0  0  0  0  0  0  0
   10.0771   -5.0255   26.7193 C   0  0  0  0  0  0  0  0  0  0  0  0
    8.0927   -5.6195   25.4071 C   0  0  0  0  0  0  0  0  0  0  0  0
    9.1933   -4.9427   27.9592 C   0  0  0  0  0  0  0  0  0  0  0  0
    7.2756   -5.5290   26.6967 C   0  0  0  0  0  0  0  0  0  0  0  0
   14.8305    1.5084   22.7418 C   0  0  0  0  0  0  0  0  0  0  0  0
    9.8870    1.3260   23.5730 C   0  0  0  0  0  0  0  0  0  0  0  0
   13.4410    1.4289   24.7112 N   0  0  0  0  0  0  0  0  0  0  0  0
    7.6390   -0.2680   18.5410 N   0  0  0  0  0  0  0  0  0  0  0  0
    6.7580    0.3810   17.8350 N   0  0  0  0  0  0  0  0  0  0  0  0
   13.5326    1.4543   23.3707 N   0  0  0  0  0  0  0  0  0  0  0  0
    5.8300    0.9190   18.6970 N   0  0  0  0  0  0  0  0  0  0  0  0
    9.2563   -4.7368   25.5413 N   0  0  0  0  0  0  0  0  0  0  0  0
    8.1890   -0.7180   20.8700 N   0  0  0  0  0  0  0  0  0  0  0  0
    9.4560    0.1560   22.8130 N   0  0  0  0  0  0  0  0  0  0  0  0
    9.2690    1.4140   20.9380 O   0  0  0  0  0  0  0  0  0  0  0  0
    8.0883   -5.8459   27.8325 O   0  0  0  0  0  0  0  0  0  0  0  0
    8.6905   -2.3533   26.5810 H   0  0  0  0  0  0  0  0  0  0  0  0
    9.9266   -4.3896   22.9917 H   0  0  0  0  0  0  0  0  0  0  0  0
    8.9233   -0.1992   25.4232 H   0  0  0  0  0  0  0  0  0  0  0  0
   10.0650   -2.2330   21.8256 H   0  0  0  0  0  0  0  0  0  0  0  0
   11.7624    1.3510   25.9426 H   0  0  0  0  0  0  0  0  0  0  0  0
   12.2462    1.4390   21.6566 H   0  0  0  0  0  0  0  0  0  0  0  0
    5.6855    0.7074   22.1002 H   0  0  0  0  0  0  0  0  0  0  0  0
    3.6634    2.0034   21.6926 H   0  0  0  0  0  0  0  0  0  0  0  0
    3.0111    2.6563   19.3629 H   0  0  0  0  0  0  0  0  0  0  0  0
    4.4370    1.9522   17.4626 H   0  0  0  0  0  0  0  0  0  0  0  0
   10.8985   -4.3115   26.8085 H   0  0  0  0  0  0  0  0  0  0  0  0
   10.4915   -6.0334   26.6323 H   0  0  0  0  0  0  0  0  0  0  0  0
    8.4327   -6.6456   25.2620 H   0  0  0  0  0  0  0  0  0  0  0  0
    7.4725   -5.3241   24.5619 H   0  0  0  0  0  0  0  0  0  0  0  0
    9.7636   -5.2398   28.8419 H   0  0  0  0  0  0  0  0  0  0  0  0
    8.8236   -3.9268   28.1248 H   0  0  0  0  0  0  0  0  0  0  0  0
    6.8339   -4.5337   26.8232 H   0  0  0  0  0  0  0  0  0  0  0  0
    6.4550   -6.2521   26.6643 H   0  0  0  0  0  0  0  0  0  0  0  0
   15.0990    2.5601   22.6124 H   0  0  0  0  0  0  0  0  0  0  0  0
   15.5636    1.0018   23.3756 H   0  0  0  0  0  0  0  0  0  0  0  0
   14.7841    1.0025   21.7733 H   0  0  0  0  0  0  0  0  0  0  0  0
    9.3974    1.2912   24.5523 H   0  0  0  0  0  0  0  0  0  0  0  0
    9.5159    2.2168   23.0553 H   0  0  0  0  0  0  0  0  0  0  0  0
    8.2565   -1.5523   21.1108 H   0  0  0  0  0  0  0  0  0  0  0  0
  1  3  2  0  0  0  0
  1  8  1  0  0  0  0
  2  4  1  0  0  0  0
  2  8  2  0  0  0  0
  3  9  1  0  0  0  0
  4  9  2  0  0  0  0
  5  7  1  0  0  0  0
  5 23  2  0  0  0  0
  6  7  2  0  0  0  0
  6 26  1  0  0  0  0
  7 22  1  0  0  0  0
  8 28  1  0  0  0  0
  9 30  1  0  0  0  0
 10 11  2  0  0  0  0
 10 12  1  0  0  0  0
 10 27  1  0  0  0  0
 11 24  1  0  0  0  0
 11 29  1  0  0  0  0
 12 13  2  0  0  0  0
 13 14  1  0  0  0  0
 14 15  2  0  0  0  0
 15 27  1  0  0  0  0
 16 29  1  0  0  0  0
 16 30  1  0  0  0  0
 16 31  2  0  0  0  0
 17 19  1  0  0  0  0
 17 28  1  0  0  0  0
 18 20  1  0  0  0  0
 18 28  1  0  0  0  0
 19 32  1  0  0  0  0
 20 32  1  0  0  0  0
 21 26  1  0  0  0  0
 22 30  1  0  0  0  0
 23 26  1  0  0  0  0
 24 25  2  0  0  0  0
 25 27  1  0  0  0  0
  1 33  1  0  0  0  0
  2 34  1  0  0  0  0
  3 35  1  0  0  0  0
  4 36  1  0  0  0  0
  5 37  1  0  0  0  0
  6 38  1  0  0  0  0
 12 39  1  0  0  0  0
 13 40  1  0  0  0  0
 14 41  1  0  0  0  0
 15 42  1  0  0  0  0
 17 43  1  0  0  0  0
 17 44  1  0  0  0  0
 18 45  1  0  0  0  0
 18 46  1  0  0  0  0
 19 47  1  0  0  0  0
 19 48  1  0  0  0  0
 20 49  1  0  0  0  0
 20 50  1  0  0  0  0
 21 51  1  0  0  0  0
 21 52  1  0  0  0  0
 21 53  1  0  0  0  0
 22 54  1  0  0  0  0
 22 55  1  0  0  0  0
 29 56  1  0  0  0  0
M  END
> <clash_score>
0

> <docking_score>
-8.622979164123535

$$$$
BENZO_110_1
  -OEChem-08212019523D

 56 60  0     0  0  0  0  0  0999 V2000
    6.4089    2.0844   24.8766 C   0  0  0  0  0  0  0  0  0  0  0  0
    7.4847    1.4191   24.2887 C   0  0  0  0  0  0  0  0  0  0  0  0
    8.9960   -2.3380   25.5320 C   0  0  0  0  0  0  0  0  0  0  0  0
    9.6730   -3.4710   23.5300 C   0  0  0  0  0  0  0  0  0  0  0  0
    9.0720   -1.1280   24.8640 C   0  0  0  0  0  0  0  0  0  0  0  0
    9.7200   -2.2600   22.8630 C   0  0  0  0  0  0  0  0  0  0  0  0
    6.5777    3.3741   25.3805 C   0  0  0  0  0  0  0  0  0  0  0  0
    8.8980    3.3330   24.7088 C   0  0  0  0  0  0  0  0  0  0  0  0
    8.7292    2.0433   24.2048 C   0  0  0  0  0  0  0  0  0  0  0  0
    9.3070   -3.5340   24.8780 C   0  0  0  0  0  0  0  0  0  0  0  0
    9.3350   -1.0880   23.5010 C   0  0  0  0  0  0  0  0  0  0  0  0
    7.8222    3.9984   25.2966 C   0  0  0  0  0  0  0  0  0  0  0  0
    6.1790    0.5730   19.9990 C   0  0  0  0  0  0  0  0  0  0  0  0
    7.3170   -0.1610   19.8550 C   0  0  0  0  0  0  0  0  0  0  0  0
    5.4210    0.9600   21.0930 C   0  0  0  0  0  0  0  0  0  0  0  0
    4.2750    1.7050   20.8490 C   0  0  0  0  0  0  0  0  0  0  0  0
    3.9160    2.0630   19.5520 C   0  0  0  0  0  0  0  0  0  0  0  0
    4.6890    1.6810   18.4640 C   0  0  0  0  0  0  0  0  0  0  0  0
    9.0420    0.3700   21.5280 C   0  0  0  0  0  0  0  0  0  0  0  0
    9.5175   -4.8597   26.9771 C   0  0  0  0  0  0  0  0  0  0  0  0
    8.5165   -5.8725   24.9808 C   0  0  0  0  0  0  0  0  0  0  0  0
    8.1868   -5.0439   27.6987 C   0  0  0  0  0  0  0  0  0  0  0  0
    7.2200   -6.0347   25.7755 C   0  0  0  0  0  0  0  0  0  0  0  0
    9.8870    1.3260   23.5730 C   0  0  0  0  0  0  0  0  0  0  0  0
    7.6390   -0.2680   18.5410 N   0  0  0  0  0  0  0  0  0  0  0  0
    6.7580    0.3810   17.8350 N   0  0  0  0  0  0  0  0  0  0  0  0
    5.8300    0.9190   18.6970 N   0  0  0  0  0  0  0  0  0  0  0  0
    9.2563   -4.7368   25.5413 N   0  0  0  0  0  0  0  0  0  0  0  0
    8.1890   -0.7180   20.8700 N   0  0  0  0  0  0  0  0  0  0  0  0
    9.4560    0.1560   22.8130 N   0  0  0  0  0  0  0  0  0  0  0  0
    9.2690    1.4140   20.9380 O   0  0  0  0  0  0  0  0  0  0  0  0
    7.4994   -6.1853   27.1719 O   0  0  0  0  0  0  0  0  0  0  0  0
    8.0301    5.5891   25.9196 Cl  0  0  0  0  0  0  0  0  0  0  0  0
    5.4400    1.5979   24.9418 H   0  0  0  0  0  0  0  0  0  0  0  0
    7.3441    0.4143   23.8988 H   0  0  0  0  0  0  0  0  0  0  0  0
    8.6905   -2.3533   26.5810 H   0  0  0  0  0  0  0  0  0  0  0  0
    9.9266   -4.3896   22.9917 H   0  0  0  0  0  0  0  0  0  0  0  0
    8.9233   -0.1992   25.4232 H   0  0  0  0  0  0  0  0  0  0  0  0
   10.0650   -2.2330   21.8256 H   0  0  0  0  0  0  0  0  0  0  0  0
    5.7304    3.8806   25.8363 H   0  0  0  0  0  0  0  0  0  0  0  0
    9.8703    3.8156   24.6405 H   0  0  0  0  0  0  0  0  0  0  0  0
    5.6855    0.7074   22.1002 H   0  0  0  0  0  0  0  0  0  0  0  0
    3.6634    2.0034   21.6926 H   0  0  0  0  0  0  0  0  0  0  0  0
    3.0111    2.6563   19.3629 H   0  0  0  0  0  0  0  0  0  0  0  0
    4.4370    1.9522   17.4626 H   0  0  0  0  0  0  0  0  0  0  0  0
   10.0205   -3.9698   27.3609 H   0  0  0  0  0  0  0  0  0  0  0  0
   10.1535   -5.7310   27.1549 H   0  0  0  0  0  0  0  0  0  0  0  0
    9.1181   -6.7773   25.0755 H   0  0  0  0  0  0  0  0  0  0  0  0
    8.2812   -5.7064   23.9305 H   0  0  0  0  0  0  0  0  0  0  0  0
    8.3629   -5.2252   28.7611 H   0  0  0  0  0  0  0  0  0  0  0  0
    7.5530   -4.1570   27.6103 H   0  0  0  0  0  0  0  0  0  0  0  0
    6.5459   -5.1839   25.6221 H   0  0  0  0  0  0  0  0  0  0  0  0
    6.6948   -6.9354   25.4436 H   0  0  0  0  0  0  0  0  0  0  0  0
   10.4274    1.9911   22.8906 H   0  0  0  0  0  0  0  0  0  0  0  0
   10.6011    0.9882   24.3313 H   0  0  0  0  0  0  0  0  0  0  0  0
    8.2565   -1.5523   21.1108 H   0  0  0  0  0  0  0  0  0  0  0  0
  1  2  2  0  0  0  0
  1  7  1  0  0  0  0
  2  9  1  0  0  0  0
  3  5  2  0  0  0  0
  3 10  1  0  0  0  0
  4  6  1  0  0  0  0
  4 10  2  0  0  0  0
  5 11  1  0  0  0  0
  6 11  2  0  0  0  0
  7 12  2  0  0  0  0
  8  9  2  0  0  0  0
  8 12  1  0  0  0  0
  9 24  1  0  0  0  0
 10 28  1  0  0  0  0
 11 30  1  0  0  0  0
 12 33  1  0  0  0  0
 13 14  2  0  0  0  0
 13 15  1  0  0  0  0
 13 27  1  0  0  0  0
 14 25  1  0  0  0  0
 14 29  1  0  0  0  0
 15 16  2  0  0  0  0
 16 17  1  0  0  0  0
 17 18  2  0  0  0  0
 18 27  1  0  0  0  0
 19 29  1  0  0  0  0
 19 30  1  0  0  0  0
 19 31  2  0  0  0  0
 20 22  1  0  0  0  0
 20 28  1  0  0  0  0
 21 23  1  0  0  0  0
 21 28  1  0  0  0  0
 22 32  1  0  0  0  0
 23 32  1  0  0  0  0
 24 30  1  0  0  0  0
 25 26  2  0  0  0  0
 26 27  1  0  0  0  0
  1 34  1  0  0  0  0
  2 35  1  0  0  0  0
  3 36  1  0  0  0  0
  4 37  1  0  0  0  0
  5 38  1  0  0  0  0
  6 39  1  0  0  0  0
  7 40  1  0  0  0  0
  8 41  1  0  0  0  0
 15 42  1  0  0  0  0
 16 43  1  0  0  0  0
 17 44  1  0  0  0  0
 18 45  1  0  0  0  0
 20 46  1  0  0  0  0
 20 47  1  0  0  0  0
 21 48  1  0  0  0  0
 21 49  1  0  0  0  0
 22 50  1  0  0  0  0
 22 51  1  0  0  0  0
 23 52  1  0  0  0  0
 23 53  1  0  0  0  0
 24 54  1  0  0  0  0
 24 55  1  0  0  0  0
 29 56  1  0  0  0  0
M  END
> <clash_score>
0

> <docking_score>
-8.254964828491211

$$$$
BENZO_112_1
  -OEChem-08212019563D

 50 53  0     0  0  0  0  0  0999 V2000
    4.2750    1.7050   20.8490 C   0  0  0  0  0  0  0  0  0  0  0  0
    3.9160    2.0630   19.5520 C   0  0  0  0  0  0  0  0  0  0  0  0
    5.4210    0.9600   21.0930 C   0  0  0  0  0  0  0  0  0  0  0  0
    4.6890    1.6810   18.4640 C   0  0  0  0  0  0  0  0  0  0  0  0
    9.0720   -1.1280   24.8640 C   0  0  0  0  0  0  0  0  0  0  0  0
    9.7200   -2.2600   22.8630 C   0  0  0  0  0  0  0  0  0  0  0  0
    8.9960   -2.3380   25.5320 C   0  0  0  0  0  0  0  0  0  0  0  0
    9.6730   -3.4710   23.5300 C   0  0  0  0  0  0  0  0  0  0  0  0
   12.2913    1.4279   22.6355 C   0  0  0  0  0  0  0  0  0  0  0  0
    7.6390   -0.2680   18.5410 C   0  0  0  0  0  0  0  0  0  0  0  0
   13.6024    1.4661   23.0564 C   0  0  0  0  0  0  0  0  0  0  0  0
   12.0284    1.3764   24.9443 C   0  0  0  0  0  0  0  0  0  0  0  0
    6.1790    0.5730   19.9990 C   0  0  0  0  0  0  0  0  0  0  0  0
   11.3794    1.3761   23.7290 C   0  0  0  0  0  0  0  0  0  0  0  0
    5.8300    0.9190   18.6970 C   0  0  0  0  0  0  0  0  0  0  0  0
    9.3350   -1.0880   23.5010 C   0  0  0  0  0  0  0  0  0  0  0  0
    9.3070   -3.5340   24.8780 C   0  0  0  0  0  0  0  0  0  0  0  0
    7.3170   -0.1610   19.8550 C   0  0  0  0  0  0  0  0  0  0  0  0
    9.0420    0.3700   21.5280 C   0  0  0  0  0  0  0  0  0  0  0  0
    8.0128   -5.2151   26.1416 C   0  0  0  0  0  0  0  0  0  0  0  0
   10.4372   -5.5860   25.6589 C   0  0  0  0  0  0  0  0  0  0  0  0
    9.8870    1.3260   23.5730 C   0  0  0  0  0  0  0  0  0  0  0  0
    6.7580    0.3810   17.8350 N   0  0  0  0  0  0  0  0  0  0  0  0
    8.1890   -0.7180   20.8700 N   0  0  0  0  0  0  0  0  0  0  0  0
    9.4560    0.1560   22.8130 N   0  0  0  0  0  0  0  0  0  0  0  0
    9.2543   -4.7552   25.5519 N   0  0  0  0  0  0  0  0  0  0  0  0
    9.2690    1.4140   20.9380 O   0  0  0  0  0  0  0  0  0  0  0  0
   13.7301    1.4394   24.7638 S   0  0  0  0  0  0  0  0  0  0  0  0
    3.6453    2.0152   21.6831 H   0  0  0  0  0  0  0  0  0  0  0  0
    3.0147    2.6520   19.3913 H   0  0  0  0  0  0  0  0  0  0  0  0
    5.6991    0.6995   22.1042 H   0  0  0  0  0  0  0  0  0  0  0  0
    4.4051    1.9733   17.4488 H   0  0  0  0  0  0  0  0  0  0  0  0
    8.9217   -0.1995   25.4232 H   0  0  0  0  0  0  0  0  0  0  0  0
   10.0643   -2.2341   21.8254 H   0  0  0  0  0  0  0  0  0  0  0  0
    8.6893   -2.3540   26.5808 H   0  0  0  0  0  0  0  0  0  0  0  0
    9.9257   -4.3898   22.9921 H   0  0  0  0  0  0  0  0  0  0  0  0
   12.0045    1.4365   21.5915 H   0  0  0  0  0  0  0  0  0  0  0  0
    8.4825   -0.7940   18.0623 H   0  0  0  0  0  0  0  0  0  0  0  0
   14.4914    1.5078   22.4431 H   0  0  0  0  0  0  0  0  0  0  0  0
   11.5886    1.3416   25.9314 H   0  0  0  0  0  0  0  0  0  0  0  0
    8.1744   -6.1904   26.6238 H   0  0  0  0  0  0  0  0  0  0  0  0
    7.6718   -4.4870   26.8924 H   0  0  0  0  0  0  0  0  0  0  0  0
    7.2494   -5.3166   25.3561 H   0  0  0  0  0  0  0  0  0  0  0  0
   10.1946   -6.4996   26.2216 H   0  0  0  0  0  0  0  0  0  0  0  0
   10.7865   -5.8578   24.6518 H   0  0  0  0  0  0  0  0  0  0  0  0
   11.2285   -5.0312   26.1842 H   0  0  0  0  0  0  0  0  0  0  0  0
    9.3974    1.2912   24.5523 H   0  0  0  0  0  0  0  0  0  0  0  0
    9.5159    2.2168   23.0553 H   0  0  0  0  0  0  0  0  0  0  0  0
    6.7266    0.4930   16.8305 H   0  0  0  0  0  0  0  0  0  0  0  0
    8.2383   -1.5634   21.0944 H   0  0  0  0  0  0  0  0  0  0  0  0
  1  2  1  0  0  0  0
  1  3  2  0  0  0  0
  2  4  2  0  0  0  0
  3 13  1  0  0  0  0
  4 15  1  0  0  0  0
  5  7  2  0  0  0  0
  5 16  1  0  0  0  0
  6  8  1  0  0  0  0
  6 16  2  0  0  0  0
  7 17  1  0  0  0  0
  8 17  2  0  0  0  0
  9 11  2  0  0  0  0
  9 14  1  0  0  0  0
 10 18  2  0  0  0  0
 10 23  1  0  0  0  0
 11 28  1  0  0  0  0
 12 14  2  0  0  0  0
 12 28  1  0  0  0  0
 13 15  2  0  0  0  0
 13 18  1  0  0  0  0
 14 22  1  0  0  0  0
 15 23  1  0  0  0  0
 16 25  1  0  0  0  0
 17 26  1  0  0  0  0
 18 24  1  0  0  0  0
 19 24  1  0  0  0  0
 19 25  1  0  0  0  0
 19 27  2  0  0  0  0
 20 26  1  0  0  0  0
 21 26  1  0  0  0  0
 22 25  1  0  0  0  0
  1 29  1  0  0  0  0
  2 30  1  0  0  0  0
  3 31  1  0  0  0  0
  4 32  1  0  0  0  0
  5 33  1  0  0  0  0
  6 34  1  0  0  0  0
  7 35  1  0  0  0  0
  8 36  1  0  0  0  0
  9 37  1  0  0  0  0
 10 38  1  0  0  0  0
 11 39  1  0  0  0  0
 12 40  1  0  0  0  0
 20 41  1  0  0  0  0
 20 42  1  0  0  0  0
 20 43  1  0  0  0  0
 21 44  1  0  0  0  0
 21 45  1  0  0  0  0
 21 46  1  0  0  0  0
 22 47  1  0  0  0  0
 22 48  1  0  0  0  0
 23 49  1  0  0  0  0
 24 50  1  0  0  0  0
M  END
> <clash_score>
0

> <docking_score>
-9.015729904174805

$$$$
BENZO_113_1
  -OEChem-08212019563D

 53 56  0     0  0  0  0  0  0999 V2000
   14.1526    1.4694   24.0176 C   0  0  0  0  0  0  0  0  0  0  0  0
    4.2750    1.7050   20.8490 C   0  0  0  0  0  0  0  0  0  0  0  0
   13.3741    0.8121   24.9701 C   0  0  0  0  0  0  0  0  0  0  0  0
   13.5446    2.0802   22.9208 C   0  0  0  0  0  0  0  0  0  0  0  0
    3.9160    2.0630   19.5520 C   0  0  0  0  0  0  0  0  0  0  0  0
    5.4210    0.9600   21.0930 C   0  0  0  0  0  0  0  0  0  0  0  0
   11.9875    0.7654   24.8258 C   0  0  0  0  0  0  0  0  0  0  0  0
   12.1580    2.0335   22.7765 C   0  0  0  0  0  0  0  0  0  0  0  0
    4.6890    1.6810   18.4640 C   0  0  0  0  0  0  0  0  0  0  0  0
    9.0720   -1.1280   24.8640 C   0  0  0  0  0  0  0  0  0  0  0  0
    9.7200   -2.2600   22.8630 C   0  0  0  0  0  0  0  0  0  0  0  0
    8.9960   -2.3380   25.5320 C   0  0  0  0  0  0  0  0  0  0  0  0
    9.6730   -3.4710   23.5300 C   0  0  0  0  0  0  0  0  0  0  0  0
    7.6390   -0.2680   18.5410 C   0  0  0  0  0  0  0  0  0  0  0  0
    6.1790    0.5730   19.9990 C   0  0  0  0  0  0  0  0  0  0  0  0
   11.3794    1.3761   23.7290 C   0  0  0  0  0  0  0  0  0  0  0  0
    5.8300    0.9190   18.6970 C   0  0  0  0  0  0  0  0  0  0  0  0
    9.3350   -1.0880   23.5010 C   0  0  0  0  0  0  0  0  0  0  0  0
    9.3070   -3.5340   24.8780 C   0  0  0  0  0  0  0  0  0  0  0  0
    7.3170   -0.1610   19.8550 C   0  0  0  0  0  0  0  0  0  0  0  0
    9.0420    0.3700   21.5280 C   0  0  0  0  0  0  0  0  0  0  0  0
    8.0128   -5.2151   26.1416 C   0  0  0  0  0  0  0  0  0  0  0  0
   10.4372   -5.5860   25.6589 C   0  0  0  0  0  0  0  0  0  0  0  0
    9.8870    1.3260   23.5730 C   0  0  0  0  0  0  0  0  0  0  0  0
    6.7580    0.3810   17.8350 N   0  0  0  0  0  0  0  0  0  0  0  0
    8.1890   -0.7180   20.8700 N   0  0  0  0  0  0  0  0  0  0  0  0
    9.4560    0.1560   22.8130 N   0  0  0  0  0  0  0  0  0  0  0  0
    9.2543   -4.7552   25.5519 N   0  0  0  0  0  0  0  0  0  0  0  0
    9.2690    1.4140   20.9380 O   0  0  0  0  0  0  0  0  0  0  0  0
   15.2322    1.5068   24.1308 H   0  0  0  0  0  0  0  0  0  0  0  0
    3.6453    2.0152   21.6831 H   0  0  0  0  0  0  0  0  0  0  0  0
   13.8473    0.3374   25.8248 H   0  0  0  0  0  0  0  0  0  0  0  0
   14.1503    2.5930   22.1795 H   0  0  0  0  0  0  0  0  0  0  0  0
    3.0147    2.6520   19.3913 H   0  0  0  0  0  0  0  0  0  0  0  0
    5.6991    0.6995   22.1042 H   0  0  0  0  0  0  0  0  0  0  0  0
   11.3889    0.2508   25.5729 H   0  0  0  0  0  0  0  0  0  0  0  0
   11.6930    2.5120   21.9187 H   0  0  0  0  0  0  0  0  0  0  0  0
    4.4051    1.9733   17.4488 H   0  0  0  0  0  0  0  0  0  0  0  0
    8.9217   -0.1995   25.4232 H   0  0  0  0  0  0  0  0  0  0  0  0
   10.0643   -2.2341   21.8254 H   0  0  0  0  0  0  0  0  0  0  0  0
    8.6893   -2.3540   26.5808 H   0  0  0  0  0  0  0  0  0  0  0  0
    9.9257   -4.3898   22.9921 H   0  0  0  0  0  0  0  0  0  0  0  0
    8.4825   -0.7940   18.0623 H   0  0  0  0  0  0  0  0  0  0  0  0
    8.1744   -6.1904   26.6238 H   0  0  0  0  0  0  0  0  0  0  0  0
    7.6718   -4.4870   26.8924 H   0  0  0  0  0  0  0  0  0  0  0  0
    7.2494   -5.3166   25.3561 H   0  0  0  0  0  0  0  0  0  0  0  0
   10.1946   -6.4996   26.2216 H   0  0  0  0  0  0  0  0  0  0  0  0
   10.7865   -5.8578   24.6518 H   0  0  0  0  0  0  0  0  0  0  0  0
   11.2285   -5.0312   26.1842 H   0  0  0  0  0  0  0  0  0  0  0  0
    9.3974    1.2912   24.5523 H   0  0  0  0  0  0  0  0  0  0  0  0
    9.5159    2.2168   23.0553 H   0  0  0  0  0  0  0  0  0  0  0  0
    6.7266    0.4930   16.8305 H   0  0  0  0  0  0  0  0  0  0  0  0
    8.2383   -1.5634   21.0944 H   0  0  0  0  0  0  0  0  0  0  0  0
  1  3  1  0  0  0  0
  1  4  2  0  0  0  0
  2  5  1  0  0  0  0
  2  6  2  0  0  0  0
  3  7  2  0  0  0  0
  4  8  1  0  0  0  0
  5  9  2  0  0  0  0
  6 15  1  0  0  0  0
  7 16  1  0  0  0  0
  8 16  2  0  0  0  0
  9 17  1  0  0  0  0
 10 12  2  0  0  0  0
 10 18  1  0  0  0  0
 11 13  1  0  0  0  0
 11 18  2  0  0  0  0
 12 19  1  0  0  0  0
 13 19  2  0  0  0  0
 14 20  2  0  0  0  0
 14 25  1  0  0  0  0
 15 17  2  0  0  0  0
 15 20  1  0  0  0  0
 16 24  1  0  0  0  0
 17 25  1  0  0  0  0
 18 27  1  0  0  0  0
 19 28  1  0  0  0  0
 20 26  1  0  0  0  0
 21 26  1  0  0  0  0
 21 27  1  0  0  0  0
 21 29  2  0  0  0  0
 22 28  1  0  0  0  0
 23 28  1  0  0  0  0
 24 27  1  0  0  0  0
  1 30  1  0  0  0  0
  2 31  1  0  0  0  0
  3 32  1  0  0  0  0
  4 33  1  0  0  0  0
  5 34  1  0  0  0  0
  6 35  1  0  0  0  0
  7 36  1  0  0  0  0
  8 37  1  0  0  0  0
  9 38  1  0  0  0  0
 10 39  1  0  0  0  0
 11 40  1  0  0  0  0
 12 41  1  0  0  0  0
 13 42  1  0  0  0  0
 14 43  1  0  0  0  0
 22 44  1  0  0  0  0
 22 45  1  0  0  0  0
 22 46  1  0  0  0  0
 23 47  1  0  0  0  0
 23 48  1  0  0  0  0
 23 49  1  0  0  0  0
 24 50  1  0  0  0  0
 24 51  1  0  0  0  0
 25 52  1  0  0  0  0
 26 53  1  0  0  0  0
M  END
> <clash_score>
0

> <docking_score>
-8.936869621276855

$$$$
BENZO_114_1
  -OEChem-08212019563D

 53 56  0     0  0  0  0  0  0999 V2000
    4.2750    1.7050   20.8490 C   0  0  0  0  0  0  0  0  0  0  0  0
    3.9160    2.0630   19.5520 C   0  0  0  0  0  0  0  0  0  0  0  0
    6.4089    2.0844   24.8766 C   0  0  0  0  0  0  0  0  0  0  0  0
    5.4210    0.9600   21.0930 C   0  0  0  0  0  0  0  0  0  0  0  0
    7.4847    1.4191   24.2887 C   0  0  0  0  0  0  0  0  0  0  0  0
    4.6890    1.6810   18.4640 C   0  0  0  0  0  0  0  0  0  0  0  0
    9.0720   -1.1280   24.8640 C   0  0  0  0  0  0  0  0  0  0  0  0
    9.7200   -2.2600   22.8630 C   0  0  0  0  0  0  0  0  0  0  0  0
    8.9960   -2.3380   25.5320 C   0  0  0  0  0  0  0  0  0  0  0  0
    9.6730   -3.4710   23.5300 C   0  0  0  0  0  0  0  0  0  0  0  0
    6.5777    3.3741   25.3805 C   0  0  0  0  0  0  0  0  0  0  0  0
    8.8980    3.3330   24.7088 C   0  0  0  0  0  0  0  0  0  0  0  0
    7.6390   -0.2680   18.5410 C   0  0  0  0  0  0  0  0  0  0  0  0
    6.1790    0.5730   19.9990 C   0  0  0  0  0  0  0  0  0  0  0  0
    8.7292    2.0433   24.2048 C   0  0  0  0  0  0  0  0  0  0  0  0
    5.8300    0.9190   18.6970 C   0  0  0  0  0  0  0  0  0  0  0  0
    9.3350   -1.0880   23.5010 C   0  0  0  0  0  0  0  0  0  0  0  0
    9.3070   -3.5340   24.8780 C   0  0  0  0  0  0  0  0  0  0  0  0
    7.3170   -0.1610   19.8550 C   0  0  0  0  0  0  0  0  0  0  0  0
    7.8222    3.9984   25.2966 C   0  0  0  0  0  0  0  0  0  0  0  0
    9.0420    0.3700   21.5280 C   0  0  0  0  0  0  0  0  0  0  0  0
    8.0128   -5.2151   26.1416 C   0  0  0  0  0  0  0  0  0  0  0  0
   10.4372   -5.5860   25.6589 C   0  0  0  0  0  0  0  0  0  0  0  0
    9.8870    1.3260   23.5730 C   0  0  0  0  0  0  0  0  0  0  0  0
    6.7580    0.3810   17.8350 N   0  0  0  0  0  0  0  0  0  0  0  0
    8.1890   -0.7180   20.8700 N   0  0  0  0  0  0  0  0  0  0  0  0
    9.4560    0.1560   22.8130 N   0  0  0  0  0  0  0  0  0  0  0  0
    9.2543   -4.7552   25.5519 N   0  0  0  0  0  0  0  0  0  0  0  0
    9.2690    1.4140   20.9380 O   0  0  0  0  0  0  0  0  0  0  0  0
    8.0301    5.5891   25.9196 Cl  0  0  0  0  0  0  0  0  0  0  0  0
    3.6453    2.0152   21.6831 H   0  0  0  0  0  0  0  0  0  0  0  0
    3.0147    2.6520   19.3913 H   0  0  0  0  0  0  0  0  0  0  0  0
    5.4400    1.5979   24.9418 H   0  0  0  0  0  0  0  0  0  0  0  0
    5.6991    0.6995   22.1042 H   0  0  0  0  0  0  0  0  0  0  0  0
    7.3441    0.4143   23.8988 H   0  0  0  0  0  0  0  0  0  0  0  0
    4.4051    1.9733   17.4488 H   0  0  0  0  0  0  0  0  0  0  0  0
    8.9217   -0.1995   25.4232 H   0  0  0  0  0  0  0  0  0  0  0  0
   10.0643   -2.2341   21.8254 H   0  0  0  0  0  0  0  0  0  0  0  0
    8.6893   -2.3540   26.5808 H   0  0  0  0  0  0  0  0  0  0  0  0
    9.9257   -4.3898   22.9921 H   0  0  0  0  0  0  0  0  0  0  0  0
    5.7304    3.8806   25.8363 H   0  0  0  0  0  0  0  0  0  0  0  0
    9.8703    3.8156   24.6405 H   0  0  0  0  0  0  0  0  0  0  0  0
    8.4825   -0.7940   18.0623 H   0  0  0  0  0  0  0  0  0  0  0  0
    8.1744   -6.1904   26.6238 H   0  0  0  0  0  0  0  0  0  0  0  0
    7.6718   -4.4870   26.8924 H   0  0  0  0  0  0  0  0  0  0  0  0
    7.2494   -5.3166   25.3561 H   0  0  0  0  0  0  0  0  0  0  0  0
   10.1946   -6.4996   26.2216 H   0  0  0  0  0  0  0  0  0  0  0  0
   10.7865   -5.8578   24.6518 H   0  0  0  0  0  0  0  0  0  0  0  0
   11.2285   -5.0312   26.1842 H   0  0  0  0  0  0  0  0  0  0  0  0
   10.4274    1.9911   22.8906 H   0  0  0  0  0  0  0  0  0  0  0  0
   10.6011    0.9882   24.3313 H   0  0  0  0  0  0  0  0  0  0  0  0
    6.7266    0.4930   16.8305 H   0  0  0  0  0  0  0  0  0  0  0  0
    8.2383   -1.5634   21.0944 H   0  0  0  0  0  0  0  0  0  0  0  0
  1  2  1  0  0  0  0
  1  4  2  0  0  0  0
  2  6  2  0  0  0  0
  3  5  2  0  0  0  0
  3 11  1  0  0  0  0
  4 14  1  0  0  0  0
  5 15  1  0  0  0  0
  6 16  1  0  0  0  0
  7  9  2  0  0  0  0
  7 17  1  0  0  0  0
  8 10  1  0  0  0  0
  8 17  2  0  0  0  0
  9 18  1  0  0  0  0
 10 18  2  0  0  0  0
 11 20  2  0  0  0  0
 12 15  2  0  0  0  0
 12 20  1  0  0  0  0
 13 19  2  0  0  0  0
 13 25  1  0  0  0  0
 14 16  2  0  0  0  0
 14 19  1  0  0  0  0
 15 24  1  0  0  0  0
 16 25  1  0  0  0  0
 17 27  1  0  0  0  0
 18 28  1  0  0  0  0
 19 26  1  0  0  0  0
 20 30  1  0  0  0  0
 21 26  1  0  0  0  0
 21 27  1  0  0  0  0
 21 29  2  0  0  0  0
 22 28  1  0  0  0  0
 23 28  1  0  0  0  0
 24 27  1  0  0  0  0
  1 31  1  0  0  0  0
  2 32  1  0  0  0  0
  3 33  1  0  0  0  0
  4 34  1  0  0  0  0
  5 35  1  0  0  0  0
  6 36  1  0  0  0  0
  7 37  1  0  0  0  0
  8 38  1  0  0  0  0
  9 39  1  0  0  0  0
 10 40  1  0  0  0  0
 11 41  1  0  0  0  0
 12 42  1  0  0  0  0
 13 43  1  0  0  0  0
 22 44  1  0  0  0  0
 22 45  1  0  0  0  0
 22 46  1  0  0  0  0
 23 47  1  0  0  0  0
 23 48  1  0  0  0  0
 23 49  1  0  0  0  0
 24 50  1  0  0  0  0
 24 51  1  0  0  0  0
 25 52  1  0  0  0  0
 26 53  1  0  0  0  0
M  END
> <clash_score>
0

> <docking_score>
-8.32288932800293

$$$$
BENZO_115_1
  -OEChem-08212019563D

 53 56  0     0  0  0  0  0  0999 V2000
    4.2750    1.7050   20.8490 C   0  0  0  0  0  0  0  0  0  0  0  0
    3.9160    2.0630   19.5520 C   0  0  0  0  0  0  0  0  0  0  0  0
    5.4210    0.9600   21.0930 C   0  0  0  0  0  0  0  0  0  0  0  0
    4.6890    1.6810   18.4640 C   0  0  0  0  0  0  0  0  0  0  0  0
    9.0720   -1.1280   24.8640 C   0  0  0  0  0  0  0  0  0  0  0  0
    9.7200   -2.2600   22.8630 C   0  0  0  0  0  0  0  0  0  0  0  0
    8.9960   -2.3380   25.5320 C   0  0  0  0  0  0  0  0  0  0  0  0
    9.6730   -3.4710   23.5300 C   0  0  0  0  0  0  0  0  0  0  0  0
   12.1233    1.3811   24.9242 C   0  0  0  0  0  0  0  0  0  0  0  0
   12.3262    1.4247   22.7351 C   0  0  0  0  0  0  0  0  0  0  0  0
    7.6390   -0.2680   18.5410 C   0  0  0  0  0  0  0  0  0  0  0  0
    6.1790    0.5730   19.9990 C   0  0  0  0  0  0  0  0  0  0  0  0
   11.3794    1.3761   23.7290 C   0  0  0  0  0  0  0  0  0  0  0  0
    5.8300    0.9190   18.6970 C   0  0  0  0  0  0  0  0  0  0  0  0
    9.3350   -1.0880   23.5010 C   0  0  0  0  0  0  0  0  0  0  0  0
    9.3070   -3.5340   24.8780 C   0  0  0  0  0  0  0  0  0  0  0  0
    7.3170   -0.1610   19.8550 C   0  0  0  0  0  0  0  0  0  0  0  0
    9.0420    0.3700   21.5280 C   0  0  0  0  0  0  0  0  0  0  0  0
   14.8305    1.5084   22.7418 C   0  0  0  0  0  0  0  0  0  0  0  0
    8.0128   -5.2151   26.1416 C   0  0  0  0  0  0  0  0  0  0  0  0
   10.4372   -5.5860   25.6589 C   0  0  0  0  0  0  0  0  0  0  0  0
    9.8870    1.3260   23.5730 C   0  0  0  0  0  0  0  0  0  0  0  0
   13.4410    1.4289   24.7112 N   0  0  0  0  0  0  0  0  0  0  0  0
    6.7580    0.3810   17.8350 N   0  0  0  0  0  0  0  0  0  0  0  0
   13.5326    1.4543   23.3706 N   0  0  0  0  0  0  0  0  0  0  0  0
    8.1890   -0.7180   20.8700 N   0  0  0  0  0  0  0  0  0  0  0  0
    9.4560    0.1560   22.8130 N   0  0  0  0  0  0  0  0  0  0  0  0
    9.2543   -4.7552   25.5519 N   0  0  0  0  0  0  0  0  0  0  0  0
    9.2690    1.4140   20.9380 O   0  0  0  0  0  0  0  0  0  0  0  0
    3.6453    2.0152   21.6831 H   0  0  0  0  0  0  0  0  0  0  0  0
    3.0147    2.6520   19.3913 H   0  0  0  0  0  0  0  0  0  0  0  0
    5.6991    0.6995   22.1042 H   0  0  0  0  0  0  0  0  0  0  0  0
    4.4051    1.9733   17.4488 H   0  0  0  0  0  0  0  0  0  0  0  0
    8.9217   -0.1995   25.4232 H   0  0  0  0  0  0  0  0  0  0  0  0
   10.0643   -2.2341   21.8254 H   0  0  0  0  0  0  0  0  0  0  0  0
    8.6893   -2.3540   26.5808 H   0  0  0  0  0  0  0  0  0  0  0  0
    9.9257   -4.3898   22.9921 H   0  0  0  0  0  0  0  0  0  0  0  0
   11.7624    1.3510   25.9426 H   0  0  0  0  0  0  0  0  0  0  0  0
   12.2462    1.4390   21.6566 H   0  0  0  0  0  0  0  0  0  0  0  0
    8.4825   -0.7940   18.0623 H   0  0  0  0  0  0  0  0  0  0  0  0
   15.0990    2.5601   22.6124 H   0  0  0  0  0  0  0  0  0  0  0  0
   15.5636    1.0018   23.3756 H   0  0  0  0  0  0  0  0  0  0  0  0
   14.7841    1.0025   21.7733 H   0  0  0  0  0  0  0  0  0  0  0  0
    8.1744   -6.1904   26.6238 H   0  0  0  0  0  0  0  0  0  0  0  0
    7.6718   -4.4870   26.8924 H   0  0  0  0  0  0  0  0  0  0  0  0
    7.2494   -5.3166   25.3561 H   0  0  0  0  0  0  0  0  0  0  0  0
   10.1946   -6.4996   26.2216 H   0  0  0  0  0  0  0  0  0  0  0  0
   10.7865   -5.8578   24.6518 H   0  0  0  0  0  0  0  0  0  0  0  0
   11.2285   -5.0312   26.1842 H   0  0  0  0  0  0  0  0  0  0  0  0
    9.3974    1.2912   24.5523 H   0  0  0  0  0  0  0  0  0  0  0  0
    9.5159    2.2168   23.0553 H   0  0  0  0  0  0  0  0  0  0  0  0
    6.7266    0.4930   16.8305 H   0  0  0  0  0  0  0  0  0  0  0  0
    8.2383   -1.5634   21.0944 H   0  0  0  0  0  0  0  0  0  0  0  0
  1  2  1  0  0  0  0
  1  3  2  0  0  0  0
  2  4  2  0  0  0  0
  3 12  1  0  0  0  0
  4 14  1  0  0  0  0
  5  7  2  0  0  0  0
  5 15  1  0  0  0  0
  6  8  1  0  0  0  0
  6 15  2  0  0  0  0
  7 16  1  0  0  0  0
  8 16  2  0  0  0  0
  9 13  1  0  0  0  0
  9 23  2  0  0  0  0
 10 13  2  0  0  0  0
 10 25  1  0  0  0  0
 11 17  2  0  0  0  0
 11 24  1  0  0  0  0
 12 14  2  0  0  0  0
 12 17  1  0  0  0  0
 13 22  1  0  0  0  0
 14 24  1  0  0  0  0
 15 27  1  0  0  0  0
 16 28  1  0  0  0  0
 17 26  1  0  0  0  0
 18 26  1  0  0  0  0
 18 27  1  0  0  0  0
 18 29  2  0  0  0  0
 19 25  1  0  0  0  0
 20 28  1  0  0  0  0
 21 28  1  0  0  0  0
 22 27  1  0  0  0  0
 23 25  1  0  0  0  0
  1 30  1  0  0  0  0
  2 31  1  0  0  0  0
  3 32  1  0  0  0  0
  4 33  1  0  0  0  0
  5 34  1  0  0  0  0
  6 35  1  0  0  0  0
  7 36  1  0  0  0  0
  8 37  1  0  0  0  0
  9 38  1  0  0  0  0
 10 39  1  0  0  0  0
 11 40  1  0  0  0  0
 19 41  1  0  0  0  0
 19 42  1  0  0  0  0
 19 43  1  0  0  0  0
 20 44  1  0  0  0  0
 20 45  1  0  0  0  0
 20 46  1  0  0  0  0
 21 47  1  0  0  0  0
 21 48  1  0  0  0  0
 21 49  1  0  0  0  0
 22 50  1  0  0  0  0
 22 51  1  0  0  0  0
 24 52  1  0  0  0  0
 26 53  1  0  0  0  0
M  END
> <clash_score>
0

> <docking_score>
-8.653011322021484

$$$$
BENZO_116_1
  -OEChem-08212019563D

 52 55  0     0  0  0  0  0  0999 V2000
    4.2750    1.7050   20.8490 C   0  0  0  0  0  0  0  0  0  0  0  0
    3.9160    2.0630   19.5520 C   0  0  0  0  0  0  0  0  0  0  0  0
    5.4210    0.9600   21.0930 C   0  0  0  0  0  0  0  0  0  0  0  0
    4.6890    1.6810   18.4640 C   0  0  0  0  0  0  0  0  0  0  0  0
    8.9960   -2.3380   25.5320 C   0  0  0  0  0  0  0  0  0  0  0  0
    9.6730   -3.4710   23.5300 C   0  0  0  0  0  0  0  0  0  0  0  0
    9.0720   -1.1280   24.8640 C   0  0  0  0  0  0  0  0  0  0  0  0
    9.7200   -2.2600   22.8630 C   0  0  0  0  0  0  0  0  0  0  0  0
   12.2913    1.4279   22.6355 C   0  0  0  0  0  0  0  0  0  0  0  0
    7.6390   -0.2680   18.5410 C   0  0  0  0  0  0  0  0  0  0  0  0
   13.6024    1.4661   23.0564 C   0  0  0  0  0  0  0  0  0  0  0  0
   12.0284    1.3764   24.9443 C   0  0  0  0  0  0  0  0  0  0  0  0
    6.1790    0.5730   19.9990 C   0  0  0  0  0  0  0  0  0  0  0  0
   11.3794    1.3761   23.7290 C   0  0  0  0  0  0  0  0  0  0  0  0
    5.8300    0.9190   18.6970 C   0  0  0  0  0  0  0  0  0  0  0  0
    9.3070   -3.5340   24.8780 C   0  0  0  0  0  0  0  0  0  0  0  0
    9.3350   -1.0880   23.5010 C   0  0  0  0  0  0  0  0  0  0  0  0
    7.3170   -0.1610   19.8550 C   0  0  0  0  0  0  0  0  0  0  0  0
    9.5334   -6.0236   25.0414 C   0  0  0  0  0  0  0  0  0  0  0  0
    9.0420    0.3700   21.5280 C   0  0  0  0  0  0  0  0  0  0  0  0
   10.6330   -7.3746   26.8775 C   0  0  0  0  0  0  0  0  0  0  0  0
    9.8870    1.3260   23.5730 C   0  0  0  0  0  0  0  0  0  0  0  0
    9.3523   -7.0865   26.1149 C   0  0  0  0  0  0  0  0  0  0  0  0
    6.7580    0.3810   17.8350 N   0  0  0  0  0  0  0  0  0  0  0  0
    9.2546   -4.7422   25.5438 N   0  0  0  0  0  0  0  0  0  0  0  0
    8.1890   -0.7180   20.8700 N   0  0  0  0  0  0  0  0  0  0  0  0
    9.4560    0.1560   22.8130 N   0  0  0  0  0  0  0  0  0  0  0  0
    9.8806   -6.3053   23.8992 O   0  0  0  0  0  0  0  0  0  0  0  0
    9.2690    1.4140   20.9380 O   0  0  0  0  0  0  0  0  0  0  0  0
   13.7301    1.4394   24.7638 S   0  0  0  0  0  0  0  0  0  0  0  0
    3.6453    2.0152   21.6831 H   0  0  0  0  0  0  0  0  0  0  0  0
    3.0147    2.6520   19.3913 H   0  0  0  0  0  0  0  0  0  0  0  0
    5.6991    0.6995   22.1042 H   0  0  0  0  0  0  0  0  0  0  0  0
    4.4051    1.9733   17.4488 H   0  0  0  0  0  0  0  0  0  0  0  0
    8.6895   -2.3529   26.5807 H   0  0  0  0  0  0  0  0  0  0  0  0
    9.9262   -4.3897   22.9916 H   0  0  0  0  0  0  0  0  0  0  0  0
    8.9224   -0.1998   25.4238 H   0  0  0  0  0  0  0  0  0  0  0  0
   10.0649   -2.2343   21.8258 H   0  0  0  0  0  0  0  0  0  0  0  0
   12.0045    1.4365   21.5915 H   0  0  0  0  0  0  0  0  0  0  0  0
    8.4825   -0.7940   18.0623 H   0  0  0  0  0  0  0  0  0  0  0  0
   14.4914    1.5078   22.4431 H   0  0  0  0  0  0  0  0  0  0  0  0
   11.5886    1.3416   25.9314 H   0  0  0  0  0  0  0  0  0  0  0  0
   11.4241   -7.7171   26.2024 H   0  0  0  0  0  0  0  0  0  0  0  0
   10.4629   -8.1531   27.6277 H   0  0  0  0  0  0  0  0  0  0  0  0
   10.9949   -6.4779   27.3912 H   0  0  0  0  0  0  0  0  0  0  0  0
    9.3974    1.2912   24.5523 H   0  0  0  0  0  0  0  0  0  0  0  0
    9.5159    2.2168   23.0553 H   0  0  0  0  0  0  0  0  0  0  0  0
    8.5795   -6.7463   26.8138 H   0  0  0  0  0  0  0  0  0  0  0  0
    8.9966   -8.0064   25.6367 H   0  0  0  0  0  0  0  0  0  0  0  0
    6.7266    0.4930   16.8305 H   0  0  0  0  0  0  0  0  0  0  0  0
    8.9776   -4.7057   26.5317 H   0  0  0  0  0  0  0  0  0  0  0  0
    8.2383   -1.5634   21.0944 H   0  0  0  0  0  0  0  0  0  0  0  0
  1  2  1  0  0  0  0
  1  3  2  0  0  0  0
  2  4  2  0  0  0  0
  3 13  1  0  0  0  0
  4 15  1  0  0  0  0
  5  7  2  0  0  0  0
  5 16  1  0  0  0  0
  6  8  1  0  0  0  0
  6 16  2  0  0  0  0
  7 17  1  0  0  0  0
  8 17  2  0  0  0  0
  9 11  2  0  0  0  0
  9 14  1  0  0  0  0
 10 18  2  0  0  0  0
 10 24  1  0  0  0  0
 11 30  1  0  0  0  0
 12 14  2  0  0  0  0
 12 30  1  0  0  0  0
 13 15  2  0  0  0  0
 13 18  1  0  0  0  0
 14 22  1  0  0  0  0
 15 24  1  0  0  0  0
 16 25  1  0  0  0  0
 17 27  1  0  0  0  0
 18 26  1  0  0  0  0
 19 23  1  0  0  0  0
 19 25  1  0  0  0  0
 19 28  2  0  0  0  0
 20 26  1  0  0  0  0
 20 27  1  0  0  0  0
 20 29  2  0  0  0  0
 21 23  1  0  0  0  0
 22 27  1  0  0  0  0
  1 31  1  0  0  0  0
  2 32  1  0  0  0  0
  3 33  1  0  0  0  0
  4 34  1  0  0  0  0
  5 35  1  0  0  0  0
  6 36  1  0  0  0  0
  7 37  1  0  0  0  0
  8 38  1  0  0  0  0
  9 39  1  0  0  0  0
 10 40  1  0  0  0  0
 11 41  1  0  0  0  0
 12 42  1  0  0  0  0
 21 43  1  0  0  0  0
 21 44  1  0  0  0  0
 21 45  1  0  0  0  0
 22 46  1  0  0  0  0
 22 47  1  0  0  0  0
 23 48  1  0  0  0  0
 23 49  1  0  0  0  0
 24 50  1  0  0  0  0
 25 51  1  0  0  0  0
 26 52  1  0  0  0  0
M  END
> <clash_score>
1.4986599553670592

> <docking_score>
-5.8214545249938965

$$$$
BENZO_118_1
  -OEChem-08212019563D

 55 58  0     0  0  0  0  0  0999 V2000
    4.2750    1.7050   20.8490 C   0  0  0  0  0  0  0  0  0  0  0  0
    3.9160    2.0630   19.5520 C   0  0  0  0  0  0  0  0  0  0  0  0
    6.4089    2.0844   24.8766 C   0  0  0  0  0  0  0  0  0  0  0  0
    5.4210    0.9600   21.0930 C   0  0  0  0  0  0  0  0  0  0  0  0
    7.4847    1.4191   24.2887 C   0  0  0  0  0  0  0  0  0  0  0  0
    4.6890    1.6810   18.4640 C   0  0  0  0  0  0  0  0  0  0  0  0
    8.9960   -2.3380   25.5320 C   0  0  0  0  0  0  0  0  0  0  0  0
    9.6730   -3.4710   23.5300 C   0  0  0  0  0  0  0  0  0  0  0  0
    9.0720   -1.1280   24.8640 C   0  0  0  0  0  0  0  0  0  0  0  0
    9.7200   -2.2600   22.8630 C   0  0  0  0  0  0  0  0  0  0  0  0
    6.5777    3.3741   25.3805 C   0  0  0  0  0  0  0  0  0  0  0  0
    8.8980    3.3330   24.7088 C   0  0  0  0  0  0  0  0  0  0  0  0
    7.6390   -0.2680   18.5410 C   0  0  0  0  0  0  0  0  0  0  0  0
    6.1790    0.5730   19.9990 C   0  0  0  0  0  0  0  0  0  0  0  0
    8.7292    2.0433   24.2048 C   0  0  0  0  0  0  0  0  0  0  0  0
    5.8300    0.9190   18.6970 C   0  0  0  0  0  0  0  0  0  0  0  0
    9.3070   -3.5340   24.8780 C   0  0  0  0  0  0  0  0  0  0  0  0
    9.3350   -1.0880   23.5010 C   0  0  0  0  0  0  0  0  0  0  0  0
    7.3170   -0.1610   19.8550 C   0  0  0  0  0  0  0  0  0  0  0  0
    7.8222    3.9984   25.2966 C   0  0  0  0  0  0  0  0  0  0  0  0
    9.5334   -6.0236   25.0414 C   0  0  0  0  0  0  0  0  0  0  0  0
    9.0420    0.3700   21.5280 C   0  0  0  0  0  0  0  0  0  0  0  0
   10.6330   -7.3746   26.8775 C   0  0  0  0  0  0  0  0  0  0  0  0
    9.8870    1.3260   23.5730 C   0  0  0  0  0  0  0  0  0  0  0  0
    9.3523   -7.0865   26.1149 C   0  0  0  0  0  0  0  0  0  0  0  0
    6.7580    0.3810   17.8350 N   0  0  0  0  0  0  0  0  0  0  0  0
    9.2546   -4.7422   25.5438 N   0  0  0  0  0  0  0  0  0  0  0  0
    8.1890   -0.7180   20.8700 N   0  0  0  0  0  0  0  0  0  0  0  0
    9.4560    0.1560   22.8130 N   0  0  0  0  0  0  0  0  0  0  0  0
    9.8806   -6.3053   23.8992 O   0  0  0  0  0  0  0  0  0  0  0  0
    9.2690    1.4140   20.9380 O   0  0  0  0  0  0  0  0  0  0  0  0
    8.0301    5.5891   25.9196 Cl  0  0  0  0  0  0  0  0  0  0  0  0
    3.6453    2.0152   21.6831 H   0  0  0  0  0  0  0  0  0  0  0  0
    3.0147    2.6520   19.3913 H   0  0  0  0  0  0  0  0  0  0  0  0
    5.4400    1.5979   24.9418 H   0  0  0  0  0  0  0  0  0  0  0  0
    5.6991    0.6995   22.1042 H   0  0  0  0  0  0  0  0  0  0  0  0
    7.3441    0.4143   23.8988 H   0  0  0  0  0  0  0  0  0  0  0  0
    4.4051    1.9733   17.4488 H   0  0  0  0  0  0  0  0  0  0  0  0
    8.6895   -2.3529   26.5807 H   0  0  0  0  0  0  0  0  0  0  0  0
    9.9262   -4.3897   22.9916 H   0  0  0  0  0  0  0  0  0  0  0  0
    8.9224   -0.1998   25.4238 H   0  0  0  0  0  0  0  0  0  0  0  0
   10.0649   -2.2343   21.8258 H   0  0  0  0  0  0  0  0  0  0  0  0
    5.7304    3.8806   25.8363 H   0  0  0  0  0  0  0  0  0  0  0  0
    9.8703    3.8156   24.6405 H   0  0  0  0  0  0  0  0  0  0  0  0
    8.4825   -0.7940   18.0623 H   0  0  0  0  0  0  0  0  0  0  0  0
   11.4241   -7.7171   26.2024 H   0  0  0  0  0  0  0  0  0  0  0  0
   10.4629   -8.1531   27.6277 H   0  0  0  0  0  0  0  0  0  0  0  0
   10.9949   -6.4779   27.3912 H   0  0  0  0  0  0  0  0  0  0  0  0
   10.4274    1.9911   22.8906 H   0  0  0  0  0  0  0  0  0  0  0  0
   10.6011    0.9882   24.3313 H   0  0  0  0  0  0  0  0  0  0  0  0
    8.5795   -6.7463   26.8138 H   0  0  0  0  0  0  0  0  0  0  0  0
    8.9966   -8.0064   25.6367 H   0  0  0  0  0  0  0  0  0  0  0  0
    6.7266    0.4930   16.8305 H   0  0  0  0  0  0  0  0  0  0  0  0
    8.9776   -4.7057   26.5317 H   0  0  0  0  0  0  0  0  0  0  0  0
    8.2383   -1.5634   21.0944 H   0  0  0  0  0  0  0  0  0  0  0  0
  1  2  1  0  0  0  0
  1  4  2  0  0  0  0
  2  6  2  0  0  0  0
  3  5  2  0  0  0  0
  3 11  1  0  0  0  0
  4 14  1  0  0  0  0
  5 15  1  0  0  0  0
  6 16  1  0  0  0  0
  7  9  2  0  0  0  0
  7 17  1  0  0  0  0
  8 10  1  0  0  0  0
  8 17  2  0  0  0  0
  9 18  1  0  0  0  0
 10 18  2  0  0  0  0
 11 20  2  0  0  0  0
 12 15  2  0  0  0  0
 12 20  1  0  0  0  0
 13 19  2  0  0  0  0
 13 26  1  0  0  0  0
 14 16  2  0  0  0  0
 14 19  1  0  0  0  0
 15 24  1  0  0  0  0
 16 26  1  0  0  0  0
 17 27  1  0  0  0  0
 18 29  1  0  0  0  0
 19 28  1  0  0  0  0
 20 32  1  0  0  0  0
 21 25  1  0  0  0  0
 21 27  1  0  0  0  0
 21 30  2  0  0  0  0
 22 28  1  0  0  0  0
 22 29  1  0  0  0  0
 22 31  2  0  0  0  0
 23 25  1  0  0  0  0
 24 29  1  0  0  0  0
  1 33  1  0  0  0  0
  2 34  1  0  0  0  0
  3 35  1  0  0  0  0
  4 36  1  0  0  0  0
  5 37  1  0  0  0  0
  6 38  1  0  0  0  0
  7 39  1  0  0  0  0
  8 40  1  0  0  0  0
  9 41  1  0  0  0  0
 10 42  1  0  0  0  0
 11 43  1  0  0  0  0
 12 44  1  0  0  0  0
 13 45  1  0  0  0  0
 23 46  1  0  0  0  0
 23 47  1  0  0  0  0
 23 48  1  0  0  0  0
 24 49  1  0  0  0  0
 24 50  1  0  0  0  0
 25 51  1  0  0  0  0
 25 52  1  0  0  0  0
 26 53  1  0  0  0  0
 27 54  1  0  0  0  0
 28 55  1  0  0  0  0
M  END
> <clash_score>
1.4986599553670592

> <docking_score>
-5.12861442565918

$$$$
BENZO_117_1
  -OEChem-08212019563D

 55 58  0     0  0  0  0  0  0999 V2000
   14.1526    1.4694   24.0176 C   0  0  0  0  0  0  0  0  0  0  0  0
    4.2750    1.7050   20.8490 C   0  0  0  0  0  0  0  0  0  0  0  0
   13.3741    0.8121   24.9701 C   0  0  0  0  0  0  0  0  0  0  0  0
   13.5446    2.0802   22.9208 C   0  0  0  0  0  0  0  0  0  0  0  0
    3.9160    2.0630   19.5520 C   0  0  0  0  0  0  0  0  0  0  0  0
    5.4210    0.9600   21.0930 C   0  0  0  0  0  0  0  0  0  0  0  0
   11.9875    0.7654   24.8258 C   0  0  0  0  0  0  0  0  0  0  0  0
   12.1580    2.0335   22.7765 C   0  0  0  0  0  0  0  0  0  0  0  0
    4.6890    1.6810   18.4640 C   0  0  0  0  0  0  0  0  0  0  0  0
    8.9960   -2.3380   25.5320 C   0  0  0  0  0  0  0  0  0  0  0  0
    9.6730   -3.4710   23.5300 C   0  0  0  0  0  0  0  0  0  0  0  0
    9.0720   -1.1280   24.8640 C   0  0  0  0  0  0  0  0  0  0  0  0
    9.7200   -2.2600   22.8630 C   0  0  0  0  0  0  0  0  0  0  0  0
    7.6390   -0.2680   18.5410 C   0  0  0  0  0  0  0  0  0  0  0  0
    6.1790    0.5730   19.9990 C   0  0  0  0  0  0  0  0  0  0  0  0
   11.3794    1.3761   23.7290 C   0  0  0  0  0  0  0  0  0  0  0  0
    5.8300    0.9190   18.6970 C   0  0  0  0  0  0  0  0  0  0  0  0
    9.3070   -3.5340   24.8780 C   0  0  0  0  0  0  0  0  0  0  0  0
    9.3350   -1.0880   23.5010 C   0  0  0  0  0  0  0  0  0  0  0  0
    7.3170   -0.1610   19.8550 C   0  0  0  0  0  0  0  0  0  0  0  0
    9.5334   -6.0236   25.0414 C   0  0  0  0  0  0  0  0  0  0  0  0
    9.0420    0.3700   21.5280 C   0  0  0  0  0  0  0  0  0  0  0  0
   10.6330   -7.3746   26.8775 C   0  0  0  0  0  0  0  0  0  0  0  0
    9.8870    1.3260   23.5730 C   0  0  0  0  0  0  0  0  0  0  0  0
    9.3523   -7.0865   26.1149 C   0  0  0  0  0  0  0  0  0  0  0  0
    6.7580    0.3810   17.8350 N   0  0  0  0  0  0  0  0  0  0  0  0
    9.2546   -4.7422   25.5438 N   0  0  0  0  0  0  0  0  0  0  0  0
    8.1890   -0.7180   20.8700 N   0  0  0  0  0  0  0  0  0  0  0  0
    9.4560    0.1560   22.8130 N   0  0  0  0  0  0  0  0  0  0  0  0
    9.8806   -6.3053   23.8992 O   0  0  0  0  0  0  0  0  0  0  0  0
    9.2690    1.4140   20.9380 O   0  0  0  0  0  0  0  0  0  0  0  0
   15.2322    1.5068   24.1308 H   0  0  0  0  0  0  0  0  0  0  0  0
    3.6453    2.0152   21.6831 H   0  0  0  0  0  0  0  0  0  0  0  0
   13.8473    0.3374   25.8248 H   0  0  0  0  0  0  0  0  0  0  0  0
   14.1503    2.5930   22.1795 H   0  0  0  0  0  0  0  0  0  0  0  0
    3.0147    2.6520   19.3913 H   0  0  0  0  0  0  0  0  0  0  0  0
    5.6991    0.6995   22.1042 H   0  0  0  0  0  0  0  0  0  0  0  0
   11.3889    0.2508   25.5729 H   0  0  0  0  0  0  0  0  0  0  0  0
   11.6930    2.5120   21.9187 H   0  0  0  0  0  0  0  0  0  0  0  0
    4.4051    1.9733   17.4488 H   0  0  0  0  0  0  0  0  0  0  0  0
    8.6895   -2.3529   26.5807 H   0  0  0  0  0  0  0  0  0  0  0  0
    9.9262   -4.3897   22.9916 H   0  0  0  0  0  0  0  0  0  0  0  0
    8.9224   -0.1998   25.4238 H   0  0  0  0  0  0  0  0  0  0  0  0
   10.0649   -2.2343   21.8258 H   0  0  0  0  0  0  0  0  0  0  0  0
    8.4825   -0.7940   18.0623 H   0  0  0  0  0  0  0  0  0  0  0  0
   11.4241   -7.7171   26.2024 H   0  0  0  0  0  0  0  0  0  0  0  0
   10.4629   -8.1531   27.6277 H   0  0  0  0  0  0  0  0  0  0  0  0
   10.9949   -6.4779   27.3912 H   0  0  0  0  0  0  0  0  0  0  0  0
    9.3974    1.2912   24.5523 H   0  0  0  0  0  0  0  0  0  0  0  0
    9.5159    2.2168   23.0553 H   0  0  0  0  0  0  0  0  0  0  0  0
    8.5795   -6.7463   26.8138 H   0  0  0  0  0  0  0  0  0  0  0  0
    8.9966   -8.0064   25.6367 H   0  0  0  0  0  0  0  0  0  0  0  0
    6.7266    0.4930   16.8305 H   0  0  0  0  0  0  0  0  0  0  0  0
    8.9776   -4.7057   26.5317 H   0  0  0  0  0  0  0  0  0  0  0  0
    8.2383   -1.5634   21.0944 H   0  0  0  0  0  0  0  0  0  0  0  0
  1  3  1  0  0  0  0
  1  4  2  0  0  0  0
  2  5  1  0  0  0  0
  2  6  2  0  0  0  0
  3  7  2  0  0  0  0
  4  8  1  0  0  0  0
  5  9  2  0  0  0  0
  6 15  1  0  0  0  0
  7 16  1  0  0  0  0
  8 16  2  0  0  0  0
  9 17  1  0  0  0  0
 10 12  2  0  0  0  0
 10 18  1  0  0  0  0
 11 13  1  0  0  0  0
 11 18  2  0  0  0  0
 12 19  1  0  0  0  0
 13 19  2  0  0  0  0
 14 20  2  0  0  0  0
 14 26  1  0  0  0  0
 15 17  2  0  0  0  0
 15 20  1  0  0  0  0
 16 24  1  0  0  0  0
 17 26  1  0  0  0  0
 18 27  1  0  0  0  0
 19 29  1  0  0  0  0
 20 28  1  0  0  0  0
 21 25  1  0  0  0  0
 21 27  1  0  0  0  0
 21 30  2  0  0  0  0
 22 28  1  0  0  0  0
 22 29  1  0  0  0  0
 22 31  2  0  0  0  0
 23 25  1  0  0  0  0
 24 29  1  0  0  0  0
  1 32  1  0  0  0  0
  2 33  1  0  0  0  0
  3 34  1  0  0  0  0
  4 35  1  0  0  0  0
  5 36  1  0  0  0  0
  6 37  1  0  0  0  0
  7 38  1  0  0  0  0
  8 39  1  0  0  0  0
  9 40  1  0  0  0  0
 10 41  1  0  0  0  0
 11 42  1  0  0  0  0
 12 43  1  0  0  0  0
 13 44  1  0  0  0  0
 14 45  1  0  0  0  0
 23 46  1  0  0  0  0
 23 47  1  0  0  0  0
 23 48  1  0  0  0  0
 24 49  1  0  0  0  0
 24 50  1  0  0  0  0
 25 51  1  0  0  0  0
 25 52  1  0  0  0  0
 26 53  1  0  0  0  0
 27 54  1  0  0  0  0
 28 55  1  0  0  0  0
M  END
> <clash_score>
1.4986599553670592

> <docking_score>
-5.742595195770264

$$$$
BENZO_119_1
  -OEChem-08212019563D

 55 58  0     0  0  0  0  0  0999 V2000
    4.2750    1.7050   20.8490 C   0  0  0  0  0  0  0  0  0  0  0  0
    3.9160    2.0630   19.5520 C   0  0  0  0  0  0  0  0  0  0  0  0
    5.4210    0.9600   21.0930 C   0  0  0  0  0  0  0  0  0  0  0  0
    4.6890    1.6810   18.4640 C   0  0  0  0  0  0  0  0  0  0  0  0
    8.9960   -2.3380   25.5320 C   0  0  0  0  0  0  0  0  0  0  0  0
    9.6730   -3.4710   23.5300 C   0  0  0  0  0  0  0  0  0  0  0  0
    9.0720   -1.1280   24.8640 C   0  0  0  0  0  0  0  0  0  0  0  0
    9.7200   -2.2600   22.8630 C   0  0  0  0  0  0  0  0  0  0  0  0
   12.1233    1.3811   24.9242 C   0  0  0  0  0  0  0  0  0  0  0  0
   12.3262    1.4247   22.7351 C   0  0  0  0  0  0  0  0  0  0  0  0
    7.6390   -0.2680   18.5410 C   0  0  0  0  0  0  0  0  0  0  0  0
    6.1790    0.5730   19.9990 C   0  0  0  0  0  0  0  0  0  0  0  0
   11.3794    1.3761   23.7290 C   0  0  0  0  0  0  0  0  0  0  0  0
    5.8300    0.9190   18.6970 C   0  0  0  0  0  0  0  0  0  0  0  0
    9.3070   -3.5340   24.8780 C   0  0  0  0  0  0  0  0  0  0  0  0
    9.3350   -1.0880   23.5010 C   0  0  0  0  0  0  0  0  0  0  0  0
    7.3170   -0.1610   19.8550 C   0  0  0  0  0  0  0  0  0  0  0  0
    9.5334   -6.0236   25.0414 C   0  0  0  0  0  0  0  0  0  0  0  0
    9.0420    0.3700   21.5280 C   0  0  0  0  0  0  0  0  0  0  0  0
   10.6330   -7.3746   26.8775 C   0  0  0  0  0  0  0  0  0  0  0  0
   14.8305    1.5084   22.7418 C   0  0  0  0  0  0  0  0  0  0  0  0
    9.8870    1.3260   23.5730 C   0  0  0  0  0  0  0  0  0  0  0  0
    9.3523   -7.0865   26.1149 C   0  0  0  0  0  0  0  0  0  0  0  0
   13.4410    1.4289   24.7112 N   0  0  0  0  0  0  0  0  0  0  0  0
    6.7580    0.3810   17.8350 N   0  0  0  0  0  0  0  0  0  0  0  0
   13.5326    1.4543   23.3706 N   0  0  0  0  0  0  0  0  0  0  0  0
    9.2546   -4.7422   25.5438 N   0  0  0  0  0  0  0  0  0  0  0  0
    8.1890   -0.7180   20.8700 N   0  0  0  0  0  0  0  0  0  0  0  0
    9.4560    0.1560   22.8130 N   0  0  0  0  0  0  0  0  0  0  0  0
    9.8806   -6.3053   23.8992 O   0  0  0  0  0  0  0  0  0  0  0  0
    9.2690    1.4140   20.9380 O   0  0  0  0  0  0  0  0  0  0  0  0
    3.6453    2.0152   21.6831 H   0  0  0  0  0  0  0  0  0  0  0  0
    3.0147    2.6520   19.3913 H   0  0  0  0  0  0  0  0  0  0  0  0
    5.6991    0.6995   22.1042 H   0  0  0  0  0  0  0  0  0  0  0  0
    4.4051    1.9733   17.4488 H   0  0  0  0  0  0  0  0  0  0  0  0
    8.6895   -2.3529   26.5807 H   0  0  0  0  0  0  0  0  0  0  0  0
    9.9262   -4.3897   22.9916 H   0  0  0  0  0  0  0  0  0  0  0  0
    8.9224   -0.1998   25.4238 H   0  0  0  0  0  0  0  0  0  0  0  0
   10.0649   -2.2343   21.8258 H   0  0  0  0  0  0  0  0  0  0  0  0
   11.7624    1.3510   25.9426 H   0  0  0  0  0  0  0  0  0  0  0  0
   12.2462    1.4390   21.6566 H   0  0  0  0  0  0  0  0  0  0  0  0
    8.4825   -0.7940   18.0623 H   0  0  0  0  0  0  0  0  0  0  0  0
   11.4241   -7.7171   26.2024 H   0  0  0  0  0  0  0  0  0  0  0  0
   10.4629   -8.1531   27.6277 H   0  0  0  0  0  0  0  0  0  0  0  0
   10.9949   -6.4779   27.3912 H   0  0  0  0  0  0  0  0  0  0  0  0
   15.0990    2.5601   22.6124 H   0  0  0  0  0  0  0  0  0  0  0  0
   15.5636    1.0018   23.3756 H   0  0  0  0  0  0  0  0  0  0  0  0
   14.7841    1.0025   21.7733 H   0  0  0  0  0  0  0  0  0  0  0  0
    9.3974    1.2912   24.5523 H   0  0  0  0  0  0  0  0  0  0  0  0
    9.5159    2.2168   23.0553 H   0  0  0  0  0  0  0  0  0  0  0  0
    8.5795   -6.7463   26.8138 H   0  0  0  0  0  0  0  0  0  0  0  0
    8.9966   -8.0064   25.6367 H   0  0  0  0  0  0  0  0  0  0  0  0
    6.7266    0.4930   16.8305 H   0  0  0  0  0  0  0  0  0  0  0  0
    8.9776   -4.7057   26.5317 H   0  0  0  0  0  0  0  0  0  0  0  0
    8.2383   -1.5634   21.0944 H   0  0  0  0  0  0  0  0  0  0  0  0
  1  2  1  0  0  0  0
  1  3  2  0  0  0  0
  2  4  2  0  0  0  0
  3 12  1  0  0  0  0
  4 14  1  0  0  0  0
  5  7  2  0  0  0  0
  5 15  1  0  0  0  0
  6  8  1  0  0  0  0
  6 15  2  0  0  0  0
  7 16  1  0  0  0  0
  8 16  2  0  0  0  0
  9 13  1  0  0  0  0
  9 24  2  0  0  0  0
 10 13  2  0  0  0  0
 10 26  1  0  0  0  0
 11 17  2  0  0  0  0
 11 25  1  0  0  0  0
 12 14  2  0  0  0  0
 12 17  1  0  0  0  0
 13 22  1  0  0  0  0
 14 25  1  0  0  0  0
 15 27  1  0  0  0  0
 16 29  1  0  0  0  0
 17 28  1  0  0  0  0
 18 23  1  0  0  0  0
 18 27  1  0  0  0  0
 18 30  2  0  0  0  0
 19 28  1  0  0  0  0
 19 29  1  0  0  0  0
 19 31  2  0  0  0  0
 20 23  1  0  0  0  0
 21 26  1  0  0  0  0
 22 29  1  0  0  0  0
 24 26  1  0  0  0  0
  1 32  1  0  0  0  0
  2 33  1  0  0  0  0
  3 34  1  0  0  0  0
  4 35  1  0  0  0  0
  5 36  1  0  0  0  0
  6 37  1  0  0  0  0
  7 38  1  0  0  0  0
  8 39  1  0  0  0  0
  9 40  1  0  0  0  0
 10 41  1  0  0  0  0
 11 42  1  0  0  0  0
 20 43  1  0  0  0  0
 20 44  1  0  0  0  0
 20 45  1  0  0  0  0
 21 46  1  0  0  0  0
 21 47  1  0  0  0  0
 21 48  1  0  0  0  0
 22 49  1  0  0  0  0
 22 50  1  0  0  0  0
 23 51  1  0  0  0  0
 23 52  1  0  0  0  0
 25 53  1  0  0  0  0
 27 54  1  0  0  0  0
 28 55  1  0  0  0  0
M  END
> <clash_score>
1.4986599553670592

> <docking_score>
-5.458734512329102

$$$$
BENZO_120_1
  -OEChem-08212019593D

 57 61  0     0  0  0  0  0  0999 V2000
    4.2750    1.7050   20.8490 C   0  0  0  0  0  0  0  0  0  0  0  0
    3.9160    2.0630   19.5520 C   0  0  0  0  0  0  0  0  0  0  0  0
    5.4210    0.9600   21.0930 C   0  0  0  0  0  0  0  0  0  0  0  0
    4.6890    1.6810   18.4640 C   0  0  0  0  0  0  0  0  0  0  0  0
    8.9960   -2.3380   25.5320 C   0  0  0  0  0  0  0  0  0  0  0  0
    9.6730   -3.4710   23.5300 C   0  0  0  0  0  0  0  0  0  0  0  0
    9.0720   -1.1280   24.8640 C   0  0  0  0  0  0  0  0  0  0  0  0
    9.7200   -2.2600   22.8630 C   0  0  0  0  0  0  0  0  0  0  0  0
   12.2913    1.4279   22.6355 C   0  0  0  0  0  0  0  0  0  0  0  0
    7.6390   -0.2680   18.5410 C   0  0  0  0  0  0  0  0  0  0  0  0
   13.6024    1.4662   23.0564 C   0  0  0  0  0  0  0  0  0  0  0  0
   12.0284    1.3764   24.9443 C   0  0  0  0  0  0  0  0  0  0  0  0
    6.1790    0.5730   19.9990 C   0  0  0  0  0  0  0  0  0  0  0  0
   11.3794    1.3761   23.7290 C   0  0  0  0  0  0  0  0  0  0  0  0
    5.8300    0.9190   18.6970 C   0  0  0  0  0  0  0  0  0  0  0  0
    9.3070   -3.5340   24.8780 C   0  0  0  0  0  0  0  0  0  0  0  0
    9.3350   -1.0880   23.5010 C   0  0  0  0  0  0  0  0  0  0  0  0
    7.3170   -0.1610   19.8550 C   0  0  0  0  0  0  0  0  0  0  0  0
    9.0420    0.3700   21.5280 C   0  0  0  0  0  0  0  0  0  0  0  0
    7.3635   -6.1361   27.1888 C   0  0  0  0  0  0  0  0  0  0  0  0
    8.1961   -4.9735   27.7341 C   0  0  0  0  0  0  0  0  0  0  0  0
    7.1942   -6.0394   25.6709 C   0  0  0  0  0  0  0  0  0  0  0  0
    9.5196   -4.8490   26.9797 C   0  0  0  0  0  0  0  0  0  0  0  0
    8.5442   -5.8838   24.9639 C   0  0  0  0  0  0  0  0  0  0  0  0
    9.8870    1.3260   23.5730 C   0  0  0  0  0  0  0  0  0  0  0  0
    6.7580    0.3810   17.8350 N   0  0  0  0  0  0  0  0  0  0  0  0
    9.2562   -4.7384   25.5422 N   0  0  0  0  0  0  0  0  0  0  0  0
    8.1890   -0.7180   20.8700 N   0  0  0  0  0  0  0  0  0  0  0  0
    9.4560    0.1560   22.8130 N   0  0  0  0  0  0  0  0  0  0  0  0
    9.2690    1.4140   20.9380 O   0  0  0  0  0  0  0  0  0  0  0  0
   13.7301    1.4394   24.7638 S   0  0  0  0  0  0  0  0  0  0  0  0
    3.6453    2.0152   21.6831 H   0  0  0  0  0  0  0  0  0  0  0  0
    3.0147    2.6520   19.3913 H   0  0  0  0  0  0  0  0  0  0  0  0
    5.6991    0.6995   22.1042 H   0  0  0  0  0  0  0  0  0  0  0  0
    4.4051    1.9733   17.4488 H   0  0  0  0  0  0  0  0  0  0  0  0
    8.6905   -2.3533   26.5810 H   0  0  0  0  0  0  0  0  0  0  0  0
    9.9266   -4.3896   22.9917 H   0  0  0  0  0  0  0  0  0  0  0  0
    8.9233   -0.1992   25.4231 H   0  0  0  0  0  0  0  0  0  0  0  0
   10.0650   -2.2330   21.8256 H   0  0  0  0  0  0  0  0  0  0  0  0
   12.0045    1.4365   21.5915 H   0  0  0  0  0  0  0  0  0  0  0  0
    8.4825   -0.7940   18.0623 H   0  0  0  0  0  0  0  0  0  0  0  0
   14.4914    1.5078   22.4431 H   0  0  0  0  0  0  0  0  0  0  0  0
   11.5886    1.3416   25.9314 H   0  0  0  0  0  0  0  0  0  0  0  0
    7.8482   -7.0901   27.4469 H   0  0  0  0  0  0  0  0  0  0  0  0
    6.3760   -6.1438   27.6724 H   0  0  0  0  0  0  0  0  0  0  0  0
    7.6307   -4.0424   27.6403 H   0  0  0  0  0  0  0  0  0  0  0  0
    8.3915   -5.1310   28.7968 H   0  0  0  0  0  0  0  0  0  0  0  0
    6.6888   -6.9376   25.3010 H   0  0  0  0  0  0  0  0  0  0  0  0
    6.5515   -5.1859   25.4257 H   0  0  0  0  0  0  0  0  0  0  0  0
   10.0492   -3.9640   27.3414 H   0  0  0  0  0  0  0  0  0  0  0  0
   10.1431   -5.7254   27.1778 H   0  0  0  0  0  0  0  0  0  0  0  0
    9.1338   -6.7931   25.0868 H   0  0  0  0  0  0  0  0  0  0  0  0
    8.3656   -5.7264   23.8998 H   0  0  0  0  0  0  0  0  0  0  0  0
    9.3974    1.2912   24.5523 H   0  0  0  0  0  0  0  0  0  0  0  0
    9.5159    2.2168   23.0553 H   0  0  0  0  0  0  0  0  0  0  0  0
    6.7266    0.4930   16.8305 H   0  0  0  0  0  0  0  0  0  0  0  0
    8.2565   -1.5523   21.1108 H   0  0  0  0  0  0  0  0  0  0  0  0
  1  2  1  0  0  0  0
  1  3  2  0  0  0  0
  2  4  2  0  0  0  0
  3 13  1  0  0  0  0
  4 15  1  0  0  0  0
  5  7  2  0  0  0  0
  5 16  1  0  0  0  0
  6  8  1  0  0  0  0
  6 16  2  0  0  0  0
  7 17  1  0  0  0  0
  8 17  2  0  0  0  0
  9 11  2  0  0  0  0
  9 14  1  0  0  0  0
 10 18  2  0  0  0  0
 10 26  1  0  0  0  0
 11 31  1  0  0  0  0
 12 14  2  0  0  0  0
 12 31  1  0  0  0  0
 13 15  2  0  0  0  0
 13 18  1  0  0  0  0
 14 25  1  0  0  0  0
 15 26  1  0  0  0  0
 16 27  1  0  0  0  0
 17 29  1  0  0  0  0
 18 28  1  0  0  0  0
 19 28  1  0  0  0  0
 19 29  1  0  0  0  0
 19 30  2  0  0  0  0
 20 21  1  0  0  0  0
 20 22  1  0  0  0  0
 21 23  1  0  0  0  0
 22 24  1  0  0  0  0
 23 27  1  0  0  0  0
 24 27  1  0  0  0  0
 25 29  1  0  0  0  0
  1 32  1  0  0  0  0
  2 33  1  0  0  0  0
  3 34  1  0  0  0  0
  4 35  1  0  0  0  0
  5 36  1  0  0  0  0
  6 37  1  0  0  0  0
  7 38  1  0  0  0  0
  8 39  1  0  0  0  0
  9 40  1  0  0  0  0
 10 41  1  0  0  0  0
 11 42  1  0  0  0  0
 12 43  1  0  0  0  0
 20 44  1  0  0  0  0
 20 45  1  0  0  0  0
 21 46  1  0  0  0  0
 21 47  1  0  0  0  0
 22 48  1  0  0  0  0
 22 49  1  0  0  0  0
 23 50  1  0  0  0  0
 23 51  1  0  0  0  0
 24 52  1  0  0  0  0
 24 53  1  0  0  0  0
 25 54  1  0  0  0  0
 25 55  1  0  0  0  0
 26 56  1  0  0  0  0
 28 57  1  0  0  0  0
M  END
> <clash_score>
0

> <docking_score>
-8.111496925354004

$$$$
BENZO_121_1
  -OEChem-08212019593D

 60 64  0     0  0  0  0  0  0999 V2000
   14.1526    1.4694   24.0176 C   0  0  0  0  0  0  0  0  0  0  0  0
    4.2750    1.7050   20.8490 C   0  0  0  0  0  0  0  0  0  0  0  0
   13.3741    0.8121   24.9701 C   0  0  0  0  0  0  0  0  0  0  0  0
   13.5446    2.0802   22.9208 C   0  0  0  0  0  0  0  0  0  0  0  0
    3.9160    2.0630   19.5520 C   0  0  0  0  0  0  0  0  0  0  0  0
    5.4210    0.9600   21.0930 C   0  0  0  0  0  0  0  0  0  0  0  0
   11.9875    0.7654   24.8258 C   0  0  0  0  0  0  0  0  0  0  0  0
   12.1580    2.0335   22.7765 C   0  0  0  0  0  0  0  0  0  0  0  0
    4.6890    1.6810   18.4640 C   0  0  0  0  0  0  0  0  0  0  0  0
    8.9960   -2.3380   25.5320 C   0  0  0  0  0  0  0  0  0  0  0  0
    9.6730   -3.4710   23.5300 C   0  0  0  0  0  0  0  0  0  0  0  0
    9.0720   -1.1280   24.8640 C   0  0  0  0  0  0  0  0  0  0  0  0
    9.7200   -2.2600   22.8630 C   0  0  0  0  0  0  0  0  0  0  0  0
    7.6390   -0.2680   18.5410 C   0  0  0  0  0  0  0  0  0  0  0  0
    6.1790    0.5730   19.9990 C   0  0  0  0  0  0  0  0  0  0  0  0
   11.3794    1.3761   23.7290 C   0  0  0  0  0  0  0  0  0  0  0  0
    5.8300    0.9190   18.6970 C   0  0  0  0  0  0  0  0  0  0  0  0
    9.3070   -3.5340   24.8780 C   0  0  0  0  0  0  0  0  0  0  0  0
    9.3350   -1.0880   23.5010 C   0  0  0  0  0  0  0  0  0  0  0  0
    7.3170   -0.1610   19.8550 C   0  0  0  0  0  0  0  0  0  0  0  0
    9.0420    0.3700   21.5280 C   0  0  0  0  0  0  0  0  0  0  0  0
    7.3635   -6.1361   27.1888 C   0  0  0  0  0  0  0  0  0  0  0  0
    8.1961   -4.9735   27.7341 C   0  0  0  0  0  0  0  0  0  0  0  0
    7.1942   -6.0394   25.6709 C   0  0  0  0  0  0  0  0  0  0  0  0
    9.5196   -4.8490   26.9797 C   0  0  0  0  0  0  0  0  0  0  0  0
    8.5442   -5.8838   24.9639 C   0  0  0  0  0  0  0  0  0  0  0  0
    9.8870    1.3260   23.5730 C   0  0  0  0  0  0  0  0  0  0  0  0
    6.7580    0.3810   17.8350 N   0  0  0  0  0  0  0  0  0  0  0  0
    9.2562   -4.7384   25.5422 N   0  0  0  0  0  0  0  0  0  0  0  0
    8.1890   -0.7180   20.8700 N   0  0  0  0  0  0  0  0  0  0  0  0
    9.4560    0.1560   22.8130 N   0  0  0  0  0  0  0  0  0  0  0  0
    9.2690    1.4140   20.9380 O   0  0  0  0  0  0  0  0  0  0  0  0
   15.2322    1.5068   24.1308 H   0  0  0  0  0  0  0  0  0  0  0  0
    3.6453    2.0152   21.6831 H   0  0  0  0  0  0  0  0  0  0  0  0
   13.8473    0.3374   25.8248 H   0  0  0  0  0  0  0  0  0  0  0  0
   14.1503    2.5930   22.1795 H   0  0  0  0  0  0  0  0  0  0  0  0
    3.0147    2.6520   19.3913 H   0  0  0  0  0  0  0  0  0  0  0  0
    5.6991    0.6995   22.1042 H   0  0  0  0  0  0  0  0  0  0  0  0
   11.3889    0.2508   25.5729 H   0  0  0  0  0  0  0  0  0  0  0  0
   11.6930    2.5120   21.9187 H   0  0  0  0  0  0  0  0  0  0  0  0
    4.4051    1.9733   17.4488 H   0  0  0  0  0  0  0  0  0  0  0  0
    8.6905   -2.3533   26.5810 H   0  0  0  0  0  0  0  0  0  0  0  0
    9.9266   -4.3896   22.9917 H   0  0  0  0  0  0  0  0  0  0  0  0
    8.9233   -0.1992   25.4231 H   0  0  0  0  0  0  0  0  0  0  0  0
   10.0650   -2.2330   21.8256 H   0  0  0  0  0  0  0  0  0  0  0  0
    8.4825   -0.7940   18.0623 H   0  0  0  0  0  0  0  0  0  0  0  0
    7.8482   -7.0901   27.4469 H   0  0  0  0  0  0  0  0  0  0  0  0
    6.3760   -6.1438   27.6724 H   0  0  0  0  0  0  0  0  0  0  0  0
    7.6307   -4.0424   27.6403 H   0  0  0  0  0  0  0  0  0  0  0  0
    8.3915   -5.1310   28.7968 H   0  0  0  0  0  0  0  0  0  0  0  0
    6.6888   -6.9376   25.3010 H   0  0  0  0  0  0  0  0  0  0  0  0
    6.5515   -5.1859   25.4257 H   0  0  0  0  0  0  0  0  0  0  0  0
   10.0492   -3.9640   27.3414 H   0  0  0  0  0  0  0  0  0  0  0  0
   10.1431   -5.7254   27.1778 H   0  0  0  0  0  0  0  0  0  0  0  0
    9.1338   -6.7931   25.0868 H   0  0  0  0  0  0  0  0  0  0  0  0
    8.3656   -5.7264   23.8998 H   0  0  0  0  0  0  0  0  0  0  0  0
    9.3974    1.2912   24.5523 H   0  0  0  0  0  0  0  0  0  0  0  0
    9.5159    2.2168   23.0553 H   0  0  0  0  0  0  0  0  0  0  0  0
    6.7266    0.4930   16.8305 H   0  0  0  0  0  0  0  0  0  0  0  0
    8.2565   -1.5523   21.1108 H   0  0  0  0  0  0  0  0  0  0  0  0
  1  3  1  0  0  0  0
  1  4  2  0  0  0  0
  2  5  1  0  0  0  0
  2  6  2  0  0  0  0
  3  7  2  0  0  0  0
  4  8  1  0  0  0  0
  5  9  2  0  0  0  0
  6 15  1  0  0  0  0
  7 16  1  0  0  0  0
  8 16  2  0  0  0  0
  9 17  1  0  0  0  0
 10 12  2  0  0  0  0
 10 18  1  0  0  0  0
 11 13  1  0  0  0  0
 11 18  2  0  0  0  0
 12 19  1  0  0  0  0
 13 19  2  0  0  0  0
 14 20  2  0  0  0  0
 14 28  1  0  0  0  0
 15 17  2  0  0  0  0
 15 20  1  0  0  0  0
 16 27  1  0  0  0  0
 17 28  1  0  0  0  0
 18 29  1  0  0  0  0
 19 31  1  0  0  0  0
 20 30  1  0  0  0  0
 21 30  1  0  0  0  0
 21 31  1  0  0  0  0
 21 32  2  0  0  0  0
 22 23  1  0  0  0  0
 22 24  1  0  0  0  0
 23 25  1  0  0  0  0
 24 26  1  0  0  0  0
 25 29  1  0  0  0  0
 26 29  1  0  0  0  0
 27 31  1  0  0  0  0
  1 33  1  0  0  0  0
  2 34  1  0  0  0  0
  3 35  1  0  0  0  0
  4 36  1  0  0  0  0
  5 37  1  0  0  0  0
  6 38  1  0  0  0  0
  7 39  1  0  0  0  0
  8 40  1  0  0  0  0
  9 41  1  0  0  0  0
 10 42  1  0  0  0  0
 11 43  1  0  0  0  0
 12 44  1  0  0  0  0
 13 45  1  0  0  0  0
 14 46  1  0  0  0  0
 22 47  1  0  0  0  0
 22 48  1  0  0  0  0
 23 49  1  0  0  0  0
 23 50  1  0  0  0  0
 24 51  1  0  0  0  0
 24 52  1  0  0  0  0
 25 53  1  0  0  0  0
 25 54  1  0  0  0  0
 26 55  1  0  0  0  0
 26 56  1  0  0  0  0
 27 57  1  0  0  0  0
 27 58  1  0  0  0  0
 28 59  1  0  0  0  0
 30 60  1  0  0  0  0
M  END
> <clash_score>
0

> <docking_score>
-8.032642364501953

$$$$
BENZO_122_1
  -OEChem-08212019593D

 60 64  0     0  0  0  0  0  0999 V2000
    4.2750    1.7050   20.8490 C   0  0  0  0  0  0  0  0  0  0  0  0
    3.9160    2.0630   19.5520 C   0  0  0  0  0  0  0  0  0  0  0  0
    6.4089    2.0844   24.8766 C   0  0  0  0  0  0  0  0  0  0  0  0
    5.4210    0.9600   21.0930 C   0  0  0  0  0  0  0  0  0  0  0  0
    7.4847    1.4191   24.2887 C   0  0  0  0  0  0  0  0  0  0  0  0
    4.6890    1.6810   18.4640 C   0  0  0  0  0  0  0  0  0  0  0  0
    8.9960   -2.3380   25.5320 C   0  0  0  0  0  0  0  0  0  0  0  0
    9.6730   -3.4710   23.5300 C   0  0  0  0  0  0  0  0  0  0  0  0
    9.0720   -1.1280   24.8640 C   0  0  0  0  0  0  0  0  0  0  0  0
    9.7200   -2.2600   22.8630 C   0  0  0  0  0  0  0  0  0  0  0  0
    6.5777    3.3741   25.3805 C   0  0  0  0  0  0  0  0  0  0  0  0
    8.8980    3.3330   24.7088 C   0  0  0  0  0  0  0  0  0  0  0  0
    7.6390   -0.2680   18.5410 C   0  0  0  0  0  0  0  0  0  0  0  0
    6.1790    0.5730   19.9990 C   0  0  0  0  0  0  0  0  0  0  0  0
    8.7292    2.0433   24.2048 C   0  0  0  0  0  0  0  0  0  0  0  0
    5.8300    0.9190   18.6970 C   0  0  0  0  0  0  0  0  0  0  0  0
    9.3070   -3.5340   24.8780 C   0  0  0  0  0  0  0  0  0  0  0  0
    9.3350   -1.0880   23.5010 C   0  0  0  0  0  0  0  0  0  0  0  0
    7.3170   -0.1610   19.8550 C   0  0  0  0  0  0  0  0  0  0  0  0
    7.8222    3.9984   25.2966 C   0  0  0  0  0  0  0  0  0  0  0  0
    9.0420    0.3700   21.5280 C   0  0  0  0  0  0  0  0  0  0  0  0
    7.3635   -6.1361   27.1888 C   0  0  0  0  0  0  0  0  0  0  0  0
    8.1961   -4.9735   27.7341 C   0  0  0  0  0  0  0  0  0  0  0  0
    7.1942   -6.0394   25.6709 C   0  0  0  0  0  0  0  0  0  0  0  0
    9.5196   -4.8490   26.9797 C   0  0  0  0  0  0  0  0  0  0  0  0
    8.5442   -5.8838   24.9639 C   0  0  0  0  0  0  0  0  0  0  0  0
    9.8870    1.3260   23.5730 C   0  0  0  0  0  0  0  0  0  0  0  0
    6.7580    0.3810   17.8350 N   0  0  0  0  0  0  0  0  0  0  0  0
    9.2562   -4.7384   25.5422 N   0  0  0  0  0  0  0  0  0  0  0  0
    8.1890   -0.7180   20.8700 N   0  0  0  0  0  0  0  0  0  0  0  0
    9.4560    0.1560   22.8130 N   0  0  0  0  0  0  0  0  0  0  0  0
    9.2690    1.4140   20.9380 O   0  0  0  0  0  0  0  0  0  0  0  0
    8.0301    5.5891   25.9196 Cl  0  0  0  0  0  0  0  0  0  0  0  0
    3.6453    2.0152   21.6831 H   0  0  0  0  0  0  0  0  0  0  0  0
    3.0147    2.6520   19.3913 H   0  0  0  0  0  0  0  0  0  0  0  0
    5.4400    1.5979   24.9418 H   0  0  0  0  0  0  0  0  0  0  0  0
    5.6991    0.6995   22.1042 H   0  0  0  0  0  0  0  0  0  0  0  0
    7.3441    0.4143   23.8988 H   0  0  0  0  0  0  0  0  0  0  0  0
    4.4051    1.9733   17.4488 H   0  0  0  0  0  0  0  0  0  0  0  0
    8.6905   -2.3533   26.5810 H   0  0  0  0  0  0  0  0  0  0  0  0
    9.9266   -4.3896   22.9917 H   0  0  0  0  0  0  0  0  0  0  0  0
    8.9233   -0.1992   25.4231 H   0  0  0  0  0  0  0  0  0  0  0  0
   10.0650   -2.2330   21.8256 H   0  0  0  0  0  0  0  0  0  0  0  0
    5.7304    3.8806   25.8363 H   0  0  0  0  0  0  0  0  0  0  0  0
    9.8703    3.8156   24.6405 H   0  0  0  0  0  0  0  0  0  0  0  0
    8.4825   -0.7940   18.0623 H   0  0  0  0  0  0  0  0  0  0  0  0
    7.8482   -7.0901   27.4469 H   0  0  0  0  0  0  0  0  0  0  0  0
    6.3760   -6.1438   27.6724 H   0  0  0  0  0  0  0  0  0  0  0  0
    7.6307   -4.0424   27.6403 H   0  0  0  0  0  0  0  0  0  0  0  0
    8.3915   -5.1310   28.7968 H   0  0  0  0  0  0  0  0  0  0  0  0
    6.6888   -6.9376   25.3010 H   0  0  0  0  0  0  0  0  0  0  0  0
    6.5515   -5.1859   25.4257 H   0  0  0  0  0  0  0  0  0  0  0  0
   10.0492   -3.9640   27.3414 H   0  0  0  0  0  0  0  0  0  0  0  0
   10.1431   -5.7254   27.1778 H   0  0  0  0  0  0  0  0  0  0  0  0
    9.1338   -6.7931   25.0868 H   0  0  0  0  0  0  0  0  0  0  0  0
    8.3656   -5.7264   23.8998 H   0  0  0  0  0  0  0  0  0  0  0  0
   10.4274    1.9911   22.8906 H   0  0  0  0  0  0  0  0  0  0  0  0
   10.6011    0.9882   24.3313 H   0  0  0  0  0  0  0  0  0  0  0  0
    6.7266    0.4930   16.8305 H   0  0  0  0  0  0  0  0  0  0  0  0
    8.2565   -1.5523   21.1108 H   0  0  0  0  0  0  0  0  0  0  0  0
  1  2  1  0  0  0  0
  1  4  2  0  0  0  0
  2  6  2  0  0  0  0
  3  5  2  0  0  0  0
  3 11  1  0  0  0  0
  4 14  1  0  0  0  0
  5 15  1  0  0  0  0
  6 16  1  0  0  0  0
  7  9  2  0  0  0  0
  7 17  1  0  0  0  0
  8 10  1  0  0  0  0
  8 17  2  0  0  0  0
  9 18  1  0  0  0  0
 10 18  2  0  0  0  0
 11 20  2  0  0  0  0
 12 15  2  0  0  0  0
 12 20  1  0  0  0  0
 13 19  2  0  0  0  0
 13 28  1  0  0  0  0
 14 16  2  0  0  0  0
 14 19  1  0  0  0  0
 15 27  1  0  0  0  0
 16 28  1  0  0  0  0
 17 29  1  0  0  0  0
 18 31  1  0  0  0  0
 19 30  1  0  0  0  0
 20 33  1  0  0  0  0
 21 30  1  0  0  0  0
 21 31  1  0  0  0  0
 21 32  2  0  0  0  0
 22 23  1  0  0  0  0
 22 24  1  0  0  0  0
 23 25  1  0  0  0  0
 24 26  1  0  0  0  0
 25 29  1  0  0  0  0
 26 29  1  0  0  0  0
 27 31  1  0  0  0  0
  1 34  1  0  0  0  0
  2 35  1  0  0  0  0
  3 36  1  0  0  0  0
  4 37  1  0  0  0  0
  5 38  1  0  0  0  0
  6 39  1  0  0  0  0
  7 40  1  0  0  0  0
  8 41  1  0  0  0  0
  9 42  1  0  0  0  0
 10 43  1  0  0  0  0
 11 44  1  0  0  0  0
 12 45  1  0  0  0  0
 13 46  1  0  0  0  0
 22 47  1  0  0  0  0
 22 48  1  0  0  0  0
 23 49  1  0  0  0  0
 23 50  1  0  0  0  0
 24 51  1  0  0  0  0
 24 52  1  0  0  0  0
 25 53  1  0  0  0  0
 25 54  1  0  0  0  0
 26 55  1  0  0  0  0
 26 56  1  0  0  0  0
 27 57  1  0  0  0  0
 27 58  1  0  0  0  0
 28 59  1  0  0  0  0
 30 60  1  0  0  0  0
M  END
> <clash_score>
0

> <docking_score>
-7.418666839599609

$$$$
BENZO_123_1
  -OEChem-08212019593D

 60 64  0     0  0  0  0  0  0999 V2000
    4.2750    1.7050   20.8490 C   0  0  0  0  0  0  0  0  0  0  0  0
    3.9160    2.0630   19.5520 C   0  0  0  0  0  0  0  0  0  0  0  0
    5.4210    0.9600   21.0930 C   0  0  0  0  0  0  0  0  0  0  0  0
    4.6890    1.6810   18.4640 C   0  0  0  0  0  0  0  0  0  0  0  0
    8.9960   -2.3380   25.5320 C   0  0  0  0  0  0  0  0  0  0  0  0
    9.6730   -3.4710   23.5300 C   0  0  0  0  0  0  0  0  0  0  0  0
    9.0720   -1.1280   24.8640 C   0  0  0  0  0  0  0  0  0  0  0  0
    9.7200   -2.2600   22.8630 C   0  0  0  0  0  0  0  0  0  0  0  0
   12.1233    1.3811   24.9242 C   0  0  0  0  0  0  0  0  0  0  0  0
   12.3261    1.4247   22.7351 C   0  0  0  0  0  0  0  0  0  0  0  0
    7.6390   -0.2680   18.5410 C   0  0  0  0  0  0  0  0  0  0  0  0
    6.1790    0.5730   19.9990 C   0  0  0  0  0  0  0  0  0  0  0  0
   11.3794    1.3761   23.7290 C   0  0  0  0  0  0  0  0  0  0  0  0
    5.8300    0.9190   18.6970 C   0  0  0  0  0  0  0  0  0  0  0  0
    9.3070   -3.5340   24.8780 C   0  0  0  0  0  0  0  0  0  0  0  0
    9.3350   -1.0880   23.5010 C   0  0  0  0  0  0  0  0  0  0  0  0
    7.3170   -0.1610   19.8550 C   0  0  0  0  0  0  0  0  0  0  0  0
    9.0420    0.3700   21.5280 C   0  0  0  0  0  0  0  0  0  0  0  0
    7.3635   -6.1361   27.1888 C   0  0  0  0  0  0  0  0  0  0  0  0
    8.1961   -4.9735   27.7341 C   0  0  0  0  0  0  0  0  0  0  0  0
    7.1942   -6.0394   25.6709 C   0  0  0  0  0  0  0  0  0  0  0  0
    9.5196   -4.8490   26.9797 C   0  0  0  0  0  0  0  0  0  0  0  0
    8.5442   -5.8838   24.9639 C   0  0  0  0  0  0  0  0  0  0  0  0
   14.8305    1.5084   22.7418 C   0  0  0  0  0  0  0  0  0  0  0  0
    9.8870    1.3260   23.5730 C   0  0  0  0  0  0  0  0  0  0  0  0
   13.4410    1.4289   24.7112 N   0  0  0  0  0  0  0  0  0  0  0  0
    6.7580    0.3810   17.8350 N   0  0  0  0  0  0  0  0  0  0  0  0
   13.5326    1.4543   23.3706 N   0  0  0  0  0  0  0  0  0  0  0  0
    9.2562   -4.7384   25.5422 N   0  0  0  0  0  0  0  0  0  0  0  0
    8.1890   -0.7180   20.8700 N   0  0  0  0  0  0  0  0  0  0  0  0
    9.4560    0.1560   22.8130 N   0  0  0  0  0  0  0  0  0  0  0  0
    9.2690    1.4140   20.9380 O   0  0  0  0  0  0  0  0  0  0  0  0
    3.6453    2.0152   21.6831 H   0  0  0  0  0  0  0  0  0  0  0  0
    3.0147    2.6520   19.3913 H   0  0  0  0  0  0  0  0  0  0  0  0
    5.6991    0.6995   22.1042 H   0  0  0  0  0  0  0  0  0  0  0  0
    4.4051    1.9733   17.4488 H   0  0  0  0  0  0  0  0  0  0  0  0
    8.6905   -2.3533   26.5810 H   0  0  0  0  0  0  0  0  0  0  0  0
    9.9266   -4.3896   22.9917 H   0  0  0  0  0  0  0  0  0  0  0  0
    8.9233   -0.1992   25.4231 H   0  0  0  0  0  0  0  0  0  0  0  0
   10.0650   -2.2330   21.8256 H   0  0  0  0  0  0  0  0  0  0  0  0
   11.7624    1.3510   25.9426 H   0  0  0  0  0  0  0  0  0  0  0  0
   12.2462    1.4390   21.6566 H   0  0  0  0  0  0  0  0  0  0  0  0
    8.4825   -0.7940   18.0623 H   0  0  0  0  0  0  0  0  0  0  0  0
    7.8482   -7.0901   27.4469 H   0  0  0  0  0  0  0  0  0  0  0  0
    6.3760   -6.1438   27.6724 H   0  0  0  0  0  0  0  0  0  0  0  0
    7.6307   -4.0424   27.6403 H   0  0  0  0  0  0  0  0  0  0  0  0
    8.3915   -5.1310   28.7968 H   0  0  0  0  0  0  0  0  0  0  0  0
    6.6888   -6.9376   25.3010 H   0  0  0  0  0  0  0  0  0  0  0  0
    6.5515   -5.1859   25.4257 H   0  0  0  0  0  0  0  0  0  0  0  0
   10.0492   -3.9640   27.3414 H   0  0  0  0  0  0  0  0  0  0  0  0
   10.1431   -5.7254   27.1778 H   0  0  0  0  0  0  0  0  0  0  0  0
    9.1338   -6.7931   25.0868 H   0  0  0  0  0  0  0  0  0  0  0  0
    8.3656   -5.7264   23.8998 H   0  0  0  0  0  0  0  0  0  0  0  0
   15.0990    2.5601   22.6124 H   0  0  0  0  0  0  0  0  0  0  0  0
   15.5636    1.0018   23.3756 H   0  0  0  0  0  0  0  0  0  0  0  0
   14.7841    1.0025   21.7733 H   0  0  0  0  0  0  0  0  0  0  0  0
    9.3974    1.2912   24.5523 H   0  0  0  0  0  0  0  0  0  0  0  0
    9.5159    2.2168   23.0553 H   0  0  0  0  0  0  0  0  0  0  0  0
    6.7266    0.4930   16.8305 H   0  0  0  0  0  0  0  0  0  0  0  0
    8.2565   -1.5523   21.1108 H   0  0  0  0  0  0  0  0  0  0  0  0
  1  2  1  0  0  0  0
  1  3  2  0  0  0  0
  2  4  2  0  0  0  0
  3 12  1  0  0  0  0
  4 14  1  0  0  0  0
  5  7  2  0  0  0  0
  5 15  1  0  0  0  0
  6  8  1  0  0  0  0
  6 15  2  0  0  0  0
  7 16  1  0  0  0  0
  8 16  2  0  0  0  0
  9 13  1  0  0  0  0
  9 26  2  0  0  0  0
 10 13  2  0  0  0  0
 10 28  1  0  0  0  0
 11 17  2  0  0  0  0
 11 27  1  0  0  0  0
 12 14  2  0  0  0  0
 12 17  1  0  0  0  0
 13 25  1  0  0  0  0
 14 27  1  0  0  0  0
 15 29  1  0  0  0  0
 16 31  1  0  0  0  0
 17 30  1  0  0  0  0
 18 30  1  0  0  0  0
 18 31  1  0  0  0  0
 18 32  2  0  0  0  0
 19 20  1  0  0  0  0
 19 21  1  0  0  0  0
 20 22  1  0  0  0  0
 21 23  1  0  0  0  0
 22 29  1  0  0  0  0
 23 29  1  0  0  0  0
 24 28  1  0  0  0  0
 25 31  1  0  0  0  0
 26 28  1  0  0  0  0
  1 33  1  0  0  0  0
  2 34  1  0  0  0  0
  3 35  1  0  0  0  0
  4 36  1  0  0  0  0
  5 37  1  0  0  0  0
  6 38  1  0  0  0  0
  7 39  1  0  0  0  0
  8 40  1  0  0  0  0
  9 41  1  0  0  0  0
 10 42  1  0  0  0  0
 11 43  1  0  0  0  0
 19 44  1  0  0  0  0
 19 45  1  0  0  0  0
 20 46  1  0  0  0  0
 20 47  1  0  0  0  0
 21 48  1  0  0  0  0
 21 49  1  0  0  0  0
 22 50  1  0  0  0  0
 22 51  1  0  0  0  0
 23 52  1  0  0  0  0
 23 53  1  0  0  0  0
 24 54  1  0  0  0  0
 24 55  1  0  0  0  0
 24 56  1  0  0  0  0
 25 57  1  0  0  0  0
 25 58  1  0  0  0  0
 27 59  1  0  0  0  0
 30 60  1  0  0  0  0
M  END
> <clash_score>
0

> <docking_score>
-7.74876594543457

$$$$
BENZO_126_1
  -OEChem-08212019593D

 48 51  0     0  0  0  0  0  0999 V2000
    4.2750    1.7050   20.8490 C   0  0  0  0  0  0  0  0  0  0  0  0
    3.9160    2.0630   19.5520 C   0  0  0  0  0  0  0  0  0  0  0  0
    6.4089    2.0844   24.8766 C   0  0  0  0  0  0  0  0  0  0  0  0
    5.4210    0.9600   21.0930 C   0  0  0  0  0  0  0  0  0  0  0  0
    7.4847    1.4191   24.2887 C   0  0  0  0  0  0  0  0  0  0  0  0
    8.9960   -2.3380   25.5320 C   0  0  0  0  0  0  0  0  0  0  0  0
    9.6730   -3.4710   23.5300 C   0  0  0  0  0  0  0  0  0  0  0  0
    4.6890    1.6810   18.4640 C   0  0  0  0  0  0  0  0  0  0  0  0
    9.0720   -1.1280   24.8640 C   0  0  0  0  0  0  0  0  0  0  0  0
    9.7200   -2.2600   22.8630 C   0  0  0  0  0  0  0  0  0  0  0  0
    6.5777    3.3741   25.3805 C   0  0  0  0  0  0  0  0  0  0  0  0
    8.8980    3.3330   24.7088 C   0  0  0  0  0  0  0  0  0  0  0  0
    7.6390   -0.2680   18.5410 C   0  0  0  0  0  0  0  0  0  0  0  0
    6.1790    0.5730   19.9990 C   0  0  0  0  0  0  0  0  0  0  0  0
    9.3070   -3.5340   24.8780 C   0  0  0  0  0  0  0  0  0  0  0  0
    8.7292    2.0433   24.2048 C   0  0  0  0  0  0  0  0  0  0  0  0
    5.8300    0.9190   18.6970 C   0  0  0  0  0  0  0  0  0  0  0  0
    9.3350   -1.0880   23.5010 C   0  0  0  0  0  0  0  0  0  0  0  0
    7.3170   -0.1610   19.8550 C   0  0  0  0  0  0  0  0  0  0  0  0
    7.8222    3.9984   25.2966 C   0  0  0  0  0  0  0  0  0  0  0  0
    9.0420    0.3700   21.5280 C   0  0  0  0  0  0  0  0  0  0  0  0
    9.2505   -4.8264   25.5904 C   0  0  0  0  0  0  0  0  0  0  0  0
    9.8870    1.3260   23.5730 C   0  0  0  0  0  0  0  0  0  0  0  0
    6.7580    0.3810   17.8350 N   0  0  0  0  0  0  0  0  0  0  0  0
    8.1890   -0.7180   20.8700 N   0  0  0  0  0  0  0  0  0  0  0  0
    9.4560    0.1560   22.8130 N   0  0  0  0  0  0  0  0  0  0  0  0
    9.2690    1.4140   20.9380 O   0  0  0  0  0  0  0  0  0  0  0  0
    8.0301    5.5891   25.9196 Cl  0  0  0  0  0  0  0  0  0  0  0  0
    3.6453    2.0152   21.6831 H   0  0  0  0  0  0  0  0  0  0  0  0
    3.0147    2.6520   19.3913 H   0  0  0  0  0  0  0  0  0  0  0  0
    5.4400    1.5979   24.9418 H   0  0  0  0  0  0  0  0  0  0  0  0
    5.6991    0.6995   22.1042 H   0  0  0  0  0  0  0  0  0  0  0  0
    7.3441    0.4143   23.8988 H   0  0  0  0  0  0  0  0  0  0  0  0
    8.6919   -2.3557   26.5813 H   0  0  0  0  0  0  0  0  0  0  0  0
    9.9267   -4.3907   22.9939 H   0  0  0  0  0  0  0  0  0  0  0  0
    4.4051    1.9733   17.4488 H   0  0  0  0  0  0  0  0  0  0  0  0
    8.9217   -0.1995   25.4231 H   0  0  0  0  0  0  0  0  0  0  0  0
   10.0653   -2.2339   21.8256 H   0  0  0  0  0  0  0  0  0  0  0  0
    5.7304    3.8806   25.8363 H   0  0  0  0  0  0  0  0  0  0  0  0
    9.8703    3.8156   24.6405 H   0  0  0  0  0  0  0  0  0  0  0  0
    8.4825   -0.7940   18.0623 H   0  0  0  0  0  0  0  0  0  0  0  0
    8.2503   -5.2678   25.5020 H   0  0  0  0  0  0  0  0  0  0  0  0
    9.9817   -5.5374   25.1845 H   0  0  0  0  0  0  0  0  0  0  0  0
    9.4841   -4.7043   26.6562 H   0  0  0  0  0  0  0  0  0  0  0  0
   10.4274    1.9911   22.8906 H   0  0  0  0  0  0  0  0  0  0  0  0
   10.6011    0.9882   24.3313 H   0  0  0  0  0  0  0  0  0  0  0  0
    6.7266    0.4930   16.8305 H   0  0  0  0  0  0  0  0  0  0  0  0
    8.2383   -1.5634   21.0944 H   0  0  0  0  0  0  0  0  0  0  0  0
  1  2  1  0  0  0  0
  1  4  2  0  0  0  0
  2  8  2  0  0  0  0
  3  5  2  0  0  0  0
  3 11  1  0  0  0  0
  4 14  1  0  0  0  0
  5 16  1  0  0  0  0
  6  9  2  0  0  0  0
  6 15  1  0  0  0  0
  7 10  1  0  0  0  0
  7 15  2  0  0  0  0
  8 17  1  0  0  0  0
  9 18  1  0  0  0  0
 10 18  2  0  0  0  0
 11 20  2  0  0  0  0
 12 16  2  0  0  0  0
 12 20  1  0  0  0  0
 13 19  2  0  0  0  0
 13 24  1  0  0  0  0
 14 17  2  0  0  0  0
 14 19  1  0  0  0  0
 15 22  1  0  0  0  0
 16 23  1  0  0  0  0
 17 24  1  0  0  0  0
 18 26  1  0  0  0  0
 19 25  1  0  0  0  0
 20 28  1  0  0  0  0
 21 25  1  0  0  0  0
 21 26  1  0  0  0  0
 21 27  2  0  0  0  0
 23 26  1  0  0  0  0
  1 29  1  0  0  0  0
  2 30  1  0  0  0  0
  3 31  1  0  0  0  0
  4 32  1  0  0  0  0
  5 33  1  0  0  0  0
  6 34  1  0  0  0  0
  7 35  1  0  0  0  0
  8 36  1  0  0  0  0
  9 37  1  0  0  0  0
 10 38  1  0  0  0  0
 11 39  1  0  0  0  0
 12 40  1  0  0  0  0
 13 41  1  0  0  0  0
 22 42  1  0  0  0  0
 22 43  1  0  0  0  0
 22 44  1  0  0  0  0
 23 45  1  0  0  0  0
 23 46  1  0  0  0  0
 24 47  1  0  0  0  0
 25 48  1  0  0  0  0
M  END
> <clash_score>
0

> <docking_score>
-7.663687705993652

$$$$
BENZO_124_1
  -OEChem-08212019593D

 45 48  0     0  0  0  0  0  0999 V2000
    4.2750    1.7050   20.8490 C   0  0  0  0  0  0  0  0  0  0  0  0
    3.9160    2.0630   19.5520 C   0  0  0  0  0  0  0  0  0  0  0  0
    5.4210    0.9600   21.0930 C   0  0  0  0  0  0  0  0  0  0  0  0
    8.9960   -2.3380   25.5320 C   0  0  0  0  0  0  0  0  0  0  0  0
    9.6730   -3.4710   23.5300 C   0  0  0  0  0  0  0  0  0  0  0  0
    4.6890    1.6810   18.4640 C   0  0  0  0  0  0  0  0  0  0  0  0
    9.0720   -1.1280   24.8640 C   0  0  0  0  0  0  0  0  0  0  0  0
    9.7200   -2.2600   22.8630 C   0  0  0  0  0  0  0  0  0  0  0  0
   12.2913    1.4279   22.6355 C   0  0  0  0  0  0  0  0  0  0  0  0
    7.6390   -0.2680   18.5410 C   0  0  0  0  0  0  0  0  0  0  0  0
   13.6024    1.4661   23.0564 C   0  0  0  0  0  0  0  0  0  0  0  0
   12.0284    1.3764   24.9443 C   0  0  0  0  0  0  0  0  0  0  0  0
    6.1790    0.5730   19.9990 C   0  0  0  0  0  0  0  0  0  0  0  0
    9.3070   -3.5340   24.8780 C   0  0  0  0  0  0  0  0  0  0  0  0
   11.3794    1.3761   23.7290 C   0  0  0  0  0  0  0  0  0  0  0  0
    5.8300    0.9190   18.6970 C   0  0  0  0  0  0  0  0  0  0  0  0
    9.3350   -1.0880   23.5010 C   0  0  0  0  0  0  0  0  0  0  0  0
    7.3170   -0.1610   19.8550 C   0  0  0  0  0  0  0  0  0  0  0  0
    9.0420    0.3700   21.5280 C   0  0  0  0  0  0  0  0  0  0  0  0
    9.2505   -4.8264   25.5904 C   0  0  0  0  0  0  0  0  0  0  0  0
    9.8870    1.3260   23.5730 C   0  0  0  0  0  0  0  0  0  0  0  0
    6.7580    0.3810   17.8350 N   0  0  0  0  0  0  0  0  0  0  0  0
    8.1890   -0.7180   20.8700 N   0  0  0  0  0  0  0  0  0  0  0  0
    9.4560    0.1560   22.8130 N   0  0  0  0  0  0  0  0  0  0  0  0
    9.2690    1.4140   20.9380 O   0  0  0  0  0  0  0  0  0  0  0  0
   13.7301    1.4394   24.7638 S   0  0  0  0  0  0  0  0  0  0  0  0
    3.6453    2.0152   21.6831 H   0  0  0  0  0  0  0  0  0  0  0  0
    3.0147    2.6520   19.3913 H   0  0  0  0  0  0  0  0  0  0  0  0
    5.6991    0.6995   22.1042 H   0  0  0  0  0  0  0  0  0  0  0  0
    8.6919   -2.3557   26.5813 H   0  0  0  0  0  0  0  0  0  0  0  0
    9.9267   -4.3907   22.9939 H   0  0  0  0  0  0  0  0  0  0  0  0
    4.4051    1.9733   17.4488 H   0  0  0  0  0  0  0  0  0  0  0  0
    8.9217   -0.1995   25.4231 H   0  0  0  0  0  0  0  0  0  0  0  0
   10.0653   -2.2339   21.8256 H   0  0  0  0  0  0  0  0  0  0  0  0
   12.0045    1.4365   21.5915 H   0  0  0  0  0  0  0  0  0  0  0  0
    8.4825   -0.7940   18.0623 H   0  0  0  0  0  0  0  0  0  0  0  0
   14.4914    1.5078   22.4431 H   0  0  0  0  0  0  0  0  0  0  0  0
   11.5886    1.3416   25.9314 H   0  0  0  0  0  0  0  0  0  0  0  0
    8.2503   -5.2678   25.5020 H   0  0  0  0  0  0  0  0  0  0  0  0
    9.9817   -5.5374   25.1845 H   0  0  0  0  0  0  0  0  0  0  0  0
    9.4841   -4.7043   26.6562 H   0  0  0  0  0  0  0  0  0  0  0  0
    9.3974    1.2912   24.5523 H   0  0  0  0  0  0  0  0  0  0  0  0
    9.5159    2.2168   23.0553 H   0  0  0  0  0  0  0  0  0  0  0  0
    6.7266    0.4930   16.8305 H   0  0  0  0  0  0  0  0  0  0  0  0
    8.2383   -1.5634   21.0944 H   0  0  0  0  0  0  0  0  0  0  0  0
  1  2  1  0  0  0  0
  1  3  2  0  0  0  0
  2  6  2  0  0  0  0
  3 13  1  0  0  0  0
  4  7  2  0  0  0  0
  4 14  1  0  0  0  0
  5  8  1  0  0  0  0
  5 14  2  0  0  0  0
  6 16  1  0  0  0  0
  7 17  1  0  0  0  0
  8 17  2  0  0  0  0
  9 11  2  0  0  0  0
  9 15  1  0  0  0  0
 10 18  2  0  0  0  0
 10 22  1  0  0  0  0
 11 26  1  0  0  0  0
 12 15  2  0  0  0  0
 12 26  1  0  0  0  0
 13 16  2  0  0  0  0
 13 18  1  0  0  0  0
 14 20  1  0  0  0  0
 15 21  1  0  0  0  0
 16 22  1  0  0  0  0
 17 24  1  0  0  0  0
 18 23  1  0  0  0  0
 19 23  1  0  0  0  0
 19 24  1  0  0  0  0
 19 25  2  0  0  0  0
 21 24  1  0  0  0  0
  1 27  1  0  0  0  0
  2 28  1  0  0  0  0
  3 29  1  0  0  0  0
  4 30  1  0  0  0  0
  5 31  1  0  0  0  0
  6 32  1  0  0  0  0
  7 33  1  0  0  0  0
  8 34  1  0  0  0  0
  9 35  1  0  0  0  0
 10 36  1  0  0  0  0
 11 37  1  0  0  0  0
 12 38  1  0  0  0  0
 20 39  1  0  0  0  0
 20 40  1  0  0  0  0
 20 41  1  0  0  0  0
 21 42  1  0  0  0  0
 21 43  1  0  0  0  0
 22 44  1  0  0  0  0
 23 45  1  0  0  0  0
M  END
> <clash_score>
0

> <docking_score>
-8.356531143188477

$$$$
BENZO_125_1
  -OEChem-08212019593D

 48 51  0     0  0  0  0  0  0999 V2000
   14.1526    1.4694   24.0176 C   0  0  0  0  0  0  0  0  0  0  0  0
    4.2750    1.7050   20.8490 C   0  0  0  0  0  0  0  0  0  0  0  0
   13.3741    0.8121   24.9701 C   0  0  0  0  0  0  0  0  0  0  0  0
   13.5446    2.0802   22.9208 C   0  0  0  0  0  0  0  0  0  0  0  0
    3.9160    2.0630   19.5520 C   0  0  0  0  0  0  0  0  0  0  0  0
    5.4210    0.9600   21.0930 C   0  0  0  0  0  0  0  0  0  0  0  0
   11.9875    0.7654   24.8258 C   0  0  0  0  0  0  0  0  0  0  0  0
   12.1580    2.0335   22.7765 C   0  0  0  0  0  0  0  0  0  0  0  0
    8.9960   -2.3380   25.5320 C   0  0  0  0  0  0  0  0  0  0  0  0
    9.6730   -3.4710   23.5300 C   0  0  0  0  0  0  0  0  0  0  0  0
    4.6890    1.6810   18.4640 C   0  0  0  0  0  0  0  0  0  0  0  0
    9.0720   -1.1280   24.8640 C   0  0  0  0  0  0  0  0  0  0  0  0
    9.7200   -2.2600   22.8630 C   0  0  0  0  0  0  0  0  0  0  0  0
    7.6390   -0.2680   18.5410 C   0  0  0  0  0  0  0  0  0  0  0  0
    6.1790    0.5730   19.9990 C   0  0  0  0  0  0  0  0  0  0  0  0
    9.3070   -3.5340   24.8780 C   0  0  0  0  0  0  0  0  0  0  0  0
   11.3794    1.3761   23.7290 C   0  0  0  0  0  0  0  0  0  0  0  0
    5.8300    0.9190   18.6970 C   0  0  0  0  0  0  0  0  0  0  0  0
    9.3350   -1.0880   23.5010 C   0  0  0  0  0  0  0  0  0  0  0  0
    7.3170   -0.1610   19.8550 C   0  0  0  0  0  0  0  0  0  0  0  0
    9.0420    0.3700   21.5280 C   0  0  0  0  0  0  0  0  0  0  0  0
    9.2505   -4.8264   25.5904 C   0  0  0  0  0  0  0  0  0  0  0  0
    9.8870    1.3260   23.5730 C   0  0  0  0  0  0  0  0  0  0  0  0
    6.7580    0.3810   17.8350 N   0  0  0  0  0  0  0  0  0  0  0  0
    8.1890   -0.7180   20.8700 N   0  0  0  0  0  0  0  0  0  0  0  0
    9.4560    0.1560   22.8130 N   0  0  0  0  0  0  0  0  0  0  0  0
    9.2690    1.4140   20.9380 O   0  0  0  0  0  0  0  0  0  0  0  0
   15.2322    1.5068   24.1308 H   0  0  0  0  0  0  0  0  0  0  0  0
    3.6453    2.0152   21.6831 H   0  0  0  0  0  0  0  0  0  0  0  0
   13.8473    0.3374   25.8248 H   0  0  0  0  0  0  0  0  0  0  0  0
   14.1503    2.5930   22.1795 H   0  0  0  0  0  0  0  0  0  0  0  0
    3.0147    2.6520   19.3913 H   0  0  0  0  0  0  0  0  0  0  0  0
    5.6991    0.6995   22.1042 H   0  0  0  0  0  0  0  0  0  0  0  0
   11.3889    0.2508   25.5729 H   0  0  0  0  0  0  0  0  0  0  0  0
   11.6930    2.5120   21.9187 H   0  0  0  0  0  0  0  0  0  0  0  0
    8.6919   -2.3557   26.5813 H   0  0  0  0  0  0  0  0  0  0  0  0
    9.9267   -4.3907   22.9939 H   0  0  0  0  0  0  0  0  0  0  0  0
    4.4051    1.9733   17.4488 H   0  0  0  0  0  0  0  0  0  0  0  0
    8.9217   -0.1995   25.4231 H   0  0  0  0  0  0  0  0  0  0  0  0
   10.0653   -2.2339   21.8256 H   0  0  0  0  0  0  0  0  0  0  0  0
    8.4825   -0.7940   18.0623 H   0  0  0  0  0  0  0  0  0  0  0  0
    8.2503   -5.2678   25.5020 H   0  0  0  0  0  0  0  0  0  0  0  0
    9.9817   -5.5374   25.1845 H   0  0  0  0  0  0  0  0  0  0  0  0
    9.4841   -4.7043   26.6562 H   0  0  0  0  0  0  0  0  0  0  0  0
    9.3974    1.2912   24.5523 H   0  0  0  0  0  0  0  0  0  0  0  0
    9.5159    2.2168   23.0553 H   0  0  0  0  0  0  0  0  0  0  0  0
    6.7266    0.4930   16.8305 H   0  0  0  0  0  0  0  0  0  0  0  0
    8.2383   -1.5634   21.0944 H   0  0  0  0  0  0  0  0  0  0  0  0
  1  3  1  0  0  0  0
  1  4  2  0  0  0  0
  2  5  1  0  0  0  0
  2  6  2  0  0  0  0
  3  7  2  0  0  0  0
  4  8  1  0  0  0  0
  5 11  2  0  0  0  0
  6 15  1  0  0  0  0
  7 17  1  0  0  0  0
  8 17  2  0  0  0  0
  9 12  2  0  0  0  0
  9 16  1  0  0  0  0
 10 13  1  0  0  0  0
 10 16  2  0  0  0  0
 11 18  1  0  0  0  0
 12 19  1  0  0  0  0
 13 19  2  0  0  0  0
 14 20  2  0  0  0  0
 14 24  1  0  0  0  0
 15 18  2  0  0  0  0
 15 20  1  0  0  0  0
 16 22  1  0  0  0  0
 17 23  1  0  0  0  0
 18 24  1  0  0  0  0
 19 26  1  0  0  0  0
 20 25  1  0  0  0  0
 21 25  1  0  0  0  0
 21 26  1  0  0  0  0
 21 27  2  0  0  0  0
 23 26  1  0  0  0  0
  1 28  1  0  0  0  0
  2 29  1  0  0  0  0
  3 30  1  0  0  0  0
  4 31  1  0  0  0  0
  5 32  1  0  0  0  0
  6 33  1  0  0  0  0
  7 34  1  0  0  0  0
  8 35  1  0  0  0  0
  9 36  1  0  0  0  0
 10 37  1  0  0  0  0
 11 38  1  0  0  0  0
 12 39  1  0  0  0  0
 13 40  1  0  0  0  0
 14 41  1  0  0  0  0
 22 42  1  0  0  0  0
 22 43  1  0  0  0  0
 22 44  1  0  0  0  0
 23 45  1  0  0  0  0
 23 46  1  0  0  0  0
 24 47  1  0  0  0  0
 25 48  1  0  0  0  0
M  END
> <clash_score>
0

> <docking_score>
-8.277667999267578

$$$$
BENZO_127_1
  -OEChem-08212020003D

 48 51  0     0  0  0  0  0  0999 V2000
    4.2750    1.7050   20.8490 C   0  0  0  0  0  0  0  0  0  0  0  0
    3.9160    2.0630   19.5520 C   0  0  0  0  0  0  0  0  0  0  0  0
    5.4210    0.9600   21.0930 C   0  0  0  0  0  0  0  0  0  0  0  0
    8.9960   -2.3380   25.5320 C   0  0  0  0  0  0  0  0  0  0  0  0
    9.6730   -3.4710   23.5300 C   0  0  0  0  0  0  0  0  0  0  0  0
    4.6890    1.6810   18.4640 C   0  0  0  0  0  0  0  0  0  0  0  0
    9.0720   -1.1280   24.8640 C   0  0  0  0  0  0  0  0  0  0  0  0
    9.7200   -2.2600   22.8630 C   0  0  0  0  0  0  0  0  0  0  0  0
   12.1233    1.3811   24.9242 C   0  0  0  0  0  0  0  0  0  0  0  0
   12.3262    1.4247   22.7351 C   0  0  0  0  0  0  0  0  0  0  0  0
    7.6390   -0.2680   18.5410 C   0  0  0  0  0  0  0  0  0  0  0  0
    6.1790    0.5730   19.9990 C   0  0  0  0  0  0  0  0  0  0  0  0
    9.3070   -3.5340   24.8780 C   0  0  0  0  0  0  0  0  0  0  0  0
   11.3794    1.3761   23.7290 C   0  0  0  0  0  0  0  0  0  0  0  0
    5.8300    0.9190   18.6970 C   0  0  0  0  0  0  0  0  0  0  0  0
    9.3350   -1.0880   23.5010 C   0  0  0  0  0  0  0  0  0  0  0  0
    7.3170   -0.1610   19.8550 C   0  0  0  0  0  0  0  0  0  0  0  0
    9.0420    0.3700   21.5280 C   0  0  0  0  0  0  0  0  0  0  0  0
    9.2505   -4.8264   25.5904 C   0  0  0  0  0  0  0  0  0  0  0  0
   14.8305    1.5084   22.7418 C   0  0  0  0  0  0  0  0  0  0  0  0
    9.8870    1.3260   23.5730 C   0  0  0  0  0  0  0  0  0  0  0  0
   13.4410    1.4289   24.7112 N   0  0  0  0  0  0  0  0  0  0  0  0
    6.7580    0.3810   17.8350 N   0  0  0  0  0  0  0  0  0  0  0  0
   13.5326    1.4543   23.3706 N   0  0  0  0  0  0  0  0  0  0  0  0
    8.1890   -0.7180   20.8700 N   0  0  0  0  0  0  0  0  0  0  0  0
    9.4560    0.1560   22.8130 N   0  0  0  0  0  0  0  0  0  0  0  0
    9.2690    1.4140   20.9380 O   0  0  0  0  0  0  0  0  0  0  0  0
    3.6453    2.0152   21.6831 H   0  0  0  0  0  0  0  0  0  0  0  0
    3.0147    2.6520   19.3913 H   0  0  0  0  0  0  0  0  0  0  0  0
    5.6991    0.6995   22.1042 H   0  0  0  0  0  0  0  0  0  0  0  0
    8.6919   -2.3557   26.5813 H   0  0  0  0  0  0  0  0  0  0  0  0
    9.9267   -4.3907   22.9939 H   0  0  0  0  0  0  0  0  0  0  0  0
    4.4051    1.9733   17.4488 H   0  0  0  0  0  0  0  0  0  0  0  0
    8.9217   -0.1995   25.4231 H   0  0  0  0  0  0  0  0  0  0  0  0
   10.0653   -2.2339   21.8256 H   0  0  0  0  0  0  0  0  0  0  0  0
   11.7624    1.3510   25.9426 H   0  0  0  0  0  0  0  0  0  0  0  0
   12.2462    1.4390   21.6566 H   0  0  0  0  0  0  0  0  0  0  0  0
    8.4825   -0.7940   18.0623 H   0  0  0  0  0  0  0  0  0  0  0  0
    8.2503   -5.2678   25.5020 H   0  0  0  0  0  0  0  0  0  0  0  0
    9.9817   -5.5374   25.1845 H   0  0  0  0  0  0  0  0  0  0  0  0
    9.4841   -4.7043   26.6562 H   0  0  0  0  0  0  0  0  0  0  0  0
   15.0990    2.5601   22.6124 H   0  0  0  0  0  0  0  0  0  0  0  0
   15.5636    1.0018   23.3756 H   0  0  0  0  0  0  0  0  0  0  0  0
   14.7841    1.0025   21.7733 H   0  0  0  0  0  0  0  0  0  0  0  0
    9.3974    1.2912   24.5523 H   0  0  0  0  0  0  0  0  0  0  0  0
    9.5159    2.2168   23.0553 H   0  0  0  0  0  0  0  0  0  0  0  0
    6.7266    0.4930   16.8305 H   0  0  0  0  0  0  0  0  0  0  0  0
    8.2383   -1.5634   21.0944 H   0  0  0  0  0  0  0  0  0  0  0  0
  1  2  1  0  0  0  0
  1  3  2  0  0  0  0
  2  6  2  0  0  0  0
  3 12  1  0  0  0  0
  4  7  2  0  0  0  0
  4 13  1  0  0  0  0
  5  8  1  0  0  0  0
  5 13  2  0  0  0  0
  6 15  1  0  0  0  0
  7 16  1  0  0  0  0
  8 16  2  0  0  0  0
  9 14  1  0  0  0  0
  9 22  2  0  0  0  0
 10 14  2  0  0  0  0
 10 24  1  0  0  0  0
 11 17  2  0  0  0  0
 11 23  1  0  0  0  0
 12 15  2  0  0  0  0
 12 17  1  0  0  0  0
 13 19  1  0  0  0  0
 14 21  1  0  0  0  0
 15 23  1  0  0  0  0
 16 26  1  0  0  0  0
 17 25  1  0  0  0  0
 18 25  1  0  0  0  0
 18 26  1  0  0  0  0
 18 27  2  0  0  0  0
 20 24  1  0  0  0  0
 21 26  1  0  0  0  0
 22 24  1  0  0  0  0
  1 28  1  0  0  0  0
  2 29  1  0  0  0  0
  3 30  1  0  0  0  0
  4 31  1  0  0  0  0
  5 32  1  0  0  0  0
  6 33  1  0  0  0  0
  7 34  1  0  0  0  0
  8 35  1  0  0  0  0
  9 36  1  0  0  0  0
 10 37  1  0  0  0  0
 11 38  1  0  0  0  0
 19 39  1  0  0  0  0
 19 40  1  0  0  0  0
 19 41  1  0  0  0  0
 20 42  1  0  0  0  0
 20 43  1  0  0  0  0
 20 44  1  0  0  0  0
 21 45  1  0  0  0  0
 21 46  1  0  0  0  0
 23 47  1  0  0  0  0
 25 48  1  0  0  0  0
M  END
> <clash_score>
0

> <docking_score>
-7.993809700012207

$$$$
BENZO_128_1
  -OEChem-08212020033D

 46 49  0     0  0  0  0  0  0999 V2000
    4.2750    1.7050   20.8490 C   0  0  0  0  0  0  0  0  0  0  0  0
    3.9160    2.0630   19.5520 C   0  0  0  0  0  0  0  0  0  0  0  0
    5.4210    0.9600   21.0930 C   0  0  0  0  0  0  0  0  0  0  0  0
    4.6890    1.6810   18.4640 C   0  0  0  0  0  0  0  0  0  0  0  0
    9.0720   -1.1280   24.8640 C   0  0  0  0  0  0  0  0  0  0  0  0
    9.7200   -2.2600   22.8630 C   0  0  0  0  0  0  0  0  0  0  0  0
    8.9960   -2.3380   25.5320 C   0  0  0  0  0  0  0  0  0  0  0  0
    9.6730   -3.4710   23.5300 C   0  0  0  0  0  0  0  0  0  0  0  0
   12.2913    1.4279   22.6355 C   0  0  0  0  0  0  0  0  0  0  0  0
    7.6390   -0.2680   18.5410 C   0  0  0  0  0  0  0  0  0  0  0  0
   13.6024    1.4661   23.0564 C   0  0  0  0  0  0  0  0  0  0  0  0
   12.0284    1.3764   24.9443 C   0  0  0  0  0  0  0  0  0  0  0  0
    6.1790    0.5730   19.9990 C   0  0  0  0  0  0  0  0  0  0  0  0
   11.3794    1.3761   23.7290 C   0  0  0  0  0  0  0  0  0  0  0  0
    5.8300    0.9190   18.6970 C   0  0  0  0  0  0  0  0  0  0  0  0
    9.3350   -1.0880   23.5010 C   0  0  0  0  0  0  0  0  0  0  0  0
    7.3170   -0.1610   19.8550 C   0  0  0  0  0  0  0  0  0  0  0  0
    9.3070   -3.5340   24.8780 C   0  0  0  0  0  0  0  0  0  0  0  0
    9.0420    0.3700   21.5280 C   0  0  0  0  0  0  0  0  0  0  0  0
    8.8720   -4.6805   26.9013 C   0  0  0  0  0  0  0  0  0  0  0  0
    9.8870    1.3260   23.5730 C   0  0  0  0  0  0  0  0  0  0  0  0
    6.7580    0.3810   17.8350 N   0  0  0  0  0  0  0  0  0  0  0  0
    8.1890   -0.7180   20.8700 N   0  0  0  0  0  0  0  0  0  0  0  0
    9.4560    0.1560   22.8130 N   0  0  0  0  0  0  0  0  0  0  0  0
    9.2690    1.4140   20.9380 O   0  0  0  0  0  0  0  0  0  0  0  0
    9.2555   -4.7124   25.5274 O   0  0  0  0  0  0  0  0  0  0  0  0
   13.7301    1.4394   24.7638 S   0  0  0  0  0  0  0  0  0  0  0  0
    3.6453    2.0152   21.6831 H   0  0  0  0  0  0  0  0  0  0  0  0
    3.0147    2.6520   19.3913 H   0  0  0  0  0  0  0  0  0  0  0  0
    5.6991    0.6995   22.1042 H   0  0  0  0  0  0  0  0  0  0  0  0
    4.4051    1.9733   17.4488 H   0  0  0  0  0  0  0  0  0  0  0  0
    8.9221   -0.1995   25.4231 H   0  0  0  0  0  0  0  0  0  0  0  0
   10.0642   -2.2347   21.8253 H   0  0  0  0  0  0  0  0  0  0  0  0
    8.6902   -2.3588   26.5805 H   0  0  0  0  0  0  0  0  0  0  0  0
    9.9254   -4.3921   22.9961 H   0  0  0  0  0  0  0  0  0  0  0  0
   12.0045    1.4365   21.5915 H   0  0  0  0  0  0  0  0  0  0  0  0
    8.4825   -0.7940   18.0623 H   0  0  0  0  0  0  0  0  0  0  0  0
   14.4914    1.5078   22.4431 H   0  0  0  0  0  0  0  0  0  0  0  0
   11.5886    1.3416   25.9314 H   0  0  0  0  0  0  0  0  0  0  0  0
    8.8711   -5.6964   27.3038 H   0  0  0  0  0  0  0  0  0  0  0  0
    7.8758   -4.2402   26.9923 H   0  0  0  0  0  0  0  0  0  0  0  0
    9.5894   -4.0716   27.4566 H   0  0  0  0  0  0  0  0  0  0  0  0
    9.3974    1.2912   24.5523 H   0  0  0  0  0  0  0  0  0  0  0  0
    9.5159    2.2168   23.0553 H   0  0  0  0  0  0  0  0  0  0  0  0
    6.7266    0.4930   16.8305 H   0  0  0  0  0  0  0  0  0  0  0  0
    8.2383   -1.5634   21.0944 H   0  0  0  0  0  0  0  0  0  0  0  0
  1  2  1  0  0  0  0
  1  3  2  0  0  0  0
  2  4  2  0  0  0  0
  3 13  1  0  0  0  0
  4 15  1  0  0  0  0
  5  7  2  0  0  0  0
  5 16  1  0  0  0  0
  6  8  1  0  0  0  0
  6 16  2  0  0  0  0
  7 18  1  0  0  0  0
  8 18  2  0  0  0  0
  9 11  2  0  0  0  0
  9 14  1  0  0  0  0
 10 17  2  0  0  0  0
 10 22  1  0  0  0  0
 11 27  1  0  0  0  0
 12 14  2  0  0  0  0
 12 27  1  0  0  0  0
 13 15  2  0  0  0  0
 13 17  1  0  0  0  0
 14 21  1  0  0  0  0
 15 22  1  0  0  0  0
 16 24  1  0  0  0  0
 17 23  1  0  0  0  0
 18 26  1  0  0  0  0
 19 23  1  0  0  0  0
 19 24  1  0  0  0  0
 19 25  2  0  0  0  0
 20 26  1  0  0  0  0
 21 24  1  0  0  0  0
  1 28  1  0  0  0  0
  2 29  1  0  0  0  0
  3 30  1  0  0  0  0
  4 31  1  0  0  0  0
  5 32  1  0  0  0  0
  6 33  1  0  0  0  0
  7 34  1  0  0  0  0
  8 35  1  0  0  0  0
  9 36  1  0  0  0  0
 10 37  1  0  0  0  0
 11 38  1  0  0  0  0
 12 39  1  0  0  0  0
 20 40  1  0  0  0  0
 20 41  1  0  0  0  0
 20 42  1  0  0  0  0
 21 43  1  0  0  0  0
 21 44  1  0  0  0  0
 22 45  1  0  0  0  0
 23 46  1  0  0  0  0
M  END
> <clash_score>
0

> <docking_score>
-8.092835426330566

$$$$
BENZO_129_1
  -OEChem-08212020033D

 49 52  0     0  0  0  0  0  0999 V2000
   14.1526    1.4694   24.0176 C   0  0  0  0  0  0  0  0  0  0  0  0
    4.2750    1.7050   20.8490 C   0  0  0  0  0  0  0  0  0  0  0  0
   13.3741    0.8121   24.9701 C   0  0  0  0  0  0  0  0  0  0  0  0
   13.5446    2.0802   22.9208 C   0  0  0  0  0  0  0  0  0  0  0  0
    3.9160    2.0630   19.5520 C   0  0  0  0  0  0  0  0  0  0  0  0
    5.4210    0.9600   21.0930 C   0  0  0  0  0  0  0  0  0  0  0  0
   11.9875    0.7654   24.8258 C   0  0  0  0  0  0  0  0  0  0  0  0
   12.1580    2.0335   22.7765 C   0  0  0  0  0  0  0  0  0  0  0  0
    4.6890    1.6810   18.4640 C   0  0  0  0  0  0  0  0  0  0  0  0
    9.0720   -1.1280   24.8640 C   0  0  0  0  0  0  0  0  0  0  0  0
    9.7200   -2.2600   22.8630 C   0  0  0  0  0  0  0  0  0  0  0  0
    8.9960   -2.3380   25.5320 C   0  0  0  0  0  0  0  0  0  0  0  0
    9.6730   -3.4710   23.5300 C   0  0  0  0  0  0  0  0  0  0  0  0
    7.6390   -0.2680   18.5410 C   0  0  0  0  0  0  0  0  0  0  0  0
    6.1790    0.5730   19.9990 C   0  0  0  0  0  0  0  0  0  0  0  0
   11.3794    1.3761   23.7290 C   0  0  0  0  0  0  0  0  0  0  0  0
    5.8300    0.9190   18.6970 C   0  0  0  0  0  0  0  0  0  0  0  0
    9.3350   -1.0880   23.5010 C   0  0  0  0  0  0  0  0  0  0  0  0
    7.3170   -0.1610   19.8550 C   0  0  0  0  0  0  0  0  0  0  0  0
    9.3070   -3.5340   24.8780 C   0  0  0  0  0  0  0  0  0  0  0  0
    9.0420    0.3700   21.5280 C   0  0  0  0  0  0  0  0  0  0  0  0
    8.8720   -4.6805   26.9013 C   0  0  0  0  0  0  0  0  0  0  0  0
    9.8870    1.3260   23.5730 C   0  0  0  0  0  0  0  0  0  0  0  0
    6.7580    0.3810   17.8350 N   0  0  0  0  0  0  0  0  0  0  0  0
    8.1890   -0.7180   20.8700 N   0  0  0  0  0  0  0  0  0  0  0  0
    9.4560    0.1560   22.8130 N   0  0  0  0  0  0  0  0  0  0  0  0
    9.2690    1.4140   20.9380 O   0  0  0  0  0  0  0  0  0  0  0  0
    9.2555   -4.7124   25.5274 O   0  0  0  0  0  0  0  0  0  0  0  0
   15.2322    1.5068   24.1308 H   0  0  0  0  0  0  0  0  0  0  0  0
    3.6453    2.0152   21.6831 H   0  0  0  0  0  0  0  0  0  0  0  0
   13.8473    0.3374   25.8248 H   0  0  0  0  0  0  0  0  0  0  0  0
   14.1503    2.5930   22.1795 H   0  0  0  0  0  0  0  0  0  0  0  0
    3.0147    2.6520   19.3913 H   0  0  0  0  0  0  0  0  0  0  0  0
    5.6991    0.6995   22.1042 H   0  0  0  0  0  0  0  0  0  0  0  0
   11.3889    0.2508   25.5729 H   0  0  0  0  0  0  0  0  0  0  0  0
   11.6930    2.5120   21.9187 H   0  0  0  0  0  0  0  0  0  0  0  0
    4.4051    1.9733   17.4488 H   0  0  0  0  0  0  0  0  0  0  0  0
    8.9221   -0.1995   25.4231 H   0  0  0  0  0  0  0  0  0  0  0  0
   10.0642   -2.2347   21.8253 H   0  0  0  0  0  0  0  0  0  0  0  0
    8.6902   -2.3588   26.5805 H   0  0  0  0  0  0  0  0  0  0  0  0
    9.9254   -4.3921   22.9961 H   0  0  0  0  0  0  0  0  0  0  0  0
    8.4825   -0.7940   18.0623 H   0  0  0  0  0  0  0  0  0  0  0  0
    8.8711   -5.6964   27.3038 H   0  0  0  0  0  0  0  0  0  0  0  0
    7.8758   -4.2402   26.9923 H   0  0  0  0  0  0  0  0  0  0  0  0
    9.5894   -4.0716   27.4566 H   0  0  0  0  0  0  0  0  0  0  0  0
    9.3974    1.2912   24.5523 H   0  0  0  0  0  0  0  0  0  0  0  0
    9.5159    2.2168   23.0553 H   0  0  0  0  0  0  0  0  0  0  0  0
    6.7266    0.4930   16.8305 H   0  0  0  0  0  0  0  0  0  0  0  0
    8.2383   -1.5634   21.0944 H   0  0  0  0  0  0  0  0  0  0  0  0
  1  3  1  0  0  0  0
  1  4  2  0  0  0  0
  2  5  1  0  0  0  0
  2  6  2  0  0  0  0
  3  7  2  0  0  0  0
  4  8  1  0  0  0  0
  5  9  2  0  0  0  0
  6 15  1  0  0  0  0
  7 16  1  0  0  0  0
  8 16  2  0  0  0  0
  9 17  1  0  0  0  0
 10 12  2  0  0  0  0
 10 18  1  0  0  0  0
 11 13  1  0  0  0  0
 11 18  2  0  0  0  0
 12 20  1  0  0  0  0
 13 20  2  0  0  0  0
 14 19  2  0  0  0  0
 14 24  1  0  0  0  0
 15 17  2  0  0  0  0
 15 19  1  0  0  0  0
 16 23  1  0  0  0  0
 17 24  1  0  0  0  0
 18 26  1  0  0  0  0
 19 25  1  0  0  0  0
 20 28  1  0  0  0  0
 21 25  1  0  0  0  0
 21 26  1  0  0  0  0
 21 27  2  0  0  0  0
 22 28  1  0  0  0  0
 23 26  1  0  0  0  0
  1 29  1  0  0  0  0
  2 30  1  0  0  0  0
  3 31  1  0  0  0  0
  4 32  1  0  0  0  0
  5 33  1  0  0  0  0
  6 34  1  0  0  0  0
  7 35  1  0  0  0  0
  8 36  1  0  0  0  0
  9 37  1  0  0  0  0
 10 38  1  0  0  0  0
 11 39  1  0  0  0  0
 12 40  1  0  0  0  0
 13 41  1  0  0  0  0
 14 42  1  0  0  0  0
 22 43  1  0  0  0  0
 22 44  1  0  0  0  0
 22 45  1  0  0  0  0
 23 46  1  0  0  0  0
 23 47  1  0  0  0  0
 24 48  1  0  0  0  0
 25 49  1  0  0  0  0
M  END
> <clash_score>
0

> <docking_score>
-8.0139741897583

$$$$
BENZO_130_1
  -OEChem-08212020033D

 49 52  0     0  0  0  0  0  0999 V2000
    4.2750    1.7050   20.8490 C   0  0  0  0  0  0  0  0  0  0  0  0
    3.9160    2.0630   19.5520 C   0  0  0  0  0  0  0  0  0  0  0  0
    6.4089    2.0844   24.8766 C   0  0  0  0  0  0  0  0  0  0  0  0
    5.4210    0.9600   21.0930 C   0  0  0  0  0  0  0  0  0  0  0  0
    7.4847    1.4191   24.2887 C   0  0  0  0  0  0  0  0  0  0  0  0
    4.6890    1.6810   18.4640 C   0  0  0  0  0  0  0  0  0  0  0  0
    9.0720   -1.1280   24.8640 C   0  0  0  0  0  0  0  0  0  0  0  0
    9.7200   -2.2600   22.8630 C   0  0  0  0  0  0  0  0  0  0  0  0
    8.9960   -2.3380   25.5320 C   0  0  0  0  0  0  0  0  0  0  0  0
    9.6730   -3.4710   23.5300 C   0  0  0  0  0  0  0  0  0  0  0  0
    6.5777    3.3741   25.3805 C   0  0  0  0  0  0  0  0  0  0  0  0
    8.8980    3.3330   24.7088 C   0  0  0  0  0  0  0  0  0  0  0  0
    7.6390   -0.2680   18.5410 C   0  0  0  0  0  0  0  0  0  0  0  0
    6.1790    0.5730   19.9990 C   0  0  0  0  0  0  0  0  0  0  0  0
    8.7292    2.0433   24.2048 C   0  0  0  0  0  0  0  0  0  0  0  0
    5.8300    0.9190   18.6970 C   0  0  0  0  0  0  0  0  0  0  0  0
    9.3350   -1.0880   23.5010 C   0  0  0  0  0  0  0  0  0  0  0  0
    7.3170   -0.1610   19.8550 C   0  0  0  0  0  0  0  0  0  0  0  0
    9.3070   -3.5340   24.8780 C   0  0  0  0  0  0  0  0  0  0  0  0
    7.8222    3.9984   25.2966 C   0  0  0  0  0  0  0  0  0  0  0  0
    9.0420    0.3700   21.5280 C   0  0  0  0  0  0  0  0  0  0  0  0
    8.8720   -4.6805   26.9013 C   0  0  0  0  0  0  0  0  0  0  0  0
    9.8870    1.3260   23.5730 C   0  0  0  0  0  0  0  0  0  0  0  0
    6.7580    0.3810   17.8350 N   0  0  0  0  0  0  0  0  0  0  0  0
    8.1890   -0.7180   20.8700 N   0  0  0  0  0  0  0  0  0  0  0  0
    9.4560    0.1560   22.8130 N   0  0  0  0  0  0  0  0  0  0  0  0
    9.2690    1.4140   20.9380 O   0  0  0  0  0  0  0  0  0  0  0  0
    9.2555   -4.7124   25.5274 O   0  0  0  0  0  0  0  0  0  0  0  0
    8.0301    5.5891   25.9196 Cl  0  0  0  0  0  0  0  0  0  0  0  0
    3.6453    2.0152   21.6831 H   0  0  0  0  0  0  0  0  0  0  0  0
    3.0147    2.6520   19.3913 H   0  0  0  0  0  0  0  0  0  0  0  0
    5.4400    1.5979   24.9418 H   0  0  0  0  0  0  0  0  0  0  0  0
    5.6991    0.6995   22.1042 H   0  0  0  0  0  0  0  0  0  0  0  0
    7.3441    0.4143   23.8988 H   0  0  0  0  0  0  0  0  0  0  0  0
    4.4051    1.9733   17.4488 H   0  0  0  0  0  0  0  0  0  0  0  0
    8.9221   -0.1995   25.4231 H   0  0  0  0  0  0  0  0  0  0  0  0
   10.0642   -2.2347   21.8253 H   0  0  0  0  0  0  0  0  0  0  0  0
    8.6902   -2.3588   26.5805 H   0  0  0  0  0  0  0  0  0  0  0  0
    9.9254   -4.3921   22.9961 H   0  0  0  0  0  0  0  0  0  0  0  0
    5.7304    3.8806   25.8363 H   0  0  0  0  0  0  0  0  0  0  0  0
    9.8703    3.8156   24.6405 H   0  0  0  0  0  0  0  0  0  0  0  0
    8.4825   -0.7940   18.0623 H   0  0  0  0  0  0  0  0  0  0  0  0
    8.8711   -5.6964   27.3038 H   0  0  0  0  0  0  0  0  0  0  0  0
    7.8758   -4.2402   26.9923 H   0  0  0  0  0  0  0  0  0  0  0  0
    9.5894   -4.0716   27.4566 H   0  0  0  0  0  0  0  0  0  0  0  0
   10.4274    1.9911   22.8906 H   0  0  0  0  0  0  0  0  0  0  0  0
   10.6011    0.9882   24.3313 H   0  0  0  0  0  0  0  0  0  0  0  0
    6.7266    0.4930   16.8305 H   0  0  0  0  0  0  0  0  0  0  0  0
    8.2383   -1.5634   21.0944 H   0  0  0  0  0  0  0  0  0  0  0  0
  1  2  1  0  0  0  0
  1  4  2  0  0  0  0
  2  6  2  0  0  0  0
  3  5  2  0  0  0  0
  3 11  1  0  0  0  0
  4 14  1  0  0  0  0
  5 15  1  0  0  0  0
  6 16  1  0  0  0  0
  7  9  2  0  0  0  0
  7 17  1  0  0  0  0
  8 10  1  0  0  0  0
  8 17  2  0  0  0  0
  9 19  1  0  0  0  0
 10 19  2  0  0  0  0
 11 20  2  0  0  0  0
 12 15  2  0  0  0  0
 12 20  1  0  0  0  0
 13 18  2  0  0  0  0
 13 24  1  0  0  0  0
 14 16  2  0  0  0  0
 14 18  1  0  0  0  0
 15 23  1  0  0  0  0
 16 24  1  0  0  0  0
 17 26  1  0  0  0  0
 18 25  1  0  0  0  0
 19 28  1  0  0  0  0
 20 29  1  0  0  0  0
 21 25  1  0  0  0  0
 21 26  1  0  0  0  0
 21 27  2  0  0  0  0
 22 28  1  0  0  0  0
 23 26  1  0  0  0  0
  1 30  1  0  0  0  0
  2 31  1  0  0  0  0
  3 32  1  0  0  0  0
  4 33  1  0  0  0  0
  5 34  1  0  0  0  0
  6 35  1  0  0  0  0
  7 36  1  0  0  0  0
  8 37  1  0  0  0  0
  9 38  1  0  0  0  0
 10 39  1  0  0  0  0
 11 40  1  0  0  0  0
 12 41  1  0  0  0  0
 13 42  1  0  0  0  0
 22 43  1  0  0  0  0
 22 44  1  0  0  0  0
 22 45  1  0  0  0  0
 23 46  1  0  0  0  0
 23 47  1  0  0  0  0
 24 48  1  0  0  0  0
 25 49  1  0  0  0  0
M  END
> <clash_score>
0

> <docking_score>
-7.399994850158691

$$$$
BENZO_131_1
  -OEChem-08212020033D

 49 52  0     0  0  0  0  0  0999 V2000
    4.2750    1.7050   20.8490 C   0  0  0  0  0  0  0  0  0  0  0  0
    3.9160    2.0630   19.5520 C   0  0  0  0  0  0  0  0  0  0  0  0
    5.4210    0.9600   21.0930 C   0  0  0  0  0  0  0  0  0  0  0  0
    4.6890    1.6810   18.4640 C   0  0  0  0  0  0  0  0  0  0  0  0
    9.0720   -1.1280   24.8640 C   0  0  0  0  0  0  0  0  0  0  0  0
    9.7200   -2.2600   22.8630 C   0  0  0  0  0  0  0  0  0  0  0  0
    8.9960   -2.3380   25.5320 C   0  0  0  0  0  0  0  0  0  0  0  0
    9.6730   -3.4710   23.5300 C   0  0  0  0  0  0  0  0  0  0  0  0
   12.1233    1.3811   24.9242 C   0  0  0  0  0  0  0  0  0  0  0  0
   12.3262    1.4247   22.7351 C   0  0  0  0  0  0  0  0  0  0  0  0
    7.6390   -0.2680   18.5410 C   0  0  0  0  0  0  0  0  0  0  0  0
    6.1790    0.5730   19.9990 C   0  0  0  0  0  0  0  0  0  0  0  0
   11.3794    1.3761   23.7290 C   0  0  0  0  0  0  0  0  0  0  0  0
    5.8300    0.9190   18.6970 C   0  0  0  0  0  0  0  0  0  0  0  0
    9.3350   -1.0880   23.5010 C   0  0  0  0  0  0  0  0  0  0  0  0
    7.3170   -0.1610   19.8550 C   0  0  0  0  0  0  0  0  0  0  0  0
    9.3070   -3.5340   24.8780 C   0  0  0  0  0  0  0  0  0  0  0  0
    9.0420    0.3700   21.5280 C   0  0  0  0  0  0  0  0  0  0  0  0
   14.8305    1.5084   22.7418 C   0  0  0  0  0  0  0  0  0  0  0  0
    8.8720   -4.6805   26.9013 C   0  0  0  0  0  0  0  0  0  0  0  0
    9.8870    1.3260   23.5730 C   0  0  0  0  0  0  0  0  0  0  0  0
   13.4410    1.4289   24.7112 N   0  0  0  0  0  0  0  0  0  0  0  0
    6.7580    0.3810   17.8350 N   0  0  0  0  0  0  0  0  0  0  0  0
   13.5326    1.4543   23.3706 N   0  0  0  0  0  0  0  0  0  0  0  0
    8.1890   -0.7180   20.8700 N   0  0  0  0  0  0  0  0  0  0  0  0
    9.4560    0.1560   22.8130 N   0  0  0  0  0  0  0  0  0  0  0  0
    9.2690    1.4140   20.9380 O   0  0  0  0  0  0  0  0  0  0  0  0
    9.2555   -4.7124   25.5274 O   0  0  0  0  0  0  0  0  0  0  0  0
    3.6453    2.0152   21.6831 H   0  0  0  0  0  0  0  0  0  0  0  0
    3.0147    2.6520   19.3913 H   0  0  0  0  0  0  0  0  0  0  0  0
    5.6991    0.6995   22.1042 H   0  0  0  0  0  0  0  0  0  0  0  0
    4.4051    1.9733   17.4488 H   0  0  0  0  0  0  0  0  0  0  0  0
    8.9221   -0.1995   25.4231 H   0  0  0  0  0  0  0  0  0  0  0  0
   10.0642   -2.2347   21.8253 H   0  0  0  0  0  0  0  0  0  0  0  0
    8.6902   -2.3588   26.5805 H   0  0  0  0  0  0  0  0  0  0  0  0
    9.9254   -4.3921   22.9961 H   0  0  0  0  0  0  0  0  0  0  0  0
   11.7624    1.3510   25.9426 H   0  0  0  0  0  0  0  0  0  0  0  0
   12.2462    1.4390   21.6566 H   0  0  0  0  0  0  0  0  0  0  0  0
    8.4825   -0.7940   18.0623 H   0  0  0  0  0  0  0  0  0  0  0  0
   15.0990    2.5601   22.6124 H   0  0  0  0  0  0  0  0  0  0  0  0
   15.5636    1.0018   23.3756 H   0  0  0  0  0  0  0  0  0  0  0  0
   14.7841    1.0025   21.7733 H   0  0  0  0  0  0  0  0  0  0  0  0
    8.8711   -5.6964   27.3038 H   0  0  0  0  0  0  0  0  0  0  0  0
    7.8758   -4.2402   26.9923 H   0  0  0  0  0  0  0  0  0  0  0  0
    9.5894   -4.0716   27.4566 H   0  0  0  0  0  0  0  0  0  0  0  0
    9.3974    1.2912   24.5523 H   0  0  0  0  0  0  0  0  0  0  0  0
    9.5159    2.2168   23.0553 H   0  0  0  0  0  0  0  0  0  0  0  0
    6.7266    0.4930   16.8305 H   0  0  0  0  0  0  0  0  0  0  0  0
    8.2383   -1.5634   21.0944 H   0  0  0  0  0  0  0  0  0  0  0  0
  1  2  1  0  0  0  0
  1  3  2  0  0  0  0
  2  4  2  0  0  0  0
  3 12  1  0  0  0  0
  4 14  1  0  0  0  0
  5  7  2  0  0  0  0
  5 15  1  0  0  0  0
  6  8  1  0  0  0  0
  6 15  2  0  0  0  0
  7 17  1  0  0  0  0
  8 17  2  0  0  0  0
  9 13  1  0  0  0  0
  9 22  2  0  0  0  0
 10 13  2  0  0  0  0
 10 24  1  0  0  0  0
 11 16  2  0  0  0  0
 11 23  1  0  0  0  0
 12 14  2  0  0  0  0
 12 16  1  0  0  0  0
 13 21  1  0  0  0  0
 14 23  1  0  0  0  0
 15 26  1  0  0  0  0
 16 25  1  0  0  0  0
 17 28  1  0  0  0  0
 18 25  1  0  0  0  0
 18 26  1  0  0  0  0
 18 27  2  0  0  0  0
 19 24  1  0  0  0  0
 20 28  1  0  0  0  0
 21 26  1  0  0  0  0
 22 24  1  0  0  0  0
  1 29  1  0  0  0  0
  2 30  1  0  0  0  0
  3 31  1  0  0  0  0
  4 32  1  0  0  0  0
  5 33  1  0  0  0  0
  6 34  1  0  0  0  0
  7 35  1  0  0  0  0
  8 36  1  0  0  0  0
  9 37  1  0  0  0  0
 10 38  1  0  0  0  0
 11 39  1  0  0  0  0
 19 40  1  0  0  0  0
 19 41  1  0  0  0  0
 19 42  1  0  0  0  0
 20 43  1  0  0  0  0
 20 44  1  0  0  0  0
 20 45  1  0  0  0  0
 21 46  1  0  0  0  0
 21 47  1  0  0  0  0
 23 48  1  0  0  0  0
 25 49  1  0  0  0  0
M  END
> <clash_score>
0

> <docking_score>
-7.730113983154297

$$$$
BENZO_133_1
  -OEChem-08212020033D

 59 63  0     0  0  0  0  0  0999 V2000
   14.1526    1.4694   24.0176 C   0  0  0  0  0  0  0  0  0  0  0  0
    4.2750    1.7050   20.8490 C   0  0  0  0  0  0  0  0  0  0  0  0
   13.3741    0.8121   24.9701 C   0  0  0  0  0  0  0  0  0  0  0  0
   13.5446    2.0802   22.9208 C   0  0  0  0  0  0  0  0  0  0  0  0
    3.9160    2.0630   19.5520 C   0  0  0  0  0  0  0  0  0  0  0  0
    5.4210    0.9600   21.0930 C   0  0  0  0  0  0  0  0  0  0  0  0
   11.9875    0.7654   24.8259 C   0  0  0  0  0  0  0  0  0  0  0  0
   12.1580    2.0335   22.7765 C   0  0  0  0  0  0  0  0  0  0  0  0
    4.6890    1.6810   18.4640 C   0  0  0  0  0  0  0  0  0  0  0  0
    8.9960   -2.3380   25.5320 C   0  0  0  0  0  0  0  0  0  0  0  0
    9.6730   -3.4710   23.5300 C   0  0  0  0  0  0  0  0  0  0  0  0
    9.0720   -1.1280   24.8640 C   0  0  0  0  0  0  0  0  0  0  0  0
    9.7200   -2.2600   22.8630 C   0  0  0  0  0  0  0  0  0  0  0  0
    7.6390   -0.2680   18.5410 C   0  0  0  0  0  0  0  0  0  0  0  0
    6.1790    0.5730   19.9990 C   0  0  0  0  0  0  0  0  0  0  0  0
   11.3794    1.3761   23.7290 C   0  0  0  0  0  0  0  0  0  0  0  0
    5.8300    0.9190   18.6970 C   0  0  0  0  0  0  0  0  0  0  0  0
    9.3070   -3.5340   24.8780 C   0  0  0  0  0  0  0  0  0  0  0  0
    9.3350   -1.0880   23.5010 C   0  0  0  0  0  0  0  0  0  0  0  0
    7.3170   -0.1610   19.8550 C   0  0  0  0  0  0  0  0  0  0  0  0
    8.3597   -5.0073   26.6307 C   0  0  0  0  0  0  0  0  0  0  0  0
    9.0420    0.3700   21.5280 C   0  0  0  0  0  0  0  0  0  0  0  0
    8.4720   -6.3981   27.2296 C   0  0  0  0  0  0  0  0  0  0  0  0
    9.9252   -6.7605   27.4803 C   0  0  0  0  0  0  0  0  0  0  0  0
   10.7833   -6.6094   26.2282 C   0  0  0  0  0  0  0  0  0  0  0  0
   10.0539   -5.9099   25.0823 C   0  0  0  0  0  0  0  0  0  0  0  0
    9.8870    1.3260   23.5730 C   0  0  0  0  0  0  0  0  0  0  0  0
    6.7580    0.3810   17.8350 N   0  0  0  0  0  0  0  0  0  0  0  0
    9.2529   -4.7797   25.5644 N   0  0  0  0  0  0  0  0  0  0  0  0
    8.1890   -0.7180   20.8700 N   0  0  0  0  0  0  0  0  0  0  0  0
    9.4560    0.1560   22.8130 N   0  0  0  0  0  0  0  0  0  0  0  0
    7.4954   -4.2356   27.0449 O   0  0  0  0  0  0  0  0  0  0  0  0
    9.2690    1.4140   20.9380 O   0  0  0  0  0  0  0  0  0  0  0  0
   15.2322    1.5068   24.1308 H   0  0  0  0  0  0  0  0  0  0  0  0
    3.6453    2.0152   21.6831 H   0  0  0  0  0  0  0  0  0  0  0  0
   13.8473    0.3374   25.8248 H   0  0  0  0  0  0  0  0  0  0  0  0
   14.1503    2.5930   22.1795 H   0  0  0  0  0  0  0  0  0  0  0  0
    3.0147    2.6520   19.3913 H   0  0  0  0  0  0  0  0  0  0  0  0
    5.6991    0.6995   22.1042 H   0  0  0  0  0  0  0  0  0  0  0  0
   11.3889    0.2508   25.5729 H   0  0  0  0  0  0  0  0  0  0  0  0
   11.6930    2.5120   21.9187 H   0  0  0  0  0  0  0  0  0  0  0  0
    4.4051    1.9733   17.4488 H   0  0  0  0  0  0  0  0  0  0  0  0
    8.6895   -2.3529   26.5807 H   0  0  0  0  0  0  0  0  0  0  0  0
    9.9262   -4.3897   22.9916 H   0  0  0  0  0  0  0  0  0  0  0  0
    8.9224   -0.1998   25.4238 H   0  0  0  0  0  0  0  0  0  0  0  0
   10.0649   -2.2343   21.8258 H   0  0  0  0  0  0  0  0  0  0  0  0
    8.4825   -0.7940   18.0623 H   0  0  0  0  0  0  0  0  0  0  0  0
    7.9325   -6.4148   28.1641 H   0  0  0  0  0  0  0  0  0  0  0  0
    8.0254   -7.0920   26.5333 H   0  0  0  0  0  0  0  0  0  0  0  0
   10.3387   -6.1267   28.2923 H   0  0  0  0  0  0  0  0  0  0  0  0
    9.9904   -7.8023   27.8537 H   0  0  0  0  0  0  0  0  0  0  0  0
   11.7037   -6.0404   26.4771 H   0  0  0  0  0  0  0  0  0  0  0  0
   11.1411   -7.6068   25.8918 H   0  0  0  0  0  0  0  0  0  0  0  0
   10.7782   -5.5162   24.3756 H   0  0  0  0  0  0  0  0  0  0  0  0
    9.4042   -6.6189   24.5807 H   0  0  0  0  0  0  0  0  0  0  0  0
    9.3974    1.2912   24.5523 H   0  0  0  0  0  0  0  0  0  0  0  0
    9.5159    2.2168   23.0553 H   0  0  0  0  0  0  0  0  0  0  0  0
    6.7266    0.4930   16.8305 H   0  0  0  0  0  0  0  0  0  0  0  0
    8.2565   -1.5523   21.1108 H   0  0  0  0  0  0  0  0  0  0  0  0
  1  3  1  0  0  0  0
  1  4  2  0  0  0  0
  2  5  1  0  0  0  0
  2  6  2  0  0  0  0
  3  7  2  0  0  0  0
  4  8  1  0  0  0  0
  5  9  2  0  0  0  0
  6 15  1  0  0  0  0
  7 16  1  0  0  0  0
  8 16  2  0  0  0  0
  9 17  1  0  0  0  0
 10 12  2  0  0  0  0
 10 18  1  0  0  0  0
 11 13  1  0  0  0  0
 11 18  2  0  0  0  0
 12 19  1  0  0  0  0
 13 19  2  0  0  0  0
 14 20  2  0  0  0  0
 14 28  1  0  0  0  0
 15 17  2  0  0  0  0
 15 20  1  0  0  0  0
 16 27  1  0  0  0  0
 17 28  1  0  0  0  0
 18 29  1  0  0  0  0
 19 31  1  0  0  0  0
 20 30  1  0  0  0  0
 21 23  1  0  0  0  0
 21 29  1  0  0  0  0
 21 32  2  0  0  0  0
 22 30  1  0  0  0  0
 22 31  1  0  0  0  0
 22 33  2  0  0  0  0
 23 24  1  0  0  0  0
 24 25  1  0  0  0  0
 25 26  1  0  0  0  0
 26 29  1  0  0  0  0
 27 31  1  0  0  0  0
  1 34  1  0  0  0  0
  2 35  1  0  0  0  0
  3 36  1  0  0  0  0
  4 37  1  0  0  0  0
  5 38  1  0  0  0  0
  6 39  1  0  0  0  0
  7 40  1  0  0  0  0
  8 41  1  0  0  0  0
  9 42  1  0  0  0  0
 10 43  1  0  0  0  0
 11 44  1  0  0  0  0
 12 45  1  0  0  0  0
 13 46  1  0  0  0  0
 14 47  1  0  0  0  0
 23 48  1  0  0  0  0
 23 49  1  0  0  0  0
 24 50  1  0  0  0  0
 24 51  1  0  0  0  0
 25 52  1  0  0  0  0
 25 53  1  0  0  0  0
 26 54  1  0  0  0  0
 26 55  1  0  0  0  0
 27 56  1  0  0  0  0
 27 57  1  0  0  0  0
 28 58  1  0  0  0  0
 30 59  1  0  0  0  0
M  END
> <clash_score>
0.7790751876189459

> <docking_score>
-7.373590469360352

$$$$
BENZO_132_1
  -OEChem-08212020033D

 56 60  0     0  0  0  0  0  0999 V2000
    4.2750    1.7050   20.8490 C   0  0  0  0  0  0  0  0  0  0  0  0
    3.9160    2.0630   19.5520 C   0  0  0  0  0  0  0  0  0  0  0  0
    5.4210    0.9600   21.0930 C   0  0  0  0  0  0  0  0  0  0  0  0
    4.6890    1.6810   18.4640 C   0  0  0  0  0  0  0  0  0  0  0  0
    8.9960   -2.3380   25.5320 C   0  0  0  0  0  0  0  0  0  0  0  0
    9.6730   -3.4710   23.5300 C   0  0  0  0  0  0  0  0  0  0  0  0
    9.0720   -1.1280   24.8640 C   0  0  0  0  0  0  0  0  0  0  0  0
    9.7200   -2.2600   22.8630 C   0  0  0  0  0  0  0  0  0  0  0  0
   12.2913    1.4279   22.6355 C   0  0  0  0  0  0  0  0  0  0  0  0
    7.6390   -0.2680   18.5410 C   0  0  0  0  0  0  0  0  0  0  0  0
   13.6024    1.4661   23.0564 C   0  0  0  0  0  0  0  0  0  0  0  0
   12.0284    1.3764   24.9443 C   0  0  0  0  0  0  0  0  0  0  0  0
    6.1790    0.5730   19.9990 C   0  0  0  0  0  0  0  0  0  0  0  0
   11.3794    1.3761   23.7290 C   0  0  0  0  0  0  0  0  0  0  0  0
    5.8300    0.9190   18.6970 C   0  0  0  0  0  0  0  0  0  0  0  0
    9.3070   -3.5340   24.8780 C   0  0  0  0  0  0  0  0  0  0  0  0
    9.3350   -1.0880   23.5010 C   0  0  0  0  0  0  0  0  0  0  0  0
    7.3170   -0.1610   19.8550 C   0  0  0  0  0  0  0  0  0  0  0  0
    8.3597   -5.0073   26.6307 C   0  0  0  0  0  0  0  0  0  0  0  0
    9.0420    0.3700   21.5280 C   0  0  0  0  0  0  0  0  0  0  0  0
    8.4720   -6.3981   27.2296 C   0  0  0  0  0  0  0  0  0  0  0  0
    9.9252   -6.7605   27.4803 C   0  0  0  0  0  0  0  0  0  0  0  0
   10.7833   -6.6094   26.2282 C   0  0  0  0  0  0  0  0  0  0  0  0
   10.0539   -5.9099   25.0823 C   0  0  0  0  0  0  0  0  0  0  0  0
    9.8870    1.3260   23.5730 C   0  0  0  0  0  0  0  0  0  0  0  0
    6.7580    0.3810   17.8350 N   0  0  0  0  0  0  0  0  0  0  0  0
    9.2529   -4.7797   25.5644 N   0  0  0  0  0  0  0  0  0  0  0  0
    8.1890   -0.7180   20.8700 N   0  0  0  0  0  0  0  0  0  0  0  0
    9.4560    0.1560   22.8130 N   0  0  0  0  0  0  0  0  0  0  0  0
    7.4954   -4.2356   27.0449 O   0  0  0  0  0  0  0  0  0  0  0  0
    9.2690    1.4140   20.9380 O   0  0  0  0  0  0  0  0  0  0  0  0
   13.7301    1.4394   24.7638 S   0  0  0  0  0  0  0  0  0  0  0  0
    3.6453    2.0152   21.6831 H   0  0  0  0  0  0  0  0  0  0  0  0
    3.0147    2.6520   19.3913 H   0  0  0  0  0  0  0  0  0  0  0  0
    5.6991    0.6995   22.1042 H   0  0  0  0  0  0  0  0  0  0  0  0
    4.4051    1.9733   17.4488 H   0  0  0  0  0  0  0  0  0  0  0  0
    8.6895   -2.3529   26.5807 H   0  0  0  0  0  0  0  0  0  0  0  0
    9.9262   -4.3897   22.9916 H   0  0  0  0  0  0  0  0  0  0  0  0
    8.9224   -0.1998   25.4238 H   0  0  0  0  0  0  0  0  0  0  0  0
   10.0649   -2.2343   21.8258 H   0  0  0  0  0  0  0  0  0  0  0  0
   12.0045    1.4365   21.5915 H   0  0  0  0  0  0  0  0  0  0  0  0
    8.4825   -0.7940   18.0623 H   0  0  0  0  0  0  0  0  0  0  0  0
   14.4914    1.5078   22.4431 H   0  0  0  0  0  0  0  0  0  0  0  0
   11.5886    1.3416   25.9314 H   0  0  0  0  0  0  0  0  0  0  0  0
    7.9325   -6.4148   28.1641 H   0  0  0  0  0  0  0  0  0  0  0  0
    8.0254   -7.0920   26.5333 H   0  0  0  0  0  0  0  0  0  0  0  0
   10.3387   -6.1267   28.2923 H   0  0  0  0  0  0  0  0  0  0  0  0
    9.9904   -7.8023   27.8537 H   0  0  0  0  0  0  0  0  0  0  0  0
   11.7037   -6.0404   26.4771 H   0  0  0  0  0  0  0  0  0  0  0  0
   11.1411   -7.6068   25.8918 H   0  0  0  0  0  0  0  0  0  0  0  0
   10.7782   -5.5162   24.3756 H   0  0  0  0  0  0  0  0  0  0  0  0
    9.4042   -6.6189   24.5807 H   0  0  0  0  0  0  0  0  0  0  0  0
    9.3974    1.2912   24.5523 H   0  0  0  0  0  0  0  0  0  0  0  0
    9.5159    2.2168   23.0553 H   0  0  0  0  0  0  0  0  0  0  0  0
    6.7266    0.4930   16.8305 H   0  0  0  0  0  0  0  0  0  0  0  0
    8.2565   -1.5523   21.1108 H   0  0  0  0  0  0  0  0  0  0  0  0
  1  2  1  0  0  0  0
  1  3  2  0  0  0  0
  2  4  2  0  0  0  0
  3 13  1  0  0  0  0
  4 15  1  0  0  0  0
  5  7  2  0  0  0  0
  5 16  1  0  0  0  0
  6  8  1  0  0  0  0
  6 16  2  0  0  0  0
  7 17  1  0  0  0  0
  8 17  2  0  0  0  0
  9 11  2  0  0  0  0
  9 14  1  0  0  0  0
 10 18  2  0  0  0  0
 10 26  1  0  0  0  0
 11 32  1  0  0  0  0
 12 14  2  0  0  0  0
 12 32  1  0  0  0  0
 13 15  2  0  0  0  0
 13 18  1  0  0  0  0
 14 25  1  0  0  0  0
 15 26  1  0  0  0  0
 16 27  1  0  0  0  0
 17 29  1  0  0  0  0
 18 28  1  0  0  0  0
 19 21  1  0  0  0  0
 19 27  1  0  0  0  0
 19 30  2  0  0  0  0
 20 28  1  0  0  0  0
 20 29  1  0  0  0  0
 20 31  2  0  0  0  0
 21 22  1  0  0  0  0
 22 23  1  0  0  0  0
 23 24  1  0  0  0  0
 24 27  1  0  0  0  0
 25 29  1  0  0  0  0
  1 33  1  0  0  0  0
  2 34  1  0  0  0  0
  3 35  1  0  0  0  0
  4 36  1  0  0  0  0
  5 37  1  0  0  0  0
  6 38  1  0  0  0  0
  7 39  1  0  0  0  0
  8 40  1  0  0  0  0
  9 41  1  0  0  0  0
 10 42  1  0  0  0  0
 11 43  1  0  0  0  0
 12 44  1  0  0  0  0
 21 45  1  0  0  0  0
 21 46  1  0  0  0  0
 22 47  1  0  0  0  0
 22 48  1  0  0  0  0
 23 49  1  0  0  0  0
 23 50  1  0  0  0  0
 24 51  1  0  0  0  0
 24 52  1  0  0  0  0
 25 53  1  0  0  0  0
 25 54  1  0  0  0  0
 26 55  1  0  0  0  0
 28 56  1  0  0  0  0
M  END
> <clash_score>
0.7790751876189459

> <docking_score>
-7.4524712562561035

$$$$
BENZO_134_1
  -OEChem-08212020033D

 59 63  0     0  0  0  0  0  0999 V2000
    4.2750    1.7050   20.8490 C   0  0  0  0  0  0  0  0  0  0  0  0
    3.9160    2.0630   19.5520 C   0  0  0  0  0  0  0  0  0  0  0  0
    6.4089    2.0844   24.8766 C   0  0  0  0  0  0  0  0  0  0  0  0
    5.4210    0.9600   21.0930 C   0  0  0  0  0  0  0  0  0  0  0  0
    7.4847    1.4191   24.2887 C   0  0  0  0  0  0  0  0  0  0  0  0
    4.6890    1.6810   18.4640 C   0  0  0  0  0  0  0  0  0  0  0  0
    8.9960   -2.3380   25.5320 C   0  0  0  0  0  0  0  0  0  0  0  0
    9.6730   -3.4710   23.5300 C   0  0  0  0  0  0  0  0  0  0  0  0
    9.0720   -1.1280   24.8640 C   0  0  0  0  0  0  0  0  0  0  0  0
    9.7200   -2.2600   22.8630 C   0  0  0  0  0  0  0  0  0  0  0  0
    6.5777    3.3741   25.3805 C   0  0  0  0  0  0  0  0  0  0  0  0
    8.8980    3.3330   24.7088 C   0  0  0  0  0  0  0  0  0  0  0  0
    7.6390   -0.2680   18.5410 C   0  0  0  0  0  0  0  0  0  0  0  0
    6.1790    0.5730   19.9990 C   0  0  0  0  0  0  0  0  0  0  0  0
    8.7292    2.0433   24.2048 C   0  0  0  0  0  0  0  0  0  0  0  0
    5.8300    0.9190   18.6970 C   0  0  0  0  0  0  0  0  0  0  0  0
    9.3070   -3.5340   24.8780 C   0  0  0  0  0  0  0  0  0  0  0  0
    9.3350   -1.0880   23.5010 C   0  0  0  0  0  0  0  0  0  0  0  0
    7.3170   -0.1610   19.8550 C   0  0  0  0  0  0  0  0  0  0  0  0
    7.8222    3.9984   25.2966 C   0  0  0  0  0  0  0  0  0  0  0  0
    8.3597   -5.0073   26.6307 C   0  0  0  0  0  0  0  0  0  0  0  0
    9.0420    0.3700   21.5280 C   0  0  0  0  0  0  0  0  0  0  0  0
    8.4720   -6.3981   27.2296 C   0  0  0  0  0  0  0  0  0  0  0  0
    9.9252   -6.7605   27.4803 C   0  0  0  0  0  0  0  0  0  0  0  0
   10.7833   -6.6094   26.2282 C   0  0  0  0  0  0  0  0  0  0  0  0
   10.0539   -5.9099   25.0823 C   0  0  0  0  0  0  0  0  0  0  0  0
    9.8870    1.3260   23.5730 C   0  0  0  0  0  0  0  0  0  0  0  0
    6.7580    0.3810   17.8350 N   0  0  0  0  0  0  0  0  0  0  0  0
    9.2529   -4.7797   25.5644 N   0  0  0  0  0  0  0  0  0  0  0  0
    8.1890   -0.7180   20.8700 N   0  0  0  0  0  0  0  0  0  0  0  0
    9.4560    0.1560   22.8130 N   0  0  0  0  0  0  0  0  0  0  0  0
    7.4954   -4.2356   27.0449 O   0  0  0  0  0  0  0  0  0  0  0  0
    9.2690    1.4140   20.9380 O   0  0  0  0  0  0  0  0  0  0  0  0
    8.0301    5.5891   25.9196 Cl  0  0  0  0  0  0  0  0  0  0  0  0
    3.6453    2.0152   21.6831 H   0  0  0  0  0  0  0  0  0  0  0  0
    3.0147    2.6520   19.3913 H   0  0  0  0  0  0  0  0  0  0  0  0
    5.4400    1.5979   24.9418 H   0  0  0  0  0  0  0  0  0  0  0  0
    5.6991    0.6995   22.1042 H   0  0  0  0  0  0  0  0  0  0  0  0
    7.3441    0.4143   23.8988 H   0  0  0  0  0  0  0  0  0  0  0  0
    4.4051    1.9733   17.4488 H   0  0  0  0  0  0  0  0  0  0  0  0
    8.6895   -2.3529   26.5807 H   0  0  0  0  0  0  0  0  0  0  0  0
    9.9262   -4.3897   22.9916 H   0  0  0  0  0  0  0  0  0  0  0  0
    8.9224   -0.1998   25.4238 H   0  0  0  0  0  0  0  0  0  0  0  0
   10.0649   -2.2343   21.8258 H   0  0  0  0  0  0  0  0  0  0  0  0
    5.7304    3.8806   25.8363 H   0  0  0  0  0  0  0  0  0  0  0  0
    9.8702    3.8156   24.6405 H   0  0  0  0  0  0  0  0  0  0  0  0
    8.4825   -0.7940   18.0623 H   0  0  0  0  0  0  0  0  0  0  0  0
    7.9325   -6.4148   28.1641 H   0  0  0  0  0  0  0  0  0  0  0  0
    8.0254   -7.0920   26.5333 H   0  0  0  0  0  0  0  0  0  0  0  0
   10.3387   -6.1267   28.2923 H   0  0  0  0  0  0  0  0  0  0  0  0
    9.9904   -7.8023   27.8537 H   0  0  0  0  0  0  0  0  0  0  0  0
   11.7037   -6.0404   26.4771 H   0  0  0  0  0  0  0  0  0  0  0  0
   11.1411   -7.6068   25.8918 H   0  0  0  0  0  0  0  0  0  0  0  0
   10.7782   -5.5162   24.3756 H   0  0  0  0  0  0  0  0  0  0  0  0
    9.4042   -6.6189   24.5807 H   0  0  0  0  0  0  0  0  0  0  0  0
   10.4274    1.9911   22.8906 H   0  0  0  0  0  0  0  0  0  0  0  0
   10.6011    0.9882   24.3313 H   0  0  0  0  0  0  0  0  0  0  0  0
    6.7266    0.4930   16.8305 H   0  0  0  0  0  0  0  0  0  0  0  0
    8.2565   -1.5523   21.1108 H   0  0  0  0  0  0  0  0  0  0  0  0
  1  2  1  0  0  0  0
  1  4  2  0  0  0  0
  2  6  2  0  0  0  0
  3  5  2  0  0  0  0
  3 11  1  0  0  0  0
  4 14  1  0  0  0  0
  5 15  1  0  0  0  0
  6 16  1  0  0  0  0
  7  9  2  0  0  0  0
  7 17  1  0  0  0  0
  8 10  1  0  0  0  0
  8 17  2  0  0  0  0
  9 18  1  0  0  0  0
 10 18  2  0  0  0  0
 11 20  2  0  0  0  0
 12 15  2  0  0  0  0
 12 20  1  0  0  0  0
 13 19  2  0  0  0  0
 13 28  1  0  0  0  0
 14 16  2  0  0  0  0
 14 19  1  0  0  0  0
 15 27  1  0  0  0  0
 16 28  1  0  0  0  0
 17 29  1  0  0  0  0
 18 31  1  0  0  0  0
 19 30  1  0  0  0  0
 20 34  1  0  0  0  0
 21 23  1  0  0  0  0
 21 29  1  0  0  0  0
 21 32  2  0  0  0  0
 22 30  1  0  0  0  0
 22 31  1  0  0  0  0
 22 33  2  0  0  0  0
 23 24  1  0  0  0  0
 24 25  1  0  0  0  0
 25 26  1  0  0  0  0
 26 29  1  0  0  0  0
 27 31  1  0  0  0  0
  1 35  1  0  0  0  0
  2 36  1  0  0  0  0
  3 37  1  0  0  0  0
  4 38  1  0  0  0  0
  5 39  1  0  0  0  0
  6 40  1  0  0  0  0
  7 41  1  0  0  0  0
  8 42  1  0  0  0  0
  9 43  1  0  0  0  0
 10 44  1  0  0  0  0
 11 45  1  0  0  0  0
 12 46  1  0  0  0  0
 13 47  1  0  0  0  0
 23 48  1  0  0  0  0
 23 49  1  0  0  0  0
 24 50  1  0  0  0  0
 24 51  1  0  0  0  0
 25 52  1  0  0  0  0
 25 53  1  0  0  0  0
 26 54  1  0  0  0  0
 26 55  1  0  0  0  0
 27 56  1  0  0  0  0
 27 57  1  0  0  0  0
 28 58  1  0  0  0  0
 30 59  1  0  0  0  0
M  END
> <clash_score>
0.7790751876189459

> <docking_score>
-6.75962495803833

$$$$
BENZO_135_1
  -OEChem-08212020033D

 59 63  0     0  0  0  0  0  0999 V2000
    4.2750    1.7050   20.8490 C   0  0  0  0  0  0  0  0  0  0  0  0
    3.9160    2.0630   19.5520 C   0  0  0  0  0  0  0  0  0  0  0  0
    5.4210    0.9600   21.0930 C   0  0  0  0  0  0  0  0  0  0  0  0
    4.6890    1.6810   18.4640 C   0  0  0  0  0  0  0  0  0  0  0  0
    8.9960   -2.3380   25.5320 C   0  0  0  0  0  0  0  0  0  0  0  0
    9.6730   -3.4710   23.5300 C   0  0  0  0  0  0  0  0  0  0  0  0
    9.0720   -1.1280   24.8640 C   0  0  0  0  0  0  0  0  0  0  0  0
    9.7200   -2.2600   22.8630 C   0  0  0  0  0  0  0  0  0  0  0  0
   12.1233    1.3811   24.9242 C   0  0  0  0  0  0  0  0  0  0  0  0
   12.3262    1.4247   22.7351 C   0  0  0  0  0  0  0  0  0  0  0  0
    7.6390   -0.2680   18.5410 C   0  0  0  0  0  0  0  0  0  0  0  0
    6.1790    0.5730   19.9990 C   0  0  0  0  0  0  0  0  0  0  0  0
   11.3794    1.3761   23.7290 C   0  0  0  0  0  0  0  0  0  0  0  0
    5.8300    0.9190   18.6970 C   0  0  0  0  0  0  0  0  0  0  0  0
    9.3070   -3.5340   24.8780 C   0  0  0  0  0  0  0  0  0  0  0  0
    9.3350   -1.0880   23.5010 C   0  0  0  0  0  0  0  0  0  0  0  0
    7.3170   -0.1610   19.8550 C   0  0  0  0  0  0  0  0  0  0  0  0
    8.3597   -5.0073   26.6307 C   0  0  0  0  0  0  0  0  0  0  0  0
    9.0420    0.3700   21.5280 C   0  0  0  0  0  0  0  0  0  0  0  0
    8.4720   -6.3981   27.2296 C   0  0  0  0  0  0  0  0  0  0  0  0
    9.9252   -6.7605   27.4803 C   0  0  0  0  0  0  0  0  0  0  0  0
   10.7833   -6.6094   26.2282 C   0  0  0  0  0  0  0  0  0  0  0  0
   10.0539   -5.9099   25.0823 C   0  0  0  0  0  0  0  0  0  0  0  0
   14.8305    1.5084   22.7418 C   0  0  0  0  0  0  0  0  0  0  0  0
    9.8870    1.3260   23.5730 C   0  0  0  0  0  0  0  0  0  0  0  0
   13.4410    1.4289   24.7112 N   0  0  0  0  0  0  0  0  0  0  0  0
    6.7580    0.3810   17.8350 N   0  0  0  0  0  0  0  0  0  0  0  0
   13.5326    1.4543   23.3706 N   0  0  0  0  0  0  0  0  0  0  0  0
    9.2529   -4.7797   25.5644 N   0  0  0  0  0  0  0  0  0  0  0  0
    8.1890   -0.7180   20.8700 N   0  0  0  0  0  0  0  0  0  0  0  0
    9.4560    0.1560   22.8130 N   0  0  0  0  0  0  0  0  0  0  0  0
    7.4954   -4.2356   27.0449 O   0  0  0  0  0  0  0  0  0  0  0  0
    9.2690    1.4140   20.9380 O   0  0  0  0  0  0  0  0  0  0  0  0
    3.6453    2.0152   21.6831 H   0  0  0  0  0  0  0  0  0  0  0  0
    3.0147    2.6520   19.3913 H   0  0  0  0  0  0  0  0  0  0  0  0
    5.6991    0.6995   22.1042 H   0  0  0  0  0  0  0  0  0  0  0  0
    4.4051    1.9733   17.4488 H   0  0  0  0  0  0  0  0  0  0  0  0
    8.6895   -2.3529   26.5807 H   0  0  0  0  0  0  0  0  0  0  0  0
    9.9262   -4.3897   22.9916 H   0  0  0  0  0  0  0  0  0  0  0  0
    8.9224   -0.1998   25.4238 H   0  0  0  0  0  0  0  0  0  0  0  0
   10.0649   -2.2343   21.8258 H   0  0  0  0  0  0  0  0  0  0  0  0
   11.7624    1.3510   25.9426 H   0  0  0  0  0  0  0  0  0  0  0  0
   12.2462    1.4390   21.6566 H   0  0  0  0  0  0  0  0  0  0  0  0
    8.4825   -0.7940   18.0623 H   0  0  0  0  0  0  0  0  0  0  0  0
    7.9325   -6.4148   28.1641 H   0  0  0  0  0  0  0  0  0  0  0  0
    8.0254   -7.0920   26.5333 H   0  0  0  0  0  0  0  0  0  0  0  0
   10.3387   -6.1267   28.2923 H   0  0  0  0  0  0  0  0  0  0  0  0
    9.9904   -7.8023   27.8537 H   0  0  0  0  0  0  0  0  0  0  0  0
   11.7037   -6.0404   26.4771 H   0  0  0  0  0  0  0  0  0  0  0  0
   11.1411   -7.6068   25.8918 H   0  0  0  0  0  0  0  0  0  0  0  0
   10.7782   -5.5162   24.3756 H   0  0  0  0  0  0  0  0  0  0  0  0
    9.4042   -6.6189   24.5807 H   0  0  0  0  0  0  0  0  0  0  0  0
   15.0990    2.5601   22.6124 H   0  0  0  0  0  0  0  0  0  0  0  0
   15.5636    1.0018   23.3756 H   0  0  0  0  0  0  0  0  0  0  0  0
   14.7842    1.0025   21.7733 H   0  0  0  0  0  0  0  0  0  0  0  0
    9.3974    1.2912   24.5523 H   0  0  0  0  0  0  0  0  0  0  0  0
    9.5159    2.2168   23.0553 H   0  0  0  0  0  0  0  0  0  0  0  0
    6.7266    0.4930   16.8305 H   0  0  0  0  0  0  0  0  0  0  0  0
    8.2565   -1.5523   21.1108 H   0  0  0  0  0  0  0  0  0  0  0  0
  1  2  1  0  0  0  0
  1  3  2  0  0  0  0
  2  4  2  0  0  0  0
  3 12  1  0  0  0  0
  4 14  1  0  0  0  0
  5  7  2  0  0  0  0
  5 15  1  0  0  0  0
  6  8  1  0  0  0  0
  6 15  2  0  0  0  0
  7 16  1  0  0  0  0
  8 16  2  0  0  0  0
  9 13  1  0  0  0  0
  9 26  2  0  0  0  0
 10 13  2  0  0  0  0
 10 28  1  0  0  0  0
 11 17  2  0  0  0  0
 11 27  1  0  0  0  0
 12 14  2  0  0  0  0
 12 17  1  0  0  0  0
 13 25  1  0  0  0  0
 14 27  1  0  0  0  0
 15 29  1  0  0  0  0
 16 31  1  0  0  0  0
 17 30  1  0  0  0  0
 18 20  1  0  0  0  0
 18 29  1  0  0  0  0
 18 32  2  0  0  0  0
 19 30  1  0  0  0  0
 19 31  1  0  0  0  0
 19 33  2  0  0  0  0
 20 21  1  0  0  0  0
 21 22  1  0  0  0  0
 22 23  1  0  0  0  0
 23 29  1  0  0  0  0
 24 28  1  0  0  0  0
 25 31  1  0  0  0  0
 26 28  1  0  0  0  0
  1 34  1  0  0  0  0
  2 35  1  0  0  0  0
  3 36  1  0  0  0  0
  4 37  1  0  0  0  0
  5 38  1  0  0  0  0
  6 39  1  0  0  0  0
  7 40  1  0  0  0  0
  8 41  1  0  0  0  0
  9 42  1  0  0  0  0
 10 43  1  0  0  0  0
 11 44  1  0  0  0  0
 20 45  1  0  0  0  0
 20 46  1  0  0  0  0
 21 47  1  0  0  0  0
 21 48  1  0  0  0  0
 22 49  1  0  0  0  0
 22 50  1  0  0  0  0
 23 51  1  0  0  0  0
 23 52  1  0  0  0  0
 24 53  1  0  0  0  0
 24 54  1  0  0  0  0
 24 55  1  0  0  0  0
 25 56  1  0  0  0  0
 25 57  1  0  0  0  0
 27 58  1  0  0  0  0
 30 59  1  0  0  0  0
M  END
> <clash_score>
0.7790751876189459

> <docking_score>
-7.089748382568359

$$$$
BENZO_136_1
  -OEChem-08212020073D

 55 59  0     0  0  0  0  0  0999 V2000
    4.2750    1.7050   20.8490 C   0  0  0  0  0  0  0  0  0  0  0  0
    3.9160    2.0630   19.5520 C   0  0  0  0  0  0  0  0  0  0  0  0
    5.4210    0.9600   21.0930 C   0  0  0  0  0  0  0  0  0  0  0  0
    4.6890    1.6810   18.4640 C   0  0  0  0  0  0  0  0  0  0  0  0
    8.9960   -2.3380   25.5320 C   0  0  0  0  0  0  0  0  0  0  0  0
    9.6730   -3.4710   23.5300 C   0  0  0  0  0  0  0  0  0  0  0  0
    9.0720   -1.1280   24.8640 C   0  0  0  0  0  0  0  0  0  0  0  0
    9.7200   -2.2600   22.8630 C   0  0  0  0  0  0  0  0  0  0  0  0
   12.2913    1.4279   22.6355 C   0  0  0  0  0  0  0  0  0  0  0  0
    7.6390   -0.2680   18.5410 C   0  0  0  0  0  0  0  0  0  0  0  0
   13.6024    1.4662   23.0564 C   0  0  0  0  0  0  0  0  0  0  0  0
   12.0284    1.3764   24.9443 C   0  0  0  0  0  0  0  0  0  0  0  0
    6.1790    0.5730   19.9990 C   0  0  0  0  0  0  0  0  0  0  0  0
   11.3794    1.3761   23.7290 C   0  0  0  0  0  0  0  0  0  0  0  0
    5.8300    0.9190   18.6970 C   0  0  0  0  0  0  0  0  0  0  0  0
    9.3070   -3.5340   24.8780 C   0  0  0  0  0  0  0  0  0  0  0  0
    9.3350   -1.0880   23.5010 C   0  0  0  0  0  0  0  0  0  0  0  0
    7.3170   -0.1610   19.8550 C   0  0  0  0  0  0  0  0  0  0  0  0
    9.0420    0.3700   21.5280 C   0  0  0  0  0  0  0  0  0  0  0  0
   10.0771   -5.0255   26.7193 C   0  0  0  0  0  0  0  0  0  0  0  0
    8.0926   -5.6195   25.4071 C   0  0  0  0  0  0  0  0  0  0  0  0
    9.1933   -4.9428   27.9592 C   0  0  0  0  0  0  0  0  0  0  0  0
    7.2756   -5.5290   26.6967 C   0  0  0  0  0  0  0  0  0  0  0  0
    9.8870    1.3260   23.5730 C   0  0  0  0  0  0  0  0  0  0  0  0
    6.7580    0.3810   17.8350 N   0  0  0  0  0  0  0  0  0  0  0  0
    9.2563   -4.7368   25.5413 N   0  0  0  0  0  0  0  0  0  0  0  0
    8.1890   -0.7180   20.8700 N   0  0  0  0  0  0  0  0  0  0  0  0
    9.4560    0.1560   22.8130 N   0  0  0  0  0  0  0  0  0  0  0  0
    9.2690    1.4140   20.9380 O   0  0  0  0  0  0  0  0  0  0  0  0
    8.0882   -5.8459   27.8324 O   0  0  0  0  0  0  0  0  0  0  0  0
   13.7301    1.4394   24.7638 S   0  0  0  0  0  0  0  0  0  0  0  0
    3.6453    2.0152   21.6831 H   0  0  0  0  0  0  0  0  0  0  0  0
    3.0147    2.6520   19.3913 H   0  0  0  0  0  0  0  0  0  0  0  0
    5.6991    0.6995   22.1042 H   0  0  0  0  0  0  0  0  0  0  0  0
    4.4051    1.9733   17.4488 H   0  0  0  0  0  0  0  0  0  0  0  0
    8.6905   -2.3533   26.5810 H   0  0  0  0  0  0  0  0  0  0  0  0
    9.9266   -4.3896   22.9917 H   0  0  0  0  0  0  0  0  0  0  0  0
    8.9233   -0.1992   25.4232 H   0  0  0  0  0  0  0  0  0  0  0  0
   10.0650   -2.2330   21.8256 H   0  0  0  0  0  0  0  0  0  0  0  0
   12.0045    1.4365   21.5915 H   0  0  0  0  0  0  0  0  0  0  0  0
    8.4825   -0.7940   18.0623 H   0  0  0  0  0  0  0  0  0  0  0  0
   14.4914    1.5078   22.4430 H   0  0  0  0  0  0  0  0  0  0  0  0
   11.5886    1.3416   25.9314 H   0  0  0  0  0  0  0  0  0  0  0  0
   10.9044   -4.3143   26.8097 H   0  0  0  0  0  0  0  0  0  0  0  0
   10.4942   -6.0352   26.6309 H   0  0  0  0  0  0  0  0  0  0  0  0
    8.4337   -6.6478   25.2594 H   0  0  0  0  0  0  0  0  0  0  0  0
    7.4706   -5.3291   24.5580 H   0  0  0  0  0  0  0  0  0  0  0  0
    9.7635   -5.2398   28.8419 H   0  0  0  0  0  0  0  0  0  0  0  0
    8.8236   -3.9269   28.1248 H   0  0  0  0  0  0  0  0  0  0  0  0
    6.8338   -4.5337   26.8232 H   0  0  0  0  0  0  0  0  0  0  0  0
    6.4549   -6.2521   26.6643 H   0  0  0  0  0  0  0  0  0  0  0  0
    9.3974    1.2912   24.5523 H   0  0  0  0  0  0  0  0  0  0  0  0
    9.5159    2.2168   23.0554 H   0  0  0  0  0  0  0  0  0  0  0  0
    6.7266    0.4930   16.8305 H   0  0  0  0  0  0  0  0  0  0  0  0
    8.2383   -1.5634   21.0944 H   0  0  0  0  0  0  0  0  0  0  0  0
  1  2  1  0  0  0  0
  1  3  2  0  0  0  0
  2  4  2  0  0  0  0
  3 13  1  0  0  0  0
  4 15  1  0  0  0  0
  5  7  2  0  0  0  0
  5 16  1  0  0  0  0
  6  8  1  0  0  0  0
  6 16  2  0  0  0  0
  7 17  1  0  0  0  0
  8 17  2  0  0  0  0
  9 11  2  0  0  0  0
  9 14  1  0  0  0  0
 10 18  2  0  0  0  0
 10 25  1  0  0  0  0
 11 31  1  0  0  0  0
 12 14  2  0  0  0  0
 12 31  1  0  0  0  0
 13 15  2  0  0  0  0
 13 18  1  0  0  0  0
 14 24  1  0  0  0  0
 15 25  1  0  0  0  0
 16 26  1  0  0  0  0
 17 28  1  0  0  0  0
 18 27  1  0  0  0  0
 19 27  1  0  0  0  0
 19 28  1  0  0  0  0
 19 29  2  0  0  0  0
 20 22  1  0  0  0  0
 20 26  1  0  0  0  0
 21 23  1  0  0  0  0
 21 26  1  0  0  0  0
 22 30  1  0  0  0  0
 23 30  1  0  0  0  0
 24 28  1  0  0  0  0
  1 32  1  0  0  0  0
  2 33  1  0  0  0  0
  3 34  1  0  0  0  0
  4 35  1  0  0  0  0
  5 36  1  0  0  0  0
  6 37  1  0  0  0  0
  7 38  1  0  0  0  0
  8 39  1  0  0  0  0
  9 40  1  0  0  0  0
 10 41  1  0  0  0  0
 11 42  1  0  0  0  0
 12 43  1  0  0  0  0
 20 44  1  0  0  0  0
 20 45  1  0  0  0  0
 21 46  1  0  0  0  0
 21 47  1  0  0  0  0
 22 48  1  0  0  0  0
 22 49  1  0  0  0  0
 23 50  1  0  0  0  0
 23 51  1  0  0  0  0
 24 52  1  0  0  0  0
 24 53  1  0  0  0  0
 25 54  1  0  0  0  0
 27 55  1  0  0  0  0
M  END
> <clash_score>
0

> <docking_score>
-8.433690071105957

$$$$
BENZO_137_1
  -OEChem-08212020073D

 58 62  0     0  0  0  0  0  0999 V2000
   14.1526    1.4694   24.0176 C   0  0  0  0  0  0  0  0  0  0  0  0
    4.2750    1.7050   20.8490 C   0  0  0  0  0  0  0  0  0  0  0  0
   13.3741    0.8121   24.9701 C   0  0  0  0  0  0  0  0  0  0  0  0
   13.5446    2.0802   22.9208 C   0  0  0  0  0  0  0  0  0  0  0  0
    3.9160    2.0630   19.5520 C   0  0  0  0  0  0  0  0  0  0  0  0
    5.4210    0.9600   21.0930 C   0  0  0  0  0  0  0  0  0  0  0  0
   11.9875    0.7654   24.8259 C   0  0  0  0  0  0  0  0  0  0  0  0
   12.1580    2.0335   22.7765 C   0  0  0  0  0  0  0  0  0  0  0  0
    4.6890    1.6810   18.4640 C   0  0  0  0  0  0  0  0  0  0  0  0
    8.9960   -2.3380   25.5320 C   0  0  0  0  0  0  0  0  0  0  0  0
    9.6730   -3.4710   23.5300 C   0  0  0  0  0  0  0  0  0  0  0  0
    9.0720   -1.1280   24.8640 C   0  0  0  0  0  0  0  0  0  0  0  0
    9.7200   -2.2600   22.8630 C   0  0  0  0  0  0  0  0  0  0  0  0
    7.6390   -0.2680   18.5410 C   0  0  0  0  0  0  0  0  0  0  0  0
    6.1790    0.5730   19.9990 C   0  0  0  0  0  0  0  0  0  0  0  0
   11.3794    1.3761   23.7290 C   0  0  0  0  0  0  0  0  0  0  0  0
    5.8300    0.9190   18.6970 C   0  0  0  0  0  0  0  0  0  0  0  0
    9.3070   -3.5340   24.8780 C   0  0  0  0  0  0  0  0  0  0  0  0
    9.3350   -1.0880   23.5010 C   0  0  0  0  0  0  0  0  0  0  0  0
    7.3170   -0.1610   19.8550 C   0  0  0  0  0  0  0  0  0  0  0  0
    9.0420    0.3700   21.5280 C   0  0  0  0  0  0  0  0  0  0  0  0
   10.0771   -5.0255   26.7193 C   0  0  0  0  0  0  0  0  0  0  0  0
    8.0926   -5.6195   25.4071 C   0  0  0  0  0  0  0  0  0  0  0  0
    9.1933   -4.9428   27.9592 C   0  0  0  0  0  0  0  0  0  0  0  0
    7.2756   -5.5290   26.6967 C   0  0  0  0  0  0  0  0  0  0  0  0
    9.8870    1.3260   23.5730 C   0  0  0  0  0  0  0  0  0  0  0  0
    6.7580    0.3810   17.8350 N   0  0  0  0  0  0  0  0  0  0  0  0
    9.2563   -4.7368   25.5413 N   0  0  0  0  0  0  0  0  0  0  0  0
    8.1890   -0.7180   20.8700 N   0  0  0  0  0  0  0  0  0  0  0  0
    9.4560    0.1560   22.8130 N   0  0  0  0  0  0  0  0  0  0  0  0
    9.2690    1.4140   20.9380 O   0  0  0  0  0  0  0  0  0  0  0  0
    8.0882   -5.8459   27.8324 O   0  0  0  0  0  0  0  0  0  0  0  0
   15.2322    1.5068   24.1308 H   0  0  0  0  0  0  0  0  0  0  0  0
    3.6453    2.0152   21.6831 H   0  0  0  0  0  0  0  0  0  0  0  0
   13.8473    0.3374   25.8248 H   0  0  0  0  0  0  0  0  0  0  0  0
   14.1503    2.5930   22.1795 H   0  0  0  0  0  0  0  0  0  0  0  0
    3.0147    2.6520   19.3913 H   0  0  0  0  0  0  0  0  0  0  0  0
    5.6991    0.6995   22.1042 H   0  0  0  0  0  0  0  0  0  0  0  0
   11.3889    0.2508   25.5729 H   0  0  0  0  0  0  0  0  0  0  0  0
   11.6930    2.5120   21.9187 H   0  0  0  0  0  0  0  0  0  0  0  0
    4.4051    1.9733   17.4488 H   0  0  0  0  0  0  0  0  0  0  0  0
    8.6905   -2.3533   26.5810 H   0  0  0  0  0  0  0  0  0  0  0  0
    9.9266   -4.3896   22.9917 H   0  0  0  0  0  0  0  0  0  0  0  0
    8.9233   -0.1992   25.4232 H   0  0  0  0  0  0  0  0  0  0  0  0
   10.0650   -2.2330   21.8256 H   0  0  0  0  0  0  0  0  0  0  0  0
    8.4825   -0.7940   18.0623 H   0  0  0  0  0  0  0  0  0  0  0  0
   10.9044   -4.3143   26.8097 H   0  0  0  0  0  0  0  0  0  0  0  0
   10.4942   -6.0352   26.6309 H   0  0  0  0  0  0  0  0  0  0  0  0
    8.4337   -6.6478   25.2594 H   0  0  0  0  0  0  0  0  0  0  0  0
    7.4706   -5.3291   24.5580 H   0  0  0  0  0  0  0  0  0  0  0  0
    9.7635   -5.2398   28.8419 H   0  0  0  0  0  0  0  0  0  0  0  0
    8.8236   -3.9269   28.1248 H   0  0  0  0  0  0  0  0  0  0  0  0
    6.8338   -4.5337   26.8232 H   0  0  0  0  0  0  0  0  0  0  0  0
    6.4549   -6.2521   26.6643 H   0  0  0  0  0  0  0  0  0  0  0  0
    9.3974    1.2912   24.5523 H   0  0  0  0  0  0  0  0  0  0  0  0
    9.5159    2.2168   23.0554 H   0  0  0  0  0  0  0  0  0  0  0  0
    6.7266    0.4930   16.8305 H   0  0  0  0  0  0  0  0  0  0  0  0
    8.2383   -1.5634   21.0944 H   0  0  0  0  0  0  0  0  0  0  0  0
  1  3  1  0  0  0  0
  1  4  2  0  0  0  0
  2  5  1  0  0  0  0
  2  6  2  0  0  0  0
  3  7  2  0  0  0  0
  4  8  1  0  0  0  0
  5  9  2  0  0  0  0
  6 15  1  0  0  0  0
  7 16  1  0  0  0  0
  8 16  2  0  0  0  0
  9 17  1  0  0  0  0
 10 12  2  0  0  0  0
 10 18  1  0  0  0  0
 11 13  1  0  0  0  0
 11 18  2  0  0  0  0
 12 19  1  0  0  0  0
 13 19  2  0  0  0  0
 14 20  2  0  0  0  0
 14 27  1  0  0  0  0
 15 17  2  0  0  0  0
 15 20  1  0  0  0  0
 16 26  1  0  0  0  0
 17 27  1  0  0  0  0
 18 28  1  0  0  0  0
 19 30  1  0  0  0  0
 20 29  1  0  0  0  0
 21 29  1  0  0  0  0
 21 30  1  0  0  0  0
 21 31  2  0  0  0  0
 22 24  1  0  0  0  0
 22 28  1  0  0  0  0
 23 25  1  0  0  0  0
 23 28  1  0  0  0  0
 24 32  1  0  0  0  0
 25 32  1  0  0  0  0
 26 30  1  0  0  0  0
  1 33  1  0  0  0  0
  2 34  1  0  0  0  0
  3 35  1  0  0  0  0
  4 36  1  0  0  0  0
  5 37  1  0  0  0  0
  6 38  1  0  0  0  0
  7 39  1  0  0  0  0
  8 40  1  0  0  0  0
  9 41  1  0  0  0  0
 10 42  1  0  0  0  0
 11 43  1  0  0  0  0
 12 44  1  0  0  0  0
 13 45  1  0  0  0  0
 14 46  1  0  0  0  0
 22 47  1  0  0  0  0
 22 48  1  0  0  0  0
 23 49  1  0  0  0  0
 23 50  1  0  0  0  0
 24 51  1  0  0  0  0
 24 52  1  0  0  0  0
 25 53  1  0  0  0  0
 25 54  1  0  0  0  0
 26 55  1  0  0  0  0
 26 56  1  0  0  0  0
 27 57  1  0  0  0  0
 29 58  1  0  0  0  0
M  END
> <clash_score>
0

> <docking_score>
-8.354825019836426

$$$$
BENZO_139_1
  -OEChem-08212020073D

 58 62  0     0  0  0  0  0  0999 V2000
    4.2750    1.7050   20.8490 C   0  0  0  0  0  0  0  0  0  0  0  0
    3.9160    2.0630   19.5520 C   0  0  0  0  0  0  0  0  0  0  0  0
    5.4210    0.9600   21.0930 C   0  0  0  0  0  0  0  0  0  0  0  0
    4.6890    1.6810   18.4640 C   0  0  0  0  0  0  0  0  0  0  0  0
    8.9960   -2.3380   25.5320 C   0  0  0  0  0  0  0  0  0  0  0  0
    9.6730   -3.4710   23.5300 C   0  0  0  0  0  0  0  0  0  0  0  0
    9.0720   -1.1280   24.8640 C   0  0  0  0  0  0  0  0  0  0  0  0
    9.7200   -2.2600   22.8630 C   0  0  0  0  0  0  0  0  0  0  0  0
   12.1233    1.3811   24.9242 C   0  0  0  0  0  0  0  0  0  0  0  0
   12.3261    1.4247   22.7351 C   0  0  0  0  0  0  0  0  0  0  0  0
    7.6390   -0.2680   18.5410 C   0  0  0  0  0  0  0  0  0  0  0  0
    6.1790    0.5730   19.9990 C   0  0  0  0  0  0  0  0  0  0  0  0
   11.3794    1.3761   23.7290 C   0  0  0  0  0  0  0  0  0  0  0  0
    5.8300    0.9190   18.6970 C   0  0  0  0  0  0  0  0  0  0  0  0
    9.3070   -3.5340   24.8780 C   0  0  0  0  0  0  0  0  0  0  0  0
    9.3350   -1.0880   23.5010 C   0  0  0  0  0  0  0  0  0  0  0  0
    7.3170   -0.1610   19.8550 C   0  0  0  0  0  0  0  0  0  0  0  0
    9.0420    0.3700   21.5280 C   0  0  0  0  0  0  0  0  0  0  0  0
   10.0771   -5.0255   26.7193 C   0  0  0  0  0  0  0  0  0  0  0  0
    8.0926   -5.6195   25.4071 C   0  0  0  0  0  0  0  0  0  0  0  0
    9.1933   -4.9428   27.9592 C   0  0  0  0  0  0  0  0  0  0  0  0
    7.2756   -5.5290   26.6967 C   0  0  0  0  0  0  0  0  0  0  0  0
   14.8305    1.5084   22.7418 C   0  0  0  0  0  0  0  0  0  0  0  0
    9.8870    1.3260   23.5730 C   0  0  0  0  0  0  0  0  0  0  0  0
   13.4410    1.4289   24.7112 N   0  0  0  0  0  0  0  0  0  0  0  0
    6.7580    0.3810   17.8350 N   0  0  0  0  0  0  0  0  0  0  0  0
   13.5326    1.4543   23.3706 N   0  0  0  0  0  0  0  0  0  0  0  0
    9.2563   -4.7368   25.5413 N   0  0  0  0  0  0  0  0  0  0  0  0
    8.1890   -0.7180   20.8700 N   0  0  0  0  0  0  0  0  0  0  0  0
    9.4560    0.1560   22.8130 N   0  0  0  0  0  0  0  0  0  0  0  0
    9.2690    1.4140   20.9380 O   0  0  0  0  0  0  0  0  0  0  0  0
    8.0882   -5.8459   27.8324 O   0  0  0  0  0  0  0  0  0  0  0  0
    3.6453    2.0152   21.6831 H   0  0  0  0  0  0  0  0  0  0  0  0
    3.0147    2.6520   19.3913 H   0  0  0  0  0  0  0  0  0  0  0  0
    5.6991    0.6995   22.1042 H   0  0  0  0  0  0  0  0  0  0  0  0
    4.4051    1.9733   17.4488 H   0  0  0  0  0  0  0  0  0  0  0  0
    8.6905   -2.3533   26.5810 H   0  0  0  0  0  0  0  0  0  0  0  0
    9.9266   -4.3896   22.9917 H   0  0  0  0  0  0  0  0  0  0  0  0
    8.9233   -0.1992   25.4232 H   0  0  0  0  0  0  0  0  0  0  0  0
   10.0650   -2.2330   21.8256 H   0  0  0  0  0  0  0  0  0  0  0  0
   11.7624    1.3510   25.9426 H   0  0  0  0  0  0  0  0  0  0  0  0
   12.2462    1.4390   21.6566 H   0  0  0  0  0  0  0  0  0  0  0  0
    8.4825   -0.7940   18.0623 H   0  0  0  0  0  0  0  0  0  0  0  0
   10.9044   -4.3143   26.8097 H   0  0  0  0  0  0  0  0  0  0  0  0
   10.4942   -6.0352   26.6309 H   0  0  0  0  0  0  0  0  0  0  0  0
    8.4337   -6.6478   25.2594 H   0  0  0  0  0  0  0  0  0  0  0  0
    7.4706   -5.3291   24.5580 H   0  0  0  0  0  0  0  0  0  0  0  0
    9.7635   -5.2398   28.8419 H   0  0  0  0  0  0  0  0  0  0  0  0
    8.8236   -3.9269   28.1248 H   0  0  0  0  0  0  0  0  0  0  0  0
    6.8338   -4.5337   26.8232 H   0  0  0  0  0  0  0  0  0  0  0  0
    6.4549   -6.2521   26.6643 H   0  0  0  0  0  0  0  0  0  0  0  0
   15.0990    2.5601   22.6124 H   0  0  0  0  0  0  0  0  0  0  0  0
   15.5636    1.0018   23.3756 H   0  0  0  0  0  0  0  0  0  0  0  0
   14.7841    1.0025   21.7733 H   0  0  0  0  0  0  0  0  0  0  0  0
    9.3974    1.2912   24.5523 H   0  0  0  0  0  0  0  0  0  0  0  0
    9.5159    2.2168   23.0554 H   0  0  0  0  0  0  0  0  0  0  0  0
    6.7266    0.4930   16.8305 H   0  0  0  0  0  0  0  0  0  0  0  0
    8.2383   -1.5634   21.0944 H   0  0  0  0  0  0  0  0  0  0  0  0
  1  2  1  0  0  0  0
  1  3  2  0  0  0  0
  2  4  2  0  0  0  0
  3 12  1  0  0  0  0
  4 14  1  0  0  0  0
  5  7  2  0  0  0  0
  5 15  1  0  0  0  0
  6  8  1  0  0  0  0
  6 15  2  0  0  0  0
  7 16  1  0  0  0  0
  8 16  2  0  0  0  0
  9 13  1  0  0  0  0
  9 25  2  0  0  0  0
 10 13  2  0  0  0  0
 10 27  1  0  0  0  0
 11 17  2  0  0  0  0
 11 26  1  0  0  0  0
 12 14  2  0  0  0  0
 12 17  1  0  0  0  0
 13 24  1  0  0  0  0
 14 26  1  0  0  0  0
 15 28  1  0  0  0  0
 16 30  1  0  0  0  0
 17 29  1  0  0  0  0
 18 29  1  0  0  0  0
 18 30  1  0  0  0  0
 18 31  2  0  0  0  0
 19 21  1  0  0  0  0
 19 28  1  0  0  0  0
 20 22  1  0  0  0  0
 20 28  1  0  0  0  0
 21 32  1  0  0  0  0
 22 32  1  0  0  0  0
 23 27  1  0  0  0  0
 24 30  1  0  0  0  0
 25 27  1  0  0  0  0
  1 33  1  0  0  0  0
  2 34  1  0  0  0  0
  3 35  1  0  0  0  0
  4 36  1  0  0  0  0
  5 37  1  0  0  0  0
  6 38  1  0  0  0  0
  7 39  1  0  0  0  0
  8 40  1  0  0  0  0
  9 41  1  0  0  0  0
 10 42  1  0  0  0  0
 11 43  1  0  0  0  0
 19 44  1  0  0  0  0
 19 45  1  0  0  0  0
 20 46  1  0  0  0  0
 20 47  1  0  0  0  0
 21 48  1  0  0  0  0
 21 49  1  0  0  0  0
 22 50  1  0  0  0  0
 22 51  1  0  0  0  0
 23 52  1  0  0  0  0
 23 53  1  0  0  0  0
 23 54  1  0  0  0  0
 24 55  1  0  0  0  0
 24 56  1  0  0  0  0
 26 57  1  0  0  0  0
 29 58  1  0  0  0  0
M  END
> <clash_score>
0

> <docking_score>
-8.070953369140625

$$$$
BENZO_140_1
  -OEChem-08212020073D

 48 51  0     0  0  0  0  0  0999 V2000
    9.0720   -1.1280   24.8640 C   0  0  0  0  0  0  0  0  0  0  0  0
    9.7200   -2.2600   22.8630 C   0  0  0  0  0  0  0  0  0  0  0  0
    8.9960   -2.3380   25.5320 C   0  0  0  0  0  0  0  0  0  0  0  0
    9.6730   -3.4710   23.5300 C   0  0  0  0  0  0  0  0  0  0  0  0
   12.2913    1.4279   22.6355 C   0  0  0  0  0  0  0  0  0  0  0  0
   13.6024    1.4662   23.0564 C   0  0  0  0  0  0  0  0  0  0  0  0
   12.0284    1.3764   24.9443 C   0  0  0  0  0  0  0  0  0  0  0  0
   11.3794    1.3761   23.7290 C   0  0  0  0  0  0  0  0  0  0  0  0
    9.3350   -1.0880   23.5010 C   0  0  0  0  0  0  0  0  0  0  0  0
    9.3070   -3.5340   24.8780 C   0  0  0  0  0  0  0  0  0  0  0  0
    5.8300    0.9190   18.6970 C   0  0  0  0  0  0  0  0  0  0  0  0
    7.3170   -0.1610   19.8550 C   0  0  0  0  0  0  0  0  0  0  0  0
    4.6890    1.6810   18.4640 C   0  0  0  0  0  0  0  0  0  0  0  0
    3.9160    2.0630   19.5520 C   0  0  0  0  0  0  0  0  0  0  0  0
    4.2750    1.7050   20.8490 C   0  0  0  0  0  0  0  0  0  0  0  0
    5.4210    0.9600   21.0930 C   0  0  0  0  0  0  0  0  0  0  0  0
    9.0420    0.3700   21.5280 C   0  0  0  0  0  0  0  0  0  0  0  0
    8.0128   -5.2151   26.1416 C   0  0  0  0  0  0  0  0  0  0  0  0
   10.4372   -5.5860   25.6588 C   0  0  0  0  0  0  0  0  0  0  0  0
    9.8870    1.3260   23.5730 C   0  0  0  0  0  0  0  0  0  0  0  0
    6.7580    0.3810   17.8350 N   0  0  0  0  0  0  0  0  0  0  0  0
    7.6390   -0.2680   18.5410 N   0  0  0  0  0  0  0  0  0  0  0  0
    6.1790    0.5730   19.9990 N   0  0  0  0  0  0  0  0  0  0  0  0
    8.1890   -0.7180   20.8700 N   0  0  0  0  0  0  0  0  0  0  0  0
    9.4560    0.1560   22.8130 N   0  0  0  0  0  0  0  0  0  0  0  0
    9.2543   -4.7552   25.5519 N   0  0  0  0  0  0  0  0  0  0  0  0
    9.2690    1.4140   20.9380 O   0  0  0  0  0  0  0  0  0  0  0  0
   13.7301    1.4394   24.7638 S   0  0  0  0  0  0  0  0  0  0  0  0
    8.9217   -0.1995   25.4232 H   0  0  0  0  0  0  0  0  0  0  0  0
   10.0643   -2.2341   21.8254 H   0  0  0  0  0  0  0  0  0  0  0  0
    8.6893   -2.3540   26.5808 H   0  0  0  0  0  0  0  0  0  0  0  0
    9.9257   -4.3898   22.9921 H   0  0  0  0  0  0  0  0  0  0  0  0
   12.0045    1.4365   21.5915 H   0  0  0  0  0  0  0  0  0  0  0  0
   14.4914    1.5078   22.4431 H   0  0  0  0  0  0  0  0  0  0  0  0
   11.5886    1.3416   25.9314 H   0  0  0  0  0  0  0  0  0  0  0  0
    4.3967    1.9772   17.4718 H   0  0  0  0  0  0  0  0  0  0  0  0
    3.0218    2.6486   19.3697 H   0  0  0  0  0  0  0  0  0  0  0  0
    3.6566    2.0043   21.7065 H   0  0  0  0  0  0  0  0  0  0  0  0
    5.7190    0.6877   22.0810 H   0  0  0  0  0  0  0  0  0  0  0  0
    8.1744   -6.1905   26.6238 H   0  0  0  0  0  0  0  0  0  0  0  0
    7.6718   -4.4870   26.8924 H   0  0  0  0  0  0  0  0  0  0  0  0
    7.2494   -5.3166   25.3561 H   0  0  0  0  0  0  0  0  0  0  0  0
   10.1946   -6.4995   26.2216 H   0  0  0  0  0  0  0  0  0  0  0  0
   10.7865   -5.8577   24.6518 H   0  0  0  0  0  0  0  0  0  0  0  0
   11.2285   -5.0312   26.1841 H   0  0  0  0  0  0  0  0  0  0  0  0
    9.3974    1.2912   24.5523 H   0  0  0  0  0  0  0  0  0  0  0  0
    9.5159    2.2168   23.0553 H   0  0  0  0  0  0  0  0  0  0  0  0
    8.2360   -1.5649   21.0923 H   0  0  0  0  0  0  0  0  0  0  0  0
  1  3  2  0  0  0  0
  1  9  1  0  0  0  0
  2  4  1  0  0  0  0
  2  9  2  0  0  0  0
  3 10  1  0  0  0  0
  4 10  2  0  0  0  0
  5  6  2  0  0  0  0
  5  8  1  0  0  0  0
  6 28  1  0  0  0  0
  7  8  2  0  0  0  0
  7 28  1  0  0  0  0
  8 20  1  0  0  0  0
  9 25  1  0  0  0  0
 10 26  1  0  0  0  0
 11 13  1  0  0  0  0
 11 21  2  0  0  0  0
 11 23  1  0  0  0  0
 12 22  2  0  0  0  0
 12 23  1  0  0  0  0
 12 24  1  0  0  0  0
 13 14  2  0  0  0  0
 14 15  1  0  0  0  0
 15 16  2  0  0  0  0
 16 23  1  0  0  0  0
 17 24  1  0  0  0  0
 17 25  1  0  0  0  0
 17 27  2  0  0  0  0
 18 26  1  0  0  0  0
 19 26  1  0  0  0  0
 20 25  1  0  0  0  0
 21 22  1  0  0  0  0
  1 29  1  0  0  0  0
  2 30  1  0  0  0  0
  3 31  1  0  0  0  0
  4 32  1  0  0  0  0
  5 33  1  0  0  0  0
  6 34  1  0  0  0  0
  7 35  1  0  0  0  0
 13 36  1  0  0  0  0
 14 37  1  0  0  0  0
 15 38  1  0  0  0  0
 16 39  1  0  0  0  0
 18 40  1  0  0  0  0
 18 41  1  0  0  0  0
 18 42  1  0  0  0  0
 19 43  1  0  0  0  0
 19 44  1  0  0  0  0
 19 45  1  0  0  0  0
 20 46  1  0  0  0  0
 20 47  1  0  0  0  0
 24 48  1  0  0  0  0
M  END
> <clash_score>
0

> <docking_score>
-9.640850067138672

$$$$
BENZO_141_1
  -OEChem-08212020073D

 51 54  0     0  0  0  0  0  0999 V2000
   14.1526    1.4694   24.0176 C   0  0  0  0  0  0  0  0  0  0  0  0
   13.3741    0.8121   24.9701 C   0  0  0  0  0  0  0  0  0  0  0  0
   13.5446    2.0802   22.9208 C   0  0  0  0  0  0  0  0  0  0  0  0
   11.9875    0.7654   24.8258 C   0  0  0  0  0  0  0  0  0  0  0  0
   12.1580    2.0335   22.7765 C   0  0  0  0  0  0  0  0  0  0  0  0
    9.0720   -1.1280   24.8640 C   0  0  0  0  0  0  0  0  0  0  0  0
    9.7200   -2.2600   22.8630 C   0  0  0  0  0  0  0  0  0  0  0  0
    8.9960   -2.3380   25.5320 C   0  0  0  0  0  0  0  0  0  0  0  0
    9.6730   -3.4710   23.5300 C   0  0  0  0  0  0  0  0  0  0  0  0
   11.3794    1.3761   23.7290 C   0  0  0  0  0  0  0  0  0  0  0  0
    9.3350   -1.0880   23.5010 C   0  0  0  0  0  0  0  0  0  0  0  0
    9.3070   -3.5340   24.8780 C   0  0  0  0  0  0  0  0  0  0  0  0
    5.8300    0.9190   18.6970 C   0  0  0  0  0  0  0  0  0  0  0  0
    7.3170   -0.1610   19.8550 C   0  0  0  0  0  0  0  0  0  0  0  0
    4.6890    1.6810   18.4640 C   0  0  0  0  0  0  0  0  0  0  0  0
    3.9160    2.0630   19.5520 C   0  0  0  0  0  0  0  0  0  0  0  0
    4.2750    1.7050   20.8490 C   0  0  0  0  0  0  0  0  0  0  0  0
    5.4210    0.9600   21.0930 C   0  0  0  0  0  0  0  0  0  0  0  0
    9.0420    0.3700   21.5280 C   0  0  0  0  0  0  0  0  0  0  0  0
    8.0128   -5.2151   26.1416 C   0  0  0  0  0  0  0  0  0  0  0  0
   10.4372   -5.5860   25.6588 C   0  0  0  0  0  0  0  0  0  0  0  0
    9.8870    1.3260   23.5730 C   0  0  0  0  0  0  0  0  0  0  0  0
    6.7580    0.3810   17.8350 N   0  0  0  0  0  0  0  0  0  0  0  0
    7.6390   -0.2680   18.5410 N   0  0  0  0  0  0  0  0  0  0  0  0
    6.1790    0.5730   19.9990 N   0  0  0  0  0  0  0  0  0  0  0  0
    8.1890   -0.7180   20.8700 N   0  0  0  0  0  0  0  0  0  0  0  0
    9.4560    0.1560   22.8130 N   0  0  0  0  0  0  0  0  0  0  0  0
    9.2543   -4.7552   25.5519 N   0  0  0  0  0  0  0  0  0  0  0  0
    9.2690    1.4140   20.9380 O   0  0  0  0  0  0  0  0  0  0  0  0
   15.2322    1.5068   24.1308 H   0  0  0  0  0  0  0  0  0  0  0  0
   13.8473    0.3374   25.8248 H   0  0  0  0  0  0  0  0  0  0  0  0
   14.1503    2.5930   22.1795 H   0  0  0  0  0  0  0  0  0  0  0  0
   11.3889    0.2508   25.5729 H   0  0  0  0  0  0  0  0  0  0  0  0
   11.6930    2.5120   21.9187 H   0  0  0  0  0  0  0  0  0  0  0  0
    8.9217   -0.1995   25.4232 H   0  0  0  0  0  0  0  0  0  0  0  0
   10.0643   -2.2341   21.8254 H   0  0  0  0  0  0  0  0  0  0  0  0
    8.6893   -2.3540   26.5808 H   0  0  0  0  0  0  0  0  0  0  0  0
    9.9257   -4.3898   22.9921 H   0  0  0  0  0  0  0  0  0  0  0  0
    4.3967    1.9772   17.4718 H   0  0  0  0  0  0  0  0  0  0  0  0
    3.0218    2.6486   19.3697 H   0  0  0  0  0  0  0  0  0  0  0  0
    3.6566    2.0043   21.7065 H   0  0  0  0  0  0  0  0  0  0  0  0
    5.7190    0.6877   22.0810 H   0  0  0  0  0  0  0  0  0  0  0  0
    8.1744   -6.1905   26.6238 H   0  0  0  0  0  0  0  0  0  0  0  0
    7.6718   -4.4870   26.8924 H   0  0  0  0  0  0  0  0  0  0  0  0
    7.2494   -5.3166   25.3561 H   0  0  0  0  0  0  0  0  0  0  0  0
   10.1946   -6.4995   26.2216 H   0  0  0  0  0  0  0  0  0  0  0  0
   10.7865   -5.8577   24.6518 H   0  0  0  0  0  0  0  0  0  0  0  0
   11.2285   -5.0312   26.1841 H   0  0  0  0  0  0  0  0  0  0  0  0
    9.3974    1.2912   24.5523 H   0  0  0  0  0  0  0  0  0  0  0  0
    9.5159    2.2168   23.0553 H   0  0  0  0  0  0  0  0  0  0  0  0
    8.2360   -1.5649   21.0923 H   0  0  0  0  0  0  0  0  0  0  0  0
  1  2  1  0  0  0  0
  1  3  2  0  0  0  0
  2  4  2  0  0  0  0
  3  5  1  0  0  0  0
  4 10  1  0  0  0  0
  5 10  2  0  0  0  0
  6  8  2  0  0  0  0
  6 11  1  0  0  0  0
  7  9  1  0  0  0  0
  7 11  2  0  0  0  0
  8 12  1  0  0  0  0
  9 12  2  0  0  0  0
 10 22  1  0  0  0  0
 11 27  1  0  0  0  0
 12 28  1  0  0  0  0
 13 15  1  0  0  0  0
 13 23  2  0  0  0  0
 13 25  1  0  0  0  0
 14 24  2  0  0  0  0
 14 25  1  0  0  0  0
 14 26  1  0  0  0  0
 15 16  2  0  0  0  0
 16 17  1  0  0  0  0
 17 18  2  0  0  0  0
 18 25  1  0  0  0  0
 19 26  1  0  0  0  0
 19 27  1  0  0  0  0
 19 29  2  0  0  0  0
 20 28  1  0  0  0  0
 21 28  1  0  0  0  0
 22 27  1  0  0  0  0
 23 24  1  0  0  0  0
  1 30  1  0  0  0  0
  2 31  1  0  0  0  0
  3 32  1  0  0  0  0
  4 33  1  0  0  0  0
  5 34  1  0  0  0  0
  6 35  1  0  0  0  0
  7 36  1  0  0  0  0
  8 37  1  0  0  0  0
  9 38  1  0  0  0  0
 15 39  1  0  0  0  0
 16 40  1  0  0  0  0
 17 41  1  0  0  0  0
 18 42  1  0  0  0  0
 20 43  1  0  0  0  0
 20 44  1  0  0  0  0
 20 45  1  0  0  0  0
 21 46  1  0  0  0  0
 21 47  1  0  0  0  0
 21 48  1  0  0  0  0
 22 49  1  0  0  0  0
 22 50  1  0  0  0  0
 26 51  1  0  0  0  0
M  END
> <clash_score>
0

> <docking_score>
-9.561988830566406

$$$$
BENZO_138_1
  -OEChem-08212020073D

 58 62  0     0  0  0  0  0  0999 V2000
    4.2750    1.7050   20.8490 C   0  0  0  0  0  0  0  0  0  0  0  0
    3.9160    2.0630   19.5520 C   0  0  0  0  0  0  0  0  0  0  0  0
    6.4089    2.0844   24.8766 C   0  0  0  0  0  0  0  0  0  0  0  0
    5.4210    0.9600   21.0930 C   0  0  0  0  0  0  0  0  0  0  0  0
    7.4847    1.4191   24.2887 C   0  0  0  0  0  0  0  0  0  0  0  0
    4.6890    1.6810   18.4640 C   0  0  0  0  0  0  0  0  0  0  0  0
    8.9960   -2.3380   25.5320 C   0  0  0  0  0  0  0  0  0  0  0  0
    9.6730   -3.4710   23.5300 C   0  0  0  0  0  0  0  0  0  0  0  0
    9.0720   -1.1280   24.8640 C   0  0  0  0  0  0  0  0  0  0  0  0
    9.7200   -2.2600   22.8630 C   0  0  0  0  0  0  0  0  0  0  0  0
    6.5777    3.3741   25.3805 C   0  0  0  0  0  0  0  0  0  0  0  0
    8.8980    3.3330   24.7088 C   0  0  0  0  0  0  0  0  0  0  0  0
    7.6390   -0.2680   18.5410 C   0  0  0  0  0  0  0  0  0  0  0  0
    6.1790    0.5730   19.9990 C   0  0  0  0  0  0  0  0  0  0  0  0
    8.7292    2.0433   24.2048 C   0  0  0  0  0  0  0  0  0  0  0  0
    5.8300    0.9190   18.6970 C   0  0  0  0  0  0  0  0  0  0  0  0
    9.3070   -3.5340   24.8780 C   0  0  0  0  0  0  0  0  0  0  0  0
    9.3350   -1.0880   23.5010 C   0  0  0  0  0  0  0  0  0  0  0  0
    7.3170   -0.1610   19.8550 C   0  0  0  0  0  0  0  0  0  0  0  0
    7.8222    3.9984   25.2966 C   0  0  0  0  0  0  0  0  0  0  0  0
    9.0420    0.3700   21.5280 C   0  0  0  0  0  0  0  0  0  0  0  0
    9.5174   -4.8598   26.9770 C   0  0  0  0  0  0  0  0  0  0  0  0
    8.5165   -5.8725   24.9807 C   0  0  0  0  0  0  0  0  0  0  0  0
    8.1868   -5.0440   27.6987 C   0  0  0  0  0  0  0  0  0  0  0  0
    7.2200   -6.0347   25.7755 C   0  0  0  0  0  0  0  0  0  0  0  0
    9.8870    1.3260   23.5730 C   0  0  0  0  0  0  0  0  0  0  0  0
    6.7580    0.3810   17.8350 N   0  0  0  0  0  0  0  0  0  0  0  0
    9.2563   -4.7368   25.5413 N   0  0  0  0  0  0  0  0  0  0  0  0
    8.1890   -0.7180   20.8700 N   0  0  0  0  0  0  0  0  0  0  0  0
    9.4560    0.1560   22.8130 N   0  0  0  0  0  0  0  0  0  0  0  0
    9.2690    1.4140   20.9380 O   0  0  0  0  0  0  0  0  0  0  0  0
    7.4994   -6.1853   27.1719 O   0  0  0  0  0  0  0  0  0  0  0  0
    8.0301    5.5891   25.9196 Cl  0  0  0  0  0  0  0  0  0  0  0  0
    3.6453    2.0152   21.6831 H   0  0  0  0  0  0  0  0  0  0  0  0
    3.0147    2.6520   19.3913 H   0  0  0  0  0  0  0  0  0  0  0  0
    5.4400    1.5979   24.9418 H   0  0  0  0  0  0  0  0  0  0  0  0
    5.6991    0.6995   22.1042 H   0  0  0  0  0  0  0  0  0  0  0  0
    7.3441    0.4143   23.8988 H   0  0  0  0  0  0  0  0  0  0  0  0
    4.4051    1.9733   17.4488 H   0  0  0  0  0  0  0  0  0  0  0  0
    8.6905   -2.3533   26.5810 H   0  0  0  0  0  0  0  0  0  0  0  0
    9.9266   -4.3896   22.9917 H   0  0  0  0  0  0  0  0  0  0  0  0
    8.9233   -0.1992   25.4232 H   0  0  0  0  0  0  0  0  0  0  0  0
   10.0650   -2.2330   21.8256 H   0  0  0  0  0  0  0  0  0  0  0  0
    5.7304    3.8806   25.8363 H   0  0  0  0  0  0  0  0  0  0  0  0
    9.8702    3.8156   24.6405 H   0  0  0  0  0  0  0  0  0  0  0  0
    8.4825   -0.7940   18.0623 H   0  0  0  0  0  0  0  0  0  0  0  0
   10.0258   -3.9712   27.3649 H   0  0  0  0  0  0  0  0  0  0  0  0
   10.1569   -5.7320   27.1550 H   0  0  0  0  0  0  0  0  0  0  0  0
    9.1206   -6.7792   25.0738 H   0  0  0  0  0  0  0  0  0  0  0  0
    8.2825   -5.7116   23.9265 H   0  0  0  0  0  0  0  0  0  0  0  0
    8.3628   -5.2253   28.7611 H   0  0  0  0  0  0  0  0  0  0  0  0
    7.5530   -4.1571   27.6103 H   0  0  0  0  0  0  0  0  0  0  0  0
    6.5459   -5.1839   25.6220 H   0  0  0  0  0  0  0  0  0  0  0  0
    6.6948   -6.9354   25.4435 H   0  0  0  0  0  0  0  0  0  0  0  0
   10.4274    1.9911   22.8906 H   0  0  0  0  0  0  0  0  0  0  0  0
   10.6011    0.9882   24.3313 H   0  0  0  0  0  0  0  0  0  0  0  0
    6.7266    0.4930   16.8305 H   0  0  0  0  0  0  0  0  0  0  0  0
    8.2383   -1.5634   21.0944 H   0  0  0  0  0  0  0  0  0  0  0  0
  1  2  1  0  0  0  0
  1  4  2  0  0  0  0
  2  6  2  0  0  0  0
  3  5  2  0  0  0  0
  3 11  1  0  0  0  0
  4 14  1  0  0  0  0
  5 15  1  0  0  0  0
  6 16  1  0  0  0  0
  7  9  2  0  0  0  0
  7 17  1  0  0  0  0
  8 10  1  0  0  0  0
  8 17  2  0  0  0  0
  9 18  1  0  0  0  0
 10 18  2  0  0  0  0
 11 20  2  0  0  0  0
 12 15  2  0  0  0  0
 12 20  1  0  0  0  0
 13 19  2  0  0  0  0
 13 27  1  0  0  0  0
 14 16  2  0  0  0  0
 14 19  1  0  0  0  0
 15 26  1  0  0  0  0
 16 27  1  0  0  0  0
 17 28  1  0  0  0  0
 18 30  1  0  0  0  0
 19 29  1  0  0  0  0
 20 33  1  0  0  0  0
 21 29  1  0  0  0  0
 21 30  1  0  0  0  0
 21 31  2  0  0  0  0
 22 24  1  0  0  0  0
 22 28  1  0  0  0  0
 23 25  1  0  0  0  0
 23 28  1  0  0  0  0
 24 32  1  0  0  0  0
 25 32  1  0  0  0  0
 26 30  1  0  0  0  0
  1 34  1  0  0  0  0
  2 35  1  0  0  0  0
  3 36  1  0  0  0  0
  4 37  1  0  0  0  0
  5 38  1  0  0  0  0
  6 39  1  0  0  0  0
  7 40  1  0  0  0  0
  8 41  1  0  0  0  0
  9 42  1  0  0  0  0
 10 43  1  0  0  0  0
 11 44  1  0  0  0  0
 12 45  1  0  0  0  0
 13 46  1  0  0  0  0
 22 47  1  0  0  0  0
 22 48  1  0  0  0  0
 23 49  1  0  0  0  0
 23 50  1  0  0  0  0
 24 51  1  0  0  0  0
 24 52  1  0  0  0  0
 25 53  1  0  0  0  0
 25 54  1  0  0  0  0
 26 55  1  0  0  0  0
 26 56  1  0  0  0  0
 27 57  1  0  0  0  0
 29 58  1  0  0  0  0
M  END
> <clash_score>
0

> <docking_score>
-7.702916145324707

$$$$
BENZO_142_1
  -OEChem-08212020073D

 51 54  0     0  0  0  0  0  0999 V2000
    6.4089    2.0844   24.8766 C   0  0  0  0  0  0  0  0  0  0  0  0
    7.4847    1.4191   24.2887 C   0  0  0  0  0  0  0  0  0  0  0  0
    9.0720   -1.1280   24.8640 C   0  0  0  0  0  0  0  0  0  0  0  0
    9.7200   -2.2600   22.8630 C   0  0  0  0  0  0  0  0  0  0  0  0
    8.9960   -2.3380   25.5320 C   0  0  0  0  0  0  0  0  0  0  0  0
    9.6730   -3.4710   23.5300 C   0  0  0  0  0  0  0  0  0  0  0  0
    6.5777    3.3741   25.3805 C   0  0  0  0  0  0  0  0  0  0  0  0
    8.8980    3.3330   24.7088 C   0  0  0  0  0  0  0  0  0  0  0  0
    8.7292    2.0433   24.2048 C   0  0  0  0  0  0  0  0  0  0  0  0
    9.3350   -1.0880   23.5010 C   0  0  0  0  0  0  0  0  0  0  0  0
    9.3070   -3.5340   24.8780 C   0  0  0  0  0  0  0  0  0  0  0  0
    7.8222    3.9984   25.2966 C   0  0  0  0  0  0  0  0  0  0  0  0
    5.8300    0.9190   18.6970 C   0  0  0  0  0  0  0  0  0  0  0  0
    7.3170   -0.1610   19.8550 C   0  0  0  0  0  0  0  0  0  0  0  0
    4.6890    1.6810   18.4640 C   0  0  0  0  0  0  0  0  0  0  0  0
    3.9160    2.0630   19.5520 C   0  0  0  0  0  0  0  0  0  0  0  0
    4.2750    1.7050   20.8490 C   0  0  0  0  0  0  0  0  0  0  0  0
    5.4210    0.9600   21.0930 C   0  0  0  0  0  0  0  0  0  0  0  0
    9.0420    0.3700   21.5280 C   0  0  0  0  0  0  0  0  0  0  0  0
    8.0128   -5.2151   26.1416 C   0  0  0  0  0  0  0  0  0  0  0  0
   10.4372   -5.5860   25.6588 C   0  0  0  0  0  0  0  0  0  0  0  0
    9.8870    1.3260   23.5730 C   0  0  0  0  0  0  0  0  0  0  0  0
    6.7580    0.3810   17.8350 N   0  0  0  0  0  0  0  0  0  0  0  0
    7.6390   -0.2680   18.5410 N   0  0  0  0  0  0  0  0  0  0  0  0
    6.1790    0.5730   19.9990 N   0  0  0  0  0  0  0  0  0  0  0  0
    8.1890   -0.7180   20.8700 N   0  0  0  0  0  0  0  0  0  0  0  0
    9.4560    0.1560   22.8130 N   0  0  0  0  0  0  0  0  0  0  0  0
    9.2543   -4.7552   25.5519 N   0  0  0  0  0  0  0  0  0  0  0  0
    9.2690    1.4140   20.9380 O   0  0  0  0  0  0  0  0  0  0  0  0
    8.0301    5.5891   25.9196 Cl  0  0  0  0  0  0  0  0  0  0  0  0
    5.4400    1.5979   24.9418 H   0  0  0  0  0  0  0  0  0  0  0  0
    7.3441    0.4143   23.8988 H   0  0  0  0  0  0  0  0  0  0  0  0
    8.9217   -0.1995   25.4232 H   0  0  0  0  0  0  0  0  0  0  0  0
   10.0643   -2.2341   21.8254 H   0  0  0  0  0  0  0  0  0  0  0  0
    8.6893   -2.3540   26.5808 H   0  0  0  0  0  0  0  0  0  0  0  0
    9.9257   -4.3898   22.9921 H   0  0  0  0  0  0  0  0  0  0  0  0
    5.7304    3.8806   25.8363 H   0  0  0  0  0  0  0  0  0  0  0  0
    9.8703    3.8156   24.6405 H   0  0  0  0  0  0  0  0  0  0  0  0
    4.3967    1.9772   17.4718 H   0  0  0  0  0  0  0  0  0  0  0  0
    3.0218    2.6486   19.3697 H   0  0  0  0  0  0  0  0  0  0  0  0
    3.6566    2.0043   21.7065 H   0  0  0  0  0  0  0  0  0  0  0  0
    5.7190    0.6877   22.0810 H   0  0  0  0  0  0  0  0  0  0  0  0
    8.1744   -6.1905   26.6238 H   0  0  0  0  0  0  0  0  0  0  0  0
    7.6718   -4.4870   26.8924 H   0  0  0  0  0  0  0  0  0  0  0  0
    7.2494   -5.3166   25.3561 H   0  0  0  0  0  0  0  0  0  0  0  0
   10.1946   -6.4995   26.2216 H   0  0  0  0  0  0  0  0  0  0  0  0
   10.7865   -5.8577   24.6518 H   0  0  0  0  0  0  0  0  0  0  0  0
   11.2285   -5.0312   26.1841 H   0  0  0  0  0  0  0  0  0  0  0  0
   10.4274    1.9911   22.8906 H   0  0  0  0  0  0  0  0  0  0  0  0
   10.6011    0.9882   24.3313 H   0  0  0  0  0  0  0  0  0  0  0  0
    8.2360   -1.5649   21.0923 H   0  0  0  0  0  0  0  0  0  0  0  0
  1  2  2  0  0  0  0
  1  7  1  0  0  0  0
  2  9  1  0  0  0  0
  3  5  2  0  0  0  0
  3 10  1  0  0  0  0
  4  6  1  0  0  0  0
  4 10  2  0  0  0  0
  5 11  1  0  0  0  0
  6 11  2  0  0  0  0
  7 12  2  0  0  0  0
  8  9  2  0  0  0  0
  8 12  1  0  0  0  0
  9 22  1  0  0  0  0
 10 27  1  0  0  0  0
 11 28  1  0  0  0  0
 12 30  1  0  0  0  0
 13 15  1  0  0  0  0
 13 23  2  0  0  0  0
 13 25  1  0  0  0  0
 14 24  2  0  0  0  0
 14 25  1  0  0  0  0
 14 26  1  0  0  0  0
 15 16  2  0  0  0  0
 16 17  1  0  0  0  0
 17 18  2  0  0  0  0
 18 25  1  0  0  0  0
 19 26  1  0  0  0  0
 19 27  1  0  0  0  0
 19 29  2  0  0  0  0
 20 28  1  0  0  0  0
 21 28  1  0  0  0  0
 22 27  1  0  0  0  0
 23 24  1  0  0  0  0
  1 31  1  0  0  0  0
  2 32  1  0  0  0  0
  3 33  1  0  0  0  0
  4 34  1  0  0  0  0
  5 35  1  0  0  0  0
  6 36  1  0  0  0  0
  7 37  1  0  0  0  0
  8 38  1  0  0  0  0
 15 39  1  0  0  0  0
 16 40  1  0  0  0  0
 17 41  1  0  0  0  0
 18 42  1  0  0  0  0
 20 43  1  0  0  0  0
 20 44  1  0  0  0  0
 20 45  1  0  0  0  0
 21 46  1  0  0  0  0
 21 47  1  0  0  0  0
 21 48  1  0  0  0  0
 22 49  1  0  0  0  0
 22 50  1  0  0  0  0
 26 51  1  0  0  0  0
M  END
> <clash_score>
0

> <docking_score>
-8.948020935058594

$$$$
BENZO_143_1
  -OEChem-08212020073D

 51 54  0     0  0  0  0  0  0999 V2000
    9.0720   -1.1280   24.8640 C   0  0  0  0  0  0  0  0  0  0  0  0
    9.7200   -2.2600   22.8630 C   0  0  0  0  0  0  0  0  0  0  0  0
    8.9960   -2.3380   25.5320 C   0  0  0  0  0  0  0  0  0  0  0  0
    9.6730   -3.4710   23.5300 C   0  0  0  0  0  0  0  0  0  0  0  0
   12.1233    1.3811   24.9242 C   0  0  0  0  0  0  0  0  0  0  0  0
   12.3261    1.4247   22.7351 C   0  0  0  0  0  0  0  0  0  0  0  0
   11.3794    1.3761   23.7290 C   0  0  0  0  0  0  0  0  0  0  0  0
    9.3350   -1.0880   23.5010 C   0  0  0  0  0  0  0  0  0  0  0  0
    9.3070   -3.5340   24.8780 C   0  0  0  0  0  0  0  0  0  0  0  0
    5.8300    0.9190   18.6970 C   0  0  0  0  0  0  0  0  0  0  0  0
    7.3170   -0.1610   19.8550 C   0  0  0  0  0  0  0  0  0  0  0  0
    4.6890    1.6810   18.4640 C   0  0  0  0  0  0  0  0  0  0  0  0
    3.9160    2.0630   19.5520 C   0  0  0  0  0  0  0  0  0  0  0  0
    4.2750    1.7050   20.8490 C   0  0  0  0  0  0  0  0  0  0  0  0
    5.4210    0.9600   21.0930 C   0  0  0  0  0  0  0  0  0  0  0  0
    9.0420    0.3700   21.5280 C   0  0  0  0  0  0  0  0  0  0  0  0
   14.8305    1.5084   22.7418 C   0  0  0  0  0  0  0  0  0  0  0  0
    8.0128   -5.2151   26.1416 C   0  0  0  0  0  0  0  0  0  0  0  0
   10.4372   -5.5860   25.6588 C   0  0  0  0  0  0  0  0  0  0  0  0
    9.8870    1.3260   23.5730 C   0  0  0  0  0  0  0  0  0  0  0  0
   13.4410    1.4289   24.7112 N   0  0  0  0  0  0  0  0  0  0  0  0
    6.7580    0.3810   17.8350 N   0  0  0  0  0  0  0  0  0  0  0  0
    7.6390   -0.2680   18.5410 N   0  0  0  0  0  0  0  0  0  0  0  0
   13.5326    1.4543   23.3706 N   0  0  0  0  0  0  0  0  0  0  0  0
    6.1790    0.5730   19.9990 N   0  0  0  0  0  0  0  0  0  0  0  0
    8.1890   -0.7180   20.8700 N   0  0  0  0  0  0  0  0  0  0  0  0
    9.4560    0.1560   22.8130 N   0  0  0  0  0  0  0  0  0  0  0  0
    9.2543   -4.7552   25.5519 N   0  0  0  0  0  0  0  0  0  0  0  0
    9.2690    1.4140   20.9380 O   0  0  0  0  0  0  0  0  0  0  0  0
    8.9217   -0.1995   25.4232 H   0  0  0  0  0  0  0  0  0  0  0  0
   10.0643   -2.2341   21.8254 H   0  0  0  0  0  0  0  0  0  0  0  0
    8.6893   -2.3540   26.5808 H   0  0  0  0  0  0  0  0  0  0  0  0
    9.9257   -4.3898   22.9921 H   0  0  0  0  0  0  0  0  0  0  0  0
   11.7624    1.3510   25.9426 H   0  0  0  0  0  0  0  0  0  0  0  0
   12.2462    1.4390   21.6566 H   0  0  0  0  0  0  0  0  0  0  0  0
    4.3967    1.9772   17.4718 H   0  0  0  0  0  0  0  0  0  0  0  0
    3.0218    2.6486   19.3697 H   0  0  0  0  0  0  0  0  0  0  0  0
    3.6566    2.0043   21.7065 H   0  0  0  0  0  0  0  0  0  0  0  0
    5.7190    0.6877   22.0810 H   0  0  0  0  0  0  0  0  0  0  0  0
   15.0990    2.5601   22.6124 H   0  0  0  0  0  0  0  0  0  0  0  0
   15.5636    1.0018   23.3756 H   0  0  0  0  0  0  0  0  0  0  0  0
   14.7841    1.0025   21.7733 H   0  0  0  0  0  0  0  0  0  0  0  0
    8.1744   -6.1905   26.6238 H   0  0  0  0  0  0  0  0  0  0  0  0
    7.6718   -4.4870   26.8924 H   0  0  0  0  0  0  0  0  0  0  0  0
    7.2494   -5.3166   25.3561 H   0  0  0  0  0  0  0  0  0  0  0  0
   10.1946   -6.4995   26.2216 H   0  0  0  0  0  0  0  0  0  0  0  0
   10.7865   -5.8577   24.6518 H   0  0  0  0  0  0  0  0  0  0  0  0
   11.2285   -5.0312   26.1841 H   0  0  0  0  0  0  0  0  0  0  0  0
    9.3974    1.2912   24.5523 H   0  0  0  0  0  0  0  0  0  0  0  0
    9.5159    2.2168   23.0553 H   0  0  0  0  0  0  0  0  0  0  0  0
    8.2360   -1.5649   21.0923 H   0  0  0  0  0  0  0  0  0  0  0  0
  1  3  2  0  0  0  0
  1  8  1  0  0  0  0
  2  4  1  0  0  0  0
  2  8  2  0  0  0  0
  3  9  1  0  0  0  0
  4  9  2  0  0  0  0
  5  7  1  0  0  0  0
  5 21  2  0  0  0  0
  6  7  2  0  0  0  0
  6 24  1  0  0  0  0
  7 20  1  0  0  0  0
  8 27  1  0  0  0  0
  9 28  1  0  0  0  0
 10 12  1  0  0  0  0
 10 22  2  0  0  0  0
 10 25  1  0  0  0  0
 11 23  2  0  0  0  0
 11 25  1  0  0  0  0
 11 26  1  0  0  0  0
 12 13  2  0  0  0  0
 13 14  1  0  0  0  0
 14 15  2  0  0  0  0
 15 25  1  0  0  0  0
 16 26  1  0  0  0  0
 16 27  1  0  0  0  0
 16 29  2  0  0  0  0
 17 24  1  0  0  0  0
 18 28  1  0  0  0  0
 19 28  1  0  0  0  0
 20 27  1  0  0  0  0
 21 24  1  0  0  0  0
 22 23  1  0  0  0  0
  1 30  1  0  0  0  0
  2 31  1  0  0  0  0
  3 32  1  0  0  0  0
  4 33  1  0  0  0  0
  5 34  1  0  0  0  0
  6 35  1  0  0  0  0
 12 36  1  0  0  0  0
 13 37  1  0  0  0  0
 14 38  1  0  0  0  0
 15 39  1  0  0  0  0
 17 40  1  0  0  0  0
 17 41  1  0  0  0  0
 17 42  1  0  0  0  0
 18 43  1  0  0  0  0
 18 44  1  0  0  0  0
 18 45  1  0  0  0  0
 19 46  1  0  0  0  0
 19 47  1  0  0  0  0
 19 48  1  0  0  0  0
 20 49  1  0  0  0  0
 20 50  1  0  0  0  0
 26 51  1  0  0  0  0
M  END
> <clash_score>
0

> <docking_score>
-9.27813720703125

$$$$
BENZO_144_1
  -OEChem-08212020103D

 50 53  0     0  0  0  0  0  0999 V2000
    8.9960   -2.3380   25.5320 C   0  0  0  0  0  0  0  0  0  0  0  0
    9.6730   -3.4710   23.5300 C   0  0  0  0  0  0  0  0  0  0  0  0
    9.0720   -1.1280   24.8640 C   0  0  0  0  0  0  0  0  0  0  0  0
    9.7200   -2.2600   22.8630 C   0  0  0  0  0  0  0  0  0  0  0  0
   12.2913    1.4279   22.6355 C   0  0  0  0  0  0  0  0  0  0  0  0
   13.6024    1.4662   23.0564 C   0  0  0  0  0  0  0  0  0  0  0  0
   12.0284    1.3764   24.9443 C   0  0  0  0  0  0  0  0  0  0  0  0
   11.3794    1.3761   23.7290 C   0  0  0  0  0  0  0  0  0  0  0  0
    9.3070   -3.5340   24.8780 C   0  0  0  0  0  0  0  0  0  0  0  0
    9.3350   -1.0880   23.5010 C   0  0  0  0  0  0  0  0  0  0  0  0
    5.8300    0.9190   18.6970 C   0  0  0  0  0  0  0  0  0  0  0  0
    7.3170   -0.1610   19.8550 C   0  0  0  0  0  0  0  0  0  0  0  0
    4.6890    1.6810   18.4640 C   0  0  0  0  0  0  0  0  0  0  0  0
    3.9160    2.0630   19.5520 C   0  0  0  0  0  0  0  0  0  0  0  0
    4.2750    1.7050   20.8490 C   0  0  0  0  0  0  0  0  0  0  0  0
    5.4210    0.9600   21.0930 C   0  0  0  0  0  0  0  0  0  0  0  0
    9.5334   -6.0236   25.0414 C   0  0  0  0  0  0  0  0  0  0  0  0
    9.0420    0.3700   21.5280 C   0  0  0  0  0  0  0  0  0  0  0  0
   10.6330   -7.3746   26.8775 C   0  0  0  0  0  0  0  0  0  0  0  0
    9.8870    1.3260   23.5730 C   0  0  0  0  0  0  0  0  0  0  0  0
    9.3523   -7.0865   26.1149 C   0  0  0  0  0  0  0  0  0  0  0  0
    6.7580    0.3810   17.8350 N   0  0  0  0  0  0  0  0  0  0  0  0
    7.6390   -0.2680   18.5410 N   0  0  0  0  0  0  0  0  0  0  0  0
    6.1790    0.5730   19.9990 N   0  0  0  0  0  0  0  0  0  0  0  0
    9.2546   -4.7422   25.5438 N   0  0  0  0  0  0  0  0  0  0  0  0
    8.1890   -0.7180   20.8700 N   0  0  0  0  0  0  0  0  0  0  0  0
    9.4560    0.1560   22.8130 N   0  0  0  0  0  0  0  0  0  0  0  0
    9.8806   -6.3053   23.8992 O   0  0  0  0  0  0  0  0  0  0  0  0
    9.2690    1.4140   20.9380 O   0  0  0  0  0  0  0  0  0  0  0  0
   13.7301    1.4394   24.7638 S   0  0  0  0  0  0  0  0  0  0  0  0
    8.6895   -2.3529   26.5807 H   0  0  0  0  0  0  0  0  0  0  0  0
    9.9262   -4.3897   22.9916 H   0  0  0  0  0  0  0  0  0  0  0  0
    8.9224   -0.1998   25.4238 H   0  0  0  0  0  0  0  0  0  0  0  0
   10.0649   -2.2343   21.8258 H   0  0  0  0  0  0  0  0  0  0  0  0
   12.0045    1.4365   21.5915 H   0  0  0  0  0  0  0  0  0  0  0  0
   14.4914    1.5078   22.4431 H   0  0  0  0  0  0  0  0  0  0  0  0
   11.5886    1.3416   25.9314 H   0  0  0  0  0  0  0  0  0  0  0  0
    4.3967    1.9772   17.4718 H   0  0  0  0  0  0  0  0  0  0  0  0
    3.0218    2.6486   19.3697 H   0  0  0  0  0  0  0  0  0  0  0  0
    3.6566    2.0043   21.7065 H   0  0  0  0  0  0  0  0  0  0  0  0
    5.7190    0.6877   22.0810 H   0  0  0  0  0  0  0  0  0  0  0  0
   11.4241   -7.7171   26.2024 H   0  0  0  0  0  0  0  0  0  0  0  0
   10.4629   -8.1530   27.6277 H   0  0  0  0  0  0  0  0  0  0  0  0
   10.9949   -6.4779   27.3912 H   0  0  0  0  0  0  0  0  0  0  0  0
    9.3974    1.2912   24.5523 H   0  0  0  0  0  0  0  0  0  0  0  0
    9.5159    2.2168   23.0553 H   0  0  0  0  0  0  0  0  0  0  0  0
    8.5795   -6.7463   26.8138 H   0  0  0  0  0  0  0  0  0  0  0  0
    8.9966   -8.0064   25.6368 H   0  0  0  0  0  0  0  0  0  0  0  0
    8.9776   -4.7057   26.5317 H   0  0  0  0  0  0  0  0  0  0  0  0
    8.2360   -1.5649   21.0923 H   0  0  0  0  0  0  0  0  0  0  0  0
  1  3  2  0  0  0  0
  1  9  1  0  0  0  0
  2  4  1  0  0  0  0
  2  9  2  0  0  0  0
  3 10  1  0  0  0  0
  4 10  2  0  0  0  0
  5  6  2  0  0  0  0
  5  8  1  0  0  0  0
  6 30  1  0  0  0  0
  7  8  2  0  0  0  0
  7 30  1  0  0  0  0
  8 20  1  0  0  0  0
  9 25  1  0  0  0  0
 10 27  1  0  0  0  0
 11 13  1  0  0  0  0
 11 22  2  0  0  0  0
 11 24  1  0  0  0  0
 12 23  2  0  0  0  0
 12 24  1  0  0  0  0
 12 26  1  0  0  0  0
 13 14  2  0  0  0  0
 14 15  1  0  0  0  0
 15 16  2  0  0  0  0
 16 24  1  0  0  0  0
 17 21  1  0  0  0  0
 17 25  1  0  0  0  0
 17 28  2  0  0  0  0
 18 26  1  0  0  0  0
 18 27  1  0  0  0  0
 18 29  2  0  0  0  0
 19 21  1  0  0  0  0
 20 27  1  0  0  0  0
 22 23  1  0  0  0  0
  1 31  1  0  0  0  0
  2 32  1  0  0  0  0
  3 33  1  0  0  0  0
  4 34  1  0  0  0  0
  5 35  1  0  0  0  0
  6 36  1  0  0  0  0
  7 37  1  0  0  0  0
 13 38  1  0  0  0  0
 14 39  1  0  0  0  0
 15 40  1  0  0  0  0
 16 41  1  0  0  0  0
 19 42  1  0  0  0  0
 19 43  1  0  0  0  0
 19 44  1  0  0  0  0
 20 45  1  0  0  0  0
 20 46  1  0  0  0  0
 21 47  1  0  0  0  0
 21 48  1  0  0  0  0
 25 49  1  0  0  0  0
 26 50  1  0  0  0  0
M  END
> <clash_score>
1.4986663541170224

> <docking_score>
-6.446575164794922

$$$$
BENZO_145_1
  -OEChem-08212020103D

 53 56  0     0  0  0  0  0  0999 V2000
   14.1526    1.4694   24.0176 C   0  0  0  0  0  0  0  0  0  0  0  0
   13.3741    0.8121   24.9701 C   0  0  0  0  0  0  0  0  0  0  0  0
   13.5446    2.0802   22.9208 C   0  0  0  0  0  0  0  0  0  0  0  0
   11.9875    0.7654   24.8258 C   0  0  0  0  0  0  0  0  0  0  0  0
   12.1580    2.0335   22.7765 C   0  0  0  0  0  0  0  0  0  0  0  0
    8.9960   -2.3380   25.5320 C   0  0  0  0  0  0  0  0  0  0  0  0
    9.6730   -3.4710   23.5300 C   0  0  0  0  0  0  0  0  0  0  0  0
    9.0720   -1.1280   24.8640 C   0  0  0  0  0  0  0  0  0  0  0  0
    9.7200   -2.2600   22.8630 C   0  0  0  0  0  0  0  0  0  0  0  0
   11.3794    1.3761   23.7290 C   0  0  0  0  0  0  0  0  0  0  0  0
    9.3070   -3.5340   24.8780 C   0  0  0  0  0  0  0  0  0  0  0  0
    9.3350   -1.0880   23.5010 C   0  0  0  0  0  0  0  0  0  0  0  0
    5.8300    0.9190   18.6970 C   0  0  0  0  0  0  0  0  0  0  0  0
    7.3170   -0.1610   19.8550 C   0  0  0  0  0  0  0  0  0  0  0  0
    4.6890    1.6810   18.4640 C   0  0  0  0  0  0  0  0  0  0  0  0
    3.9160    2.0630   19.5520 C   0  0  0  0  0  0  0  0  0  0  0  0
    4.2750    1.7050   20.8490 C   0  0  0  0  0  0  0  0  0  0  0  0
    5.4210    0.9600   21.0930 C   0  0  0  0  0  0  0  0  0  0  0  0
    9.5334   -6.0236   25.0414 C   0  0  0  0  0  0  0  0  0  0  0  0
    9.0420    0.3700   21.5280 C   0  0  0  0  0  0  0  0  0  0  0  0
   10.6330   -7.3746   26.8775 C   0  0  0  0  0  0  0  0  0  0  0  0
    9.8870    1.3260   23.5730 C   0  0  0  0  0  0  0  0  0  0  0  0
    9.3523   -7.0865   26.1149 C   0  0  0  0  0  0  0  0  0  0  0  0
    6.7580    0.3810   17.8350 N   0  0  0  0  0  0  0  0  0  0  0  0
    7.6390   -0.2680   18.5410 N   0  0  0  0  0  0  0  0  0  0  0  0
    6.1790    0.5730   19.9990 N   0  0  0  0  0  0  0  0  0  0  0  0
    9.2546   -4.7422   25.5438 N   0  0  0  0  0  0  0  0  0  0  0  0
    8.1890   -0.7180   20.8700 N   0  0  0  0  0  0  0  0  0  0  0  0
    9.4560    0.1560   22.8130 N   0  0  0  0  0  0  0  0  0  0  0  0
    9.8806   -6.3053   23.8992 O   0  0  0  0  0  0  0  0  0  0  0  0
    9.2690    1.4140   20.9380 O   0  0  0  0  0  0  0  0  0  0  0  0
   15.2322    1.5068   24.1308 H   0  0  0  0  0  0  0  0  0  0  0  0
   13.8473    0.3374   25.8248 H   0  0  0  0  0  0  0  0  0  0  0  0
   14.1503    2.5930   22.1795 H   0  0  0  0  0  0  0  0  0  0  0  0
   11.3889    0.2508   25.5729 H   0  0  0  0  0  0  0  0  0  0  0  0
   11.6930    2.5120   21.9187 H   0  0  0  0  0  0  0  0  0  0  0  0
    8.6895   -2.3529   26.5807 H   0  0  0  0  0  0  0  0  0  0  0  0
    9.9262   -4.3897   22.9916 H   0  0  0  0  0  0  0  0  0  0  0  0
    8.9224   -0.1998   25.4238 H   0  0  0  0  0  0  0  0  0  0  0  0
   10.0649   -2.2343   21.8258 H   0  0  0  0  0  0  0  0  0  0  0  0
    4.3967    1.9772   17.4718 H   0  0  0  0  0  0  0  0  0  0  0  0
    3.0218    2.6486   19.3697 H   0  0  0  0  0  0  0  0  0  0  0  0
    3.6566    2.0043   21.7065 H   0  0  0  0  0  0  0  0  0  0  0  0
    5.7190    0.6877   22.0810 H   0  0  0  0  0  0  0  0  0  0  0  0
   11.4241   -7.7171   26.2024 H   0  0  0  0  0  0  0  0  0  0  0  0
   10.4629   -8.1530   27.6277 H   0  0  0  0  0  0  0  0  0  0  0  0
   10.9949   -6.4779   27.3912 H   0  0  0  0  0  0  0  0  0  0  0  0
    9.3974    1.2912   24.5523 H   0  0  0  0  0  0  0  0  0  0  0  0
    9.5159    2.2168   23.0553 H   0  0  0  0  0  0  0  0  0  0  0  0
    8.5795   -6.7463   26.8138 H   0  0  0  0  0  0  0  0  0  0  0  0
    8.9966   -8.0064   25.6368 H   0  0  0  0  0  0  0  0  0  0  0  0
    8.9776   -4.7057   26.5317 H   0  0  0  0  0  0  0  0  0  0  0  0
    8.2360   -1.5649   21.0923 H   0  0  0  0  0  0  0  0  0  0  0  0
  1  2  1  0  0  0  0
  1  3  2  0  0  0  0
  2  4  2  0  0  0  0
  3  5  1  0  0  0  0
  4 10  1  0  0  0  0
  5 10  2  0  0  0  0
  6  8  2  0  0  0  0
  6 11  1  0  0  0  0
  7  9  1  0  0  0  0
  7 11  2  0  0  0  0
  8 12  1  0  0  0  0
  9 12  2  0  0  0  0
 10 22  1  0  0  0  0
 11 27  1  0  0  0  0
 12 29  1  0  0  0  0
 13 15  1  0  0  0  0
 13 24  2  0  0  0  0
 13 26  1  0  0  0  0
 14 25  2  0  0  0  0
 14 26  1  0  0  0  0
 14 28  1  0  0  0  0
 15 16  2  0  0  0  0
 16 17  1  0  0  0  0
 17 18  2  0  0  0  0
 18 26  1  0  0  0  0
 19 23  1  0  0  0  0
 19 27  1  0  0  0  0
 19 30  2  0  0  0  0
 20 28  1  0  0  0  0
 20 29  1  0  0  0  0
 20 31  2  0  0  0  0
 21 23  1  0  0  0  0
 22 29  1  0  0  0  0
 24 25  1  0  0  0  0
  1 32  1  0  0  0  0
  2 33  1  0  0  0  0
  3 34  1  0  0  0  0
  4 35  1  0  0  0  0
  5 36  1  0  0  0  0
  6 37  1  0  0  0  0
  7 38  1  0  0  0  0
  8 39  1  0  0  0  0
  9 40  1  0  0  0  0
 15 41  1  0  0  0  0
 16 42  1  0  0  0  0
 17 43  1  0  0  0  0
 18 44  1  0  0  0  0
 21 45  1  0  0  0  0
 21 46  1  0  0  0  0
 21 47  1  0  0  0  0
 22 48  1  0  0  0  0
 22 49  1  0  0  0  0
 23 50  1  0  0  0  0
 23 51  1  0  0  0  0
 27 52  1  0  0  0  0
 28 53  1  0  0  0  0
M  END
> <clash_score>
1.4986663541170224

> <docking_score>
-6.3677144050598145

$$$$
BENZO_146_1
  -OEChem-08212020113D

 53 56  0     0  0  0  0  0  0999 V2000
    6.4089    2.0844   24.8766 C   0  0  0  0  0  0  0  0  0  0  0  0
    7.4847    1.4191   24.2887 C   0  0  0  0  0  0  0  0  0  0  0  0
    8.9960   -2.3380   25.5320 C   0  0  0  0  0  0  0  0  0  0  0  0
    9.6730   -3.4710   23.5300 C   0  0  0  0  0  0  0  0  0  0  0  0
    9.0720   -1.1280   24.8640 C   0  0  0  0  0  0  0  0  0  0  0  0
    9.7200   -2.2600   22.8630 C   0  0  0  0  0  0  0  0  0  0  0  0
    6.5777    3.3741   25.3805 C   0  0  0  0  0  0  0  0  0  0  0  0
    8.8980    3.3330   24.7088 C   0  0  0  0  0  0  0  0  0  0  0  0
    8.7292    2.0433   24.2048 C   0  0  0  0  0  0  0  0  0  0  0  0
    9.3070   -3.5340   24.8780 C   0  0  0  0  0  0  0  0  0  0  0  0
    9.3350   -1.0880   23.5010 C   0  0  0  0  0  0  0  0  0  0  0  0
    7.8222    3.9984   25.2966 C   0  0  0  0  0  0  0  0  0  0  0  0
    5.8300    0.9190   18.6970 C   0  0  0  0  0  0  0  0  0  0  0  0
    7.3170   -0.1610   19.8550 C   0  0  0  0  0  0  0  0  0  0  0  0
    4.6890    1.6810   18.4640 C   0  0  0  0  0  0  0  0  0  0  0  0
    3.9160    2.0630   19.5520 C   0  0  0  0  0  0  0  0  0  0  0  0
    4.2750    1.7050   20.8490 C   0  0  0  0  0  0  0  0  0  0  0  0
    5.4210    0.9600   21.0930 C   0  0  0  0  0  0  0  0  0  0  0  0
    9.5334   -6.0236   25.0414 C   0  0  0  0  0  0  0  0  0  0  0  0
    9.0420    0.3700   21.5280 C   0  0  0  0  0  0  0  0  0  0  0  0
   10.6330   -7.3746   26.8775 C   0  0  0  0  0  0  0  0  0  0  0  0
    9.8870    1.3260   23.5730 C   0  0  0  0  0  0  0  0  0  0  0  0
    9.3523   -7.0865   26.1149 C   0  0  0  0  0  0  0  0  0  0  0  0
    6.7580    0.3810   17.8350 N   0  0  0  0  0  0  0  0  0  0  0  0
    7.6390   -0.2680   18.5410 N   0  0  0  0  0  0  0  0  0  0  0  0
    6.1790    0.5730   19.9990 N   0  0  0  0  0  0  0  0  0  0  0  0
    9.2546   -4.7422   25.5438 N   0  0  0  0  0  0  0  0  0  0  0  0
    8.1890   -0.7180   20.8700 N   0  0  0  0  0  0  0  0  0  0  0  0
    9.4560    0.1560   22.8130 N   0  0  0  0  0  0  0  0  0  0  0  0
    9.8806   -6.3053   23.8992 O   0  0  0  0  0  0  0  0  0  0  0  0
    9.2690    1.4140   20.9380 O   0  0  0  0  0  0  0  0  0  0  0  0
    8.0301    5.5891   25.9196 Cl  0  0  0  0  0  0  0  0  0  0  0  0
    5.4400    1.5979   24.9418 H   0  0  0  0  0  0  0  0  0  0  0  0
    7.3441    0.4143   23.8988 H   0  0  0  0  0  0  0  0  0  0  0  0
    8.6895   -2.3529   26.5807 H   0  0  0  0  0  0  0  0  0  0  0  0
    9.9262   -4.3897   22.9916 H   0  0  0  0  0  0  0  0  0  0  0  0
    8.9224   -0.1998   25.4238 H   0  0  0  0  0  0  0  0  0  0  0  0
   10.0649   -2.2343   21.8258 H   0  0  0  0  0  0  0  0  0  0  0  0
    5.7304    3.8806   25.8363 H   0  0  0  0  0  0  0  0  0  0  0  0
    9.8703    3.8156   24.6405 H   0  0  0  0  0  0  0  0  0  0  0  0
    4.3967    1.9772   17.4718 H   0  0  0  0  0  0  0  0  0  0  0  0
    3.0218    2.6486   19.3697 H   0  0  0  0  0  0  0  0  0  0  0  0
    3.6566    2.0043   21.7065 H   0  0  0  0  0  0  0  0  0  0  0  0
    5.7190    0.6877   22.0810 H   0  0  0  0  0  0  0  0  0  0  0  0
   11.4241   -7.7171   26.2024 H   0  0  0  0  0  0  0  0  0  0  0  0
   10.4629   -8.1530   27.6277 H   0  0  0  0  0  0  0  0  0  0  0  0
   10.9949   -6.4779   27.3912 H   0  0  0  0  0  0  0  0  0  0  0  0
   10.4274    1.9911   22.8906 H   0  0  0  0  0  0  0  0  0  0  0  0
   10.6011    0.9882   24.3313 H   0  0  0  0  0  0  0  0  0  0  0  0
    8.5795   -6.7463   26.8138 H   0  0  0  0  0  0  0  0  0  0  0  0
    8.9966   -8.0064   25.6368 H   0  0  0  0  0  0  0  0  0  0  0  0
    8.9776   -4.7057   26.5317 H   0  0  0  0  0  0  0  0  0  0  0  0
    8.2360   -1.5649   21.0923 H   0  0  0  0  0  0  0  0  0  0  0  0
  1  2  2  0  0  0  0
  1  7  1  0  0  0  0
  2  9  1  0  0  0  0
  3  5  2  0  0  0  0
  3 10  1  0  0  0  0
  4  6  1  0  0  0  0
  4 10  2  0  0  0  0
  5 11  1  0  0  0  0
  6 11  2  0  0  0  0
  7 12  2  0  0  0  0
  8  9  2  0  0  0  0
  8 12  1  0  0  0  0
  9 22  1  0  0  0  0
 10 27  1  0  0  0  0
 11 29  1  0  0  0  0
 12 32  1  0  0  0  0
 13 15  1  0  0  0  0
 13 24  2  0  0  0  0
 13 26  1  0  0  0  0
 14 25  2  0  0  0  0
 14 26  1  0  0  0  0
 14 28  1  0  0  0  0
 15 16  2  0  0  0  0
 16 17  1  0  0  0  0
 17 18  2  0  0  0  0
 18 26  1  0  0  0  0
 19 23  1  0  0  0  0
 19 27  1  0  0  0  0
 19 30  2  0  0  0  0
 20 28  1  0  0  0  0
 20 29  1  0  0  0  0
 20 31  2  0  0  0  0
 21 23  1  0  0  0  0
 22 29  1  0  0  0  0
 24 25  1  0  0  0  0
  1 33  1  0  0  0  0
  2 34  1  0  0  0  0
  3 35  1  0  0  0  0
  4 36  1  0  0  0  0
  5 37  1  0  0  0  0
  6 38  1  0  0  0  0
  7 39  1  0  0  0  0
  8 40  1  0  0  0  0
 15 41  1  0  0  0  0
 16 42  1  0  0  0  0
 17 43  1  0  0  0  0
 18 44  1  0  0  0  0
 21 45  1  0  0  0  0
 21 46  1  0  0  0  0
 21 47  1  0  0  0  0
 22 48  1  0  0  0  0
 22 49  1  0  0  0  0
 23 50  1  0  0  0  0
 23 51  1  0  0  0  0
 27 52  1  0  0  0  0
 28 53  1  0  0  0  0
M  END
> <clash_score>
1.4986663541170224

> <docking_score>
-5.753742218017578

$$$$
BENZO_148_1
  -OEChem-08212020113D

 55 59  0     0  0  0  0  0  0999 V2000
    8.9960   -2.3380   25.5320 C   0  0  0  0  0  0  0  0  0  0  0  0
    9.6730   -3.4710   23.5300 C   0  0  0  0  0  0  0  0  0  0  0  0
    9.0720   -1.1280   24.8640 C   0  0  0  0  0  0  0  0  0  0  0  0
    9.7200   -2.2600   22.8630 C   0  0  0  0  0  0  0  0  0  0  0  0
   12.2913    1.4279   22.6355 C   0  0  0  0  0  0  0  0  0  0  0  0
   13.6024    1.4662   23.0564 C   0  0  0  0  0  0  0  0  0  0  0  0
   12.0284    1.3764   24.9443 C   0  0  0  0  0  0  0  0  0  0  0  0
   11.3794    1.3761   23.7290 C   0  0  0  0  0  0  0  0  0  0  0  0
    9.3070   -3.5340   24.8780 C   0  0  0  0  0  0  0  0  0  0  0  0
    9.3350   -1.0880   23.5010 C   0  0  0  0  0  0  0  0  0  0  0  0
    5.8300    0.9190   18.6970 C   0  0  0  0  0  0  0  0  0  0  0  0
    7.3170   -0.1610   19.8550 C   0  0  0  0  0  0  0  0  0  0  0  0
    4.6890    1.6810   18.4640 C   0  0  0  0  0  0  0  0  0  0  0  0
    3.9160    2.0630   19.5520 C   0  0  0  0  0  0  0  0  0  0  0  0
    4.2750    1.7050   20.8490 C   0  0  0  0  0  0  0  0  0  0  0  0
    5.4210    0.9600   21.0930 C   0  0  0  0  0  0  0  0  0  0  0  0
    9.0420    0.3700   21.5280 C   0  0  0  0  0  0  0  0  0  0  0  0
    7.3635   -6.1361   27.1888 C   0  0  0  0  0  0  0  0  0  0  0  0
    8.1961   -4.9735   27.7341 C   0  0  0  0  0  0  0  0  0  0  0  0
    7.1942   -6.0394   25.6709 C   0  0  0  0  0  0  0  0  0  0  0  0
    9.5196   -4.8490   26.9797 C   0  0  0  0  0  0  0  0  0  0  0  0
    8.5442   -5.8838   24.9639 C   0  0  0  0  0  0  0  0  0  0  0  0
    9.8870    1.3260   23.5730 C   0  0  0  0  0  0  0  0  0  0  0  0
    6.7580    0.3810   17.8350 N   0  0  0  0  0  0  0  0  0  0  0  0
    7.6390   -0.2680   18.5410 N   0  0  0  0  0  0  0  0  0  0  0  0
    6.1790    0.5730   19.9990 N   0  0  0  0  0  0  0  0  0  0  0  0
    9.2562   -4.7384   25.5422 N   0  0  0  0  0  0  0  0  0  0  0  0
    8.1890   -0.7180   20.8700 N   0  0  0  0  0  0  0  0  0  0  0  0
    9.4560    0.1560   22.8130 N   0  0  0  0  0  0  0  0  0  0  0  0
    9.2690    1.4140   20.9380 O   0  0  0  0  0  0  0  0  0  0  0  0
   13.7301    1.4394   24.7638 S   0  0  0  0  0  0  0  0  0  0  0  0
    8.6905   -2.3533   26.5810 H   0  0  0  0  0  0  0  0  0  0  0  0
    9.9266   -4.3896   22.9917 H   0  0  0  0  0  0  0  0  0  0  0  0
    8.9233   -0.1992   25.4231 H   0  0  0  0  0  0  0  0  0  0  0  0
   10.0650   -2.2330   21.8256 H   0  0  0  0  0  0  0  0  0  0  0  0
   12.0045    1.4365   21.5915 H   0  0  0  0  0  0  0  0  0  0  0  0
   14.4914    1.5078   22.4431 H   0  0  0  0  0  0  0  0  0  0  0  0
   11.5886    1.3416   25.9314 H   0  0  0  0  0  0  0  0  0  0  0  0
    4.3967    1.9772   17.4718 H   0  0  0  0  0  0  0  0  0  0  0  0
    3.0218    2.6486   19.3697 H   0  0  0  0  0  0  0  0  0  0  0  0
    3.6566    2.0043   21.7065 H   0  0  0  0  0  0  0  0  0  0  0  0
    5.7190    0.6877   22.0810 H   0  0  0  0  0  0  0  0  0  0  0  0
    7.8482   -7.0901   27.4469 H   0  0  0  0  0  0  0  0  0  0  0  0
    6.3760   -6.1438   27.6724 H   0  0  0  0  0  0  0  0  0  0  0  0
    7.6307   -4.0424   27.6403 H   0  0  0  0  0  0  0  0  0  0  0  0
    8.3915   -5.1310   28.7968 H   0  0  0  0  0  0  0  0  0  0  0  0
    6.6888   -6.9376   25.3010 H   0  0  0  0  0  0  0  0  0  0  0  0
    6.5515   -5.1859   25.4257 H   0  0  0  0  0  0  0  0  0  0  0  0
   10.0492   -3.9640   27.3414 H   0  0  0  0  0  0  0  0  0  0  0  0
   10.1431   -5.7254   27.1778 H   0  0  0  0  0  0  0  0  0  0  0  0
    9.1338   -6.7931   25.0868 H   0  0  0  0  0  0  0  0  0  0  0  0
    8.3656   -5.7264   23.8998 H   0  0  0  0  0  0  0  0  0  0  0  0
    9.3974    1.2912   24.5523 H   0  0  0  0  0  0  0  0  0  0  0  0
    9.5159    2.2168   23.0553 H   0  0  0  0  0  0  0  0  0  0  0  0
    8.2565   -1.5523   21.1108 H   0  0  0  0  0  0  0  0  0  0  0  0
  1  3  2  0  0  0  0
  1  9  1  0  0  0  0
  2  4  1  0  0  0  0
  2  9  2  0  0  0  0
  3 10  1  0  0  0  0
  4 10  2  0  0  0  0
  5  6  2  0  0  0  0
  5  8  1  0  0  0  0
  6 31  1  0  0  0  0
  7  8  2  0  0  0  0
  7 31  1  0  0  0  0
  8 23  1  0  0  0  0
  9 27  1  0  0  0  0
 10 29  1  0  0  0  0
 11 13  1  0  0  0  0
 11 24  2  0  0  0  0
 11 26  1  0  0  0  0
 12 25  2  0  0  0  0
 12 26  1  0  0  0  0
 12 28  1  0  0  0  0
 13 14  2  0  0  0  0
 14 15  1  0  0  0  0
 15 16  2  0  0  0  0
 16 26  1  0  0  0  0
 17 28  1  0  0  0  0
 17 29  1  0  0  0  0
 17 30  2  0  0  0  0
 18 19  1  0  0  0  0
 18 20  1  0  0  0  0
 19 21  1  0  0  0  0
 20 22  1  0  0  0  0
 21 27  1  0  0  0  0
 22 27  1  0  0  0  0
 23 29  1  0  0  0  0
 24 25  1  0  0  0  0
  1 32  1  0  0  0  0
  2 33  1  0  0  0  0
  3 34  1  0  0  0  0
  4 35  1  0  0  0  0
  5 36  1  0  0  0  0
  6 37  1  0  0  0  0
  7 38  1  0  0  0  0
 13 39  1  0  0  0  0
 14 40  1  0  0  0  0
 15 41  1  0  0  0  0
 16 42  1  0  0  0  0
 18 43  1  0  0  0  0
 18 44  1  0  0  0  0
 19 45  1  0  0  0  0
 19 46  1  0  0  0  0
 20 47  1  0  0  0  0
 20 48  1  0  0  0  0
 21 49  1  0  0  0  0
 21 50  1  0  0  0  0
 22 51  1  0  0  0  0
 22 52  1  0  0  0  0
 23 53  1  0  0  0  0
 23 54  1  0  0  0  0
 28 55  1  0  0  0  0
M  END
> <clash_score>
0

> <docking_score>
-8.736618041992188

$$$$
BENZO_147_1
  -OEChem-08212020113D

 53 56  0     0  0  0  0  0  0999 V2000
    8.9960   -2.3380   25.5320 C   0  0  0  0  0  0  0  0  0  0  0  0
    9.6730   -3.4710   23.5300 C   0  0  0  0  0  0  0  0  0  0  0  0
    9.0720   -1.1280   24.8640 C   0  0  0  0  0  0  0  0  0  0  0  0
    9.7200   -2.2600   22.8630 C   0  0  0  0  0  0  0  0  0  0  0  0
   12.1233    1.3811   24.9242 C   0  0  0  0  0  0  0  0  0  0  0  0
   12.3261    1.4247   22.7351 C   0  0  0  0  0  0  0  0  0  0  0  0
   11.3794    1.3761   23.7290 C   0  0  0  0  0  0  0  0  0  0  0  0
    9.3070   -3.5340   24.8780 C   0  0  0  0  0  0  0  0  0  0  0  0
    9.3350   -1.0880   23.5010 C   0  0  0  0  0  0  0  0  0  0  0  0
    5.8300    0.9190   18.6970 C   0  0  0  0  0  0  0  0  0  0  0  0
    7.3170   -0.1610   19.8550 C   0  0  0  0  0  0  0  0  0  0  0  0
    4.6890    1.6810   18.4640 C   0  0  0  0  0  0  0  0  0  0  0  0
    3.9160    2.0630   19.5520 C   0  0  0  0  0  0  0  0  0  0  0  0
    4.2750    1.7050   20.8490 C   0  0  0  0  0  0  0  0  0  0  0  0
    5.4210    0.9600   21.0930 C   0  0  0  0  0  0  0  0  0  0  0  0
    9.5334   -6.0236   25.0414 C   0  0  0  0  0  0  0  0  0  0  0  0
    9.0420    0.3700   21.5280 C   0  0  0  0  0  0  0  0  0  0  0  0
   10.6330   -7.3746   26.8775 C   0  0  0  0  0  0  0  0  0  0  0  0
   14.8305    1.5084   22.7418 C   0  0  0  0  0  0  0  0  0  0  0  0
    9.8870    1.3260   23.5730 C   0  0  0  0  0  0  0  0  0  0  0  0
    9.3523   -7.0865   26.1149 C   0  0  0  0  0  0  0  0  0  0  0  0
   13.4410    1.4289   24.7112 N   0  0  0  0  0  0  0  0  0  0  0  0
    6.7580    0.3810   17.8350 N   0  0  0  0  0  0  0  0  0  0  0  0
    7.6390   -0.2680   18.5410 N   0  0  0  0  0  0  0  0  0  0  0  0
   13.5326    1.4543   23.3706 N   0  0  0  0  0  0  0  0  0  0  0  0
    6.1790    0.5730   19.9990 N   0  0  0  0  0  0  0  0  0  0  0  0
    9.2546   -4.7422   25.5438 N   0  0  0  0  0  0  0  0  0  0  0  0
    8.1890   -0.7180   20.8700 N   0  0  0  0  0  0  0  0  0  0  0  0
    9.4560    0.1560   22.8130 N   0  0  0  0  0  0  0  0  0  0  0  0
    9.8806   -6.3053   23.8992 O   0  0  0  0  0  0  0  0  0  0  0  0
    9.2690    1.4140   20.9380 O   0  0  0  0  0  0  0  0  0  0  0  0
    8.6895   -2.3529   26.5807 H   0  0  0  0  0  0  0  0  0  0  0  0
    9.9262   -4.3897   22.9916 H   0  0  0  0  0  0  0  0  0  0  0  0
    8.9224   -0.1998   25.4238 H   0  0  0  0  0  0  0  0  0  0  0  0
   10.0649   -2.2343   21.8258 H   0  0  0  0  0  0  0  0  0  0  0  0
   11.7624    1.3510   25.9426 H   0  0  0  0  0  0  0  0  0  0  0  0
   12.2462    1.4390   21.6566 H   0  0  0  0  0  0  0  0  0  0  0  0
    4.3967    1.9772   17.4718 H   0  0  0  0  0  0  0  0  0  0  0  0
    3.0218    2.6486   19.3697 H   0  0  0  0  0  0  0  0  0  0  0  0
    3.6566    2.0043   21.7065 H   0  0  0  0  0  0  0  0  0  0  0  0
    5.7190    0.6877   22.0810 H   0  0  0  0  0  0  0  0  0  0  0  0
   11.4241   -7.7171   26.2024 H   0  0  0  0  0  0  0  0  0  0  0  0
   10.4629   -8.1530   27.6277 H   0  0  0  0  0  0  0  0  0  0  0  0
   10.9949   -6.4779   27.3912 H   0  0  0  0  0  0  0  0  0  0  0  0
   15.0990    2.5601   22.6124 H   0  0  0  0  0  0  0  0  0  0  0  0
   15.5636    1.0018   23.3756 H   0  0  0  0  0  0  0  0  0  0  0  0
   14.7841    1.0025   21.7733 H   0  0  0  0  0  0  0  0  0  0  0  0
    9.3974    1.2912   24.5523 H   0  0  0  0  0  0  0  0  0  0  0  0
    9.5159    2.2168   23.0553 H   0  0  0  0  0  0  0  0  0  0  0  0
    8.5795   -6.7463   26.8138 H   0  0  0  0  0  0  0  0  0  0  0  0
    8.9966   -8.0064   25.6368 H   0  0  0  0  0  0  0  0  0  0  0  0
    8.9776   -4.7057   26.5317 H   0  0  0  0  0  0  0  0  0  0  0  0
    8.2360   -1.5649   21.0923 H   0  0  0  0  0  0  0  0  0  0  0  0
  1  3  2  0  0  0  0
  1  8  1  0  0  0  0
  2  4  1  0  0  0  0
  2  8  2  0  0  0  0
  3  9  1  0  0  0  0
  4  9  2  0  0  0  0
  5  7  1  0  0  0  0
  5 22  2  0  0  0  0
  6  7  2  0  0  0  0
  6 25  1  0  0  0  0
  7 20  1  0  0  0  0
  8 27  1  0  0  0  0
  9 29  1  0  0  0  0
 10 12  1  0  0  0  0
 10 23  2  0  0  0  0
 10 26  1  0  0  0  0
 11 24  2  0  0  0  0
 11 26  1  0  0  0  0
 11 28  1  0  0  0  0
 12 13  2  0  0  0  0
 13 14  1  0  0  0  0
 14 15  2  0  0  0  0
 15 26  1  0  0  0  0
 16 21  1  0  0  0  0
 16 27  1  0  0  0  0
 16 30  2  0  0  0  0
 17 28  1  0  0  0  0
 17 29  1  0  0  0  0
 17 31  2  0  0  0  0
 18 21  1  0  0  0  0
 19 25  1  0  0  0  0
 20 29  1  0  0  0  0
 22 25  1  0  0  0  0
 23 24  1  0  0  0  0
  1 32  1  0  0  0  0
  2 33  1  0  0  0  0
  3 34  1  0  0  0  0
  4 35  1  0  0  0  0
  5 36  1  0  0  0  0
  6 37  1  0  0  0  0
 12 38  1  0  0  0  0
 13 39  1  0  0  0  0
 14 40  1  0  0  0  0
 15 41  1  0  0  0  0
 18 42  1  0  0  0  0
 18 43  1  0  0  0  0
 18 44  1  0  0  0  0
 19 45  1  0  0  0  0
 19 46  1  0  0  0  0
 19 47  1  0  0  0  0
 20 48  1  0  0  0  0
 20 49  1  0  0  0  0
 21 50  1  0  0  0  0
 21 51  1  0  0  0  0
 27 52  1  0  0  0  0
 28 53  1  0  0  0  0
M  END
> <clash_score>
1.4986663541170224

> <docking_score>
-6.083856105804443

$$$$
BENZO_149_1
  -OEChem-08212020113D

 58 62  0     0  0  0  0  0  0999 V2000
   14.1526    1.4694   24.0176 C   0  0  0  0  0  0  0  0  0  0  0  0
   13.3741    0.8121   24.9701 C   0  0  0  0  0  0  0  0  0  0  0  0
   13.5446    2.0802   22.9208 C   0  0  0  0  0  0  0  0  0  0  0  0
   11.9875    0.7654   24.8258 C   0  0  0  0  0  0  0  0  0  0  0  0
   12.1580    2.0335   22.7765 C   0  0  0  0  0  0  0  0  0  0  0  0
    8.9960   -2.3380   25.5320 C   0  0  0  0  0  0  0  0  0  0  0  0
    9.6730   -3.4710   23.5300 C   0  0  0  0  0  0  0  0  0  0  0  0
    9.0720   -1.1280   24.8640 C   0  0  0  0  0  0  0  0  0  0  0  0
    9.7200   -2.2600   22.8630 C   0  0  0  0  0  0  0  0  0  0  0  0
   11.3794    1.3761   23.7290 C   0  0  0  0  0  0  0  0  0  0  0  0
    9.3070   -3.5340   24.8780 C   0  0  0  0  0  0  0  0  0  0  0  0
    9.3350   -1.0880   23.5010 C   0  0  0  0  0  0  0  0  0  0  0  0
    5.8300    0.9190   18.6970 C   0  0  0  0  0  0  0  0  0  0  0  0
    7.3170   -0.1610   19.8550 C   0  0  0  0  0  0  0  0  0  0  0  0
    4.6890    1.6810   18.4640 C   0  0  0  0  0  0  0  0  0  0  0  0
    3.9160    2.0630   19.5520 C   0  0  0  0  0  0  0  0  0  0  0  0
    4.2750    1.7050   20.8490 C   0  0  0  0  0  0  0  0  0  0  0  0
    5.4210    0.9600   21.0930 C   0  0  0  0  0  0  0  0  0  0  0  0
    9.0420    0.3700   21.5280 C   0  0  0  0  0  0  0  0  0  0  0  0
    7.3635   -6.1361   27.1888 C   0  0  0  0  0  0  0  0  0  0  0  0
    8.1961   -4.9735   27.7341 C   0  0  0  0  0  0  0  0  0  0  0  0
    7.1942   -6.0394   25.6709 C   0  0  0  0  0  0  0  0  0  0  0  0
    9.5196   -4.8490   26.9797 C   0  0  0  0  0  0  0  0  0  0  0  0
    8.5442   -5.8838   24.9639 C   0  0  0  0  0  0  0  0  0  0  0  0
    9.8870    1.3260   23.5730 C   0  0  0  0  0  0  0  0  0  0  0  0
    6.7580    0.3810   17.8350 N   0  0  0  0  0  0  0  0  0  0  0  0
    7.6390   -0.2680   18.5410 N   0  0  0  0  0  0  0  0  0  0  0  0
    6.1790    0.5730   19.9990 N   0  0  0  0  0  0  0  0  0  0  0  0
    9.2562   -4.7384   25.5422 N   0  0  0  0  0  0  0  0  0  0  0  0
    8.1890   -0.7180   20.8700 N   0  0  0  0  0  0  0  0  0  0  0  0
    9.4560    0.1560   22.8130 N   0  0  0  0  0  0  0  0  0  0  0  0
    9.2690    1.4140   20.9380 O   0  0  0  0  0  0  0  0  0  0  0  0
   15.2322    1.5068   24.1308 H   0  0  0  0  0  0  0  0  0  0  0  0
   13.8473    0.3374   25.8248 H   0  0  0  0  0  0  0  0  0  0  0  0
   14.1503    2.5930   22.1795 H   0  0  0  0  0  0  0  0  0  0  0  0
   11.3889    0.2508   25.5729 H   0  0  0  0  0  0  0  0  0  0  0  0
   11.6930    2.5120   21.9187 H   0  0  0  0  0  0  0  0  0  0  0  0
    8.6905   -2.3533   26.5810 H   0  0  0  0  0  0  0  0  0  0  0  0
    9.9266   -4.3896   22.9917 H   0  0  0  0  0  0  0  0  0  0  0  0
    8.9233   -0.1992   25.4231 H   0  0  0  0  0  0  0  0  0  0  0  0
   10.0650   -2.2330   21.8256 H   0  0  0  0  0  0  0  0  0  0  0  0
    4.3967    1.9772   17.4718 H   0  0  0  0  0  0  0  0  0  0  0  0
    3.0218    2.6486   19.3697 H   0  0  0  0  0  0  0  0  0  0  0  0
    3.6566    2.0043   21.7065 H   0  0  0  0  0  0  0  0  0  0  0  0
    5.7190    0.6877   22.0810 H   0  0  0  0  0  0  0  0  0  0  0  0
    7.8482   -7.0901   27.4469 H   0  0  0  0  0  0  0  0  0  0  0  0
    6.3760   -6.1438   27.6724 H   0  0  0  0  0  0  0  0  0  0  0  0
    7.6307   -4.0424   27.6403 H   0  0  0  0  0  0  0  0  0  0  0  0
    8.3915   -5.1310   28.7968 H   0  0  0  0  0  0  0  0  0  0  0  0
    6.6888   -6.9376   25.3010 H   0  0  0  0  0  0  0  0  0  0  0  0
    6.5515   -5.1859   25.4257 H   0  0  0  0  0  0  0  0  0  0  0  0
   10.0492   -3.9640   27.3414 H   0  0  0  0  0  0  0  0  0  0  0  0
   10.1431   -5.7254   27.1778 H   0  0  0  0  0  0  0  0  0  0  0  0
    9.1338   -6.7931   25.0868 H   0  0  0  0  0  0  0  0  0  0  0  0
    8.3656   -5.7264   23.8998 H   0  0  0  0  0  0  0  0  0  0  0  0
    9.3974    1.2912   24.5523 H   0  0  0  0  0  0  0  0  0  0  0  0
    9.5159    2.2168   23.0553 H   0  0  0  0  0  0  0  0  0  0  0  0
    8.2565   -1.5523   21.1108 H   0  0  0  0  0  0  0  0  0  0  0  0
  1  2  1  0  0  0  0
  1  3  2  0  0  0  0
  2  4  2  0  0  0  0
  3  5  1  0  0  0  0
  4 10  1  0  0  0  0
  5 10  2  0  0  0  0
  6  8  2  0  0  0  0
  6 11  1  0  0  0  0
  7  9  1  0  0  0  0
  7 11  2  0  0  0  0
  8 12  1  0  0  0  0
  9 12  2  0  0  0  0
 10 25  1  0  0  0  0
 11 29  1  0  0  0  0
 12 31  1  0  0  0  0
 13 15  1  0  0  0  0
 13 26  2  0  0  0  0
 13 28  1  0  0  0  0
 14 27  2  0  0  0  0
 14 28  1  0  0  0  0
 14 30  1  0  0  0  0
 15 16  2  0  0  0  0
 16 17  1  0  0  0  0
 17 18  2  0  0  0  0
 18 28  1  0  0  0  0
 19 30  1  0  0  0  0
 19 31  1  0  0  0  0
 19 32  2  0  0  0  0
 20 21  1  0  0  0  0
 20 22  1  0  0  0  0
 21 23  1  0  0  0  0
 22 24  1  0  0  0  0
 23 29  1  0  0  0  0
 24 29  1  0  0  0  0
 25 31  1  0  0  0  0
 26 27  1  0  0  0  0
  1 33  1  0  0  0  0
  2 34  1  0  0  0  0
  3 35  1  0  0  0  0
  4 36  1  0  0  0  0
  5 37  1  0  0  0  0
  6 38  1  0  0  0  0
  7 39  1  0  0  0  0
  8 40  1  0  0  0  0
  9 41  1  0  0  0  0
 15 42  1  0  0  0  0
 16 43  1  0  0  0  0
 17 44  1  0  0  0  0
 18 45  1  0  0  0  0
 20 46  1  0  0  0  0
 20 47  1  0  0  0  0
 21 48  1  0  0  0  0
 21 49  1  0  0  0  0
 22 50  1  0  0  0  0
 22 51  1  0  0  0  0
 23 52  1  0  0  0  0
 23 53  1  0  0  0  0
 24 54  1  0  0  0  0
 24 55  1  0  0  0  0
 25 56  1  0  0  0  0
 25 57  1  0  0  0  0
 30 58  1  0  0  0  0
M  END
> <clash_score>
0

> <docking_score>
-8.657766342163086

$$$$
BENZO_150_1
  -OEChem-08212020113D

 58 62  0     0  0  0  0  0  0999 V2000
    6.4089    2.0844   24.8766 C   0  0  0  0  0  0  0  0  0  0  0  0
    7.4847    1.4191   24.2887 C   0  0  0  0  0  0  0  0  0  0  0  0
    8.9960   -2.3380   25.5320 C   0  0  0  0  0  0  0  0  0  0  0  0
    9.6730   -3.4710   23.5300 C   0  0  0  0  0  0  0  0  0  0  0  0
    9.0720   -1.1280   24.8640 C   0  0  0  0  0  0  0  0  0  0  0  0
    9.7200   -2.2600   22.8630 C   0  0  0  0  0  0  0  0  0  0  0  0
    6.5777    3.3741   25.3805 C   0  0  0  0  0  0  0  0  0  0  0  0
    8.8980    3.3330   24.7088 C   0  0  0  0  0  0  0  0  0  0  0  0
    8.7292    2.0433   24.2048 C   0  0  0  0  0  0  0  0  0  0  0  0
    9.3070   -3.5340   24.8780 C   0  0  0  0  0  0  0  0  0  0  0  0
    9.3350   -1.0880   23.5010 C   0  0  0  0  0  0  0  0  0  0  0  0
    7.8222    3.9984   25.2966 C   0  0  0  0  0  0  0  0  0  0  0  0
    5.8300    0.9190   18.6970 C   0  0  0  0  0  0  0  0  0  0  0  0
    7.3170   -0.1610   19.8550 C   0  0  0  0  0  0  0  0  0  0  0  0
    4.6890    1.6810   18.4640 C   0  0  0  0  0  0  0  0  0  0  0  0
    3.9160    2.0630   19.5520 C   0  0  0  0  0  0  0  0  0  0  0  0
    4.2750    1.7050   20.8490 C   0  0  0  0  0  0  0  0  0  0  0  0
    5.4210    0.9600   21.0930 C   0  0  0  0  0  0  0  0  0  0  0  0
    9.0420    0.3700   21.5280 C   0  0  0  0  0  0  0  0  0  0  0  0
    7.3635   -6.1361   27.1888 C   0  0  0  0  0  0  0  0  0  0  0  0
    8.1961   -4.9735   27.7341 C   0  0  0  0  0  0  0  0  0  0  0  0
    7.1942   -6.0394   25.6709 C   0  0  0  0  0  0  0  0  0  0  0  0
    9.5196   -4.8490   26.9797 C   0  0  0  0  0  0  0  0  0  0  0  0
    8.5442   -5.8838   24.9639 C   0  0  0  0  0  0  0  0  0  0  0  0
    9.8870    1.3260   23.5730 C   0  0  0  0  0  0  0  0  0  0  0  0
    6.7580    0.3810   17.8350 N   0  0  0  0  0  0  0  0  0  0  0  0
    7.6390   -0.2680   18.5410 N   0  0  0  0  0  0  0  0  0  0  0  0
    6.1790    0.5730   19.9990 N   0  0  0  0  0  0  0  0  0  0  0  0
    9.2562   -4.7384   25.5422 N   0  0  0  0  0  0  0  0  0  0  0  0
    8.1890   -0.7180   20.8700 N   0  0  0  0  0  0  0  0  0  0  0  0
    9.4560    0.1560   22.8130 N   0  0  0  0  0  0  0  0  0  0  0  0
    9.2690    1.4140   20.9380 O   0  0  0  0  0  0  0  0  0  0  0  0
    8.0301    5.5891   25.9196 Cl  0  0  0  0  0  0  0  0  0  0  0  0
    5.4400    1.5979   24.9418 H   0  0  0  0  0  0  0  0  0  0  0  0
    7.3441    0.4143   23.8988 H   0  0  0  0  0  0  0  0  0  0  0  0
    8.6905   -2.3533   26.5810 H   0  0  0  0  0  0  0  0  0  0  0  0
    9.9266   -4.3896   22.9917 H   0  0  0  0  0  0  0  0  0  0  0  0
    8.9233   -0.1992   25.4231 H   0  0  0  0  0  0  0  0  0  0  0  0
   10.0650   -2.2330   21.8256 H   0  0  0  0  0  0  0  0  0  0  0  0
    5.7304    3.8806   25.8363 H   0  0  0  0  0  0  0  0  0  0  0  0
    9.8703    3.8156   24.6405 H   0  0  0  0  0  0  0  0  0  0  0  0
    4.3967    1.9772   17.4718 H   0  0  0  0  0  0  0  0  0  0  0  0
    3.0218    2.6486   19.3697 H   0  0  0  0  0  0  0  0  0  0  0  0
    3.6566    2.0043   21.7065 H   0  0  0  0  0  0  0  0  0  0  0  0
    5.7190    0.6877   22.0810 H   0  0  0  0  0  0  0  0  0  0  0  0
    7.8482   -7.0901   27.4469 H   0  0  0  0  0  0  0  0  0  0  0  0
    6.3760   -6.1438   27.6724 H   0  0  0  0  0  0  0  0  0  0  0  0
    7.6307   -4.0424   27.6403 H   0  0  0  0  0  0  0  0  0  0  0  0
    8.3915   -5.1310   28.7968 H   0  0  0  0  0  0  0  0  0  0  0  0
    6.6888   -6.9376   25.3010 H   0  0  0  0  0  0  0  0  0  0  0  0
    6.5515   -5.1859   25.4257 H   0  0  0  0  0  0  0  0  0  0  0  0
   10.0492   -3.9640   27.3414 H   0  0  0  0  0  0  0  0  0  0  0  0
   10.1431   -5.7254   27.1778 H   0  0  0  0  0  0  0  0  0  0  0  0
    9.1338   -6.7931   25.0868 H   0  0  0  0  0  0  0  0  0  0  0  0
    8.3656   -5.7264   23.8998 H   0  0  0  0  0  0  0  0  0  0  0  0
   10.4274    1.9911   22.8906 H   0  0  0  0  0  0  0  0  0  0  0  0
   10.6011    0.9882   24.3313 H   0  0  0  0  0  0  0  0  0  0  0  0
    8.2565   -1.5523   21.1108 H   0  0  0  0  0  0  0  0  0  0  0  0
  1  2  2  0  0  0  0
  1  7  1  0  0  0  0
  2  9  1  0  0  0  0
  3  5  2  0  0  0  0
  3 10  1  0  0  0  0
  4  6  1  0  0  0  0
  4 10  2  0  0  0  0
  5 11  1  0  0  0  0
  6 11  2  0  0  0  0
  7 12  2  0  0  0  0
  8  9  2  0  0  0  0
  8 12  1  0  0  0  0
  9 25  1  0  0  0  0
 10 29  1  0  0  0  0
 11 31  1  0  0  0  0
 12 33  1  0  0  0  0
 13 15  1  0  0  0  0
 13 26  2  0  0  0  0
 13 28  1  0  0  0  0
 14 27  2  0  0  0  0
 14 28  1  0  0  0  0
 14 30  1  0  0  0  0
 15 16  2  0  0  0  0
 16 17  1  0  0  0  0
 17 18  2  0  0  0  0
 18 28  1  0  0  0  0
 19 30  1  0  0  0  0
 19 31  1  0  0  0  0
 19 32  2  0  0  0  0
 20 21  1  0  0  0  0
 20 22  1  0  0  0  0
 21 23  1  0  0  0  0
 22 24  1  0  0  0  0
 23 29  1  0  0  0  0
 24 29  1  0  0  0  0
 25 31  1  0  0  0  0
 26 27  1  0  0  0  0
  1 34  1  0  0  0  0
  2 35  1  0  0  0  0
  3 36  1  0  0  0  0
  4 37  1  0  0  0  0
  5 38  1  0  0  0  0
  6 39  1  0  0  0  0
  7 40  1  0  0  0  0
  8 41  1  0  0  0  0
 15 42  1  0  0  0  0
 16 43  1  0  0  0  0
 17 44  1  0  0  0  0
 18 45  1  0  0  0  0
 20 46  1  0  0  0  0
 20 47  1  0  0  0  0
 21 48  1  0  0  0  0
 21 49  1  0  0  0  0
 22 50  1  0  0  0  0
 22 51  1  0  0  0  0
 23 52  1  0  0  0  0
 23 53  1  0  0  0  0
 24 54  1  0  0  0  0
 24 55  1  0  0  0  0
 25 56  1  0  0  0  0
 25 57  1  0  0  0  0
 30 58  1  0  0  0  0
M  END
> <clash_score>
0

> <docking_score>
-8.043790817260742

$$$$
BENZO_151_1
  -OEChem-08212020113D

 58 62  0     0  0  0  0  0  0999 V2000
    8.9960   -2.3380   25.5320 C   0  0  0  0  0  0  0  0  0  0  0  0
    9.6730   -3.4710   23.5300 C   0  0  0  0  0  0  0  0  0  0  0  0
    9.0720   -1.1280   24.8640 C   0  0  0  0  0  0  0  0  0  0  0  0
    9.7200   -2.2600   22.8630 C   0  0  0  0  0  0  0  0  0  0  0  0
   12.1233    1.3811   24.9242 C   0  0  0  0  0  0  0  0  0  0  0  0
   12.3261    1.4247   22.7351 C   0  0  0  0  0  0  0  0  0  0  0  0
   11.3794    1.3761   23.7290 C   0  0  0  0  0  0  0  0  0  0  0  0
    9.3070   -3.5340   24.8780 C   0  0  0  0  0  0  0  0  0  0  0  0
    9.3350   -1.0880   23.5010 C   0  0  0  0  0  0  0  0  0  0  0  0
    5.8300    0.9190   18.6970 C   0  0  0  0  0  0  0  0  0  0  0  0
    7.3170   -0.1610   19.8550 C   0  0  0  0  0  0  0  0  0  0  0  0
    4.6890    1.6810   18.4640 C   0  0  0  0  0  0  0  0  0  0  0  0
    3.9160    2.0630   19.5520 C   0  0  0  0  0  0  0  0  0  0  0  0
    4.2750    1.7050   20.8490 C   0  0  0  0  0  0  0  0  0  0  0  0
    5.4210    0.9600   21.0930 C   0  0  0  0  0  0  0  0  0  0  0  0
    9.0420    0.3700   21.5280 C   0  0  0  0  0  0  0  0  0  0  0  0
    7.3635   -6.1361   27.1888 C   0  0  0  0  0  0  0  0  0  0  0  0
    8.1961   -4.9735   27.7341 C   0  0  0  0  0  0  0  0  0  0  0  0
    7.1942   -6.0394   25.6709 C   0  0  0  0  0  0  0  0  0  0  0  0
    9.5196   -4.8490   26.9797 C   0  0  0  0  0  0  0  0  0  0  0  0
    8.5442   -5.8838   24.9639 C   0  0  0  0  0  0  0  0  0  0  0  0
   14.8305    1.5084   22.7418 C   0  0  0  0  0  0  0  0  0  0  0  0
    9.8870    1.3260   23.5730 C   0  0  0  0  0  0  0  0  0  0  0  0
   13.4410    1.4289   24.7112 N   0  0  0  0  0  0  0  0  0  0  0  0
    6.7580    0.3810   17.8350 N   0  0  0  0  0  0  0  0  0  0  0  0
    7.6390   -0.2680   18.5410 N   0  0  0  0  0  0  0  0  0  0  0  0
   13.5326    1.4543   23.3706 N   0  0  0  0  0  0  0  0  0  0  0  0
    6.1790    0.5730   19.9990 N   0  0  0  0  0  0  0  0  0  0  0  0
    9.2562   -4.7384   25.5422 N   0  0  0  0  0  0  0  0  0  0  0  0
    8.1890   -0.7180   20.8700 N   0  0  0  0  0  0  0  0  0  0  0  0
    9.4560    0.1560   22.8130 N   0  0  0  0  0  0  0  0  0  0  0  0
    9.2690    1.4140   20.9380 O   0  0  0  0  0  0  0  0  0  0  0  0
    8.6905   -2.3533   26.5810 H   0  0  0  0  0  0  0  0  0  0  0  0
    9.9266   -4.3896   22.9917 H   0  0  0  0  0  0  0  0  0  0  0  0
    8.9233   -0.1992   25.4231 H   0  0  0  0  0  0  0  0  0  0  0  0
   10.0650   -2.2330   21.8256 H   0  0  0  0  0  0  0  0  0  0  0  0
   11.7624    1.3510   25.9426 H   0  0  0  0  0  0  0  0  0  0  0  0
   12.2462    1.4390   21.6566 H   0  0  0  0  0  0  0  0  0  0  0  0
    4.3967    1.9772   17.4718 H   0  0  0  0  0  0  0  0  0  0  0  0
    3.0218    2.6486   19.3697 H   0  0  0  0  0  0  0  0  0  0  0  0
    3.6566    2.0043   21.7065 H   0  0  0  0  0  0  0  0  0  0  0  0
    5.7190    0.6877   22.0810 H   0  0  0  0  0  0  0  0  0  0  0  0
    7.8482   -7.0901   27.4469 H   0  0  0  0  0  0  0  0  0  0  0  0
    6.3760   -6.1438   27.6724 H   0  0  0  0  0  0  0  0  0  0  0  0
    7.6307   -4.0424   27.6403 H   0  0  0  0  0  0  0  0  0  0  0  0
    8.3915   -5.1310   28.7968 H   0  0  0  0  0  0  0  0  0  0  0  0
    6.6888   -6.9376   25.3010 H   0  0  0  0  0  0  0  0  0  0  0  0
    6.5515   -5.1859   25.4257 H   0  0  0  0  0  0  0  0  0  0  0  0
   10.0492   -3.9640   27.3414 H   0  0  0  0  0  0  0  0  0  0  0  0
   10.1431   -5.7254   27.1778 H   0  0  0  0  0  0  0  0  0  0  0  0
    9.1338   -6.7931   25.0868 H   0  0  0  0  0  0  0  0  0  0  0  0
    8.3656   -5.7264   23.8998 H   0  0  0  0  0  0  0  0  0  0  0  0
   15.0990    2.5601   22.6124 H   0  0  0  0  0  0  0  0  0  0  0  0
   15.5636    1.0018   23.3756 H   0  0  0  0  0  0  0  0  0  0  0  0
   14.7841    1.0025   21.7733 H   0  0  0  0  0  0  0  0  0  0  0  0
    9.3974    1.2912   24.5523 H   0  0  0  0  0  0  0  0  0  0  0  0
    9.5159    2.2168   23.0553 H   0  0  0  0  0  0  0  0  0  0  0  0
    8.2565   -1.5523   21.1108 H   0  0  0  0  0  0  0  0  0  0  0  0
  1  3  2  0  0  0  0
  1  8  1  0  0  0  0
  2  4  1  0  0  0  0
  2  8  2  0  0  0  0
  3  9  1  0  0  0  0
  4  9  2  0  0  0  0
  5  7  1  0  0  0  0
  5 24  2  0  0  0  0
  6  7  2  0  0  0  0
  6 27  1  0  0  0  0
  7 23  1  0  0  0  0
  8 29  1  0  0  0  0
  9 31  1  0  0  0  0
 10 12  1  0  0  0  0
 10 25  2  0  0  0  0
 10 28  1  0  0  0  0
 11 26  2  0  0  0  0
 11 28  1  0  0  0  0
 11 30  1  0  0  0  0
 12 13  2  0  0  0  0
 13 14  1  0  0  0  0
 14 15  2  0  0  0  0
 15 28  1  0  0  0  0
 16 30  1  0  0  0  0
 16 31  1  0  0  0  0
 16 32  2  0  0  0  0
 17 18  1  0  0  0  0
 17 19  1  0  0  0  0
 18 20  1  0  0  0  0
 19 21  1  0  0  0  0
 20 29  1  0  0  0  0
 21 29  1  0  0  0  0
 22 27  1  0  0  0  0
 23 31  1  0  0  0  0
 24 27  1  0  0  0  0
 25 26  1  0  0  0  0
  1 33  1  0  0  0  0
  2 34  1  0  0  0  0
  3 35  1  0  0  0  0
  4 36  1  0  0  0  0
  5 37  1  0  0  0  0
  6 38  1  0  0  0  0
 12 39  1  0  0  0  0
 13 40  1  0  0  0  0
 14 41  1  0  0  0  0
 15 42  1  0  0  0  0
 17 43  1  0  0  0  0
 17 44  1  0  0  0  0
 18 45  1  0  0  0  0
 18 46  1  0  0  0  0
 19 47  1  0  0  0  0
 19 48  1  0  0  0  0
 20 49  1  0  0  0  0
 20 50  1  0  0  0  0
 21 51  1  0  0  0  0
 21 52  1  0  0  0  0
 22 53  1  0  0  0  0
 22 54  1  0  0  0  0
 22 55  1  0  0  0  0
 23 56  1  0  0  0  0
 23 57  1  0  0  0  0
 30 58  1  0  0  0  0
M  END
> <clash_score>
0

> <docking_score>
-8.373891830444336

$$$$
BENZO_153_1
  -OEChem-08212020143D

 46 49  0     0  0  0  0  0  0999 V2000
   14.1526    1.4694   24.0176 C   0  0  0  0  0  0  0  0  0  0  0  0
   13.3741    0.8121   24.9701 C   0  0  0  0  0  0  0  0  0  0  0  0
   13.5446    2.0802   22.9208 C   0  0  0  0  0  0  0  0  0  0  0  0
   11.9875    0.7654   24.8258 C   0  0  0  0  0  0  0  0  0  0  0  0
   12.1580    2.0335   22.7765 C   0  0  0  0  0  0  0  0  0  0  0  0
    8.9960   -2.3380   25.5320 C   0  0  0  0  0  0  0  0  0  0  0  0
    9.6730   -3.4710   23.5300 C   0  0  0  0  0  0  0  0  0  0  0  0
    9.0720   -1.1280   24.8640 C   0  0  0  0  0  0  0  0  0  0  0  0
    9.7200   -2.2600   22.8630 C   0  0  0  0  0  0  0  0  0  0  0  0
    9.3070   -3.5340   24.8780 C   0  0  0  0  0  0  0  0  0  0  0  0
   11.3794    1.3761   23.7290 C   0  0  0  0  0  0  0  0  0  0  0  0
    9.3350   -1.0880   23.5010 C   0  0  0  0  0  0  0  0  0  0  0  0
    5.8300    0.9190   18.6970 C   0  0  0  0  0  0  0  0  0  0  0  0
    7.3170   -0.1610   19.8550 C   0  0  0  0  0  0  0  0  0  0  0  0
    4.6890    1.6810   18.4640 C   0  0  0  0  0  0  0  0  0  0  0  0
    3.9160    2.0630   19.5520 C   0  0  0  0  0  0  0  0  0  0  0  0
    4.2750    1.7050   20.8490 C   0  0  0  0  0  0  0  0  0  0  0  0
    5.4210    0.9600   21.0930 C   0  0  0  0  0  0  0  0  0  0  0  0
    9.0420    0.3700   21.5280 C   0  0  0  0  0  0  0  0  0  0  0  0
    9.2505   -4.8264   25.5904 C   0  0  0  0  0  0  0  0  0  0  0  0
    9.8870    1.3260   23.5730 C   0  0  0  0  0  0  0  0  0  0  0  0
    6.7580    0.3810   17.8350 N   0  0  0  0  0  0  0  0  0  0  0  0
    7.6390   -0.2680   18.5410 N   0  0  0  0  0  0  0  0  0  0  0  0
    6.1790    0.5730   19.9990 N   0  0  0  0  0  0  0  0  0  0  0  0
    8.1890   -0.7180   20.8700 N   0  0  0  0  0  0  0  0  0  0  0  0
    9.4560    0.1560   22.8130 N   0  0  0  0  0  0  0  0  0  0  0  0
    9.2690    1.4140   20.9380 O   0  0  0  0  0  0  0  0  0  0  0  0
   15.2322    1.5068   24.1308 H   0  0  0  0  0  0  0  0  0  0  0  0
   13.8473    0.3374   25.8248 H   0  0  0  0  0  0  0  0  0  0  0  0
   14.1503    2.5930   22.1795 H   0  0  0  0  0  0  0  0  0  0  0  0
   11.3889    0.2508   25.5729 H   0  0  0  0  0  0  0  0  0  0  0  0
   11.6930    2.5120   21.9187 H   0  0  0  0  0  0  0  0  0  0  0  0
    8.6919   -2.3557   26.5813 H   0  0  0  0  0  0  0  0  0  0  0  0
    9.9267   -4.3907   22.9939 H   0  0  0  0  0  0  0  0  0  0  0  0
    8.9217   -0.1995   25.4231 H   0  0  0  0  0  0  0  0  0  0  0  0
   10.0653   -2.2339   21.8256 H   0  0  0  0  0  0  0  0  0  0  0  0
    4.3967    1.9772   17.4718 H   0  0  0  0  0  0  0  0  0  0  0  0
    3.0218    2.6486   19.3697 H   0  0  0  0  0  0  0  0  0  0  0  0
    3.6566    2.0043   21.7065 H   0  0  0  0  0  0  0  0  0  0  0  0
    5.7190    0.6877   22.0810 H   0  0  0  0  0  0  0  0  0  0  0  0
    8.2503   -5.2678   25.5020 H   0  0  0  0  0  0  0  0  0  0  0  0
    9.9817   -5.5374   25.1845 H   0  0  0  0  0  0  0  0  0  0  0  0
    9.4841   -4.7043   26.6562 H   0  0  0  0  0  0  0  0  0  0  0  0
    9.3974    1.2912   24.5523 H   0  0  0  0  0  0  0  0  0  0  0  0
    9.5159    2.2168   23.0553 H   0  0  0  0  0  0  0  0  0  0  0  0
    8.2360   -1.5649   21.0923 H   0  0  0  0  0  0  0  0  0  0  0  0
  1  2  1  0  0  0  0
  1  3  2  0  0  0  0
  2  4  2  0  0  0  0
  3  5  1  0  0  0  0
  4 11  1  0  0  0  0
  5 11  2  0  0  0  0
  6  8  2  0  0  0  0
  6 10  1  0  0  0  0
  7  9  1  0  0  0  0
  7 10  2  0  0  0  0
  8 12  1  0  0  0  0
  9 12  2  0  0  0  0
 10 20  1  0  0  0  0
 11 21  1  0  0  0  0
 12 26  1  0  0  0  0
 13 15  1  0  0  0  0
 13 22  2  0  0  0  0
 13 24  1  0  0  0  0
 14 23  2  0  0  0  0
 14 24  1  0  0  0  0
 14 25  1  0  0  0  0
 15 16  2  0  0  0  0
 16 17  1  0  0  0  0
 17 18  2  0  0  0  0
 18 24  1  0  0  0  0
 19 25  1  0  0  0  0
 19 26  1  0  0  0  0
 19 27  2  0  0  0  0
 21 26  1  0  0  0  0
 22 23  1  0  0  0  0
  1 28  1  0  0  0  0
  2 29  1  0  0  0  0
  3 30  1  0  0  0  0
  4 31  1  0  0  0  0
  5 32  1  0  0  0  0
  6 33  1  0  0  0  0
  7 34  1  0  0  0  0
  8 35  1  0  0  0  0
  9 36  1  0  0  0  0
 15 37  1  0  0  0  0
 16 38  1  0  0  0  0
 17 39  1  0  0  0  0
 18 40  1  0  0  0  0
 20 41  1  0  0  0  0
 20 42  1  0  0  0  0
 20 43  1  0  0  0  0
 21 44  1  0  0  0  0
 21 45  1  0  0  0  0
 25 46  1  0  0  0  0
M  END
> <clash_score>
0

> <docking_score>
-8.902782440185547

$$$$
BENZO_152_1
  -OEChem-08212020143D

 43 46  0     0  0  0  0  0  0999 V2000
    8.9960   -2.3380   25.5320 C   0  0  0  0  0  0  0  0  0  0  0  0
    9.6730   -3.4710   23.5300 C   0  0  0  0  0  0  0  0  0  0  0  0
    9.0720   -1.1280   24.8640 C   0  0  0  0  0  0  0  0  0  0  0  0
    9.7200   -2.2600   22.8630 C   0  0  0  0  0  0  0  0  0  0  0  0
   12.2913    1.4279   22.6355 C   0  0  0  0  0  0  0  0  0  0  0  0
   13.6024    1.4662   23.0564 C   0  0  0  0  0  0  0  0  0  0  0  0
   12.0284    1.3764   24.9443 C   0  0  0  0  0  0  0  0  0  0  0  0
    9.3070   -3.5340   24.8780 C   0  0  0  0  0  0  0  0  0  0  0  0
   11.3794    1.3761   23.7290 C   0  0  0  0  0  0  0  0  0  0  0  0
    9.3350   -1.0880   23.5010 C   0  0  0  0  0  0  0  0  0  0  0  0
    5.8300    0.9190   18.6970 C   0  0  0  0  0  0  0  0  0  0  0  0
    7.3170   -0.1610   19.8550 C   0  0  0  0  0  0  0  0  0  0  0  0
    4.6890    1.6810   18.4640 C   0  0  0  0  0  0  0  0  0  0  0  0
    3.9160    2.0630   19.5520 C   0  0  0  0  0  0  0  0  0  0  0  0
    4.2750    1.7050   20.8490 C   0  0  0  0  0  0  0  0  0  0  0  0
    5.4210    0.9600   21.0930 C   0  0  0  0  0  0  0  0  0  0  0  0
    9.0420    0.3700   21.5280 C   0  0  0  0  0  0  0  0  0  0  0  0
    9.2505   -4.8264   25.5904 C   0  0  0  0  0  0  0  0  0  0  0  0
    9.8870    1.3260   23.5730 C   0  0  0  0  0  0  0  0  0  0  0  0
    6.7580    0.3810   17.8350 N   0  0  0  0  0  0  0  0  0  0  0  0
    7.6390   -0.2680   18.5410 N   0  0  0  0  0  0  0  0  0  0  0  0
    6.1790    0.5730   19.9990 N   0  0  0  0  0  0  0  0  0  0  0  0
    8.1890   -0.7180   20.8700 N   0  0  0  0  0  0  0  0  0  0  0  0
    9.4560    0.1560   22.8130 N   0  0  0  0  0  0  0  0  0  0  0  0
    9.2690    1.4140   20.9380 O   0  0  0  0  0  0  0  0  0  0  0  0
   13.7301    1.4394   24.7638 S   0  0  0  0  0  0  0  0  0  0  0  0
    8.6919   -2.3557   26.5813 H   0  0  0  0  0  0  0  0  0  0  0  0
    9.9267   -4.3907   22.9939 H   0  0  0  0  0  0  0  0  0  0  0  0
    8.9217   -0.1995   25.4231 H   0  0  0  0  0  0  0  0  0  0  0  0
   10.0653   -2.2339   21.8256 H   0  0  0  0  0  0  0  0  0  0  0  0
   12.0045    1.4365   21.5915 H   0  0  0  0  0  0  0  0  0  0  0  0
   14.4914    1.5078   22.4431 H   0  0  0  0  0  0  0  0  0  0  0  0
   11.5886    1.3416   25.9314 H   0  0  0  0  0  0  0  0  0  0  0  0
    4.3967    1.9772   17.4718 H   0  0  0  0  0  0  0  0  0  0  0  0
    3.0218    2.6486   19.3697 H   0  0  0  0  0  0  0  0  0  0  0  0
    3.6566    2.0043   21.7065 H   0  0  0  0  0  0  0  0  0  0  0  0
    5.7190    0.6877   22.0810 H   0  0  0  0  0  0  0  0  0  0  0  0
    8.2503   -5.2678   25.5020 H   0  0  0  0  0  0  0  0  0  0  0  0
    9.9817   -5.5374   25.1845 H   0  0  0  0  0  0  0  0  0  0  0  0
    9.4841   -4.7043   26.6562 H   0  0  0  0  0  0  0  0  0  0  0  0
    9.3974    1.2912   24.5523 H   0  0  0  0  0  0  0  0  0  0  0  0
    9.5159    2.2168   23.0553 H   0  0  0  0  0  0  0  0  0  0  0  0
    8.2360   -1.5649   21.0923 H   0  0  0  0  0  0  0  0  0  0  0  0
  1  3  2  0  0  0  0
  1  8  1  0  0  0  0
  2  4  1  0  0  0  0
  2  8  2  0  0  0  0
  3 10  1  0  0  0  0
  4 10  2  0  0  0  0
  5  6  2  0  0  0  0
  5  9  1  0  0  0  0
  6 26  1  0  0  0  0
  7  9  2  0  0  0  0
  7 26  1  0  0  0  0
  8 18  1  0  0  0  0
  9 19  1  0  0  0  0
 10 24  1  0  0  0  0
 11 13  1  0  0  0  0
 11 20  2  0  0  0  0
 11 22  1  0  0  0  0
 12 21  2  0  0  0  0
 12 22  1  0  0  0  0
 12 23  1  0  0  0  0
 13 14  2  0  0  0  0
 14 15  1  0  0  0  0
 15 16  2  0  0  0  0
 16 22  1  0  0  0  0
 17 23  1  0  0  0  0
 17 24  1  0  0  0  0
 17 25  2  0  0  0  0
 19 24  1  0  0  0  0
 20 21  1  0  0  0  0
  1 27  1  0  0  0  0
  2 28  1  0  0  0  0
  3 29  1  0  0  0  0
  4 30  1  0  0  0  0
  5 31  1  0  0  0  0
  6 32  1  0  0  0  0
  7 33  1  0  0  0  0
 13 34  1  0  0  0  0
 14 35  1  0  0  0  0
 15 36  1  0  0  0  0
 16 37  1  0  0  0  0
 18 38  1  0  0  0  0
 18 39  1  0  0  0  0
 18 40  1  0  0  0  0
 19 41  1  0  0  0  0
 19 42  1  0  0  0  0
 23 43  1  0  0  0  0
M  END
> <clash_score>
0

> <docking_score>
-8.981647491455078

$$$$
BENZO_154_1
  -OEChem-08212020143D

 46 49  0     0  0  0  0  0  0999 V2000
    6.4089    2.0844   24.8766 C   0  0  0  0  0  0  0  0  0  0  0  0
    7.4847    1.4191   24.2887 C   0  0  0  0  0  0  0  0  0  0  0  0
    8.9960   -2.3380   25.5320 C   0  0  0  0  0  0  0  0  0  0  0  0
    9.6730   -3.4710   23.5300 C   0  0  0  0  0  0  0  0  0  0  0  0
    9.0720   -1.1280   24.8640 C   0  0  0  0  0  0  0  0  0  0  0  0
    9.7200   -2.2600   22.8630 C   0  0  0  0  0  0  0  0  0  0  0  0
    6.5777    3.3741   25.3805 C   0  0  0  0  0  0  0  0  0  0  0  0
    8.8980    3.3330   24.7088 C   0  0  0  0  0  0  0  0  0  0  0  0
    9.3070   -3.5340   24.8780 C   0  0  0  0  0  0  0  0  0  0  0  0
    8.7292    2.0433   24.2048 C   0  0  0  0  0  0  0  0  0  0  0  0
    9.3350   -1.0880   23.5010 C   0  0  0  0  0  0  0  0  0  0  0  0
    7.8222    3.9984   25.2966 C   0  0  0  0  0  0  0  0  0  0  0  0
    5.8300    0.9190   18.6970 C   0  0  0  0  0  0  0  0  0  0  0  0
    7.3170   -0.1610   19.8550 C   0  0  0  0  0  0  0  0  0  0  0  0
    4.6890    1.6810   18.4640 C   0  0  0  0  0  0  0  0  0  0  0  0
    3.9160    2.0630   19.5520 C   0  0  0  0  0  0  0  0  0  0  0  0
    4.2750    1.7050   20.8490 C   0  0  0  0  0  0  0  0  0  0  0  0
    5.4210    0.9600   21.0930 C   0  0  0  0  0  0  0  0  0  0  0  0
    9.0420    0.3700   21.5280 C   0  0  0  0  0  0  0  0  0  0  0  0
    9.2505   -4.8264   25.5904 C   0  0  0  0  0  0  0  0  0  0  0  0
    9.8870    1.3260   23.5730 C   0  0  0  0  0  0  0  0  0  0  0  0
    6.7580    0.3810   17.8350 N   0  0  0  0  0  0  0  0  0  0  0  0
    7.6390   -0.2680   18.5410 N   0  0  0  0  0  0  0  0  0  0  0  0
    6.1790    0.5730   19.9990 N   0  0  0  0  0  0  0  0  0  0  0  0
    8.1890   -0.7180   20.8700 N   0  0  0  0  0  0  0  0  0  0  0  0
    9.4560    0.1560   22.8130 N   0  0  0  0  0  0  0  0  0  0  0  0
    9.2690    1.4140   20.9380 O   0  0  0  0  0  0  0  0  0  0  0  0
    8.0301    5.5891   25.9196 Cl  0  0  0  0  0  0  0  0  0  0  0  0
    5.4400    1.5979   24.9418 H   0  0  0  0  0  0  0  0  0  0  0  0
    7.3441    0.4143   23.8988 H   0  0  0  0  0  0  0  0  0  0  0  0
    8.6919   -2.3557   26.5813 H   0  0  0  0  0  0  0  0  0  0  0  0
    9.9267   -4.3907   22.9939 H   0  0  0  0  0  0  0  0  0  0  0  0
    8.9217   -0.1995   25.4231 H   0  0  0  0  0  0  0  0  0  0  0  0
   10.0653   -2.2339   21.8256 H   0  0  0  0  0  0  0  0  0  0  0  0
    5.7304    3.8806   25.8363 H   0  0  0  0  0  0  0  0  0  0  0  0
    9.8703    3.8156   24.6405 H   0  0  0  0  0  0  0  0  0  0  0  0
    4.3967    1.9772   17.4718 H   0  0  0  0  0  0  0  0  0  0  0  0
    3.0218    2.6486   19.3697 H   0  0  0  0  0  0  0  0  0  0  0  0
    3.6566    2.0043   21.7065 H   0  0  0  0  0  0  0  0  0  0  0  0
    5.7190    0.6877   22.0810 H   0  0  0  0  0  0  0  0  0  0  0  0
    8.2503   -5.2678   25.5020 H   0  0  0  0  0  0  0  0  0  0  0  0
    9.9817   -5.5374   25.1845 H   0  0  0  0  0  0  0  0  0  0  0  0
    9.4841   -4.7043   26.6562 H   0  0  0  0  0  0  0  0  0  0  0  0
   10.4274    1.9911   22.8906 H   0  0  0  0  0  0  0  0  0  0  0  0
   10.6011    0.9882   24.3313 H   0  0  0  0  0  0  0  0  0  0  0  0
    8.2360   -1.5649   21.0923 H   0  0  0  0  0  0  0  0  0  0  0  0
  1  2  2  0  0  0  0
  1  7  1  0  0  0  0
  2 10  1  0  0  0  0
  3  5  2  0  0  0  0
  3  9  1  0  0  0  0
  4  6  1  0  0  0  0
  4  9  2  0  0  0  0
  5 11  1  0  0  0  0
  6 11  2  0  0  0  0
  7 12  2  0  0  0  0
  8 10  2  0  0  0  0
  8 12  1  0  0  0  0
  9 20  1  0  0  0  0
 10 21  1  0  0  0  0
 11 26  1  0  0  0  0
 12 28  1  0  0  0  0
 13 15  1  0  0  0  0
 13 22  2  0  0  0  0
 13 24  1  0  0  0  0
 14 23  2  0  0  0  0
 14 24  1  0  0  0  0
 14 25  1  0  0  0  0
 15 16  2  0  0  0  0
 16 17  1  0  0  0  0
 17 18  2  0  0  0  0
 18 24  1  0  0  0  0
 19 25  1  0  0  0  0
 19 26  1  0  0  0  0
 19 27  2  0  0  0  0
 21 26  1  0  0  0  0
 22 23  1  0  0  0  0
  1 29  1  0  0  0  0
  2 30  1  0  0  0  0
  3 31  1  0  0  0  0
  4 32  1  0  0  0  0
  5 33  1  0  0  0  0
  6 34  1  0  0  0  0
  7 35  1  0  0  0  0
  8 36  1  0  0  0  0
 15 37  1  0  0  0  0
 16 38  1  0  0  0  0
 17 39  1  0  0  0  0
 18 40  1  0  0  0  0
 20 41  1  0  0  0  0
 20 42  1  0  0  0  0
 20 43  1  0  0  0  0
 21 44  1  0  0  0  0
 21 45  1  0  0  0  0
 25 46  1  0  0  0  0
M  END
> <clash_score>
0

> <docking_score>
-8.288814544677734

$$$$
BENZO_157_1
  -OEChem-08212020143D

 47 50  0     0  0  0  0  0  0999 V2000
   14.1526    1.4694   24.0176 C   0  0  0  0  0  0  0  0  0  0  0  0
   13.3741    0.8121   24.9701 C   0  0  0  0  0  0  0  0  0  0  0  0
   13.5446    2.0802   22.9208 C   0  0  0  0  0  0  0  0  0  0  0  0
   11.9875    0.7654   24.8258 C   0  0  0  0  0  0  0  0  0  0  0  0
   12.1580    2.0335   22.7765 C   0  0  0  0  0  0  0  0  0  0  0  0
    9.0720   -1.1280   24.8640 C   0  0  0  0  0  0  0  0  0  0  0  0
    9.7200   -2.2600   22.8630 C   0  0  0  0  0  0  0  0  0  0  0  0
    8.9960   -2.3380   25.5320 C   0  0  0  0  0  0  0  0  0  0  0  0
    9.6730   -3.4710   23.5300 C   0  0  0  0  0  0  0  0  0  0  0  0
   11.3794    1.3761   23.7290 C   0  0  0  0  0  0  0  0  0  0  0  0
    9.3350   -1.0880   23.5010 C   0  0  0  0  0  0  0  0  0  0  0  0
    9.3070   -3.5340   24.8780 C   0  0  0  0  0  0  0  0  0  0  0  0
    5.8300    0.9190   18.6970 C   0  0  0  0  0  0  0  0  0  0  0  0
    7.3170   -0.1610   19.8550 C   0  0  0  0  0  0  0  0  0  0  0  0
    4.6890    1.6810   18.4640 C   0  0  0  0  0  0  0  0  0  0  0  0
    3.9160    2.0630   19.5520 C   0  0  0  0  0  0  0  0  0  0  0  0
    4.2750    1.7050   20.8490 C   0  0  0  0  0  0  0  0  0  0  0  0
    5.4210    0.9600   21.0930 C   0  0  0  0  0  0  0  0  0  0  0  0
    9.0420    0.3700   21.5280 C   0  0  0  0  0  0  0  0  0  0  0  0
    8.8720   -4.6805   26.9013 C   0  0  0  0  0  0  0  0  0  0  0  0
    9.8870    1.3260   23.5730 C   0  0  0  0  0  0  0  0  0  0  0  0
    6.7580    0.3810   17.8350 N   0  0  0  0  0  0  0  0  0  0  0  0
    7.6390   -0.2680   18.5410 N   0  0  0  0  0  0  0  0  0  0  0  0
    6.1790    0.5730   19.9990 N   0  0  0  0  0  0  0  0  0  0  0  0
    8.1890   -0.7180   20.8700 N   0  0  0  0  0  0  0  0  0  0  0  0
    9.4560    0.1560   22.8130 N   0  0  0  0  0  0  0  0  0  0  0  0
    9.2690    1.4140   20.9380 O   0  0  0  0  0  0  0  0  0  0  0  0
    9.2555   -4.7124   25.5274 O   0  0  0  0  0  0  0  0  0  0  0  0
   15.2322    1.5068   24.1308 H   0  0  0  0  0  0  0  0  0  0  0  0
   13.8473    0.3374   25.8248 H   0  0  0  0  0  0  0  0  0  0  0  0
   14.1503    2.5930   22.1795 H   0  0  0  0  0  0  0  0  0  0  0  0
   11.3889    0.2508   25.5729 H   0  0  0  0  0  0  0  0  0  0  0  0
   11.6930    2.5120   21.9187 H   0  0  0  0  0  0  0  0  0  0  0  0
    8.9221   -0.1995   25.4231 H   0  0  0  0  0  0  0  0  0  0  0  0
   10.0642   -2.2347   21.8253 H   0  0  0  0  0  0  0  0  0  0  0  0
    8.6902   -2.3588   26.5805 H   0  0  0  0  0  0  0  0  0  0  0  0
    9.9254   -4.3921   22.9961 H   0  0  0  0  0  0  0  0  0  0  0  0
    4.3967    1.9772   17.4718 H   0  0  0  0  0  0  0  0  0  0  0  0
    3.0218    2.6486   19.3697 H   0  0  0  0  0  0  0  0  0  0  0  0
    3.6566    2.0043   21.7065 H   0  0  0  0  0  0  0  0  0  0  0  0
    5.7190    0.6877   22.0810 H   0  0  0  0  0  0  0  0  0  0  0  0
    8.8711   -5.6964   27.3038 H   0  0  0  0  0  0  0  0  0  0  0  0
    7.8758   -4.2402   26.9923 H   0  0  0  0  0  0  0  0  0  0  0  0
    9.5894   -4.0716   27.4566 H   0  0  0  0  0  0  0  0  0  0  0  0
    9.3974    1.2912   24.5523 H   0  0  0  0  0  0  0  0  0  0  0  0
    9.5159    2.2168   23.0553 H   0  0  0  0  0  0  0  0  0  0  0  0
    8.2360   -1.5649   21.0923 H   0  0  0  0  0  0  0  0  0  0  0  0
  1  2  1  0  0  0  0
  1  3  2  0  0  0  0
  2  4  2  0  0  0  0
  3  5  1  0  0  0  0
  4 10  1  0  0  0  0
  5 10  2  0  0  0  0
  6  8  2  0  0  0  0
  6 11  1  0  0  0  0
  7  9  1  0  0  0  0
  7 11  2  0  0  0  0
  8 12  1  0  0  0  0
  9 12  2  0  0  0  0
 10 21  1  0  0  0  0
 11 26  1  0  0  0  0
 12 28  1  0  0  0  0
 13 15  1  0  0  0  0
 13 22  2  0  0  0  0
 13 24  1  0  0  0  0
 14 23  2  0  0  0  0
 14 24  1  0  0  0  0
 14 25  1  0  0  0  0
 15 16  2  0  0  0  0
 16 17  1  0  0  0  0
 17 18  2  0  0  0  0
 18 24  1  0  0  0  0
 19 25  1  0  0  0  0
 19 26  1  0  0  0  0
 19 27  2  0  0  0  0
 20 28  1  0  0  0  0
 21 26  1  0  0  0  0
 22 23  1  0  0  0  0
  1 29  1  0  0  0  0
  2 30  1  0  0  0  0
  3 31  1  0  0  0  0
  4 32  1  0  0  0  0
  5 33  1  0  0  0  0
  6 34  1  0  0  0  0
  7 35  1  0  0  0  0
  8 36  1  0  0  0  0
  9 37  1  0  0  0  0
 15 38  1  0  0  0  0
 16 39  1  0  0  0  0
 17 40  1  0  0  0  0
 18 41  1  0  0  0  0
 20 42  1  0  0  0  0
 20 43  1  0  0  0  0
 20 44  1  0  0  0  0
 21 45  1  0  0  0  0
 21 46  1  0  0  0  0
 25 47  1  0  0  0  0
M  END
> <clash_score>
0

> <docking_score>
-8.639091491699219

$$$$
BENZO_155_1
  -OEChem-08212020143D

 46 49  0     0  0  0  0  0  0999 V2000
    8.9960   -2.3380   25.5320 C   0  0  0  0  0  0  0  0  0  0  0  0
    9.6730   -3.4710   23.5300 C   0  0  0  0  0  0  0  0  0  0  0  0
    9.0720   -1.1280   24.8640 C   0  0  0  0  0  0  0  0  0  0  0  0
    9.7200   -2.2600   22.8630 C   0  0  0  0  0  0  0  0  0  0  0  0
   12.1233    1.3811   24.9242 C   0  0  0  0  0  0  0  0  0  0  0  0
   12.3261    1.4247   22.7351 C   0  0  0  0  0  0  0  0  0  0  0  0
    9.3070   -3.5340   24.8780 C   0  0  0  0  0  0  0  0  0  0  0  0
   11.3794    1.3761   23.7290 C   0  0  0  0  0  0  0  0  0  0  0  0
    9.3350   -1.0880   23.5010 C   0  0  0  0  0  0  0  0  0  0  0  0
    5.8300    0.9190   18.6970 C   0  0  0  0  0  0  0  0  0  0  0  0
    7.3170   -0.1610   19.8550 C   0  0  0  0  0  0  0  0  0  0  0  0
    4.6890    1.6810   18.4640 C   0  0  0  0  0  0  0  0  0  0  0  0
    3.9160    2.0630   19.5520 C   0  0  0  0  0  0  0  0  0  0  0  0
    4.2750    1.7050   20.8490 C   0  0  0  0  0  0  0  0  0  0  0  0
    5.4210    0.9600   21.0930 C   0  0  0  0  0  0  0  0  0  0  0  0
    9.0420    0.3700   21.5280 C   0  0  0  0  0  0  0  0  0  0  0  0
    9.2505   -4.8264   25.5904 C   0  0  0  0  0  0  0  0  0  0  0  0
   14.8305    1.5084   22.7418 C   0  0  0  0  0  0  0  0  0  0  0  0
    9.8870    1.3260   23.5730 C   0  0  0  0  0  0  0  0  0  0  0  0
   13.4410    1.4289   24.7112 N   0  0  0  0  0  0  0  0  0  0  0  0
    6.7580    0.3810   17.8350 N   0  0  0  0  0  0  0  0  0  0  0  0
    7.6390   -0.2680   18.5410 N   0  0  0  0  0  0  0  0  0  0  0  0
   13.5326    1.4543   23.3706 N   0  0  0  0  0  0  0  0  0  0  0  0
    6.1790    0.5730   19.9990 N   0  0  0  0  0  0  0  0  0  0  0  0
    8.1890   -0.7180   20.8700 N   0  0  0  0  0  0  0  0  0  0  0  0
    9.4560    0.1560   22.8130 N   0  0  0  0  0  0  0  0  0  0  0  0
    9.2690    1.4140   20.9380 O   0  0  0  0  0  0  0  0  0  0  0  0
    8.6919   -2.3557   26.5813 H   0  0  0  0  0  0  0  0  0  0  0  0
    9.9267   -4.3907   22.9939 H   0  0  0  0  0  0  0  0  0  0  0  0
    8.9217   -0.1995   25.4231 H   0  0  0  0  0  0  0  0  0  0  0  0
   10.0653   -2.2339   21.8256 H   0  0  0  0  0  0  0  0  0  0  0  0
   11.7624    1.3510   25.9426 H   0  0  0  0  0  0  0  0  0  0  0  0
   12.2462    1.4390   21.6566 H   0  0  0  0  0  0  0  0  0  0  0  0
    4.3967    1.9772   17.4718 H   0  0  0  0  0  0  0  0  0  0  0  0
    3.0218    2.6486   19.3697 H   0  0  0  0  0  0  0  0  0  0  0  0
    3.6566    2.0043   21.7065 H   0  0  0  0  0  0  0  0  0  0  0  0
    5.7190    0.6877   22.0810 H   0  0  0  0  0  0  0  0  0  0  0  0
    8.2503   -5.2678   25.5020 H   0  0  0  0  0  0  0  0  0  0  0  0
    9.9817   -5.5374   25.1845 H   0  0  0  0  0  0  0  0  0  0  0  0
    9.4841   -4.7043   26.6562 H   0  0  0  0  0  0  0  0  0  0  0  0
   15.0990    2.5601   22.6124 H   0  0  0  0  0  0  0  0  0  0  0  0
   15.5636    1.0018   23.3756 H   0  0  0  0  0  0  0  0  0  0  0  0
   14.7841    1.0025   21.7733 H   0  0  0  0  0  0  0  0  0  0  0  0
    9.3974    1.2912   24.5523 H   0  0  0  0  0  0  0  0  0  0  0  0
    9.5159    2.2168   23.0553 H   0  0  0  0  0  0  0  0  0  0  0  0
    8.2360   -1.5649   21.0923 H   0  0  0  0  0  0  0  0  0  0  0  0
  1  3  2  0  0  0  0
  1  7  1  0  0  0  0
  2  4  1  0  0  0  0
  2  7  2  0  0  0  0
  3  9  1  0  0  0  0
  4  9  2  0  0  0  0
  5  8  1  0  0  0  0
  5 20  2  0  0  0  0
  6  8  2  0  0  0  0
  6 23  1  0  0  0  0
  7 17  1  0  0  0  0
  8 19  1  0  0  0  0
  9 26  1  0  0  0  0
 10 12  1  0  0  0  0
 10 21  2  0  0  0  0
 10 24  1  0  0  0  0
 11 22  2  0  0  0  0
 11 24  1  0  0  0  0
 11 25  1  0  0  0  0
 12 13  2  0  0  0  0
 13 14  1  0  0  0  0
 14 15  2  0  0  0  0
 15 24  1  0  0  0  0
 16 25  1  0  0  0  0
 16 26  1  0  0  0  0
 16 27  2  0  0  0  0
 18 23  1  0  0  0  0
 19 26  1  0  0  0  0
 20 23  1  0  0  0  0
 21 22  1  0  0  0  0
  1 28  1  0  0  0  0
  2 29  1  0  0  0  0
  3 30  1  0  0  0  0
  4 31  1  0  0  0  0
  5 32  1  0  0  0  0
  6 33  1  0  0  0  0
 12 34  1  0  0  0  0
 13 35  1  0  0  0  0
 14 36  1  0  0  0  0
 15 37  1  0  0  0  0
 17 38  1  0  0  0  0
 17 39  1  0  0  0  0
 17 40  1  0  0  0  0
 18 41  1  0  0  0  0
 18 42  1  0  0  0  0
 18 43  1  0  0  0  0
 19 44  1  0  0  0  0
 19 45  1  0  0  0  0
 25 46  1  0  0  0  0
M  END
> <clash_score>
0

> <docking_score>
-8.61893081665039

$$$$
BENZO_156_1
  -OEChem-08212020143D

 44 47  0     0  0  0  0  0  0999 V2000
    9.0720   -1.1280   24.8640 C   0  0  0  0  0  0  0  0  0  0  0  0
    9.7200   -2.2600   22.8630 C   0  0  0  0  0  0  0  0  0  0  0  0
    8.9960   -2.3380   25.5320 C   0  0  0  0  0  0  0  0  0  0  0  0
    9.6730   -3.4710   23.5300 C   0  0  0  0  0  0  0  0  0  0  0  0
   12.2913    1.4279   22.6355 C   0  0  0  0  0  0  0  0  0  0  0  0
   13.6024    1.4662   23.0564 C   0  0  0  0  0  0  0  0  0  0  0  0
   12.0284    1.3764   24.9443 C   0  0  0  0  0  0  0  0  0  0  0  0
   11.3794    1.3761   23.7290 C   0  0  0  0  0  0  0  0  0  0  0  0
    9.3350   -1.0880   23.5010 C   0  0  0  0  0  0  0  0  0  0  0  0
    9.3070   -3.5340   24.8780 C   0  0  0  0  0  0  0  0  0  0  0  0
    5.8300    0.9190   18.6970 C   0  0  0  0  0  0  0  0  0  0  0  0
    7.3170   -0.1610   19.8550 C   0  0  0  0  0  0  0  0  0  0  0  0
    4.6890    1.6810   18.4640 C   0  0  0  0  0  0  0  0  0  0  0  0
    3.9160    2.0630   19.5520 C   0  0  0  0  0  0  0  0  0  0  0  0
    4.2750    1.7050   20.8490 C   0  0  0  0  0  0  0  0  0  0  0  0
    5.4210    0.9600   21.0930 C   0  0  0  0  0  0  0  0  0  0  0  0
    9.0420    0.3700   21.5280 C   0  0  0  0  0  0  0  0  0  0  0  0
    8.8720   -4.6805   26.9013 C   0  0  0  0  0  0  0  0  0  0  0  0
    9.8870    1.3260   23.5730 C   0  0  0  0  0  0  0  0  0  0  0  0
    6.7580    0.3810   17.8350 N   0  0  0  0  0  0  0  0  0  0  0  0
    7.6390   -0.2680   18.5410 N   0  0  0  0  0  0  0  0  0  0  0  0
    6.1790    0.5730   19.9990 N   0  0  0  0  0  0  0  0  0  0  0  0
    8.1890   -0.7180   20.8700 N   0  0  0  0  0  0  0  0  0  0  0  0
    9.4560    0.1560   22.8130 N   0  0  0  0  0  0  0  0  0  0  0  0
    9.2690    1.4140   20.9380 O   0  0  0  0  0  0  0  0  0  0  0  0
    9.2555   -4.7124   25.5274 O   0  0  0  0  0  0  0  0  0  0  0  0
   13.7301    1.4394   24.7638 S   0  0  0  0  0  0  0  0  0  0  0  0
    8.9221   -0.1995   25.4231 H   0  0  0  0  0  0  0  0  0  0  0  0
   10.0642   -2.2347   21.8253 H   0  0  0  0  0  0  0  0  0  0  0  0
    8.6902   -2.3588   26.5805 H   0  0  0  0  0  0  0  0  0  0  0  0
    9.9254   -4.3921   22.9961 H   0  0  0  0  0  0  0  0  0  0  0  0
   12.0045    1.4365   21.5915 H   0  0  0  0  0  0  0  0  0  0  0  0
   14.4914    1.5078   22.4431 H   0  0  0  0  0  0  0  0  0  0  0  0
   11.5886    1.3416   25.9314 H   0  0  0  0  0  0  0  0  0  0  0  0
    4.3967    1.9772   17.4718 H   0  0  0  0  0  0  0  0  0  0  0  0
    3.0218    2.6486   19.3697 H   0  0  0  0  0  0  0  0  0  0  0  0
    3.6566    2.0043   21.7065 H   0  0  0  0  0  0  0  0  0  0  0  0
    5.7190    0.6877   22.0810 H   0  0  0  0  0  0  0  0  0  0  0  0
    8.8711   -5.6964   27.3038 H   0  0  0  0  0  0  0  0  0  0  0  0
    7.8758   -4.2402   26.9923 H   0  0  0  0  0  0  0  0  0  0  0  0
    9.5894   -4.0716   27.4566 H   0  0  0  0  0  0  0  0  0  0  0  0
    9.3974    1.2912   24.5523 H   0  0  0  0  0  0  0  0  0  0  0  0
    9.5159    2.2168   23.0553 H   0  0  0  0  0  0  0  0  0  0  0  0
    8.2360   -1.5649   21.0923 H   0  0  0  0  0  0  0  0  0  0  0  0
  1  3  2  0  0  0  0
  1  9  1  0  0  0  0
  2  4  1  0  0  0  0
  2  9  2  0  0  0  0
  3 10  1  0  0  0  0
  4 10  2  0  0  0  0
  5  6  2  0  0  0  0
  5  8  1  0  0  0  0
  6 27  1  0  0  0  0
  7  8  2  0  0  0  0
  7 27  1  0  0  0  0
  8 19  1  0  0  0  0
  9 24  1  0  0  0  0
 10 26  1  0  0  0  0
 11 13  1  0  0  0  0
 11 20  2  0  0  0  0
 11 22  1  0  0  0  0
 12 21  2  0  0  0  0
 12 22  1  0  0  0  0
 12 23  1  0  0  0  0
 13 14  2  0  0  0  0
 14 15  1  0  0  0  0
 15 16  2  0  0  0  0
 16 22  1  0  0  0  0
 17 23  1  0  0  0  0
 17 24  1  0  0  0  0
 17 25  2  0  0  0  0
 18 26  1  0  0  0  0
 19 24  1  0  0  0  0
 20 21  1  0  0  0  0
  1 28  1  0  0  0  0
  2 29  1  0  0  0  0
  3 30  1  0  0  0  0
  4 31  1  0  0  0  0
  5 32  1  0  0  0  0
  6 33  1  0  0  0  0
  7 34  1  0  0  0  0
 13 35  1  0  0  0  0
 14 36  1  0  0  0  0
 15 37  1  0  0  0  0
 16 38  1  0  0  0  0
 18 39  1  0  0  0  0
 18 40  1  0  0  0  0
 18 41  1  0  0  0  0
 19 42  1  0  0  0  0
 19 43  1  0  0  0  0
 23 44  1  0  0  0  0
M  END
> <clash_score>
0

> <docking_score>
-8.717954635620117

$$$$
BENZO_158_1
  -OEChem-08212020143D

 47 50  0     0  0  0  0  0  0999 V2000
    6.4089    2.0844   24.8766 C   0  0  0  0  0  0  0  0  0  0  0  0
    7.4847    1.4191   24.2887 C   0  0  0  0  0  0  0  0  0  0  0  0
    9.0720   -1.1280   24.8640 C   0  0  0  0  0  0  0  0  0  0  0  0
    9.7200   -2.2600   22.8630 C   0  0  0  0  0  0  0  0  0  0  0  0
    8.9960   -2.3380   25.5320 C   0  0  0  0  0  0  0  0  0  0  0  0
    9.6730   -3.4710   23.5300 C   0  0  0  0  0  0  0  0  0  0  0  0
    6.5777    3.3741   25.3805 C   0  0  0  0  0  0  0  0  0  0  0  0
    8.8980    3.3330   24.7088 C   0  0  0  0  0  0  0  0  0  0  0  0
    8.7292    2.0433   24.2048 C   0  0  0  0  0  0  0  0  0  0  0  0
    9.3350   -1.0880   23.5010 C   0  0  0  0  0  0  0  0  0  0  0  0
    9.3070   -3.5340   24.8780 C   0  0  0  0  0  0  0  0  0  0  0  0
    7.8222    3.9984   25.2966 C   0  0  0  0  0  0  0  0  0  0  0  0
    5.8300    0.9190   18.6970 C   0  0  0  0  0  0  0  0  0  0  0  0
    7.3170   -0.1610   19.8550 C   0  0  0  0  0  0  0  0  0  0  0  0
    4.6890    1.6810   18.4640 C   0  0  0  0  0  0  0  0  0  0  0  0
    3.9160    2.0630   19.5520 C   0  0  0  0  0  0  0  0  0  0  0  0
    4.2750    1.7050   20.8490 C   0  0  0  0  0  0  0  0  0  0  0  0
    5.4210    0.9600   21.0930 C   0  0  0  0  0  0  0  0  0  0  0  0
    9.0420    0.3700   21.5280 C   0  0  0  0  0  0  0  0  0  0  0  0
    8.8720   -4.6805   26.9013 C   0  0  0  0  0  0  0  0  0  0  0  0
    9.8870    1.3260   23.5730 C   0  0  0  0  0  0  0  0  0  0  0  0
    6.7580    0.3810   17.8350 N   0  0  0  0  0  0  0  0  0  0  0  0
    7.6390   -0.2680   18.5410 N   0  0  0  0  0  0  0  0  0  0  0  0
    6.1790    0.5730   19.9990 N   0  0  0  0  0  0  0  0  0  0  0  0
    8.1890   -0.7180   20.8700 N   0  0  0  0  0  0  0  0  0  0  0  0
    9.4560    0.1560   22.8130 N   0  0  0  0  0  0  0  0  0  0  0  0
    9.2690    1.4140   20.9380 O   0  0  0  0  0  0  0  0  0  0  0  0
    9.2555   -4.7124   25.5274 O   0  0  0  0  0  0  0  0  0  0  0  0
    8.0301    5.5891   25.9196 Cl  0  0  0  0  0  0  0  0  0  0  0  0
    5.4400    1.5979   24.9418 H   0  0  0  0  0  0  0  0  0  0  0  0
    7.3441    0.4143   23.8988 H   0  0  0  0  0  0  0  0  0  0  0  0
    8.9221   -0.1995   25.4231 H   0  0  0  0  0  0  0  0  0  0  0  0
   10.0642   -2.2347   21.8253 H   0  0  0  0  0  0  0  0  0  0  0  0
    8.6902   -2.3588   26.5805 H   0  0  0  0  0  0  0  0  0  0  0  0
    9.9254   -4.3921   22.9961 H   0  0  0  0  0  0  0  0  0  0  0  0
    5.7304    3.8806   25.8363 H   0  0  0  0  0  0  0  0  0  0  0  0
    9.8703    3.8156   24.6405 H   0  0  0  0  0  0  0  0  0  0  0  0
    4.3967    1.9772   17.4718 H   0  0  0  0  0  0  0  0  0  0  0  0
    3.0218    2.6486   19.3697 H   0  0  0  0  0  0  0  0  0  0  0  0
    3.6566    2.0043   21.7065 H   0  0  0  0  0  0  0  0  0  0  0  0
    5.7190    0.6877   22.0810 H   0  0  0  0  0  0  0  0  0  0  0  0
    8.8711   -5.6964   27.3038 H   0  0  0  0  0  0  0  0  0  0  0  0
    7.8758   -4.2402   26.9923 H   0  0  0  0  0  0  0  0  0  0  0  0
    9.5894   -4.0716   27.4566 H   0  0  0  0  0  0  0  0  0  0  0  0
   10.4274    1.9911   22.8906 H   0  0  0  0  0  0  0  0  0  0  0  0
   10.6011    0.9882   24.3313 H   0  0  0  0  0  0  0  0  0  0  0  0
    8.2360   -1.5649   21.0923 H   0  0  0  0  0  0  0  0  0  0  0  0
  1  2  2  0  0  0  0
  1  7  1  0  0  0  0
  2  9  1  0  0  0  0
  3  5  2  0  0  0  0
  3 10  1  0  0  0  0
  4  6  1  0  0  0  0
  4 10  2  0  0  0  0
  5 11  1  0  0  0  0
  6 11  2  0  0  0  0
  7 12  2  0  0  0  0
  8  9  2  0  0  0  0
  8 12  1  0  0  0  0
  9 21  1  0  0  0  0
 10 26  1  0  0  0  0
 11 28  1  0  0  0  0
 12 29  1  0  0  0  0
 13 15  1  0  0  0  0
 13 22  2  0  0  0  0
 13 24  1  0  0  0  0
 14 23  2  0  0  0  0
 14 24  1  0  0  0  0
 14 25  1  0  0  0  0
 15 16  2  0  0  0  0
 16 17  1  0  0  0  0
 17 18  2  0  0  0  0
 18 24  1  0  0  0  0
 19 25  1  0  0  0  0
 19 26  1  0  0  0  0
 19 27  2  0  0  0  0
 20 28  1  0  0  0  0
 21 26  1  0  0  0  0
 22 23  1  0  0  0  0
  1 30  1  0  0  0  0
  2 31  1  0  0  0  0
  3 32  1  0  0  0  0
  4 33  1  0  0  0  0
  5 34  1  0  0  0  0
  6 35  1  0  0  0  0
  7 36  1  0  0  0  0
  8 37  1  0  0  0  0
 15 38  1  0  0  0  0
 16 39  1  0  0  0  0
 17 40  1  0  0  0  0
 18 41  1  0  0  0  0
 20 42  1  0  0  0  0
 20 43  1  0  0  0  0
 20 44  1  0  0  0  0
 21 45  1  0  0  0  0
 21 46  1  0  0  0  0
 25 47  1  0  0  0  0
M  END
> <clash_score>
0

> <docking_score>
-8.025121688842773

$$$$
BENZO_159_1
  -OEChem-08212020143D

 47 50  0     0  0  0  0  0  0999 V2000
    9.0720   -1.1280   24.8640 C   0  0  0  0  0  0  0  0  0  0  0  0
    9.7200   -2.2600   22.8630 C   0  0  0  0  0  0  0  0  0  0  0  0
    8.9960   -2.3380   25.5320 C   0  0  0  0  0  0  0  0  0  0  0  0
    9.6730   -3.4710   23.5300 C   0  0  0  0  0  0  0  0  0  0  0  0
   12.1233    1.3811   24.9242 C   0  0  0  0  0  0  0  0  0  0  0  0
   12.3261    1.4247   22.7351 C   0  0  0  0  0  0  0  0  0  0  0  0
   11.3794    1.3761   23.7290 C   0  0  0  0  0  0  0  0  0  0  0  0
    9.3350   -1.0880   23.5010 C   0  0  0  0  0  0  0  0  0  0  0  0
    9.3070   -3.5340   24.8780 C   0  0  0  0  0  0  0  0  0  0  0  0
    5.8300    0.9190   18.6970 C   0  0  0  0  0  0  0  0  0  0  0  0
    7.3170   -0.1610   19.8550 C   0  0  0  0  0  0  0  0  0  0  0  0
    4.6890    1.6810   18.4640 C   0  0  0  0  0  0  0  0  0  0  0  0
    3.9160    2.0630   19.5520 C   0  0  0  0  0  0  0  0  0  0  0  0
    4.2750    1.7050   20.8490 C   0  0  0  0  0  0  0  0  0  0  0  0
    5.4210    0.9600   21.0930 C   0  0  0  0  0  0  0  0  0  0  0  0
    9.0420    0.3700   21.5280 C   0  0  0  0  0  0  0  0  0  0  0  0
   14.8305    1.5084   22.7418 C   0  0  0  0  0  0  0  0  0  0  0  0
    8.8720   -4.6805   26.9013 C   0  0  0  0  0  0  0  0  0  0  0  0
    9.8870    1.3260   23.5730 C   0  0  0  0  0  0  0  0  0  0  0  0
   13.4410    1.4289   24.7112 N   0  0  0  0  0  0  0  0  0  0  0  0
    6.7580    0.3810   17.8350 N   0  0  0  0  0  0  0  0  0  0  0  0
    7.6390   -0.2680   18.5410 N   0  0  0  0  0  0  0  0  0  0  0  0
   13.5326    1.4543   23.3706 N   0  0  0  0  0  0  0  0  0  0  0  0
    6.1790    0.5730   19.9990 N   0  0  0  0  0  0  0  0  0  0  0  0
    8.1890   -0.7180   20.8700 N   0  0  0  0  0  0  0  0  0  0  0  0
    9.4560    0.1560   22.8130 N   0  0  0  0  0  0  0  0  0  0  0  0
    9.2690    1.4140   20.9380 O   0  0  0  0  0  0  0  0  0  0  0  0
    9.2555   -4.7124   25.5274 O   0  0  0  0  0  0  0  0  0  0  0  0
    8.9221   -0.1995   25.4231 H   0  0  0  0  0  0  0  0  0  0  0  0
   10.0642   -2.2347   21.8253 H   0  0  0  0  0  0  0  0  0  0  0  0
    8.6902   -2.3588   26.5805 H   0  0  0  0  0  0  0  0  0  0  0  0
    9.9254   -4.3921   22.9961 H   0  0  0  0  0  0  0  0  0  0  0  0
   11.7624    1.3510   25.9426 H   0  0  0  0  0  0  0  0  0  0  0  0
   12.2462    1.4390   21.6566 H   0  0  0  0  0  0  0  0  0  0  0  0
    4.3967    1.9772   17.4718 H   0  0  0  0  0  0  0  0  0  0  0  0
    3.0218    2.6486   19.3697 H   0  0  0  0  0  0  0  0  0  0  0  0
    3.6566    2.0043   21.7065 H   0  0  0  0  0  0  0  0  0  0  0  0
    5.7190    0.6877   22.0810 H   0  0  0  0  0  0  0  0  0  0  0  0
   15.0990    2.5601   22.6124 H   0  0  0  0  0  0  0  0  0  0  0  0
   15.5636    1.0018   23.3756 H   0  0  0  0  0  0  0  0  0  0  0  0
   14.7841    1.0025   21.7733 H   0  0  0  0  0  0  0  0  0  0  0  0
    8.8711   -5.6964   27.3038 H   0  0  0  0  0  0  0  0  0  0  0  0
    7.8758   -4.2402   26.9923 H   0  0  0  0  0  0  0  0  0  0  0  0
    9.5894   -4.0716   27.4566 H   0  0  0  0  0  0  0  0  0  0  0  0
    9.3974    1.2912   24.5523 H   0  0  0  0  0  0  0  0  0  0  0  0
    9.5159    2.2168   23.0553 H   0  0  0  0  0  0  0  0  0  0  0  0
    8.2360   -1.5649   21.0923 H   0  0  0  0  0  0  0  0  0  0  0  0
  1  3  2  0  0  0  0
  1  8  1  0  0  0  0
  2  4  1  0  0  0  0
  2  8  2  0  0  0  0
  3  9  1  0  0  0  0
  4  9  2  0  0  0  0
  5  7  1  0  0  0  0
  5 20  2  0  0  0  0
  6  7  2  0  0  0  0
  6 23  1  0  0  0  0
  7 19  1  0  0  0  0
  8 26  1  0  0  0  0
  9 28  1  0  0  0  0
 10 12  1  0  0  0  0
 10 21  2  0  0  0  0
 10 24  1  0  0  0  0
 11 22  2  0  0  0  0
 11 24  1  0  0  0  0
 11 25  1  0  0  0  0
 12 13  2  0  0  0  0
 13 14  1  0  0  0  0
 14 15  2  0  0  0  0
 15 24  1  0  0  0  0
 16 25  1  0  0  0  0
 16 26  1  0  0  0  0
 16 27  2  0  0  0  0
 17 23  1  0  0  0  0
 18 28  1  0  0  0  0
 19 26  1  0  0  0  0
 20 23  1  0  0  0  0
 21 22  1  0  0  0  0
  1 29  1  0  0  0  0
  2 30  1  0  0  0  0
  3 31  1  0  0  0  0
  4 32  1  0  0  0  0
  5 33  1  0  0  0  0
  6 34  1  0  0  0  0
 12 35  1  0  0  0  0
 13 36  1  0  0  0  0
 14 37  1  0  0  0  0
 15 38  1  0  0  0  0
 17 39  1  0  0  0  0
 17 40  1  0  0  0  0
 17 41  1  0  0  0  0
 18 42  1  0  0  0  0
 18 43  1  0  0  0  0
 18 44  1  0  0  0  0
 19 45  1  0  0  0  0
 19 46  1  0  0  0  0
 25 47  1  0  0  0  0
M  END
> <clash_score>
0

> <docking_score>
-8.355236053466797

$$$$
BENZO_160_1
  -OEChem-08212020183D

 54 58  0     0  0  0  0  0  0999 V2000
    8.9960   -2.3380   25.5320 C   0  0  0  0  0  0  0  0  0  0  0  0
    9.6730   -3.4710   23.5300 C   0  0  0  0  0  0  0  0  0  0  0  0
    9.0720   -1.1280   24.8640 C   0  0  0  0  0  0  0  0  0  0  0  0
    9.7200   -2.2600   22.8630 C   0  0  0  0  0  0  0  0  0  0  0  0
   12.2913    1.4279   22.6355 C   0  0  0  0  0  0  0  0  0  0  0  0
   13.6024    1.4661   23.0564 C   0  0  0  0  0  0  0  0  0  0  0  0
   12.0284    1.3764   24.9443 C   0  0  0  0  0  0  0  0  0  0  0  0
   11.3794    1.3761   23.7290 C   0  0  0  0  0  0  0  0  0  0  0  0
    9.3070   -3.5340   24.8780 C   0  0  0  0  0  0  0  0  0  0  0  0
    9.3350   -1.0880   23.5010 C   0  0  0  0  0  0  0  0  0  0  0  0
    5.8300    0.9190   18.6970 C   0  0  0  0  0  0  0  0  0  0  0  0
    7.3170   -0.1610   19.8550 C   0  0  0  0  0  0  0  0  0  0  0  0
    4.6890    1.6810   18.4640 C   0  0  0  0  0  0  0  0  0  0  0  0
    3.9160    2.0630   19.5520 C   0  0  0  0  0  0  0  0  0  0  0  0
    4.2750    1.7050   20.8490 C   0  0  0  0  0  0  0  0  0  0  0  0
    5.4210    0.9600   21.0930 C   0  0  0  0  0  0  0  0  0  0  0  0
    8.3597   -5.0073   26.6307 C   0  0  0  0  0  0  0  0  0  0  0  0
    9.0420    0.3700   21.5280 C   0  0  0  0  0  0  0  0  0  0  0  0
    8.4720   -6.3981   27.2296 C   0  0  0  0  0  0  0  0  0  0  0  0
    9.9252   -6.7605   27.4803 C   0  0  0  0  0  0  0  0  0  0  0  0
   10.7833   -6.6094   26.2282 C   0  0  0  0  0  0  0  0  0  0  0  0
   10.0539   -5.9099   25.0823 C   0  0  0  0  0  0  0  0  0  0  0  0
    9.8870    1.3260   23.5730 C   0  0  0  0  0  0  0  0  0  0  0  0
    6.7580    0.3810   17.8350 N   0  0  0  0  0  0  0  0  0  0  0  0
    7.6390   -0.2680   18.5410 N   0  0  0  0  0  0  0  0  0  0  0  0
    6.1790    0.5730   19.9990 N   0  0  0  0  0  0  0  0  0  0  0  0
    9.2529   -4.7797   25.5644 N   0  0  0  0  0  0  0  0  0  0  0  0
    8.1890   -0.7180   20.8700 N   0  0  0  0  0  0  0  0  0  0  0  0
    9.4560    0.1560   22.8130 N   0  0  0  0  0  0  0  0  0  0  0  0
    7.4954   -4.2356   27.0449 O   0  0  0  0  0  0  0  0  0  0  0  0
    9.2690    1.4140   20.9380 O   0  0  0  0  0  0  0  0  0  0  0  0
   13.7301    1.4394   24.7638 S   0  0  0  0  0  0  0  0  0  0  0  0
    8.6895   -2.3529   26.5807 H   0  0  0  0  0  0  0  0  0  0  0  0
    9.9262   -4.3897   22.9916 H   0  0  0  0  0  0  0  0  0  0  0  0
    8.9224   -0.1998   25.4238 H   0  0  0  0  0  0  0  0  0  0  0  0
   10.0649   -2.2343   21.8258 H   0  0  0  0  0  0  0  0  0  0  0  0
   12.0045    1.4365   21.5915 H   0  0  0  0  0  0  0  0  0  0  0  0
   14.4914    1.5078   22.4431 H   0  0  0  0  0  0  0  0  0  0  0  0
   11.5886    1.3416   25.9314 H   0  0  0  0  0  0  0  0  0  0  0  0
    4.3967    1.9772   17.4718 H   0  0  0  0  0  0  0  0  0  0  0  0
    3.0218    2.6486   19.3697 H   0  0  0  0  0  0  0  0  0  0  0  0
    3.6566    2.0043   21.7065 H   0  0  0  0  0  0  0  0  0  0  0  0
    5.7190    0.6877   22.0810 H   0  0  0  0  0  0  0  0  0  0  0  0
    7.9325   -6.4148   28.1641 H   0  0  0  0  0  0  0  0  0  0  0  0
    8.0254   -7.0920   26.5333 H   0  0  0  0  0  0  0  0  0  0  0  0
   10.3387   -6.1267   28.2923 H   0  0  0  0  0  0  0  0  0  0  0  0
    9.9904   -7.8023   27.8537 H   0  0  0  0  0  0  0  0  0  0  0  0
   11.7037   -6.0404   26.4771 H   0  0  0  0  0  0  0  0  0  0  0  0
   11.1411   -7.6068   25.8918 H   0  0  0  0  0  0  0  0  0  0  0  0
   10.7782   -5.5162   24.3756 H   0  0  0  0  0  0  0  0  0  0  0  0
    9.4042   -6.6189   24.5807 H   0  0  0  0  0  0  0  0  0  0  0  0
    9.3974    1.2912   24.5523 H   0  0  0  0  0  0  0  0  0  0  0  0
    9.5159    2.2168   23.0553 H   0  0  0  0  0  0  0  0  0  0  0  0
    8.2565   -1.5523   21.1108 H   0  0  0  0  0  0  0  0  0  0  0  0
  1  3  2  0  0  0  0
  1  9  1  0  0  0  0
  2  4  1  0  0  0  0
  2  9  2  0  0  0  0
  3 10  1  0  0  0  0
  4 10  2  0  0  0  0
  5  6  2  0  0  0  0
  5  8  1  0  0  0  0
  6 32  1  0  0  0  0
  7  8  2  0  0  0  0
  7 32  1  0  0  0  0
  8 23  1  0  0  0  0
  9 27  1  0  0  0  0
 10 29  1  0  0  0  0
 11 13  1  0  0  0  0
 11 24  2  0  0  0  0
 11 26  1  0  0  0  0
 12 25  2  0  0  0  0
 12 26  1  0  0  0  0
 12 28  1  0  0  0  0
 13 14  2  0  0  0  0
 14 15  1  0  0  0  0
 15 16  2  0  0  0  0
 16 26  1  0  0  0  0
 17 19  1  0  0  0  0
 17 27  1  0  0  0  0
 17 30  2  0  0  0  0
 18 28  1  0  0  0  0
 18 29  1  0  0  0  0
 18 31  2  0  0  0  0
 19 20  1  0  0  0  0
 20 21  1  0  0  0  0
 21 22  1  0  0  0  0
 22 27  1  0  0  0  0
 23 29  1  0  0  0  0
 24 25  1  0  0  0  0
  1 33  1  0  0  0  0
  2 34  1  0  0  0  0
  3 35  1  0  0  0  0
  4 36  1  0  0  0  0
  5 37  1  0  0  0  0
  6 38  1  0  0  0  0
  7 39  1  0  0  0  0
 13 40  1  0  0  0  0
 14 41  1  0  0  0  0
 15 42  1  0  0  0  0
 16 43  1  0  0  0  0
 19 44  1  0  0  0  0
 19 45  1  0  0  0  0
 20 46  1  0  0  0  0
 20 47  1  0  0  0  0
 21 48  1  0  0  0  0
 21 49  1  0  0  0  0
 22 50  1  0  0  0  0
 22 51  1  0  0  0  0
 23 52  1  0  0  0  0
 23 53  1  0  0  0  0
 28 54  1  0  0  0  0
M  END
> <clash_score>
0.7790751876189459

> <docking_score>
-8.077593803405762

$$$$
BENZO_161_1
  -OEChem-08212020183D

 57 61  0     0  0  0  0  0  0999 V2000
   14.1526    1.4694   24.0176 C   0  0  0  0  0  0  0  0  0  0  0  0
   13.3741    0.8121   24.9701 C   0  0  0  0  0  0  0  0  0  0  0  0
   13.5446    2.0802   22.9208 C   0  0  0  0  0  0  0  0  0  0  0  0
   11.9875    0.7654   24.8259 C   0  0  0  0  0  0  0  0  0  0  0  0
   12.1580    2.0335   22.7765 C   0  0  0  0  0  0  0  0  0  0  0  0
    8.9960   -2.3380   25.5320 C   0  0  0  0  0  0  0  0  0  0  0  0
    9.6730   -3.4710   23.5300 C   0  0  0  0  0  0  0  0  0  0  0  0
    9.0720   -1.1280   24.8640 C   0  0  0  0  0  0  0  0  0  0  0  0
    9.7200   -2.2600   22.8630 C   0  0  0  0  0  0  0  0  0  0  0  0
   11.3794    1.3761   23.7290 C   0  0  0  0  0  0  0  0  0  0  0  0
    9.3070   -3.5340   24.8780 C   0  0  0  0  0  0  0  0  0  0  0  0
    9.3350   -1.0880   23.5010 C   0  0  0  0  0  0  0  0  0  0  0  0
    5.8300    0.9190   18.6970 C   0  0  0  0  0  0  0  0  0  0  0  0
    7.3170   -0.1610   19.8550 C   0  0  0  0  0  0  0  0  0  0  0  0
    4.6890    1.6810   18.4640 C   0  0  0  0  0  0  0  0  0  0  0  0
    3.9160    2.0630   19.5520 C   0  0  0  0  0  0  0  0  0  0  0  0
    4.2750    1.7050   20.8490 C   0  0  0  0  0  0  0  0  0  0  0  0
    5.4210    0.9600   21.0930 C   0  0  0  0  0  0  0  0  0  0  0  0
    8.3597   -5.0073   26.6307 C   0  0  0  0  0  0  0  0  0  0  0  0
    9.0420    0.3700   21.5280 C   0  0  0  0  0  0  0  0  0  0  0  0
    8.4720   -6.3981   27.2296 C   0  0  0  0  0  0  0  0  0  0  0  0
    9.9252   -6.7605   27.4803 C   0  0  0  0  0  0  0  0  0  0  0  0
   10.7833   -6.6094   26.2282 C   0  0  0  0  0  0  0  0  0  0  0  0
   10.0539   -5.9099   25.0823 C   0  0  0  0  0  0  0  0  0  0  0  0
    9.8870    1.3260   23.5730 C   0  0  0  0  0  0  0  0  0  0  0  0
    6.7580    0.3810   17.8350 N   0  0  0  0  0  0  0  0  0  0  0  0
    7.6390   -0.2680   18.5410 N   0  0  0  0  0  0  0  0  0  0  0  0
    6.1790    0.5730   19.9990 N   0  0  0  0  0  0  0  0  0  0  0  0
    9.2529   -4.7797   25.5644 N   0  0  0  0  0  0  0  0  0  0  0  0
    8.1890   -0.7180   20.8700 N   0  0  0  0  0  0  0  0  0  0  0  0
    9.4560    0.1560   22.8130 N   0  0  0  0  0  0  0  0  0  0  0  0
    7.4954   -4.2356   27.0449 O   0  0  0  0  0  0  0  0  0  0  0  0
    9.2690    1.4140   20.9380 O   0  0  0  0  0  0  0  0  0  0  0  0
   15.2322    1.5068   24.1308 H   0  0  0  0  0  0  0  0  0  0  0  0
   13.8473    0.3374   25.8248 H   0  0  0  0  0  0  0  0  0  0  0  0
   14.1503    2.5930   22.1795 H   0  0  0  0  0  0  0  0  0  0  0  0
   11.3889    0.2508   25.5729 H   0  0  0  0  0  0  0  0  0  0  0  0
   11.6930    2.5120   21.9187 H   0  0  0  0  0  0  0  0  0  0  0  0
    8.6895   -2.3529   26.5807 H   0  0  0  0  0  0  0  0  0  0  0  0
    9.9262   -4.3897   22.9916 H   0  0  0  0  0  0  0  0  0  0  0  0
    8.9224   -0.1998   25.4238 H   0  0  0  0  0  0  0  0  0  0  0  0
   10.0649   -2.2343   21.8258 H   0  0  0  0  0  0  0  0  0  0  0  0
    4.3967    1.9772   17.4718 H   0  0  0  0  0  0  0  0  0  0  0  0
    3.0218    2.6486   19.3697 H   0  0  0  0  0  0  0  0  0  0  0  0
    3.6566    2.0043   21.7065 H   0  0  0  0  0  0  0  0  0  0  0  0
    5.7190    0.6877   22.0810 H   0  0  0  0  0  0  0  0  0  0  0  0
    7.9325   -6.4148   28.1641 H   0  0  0  0  0  0  0  0  0  0  0  0
    8.0254   -7.0920   26.5333 H   0  0  0  0  0  0  0  0  0  0  0  0
   10.3387   -6.1267   28.2923 H   0  0  0  0  0  0  0  0  0  0  0  0
    9.9904   -7.8023   27.8537 H   0  0  0  0  0  0  0  0  0  0  0  0
   11.7037   -6.0404   26.4771 H   0  0  0  0  0  0  0  0  0  0  0  0
   11.1411   -7.6068   25.8918 H   0  0  0  0  0  0  0  0  0  0  0  0
   10.7782   -5.5162   24.3756 H   0  0  0  0  0  0  0  0  0  0  0  0
    9.4042   -6.6189   24.5807 H   0  0  0  0  0  0  0  0  0  0  0  0
    9.3974    1.2912   24.5523 H   0  0  0  0  0  0  0  0  0  0  0  0
    9.5159    2.2168   23.0553 H   0  0  0  0  0  0  0  0  0  0  0  0
    8.2565   -1.5523   21.1108 H   0  0  0  0  0  0  0  0  0  0  0  0
  1  2  1  0  0  0  0
  1  3  2  0  0  0  0
  2  4  2  0  0  0  0
  3  5  1  0  0  0  0
  4 10  1  0  0  0  0
  5 10  2  0  0  0  0
  6  8  2  0  0  0  0
  6 11  1  0  0  0  0
  7  9  1  0  0  0  0
  7 11  2  0  0  0  0
  8 12  1  0  0  0  0
  9 12  2  0  0  0  0
 10 25  1  0  0  0  0
 11 29  1  0  0  0  0
 12 31  1  0  0  0  0
 13 15  1  0  0  0  0
 13 26  2  0  0  0  0
 13 28  1  0  0  0  0
 14 27  2  0  0  0  0
 14 28  1  0  0  0  0
 14 30  1  0  0  0  0
 15 16  2  0  0  0  0
 16 17  1  0  0  0  0
 17 18  2  0  0  0  0
 18 28  1  0  0  0  0
 19 21  1  0  0  0  0
 19 29  1  0  0  0  0
 19 32  2  0  0  0  0
 20 30  1  0  0  0  0
 20 31  1  0  0  0  0
 20 33  2  0  0  0  0
 21 22  1  0  0  0  0
 22 23  1  0  0  0  0
 23 24  1  0  0  0  0
 24 29  1  0  0  0  0
 25 31  1  0  0  0  0
 26 27  1  0  0  0  0
  1 34  1  0  0  0  0
  2 35  1  0  0  0  0
  3 36  1  0  0  0  0
  4 37  1  0  0  0  0
  5 38  1  0  0  0  0
  6 39  1  0  0  0  0
  7 40  1  0  0  0  0
  8 41  1  0  0  0  0
  9 42  1  0  0  0  0
 15 43  1  0  0  0  0
 16 44  1  0  0  0  0
 17 45  1  0  0  0  0
 18 46  1  0  0  0  0
 21 47  1  0  0  0  0
 21 48  1  0  0  0  0
 22 49  1  0  0  0  0
 22 50  1  0  0  0  0
 23 51  1  0  0  0  0
 23 52  1  0  0  0  0
 24 53  1  0  0  0  0
 24 54  1  0  0  0  0
 25 55  1  0  0  0  0
 25 56  1  0  0  0  0
 30 57  1  0  0  0  0
M  END
> <clash_score>
0.7790751876189459

> <docking_score>
-7.998713493347168

$$$$
BENZO_162_1
  -OEChem-08212020183D

 57 61  0     0  0  0  0  0  0999 V2000
    6.4089    2.0844   24.8766 C   0  0  0  0  0  0  0  0  0  0  0  0
    7.4847    1.4191   24.2887 C   0  0  0  0  0  0  0  0  0  0  0  0
    8.9960   -2.3380   25.5320 C   0  0  0  0  0  0  0  0  0  0  0  0
    9.6730   -3.4710   23.5300 C   0  0  0  0  0  0  0  0  0  0  0  0
    9.0720   -1.1280   24.8640 C   0  0  0  0  0  0  0  0  0  0  0  0
    9.7200   -2.2600   22.8630 C   0  0  0  0  0  0  0  0  0  0  0  0
    6.5777    3.3741   25.3805 C   0  0  0  0  0  0  0  0  0  0  0  0
    8.8980    3.3330   24.7088 C   0  0  0  0  0  0  0  0  0  0  0  0
    8.7292    2.0433   24.2048 C   0  0  0  0  0  0  0  0  0  0  0  0
    9.3070   -3.5340   24.8780 C   0  0  0  0  0  0  0  0  0  0  0  0
    9.3350   -1.0880   23.5010 C   0  0  0  0  0  0  0  0  0  0  0  0
    7.8222    3.9984   25.2966 C   0  0  0  0  0  0  0  0  0  0  0  0
    5.8300    0.9190   18.6970 C   0  0  0  0  0  0  0  0  0  0  0  0
    7.3170   -0.1610   19.8550 C   0  0  0  0  0  0  0  0  0  0  0  0
    4.6890    1.6810   18.4640 C   0  0  0  0  0  0  0  0  0  0  0  0
    3.9160    2.0630   19.5520 C   0  0  0  0  0  0  0  0  0  0  0  0
    4.2750    1.7050   20.8490 C   0  0  0  0  0  0  0  0  0  0  0  0
    5.4210    0.9600   21.0930 C   0  0  0  0  0  0  0  0  0  0  0  0
    8.3597   -5.0073   26.6307 C   0  0  0  0  0  0  0  0  0  0  0  0
    9.0420    0.3700   21.5280 C   0  0  0  0  0  0  0  0  0  0  0  0
    8.4720   -6.3981   27.2296 C   0  0  0  0  0  0  0  0  0  0  0  0
    9.9252   -6.7605   27.4803 C   0  0  0  0  0  0  0  0  0  0  0  0
   10.7833   -6.6094   26.2282 C   0  0  0  0  0  0  0  0  0  0  0  0
   10.0539   -5.9099   25.0823 C   0  0  0  0  0  0  0  0  0  0  0  0
    9.8870    1.3260   23.5730 C   0  0  0  0  0  0  0  0  0  0  0  0
    6.7580    0.3810   17.8350 N   0  0  0  0  0  0  0  0  0  0  0  0
    7.6390   -0.2680   18.5410 N   0  0  0  0  0  0  0  0  0  0  0  0
    6.1790    0.5730   19.9990 N   0  0  0  0  0  0  0  0  0  0  0  0
    9.2529   -4.7797   25.5644 N   0  0  0  0  0  0  0  0  0  0  0  0
    8.1890   -0.7180   20.8700 N   0  0  0  0  0  0  0  0  0  0  0  0
    9.4560    0.1560   22.8130 N   0  0  0  0  0  0  0  0  0  0  0  0
    7.4954   -4.2356   27.0449 O   0  0  0  0  0  0  0  0  0  0  0  0
    9.2690    1.4140   20.9380 O   0  0  0  0  0  0  0  0  0  0  0  0
    8.0301    5.5891   25.9196 Cl  0  0  0  0  0  0  0  0  0  0  0  0
    5.4400    1.5979   24.9418 H   0  0  0  0  0  0  0  0  0  0  0  0
    7.3441    0.4143   23.8988 H   0  0  0  0  0  0  0  0  0  0  0  0
    8.6895   -2.3529   26.5807 H   0  0  0  0  0  0  0  0  0  0  0  0
    9.9262   -4.3897   22.9916 H   0  0  0  0  0  0  0  0  0  0  0  0
    8.9224   -0.1998   25.4238 H   0  0  0  0  0  0  0  0  0  0  0  0
   10.0649   -2.2343   21.8258 H   0  0  0  0  0  0  0  0  0  0  0  0
    5.7304    3.8806   25.8363 H   0  0  0  0  0  0  0  0  0  0  0  0
    9.8702    3.8156   24.6405 H   0  0  0  0  0  0  0  0  0  0  0  0
    4.3967    1.9772   17.4718 H   0  0  0  0  0  0  0  0  0  0  0  0
    3.0218    2.6486   19.3697 H   0  0  0  0  0  0  0  0  0  0  0  0
    3.6566    2.0043   21.7065 H   0  0  0  0  0  0  0  0  0  0  0  0
    5.7190    0.6877   22.0810 H   0  0  0  0  0  0  0  0  0  0  0  0
    7.9325   -6.4148   28.1641 H   0  0  0  0  0  0  0  0  0  0  0  0
    8.0254   -7.0920   26.5333 H   0  0  0  0  0  0  0  0  0  0  0  0
   10.3387   -6.1267   28.2923 H   0  0  0  0  0  0  0  0  0  0  0  0
    9.9904   -7.8023   27.8537 H   0  0  0  0  0  0  0  0  0  0  0  0
   11.7037   -6.0404   26.4771 H   0  0  0  0  0  0  0  0  0  0  0  0
   11.1411   -7.6068   25.8918 H   0  0  0  0  0  0  0  0  0  0  0  0
   10.7782   -5.5162   24.3756 H   0  0  0  0  0  0  0  0  0  0  0  0
    9.4042   -6.6189   24.5807 H   0  0  0  0  0  0  0  0  0  0  0  0
   10.4274    1.9911   22.8906 H   0  0  0  0  0  0  0  0  0  0  0  0
   10.6011    0.9882   24.3313 H   0  0  0  0  0  0  0  0  0  0  0  0
    8.2565   -1.5523   21.1108 H   0  0  0  0  0  0  0  0  0  0  0  0
  1  2  2  0  0  0  0
  1  7  1  0  0  0  0
  2  9  1  0  0  0  0
  3  5  2  0  0  0  0
  3 10  1  0  0  0  0
  4  6  1  0  0  0  0
  4 10  2  0  0  0  0
  5 11  1  0  0  0  0
  6 11  2  0  0  0  0
  7 12  2  0  0  0  0
  8  9  2  0  0  0  0
  8 12  1  0  0  0  0
  9 25  1  0  0  0  0
 10 29  1  0  0  0  0
 11 31  1  0  0  0  0
 12 34  1  0  0  0  0
 13 15  1  0  0  0  0
 13 26  2  0  0  0  0
 13 28  1  0  0  0  0
 14 27  2  0  0  0  0
 14 28  1  0  0  0  0
 14 30  1  0  0  0  0
 15 16  2  0  0  0  0
 16 17  1  0  0  0  0
 17 18  2  0  0  0  0
 18 28  1  0  0  0  0
 19 21  1  0  0  0  0
 19 29  1  0  0  0  0
 19 32  2  0  0  0  0
 20 30  1  0  0  0  0
 20 31  1  0  0  0  0
 20 33  2  0  0  0  0
 21 22  1  0  0  0  0
 22 23  1  0  0  0  0
 23 24  1  0  0  0  0
 24 29  1  0  0  0  0
 25 31  1  0  0  0  0
 26 27  1  0  0  0  0
  1 35  1  0  0  0  0
  2 36  1  0  0  0  0
  3 37  1  0  0  0  0
  4 38  1  0  0  0  0
  5 39  1  0  0  0  0
  6 40  1  0  0  0  0
  7 41  1  0  0  0  0
  8 42  1  0  0  0  0
 15 43  1  0  0  0  0
 16 44  1  0  0  0  0
 17 45  1  0  0  0  0
 18 46  1  0  0  0  0
 21 47  1  0  0  0  0
 21 48  1  0  0  0  0
 22 49  1  0  0  0  0
 22 50  1  0  0  0  0
 23 51  1  0  0  0  0
 23 52  1  0  0  0  0
 24 53  1  0  0  0  0
 24 54  1  0  0  0  0
 25 55  1  0  0  0  0
 25 56  1  0  0  0  0
 30 57  1  0  0  0  0
M  END
> <clash_score>
0.7790751876189459

> <docking_score>
-7.384748458862305

$$$$
BENZO_163_1
  -OEChem-08212020183D

 57 61  0     0  0  0  0  0  0999 V2000
    8.9960   -2.3380   25.5320 C   0  0  0  0  0  0  0  0  0  0  0  0
    9.6730   -3.4710   23.5300 C   0  0  0  0  0  0  0  0  0  0  0  0
    9.0720   -1.1280   24.8640 C   0  0  0  0  0  0  0  0  0  0  0  0
    9.7200   -2.2600   22.8630 C   0  0  0  0  0  0  0  0  0  0  0  0
   12.1233    1.3811   24.9242 C   0  0  0  0  0  0  0  0  0  0  0  0
   12.3262    1.4247   22.7351 C   0  0  0  0  0  0  0  0  0  0  0  0
   11.3794    1.3761   23.7290 C   0  0  0  0  0  0  0  0  0  0  0  0
    9.3070   -3.5340   24.8780 C   0  0  0  0  0  0  0  0  0  0  0  0
    9.3350   -1.0880   23.5010 C   0  0  0  0  0  0  0  0  0  0  0  0
    5.8300    0.9190   18.6970 C   0  0  0  0  0  0  0  0  0  0  0  0
    7.3170   -0.1610   19.8550 C   0  0  0  0  0  0  0  0  0  0  0  0
    4.6890    1.6810   18.4640 C   0  0  0  0  0  0  0  0  0  0  0  0
    3.9160    2.0630   19.5520 C   0  0  0  0  0  0  0  0  0  0  0  0
    4.2750    1.7050   20.8490 C   0  0  0  0  0  0  0  0  0  0  0  0
    5.4210    0.9600   21.0930 C   0  0  0  0  0  0  0  0  0  0  0  0
    8.3597   -5.0073   26.6307 C   0  0  0  0  0  0  0  0  0  0  0  0
    9.0420    0.3700   21.5280 C   0  0  0  0  0  0  0  0  0  0  0  0
    8.4720   -6.3981   27.2296 C   0  0  0  0  0  0  0  0  0  0  0  0
    9.9252   -6.7605   27.4803 C   0  0  0  0  0  0  0  0  0  0  0  0
   10.7833   -6.6094   26.2282 C   0  0  0  0  0  0  0  0  0  0  0  0
   10.0539   -5.9099   25.0823 C   0  0  0  0  0  0  0  0  0  0  0  0
   14.8305    1.5084   22.7418 C   0  0  0  0  0  0  0  0  0  0  0  0
    9.8870    1.3260   23.5730 C   0  0  0  0  0  0  0  0  0  0  0  0
   13.4410    1.4289   24.7112 N   0  0  0  0  0  0  0  0  0  0  0  0
    6.7580    0.3810   17.8350 N   0  0  0  0  0  0  0  0  0  0  0  0
    7.6390   -0.2680   18.5410 N   0  0  0  0  0  0  0  0  0  0  0  0
   13.5326    1.4543   23.3706 N   0  0  0  0  0  0  0  0  0  0  0  0
    6.1790    0.5730   19.9990 N   0  0  0  0  0  0  0  0  0  0  0  0
    9.2529   -4.7797   25.5644 N   0  0  0  0  0  0  0  0  0  0  0  0
    8.1890   -0.7180   20.8700 N   0  0  0  0  0  0  0  0  0  0  0  0
    9.4560    0.1560   22.8130 N   0  0  0  0  0  0  0  0  0  0  0  0
    7.4954   -4.2356   27.0449 O   0  0  0  0  0  0  0  0  0  0  0  0
    9.2690    1.4140   20.9380 O   0  0  0  0  0  0  0  0  0  0  0  0
    8.6895   -2.3529   26.5807 H   0  0  0  0  0  0  0  0  0  0  0  0
    9.9262   -4.3897   22.9916 H   0  0  0  0  0  0  0  0  0  0  0  0
    8.9224   -0.1998   25.4238 H   0  0  0  0  0  0  0  0  0  0  0  0
   10.0649   -2.2343   21.8258 H   0  0  0  0  0  0  0  0  0  0  0  0
   11.7624    1.3510   25.9426 H   0  0  0  0  0  0  0  0  0  0  0  0
   12.2462    1.4390   21.6566 H   0  0  0  0  0  0  0  0  0  0  0  0
    4.3967    1.9772   17.4718 H   0  0  0  0  0  0  0  0  0  0  0  0
    3.0218    2.6486   19.3697 H   0  0  0  0  0  0  0  0  0  0  0  0
    3.6566    2.0043   21.7065 H   0  0  0  0  0  0  0  0  0  0  0  0
    5.7190    0.6877   22.0810 H   0  0  0  0  0  0  0  0  0  0  0  0
    7.9325   -6.4148   28.1641 H   0  0  0  0  0  0  0  0  0  0  0  0
    8.0254   -7.0920   26.5333 H   0  0  0  0  0  0  0  0  0  0  0  0
   10.3387   -6.1267   28.2923 H   0  0  0  0  0  0  0  0  0  0  0  0
    9.9904   -7.8023   27.8537 H   0  0  0  0  0  0  0  0  0  0  0  0
   11.7037   -6.0404   26.4771 H   0  0  0  0  0  0  0  0  0  0  0  0
   11.1411   -7.6068   25.8918 H   0  0  0  0  0  0  0  0  0  0  0  0
   10.7782   -5.5162   24.3756 H   0  0  0  0  0  0  0  0  0  0  0  0
    9.4042   -6.6189   24.5807 H   0  0  0  0  0  0  0  0  0  0  0  0
   15.0990    2.5601   22.6124 H   0  0  0  0  0  0  0  0  0  0  0  0
   15.5636    1.0018   23.3756 H   0  0  0  0  0  0  0  0  0  0  0  0
   14.7842    1.0025   21.7733 H   0  0  0  0  0  0  0  0  0  0  0  0
    9.3974    1.2912   24.5523 H   0  0  0  0  0  0  0  0  0  0  0  0
    9.5159    2.2168   23.0553 H   0  0  0  0  0  0  0  0  0  0  0  0
    8.2565   -1.5523   21.1108 H   0  0  0  0  0  0  0  0  0  0  0  0
  1  3  2  0  0  0  0
  1  8  1  0  0  0  0
  2  4  1  0  0  0  0
  2  8  2  0  0  0  0
  3  9  1  0  0  0  0
  4  9  2  0  0  0  0
  5  7  1  0  0  0  0
  5 24  2  0  0  0  0
  6  7  2  0  0  0  0
  6 27  1  0  0  0  0
  7 23  1  0  0  0  0
  8 29  1  0  0  0  0
  9 31  1  0  0  0  0
 10 12  1  0  0  0  0
 10 25  2  0  0  0  0
 10 28  1  0  0  0  0
 11 26  2  0  0  0  0
 11 28  1  0  0  0  0
 11 30  1  0  0  0  0
 12 13  2  0  0  0  0
 13 14  1  0  0  0  0
 14 15  2  0  0  0  0
 15 28  1  0  0  0  0
 16 18  1  0  0  0  0
 16 29  1  0  0  0  0
 16 32  2  0  0  0  0
 17 30  1  0  0  0  0
 17 31  1  0  0  0  0
 17 33  2  0  0  0  0
 18 19  1  0  0  0  0
 19 20  1  0  0  0  0
 20 21  1  0  0  0  0
 21 29  1  0  0  0  0
 22 27  1  0  0  0  0
 23 31  1  0  0  0  0
 24 27  1  0  0  0  0
 25 26  1  0  0  0  0
  1 34  1  0  0  0  0
  2 35  1  0  0  0  0
  3 36  1  0  0  0  0
  4 37  1  0  0  0  0
  5 38  1  0  0  0  0
  6 39  1  0  0  0  0
 12 40  1  0  0  0  0
 13 41  1  0  0  0  0
 14 42  1  0  0  0  0
 15 43  1  0  0  0  0
 18 44  1  0  0  0  0
 18 45  1  0  0  0  0
 19 46  1  0  0  0  0
 19 47  1  0  0  0  0
 20 48  1  0  0  0  0
 20 49  1  0  0  0  0
 21 50  1  0  0  0  0
 21 51  1  0  0  0  0
 22 52  1  0  0  0  0
 22 53  1  0  0  0  0
 22 54  1  0  0  0  0
 23 55  1  0  0  0  0
 23 56  1  0  0  0  0
 30 57  1  0  0  0  0
M  END
> <clash_score>
0.7790751876189459

> <docking_score>
-7.714873313903809

$$$$
BENZO_165_1
  -OEChem-08212020183D

 56 60  0     0  0  0  0  0  0999 V2000
   14.1526    1.4694   24.0176 C   0  0  0  0  0  0  0  0  0  0  0  0
   13.3741    0.8121   24.9701 C   0  0  0  0  0  0  0  0  0  0  0  0
   13.5446    2.0802   22.9208 C   0  0  0  0  0  0  0  0  0  0  0  0
   11.9875    0.7654   24.8258 C   0  0  0  0  0  0  0  0  0  0  0  0
   12.1580    2.0335   22.7765 C   0  0  0  0  0  0  0  0  0  0  0  0
    8.9960   -2.3380   25.5320 C   0  0  0  0  0  0  0  0  0  0  0  0
    9.6730   -3.4710   23.5300 C   0  0  0  0  0  0  0  0  0  0  0  0
    9.0720   -1.1280   24.8640 C   0  0  0  0  0  0  0  0  0  0  0  0
    9.7200   -2.2600   22.8630 C   0  0  0  0  0  0  0  0  0  0  0  0
   11.3794    1.3761   23.7290 C   0  0  0  0  0  0  0  0  0  0  0  0
    9.3070   -3.5340   24.8780 C   0  0  0  0  0  0  0  0  0  0  0  0
    9.3350   -1.0880   23.5010 C   0  0  0  0  0  0  0  0  0  0  0  0
    5.8300    0.9190   18.6970 C   0  0  0  0  0  0  0  0  0  0  0  0
    7.3170   -0.1610   19.8550 C   0  0  0  0  0  0  0  0  0  0  0  0
    4.6890    1.6810   18.4640 C   0  0  0  0  0  0  0  0  0  0  0  0
    3.9160    2.0630   19.5520 C   0  0  0  0  0  0  0  0  0  0  0  0
    4.2750    1.7050   20.8490 C   0  0  0  0  0  0  0  0  0  0  0  0
    5.4210    0.9600   21.0930 C   0  0  0  0  0  0  0  0  0  0  0  0
    9.0420    0.3700   21.5280 C   0  0  0  0  0  0  0  0  0  0  0  0
   10.0771   -5.0255   26.7193 C   0  0  0  0  0  0  0  0  0  0  0  0
    8.0927   -5.6195   25.4071 C   0  0  0  0  0  0  0  0  0  0  0  0
    9.1933   -4.9427   27.9592 C   0  0  0  0  0  0  0  0  0  0  0  0
    7.2756   -5.5290   26.6967 C   0  0  0  0  0  0  0  0  0  0  0  0
    9.8870    1.3260   23.5730 C   0  0  0  0  0  0  0  0  0  0  0  0
    6.7580    0.3810   17.8350 N   0  0  0  0  0  0  0  0  0  0  0  0
    7.6390   -0.2680   18.5410 N   0  0  0  0  0  0  0  0  0  0  0  0
    6.1790    0.5730   19.9990 N   0  0  0  0  0  0  0  0  0  0  0  0
    9.2563   -4.7368   25.5413 N   0  0  0  0  0  0  0  0  0  0  0  0
    8.1890   -0.7180   20.8700 N   0  0  0  0  0  0  0  0  0  0  0  0
    9.4560    0.1560   22.8130 N   0  0  0  0  0  0  0  0  0  0  0  0
    9.2690    1.4140   20.9380 O   0  0  0  0  0  0  0  0  0  0  0  0
    8.0883   -5.8459   27.8325 O   0  0  0  0  0  0  0  0  0  0  0  0
   15.2322    1.5068   24.1308 H   0  0  0  0  0  0  0  0  0  0  0  0
   13.8473    0.3374   25.8248 H   0  0  0  0  0  0  0  0  0  0  0  0
   14.1503    2.5930   22.1795 H   0  0  0  0  0  0  0  0  0  0  0  0
   11.3889    0.2508   25.5729 H   0  0  0  0  0  0  0  0  0  0  0  0
   11.6930    2.5120   21.9187 H   0  0  0  0  0  0  0  0  0  0  0  0
    8.6905   -2.3533   26.5810 H   0  0  0  0  0  0  0  0  0  0  0  0
    9.9266   -4.3896   22.9917 H   0  0  0  0  0  0  0  0  0  0  0  0
    8.9233   -0.1992   25.4232 H   0  0  0  0  0  0  0  0  0  0  0  0
   10.0650   -2.2330   21.8256 H   0  0  0  0  0  0  0  0  0  0  0  0
    4.3967    1.9772   17.4718 H   0  0  0  0  0  0  0  0  0  0  0  0
    3.0218    2.6486   19.3697 H   0  0  0  0  0  0  0  0  0  0  0  0
    3.6566    2.0043   21.7065 H   0  0  0  0  0  0  0  0  0  0  0  0
    5.7190    0.6877   22.0810 H   0  0  0  0  0  0  0  0  0  0  0  0
   10.8985   -4.3115   26.8085 H   0  0  0  0  0  0  0  0  0  0  0  0
   10.4915   -6.0334   26.6323 H   0  0  0  0  0  0  0  0  0  0  0  0
    8.4327   -6.6456   25.2620 H   0  0  0  0  0  0  0  0  0  0  0  0
    7.4725   -5.3241   24.5619 H   0  0  0  0  0  0  0  0  0  0  0  0
    9.7636   -5.2398   28.8419 H   0  0  0  0  0  0  0  0  0  0  0  0
    8.8236   -3.9268   28.1248 H   0  0  0  0  0  0  0  0  0  0  0  0
    6.8339   -4.5337   26.8232 H   0  0  0  0  0  0  0  0  0  0  0  0
    6.4550   -6.2521   26.6643 H   0  0  0  0  0  0  0  0  0  0  0  0
    9.3974    1.2912   24.5523 H   0  0  0  0  0  0  0  0  0  0  0  0
    9.5159    2.2168   23.0553 H   0  0  0  0  0  0  0  0  0  0  0  0
    8.2565   -1.5523   21.1108 H   0  0  0  0  0  0  0  0  0  0  0  0
  1  2  1  0  0  0  0
  1  3  2  0  0  0  0
  2  4  2  0  0  0  0
  3  5  1  0  0  0  0
  4 10  1  0  0  0  0
  5 10  2  0  0  0  0
  6  8  2  0  0  0  0
  6 11  1  0  0  0  0
  7  9  1  0  0  0  0
  7 11  2  0  0  0  0
  8 12  1  0  0  0  0
  9 12  2  0  0  0  0
 10 24  1  0  0  0  0
 11 28  1  0  0  0  0
 12 30  1  0  0  0  0
 13 15  1  0  0  0  0
 13 25  2  0  0  0  0
 13 27  1  0  0  0  0
 14 26  2  0  0  0  0
 14 27  1  0  0  0  0
 14 29  1  0  0  0  0
 15 16  2  0  0  0  0
 16 17  1  0  0  0  0
 17 18  2  0  0  0  0
 18 27  1  0  0  0  0
 19 29  1  0  0  0  0
 19 30  1  0  0  0  0
 19 31  2  0  0  0  0
 20 22  1  0  0  0  0
 20 28  1  0  0  0  0
 21 23  1  0  0  0  0
 21 28  1  0  0  0  0
 22 32  1  0  0  0  0
 23 32  1  0  0  0  0
 24 30  1  0  0  0  0
 25 26  1  0  0  0  0
  1 33  1  0  0  0  0
  2 34  1  0  0  0  0
  3 35  1  0  0  0  0
  4 36  1  0  0  0  0
  5 37  1  0  0  0  0
  6 38  1  0  0  0  0
  7 39  1  0  0  0  0
  8 40  1  0  0  0  0
  9 41  1  0  0  0  0
 15 42  1  0  0  0  0
 16 43  1  0  0  0  0
 17 44  1  0  0  0  0
 18 45  1  0  0  0  0
 20 46  1  0  0  0  0
 20 47  1  0  0  0  0
 21 48  1  0  0  0  0
 21 49  1  0  0  0  0
 22 50  1  0  0  0  0
 22 51  1  0  0  0  0
 23 52  1  0  0  0  0
 23 53  1  0  0  0  0
 24 54  1  0  0  0  0
 24 55  1  0  0  0  0
 29 56  1  0  0  0  0
M  END
> <clash_score>
0

> <docking_score>
-8.979841232299805

$$$$
BENZO_164_1
  -OEChem-08212020183D

 53 57  0     0  0  0  0  0  0999 V2000
    8.9960   -2.3380   25.5320 C   0  0  0  0  0  0  0  0  0  0  0  0
    9.6730   -3.4710   23.5300 C   0  0  0  0  0  0  0  0  0  0  0  0
    9.0720   -1.1280   24.8640 C   0  0  0  0  0  0  0  0  0  0  0  0
    9.7200   -2.2600   22.8630 C   0  0  0  0  0  0  0  0  0  0  0  0
   12.2913    1.4279   22.6355 C   0  0  0  0  0  0  0  0  0  0  0  0
   13.6024    1.4662   23.0564 C   0  0  0  0  0  0  0  0  0  0  0  0
   12.0284    1.3764   24.9443 C   0  0  0  0  0  0  0  0  0  0  0  0
   11.3794    1.3761   23.7290 C   0  0  0  0  0  0  0  0  0  0  0  0
    9.3070   -3.5340   24.8780 C   0  0  0  0  0  0  0  0  0  0  0  0
    9.3350   -1.0880   23.5010 C   0  0  0  0  0  0  0  0  0  0  0  0
    5.8300    0.9190   18.6970 C   0  0  0  0  0  0  0  0  0  0  0  0
    7.3170   -0.1610   19.8550 C   0  0  0  0  0  0  0  0  0  0  0  0
    4.6890    1.6810   18.4640 C   0  0  0  0  0  0  0  0  0  0  0  0
    3.9160    2.0630   19.5520 C   0  0  0  0  0  0  0  0  0  0  0  0
    4.2750    1.7050   20.8490 C   0  0  0  0  0  0  0  0  0  0  0  0
    5.4210    0.9600   21.0930 C   0  0  0  0  0  0  0  0  0  0  0  0
    9.0420    0.3700   21.5280 C   0  0  0  0  0  0  0  0  0  0  0  0
   10.0771   -5.0255   26.7193 C   0  0  0  0  0  0  0  0  0  0  0  0
    8.0927   -5.6195   25.4071 C   0  0  0  0  0  0  0  0  0  0  0  0
    9.1933   -4.9427   27.9592 C   0  0  0  0  0  0  0  0  0  0  0  0
    7.2756   -5.5290   26.6967 C   0  0  0  0  0  0  0  0  0  0  0  0
    9.8870    1.3260   23.5730 C   0  0  0  0  0  0  0  0  0  0  0  0
    6.7580    0.3810   17.8350 N   0  0  0  0  0  0  0  0  0  0  0  0
    7.6390   -0.2680   18.5410 N   0  0  0  0  0  0  0  0  0  0  0  0
    6.1790    0.5730   19.9990 N   0  0  0  0  0  0  0  0  0  0  0  0
    9.2563   -4.7368   25.5413 N   0  0  0  0  0  0  0  0  0  0  0  0
    8.1890   -0.7180   20.8700 N   0  0  0  0  0  0  0  0  0  0  0  0
    9.4560    0.1560   22.8130 N   0  0  0  0  0  0  0  0  0  0  0  0
    9.2690    1.4140   20.9380 O   0  0  0  0  0  0  0  0  0  0  0  0
    8.0883   -5.8459   27.8325 O   0  0  0  0  0  0  0  0  0  0  0  0
   13.7301    1.4394   24.7638 S   0  0  0  0  0  0  0  0  0  0  0  0
    8.6905   -2.3533   26.5810 H   0  0  0  0  0  0  0  0  0  0  0  0
    9.9266   -4.3896   22.9917 H   0  0  0  0  0  0  0  0  0  0  0  0
    8.9233   -0.1992   25.4232 H   0  0  0  0  0  0  0  0  0  0  0  0
   10.0650   -2.2330   21.8256 H   0  0  0  0  0  0  0  0  0  0  0  0
   12.0045    1.4365   21.5915 H   0  0  0  0  0  0  0  0  0  0  0  0
   14.4914    1.5078   22.4431 H   0  0  0  0  0  0  0  0  0  0  0  0
   11.5886    1.3416   25.9314 H   0  0  0  0  0  0  0  0  0  0  0  0
    4.3967    1.9772   17.4718 H   0  0  0  0  0  0  0  0  0  0  0  0
    3.0218    2.6486   19.3697 H   0  0  0  0  0  0  0  0  0  0  0  0
    3.6566    2.0043   21.7065 H   0  0  0  0  0  0  0  0  0  0  0  0
    5.7190    0.6877   22.0810 H   0  0  0  0  0  0  0  0  0  0  0  0
   10.8985   -4.3115   26.8085 H   0  0  0  0  0  0  0  0  0  0  0  0
   10.4915   -6.0334   26.6323 H   0  0  0  0  0  0  0  0  0  0  0  0
    8.4327   -6.6456   25.2620 H   0  0  0  0  0  0  0  0  0  0  0  0
    7.4725   -5.3241   24.5619 H   0  0  0  0  0  0  0  0  0  0  0  0
    9.7636   -5.2398   28.8419 H   0  0  0  0  0  0  0  0  0  0  0  0
    8.8236   -3.9268   28.1248 H   0  0  0  0  0  0  0  0  0  0  0  0
    6.8339   -4.5337   26.8232 H   0  0  0  0  0  0  0  0  0  0  0  0
    6.4550   -6.2521   26.6643 H   0  0  0  0  0  0  0  0  0  0  0  0
    9.3974    1.2912   24.5523 H   0  0  0  0  0  0  0  0  0  0  0  0
    9.5159    2.2168   23.0553 H   0  0  0  0  0  0  0  0  0  0  0  0
    8.2565   -1.5523   21.1108 H   0  0  0  0  0  0  0  0  0  0  0  0
  1  3  2  0  0  0  0
  1  9  1  0  0  0  0
  2  4  1  0  0  0  0
  2  9  2  0  0  0  0
  3 10  1  0  0  0  0
  4 10  2  0  0  0  0
  5  6  2  0  0  0  0
  5  8  1  0  0  0  0
  6 31  1  0  0  0  0
  7  8  2  0  0  0  0
  7 31  1  0  0  0  0
  8 22  1  0  0  0  0
  9 26  1  0  0  0  0
 10 28  1  0  0  0  0
 11 13  1  0  0  0  0
 11 23  2  0  0  0  0
 11 25  1  0  0  0  0
 12 24  2  0  0  0  0
 12 25  1  0  0  0  0
 12 27  1  0  0  0  0
 13 14  2  0  0  0  0
 14 15  1  0  0  0  0
 15 16  2  0  0  0  0
 16 25  1  0  0  0  0
 17 27  1  0  0  0  0
 17 28  1  0  0  0  0
 17 29  2  0  0  0  0
 18 20  1  0  0  0  0
 18 26  1  0  0  0  0
 19 21  1  0  0  0  0
 19 26  1  0  0  0  0
 20 30  1  0  0  0  0
 21 30  1  0  0  0  0
 22 28  1  0  0  0  0
 23 24  1  0  0  0  0
  1 32  1  0  0  0  0
  2 33  1  0  0  0  0
  3 34  1  0  0  0  0
  4 35  1  0  0  0  0
  5 36  1  0  0  0  0
  6 37  1  0  0  0  0
  7 38  1  0  0  0  0
 13 39  1  0  0  0  0
 14 40  1  0  0  0  0
 15 41  1  0  0  0  0
 16 42  1  0  0  0  0
 18 43  1  0  0  0  0
 18 44  1  0  0  0  0
 19 45  1  0  0  0  0
 19 46  1  0  0  0  0
 20 47  1  0  0  0  0
 20 48  1  0  0  0  0
 21 49  1  0  0  0  0
 21 50  1  0  0  0  0
 22 51  1  0  0  0  0
 22 52  1  0  0  0  0
 27 53  1  0  0  0  0
M  END
> <clash_score>
0

> <docking_score>
-9.05870532989502

$$$$
BENZO_166_1
  -OEChem-08212020183D

 56 60  0     0  0  0  0  0  0999 V2000
    6.4089    2.0844   24.8766 C   0  0  0  0  0  0  0  0  0  0  0  0
    7.4847    1.4191   24.2887 C   0  0  0  0  0  0  0  0  0  0  0  0
    8.9960   -2.3380   25.5320 C   0  0  0  0  0  0  0  0  0  0  0  0
    9.6730   -3.4710   23.5300 C   0  0  0  0  0  0  0  0  0  0  0  0
    9.0720   -1.1280   24.8640 C   0  0  0  0  0  0  0  0  0  0  0  0
    9.7200   -2.2600   22.8630 C   0  0  0  0  0  0  0  0  0  0  0  0
    6.5777    3.3741   25.3805 C   0  0  0  0  0  0  0  0  0  0  0  0
    8.8980    3.3330   24.7088 C   0  0  0  0  0  0  0  0  0  0  0  0
    8.7292    2.0433   24.2048 C   0  0  0  0  0  0  0  0  0  0  0  0
    9.3070   -3.5340   24.8780 C   0  0  0  0  0  0  0  0  0  0  0  0
    9.3350   -1.0880   23.5010 C   0  0  0  0  0  0  0  0  0  0  0  0
    7.8222    3.9984   25.2966 C   0  0  0  0  0  0  0  0  0  0  0  0
    5.8300    0.9190   18.6970 C   0  0  0  0  0  0  0  0  0  0  0  0
    7.3170   -0.1610   19.8550 C   0  0  0  0  0  0  0  0  0  0  0  0
    4.6890    1.6810   18.4640 C   0  0  0  0  0  0  0  0  0  0  0  0
    3.9160    2.0630   19.5520 C   0  0  0  0  0  0  0  0  0  0  0  0
    4.2750    1.7050   20.8490 C   0  0  0  0  0  0  0  0  0  0  0  0
    5.4210    0.9600   21.0930 C   0  0  0  0  0  0  0  0  0  0  0  0
    9.0420    0.3700   21.5280 C   0  0  0  0  0  0  0  0  0  0  0  0
    9.5175   -4.8597   26.9771 C   0  0  0  0  0  0  0  0  0  0  0  0
    8.5165   -5.8725   24.9808 C   0  0  0  0  0  0  0  0  0  0  0  0
    8.1868   -5.0439   27.6987 C   0  0  0  0  0  0  0  0  0  0  0  0
    7.2200   -6.0347   25.7755 C   0  0  0  0  0  0  0  0  0  0  0  0
    9.8870    1.3260   23.5730 C   0  0  0  0  0  0  0  0  0  0  0  0
    6.7580    0.3810   17.8350 N   0  0  0  0  0  0  0  0  0  0  0  0
    7.6390   -0.2680   18.5410 N   0  0  0  0  0  0  0  0  0  0  0  0
    6.1790    0.5730   19.9990 N   0  0  0  0  0  0  0  0  0  0  0  0
    9.2563   -4.7368   25.5413 N   0  0  0  0  0  0  0  0  0  0  0  0
    8.1890   -0.7180   20.8700 N   0  0  0  0  0  0  0  0  0  0  0  0
    9.4560    0.1560   22.8130 N   0  0  0  0  0  0  0  0  0  0  0  0
    9.2690    1.4140   20.9380 O   0  0  0  0  0  0  0  0  0  0  0  0
    7.4994   -6.1853   27.1719 O   0  0  0  0  0  0  0  0  0  0  0  0
    8.0301    5.5891   25.9196 Cl  0  0  0  0  0  0  0  0  0  0  0  0
    5.4400    1.5979   24.9418 H   0  0  0  0  0  0  0  0  0  0  0  0
    7.3441    0.4143   23.8988 H   0  0  0  0  0  0  0  0  0  0  0  0
    8.6905   -2.3533   26.5810 H   0  0  0  0  0  0  0  0  0  0  0  0
    9.9266   -4.3896   22.9917 H   0  0  0  0  0  0  0  0  0  0  0  0
    8.9233   -0.1992   25.4232 H   0  0  0  0  0  0  0  0  0  0  0  0
   10.0650   -2.2330   21.8256 H   0  0  0  0  0  0  0  0  0  0  0  0
    5.7304    3.8806   25.8363 H   0  0  0  0  0  0  0  0  0  0  0  0
    9.8703    3.8156   24.6405 H   0  0  0  0  0  0  0  0  0  0  0  0
    4.3967    1.9772   17.4718 H   0  0  0  0  0  0  0  0  0  0  0  0
    3.0218    2.6486   19.3697 H   0  0  0  0  0  0  0  0  0  0  0  0
    3.6566    2.0043   21.7065 H   0  0  0  0  0  0  0  0  0  0  0  0
    5.7190    0.6877   22.0810 H   0  0  0  0  0  0  0  0  0  0  0  0
   10.0205   -3.9698   27.3609 H   0  0  0  0  0  0  0  0  0  0  0  0
   10.1535   -5.7310   27.1549 H   0  0  0  0  0  0  0  0  0  0  0  0
    9.1181   -6.7773   25.0755 H   0  0  0  0  0  0  0  0  0  0  0  0
    8.2812   -5.7064   23.9305 H   0  0  0  0  0  0  0  0  0  0  0  0
    8.3629   -5.2252   28.7611 H   0  0  0  0  0  0  0  0  0  0  0  0
    7.5530   -4.1570   27.6103 H   0  0  0  0  0  0  0  0  0  0  0  0
    6.5459   -5.1839   25.6221 H   0  0  0  0  0  0  0  0  0  0  0  0
    6.6948   -6.9354   25.4436 H   0  0  0  0  0  0  0  0  0  0  0  0
   10.4274    1.9911   22.8906 H   0  0  0  0  0  0  0  0  0  0  0  0
   10.6011    0.9882   24.3313 H   0  0  0  0  0  0  0  0  0  0  0  0
    8.2565   -1.5523   21.1108 H   0  0  0  0  0  0  0  0  0  0  0  0
  1  2  2  0  0  0  0
  1  7  1  0  0  0  0
  2  9  1  0  0  0  0
  3  5  2  0  0  0  0
  3 10  1  0  0  0  0
  4  6  1  0  0  0  0
  4 10  2  0  0  0  0
  5 11  1  0  0  0  0
  6 11  2  0  0  0  0
  7 12  2  0  0  0  0
  8  9  2  0  0  0  0
  8 12  1  0  0  0  0
  9 24  1  0  0  0  0
 10 28  1  0  0  0  0
 11 30  1  0  0  0  0
 12 33  1  0  0  0  0
 13 15  1  0  0  0  0
 13 25  2  0  0  0  0
 13 27  1  0  0  0  0
 14 26  2  0  0  0  0
 14 27  1  0  0  0  0
 14 29  1  0  0  0  0
 15 16  2  0  0  0  0
 16 17  1  0  0  0  0
 17 18  2  0  0  0  0
 18 27  1  0  0  0  0
 19 29  1  0  0  0  0
 19 30  1  0  0  0  0
 19 31  2  0  0  0  0
 20 22  1  0  0  0  0
 20 28  1  0  0  0  0
 21 23  1  0  0  0  0
 21 28  1  0  0  0  0
 22 32  1  0  0  0  0
 23 32  1  0  0  0  0
 24 30  1  0  0  0  0
 25 26  1  0  0  0  0
  1 34  1  0  0  0  0
  2 35  1  0  0  0  0
  3 36  1  0  0  0  0
  4 37  1  0  0  0  0
  5 38  1  0  0  0  0
  6 39  1  0  0  0  0
  7 40  1  0  0  0  0
  8 41  1  0  0  0  0
 15 42  1  0  0  0  0
 16 43  1  0  0  0  0
 17 44  1  0  0  0  0
 18 45  1  0  0  0  0
 20 46  1  0  0  0  0
 20 47  1  0  0  0  0
 21 48  1  0  0  0  0
 21 49  1  0  0  0  0
 22 50  1  0  0  0  0
 22 51  1  0  0  0  0
 23 52  1  0  0  0  0
 23 53  1  0  0  0  0
 24 54  1  0  0  0  0
 24 55  1  0  0  0  0
 29 56  1  0  0  0  0
M  END
> <clash_score>
0

> <docking_score>
-8.327967643737793

$$$$
BENZO_167_1
  -OEChem-08212020183D

 56 60  0     0  0  0  0  0  0999 V2000
    8.9960   -2.3380   25.5320 C   0  0  0  0  0  0  0  0  0  0  0  0
    9.6730   -3.4710   23.5300 C   0  0  0  0  0  0  0  0  0  0  0  0
    9.0720   -1.1280   24.8640 C   0  0  0  0  0  0  0  0  0  0  0  0
    9.7200   -2.2600   22.8630 C   0  0  0  0  0  0  0  0  0  0  0  0
   12.1233    1.3811   24.9242 C   0  0  0  0  0  0  0  0  0  0  0  0
   12.3261    1.4247   22.7351 C   0  0  0  0  0  0  0  0  0  0  0  0
   11.3794    1.3761   23.7290 C   0  0  0  0  0  0  0  0  0  0  0  0
    9.3070   -3.5340   24.8780 C   0  0  0  0  0  0  0  0  0  0  0  0
    9.3350   -1.0880   23.5010 C   0  0  0  0  0  0  0  0  0  0  0  0
    5.8300    0.9190   18.6970 C   0  0  0  0  0  0  0  0  0  0  0  0
    7.3170   -0.1610   19.8550 C   0  0  0  0  0  0  0  0  0  0  0  0
    4.6890    1.6810   18.4640 C   0  0  0  0  0  0  0  0  0  0  0  0
    3.9160    2.0630   19.5520 C   0  0  0  0  0  0  0  0  0  0  0  0
    4.2750    1.7050   20.8490 C   0  0  0  0  0  0  0  0  0  0  0  0
    5.4210    0.9600   21.0930 C   0  0  0  0  0  0  0  0  0  0  0  0
    9.0420    0.3700   21.5280 C   0  0  0  0  0  0  0  0  0  0  0  0
   10.0771   -5.0255   26.7193 C   0  0  0  0  0  0  0  0  0  0  0  0
    8.0927   -5.6195   25.4071 C   0  0  0  0  0  0  0  0  0  0  0  0
    9.1933   -4.9427   27.9592 C   0  0  0  0  0  0  0  0  0  0  0  0
    7.2756   -5.5290   26.6967 C   0  0  0  0  0  0  0  0  0  0  0  0
   14.8305    1.5084   22.7418 C   0  0  0  0  0  0  0  0  0  0  0  0
    9.8870    1.3260   23.5730 C   0  0  0  0  0  0  0  0  0  0  0  0
   13.4410    1.4289   24.7112 N   0  0  0  0  0  0  0  0  0  0  0  0
    6.7580    0.3810   17.8350 N   0  0  0  0  0  0  0  0  0  0  0  0
    7.6390   -0.2680   18.5410 N   0  0  0  0  0  0  0  0  0  0  0  0
   13.5326    1.4543   23.3707 N   0  0  0  0  0  0  0  0  0  0  0  0
    6.1790    0.5730   19.9990 N   0  0  0  0  0  0  0  0  0  0  0  0
    9.2563   -4.7368   25.5413 N   0  0  0  0  0  0  0  0  0  0  0  0
    8.1890   -0.7180   20.8700 N   0  0  0  0  0  0  0  0  0  0  0  0
    9.4560    0.1560   22.8130 N   0  0  0  0  0  0  0  0  0  0  0  0
    9.2690    1.4140   20.9380 O   0  0  0  0  0  0  0  0  0  0  0  0
    8.0883   -5.8459   27.8325 O   0  0  0  0  0  0  0  0  0  0  0  0
    8.6905   -2.3533   26.5810 H   0  0  0  0  0  0  0  0  0  0  0  0
    9.9266   -4.3896   22.9917 H   0  0  0  0  0  0  0  0  0  0  0  0
    8.9233   -0.1992   25.4232 H   0  0  0  0  0  0  0  0  0  0  0  0
   10.0650   -2.2330   21.8256 H   0  0  0  0  0  0  0  0  0  0  0  0
   11.7624    1.3510   25.9426 H   0  0  0  0  0  0  0  0  0  0  0  0
   12.2462    1.4390   21.6566 H   0  0  0  0  0  0  0  0  0  0  0  0
    4.3967    1.9772   17.4718 H   0  0  0  0  0  0  0  0  0  0  0  0
    3.0218    2.6486   19.3697 H   0  0  0  0  0  0  0  0  0  0  0  0
    3.6566    2.0043   21.7065 H   0  0  0  0  0  0  0  0  0  0  0  0
    5.7190    0.6877   22.0810 H   0  0  0  0  0  0  0  0  0  0  0  0
   10.8985   -4.3115   26.8085 H   0  0  0  0  0  0  0  0  0  0  0  0
   10.4915   -6.0334   26.6323 H   0  0  0  0  0  0  0  0  0  0  0  0
    8.4327   -6.6456   25.2620 H   0  0  0  0  0  0  0  0  0  0  0  0
    7.4725   -5.3241   24.5619 H   0  0  0  0  0  0  0  0  0  0  0  0
    9.7636   -5.2398   28.8419 H   0  0  0  0  0  0  0  0  0  0  0  0
    8.8236   -3.9268   28.1248 H   0  0  0  0  0  0  0  0  0  0  0  0
    6.8339   -4.5337   26.8232 H   0  0  0  0  0  0  0  0  0  0  0  0
    6.4550   -6.2521   26.6643 H   0  0  0  0  0  0  0  0  0  0  0  0
   15.0990    2.5601   22.6124 H   0  0  0  0  0  0  0  0  0  0  0  0
   15.5636    1.0018   23.3756 H   0  0  0  0  0  0  0  0  0  0  0  0
   14.7841    1.0025   21.7733 H   0  0  0  0  0  0  0  0  0  0  0  0
    9.3974    1.2912   24.5523 H   0  0  0  0  0  0  0  0  0  0  0  0
    9.5159    2.2168   23.0553 H   0  0  0  0  0  0  0  0  0  0  0  0
    8.2565   -1.5523   21.1108 H   0  0  0  0  0  0  0  0  0  0  0  0
  1  3  2  0  0  0  0
  1  8  1  0  0  0  0
  2  4  1  0  0  0  0
  2  8  2  0  0  0  0
  3  9  1  0  0  0  0
  4  9  2  0  0  0  0
  5  7  1  0  0  0  0
  5 23  2  0  0  0  0
  6  7  2  0  0  0  0
  6 26  1  0  0  0  0
  7 22  1  0  0  0  0
  8 28  1  0  0  0  0
  9 30  1  0  0  0  0
 10 12  1  0  0  0  0
 10 24  2  0  0  0  0
 10 27  1  0  0  0  0
 11 25  2  0  0  0  0
 11 27  1  0  0  0  0
 11 29  1  0  0  0  0
 12 13  2  0  0  0  0
 13 14  1  0  0  0  0
 14 15  2  0  0  0  0
 15 27  1  0  0  0  0
 16 29  1  0  0  0  0
 16 30  1  0  0  0  0
 16 31  2  0  0  0  0
 17 19  1  0  0  0  0
 17 28  1  0  0  0  0
 18 20  1  0  0  0  0
 18 28  1  0  0  0  0
 19 32  1  0  0  0  0
 20 32  1  0  0  0  0
 21 26  1  0  0  0  0
 22 30  1  0  0  0  0
 23 26  1  0  0  0  0
 24 25  1  0  0  0  0
  1 33  1  0  0  0  0
  2 34  1  0  0  0  0
  3 35  1  0  0  0  0
  4 36  1  0  0  0  0
  5 37  1  0  0  0  0
  6 38  1  0  0  0  0
 12 39  1  0  0  0  0
 13 40  1  0  0  0  0
 14 41  1  0  0  0  0
 15 42  1  0  0  0  0
 17 43  1  0  0  0  0
 17 44  1  0  0  0  0
 18 45  1  0  0  0  0
 18 46  1  0  0  0  0
 19 47  1  0  0  0  0
 19 48  1  0  0  0  0
 20 49  1  0  0  0  0
 20 50  1  0  0  0  0
 21 51  1  0  0  0  0
 21 52  1  0  0  0  0
 21 53  1  0  0  0  0
 22 54  1  0  0  0  0
 22 55  1  0  0  0  0
 29 56  1  0  0  0  0
M  END
> <clash_score>
0

> <docking_score>
-8.6959810256958

$$$$
BENZO_336_1
  -OEChem-08212023203D

 49 52  0     0  0  0  0  0  0999 V2000
    3.9160    2.0630   19.5520 C   0  0  0  0  0  0  0  0  0  0  0  0
    4.2750    1.7050   20.8490 C   0  0  0  0  0  0  0  0  0  0  0  0
    4.6890    1.6810   18.4640 C   0  0  0  0  0  0  0  0  0  0  0  0
    5.4210    0.9600   21.0930 C   0  0  0  0  0  0  0  0  0  0  0  0
    9.0720   -1.1280   24.8640 C   0  0  0  0  0  0  0  0  0  0  0  0
    9.7200   -2.2600   22.8630 C   0  0  0  0  0  0  0  0  0  0  0  0
    8.9960   -2.3380   25.5320 C   0  0  0  0  0  0  0  0  0  0  0  0
    9.6730   -3.4710   23.5300 C   0  0  0  0  0  0  0  0  0  0  0  0
   12.2913    1.4279   22.6355 C   0  0  0  0  0  0  0  0  0  0  0  0
   13.6024    1.4662   23.0564 C   0  0  0  0  0  0  0  0  0  0  0  0
   12.0284    1.3764   24.9443 C   0  0  0  0  0  0  0  0  0  0  0  0
   11.3794    1.3761   23.7290 C   0  0  0  0  0  0  0  0  0  0  0  0
    5.8300    0.9190   18.6970 C   0  0  0  0  0  0  0  0  0  0  0  0
    6.1790    0.5730   19.9990 C   0  0  0  0  0  0  0  0  0  0  0  0
    9.3350   -1.0880   23.5010 C   0  0  0  0  0  0  0  0  0  0  0  0
    9.3070   -3.5340   24.8780 C   0  0  0  0  0  0  0  0  0  0  0  0
    9.0420    0.3700   21.5280 C   0  0  0  0  0  0  0  0  0  0  0  0
    8.0128   -5.2151   26.1416 C   0  0  0  0  0  0  0  0  0  0  0  0
   10.4372   -5.5860   25.6589 C   0  0  0  0  0  0  0  0  0  0  0  0
    9.8870    1.3260   23.5730 C   0  0  0  0  0  0  0  0  0  0  0  0
    8.1890   -0.7180   20.8700 C   0  0  0  0  0  0  0  0  0  0  0  0
    6.7580    0.3810   17.8350 N   0  0  0  0  0  0  0  0  0  0  0  0
    7.6390   -0.2680   18.5410 N   0  0  0  0  0  0  0  0  0  0  0  0
    7.3170   -0.1610   19.8550 N   0  0  0  0  0  0  0  0  0  0  0  0
    9.4560    0.1560   22.8130 N   0  0  0  0  0  0  0  0  0  0  0  0
    9.2543   -4.7552   25.5519 N   0  0  0  0  0  0  0  0  0  0  0  0
    9.2690    1.4140   20.9380 O   0  0  0  0  0  0  0  0  0  0  0  0
   13.7301    1.4394   24.7638 S   0  0  0  0  0  0  0  0  0  0  0  0
    3.0136    2.6524   19.3909 H   0  0  0  0  0  0  0  0  0  0  0  0
    3.6477    2.0141   21.6817 H   0  0  0  0  0  0  0  0  0  0  0  0
    4.4041    1.9739   17.4524 H   0  0  0  0  0  0  0  0  0  0  0  0
    5.7107    0.6909   22.1141 H   0  0  0  0  0  0  0  0  0  0  0  0
    8.9217   -0.1995   25.4232 H   0  0  0  0  0  0  0  0  0  0  0  0
   10.0643   -2.2341   21.8254 H   0  0  0  0  0  0  0  0  0  0  0  0
    8.6893   -2.3540   26.5808 H   0  0  0  0  0  0  0  0  0  0  0  0
    9.9257   -4.3898   22.9921 H   0  0  0  0  0  0  0  0  0  0  0  0
   12.0045    1.4365   21.5915 H   0  0  0  0  0  0  0  0  0  0  0  0
   14.4914    1.5078   22.4431 H   0  0  0  0  0  0  0  0  0  0  0  0
   11.5886    1.3416   25.9314 H   0  0  0  0  0  0  0  0  0  0  0  0
    8.1744   -6.1904   26.6238 H   0  0  0  0  0  0  0  0  0  0  0  0
    7.6718   -4.4870   26.8924 H   0  0  0  0  0  0  0  0  0  0  0  0
    7.2494   -5.3166   25.3561 H   0  0  0  0  0  0  0  0  0  0  0  0
   10.1946   -6.4995   26.2216 H   0  0  0  0  0  0  0  0  0  0  0  0
   10.7865   -5.8578   24.6518 H   0  0  0  0  0  0  0  0  0  0  0  0
   11.2285   -5.0312   26.1842 H   0  0  0  0  0  0  0  0  0  0  0  0
    9.3974    1.2912   24.5523 H   0  0  0  0  0  0  0  0  0  0  0  0
    9.5159    2.2168   23.0554 H   0  0  0  0  0  0  0  0  0  0  0  0
    8.8255   -1.4531   20.3835 H   0  0  0  0  0  0  0  0  0  0  0  0
    7.5533   -1.1948   21.6123 H   0  0  0  0  0  0  0  0  0  0  0  0
  1  2  1  0  0  0  0
  1  3  2  0  0  0  0
  2  4  2  0  0  0  0
  3 13  1  0  0  0  0
  4 14  1  0  0  0  0
  5  7  2  0  0  0  0
  5 15  1  0  0  0  0
  6  8  1  0  0  0  0
  6 15  2  0  0  0  0
  7 16  1  0  0  0  0
  8 16  2  0  0  0  0
  9 10  2  0  0  0  0
  9 12  1  0  0  0  0
 10 28  1  0  0  0  0
 11 12  2  0  0  0  0
 11 28  1  0  0  0  0
 12 20  1  0  0  0  0
 13 14  2  0  0  0  0
 13 22  1  0  0  0  0
 14 24  1  0  0  0  0
 15 25  1  0  0  0  0
 16 26  1  0  0  0  0
 17 21  1  0  0  0  0
 17 25  1  0  0  0  0
 17 27  2  0  0  0  0
 18 26  1  0  0  0  0
 19 26  1  0  0  0  0
 20 25  1  0  0  0  0
 21 24  1  0  0  0  0
 22 23  2  0  0  0  0
 23 24  1  0  0  0  0
  1 29  1  0  0  0  0
  2 30  1  0  0  0  0
  3 31  1  0  0  0  0
  4 32  1  0  0  0  0
  5 33  1  0  0  0  0
  6 34  1  0  0  0  0
  7 35  1  0  0  0  0
  8 36  1  0  0  0  0
  9 37  1  0  0  0  0
 10 38  1  0  0  0  0
 11 39  1  0  0  0  0
 18 40  1  0  0  0  0
 18 41  1  0  0  0  0
 18 42  1  0  0  0  0
 19 43  1  0  0  0  0
 19 44  1  0  0  0  0
 19 45  1  0  0  0  0
 20 46  1  0  0  0  0
 20 47  1  0  0  0  0
 21 48  1  0  0  0  0
 21 49  1  0  0  0  0
M  END
> <clash_score>
0

> <docking_score>
-10.08048152923584

$$$$
BENZO_337_1
  -OEChem-08212023213D

 52 55  0     0  0  0  0  0  0999 V2000
   14.1526    1.4694   24.0176 C   0  0  0  0  0  0  0  0  0  0  0  0
   13.3741    0.8121   24.9701 C   0  0  0  0  0  0  0  0  0  0  0  0
   13.5446    2.0802   22.9208 C   0  0  0  0  0  0  0  0  0  0  0  0
    3.9160    2.0630   19.5520 C   0  0  0  0  0  0  0  0  0  0  0  0
    4.2750    1.7050   20.8490 C   0  0  0  0  0  0  0  0  0  0  0  0
   11.9875    0.7654   24.8258 C   0  0  0  0  0  0  0  0  0  0  0  0
   12.1580    2.0335   22.7765 C   0  0  0  0  0  0  0  0  0  0  0  0
    4.6890    1.6810   18.4640 C   0  0  0  0  0  0  0  0  0  0  0  0
    5.4210    0.9600   21.0930 C   0  0  0  0  0  0  0  0  0  0  0  0
    9.0720   -1.1280   24.8640 C   0  0  0  0  0  0  0  0  0  0  0  0
    9.7200   -2.2600   22.8630 C   0  0  0  0  0  0  0  0  0  0  0  0
    8.9960   -2.3380   25.5320 C   0  0  0  0  0  0  0  0  0  0  0  0
    9.6730   -3.4710   23.5300 C   0  0  0  0  0  0  0  0  0  0  0  0
   11.3794    1.3761   23.7290 C   0  0  0  0  0  0  0  0  0  0  0  0
    5.8300    0.9190   18.6970 C   0  0  0  0  0  0  0  0  0  0  0  0
    6.1790    0.5730   19.9990 C   0  0  0  0  0  0  0  0  0  0  0  0
    9.3350   -1.0880   23.5010 C   0  0  0  0  0  0  0  0  0  0  0  0
    9.3070   -3.5340   24.8780 C   0  0  0  0  0  0  0  0  0  0  0  0
    9.0420    0.3700   21.5280 C   0  0  0  0  0  0  0  0  0  0  0  0
    8.0128   -5.2151   26.1416 C   0  0  0  0  0  0  0  0  0  0  0  0
   10.4372   -5.5860   25.6589 C   0  0  0  0  0  0  0  0  0  0  0  0
    9.8870    1.3260   23.5730 C   0  0  0  0  0  0  0  0  0  0  0  0
    8.1890   -0.7180   20.8700 C   0  0  0  0  0  0  0  0  0  0  0  0
    6.7580    0.3810   17.8350 N   0  0  0  0  0  0  0  0  0  0  0  0
    7.6390   -0.2680   18.5410 N   0  0  0  0  0  0  0  0  0  0  0  0
    7.3170   -0.1610   19.8550 N   0  0  0  0  0  0  0  0  0  0  0  0
    9.4560    0.1560   22.8130 N   0  0  0  0  0  0  0  0  0  0  0  0
    9.2543   -4.7552   25.5519 N   0  0  0  0  0  0  0  0  0  0  0  0
    9.2690    1.4140   20.9380 O   0  0  0  0  0  0  0  0  0  0  0  0
   15.2322    1.5068   24.1308 H   0  0  0  0  0  0  0  0  0  0  0  0
   13.8473    0.3374   25.8248 H   0  0  0  0  0  0  0  0  0  0  0  0
   14.1503    2.5930   22.1795 H   0  0  0  0  0  0  0  0  0  0  0  0
    3.0136    2.6524   19.3909 H   0  0  0  0  0  0  0  0  0  0  0  0
    3.6477    2.0141   21.6817 H   0  0  0  0  0  0  0  0  0  0  0  0
   11.3889    0.2508   25.5729 H   0  0  0  0  0  0  0  0  0  0  0  0
   11.6930    2.5120   21.9187 H   0  0  0  0  0  0  0  0  0  0  0  0
    4.4041    1.9739   17.4524 H   0  0  0  0  0  0  0  0  0  0  0  0
    5.7107    0.6909   22.1141 H   0  0  0  0  0  0  0  0  0  0  0  0
    8.9217   -0.1995   25.4232 H   0  0  0  0  0  0  0  0  0  0  0  0
   10.0643   -2.2341   21.8254 H   0  0  0  0  0  0  0  0  0  0  0  0
    8.6893   -2.3540   26.5808 H   0  0  0  0  0  0  0  0  0  0  0  0
    9.9257   -4.3898   22.9921 H   0  0  0  0  0  0  0  0  0  0  0  0
    8.1744   -6.1904   26.6238 H   0  0  0  0  0  0  0  0  0  0  0  0
    7.6718   -4.4870   26.8924 H   0  0  0  0  0  0  0  0  0  0  0  0
    7.2494   -5.3166   25.3561 H   0  0  0  0  0  0  0  0  0  0  0  0
   10.1946   -6.4995   26.2216 H   0  0  0  0  0  0  0  0  0  0  0  0
   10.7865   -5.8578   24.6518 H   0  0  0  0  0  0  0  0  0  0  0  0
   11.2285   -5.0312   26.1842 H   0  0  0  0  0  0  0  0  0  0  0  0
    9.3974    1.2912   24.5523 H   0  0  0  0  0  0  0  0  0  0  0  0
    9.5159    2.2168   23.0554 H   0  0  0  0  0  0  0  0  0  0  0  0
    8.8255   -1.4531   20.3835 H   0  0  0  0  0  0  0  0  0  0  0  0
    7.5533   -1.1948   21.6123 H   0  0  0  0  0  0  0  0  0  0  0  0
  1  2  1  0  0  0  0
  1  3  2  0  0  0  0
  2  6  2  0  0  0  0
  3  7  1  0  0  0  0
  4  5  1  0  0  0  0
  4  8  2  0  0  0  0
  5  9  2  0  0  0  0
  6 14  1  0  0  0  0
  7 14  2  0  0  0  0
  8 15  1  0  0  0  0
  9 16  1  0  0  0  0
 10 12  2  0  0  0  0
 10 17  1  0  0  0  0
 11 13  1  0  0  0  0
 11 17  2  0  0  0  0
 12 18  1  0  0  0  0
 13 18  2  0  0  0  0
 14 22  1  0  0  0  0
 15 16  2  0  0  0  0
 15 24  1  0  0  0  0
 16 26  1  0  0  0  0
 17 27  1  0  0  0  0
 18 28  1  0  0  0  0
 19 23  1  0  0  0  0
 19 27  1  0  0  0  0
 19 29  2  0  0  0  0
 20 28  1  0  0  0  0
 21 28  1  0  0  0  0
 22 27  1  0  0  0  0
 23 26  1  0  0  0  0
 24 25  2  0  0  0  0
 25 26  1  0  0  0  0
  1 30  1  0  0  0  0
  2 31  1  0  0  0  0
  3 32  1  0  0  0  0
  4 33  1  0  0  0  0
  5 34  1  0  0  0  0
  6 35  1  0  0  0  0
  7 36  1  0  0  0  0
  8 37  1  0  0  0  0
  9 38  1  0  0  0  0
 10 39  1  0  0  0  0
 11 40  1  0  0  0  0
 12 41  1  0  0  0  0
 13 42  1  0  0  0  0
 20 43  1  0  0  0  0
 20 44  1  0  0  0  0
 20 45  1  0  0  0  0
 21 46  1  0  0  0  0
 21 47  1  0  0  0  0
 21 48  1  0  0  0  0
 22 49  1  0  0  0  0
 22 50  1  0  0  0  0
 23 51  1  0  0  0  0
 23 52  1  0  0  0  0
M  END
> <clash_score>
0

> <docking_score>
-10.001619338989258

$$$$
BENZO_338_1
  -OEChem-08212023213D

 52 55  0     0  0  0  0  0  0999 V2000
    3.9160    2.0630   19.5520 C   0  0  0  0  0  0  0  0  0  0  0  0
    4.2750    1.7050   20.8490 C   0  0  0  0  0  0  0  0  0  0  0  0
    6.4089    2.0844   24.8766 C   0  0  0  0  0  0  0  0  0  0  0  0
    7.4847    1.4191   24.2887 C   0  0  0  0  0  0  0  0  0  0  0  0
    4.6890    1.6810   18.4640 C   0  0  0  0  0  0  0  0  0  0  0  0
    5.4210    0.9600   21.0930 C   0  0  0  0  0  0  0  0  0  0  0  0
    9.0720   -1.1280   24.8640 C   0  0  0  0  0  0  0  0  0  0  0  0
    9.7200   -2.2600   22.8630 C   0  0  0  0  0  0  0  0  0  0  0  0
    8.9960   -2.3380   25.5320 C   0  0  0  0  0  0  0  0  0  0  0  0
    9.6730   -3.4710   23.5300 C   0  0  0  0  0  0  0  0  0  0  0  0
    6.5777    3.3741   25.3805 C   0  0  0  0  0  0  0  0  0  0  0  0
    8.8980    3.3330   24.7088 C   0  0  0  0  0  0  0  0  0  0  0  0
    8.7292    2.0433   24.2048 C   0  0  0  0  0  0  0  0  0  0  0  0
    5.8300    0.9190   18.6970 C   0  0  0  0  0  0  0  0  0  0  0  0
    6.1790    0.5730   19.9990 C   0  0  0  0  0  0  0  0  0  0  0  0
    9.3350   -1.0880   23.5010 C   0  0  0  0  0  0  0  0  0  0  0  0
    9.3070   -3.5340   24.8780 C   0  0  0  0  0  0  0  0  0  0  0  0
    7.8222    3.9984   25.2966 C   0  0  0  0  0  0  0  0  0  0  0  0
    9.0420    0.3700   21.5280 C   0  0  0  0  0  0  0  0  0  0  0  0
    8.0128   -5.2151   26.1416 C   0  0  0  0  0  0  0  0  0  0  0  0
   10.4372   -5.5860   25.6589 C   0  0  0  0  0  0  0  0  0  0  0  0
    9.8870    1.3260   23.5730 C   0  0  0  0  0  0  0  0  0  0  0  0
    8.1890   -0.7180   20.8700 C   0  0  0  0  0  0  0  0  0  0  0  0
    6.7580    0.3810   17.8350 N   0  0  0  0  0  0  0  0  0  0  0  0
    7.6390   -0.2680   18.5410 N   0  0  0  0  0  0  0  0  0  0  0  0
    7.3170   -0.1610   19.8550 N   0  0  0  0  0  0  0  0  0  0  0  0
    9.4560    0.1560   22.8130 N   0  0  0  0  0  0  0  0  0  0  0  0
    9.2543   -4.7552   25.5519 N   0  0  0  0  0  0  0  0  0  0  0  0
    9.2690    1.4140   20.9380 O   0  0  0  0  0  0  0  0  0  0  0  0
    8.0301    5.5891   25.9196 Cl  0  0  0  0  0  0  0  0  0  0  0  0
    3.0136    2.6524   19.3909 H   0  0  0  0  0  0  0  0  0  0  0  0
    3.6477    2.0141   21.6817 H   0  0  0  0  0  0  0  0  0  0  0  0
    5.4400    1.5979   24.9418 H   0  0  0  0  0  0  0  0  0  0  0  0
    7.3441    0.4143   23.8988 H   0  0  0  0  0  0  0  0  0  0  0  0
    4.4041    1.9739   17.4524 H   0  0  0  0  0  0  0  0  0  0  0  0
    5.7107    0.6909   22.1141 H   0  0  0  0  0  0  0  0  0  0  0  0
    8.9217   -0.1995   25.4232 H   0  0  0  0  0  0  0  0  0  0  0  0
   10.0643   -2.2341   21.8254 H   0  0  0  0  0  0  0  0  0  0  0  0
    8.6893   -2.3540   26.5808 H   0  0  0  0  0  0  0  0  0  0  0  0
    9.9257   -4.3898   22.9921 H   0  0  0  0  0  0  0  0  0  0  0  0
    5.7304    3.8806   25.8363 H   0  0  0  0  0  0  0  0  0  0  0  0
    9.8702    3.8156   24.6405 H   0  0  0  0  0  0  0  0  0  0  0  0
    8.1744   -6.1904   26.6238 H   0  0  0  0  0  0  0  0  0  0  0  0
    7.6718   -4.4870   26.8924 H   0  0  0  0  0  0  0  0  0  0  0  0
    7.2494   -5.3166   25.3561 H   0  0  0  0  0  0  0  0  0  0  0  0
   10.1946   -6.4995   26.2216 H   0  0  0  0  0  0  0  0  0  0  0  0
   10.7865   -5.8578   24.6518 H   0  0  0  0  0  0  0  0  0  0  0  0
   11.2285   -5.0312   26.1842 H   0  0  0  0  0  0  0  0  0  0  0  0
   10.4274    1.9911   22.8906 H   0  0  0  0  0  0  0  0  0  0  0  0
   10.6011    0.9882   24.3313 H   0  0  0  0  0  0  0  0  0  0  0  0
    8.8255   -1.4531   20.3835 H   0  0  0  0  0  0  0  0  0  0  0  0
    7.5533   -1.1948   21.6123 H   0  0  0  0  0  0  0  0  0  0  0  0
  1  2  1  0  0  0  0
  1  5  2  0  0  0  0
  2  6  2  0  0  0  0
  3  4  2  0  0  0  0
  3 11  1  0  0  0  0
  4 13  1  0  0  0  0
  5 14  1  0  0  0  0
  6 15  1  0  0  0  0
  7  9  2  0  0  0  0
  7 16  1  0  0  0  0
  8 10  1  0  0  0  0
  8 16  2  0  0  0  0
  9 17  1  0  0  0  0
 10 17  2  0  0  0  0
 11 18  2  0  0  0  0
 12 13  2  0  0  0  0
 12 18  1  0  0  0  0
 13 22  1  0  0  0  0
 14 15  2  0  0  0  0
 14 24  1  0  0  0  0
 15 26  1  0  0  0  0
 16 27  1  0  0  0  0
 17 28  1  0  0  0  0
 18 30  1  0  0  0  0
 19 23  1  0  0  0  0
 19 27  1  0  0  0  0
 19 29  2  0  0  0  0
 20 28  1  0  0  0  0
 21 28  1  0  0  0  0
 22 27  1  0  0  0  0
 23 26  1  0  0  0  0
 24 25  2  0  0  0  0
 25 26  1  0  0  0  0
  1 31  1  0  0  0  0
  2 32  1  0  0  0  0
  3 33  1  0  0  0  0
  4 34  1  0  0  0  0
  5 35  1  0  0  0  0
  6 36  1  0  0  0  0
  7 37  1  0  0  0  0
  8 38  1  0  0  0  0
  9 39  1  0  0  0  0
 10 40  1  0  0  0  0
 11 41  1  0  0  0  0
 12 42  1  0  0  0  0
 20 43  1  0  0  0  0
 20 44  1  0  0  0  0
 20 45  1  0  0  0  0
 21 46  1  0  0  0  0
 21 47  1  0  0  0  0
 21 48  1  0  0  0  0
 22 49  1  0  0  0  0
 22 50  1  0  0  0  0
 23 51  1  0  0  0  0
 23 52  1  0  0  0  0
M  END
> <clash_score>
0

> <docking_score>
-9.387636184692383

$$$$
BENZO_339_1
  -OEChem-08212023213D

 52 55  0     0  0  0  0  0  0999 V2000
    3.9160    2.0630   19.5520 C   0  0  0  0  0  0  0  0  0  0  0  0
    4.2750    1.7050   20.8490 C   0  0  0  0  0  0  0  0  0  0  0  0
    4.6890    1.6810   18.4640 C   0  0  0  0  0  0  0  0  0  0  0  0
    5.4210    0.9600   21.0930 C   0  0  0  0  0  0  0  0  0  0  0  0
    9.0720   -1.1280   24.8640 C   0  0  0  0  0  0  0  0  0  0  0  0
    9.7200   -2.2600   22.8630 C   0  0  0  0  0  0  0  0  0  0  0  0
    8.9960   -2.3380   25.5320 C   0  0  0  0  0  0  0  0  0  0  0  0
    9.6730   -3.4710   23.5300 C   0  0  0  0  0  0  0  0  0  0  0  0
   12.1233    1.3811   24.9242 C   0  0  0  0  0  0  0  0  0  0  0  0
   12.3262    1.4247   22.7351 C   0  0  0  0  0  0  0  0  0  0  0  0
   11.3794    1.3761   23.7290 C   0  0  0  0  0  0  0  0  0  0  0  0
    5.8300    0.9190   18.6970 C   0  0  0  0  0  0  0  0  0  0  0  0
    6.1790    0.5730   19.9990 C   0  0  0  0  0  0  0  0  0  0  0  0
    9.3350   -1.0880   23.5010 C   0  0  0  0  0  0  0  0  0  0  0  0
    9.3070   -3.5340   24.8780 C   0  0  0  0  0  0  0  0  0  0  0  0
    9.0420    0.3700   21.5280 C   0  0  0  0  0  0  0  0  0  0  0  0
   14.8305    1.5084   22.7418 C   0  0  0  0  0  0  0  0  0  0  0  0
    8.0128   -5.2151   26.1416 C   0  0  0  0  0  0  0  0  0  0  0  0
   10.4372   -5.5860   25.6589 C   0  0  0  0  0  0  0  0  0  0  0  0
    9.8870    1.3260   23.5730 C   0  0  0  0  0  0  0  0  0  0  0  0
    8.1890   -0.7180   20.8700 C   0  0  0  0  0  0  0  0  0  0  0  0
   13.4410    1.4289   24.7112 N   0  0  0  0  0  0  0  0  0  0  0  0
    6.7580    0.3810   17.8350 N   0  0  0  0  0  0  0  0  0  0  0  0
    7.6390   -0.2680   18.5410 N   0  0  0  0  0  0  0  0  0  0  0  0
   13.5326    1.4543   23.3706 N   0  0  0  0  0  0  0  0  0  0  0  0
    7.3170   -0.1610   19.8550 N   0  0  0  0  0  0  0  0  0  0  0  0
    9.4560    0.1560   22.8130 N   0  0  0  0  0  0  0  0  0  0  0  0
    9.2543   -4.7552   25.5519 N   0  0  0  0  0  0  0  0  0  0  0  0
    9.2690    1.4140   20.9380 O   0  0  0  0  0  0  0  0  0  0  0  0
    3.0136    2.6524   19.3909 H   0  0  0  0  0  0  0  0  0  0  0  0
    3.6477    2.0141   21.6817 H   0  0  0  0  0  0  0  0  0  0  0  0
    4.4041    1.9739   17.4524 H   0  0  0  0  0  0  0  0  0  0  0  0
    5.7107    0.6909   22.1141 H   0  0  0  0  0  0  0  0  0  0  0  0
    8.9217   -0.1995   25.4232 H   0  0  0  0  0  0  0  0  0  0  0  0
   10.0643   -2.2341   21.8254 H   0  0  0  0  0  0  0  0  0  0  0  0
    8.6893   -2.3540   26.5808 H   0  0  0  0  0  0  0  0  0  0  0  0
    9.9257   -4.3898   22.9921 H   0  0  0  0  0  0  0  0  0  0  0  0
   11.7624    1.3510   25.9426 H   0  0  0  0  0  0  0  0  0  0  0  0
   12.2462    1.4390   21.6566 H   0  0  0  0  0  0  0  0  0  0  0  0
   15.0990    2.5601   22.6124 H   0  0  0  0  0  0  0  0  0  0  0  0
   15.5636    1.0018   23.3756 H   0  0  0  0  0  0  0  0  0  0  0  0
   14.7841    1.0025   21.7733 H   0  0  0  0  0  0  0  0  0  0  0  0
    8.1744   -6.1904   26.6238 H   0  0  0  0  0  0  0  0  0  0  0  0
    7.6718   -4.4870   26.8924 H   0  0  0  0  0  0  0  0  0  0  0  0
    7.2494   -5.3166   25.3561 H   0  0  0  0  0  0  0  0  0  0  0  0
   10.1946   -6.4995   26.2216 H   0  0  0  0  0  0  0  0  0  0  0  0
   10.7865   -5.8578   24.6518 H   0  0  0  0  0  0  0  0  0  0  0  0
   11.2285   -5.0312   26.1842 H   0  0  0  0  0  0  0  0  0  0  0  0
    9.3974    1.2912   24.5523 H   0  0  0  0  0  0  0  0  0  0  0  0
    9.5159    2.2168   23.0554 H   0  0  0  0  0  0  0  0  0  0  0  0
    8.8255   -1.4531   20.3835 H   0  0  0  0  0  0  0  0  0  0  0  0
    7.5533   -1.1948   21.6123 H   0  0  0  0  0  0  0  0  0  0  0  0
  1  2  1  0  0  0  0
  1  3  2  0  0  0  0
  2  4  2  0  0  0  0
  3 12  1  0  0  0  0
  4 13  1  0  0  0  0
  5  7  2  0  0  0  0
  5 14  1  0  0  0  0
  6  8  1  0  0  0  0
  6 14  2  0  0  0  0
  7 15  1  0  0  0  0
  8 15  2  0  0  0  0
  9 11  1  0  0  0  0
  9 22  2  0  0  0  0
 10 11  2  0  0  0  0
 10 25  1  0  0  0  0
 11 20  1  0  0  0  0
 12 13  2  0  0  0  0
 12 23  1  0  0  0  0
 13 26  1  0  0  0  0
 14 27  1  0  0  0  0
 15 28  1  0  0  0  0
 16 21  1  0  0  0  0
 16 27  1  0  0  0  0
 16 29  2  0  0  0  0
 17 25  1  0  0  0  0
 18 28  1  0  0  0  0
 19 28  1  0  0  0  0
 20 27  1  0  0  0  0
 21 26  1  0  0  0  0
 22 25  1  0  0  0  0
 23 24  2  0  0  0  0
 24 26  1  0  0  0  0
  1 30  1  0  0  0  0
  2 31  1  0  0  0  0
  3 32  1  0  0  0  0
  4 33  1  0  0  0  0
  5 34  1  0  0  0  0
  6 35  1  0  0  0  0
  7 36  1  0  0  0  0
  8 37  1  0  0  0  0
  9 38  1  0  0  0  0
 10 39  1  0  0  0  0
 17 40  1  0  0  0  0
 17 41  1  0  0  0  0
 17 42  1  0  0  0  0
 18 43  1  0  0  0  0
 18 44  1  0  0  0  0
 18 45  1  0  0  0  0
 19 46  1  0  0  0  0
 19 47  1  0  0  0  0
 19 48  1  0  0  0  0
 20 49  1  0  0  0  0
 20 50  1  0  0  0  0
 21 51  1  0  0  0  0
 21 52  1  0  0  0  0
M  END
> <clash_score>
0

> <docking_score>
-9.717759132385254

$$$$
BENZO_341_1
  -OEChem-08212023213D

 54 57  0     0  0  0  0  0  0999 V2000
   14.1526    1.4694   24.0176 C   0  0  0  0  0  0  0  0  0  0  0  0
   13.3741    0.8121   24.9701 C   0  0  0  0  0  0  0  0  0  0  0  0
   13.5446    2.0802   22.9208 C   0  0  0  0  0  0  0  0  0  0  0  0
    3.9160    2.0630   19.5520 C   0  0  0  0  0  0  0  0  0  0  0  0
    4.2750    1.7050   20.8490 C   0  0  0  0  0  0  0  0  0  0  0  0
   11.9875    0.7654   24.8258 C   0  0  0  0  0  0  0  0  0  0  0  0
   12.1580    2.0335   22.7765 C   0  0  0  0  0  0  0  0  0  0  0  0
    4.6890    1.6810   18.4640 C   0  0  0  0  0  0  0  0  0  0  0  0
    5.4210    0.9600   21.0930 C   0  0  0  0  0  0  0  0  0  0  0  0
    8.9960   -2.3380   25.5320 C   0  0  0  0  0  0  0  0  0  0  0  0
    9.6730   -3.4710   23.5300 C   0  0  0  0  0  0  0  0  0  0  0  0
    9.0720   -1.1280   24.8640 C   0  0  0  0  0  0  0  0  0  0  0  0
    9.7200   -2.2600   22.8630 C   0  0  0  0  0  0  0  0  0  0  0  0
   11.3794    1.3761   23.7290 C   0  0  0  0  0  0  0  0  0  0  0  0
    5.8300    0.9190   18.6970 C   0  0  0  0  0  0  0  0  0  0  0  0
    6.1790    0.5730   19.9990 C   0  0  0  0  0  0  0  0  0  0  0  0
    9.3070   -3.5340   24.8780 C   0  0  0  0  0  0  0  0  0  0  0  0
    9.3350   -1.0880   23.5010 C   0  0  0  0  0  0  0  0  0  0  0  0
    9.5334   -6.0236   25.0414 C   0  0  0  0  0  0  0  0  0  0  0  0
    9.0420    0.3700   21.5280 C   0  0  0  0  0  0  0  0  0  0  0  0
   10.6330   -7.3746   26.8775 C   0  0  0  0  0  0  0  0  0  0  0  0
    9.8870    1.3260   23.5730 C   0  0  0  0  0  0  0  0  0  0  0  0
    9.3522   -7.0865   26.1149 C   0  0  0  0  0  0  0  0  0  0  0  0
    8.1890   -0.7180   20.8700 C   0  0  0  0  0  0  0  0  0  0  0  0
    6.7580    0.3810   17.8350 N   0  0  0  0  0  0  0  0  0  0  0  0
    7.6390   -0.2680   18.5410 N   0  0  0  0  0  0  0  0  0  0  0  0
    7.3170   -0.1610   19.8550 N   0  0  0  0  0  0  0  0  0  0  0  0
    9.2546   -4.7422   25.5438 N   0  0  0  0  0  0  0  0  0  0  0  0
    9.4560    0.1560   22.8130 N   0  0  0  0  0  0  0  0  0  0  0  0
    9.8805   -6.3053   23.8992 O   0  0  0  0  0  0  0  0  0  0  0  0
    9.2690    1.4140   20.9380 O   0  0  0  0  0  0  0  0  0  0  0  0
   15.2322    1.5068   24.1308 H   0  0  0  0  0  0  0  0  0  0  0  0
   13.8473    0.3374   25.8248 H   0  0  0  0  0  0  0  0  0  0  0  0
   14.1503    2.5930   22.1795 H   0  0  0  0  0  0  0  0  0  0  0  0
    3.0136    2.6524   19.3909 H   0  0  0  0  0  0  0  0  0  0  0  0
    3.6477    2.0141   21.6817 H   0  0  0  0  0  0  0  0  0  0  0  0
   11.3889    0.2508   25.5729 H   0  0  0  0  0  0  0  0  0  0  0  0
   11.6930    2.5120   21.9187 H   0  0  0  0  0  0  0  0  0  0  0  0
    4.4041    1.9739   17.4524 H   0  0  0  0  0  0  0  0  0  0  0  0
    5.7107    0.6909   22.1141 H   0  0  0  0  0  0  0  0  0  0  0  0
    8.6895   -2.3529   26.5807 H   0  0  0  0  0  0  0  0  0  0  0  0
    9.9262   -4.3897   22.9916 H   0  0  0  0  0  0  0  0  0  0  0  0
    8.9224   -0.1998   25.4238 H   0  0  0  0  0  0  0  0  0  0  0  0
   10.0649   -2.2343   21.8258 H   0  0  0  0  0  0  0  0  0  0  0  0
   11.4241   -7.7171   26.2024 H   0  0  0  0  0  0  0  0  0  0  0  0
   10.4629   -8.1530   27.6277 H   0  0  0  0  0  0  0  0  0  0  0  0
   10.9949   -6.4779   27.3911 H   0  0  0  0  0  0  0  0  0  0  0  0
    9.3974    1.2912   24.5523 H   0  0  0  0  0  0  0  0  0  0  0  0
    9.5159    2.2168   23.0554 H   0  0  0  0  0  0  0  0  0  0  0  0
    8.5795   -6.7463   26.8138 H   0  0  0  0  0  0  0  0  0  0  0  0
    8.9965   -8.0064   25.6368 H   0  0  0  0  0  0  0  0  0  0  0  0
    8.8255   -1.4531   20.3835 H   0  0  0  0  0  0  0  0  0  0  0  0
    7.5533   -1.1948   21.6123 H   0  0  0  0  0  0  0  0  0  0  0  0
    8.9776   -4.7057   26.5317 H   0  0  0  0  0  0  0  0  0  0  0  0
  1  2  1  0  0  0  0
  1  3  2  0  0  0  0
  2  6  2  0  0  0  0
  3  7  1  0  0  0  0
  4  5  1  0  0  0  0
  4  8  2  0  0  0  0
  5  9  2  0  0  0  0
  6 14  1  0  0  0  0
  7 14  2  0  0  0  0
  8 15  1  0  0  0  0
  9 16  1  0  0  0  0
 10 12  2  0  0  0  0
 10 17  1  0  0  0  0
 11 13  1  0  0  0  0
 11 17  2  0  0  0  0
 12 18  1  0  0  0  0
 13 18  2  0  0  0  0
 14 22  1  0  0  0  0
 15 16  2  0  0  0  0
 15 25  1  0  0  0  0
 16 27  1  0  0  0  0
 17 28  1  0  0  0  0
 18 29  1  0  0  0  0
 19 23  1  0  0  0  0
 19 28  1  0  0  0  0
 19 30  2  0  0  0  0
 20 24  1  0  0  0  0
 20 29  1  0  0  0  0
 20 31  2  0  0  0  0
 21 23  1  0  0  0  0
 22 29  1  0  0  0  0
 24 27  1  0  0  0  0
 25 26  2  0  0  0  0
 26 27  1  0  0  0  0
  1 32  1  0  0  0  0
  2 33  1  0  0  0  0
  3 34  1  0  0  0  0
  4 35  1  0  0  0  0
  5 36  1  0  0  0  0
  6 37  1  0  0  0  0
  7 38  1  0  0  0  0
  8 39  1  0  0  0  0
  9 40  1  0  0  0  0
 10 41  1  0  0  0  0
 11 42  1  0  0  0  0
 12 43  1  0  0  0  0
 13 44  1  0  0  0  0
 21 45  1  0  0  0  0
 21 46  1  0  0  0  0
 21 47  1  0  0  0  0
 22 48  1  0  0  0  0
 22 49  1  0  0  0  0
 23 50  1  0  0  0  0
 23 51  1  0  0  0  0
 24 52  1  0  0  0  0
 24 53  1  0  0  0  0
 28 54  1  0  0  0  0
M  END
> <clash_score>
1.4986672183376766

> <docking_score>
-6.807344436645508

$$$$
BENZO_343_1
  -OEChem-08212023213D

 54 57  0     0  0  0  0  0  0999 V2000
    3.9160    2.0630   19.5520 C   0  0  0  0  0  0  0  0  0  0  0  0
    4.2750    1.7050   20.8490 C   0  0  0  0  0  0  0  0  0  0  0  0
    4.6890    1.6810   18.4640 C   0  0  0  0  0  0  0  0  0  0  0  0
    5.4210    0.9600   21.0930 C   0  0  0  0  0  0  0  0  0  0  0  0
    8.9960   -2.3380   25.5320 C   0  0  0  0  0  0  0  0  0  0  0  0
    9.6730   -3.4710   23.5300 C   0  0  0  0  0  0  0  0  0  0  0  0
    9.0720   -1.1280   24.8640 C   0  0  0  0  0  0  0  0  0  0  0  0
    9.7200   -2.2600   22.8630 C   0  0  0  0  0  0  0  0  0  0  0  0
   12.1233    1.3811   24.9242 C   0  0  0  0  0  0  0  0  0  0  0  0
   12.3262    1.4247   22.7351 C   0  0  0  0  0  0  0  0  0  0  0  0
   11.3794    1.3761   23.7290 C   0  0  0  0  0  0  0  0  0  0  0  0
    5.8300    0.9190   18.6970 C   0  0  0  0  0  0  0  0  0  0  0  0
    6.1790    0.5730   19.9990 C   0  0  0  0  0  0  0  0  0  0  0  0
    9.3070   -3.5340   24.8780 C   0  0  0  0  0  0  0  0  0  0  0  0
    9.3350   -1.0880   23.5010 C   0  0  0  0  0  0  0  0  0  0  0  0
    9.5334   -6.0236   25.0414 C   0  0  0  0  0  0  0  0  0  0  0  0
    9.0420    0.3700   21.5280 C   0  0  0  0  0  0  0  0  0  0  0  0
   10.6330   -7.3746   26.8775 C   0  0  0  0  0  0  0  0  0  0  0  0
   14.8305    1.5084   22.7418 C   0  0  0  0  0  0  0  0  0  0  0  0
    9.8870    1.3260   23.5730 C   0  0  0  0  0  0  0  0  0  0  0  0
    9.3522   -7.0865   26.1149 C   0  0  0  0  0  0  0  0  0  0  0  0
    8.1890   -0.7180   20.8700 C   0  0  0  0  0  0  0  0  0  0  0  0
   13.4410    1.4289   24.7112 N   0  0  0  0  0  0  0  0  0  0  0  0
    6.7580    0.3810   17.8350 N   0  0  0  0  0  0  0  0  0  0  0  0
    7.6390   -0.2680   18.5410 N   0  0  0  0  0  0  0  0  0  0  0  0
   13.5326    1.4543   23.3706 N   0  0  0  0  0  0  0  0  0  0  0  0
    7.3170   -0.1610   19.8550 N   0  0  0  0  0  0  0  0  0  0  0  0
    9.2546   -4.7422   25.5438 N   0  0  0  0  0  0  0  0  0  0  0  0
    9.4560    0.1560   22.8130 N   0  0  0  0  0  0  0  0  0  0  0  0
    9.8805   -6.3053   23.8992 O   0  0  0  0  0  0  0  0  0  0  0  0
    9.2690    1.4140   20.9380 O   0  0  0  0  0  0  0  0  0  0  0  0
    3.0136    2.6524   19.3909 H   0  0  0  0  0  0  0  0  0  0  0  0
    3.6477    2.0141   21.6817 H   0  0  0  0  0  0  0  0  0  0  0  0
    4.4041    1.9739   17.4524 H   0  0  0  0  0  0  0  0  0  0  0  0
    5.7107    0.6909   22.1141 H   0  0  0  0  0  0  0  0  0  0  0  0
    8.6895   -2.3529   26.5807 H   0  0  0  0  0  0  0  0  0  0  0  0
    9.9262   -4.3897   22.9916 H   0  0  0  0  0  0  0  0  0  0  0  0
    8.9224   -0.1998   25.4238 H   0  0  0  0  0  0  0  0  0  0  0  0
   10.0649   -2.2343   21.8258 H   0  0  0  0  0  0  0  0  0  0  0  0
   11.7624    1.3510   25.9426 H   0  0  0  0  0  0  0  0  0  0  0  0
   12.2462    1.4390   21.6566 H   0  0  0  0  0  0  0  0  0  0  0  0
   11.4241   -7.7171   26.2024 H   0  0  0  0  0  0  0  0  0  0  0  0
   10.4629   -8.1530   27.6277 H   0  0  0  0  0  0  0  0  0  0  0  0
   10.9949   -6.4779   27.3911 H   0  0  0  0  0  0  0  0  0  0  0  0
   15.0990    2.5601   22.6124 H   0  0  0  0  0  0  0  0  0  0  0  0
   15.5636    1.0018   23.3756 H   0  0  0  0  0  0  0  0  0  0  0  0
   14.7841    1.0025   21.7733 H   0  0  0  0  0  0  0  0  0  0  0  0
    9.3974    1.2912   24.5523 H   0  0  0  0  0  0  0  0  0  0  0  0
    9.5159    2.2168   23.0554 H   0  0  0  0  0  0  0  0  0  0  0  0
    8.5795   -6.7463   26.8138 H   0  0  0  0  0  0  0  0  0  0  0  0
    8.9965   -8.0064   25.6368 H   0  0  0  0  0  0  0  0  0  0  0  0
    8.8255   -1.4531   20.3835 H   0  0  0  0  0  0  0  0  0  0  0  0
    7.5533   -1.1948   21.6123 H   0  0  0  0  0  0  0  0  0  0  0  0
    8.9776   -4.7057   26.5317 H   0  0  0  0  0  0  0  0  0  0  0  0
  1  2  1  0  0  0  0
  1  3  2  0  0  0  0
  2  4  2  0  0  0  0
  3 12  1  0  0  0  0
  4 13  1  0  0  0  0
  5  7  2  0  0  0  0
  5 14  1  0  0  0  0
  6  8  1  0  0  0  0
  6 14  2  0  0  0  0
  7 15  1  0  0  0  0
  8 15  2  0  0  0  0
  9 11  1  0  0  0  0
  9 23  2  0  0  0  0
 10 11  2  0  0  0  0
 10 26  1  0  0  0  0
 11 20  1  0  0  0  0
 12 13  2  0  0  0  0
 12 24  1  0  0  0  0
 13 27  1  0  0  0  0
 14 28  1  0  0  0  0
 15 29  1  0  0  0  0
 16 21  1  0  0  0  0
 16 28  1  0  0  0  0
 16 30  2  0  0  0  0
 17 22  1  0  0  0  0
 17 29  1  0  0  0  0
 17 31  2  0  0  0  0
 18 21  1  0  0  0  0
 19 26  1  0  0  0  0
 20 29  1  0  0  0  0
 22 27  1  0  0  0  0
 23 26  1  0  0  0  0
 24 25  2  0  0  0  0
 25 27  1  0  0  0  0
  1 32  1  0  0  0  0
  2 33  1  0  0  0  0
  3 34  1  0  0  0  0
  4 35  1  0  0  0  0
  5 36  1  0  0  0  0
  6 37  1  0  0  0  0
  7 38  1  0  0  0  0
  8 39  1  0  0  0  0
  9 40  1  0  0  0  0
 10 41  1  0  0  0  0
 18 42  1  0  0  0  0
 18 43  1  0  0  0  0
 18 44  1  0  0  0  0
 19 45  1  0  0  0  0
 19 46  1  0  0  0  0
 19 47  1  0  0  0  0
 20 48  1  0  0  0  0
 20 49  1  0  0  0  0
 21 50  1  0  0  0  0
 21 51  1  0  0  0  0
 22 52  1  0  0  0  0
 22 53  1  0  0  0  0
 28 54  1  0  0  0  0
M  END
> <clash_score>
1.4986672183376766

> <docking_score>
-6.523482322692871

$$$$
BENZO_340_1
  -OEChem-08212023213D

 51 54  0     0  0  0  0  0  0999 V2000
    3.9160    2.0630   19.5520 C   0  0  0  0  0  0  0  0  0  0  0  0
    4.2750    1.7050   20.8490 C   0  0  0  0  0  0  0  0  0  0  0  0
    4.6890    1.6810   18.4640 C   0  0  0  0  0  0  0  0  0  0  0  0
    5.4210    0.9600   21.0930 C   0  0  0  0  0  0  0  0  0  0  0  0
    8.9960   -2.3380   25.5320 C   0  0  0  0  0  0  0  0  0  0  0  0
    9.6730   -3.4710   23.5300 C   0  0  0  0  0  0  0  0  0  0  0  0
    9.0720   -1.1280   24.8640 C   0  0  0  0  0  0  0  0  0  0  0  0
    9.7200   -2.2600   22.8630 C   0  0  0  0  0  0  0  0  0  0  0  0
   12.2913    1.4279   22.6355 C   0  0  0  0  0  0  0  0  0  0  0  0
   13.6024    1.4662   23.0564 C   0  0  0  0  0  0  0  0  0  0  0  0
   12.0284    1.3764   24.9443 C   0  0  0  0  0  0  0  0  0  0  0  0
   11.3794    1.3761   23.7290 C   0  0  0  0  0  0  0  0  0  0  0  0
    5.8300    0.9190   18.6970 C   0  0  0  0  0  0  0  0  0  0  0  0
    6.1790    0.5730   19.9990 C   0  0  0  0  0  0  0  0  0  0  0  0
    9.3070   -3.5340   24.8780 C   0  0  0  0  0  0  0  0  0  0  0  0
    9.3350   -1.0880   23.5010 C   0  0  0  0  0  0  0  0  0  0  0  0
    9.5334   -6.0236   25.0414 C   0  0  0  0  0  0  0  0  0  0  0  0
    9.0420    0.3700   21.5280 C   0  0  0  0  0  0  0  0  0  0  0  0
   10.6330   -7.3746   26.8775 C   0  0  0  0  0  0  0  0  0  0  0  0
    9.8870    1.3260   23.5730 C   0  0  0  0  0  0  0  0  0  0  0  0
    9.3522   -7.0865   26.1149 C   0  0  0  0  0  0  0  0  0  0  0  0
    8.1890   -0.7180   20.8700 C   0  0  0  0  0  0  0  0  0  0  0  0
    6.7580    0.3810   17.8350 N   0  0  0  0  0  0  0  0  0  0  0  0
    7.6390   -0.2680   18.5410 N   0  0  0  0  0  0  0  0  0  0  0  0
    7.3170   -0.1610   19.8550 N   0  0  0  0  0  0  0  0  0  0  0  0
    9.2546   -4.7422   25.5438 N   0  0  0  0  0  0  0  0  0  0  0  0
    9.4560    0.1560   22.8130 N   0  0  0  0  0  0  0  0  0  0  0  0
    9.8805   -6.3053   23.8992 O   0  0  0  0  0  0  0  0  0  0  0  0
    9.2690    1.4140   20.9380 O   0  0  0  0  0  0  0  0  0  0  0  0
   13.7301    1.4394   24.7638 S   0  0  0  0  0  0  0  0  0  0  0  0
    3.0136    2.6524   19.3909 H   0  0  0  0  0  0  0  0  0  0  0  0
    3.6477    2.0141   21.6817 H   0  0  0  0  0  0  0  0  0  0  0  0
    4.4041    1.9739   17.4524 H   0  0  0  0  0  0  0  0  0  0  0  0
    5.7107    0.6909   22.1141 H   0  0  0  0  0  0  0  0  0  0  0  0
    8.6895   -2.3529   26.5807 H   0  0  0  0  0  0  0  0  0  0  0  0
    9.9262   -4.3897   22.9916 H   0  0  0  0  0  0  0  0  0  0  0  0
    8.9224   -0.1998   25.4238 H   0  0  0  0  0  0  0  0  0  0  0  0
   10.0649   -2.2343   21.8258 H   0  0  0  0  0  0  0  0  0  0  0  0
   12.0045    1.4365   21.5915 H   0  0  0  0  0  0  0  0  0  0  0  0
   14.4914    1.5078   22.4431 H   0  0  0  0  0  0  0  0  0  0  0  0
   11.5886    1.3416   25.9314 H   0  0  0  0  0  0  0  0  0  0  0  0
   11.4241   -7.7171   26.2024 H   0  0  0  0  0  0  0  0  0  0  0  0
   10.4629   -8.1530   27.6277 H   0  0  0  0  0  0  0  0  0  0  0  0
   10.9949   -6.4779   27.3911 H   0  0  0  0  0  0  0  0  0  0  0  0
    9.3974    1.2912   24.5523 H   0  0  0  0  0  0  0  0  0  0  0  0
    9.5159    2.2168   23.0554 H   0  0  0  0  0  0  0  0  0  0  0  0
    8.5795   -6.7463   26.8138 H   0  0  0  0  0  0  0  0  0  0  0  0
    8.9965   -8.0064   25.6368 H   0  0  0  0  0  0  0  0  0  0  0  0
    8.8255   -1.4531   20.3835 H   0  0  0  0  0  0  0  0  0  0  0  0
    7.5533   -1.1948   21.6123 H   0  0  0  0  0  0  0  0  0  0  0  0
    8.9776   -4.7057   26.5317 H   0  0  0  0  0  0  0  0  0  0  0  0
  1  2  1  0  0  0  0
  1  3  2  0  0  0  0
  2  4  2  0  0  0  0
  3 13  1  0  0  0  0
  4 14  1  0  0  0  0
  5  7  2  0  0  0  0
  5 15  1  0  0  0  0
  6  8  1  0  0  0  0
  6 15  2  0  0  0  0
  7 16  1  0  0  0  0
  8 16  2  0  0  0  0
  9 10  2  0  0  0  0
  9 12  1  0  0  0  0
 10 30  1  0  0  0  0
 11 12  2  0  0  0  0
 11 30  1  0  0  0  0
 12 20  1  0  0  0  0
 13 14  2  0  0  0  0
 13 23  1  0  0  0  0
 14 25  1  0  0  0  0
 15 26  1  0  0  0  0
 16 27  1  0  0  0  0
 17 21  1  0  0  0  0
 17 26  1  0  0  0  0
 17 28  2  0  0  0  0
 18 22  1  0  0  0  0
 18 27  1  0  0  0  0
 18 29  2  0  0  0  0
 19 21  1  0  0  0  0
 20 27  1  0  0  0  0
 22 25  1  0  0  0  0
 23 24  2  0  0  0  0
 24 25  1  0  0  0  0
  1 31  1  0  0  0  0
  2 32  1  0  0  0  0
  3 33  1  0  0  0  0
  4 34  1  0  0  0  0
  5 35  1  0  0  0  0
  6 36  1  0  0  0  0
  7 37  1  0  0  0  0
  8 38  1  0  0  0  0
  9 39  1  0  0  0  0
 10 40  1  0  0  0  0
 11 41  1  0  0  0  0
 19 42  1  0  0  0  0
 19 43  1  0  0  0  0
 19 44  1  0  0  0  0
 20 45  1  0  0  0  0
 20 46  1  0  0  0  0
 21 47  1  0  0  0  0
 21 48  1  0  0  0  0
 22 49  1  0  0  0  0
 22 50  1  0  0  0  0
 26 51  1  0  0  0  0
M  END
> <clash_score>
1.4986672183376766

> <docking_score>
-6.886206150054932

$$$$
BENZO_342_1
  -OEChem-08212023213D

 54 57  0     0  0  0  0  0  0999 V2000
    3.9160    2.0630   19.5520 C   0  0  0  0  0  0  0  0  0  0  0  0
    4.2750    1.7050   20.8490 C   0  0  0  0  0  0  0  0  0  0  0  0
    6.4089    2.0844   24.8766 C   0  0  0  0  0  0  0  0  0  0  0  0
    7.4847    1.4191   24.2887 C   0  0  0  0  0  0  0  0  0  0  0  0
    4.6890    1.6810   18.4640 C   0  0  0  0  0  0  0  0  0  0  0  0
    5.4210    0.9600   21.0930 C   0  0  0  0  0  0  0  0  0  0  0  0
    8.9960   -2.3380   25.5320 C   0  0  0  0  0  0  0  0  0  0  0  0
    9.6730   -3.4710   23.5300 C   0  0  0  0  0  0  0  0  0  0  0  0
    9.0720   -1.1280   24.8640 C   0  0  0  0  0  0  0  0  0  0  0  0
    9.7200   -2.2600   22.8630 C   0  0  0  0  0  0  0  0  0  0  0  0
    6.5777    3.3741   25.3805 C   0  0  0  0  0  0  0  0  0  0  0  0
    8.8980    3.3330   24.7088 C   0  0  0  0  0  0  0  0  0  0  0  0
    8.7292    2.0433   24.2048 C   0  0  0  0  0  0  0  0  0  0  0  0
    5.8300    0.9190   18.6970 C   0  0  0  0  0  0  0  0  0  0  0  0
    6.1790    0.5730   19.9990 C   0  0  0  0  0  0  0  0  0  0  0  0
    9.3070   -3.5340   24.8780 C   0  0  0  0  0  0  0  0  0  0  0  0
    9.3350   -1.0880   23.5010 C   0  0  0  0  0  0  0  0  0  0  0  0
    7.8222    3.9984   25.2966 C   0  0  0  0  0  0  0  0  0  0  0  0
    9.5334   -6.0236   25.0414 C   0  0  0  0  0  0  0  0  0  0  0  0
    9.0420    0.3700   21.5280 C   0  0  0  0  0  0  0  0  0  0  0  0
   10.6330   -7.3746   26.8775 C   0  0  0  0  0  0  0  0  0  0  0  0
    9.8870    1.3260   23.5730 C   0  0  0  0  0  0  0  0  0  0  0  0
    9.3522   -7.0865   26.1149 C   0  0  0  0  0  0  0  0  0  0  0  0
    8.1890   -0.7180   20.8700 C   0  0  0  0  0  0  0  0  0  0  0  0
    6.7580    0.3810   17.8350 N   0  0  0  0  0  0  0  0  0  0  0  0
    7.6390   -0.2680   18.5410 N   0  0  0  0  0  0  0  0  0  0  0  0
    7.3170   -0.1610   19.8550 N   0  0  0  0  0  0  0  0  0  0  0  0
    9.2546   -4.7422   25.5438 N   0  0  0  0  0  0  0  0  0  0  0  0
    9.4560    0.1560   22.8130 N   0  0  0  0  0  0  0  0  0  0  0  0
    9.8805   -6.3053   23.8992 O   0  0  0  0  0  0  0  0  0  0  0  0
    9.2690    1.4140   20.9380 O   0  0  0  0  0  0  0  0  0  0  0  0
    8.0301    5.5891   25.9196 Cl  0  0  0  0  0  0  0  0  0  0  0  0
    3.0136    2.6524   19.3909 H   0  0  0  0  0  0  0  0  0  0  0  0
    3.6477    2.0141   21.6817 H   0  0  0  0  0  0  0  0  0  0  0  0
    5.4400    1.5979   24.9418 H   0  0  0  0  0  0  0  0  0  0  0  0
    7.3441    0.4143   23.8988 H   0  0  0  0  0  0  0  0  0  0  0  0
    4.4041    1.9739   17.4524 H   0  0  0  0  0  0  0  0  0  0  0  0
    5.7107    0.6909   22.1141 H   0  0  0  0  0  0  0  0  0  0  0  0
    8.6895   -2.3529   26.5807 H   0  0  0  0  0  0  0  0  0  0  0  0
    9.9262   -4.3897   22.9916 H   0  0  0  0  0  0  0  0  0  0  0  0
    8.9224   -0.1998   25.4238 H   0  0  0  0  0  0  0  0  0  0  0  0
   10.0649   -2.2343   21.8258 H   0  0  0  0  0  0  0  0  0  0  0  0
    5.7304    3.8806   25.8363 H   0  0  0  0  0  0  0  0  0  0  0  0
    9.8702    3.8156   24.6405 H   0  0  0  0  0  0  0  0  0  0  0  0
   11.4241   -7.7171   26.2024 H   0  0  0  0  0  0  0  0  0  0  0  0
   10.4629   -8.1530   27.6277 H   0  0  0  0  0  0  0  0  0  0  0  0
   10.9949   -6.4779   27.3911 H   0  0  0  0  0  0  0  0  0  0  0  0
   10.4274    1.9911   22.8906 H   0  0  0  0  0  0  0  0  0  0  0  0
   10.6011    0.9882   24.3313 H   0  0  0  0  0  0  0  0  0  0  0  0
    8.5795   -6.7463   26.8138 H   0  0  0  0  0  0  0  0  0  0  0  0
    8.9965   -8.0064   25.6368 H   0  0  0  0  0  0  0  0  0  0  0  0
    8.8255   -1.4531   20.3835 H   0  0  0  0  0  0  0  0  0  0  0  0
    7.5533   -1.1948   21.6123 H   0  0  0  0  0  0  0  0  0  0  0  0
    8.9776   -4.7057   26.5317 H   0  0  0  0  0  0  0  0  0  0  0  0
  1  2  1  0  0  0  0
  1  5  2  0  0  0  0
  2  6  2  0  0  0  0
  3  4  2  0  0  0  0
  3 11  1  0  0  0  0
  4 13  1  0  0  0  0
  5 14  1  0  0  0  0
  6 15  1  0  0  0  0
  7  9  2  0  0  0  0
  7 16  1  0  0  0  0
  8 10  1  0  0  0  0
  8 16  2  0  0  0  0
  9 17  1  0  0  0  0
 10 17  2  0  0  0  0
 11 18  2  0  0  0  0
 12 13  2  0  0  0  0
 12 18  1  0  0  0  0
 13 22  1  0  0  0  0
 14 15  2  0  0  0  0
 14 25  1  0  0  0  0
 15 27  1  0  0  0  0
 16 28  1  0  0  0  0
 17 29  1  0  0  0  0
 18 32  1  0  0  0  0
 19 23  1  0  0  0  0
 19 28  1  0  0  0  0
 19 30  2  0  0  0  0
 20 24  1  0  0  0  0
 20 29  1  0  0  0  0
 20 31  2  0  0  0  0
 21 23  1  0  0  0  0
 22 29  1  0  0  0  0
 24 27  1  0  0  0  0
 25 26  2  0  0  0  0
 26 27  1  0  0  0  0
  1 33  1  0  0  0  0
  2 34  1  0  0  0  0
  3 35  1  0  0  0  0
  4 36  1  0  0  0  0
  5 37  1  0  0  0  0
  6 38  1  0  0  0  0
  7 39  1  0  0  0  0
  8 40  1  0  0  0  0
  9 41  1  0  0  0  0
 10 42  1  0  0  0  0
 11 43  1  0  0  0  0
 12 44  1  0  0  0  0
 21 45  1  0  0  0  0
 21 46  1  0  0  0  0
 21 47  1  0  0  0  0
 22 48  1  0  0  0  0
 22 49  1  0  0  0  0
 23 50  1  0  0  0  0
 23 51  1  0  0  0  0
 24 52  1  0  0  0  0
 24 53  1  0  0  0  0
 28 54  1  0  0  0  0
M  END
> <clash_score>
1.4986672183376766

> <docking_score>
-6.193362236022949

$$$$
BENZO_344_1
  -OEChem-08212023253D

 56 60  0     0  0  0  0  0  0999 V2000
    3.9160    2.0630   19.5520 C   0  0  0  0  0  0  0  0  0  0  0  0
    4.2750    1.7050   20.8490 C   0  0  0  0  0  0  0  0  0  0  0  0
    4.6890    1.6810   18.4640 C   0  0  0  0  0  0  0  0  0  0  0  0
    5.4210    0.9600   21.0930 C   0  0  0  0  0  0  0  0  0  0  0  0
    8.9960   -2.3380   25.5320 C   0  0  0  0  0  0  0  0  0  0  0  0
    9.6730   -3.4710   23.5300 C   0  0  0  0  0  0  0  0  0  0  0  0
    9.0720   -1.1280   24.8640 C   0  0  0  0  0  0  0  0  0  0  0  0
    9.7200   -2.2600   22.8630 C   0  0  0  0  0  0  0  0  0  0  0  0
   12.2913    1.4279   22.6355 C   0  0  0  0  0  0  0  0  0  0  0  0
   13.6024    1.4662   23.0564 C   0  0  0  0  0  0  0  0  0  0  0  0
   12.0284    1.3764   24.9443 C   0  0  0  0  0  0  0  0  0  0  0  0
   11.3794    1.3761   23.7290 C   0  0  0  0  0  0  0  0  0  0  0  0
    5.8300    0.9190   18.6970 C   0  0  0  0  0  0  0  0  0  0  0  0
    6.1790    0.5730   19.9990 C   0  0  0  0  0  0  0  0  0  0  0  0
    9.3070   -3.5340   24.8780 C   0  0  0  0  0  0  0  0  0  0  0  0
    9.3350   -1.0880   23.5010 C   0  0  0  0  0  0  0  0  0  0  0  0
    9.0420    0.3700   21.5280 C   0  0  0  0  0  0  0  0  0  0  0  0
    7.3635   -6.1361   27.1888 C   0  0  0  0  0  0  0  0  0  0  0  0
    8.1961   -4.9735   27.7341 C   0  0  0  0  0  0  0  0  0  0  0  0
    7.1942   -6.0394   25.6709 C   0  0  0  0  0  0  0  0  0  0  0  0
    9.5196   -4.8490   26.9797 C   0  0  0  0  0  0  0  0  0  0  0  0
    8.5442   -5.8838   24.9639 C   0  0  0  0  0  0  0  0  0  0  0  0
    9.8870    1.3260   23.5730 C   0  0  0  0  0  0  0  0  0  0  0  0
    8.1890   -0.7180   20.8700 C   0  0  0  0  0  0  0  0  0  0  0  0
    6.7580    0.3810   17.8350 N   0  0  0  0  0  0  0  0  0  0  0  0
    7.6390   -0.2680   18.5410 N   0  0  0  0  0  0  0  0  0  0  0  0
    7.3170   -0.1610   19.8550 N   0  0  0  0  0  0  0  0  0  0  0  0
    9.2562   -4.7384   25.5422 N   0  0  0  0  0  0  0  0  0  0  0  0
    9.4560    0.1560   22.8130 N   0  0  0  0  0  0  0  0  0  0  0  0
    9.2690    1.4140   20.9380 O   0  0  0  0  0  0  0  0  0  0  0  0
   13.7301    1.4394   24.7638 S   0  0  0  0  0  0  0  0  0  0  0  0
    3.0136    2.6524   19.3909 H   0  0  0  0  0  0  0  0  0  0  0  0
    3.6477    2.0141   21.6817 H   0  0  0  0  0  0  0  0  0  0  0  0
    4.4042    1.9739   17.4524 H   0  0  0  0  0  0  0  0  0  0  0  0
    5.7107    0.6909   22.1141 H   0  0  0  0  0  0  0  0  0  0  0  0
    8.6905   -2.3533   26.5810 H   0  0  0  0  0  0  0  0  0  0  0  0
    9.9266   -4.3896   22.9917 H   0  0  0  0  0  0  0  0  0  0  0  0
    8.9233   -0.1992   25.4231 H   0  0  0  0  0  0  0  0  0  0  0  0
   10.0650   -2.2330   21.8256 H   0  0  0  0  0  0  0  0  0  0  0  0
   12.0045    1.4365   21.5915 H   0  0  0  0  0  0  0  0  0  0  0  0
   14.4914    1.5078   22.4431 H   0  0  0  0  0  0  0  0  0  0  0  0
   11.5886    1.3416   25.9314 H   0  0  0  0  0  0  0  0  0  0  0  0
    7.8482   -7.0901   27.4469 H   0  0  0  0  0  0  0  0  0  0  0  0
    6.3760   -6.1438   27.6724 H   0  0  0  0  0  0  0  0  0  0  0  0
    7.6307   -4.0424   27.6403 H   0  0  0  0  0  0  0  0  0  0  0  0
    8.3915   -5.1310   28.7968 H   0  0  0  0  0  0  0  0  0  0  0  0
    6.6888   -6.9376   25.3010 H   0  0  0  0  0  0  0  0  0  0  0  0
    6.5515   -5.1859   25.4257 H   0  0  0  0  0  0  0  0  0  0  0  0
   10.0492   -3.9640   27.3414 H   0  0  0  0  0  0  0  0  0  0  0  0
   10.1431   -5.7254   27.1778 H   0  0  0  0  0  0  0  0  0  0  0  0
    9.1338   -6.7931   25.0868 H   0  0  0  0  0  0  0  0  0  0  0  0
    8.3656   -5.7264   23.8998 H   0  0  0  0  0  0  0  0  0  0  0  0
    9.3974    1.2912   24.5523 H   0  0  0  0  0  0  0  0  0  0  0  0
    9.5159    2.2168   23.0554 H   0  0  0  0  0  0  0  0  0  0  0  0
    8.8326   -1.4554   20.3912 H   0  0  0  0  0  0  0  0  0  0  0  0
    7.5604   -1.1971   21.6201 H   0  0  0  0  0  0  0  0  0  0  0  0
  1  2  1  0  0  0  0
  1  3  2  0  0  0  0
  2  4  2  0  0  0  0
  3 13  1  0  0  0  0
  4 14  1  0  0  0  0
  5  7  2  0  0  0  0
  5 15  1  0  0  0  0
  6  8  1  0  0  0  0
  6 15  2  0  0  0  0
  7 16  1  0  0  0  0
  8 16  2  0  0  0  0
  9 10  2  0  0  0  0
  9 12  1  0  0  0  0
 10 31  1  0  0  0  0
 11 12  2  0  0  0  0
 11 31  1  0  0  0  0
 12 23  1  0  0  0  0
 13 14  2  0  0  0  0
 13 25  1  0  0  0  0
 14 27  1  0  0  0  0
 15 28  1  0  0  0  0
 16 29  1  0  0  0  0
 17 24  1  0  0  0  0
 17 29  1  0  0  0  0
 17 30  2  0  0  0  0
 18 19  1  0  0  0  0
 18 20  1  0  0  0  0
 19 21  1  0  0  0  0
 20 22  1  0  0  0  0
 21 28  1  0  0  0  0
 22 28  1  0  0  0  0
 23 29  1  0  0  0  0
 24 27  1  0  0  0  0
 25 26  2  0  0  0  0
 26 27  1  0  0  0  0
  1 32  1  0  0  0  0
  2 33  1  0  0  0  0
  3 34  1  0  0  0  0
  4 35  1  0  0  0  0
  5 36  1  0  0  0  0
  6 37  1  0  0  0  0
  7 38  1  0  0  0  0
  8 39  1  0  0  0  0
  9 40  1  0  0  0  0
 10 41  1  0  0  0  0
 11 42  1  0  0  0  0
 18 43  1  0  0  0  0
 18 44  1  0  0  0  0
 19 45  1  0  0  0  0
 19 46  1  0  0  0  0
 20 47  1  0  0  0  0
 20 48  1  0  0  0  0
 21 49  1  0  0  0  0
 21 50  1  0  0  0  0
 22 51  1  0  0  0  0
 22 52  1  0  0  0  0
 23 53  1  0  0  0  0
 23 54  1  0  0  0  0
 24 55  1  0  0  0  0
 24 56  1  0  0  0  0
M  END
> <clash_score>
0

> <docking_score>
-9.17624282836914

$$$$
BENZO_345_1
  -OEChem-08212023253D

 59 63  0     0  0  0  0  0  0999 V2000
   14.1526    1.4694   24.0176 C   0  0  0  0  0  0  0  0  0  0  0  0
   13.3741    0.8121   24.9701 C   0  0  0  0  0  0  0  0  0  0  0  0
   13.5446    2.0802   22.9208 C   0  0  0  0  0  0  0  0  0  0  0  0
    3.9160    2.0630   19.5520 C   0  0  0  0  0  0  0  0  0  0  0  0
    4.2750    1.7050   20.8490 C   0  0  0  0  0  0  0  0  0  0  0  0
   11.9875    0.7654   24.8258 C   0  0  0  0  0  0  0  0  0  0  0  0
   12.1580    2.0335   22.7765 C   0  0  0  0  0  0  0  0  0  0  0  0
    4.6890    1.6810   18.4640 C   0  0  0  0  0  0  0  0  0  0  0  0
    5.4210    0.9600   21.0930 C   0  0  0  0  0  0  0  0  0  0  0  0
    8.9960   -2.3380   25.5320 C   0  0  0  0  0  0  0  0  0  0  0  0
    9.6730   -3.4710   23.5300 C   0  0  0  0  0  0  0  0  0  0  0  0
    9.0720   -1.1280   24.8640 C   0  0  0  0  0  0  0  0  0  0  0  0
    9.7200   -2.2600   22.8630 C   0  0  0  0  0  0  0  0  0  0  0  0
   11.3794    1.3761   23.7290 C   0  0  0  0  0  0  0  0  0  0  0  0
    5.8300    0.9190   18.6970 C   0  0  0  0  0  0  0  0  0  0  0  0
    6.1790    0.5730   19.9990 C   0  0  0  0  0  0  0  0  0  0  0  0
    9.3070   -3.5340   24.8780 C   0  0  0  0  0  0  0  0  0  0  0  0
    9.3350   -1.0880   23.5010 C   0  0  0  0  0  0  0  0  0  0  0  0
    9.0420    0.3700   21.5280 C   0  0  0  0  0  0  0  0  0  0  0  0
    7.3635   -6.1361   27.1888 C   0  0  0  0  0  0  0  0  0  0  0  0
    8.1961   -4.9735   27.7341 C   0  0  0  0  0  0  0  0  0  0  0  0
    7.1942   -6.0394   25.6709 C   0  0  0  0  0  0  0  0  0  0  0  0
    9.5196   -4.8490   26.9797 C   0  0  0  0  0  0  0  0  0  0  0  0
    8.5442   -5.8838   24.9639 C   0  0  0  0  0  0  0  0  0  0  0  0
    9.8870    1.3260   23.5730 C   0  0  0  0  0  0  0  0  0  0  0  0
    8.1890   -0.7180   20.8700 C   0  0  0  0  0  0  0  0  0  0  0  0
    6.7580    0.3810   17.8350 N   0  0  0  0  0  0  0  0  0  0  0  0
    7.6390   -0.2680   18.5410 N   0  0  0  0  0  0  0  0  0  0  0  0
    7.3170   -0.1610   19.8550 N   0  0  0  0  0  0  0  0  0  0  0  0
    9.2562   -4.7384   25.5422 N   0  0  0  0  0  0  0  0  0  0  0  0
    9.4560    0.1560   22.8130 N   0  0  0  0  0  0  0  0  0  0  0  0
    9.2690    1.4140   20.9380 O   0  0  0  0  0  0  0  0  0  0  0  0
   15.2322    1.5068   24.1308 H   0  0  0  0  0  0  0  0  0  0  0  0
   13.8473    0.3374   25.8248 H   0  0  0  0  0  0  0  0  0  0  0  0
   14.1503    2.5930   22.1795 H   0  0  0  0  0  0  0  0  0  0  0  0
    3.0136    2.6524   19.3909 H   0  0  0  0  0  0  0  0  0  0  0  0
    3.6477    2.0141   21.6817 H   0  0  0  0  0  0  0  0  0  0  0  0
   11.3889    0.2508   25.5729 H   0  0  0  0  0  0  0  0  0  0  0  0
   11.6930    2.5120   21.9187 H   0  0  0  0  0  0  0  0  0  0  0  0
    4.4042    1.9739   17.4524 H   0  0  0  0  0  0  0  0  0  0  0  0
    5.7107    0.6909   22.1141 H   0  0  0  0  0  0  0  0  0  0  0  0
    8.6905   -2.3533   26.5810 H   0  0  0  0  0  0  0  0  0  0  0  0
    9.9266   -4.3896   22.9917 H   0  0  0  0  0  0  0  0  0  0  0  0
    8.9233   -0.1992   25.4231 H   0  0  0  0  0  0  0  0  0  0  0  0
   10.0650   -2.2330   21.8256 H   0  0  0  0  0  0  0  0  0  0  0  0
    7.8482   -7.0901   27.4469 H   0  0  0  0  0  0  0  0  0  0  0  0
    6.3760   -6.1438   27.6724 H   0  0  0  0  0  0  0  0  0  0  0  0
    7.6307   -4.0424   27.6403 H   0  0  0  0  0  0  0  0  0  0  0  0
    8.3915   -5.1310   28.7968 H   0  0  0  0  0  0  0  0  0  0  0  0
    6.6888   -6.9376   25.3010 H   0  0  0  0  0  0  0  0  0  0  0  0
    6.5515   -5.1859   25.4257 H   0  0  0  0  0  0  0  0  0  0  0  0
   10.0492   -3.9640   27.3414 H   0  0  0  0  0  0  0  0  0  0  0  0
   10.1431   -5.7254   27.1778 H   0  0  0  0  0  0  0  0  0  0  0  0
    9.1338   -6.7931   25.0868 H   0  0  0  0  0  0  0  0  0  0  0  0
    8.3656   -5.7264   23.8998 H   0  0  0  0  0  0  0  0  0  0  0  0
    9.3974    1.2912   24.5523 H   0  0  0  0  0  0  0  0  0  0  0  0
    9.5159    2.2168   23.0554 H   0  0  0  0  0  0  0  0  0  0  0  0
    8.8326   -1.4554   20.3912 H   0  0  0  0  0  0  0  0  0  0  0  0
    7.5604   -1.1971   21.6201 H   0  0  0  0  0  0  0  0  0  0  0  0
  1  2  1  0  0  0  0
  1  3  2  0  0  0  0
  2  6  2  0  0  0  0
  3  7  1  0  0  0  0
  4  5  1  0  0  0  0
  4  8  2  0  0  0  0
  5  9  2  0  0  0  0
  6 14  1  0  0  0  0
  7 14  2  0  0  0  0
  8 15  1  0  0  0  0
  9 16  1  0  0  0  0
 10 12  2  0  0  0  0
 10 17  1  0  0  0  0
 11 13  1  0  0  0  0
 11 17  2  0  0  0  0
 12 18  1  0  0  0  0
 13 18  2  0  0  0  0
 14 25  1  0  0  0  0
 15 16  2  0  0  0  0
 15 27  1  0  0  0  0
 16 29  1  0  0  0  0
 17 30  1  0  0  0  0
 18 31  1  0  0  0  0
 19 26  1  0  0  0  0
 19 31  1  0  0  0  0
 19 32  2  0  0  0  0
 20 21  1  0  0  0  0
 20 22  1  0  0  0  0
 21 23  1  0  0  0  0
 22 24  1  0  0  0  0
 23 30  1  0  0  0  0
 24 30  1  0  0  0  0
 25 31  1  0  0  0  0
 26 29  1  0  0  0  0
 27 28  2  0  0  0  0
 28 29  1  0  0  0  0
  1 33  1  0  0  0  0
  2 34  1  0  0  0  0
  3 35  1  0  0  0  0
  4 36  1  0  0  0  0
  5 37  1  0  0  0  0
  6 38  1  0  0  0  0
  7 39  1  0  0  0  0
  8 40  1  0  0  0  0
  9 41  1  0  0  0  0
 10 42  1  0  0  0  0
 11 43  1  0  0  0  0
 12 44  1  0  0  0  0
 13 45  1  0  0  0  0
 20 46  1  0  0  0  0
 20 47  1  0  0  0  0
 21 48  1  0  0  0  0
 21 49  1  0  0  0  0
 22 50  1  0  0  0  0
 22 51  1  0  0  0  0
 23 52  1  0  0  0  0
 23 53  1  0  0  0  0
 24 54  1  0  0  0  0
 24 55  1  0  0  0  0
 25 56  1  0  0  0  0
 25 57  1  0  0  0  0
 26 58  1  0  0  0  0
 26 59  1  0  0  0  0
M  END
> <clash_score>
0

> <docking_score>
-9.097402572631836

$$$$
BENZO_346_1
  -OEChem-08212023253D

 59 63  0     0  0  0  0  0  0999 V2000
    3.9160    2.0630   19.5520 C   0  0  0  0  0  0  0  0  0  0  0  0
    4.2750    1.7050   20.8490 C   0  0  0  0  0  0  0  0  0  0  0  0
    6.4089    2.0844   24.8766 C   0  0  0  0  0  0  0  0  0  0  0  0
    7.4847    1.4191   24.2887 C   0  0  0  0  0  0  0  0  0  0  0  0
    4.6890    1.6810   18.4640 C   0  0  0  0  0  0  0  0  0  0  0  0
    5.4210    0.9600   21.0930 C   0  0  0  0  0  0  0  0  0  0  0  0
    8.9960   -2.3380   25.5320 C   0  0  0  0  0  0  0  0  0  0  0  0
    9.6730   -3.4710   23.5300 C   0  0  0  0  0  0  0  0  0  0  0  0
    9.0720   -1.1280   24.8640 C   0  0  0  0  0  0  0  0  0  0  0  0
    9.7200   -2.2600   22.8630 C   0  0  0  0  0  0  0  0  0  0  0  0
    6.5777    3.3741   25.3805 C   0  0  0  0  0  0  0  0  0  0  0  0
    8.8980    3.3330   24.7088 C   0  0  0  0  0  0  0  0  0  0  0  0
    8.7292    2.0433   24.2048 C   0  0  0  0  0  0  0  0  0  0  0  0
    5.8300    0.9190   18.6970 C   0  0  0  0  0  0  0  0  0  0  0  0
    6.1790    0.5730   19.9990 C   0  0  0  0  0  0  0  0  0  0  0  0
    9.3070   -3.5340   24.8780 C   0  0  0  0  0  0  0  0  0  0  0  0
    9.3350   -1.0880   23.5010 C   0  0  0  0  0  0  0  0  0  0  0  0
    7.8222    3.9984   25.2966 C   0  0  0  0  0  0  0  0  0  0  0  0
    9.0420    0.3700   21.5280 C   0  0  0  0  0  0  0  0  0  0  0  0
    7.3635   -6.1361   27.1888 C   0  0  0  0  0  0  0  0  0  0  0  0
    8.1961   -4.9735   27.7341 C   0  0  0  0  0  0  0  0  0  0  0  0
    7.1942   -6.0394   25.6709 C   0  0  0  0  0  0  0  0  0  0  0  0
    9.5196   -4.8490   26.9797 C   0  0  0  0  0  0  0  0  0  0  0  0
    8.5442   -5.8838   24.9639 C   0  0  0  0  0  0  0  0  0  0  0  0
    9.8870    1.3260   23.5730 C   0  0  0  0  0  0  0  0  0  0  0  0
    8.1890   -0.7180   20.8700 C   0  0  0  0  0  0  0  0  0  0  0  0
    6.7580    0.3810   17.8350 N   0  0  0  0  0  0  0  0  0  0  0  0
    7.6390   -0.2680   18.5410 N   0  0  0  0  0  0  0  0  0  0  0  0
    7.3170   -0.1610   19.8550 N   0  0  0  0  0  0  0  0  0  0  0  0
    9.2562   -4.7384   25.5422 N   0  0  0  0  0  0  0  0  0  0  0  0
    9.4560    0.1560   22.8130 N   0  0  0  0  0  0  0  0  0  0  0  0
    9.2690    1.4140   20.9380 O   0  0  0  0  0  0  0  0  0  0  0  0
    8.0301    5.5891   25.9196 Cl  0  0  0  0  0  0  0  0  0  0  0  0
    3.0136    2.6524   19.3909 H   0  0  0  0  0  0  0  0  0  0  0  0
    3.6477    2.0141   21.6817 H   0  0  0  0  0  0  0  0  0  0  0  0
    5.4400    1.5979   24.9418 H   0  0  0  0  0  0  0  0  0  0  0  0
    7.3441    0.4143   23.8988 H   0  0  0  0  0  0  0  0  0  0  0  0
    4.4042    1.9739   17.4524 H   0  0  0  0  0  0  0  0  0  0  0  0
    5.7107    0.6909   22.1141 H   0  0  0  0  0  0  0  0  0  0  0  0
    8.6905   -2.3533   26.5810 H   0  0  0  0  0  0  0  0  0  0  0  0
    9.9266   -4.3896   22.9917 H   0  0  0  0  0  0  0  0  0  0  0  0
    8.9233   -0.1992   25.4231 H   0  0  0  0  0  0  0  0  0  0  0  0
   10.0650   -2.2330   21.8256 H   0  0  0  0  0  0  0  0  0  0  0  0
    5.7304    3.8806   25.8363 H   0  0  0  0  0  0  0  0  0  0  0  0
    9.8703    3.8156   24.6405 H   0  0  0  0  0  0  0  0  0  0  0  0
    7.8482   -7.0901   27.4469 H   0  0  0  0  0  0  0  0  0  0  0  0
    6.3760   -6.1438   27.6724 H   0  0  0  0  0  0  0  0  0  0  0  0
    7.6307   -4.0424   27.6403 H   0  0  0  0  0  0  0  0  0  0  0  0
    8.3915   -5.1310   28.7968 H   0  0  0  0  0  0  0  0  0  0  0  0
    6.6888   -6.9376   25.3010 H   0  0  0  0  0  0  0  0  0  0  0  0
    6.5515   -5.1859   25.4257 H   0  0  0  0  0  0  0  0  0  0  0  0
   10.0492   -3.9640   27.3414 H   0  0  0  0  0  0  0  0  0  0  0  0
   10.1431   -5.7254   27.1778 H   0  0  0  0  0  0  0  0  0  0  0  0
    9.1338   -6.7931   25.0868 H   0  0  0  0  0  0  0  0  0  0  0  0
    8.3656   -5.7264   23.8998 H   0  0  0  0  0  0  0  0  0  0  0  0
   10.4274    1.9911   22.8906 H   0  0  0  0  0  0  0  0  0  0  0  0
   10.6011    0.9882   24.3313 H   0  0  0  0  0  0  0  0  0  0  0  0
    8.8326   -1.4554   20.3912 H   0  0  0  0  0  0  0  0  0  0  0  0
    7.5604   -1.1971   21.6201 H   0  0  0  0  0  0  0  0  0  0  0  0
  1  2  1  0  0  0  0
  1  5  2  0  0  0  0
  2  6  2  0  0  0  0
  3  4  2  0  0  0  0
  3 11  1  0  0  0  0
  4 13  1  0  0  0  0
  5 14  1  0  0  0  0
  6 15  1  0  0  0  0
  7  9  2  0  0  0  0
  7 16  1  0  0  0  0
  8 10  1  0  0  0  0
  8 16  2  0  0  0  0
  9 17  1  0  0  0  0
 10 17  2  0  0  0  0
 11 18  2  0  0  0  0
 12 13  2  0  0  0  0
 12 18  1  0  0  0  0
 13 25  1  0  0  0  0
 14 15  2  0  0  0  0
 14 27  1  0  0  0  0
 15 29  1  0  0  0  0
 16 30  1  0  0  0  0
 17 31  1  0  0  0  0
 18 33  1  0  0  0  0
 19 26  1  0  0  0  0
 19 31  1  0  0  0  0
 19 32  2  0  0  0  0
 20 21  1  0  0  0  0
 20 22  1  0  0  0  0
 21 23  1  0  0  0  0
 22 24  1  0  0  0  0
 23 30  1  0  0  0  0
 24 30  1  0  0  0  0
 25 31  1  0  0  0  0
 26 29  1  0  0  0  0
 27 28  2  0  0  0  0
 28 29  1  0  0  0  0
  1 34  1  0  0  0  0
  2 35  1  0  0  0  0
  3 36  1  0  0  0  0
  4 37  1  0  0  0  0
  5 38  1  0  0  0  0
  6 39  1  0  0  0  0
  7 40  1  0  0  0  0
  8 41  1  0  0  0  0
  9 42  1  0  0  0  0
 10 43  1  0  0  0  0
 11 44  1  0  0  0  0
 12 45  1  0  0  0  0
 20 46  1  0  0  0  0
 20 47  1  0  0  0  0
 21 48  1  0  0  0  0
 21 49  1  0  0  0  0
 22 50  1  0  0  0  0
 22 51  1  0  0  0  0
 23 52  1  0  0  0  0
 23 53  1  0  0  0  0
 24 54  1  0  0  0  0
 24 55  1  0  0  0  0
 25 56  1  0  0  0  0
 25 57  1  0  0  0  0
 26 58  1  0  0  0  0
 26 59  1  0  0  0  0
M  END
> <clash_score>
0

> <docking_score>
-8.483415603637695

$$$$
BENZO_347_1
  -OEChem-08212023253D

 59 63  0     0  0  0  0  0  0999 V2000
    3.9160    2.0630   19.5520 C   0  0  0  0  0  0  0  0  0  0  0  0
    4.2750    1.7050   20.8490 C   0  0  0  0  0  0  0  0  0  0  0  0
    4.6890    1.6810   18.4640 C   0  0  0  0  0  0  0  0  0  0  0  0
    5.4210    0.9600   21.0930 C   0  0  0  0  0  0  0  0  0  0  0  0
    8.9960   -2.3380   25.5320 C   0  0  0  0  0  0  0  0  0  0  0  0
    9.6730   -3.4710   23.5300 C   0  0  0  0  0  0  0  0  0  0  0  0
    9.0720   -1.1280   24.8640 C   0  0  0  0  0  0  0  0  0  0  0  0
    9.7200   -2.2600   22.8630 C   0  0  0  0  0  0  0  0  0  0  0  0
   12.1233    1.3811   24.9242 C   0  0  0  0  0  0  0  0  0  0  0  0
   12.3261    1.4247   22.7351 C   0  0  0  0  0  0  0  0  0  0  0  0
   11.3794    1.3761   23.7290 C   0  0  0  0  0  0  0  0  0  0  0  0
    5.8300    0.9190   18.6970 C   0  0  0  0  0  0  0  0  0  0  0  0
    6.1790    0.5730   19.9990 C   0  0  0  0  0  0  0  0  0  0  0  0
    9.3070   -3.5340   24.8780 C   0  0  0  0  0  0  0  0  0  0  0  0
    9.3350   -1.0880   23.5010 C   0  0  0  0  0  0  0  0  0  0  0  0
    9.0420    0.3700   21.5280 C   0  0  0  0  0  0  0  0  0  0  0  0
    7.3635   -6.1361   27.1888 C   0  0  0  0  0  0  0  0  0  0  0  0
    8.1961   -4.9735   27.7341 C   0  0  0  0  0  0  0  0  0  0  0  0
    7.1942   -6.0394   25.6709 C   0  0  0  0  0  0  0  0  0  0  0  0
    9.5196   -4.8490   26.9797 C   0  0  0  0  0  0  0  0  0  0  0  0
    8.5442   -5.8838   24.9639 C   0  0  0  0  0  0  0  0  0  0  0  0
   14.8305    1.5084   22.7418 C   0  0  0  0  0  0  0  0  0  0  0  0
    9.8870    1.3260   23.5730 C   0  0  0  0  0  0  0  0  0  0  0  0
    8.1890   -0.7180   20.8700 C   0  0  0  0  0  0  0  0  0  0  0  0
   13.4410    1.4289   24.7112 N   0  0  0  0  0  0  0  0  0  0  0  0
    6.7580    0.3810   17.8350 N   0  0  0  0  0  0  0  0  0  0  0  0
    7.6390   -0.2680   18.5410 N   0  0  0  0  0  0  0  0  0  0  0  0
   13.5326    1.4543   23.3706 N   0  0  0  0  0  0  0  0  0  0  0  0
    7.3170   -0.1610   19.8550 N   0  0  0  0  0  0  0  0  0  0  0  0
    9.2562   -4.7384   25.5422 N   0  0  0  0  0  0  0  0  0  0  0  0
    9.4560    0.1560   22.8130 N   0  0  0  0  0  0  0  0  0  0  0  0
    9.2690    1.4140   20.9380 O   0  0  0  0  0  0  0  0  0  0  0  0
    3.0136    2.6524   19.3909 H   0  0  0  0  0  0  0  0  0  0  0  0
    3.6477    2.0141   21.6817 H   0  0  0  0  0  0  0  0  0  0  0  0
    4.4042    1.9739   17.4524 H   0  0  0  0  0  0  0  0  0  0  0  0
    5.7107    0.6909   22.1141 H   0  0  0  0  0  0  0  0  0  0  0  0
    8.6905   -2.3533   26.5810 H   0  0  0  0  0  0  0  0  0  0  0  0
    9.9266   -4.3896   22.9917 H   0  0  0  0  0  0  0  0  0  0  0  0
    8.9233   -0.1992   25.4231 H   0  0  0  0  0  0  0  0  0  0  0  0
   10.0650   -2.2330   21.8256 H   0  0  0  0  0  0  0  0  0  0  0  0
   11.7624    1.3510   25.9426 H   0  0  0  0  0  0  0  0  0  0  0  0
   12.2462    1.4390   21.6566 H   0  0  0  0  0  0  0  0  0  0  0  0
    7.8482   -7.0901   27.4469 H   0  0  0  0  0  0  0  0  0  0  0  0
    6.3760   -6.1438   27.6724 H   0  0  0  0  0  0  0  0  0  0  0  0
    7.6307   -4.0424   27.6403 H   0  0  0  0  0  0  0  0  0  0  0  0
    8.3915   -5.1310   28.7968 H   0  0  0  0  0  0  0  0  0  0  0  0
    6.6888   -6.9376   25.3010 H   0  0  0  0  0  0  0  0  0  0  0  0
    6.5515   -5.1859   25.4257 H   0  0  0  0  0  0  0  0  0  0  0  0
   10.0492   -3.9640   27.3414 H   0  0  0  0  0  0  0  0  0  0  0  0
   10.1431   -5.7254   27.1778 H   0  0  0  0  0  0  0  0  0  0  0  0
    9.1338   -6.7931   25.0868 H   0  0  0  0  0  0  0  0  0  0  0  0
    8.3656   -5.7264   23.8998 H   0  0  0  0  0  0  0  0  0  0  0  0
   15.0990    2.5601   22.6124 H   0  0  0  0  0  0  0  0  0  0  0  0
   15.5636    1.0018   23.3756 H   0  0  0  0  0  0  0  0  0  0  0  0
   14.7841    1.0025   21.7733 H   0  0  0  0  0  0  0  0  0  0  0  0
    9.3974    1.2912   24.5523 H   0  0  0  0  0  0  0  0  0  0  0  0
    9.5159    2.2168   23.0554 H   0  0  0  0  0  0  0  0  0  0  0  0
    8.8326   -1.4554   20.3912 H   0  0  0  0  0  0  0  0  0  0  0  0
    7.5604   -1.1971   21.6201 H   0  0  0  0  0  0  0  0  0  0  0  0
  1  2  1  0  0  0  0
  1  3  2  0  0  0  0
  2  4  2  0  0  0  0
  3 12  1  0  0  0  0
  4 13  1  0  0  0  0
  5  7  2  0  0  0  0
  5 14  1  0  0  0  0
  6  8  1  0  0  0  0
  6 14  2  0  0  0  0
  7 15  1  0  0  0  0
  8 15  2  0  0  0  0
  9 11  1  0  0  0  0
  9 25  2  0  0  0  0
 10 11  2  0  0  0  0
 10 28  1  0  0  0  0
 11 23  1  0  0  0  0
 12 13  2  0  0  0  0
 12 26  1  0  0  0  0
 13 29  1  0  0  0  0
 14 30  1  0  0  0  0
 15 31  1  0  0  0  0
 16 24  1  0  0  0  0
 16 31  1  0  0  0  0
 16 32  2  0  0  0  0
 17 18  1  0  0  0  0
 17 19  1  0  0  0  0
 18 20  1  0  0  0  0
 19 21  1  0  0  0  0
 20 30  1  0  0  0  0
 21 30  1  0  0  0  0
 22 28  1  0  0  0  0
 23 31  1  0  0  0  0
 24 29  1  0  0  0  0
 25 28  1  0  0  0  0
 26 27  2  0  0  0  0
 27 29  1  0  0  0  0
  1 33  1  0  0  0  0
  2 34  1  0  0  0  0
  3 35  1  0  0  0  0
  4 36  1  0  0  0  0
  5 37  1  0  0  0  0
  6 38  1  0  0  0  0
  7 39  1  0  0  0  0
  8 40  1  0  0  0  0
  9 41  1  0  0  0  0
 10 42  1  0  0  0  0
 17 43  1  0  0  0  0
 17 44  1  0  0  0  0
 18 45  1  0  0  0  0
 18 46  1  0  0  0  0
 19 47  1  0  0  0  0
 19 48  1  0  0  0  0
 20 49  1  0  0  0  0
 20 50  1  0  0  0  0
 21 51  1  0  0  0  0
 21 52  1  0  0  0  0
 22 53  1  0  0  0  0
 22 54  1  0  0  0  0
 22 55  1  0  0  0  0
 23 56  1  0  0  0  0
 23 57  1  0  0  0  0
 24 58  1  0  0  0  0
 24 59  1  0  0  0  0
M  END
> <clash_score>
0

> <docking_score>
-8.813533782958984

$$$$
BENZO_349_1
  -OEChem-08212023253D

 47 50  0     0  0  0  0  0  0999 V2000
   14.1526    1.4694   24.0176 C   0  0  0  0  0  0  0  0  0  0  0  0
   13.3741    0.8121   24.9701 C   0  0  0  0  0  0  0  0  0  0  0  0
   13.5446    2.0802   22.9208 C   0  0  0  0  0  0  0  0  0  0  0  0
    3.9160    2.0630   19.5520 C   0  0  0  0  0  0  0  0  0  0  0  0
    4.2750    1.7050   20.8490 C   0  0  0  0  0  0  0  0  0  0  0  0
   11.9875    0.7654   24.8258 C   0  0  0  0  0  0  0  0  0  0  0  0
   12.1580    2.0335   22.7765 C   0  0  0  0  0  0  0  0  0  0  0  0
    8.9960   -2.3380   25.5320 C   0  0  0  0  0  0  0  0  0  0  0  0
    9.6730   -3.4710   23.5300 C   0  0  0  0  0  0  0  0  0  0  0  0
    4.6890    1.6810   18.4640 C   0  0  0  0  0  0  0  0  0  0  0  0
    5.4210    0.9600   21.0930 C   0  0  0  0  0  0  0  0  0  0  0  0
    9.0720   -1.1280   24.8640 C   0  0  0  0  0  0  0  0  0  0  0  0
    9.7200   -2.2600   22.8630 C   0  0  0  0  0  0  0  0  0  0  0  0
    9.3070   -3.5340   24.8780 C   0  0  0  0  0  0  0  0  0  0  0  0
   11.3794    1.3761   23.7290 C   0  0  0  0  0  0  0  0  0  0  0  0
    5.8300    0.9190   18.6970 C   0  0  0  0  0  0  0  0  0  0  0  0
    6.1790    0.5730   19.9990 C   0  0  0  0  0  0  0  0  0  0  0  0
    9.3350   -1.0880   23.5010 C   0  0  0  0  0  0  0  0  0  0  0  0
    9.0420    0.3700   21.5280 C   0  0  0  0  0  0  0  0  0  0  0  0
    9.2505   -4.8264   25.5904 C   0  0  0  0  0  0  0  0  0  0  0  0
    9.8870    1.3260   23.5730 C   0  0  0  0  0  0  0  0  0  0  0  0
    8.1890   -0.7180   20.8700 C   0  0  0  0  0  0  0  0  0  0  0  0
    6.7580    0.3810   17.8350 N   0  0  0  0  0  0  0  0  0  0  0  0
    7.6390   -0.2680   18.5410 N   0  0  0  0  0  0  0  0  0  0  0  0
    7.3170   -0.1610   19.8550 N   0  0  0  0  0  0  0  0  0  0  0  0
    9.4560    0.1560   22.8130 N   0  0  0  0  0  0  0  0  0  0  0  0
    9.2690    1.4140   20.9380 O   0  0  0  0  0  0  0  0  0  0  0  0
   15.2322    1.5068   24.1308 H   0  0  0  0  0  0  0  0  0  0  0  0
   13.8473    0.3374   25.8248 H   0  0  0  0  0  0  0  0  0  0  0  0
   14.1503    2.5930   22.1795 H   0  0  0  0  0  0  0  0  0  0  0  0
    3.0136    2.6524   19.3909 H   0  0  0  0  0  0  0  0  0  0  0  0
    3.6477    2.0141   21.6817 H   0  0  0  0  0  0  0  0  0  0  0  0
   11.3889    0.2508   25.5729 H   0  0  0  0  0  0  0  0  0  0  0  0
   11.6930    2.5120   21.9187 H   0  0  0  0  0  0  0  0  0  0  0  0
    8.6919   -2.3557   26.5813 H   0  0  0  0  0  0  0  0  0  0  0  0
    9.9267   -4.3907   22.9939 H   0  0  0  0  0  0  0  0  0  0  0  0
    4.4041    1.9739   17.4524 H   0  0  0  0  0  0  0  0  0  0  0  0
    5.7107    0.6909   22.1141 H   0  0  0  0  0  0  0  0  0  0  0  0
    8.9217   -0.1995   25.4231 H   0  0  0  0  0  0  0  0  0  0  0  0
   10.0653   -2.2339   21.8256 H   0  0  0  0  0  0  0  0  0  0  0  0
    8.2503   -5.2678   25.5020 H   0  0  0  0  0  0  0  0  0  0  0  0
    9.9817   -5.5374   25.1845 H   0  0  0  0  0  0  0  0  0  0  0  0
    9.4841   -4.7043   26.6562 H   0  0  0  0  0  0  0  0  0  0  0  0
    9.3974    1.2912   24.5523 H   0  0  0  0  0  0  0  0  0  0  0  0
    9.5159    2.2168   23.0554 H   0  0  0  0  0  0  0  0  0  0  0  0
    8.8255   -1.4531   20.3835 H   0  0  0  0  0  0  0  0  0  0  0  0
    7.5533   -1.1948   21.6123 H   0  0  0  0  0  0  0  0  0  0  0  0
  1  2  1  0  0  0  0
  1  3  2  0  0  0  0
  2  6  2  0  0  0  0
  3  7  1  0  0  0  0
  4  5  1  0  0  0  0
  4 10  2  0  0  0  0
  5 11  2  0  0  0  0
  6 15  1  0  0  0  0
  7 15  2  0  0  0  0
  8 12  2  0  0  0  0
  8 14  1  0  0  0  0
  9 13  1  0  0  0  0
  9 14  2  0  0  0  0
 10 16  1  0  0  0  0
 11 17  1  0  0  0  0
 12 18  1  0  0  0  0
 13 18  2  0  0  0  0
 14 20  1  0  0  0  0
 15 21  1  0  0  0  0
 16 17  2  0  0  0  0
 16 23  1  0  0  0  0
 17 25  1  0  0  0  0
 18 26  1  0  0  0  0
 19 22  1  0  0  0  0
 19 26  1  0  0  0  0
 19 27  2  0  0  0  0
 21 26  1  0  0  0  0
 22 25  1  0  0  0  0
 23 24  2  0  0  0  0
 24 25  1  0  0  0  0
  1 28  1  0  0  0  0
  2 29  1  0  0  0  0
  3 30  1  0  0  0  0
  4 31  1  0  0  0  0
  5 32  1  0  0  0  0
  6 33  1  0  0  0  0
  7 34  1  0  0  0  0
  8 35  1  0  0  0  0
  9 36  1  0  0  0  0
 10 37  1  0  0  0  0
 11 38  1  0  0  0  0
 12 39  1  0  0  0  0
 13 40  1  0  0  0  0
 20 41  1  0  0  0  0
 20 42  1  0  0  0  0
 20 43  1  0  0  0  0
 21 44  1  0  0  0  0
 21 45  1  0  0  0  0
 22 46  1  0  0  0  0
 22 47  1  0  0  0  0
M  END
> <clash_score>
0

> <docking_score>
-9.342416763305664

$$$$
BENZO_351_1
  -OEChem-08212023253D

 47 50  0     0  0  0  0  0  0999 V2000
    3.9160    2.0630   19.5520 C   0  0  0  0  0  0  0  0  0  0  0  0
    4.2750    1.7050   20.8490 C   0  0  0  0  0  0  0  0  0  0  0  0
    8.9960   -2.3380   25.5320 C   0  0  0  0  0  0  0  0  0  0  0  0
    9.6730   -3.4710   23.5300 C   0  0  0  0  0  0  0  0  0  0  0  0
    4.6890    1.6810   18.4640 C   0  0  0  0  0  0  0  0  0  0  0  0
    5.4210    0.9600   21.0930 C   0  0  0  0  0  0  0  0  0  0  0  0
    9.0720   -1.1280   24.8640 C   0  0  0  0  0  0  0  0  0  0  0  0
    9.7200   -2.2600   22.8630 C   0  0  0  0  0  0  0  0  0  0  0  0
   12.1233    1.3811   24.9242 C   0  0  0  0  0  0  0  0  0  0  0  0
   12.3262    1.4247   22.7351 C   0  0  0  0  0  0  0  0  0  0  0  0
    9.3070   -3.5340   24.8780 C   0  0  0  0  0  0  0  0  0  0  0  0
   11.3794    1.3761   23.7290 C   0  0  0  0  0  0  0  0  0  0  0  0
    5.8300    0.9190   18.6970 C   0  0  0  0  0  0  0  0  0  0  0  0
    6.1790    0.5730   19.9990 C   0  0  0  0  0  0  0  0  0  0  0  0
    9.3350   -1.0880   23.5010 C   0  0  0  0  0  0  0  0  0  0  0  0
    9.0420    0.3700   21.5280 C   0  0  0  0  0  0  0  0  0  0  0  0
    9.2505   -4.8264   25.5904 C   0  0  0  0  0  0  0  0  0  0  0  0
   14.8305    1.5084   22.7418 C   0  0  0  0  0  0  0  0  0  0  0  0
    9.8870    1.3260   23.5730 C   0  0  0  0  0  0  0  0  0  0  0  0
    8.1890   -0.7180   20.8700 C   0  0  0  0  0  0  0  0  0  0  0  0
   13.4410    1.4289   24.7112 N   0  0  0  0  0  0  0  0  0  0  0  0
    6.7580    0.3810   17.8350 N   0  0  0  0  0  0  0  0  0  0  0  0
    7.6390   -0.2680   18.5410 N   0  0  0  0  0  0  0  0  0  0  0  0
   13.5326    1.4543   23.3706 N   0  0  0  0  0  0  0  0  0  0  0  0
    7.3170   -0.1610   19.8550 N   0  0  0  0  0  0  0  0  0  0  0  0
    9.4560    0.1560   22.8130 N   0  0  0  0  0  0  0  0  0  0  0  0
    9.2690    1.4140   20.9380 O   0  0  0  0  0  0  0  0  0  0  0  0
    3.0136    2.6524   19.3909 H   0  0  0  0  0  0  0  0  0  0  0  0
    3.6477    2.0141   21.6817 H   0  0  0  0  0  0  0  0  0  0  0  0
    8.6919   -2.3557   26.5813 H   0  0  0  0  0  0  0  0  0  0  0  0
    9.9267   -4.3907   22.9939 H   0  0  0  0  0  0  0  0  0  0  0  0
    4.4041    1.9739   17.4524 H   0  0  0  0  0  0  0  0  0  0  0  0
    5.7107    0.6909   22.1141 H   0  0  0  0  0  0  0  0  0  0  0  0
    8.9217   -0.1995   25.4231 H   0  0  0  0  0  0  0  0  0  0  0  0
   10.0653   -2.2339   21.8256 H   0  0  0  0  0  0  0  0  0  0  0  0
   11.7624    1.3510   25.9426 H   0  0  0  0  0  0  0  0  0  0  0  0
   12.2462    1.4390   21.6566 H   0  0  0  0  0  0  0  0  0  0  0  0
    8.2503   -5.2678   25.5020 H   0  0  0  0  0  0  0  0  0  0  0  0
    9.9817   -5.5374   25.1845 H   0  0  0  0  0  0  0  0  0  0  0  0
    9.4841   -4.7043   26.6562 H   0  0  0  0  0  0  0  0  0  0  0  0
   15.0990    2.5601   22.6124 H   0  0  0  0  0  0  0  0  0  0  0  0
   15.5636    1.0018   23.3756 H   0  0  0  0  0  0  0  0  0  0  0  0
   14.7841    1.0025   21.7733 H   0  0  0  0  0  0  0  0  0  0  0  0
    9.3974    1.2912   24.5523 H   0  0  0  0  0  0  0  0  0  0  0  0
    9.5159    2.2168   23.0554 H   0  0  0  0  0  0  0  0  0  0  0  0
    8.8255   -1.4531   20.3835 H   0  0  0  0  0  0  0  0  0  0  0  0
    7.5533   -1.1948   21.6123 H   0  0  0  0  0  0  0  0  0  0  0  0
  1  2  1  0  0  0  0
  1  5  2  0  0  0  0
  2  6  2  0  0  0  0
  3  7  2  0  0  0  0
  3 11  1  0  0  0  0
  4  8  1  0  0  0  0
  4 11  2  0  0  0  0
  5 13  1  0  0  0  0
  6 14  1  0  0  0  0
  7 15  1  0  0  0  0
  8 15  2  0  0  0  0
  9 12  1  0  0  0  0
  9 21  2  0  0  0  0
 10 12  2  0  0  0  0
 10 24  1  0  0  0  0
 11 17  1  0  0  0  0
 12 19  1  0  0  0  0
 13 14  2  0  0  0  0
 13 22  1  0  0  0  0
 14 25  1  0  0  0  0
 15 26  1  0  0  0  0
 16 20  1  0  0  0  0
 16 26  1  0  0  0  0
 16 27  2  0  0  0  0
 18 24  1  0  0  0  0
 19 26  1  0  0  0  0
 20 25  1  0  0  0  0
 21 24  1  0  0  0  0
 22 23  2  0  0  0  0
 23 25  1  0  0  0  0
  1 28  1  0  0  0  0
  2 29  1  0  0  0  0
  3 30  1  0  0  0  0
  4 31  1  0  0  0  0
  5 32  1  0  0  0  0
  6 33  1  0  0  0  0
  7 34  1  0  0  0  0
  8 35  1  0  0  0  0
  9 36  1  0  0  0  0
 10 37  1  0  0  0  0
 17 38  1  0  0  0  0
 17 39  1  0  0  0  0
 17 40  1  0  0  0  0
 18 41  1  0  0  0  0
 18 42  1  0  0  0  0
 18 43  1  0  0  0  0
 19 44  1  0  0  0  0
 19 45  1  0  0  0  0
 20 46  1  0  0  0  0
 20 47  1  0  0  0  0
M  END
> <clash_score>
0

> <docking_score>
-9.05855655670166

$$$$
BENZO_350_1
  -OEChem-08212023253D

 47 50  0     0  0  0  0  0  0999 V2000
    3.9160    2.0630   19.5520 C   0  0  0  0  0  0  0  0  0  0  0  0
    4.2750    1.7050   20.8490 C   0  0  0  0  0  0  0  0  0  0  0  0
    6.4089    2.0844   24.8766 C   0  0  0  0  0  0  0  0  0  0  0  0
    7.4847    1.4191   24.2887 C   0  0  0  0  0  0  0  0  0  0  0  0
    8.9960   -2.3380   25.5320 C   0  0  0  0  0  0  0  0  0  0  0  0
    9.6730   -3.4710   23.5300 C   0  0  0  0  0  0  0  0  0  0  0  0
    4.6890    1.6810   18.4640 C   0  0  0  0  0  0  0  0  0  0  0  0
    5.4210    0.9600   21.0930 C   0  0  0  0  0  0  0  0  0  0  0  0
    9.0720   -1.1280   24.8640 C   0  0  0  0  0  0  0  0  0  0  0  0
    9.7200   -2.2600   22.8630 C   0  0  0  0  0  0  0  0  0  0  0  0
    6.5777    3.3741   25.3805 C   0  0  0  0  0  0  0  0  0  0  0  0
    8.8980    3.3330   24.7088 C   0  0  0  0  0  0  0  0  0  0  0  0
    9.3070   -3.5340   24.8780 C   0  0  0  0  0  0  0  0  0  0  0  0
    8.7292    2.0433   24.2048 C   0  0  0  0  0  0  0  0  0  0  0  0
    5.8300    0.9190   18.6970 C   0  0  0  0  0  0  0  0  0  0  0  0
    6.1790    0.5730   19.9990 C   0  0  0  0  0  0  0  0  0  0  0  0
    9.3350   -1.0880   23.5010 C   0  0  0  0  0  0  0  0  0  0  0  0
    7.8222    3.9984   25.2966 C   0  0  0  0  0  0  0  0  0  0  0  0
    9.0420    0.3700   21.5280 C   0  0  0  0  0  0  0  0  0  0  0  0
    9.2505   -4.8264   25.5904 C   0  0  0  0  0  0  0  0  0  0  0  0
    9.8870    1.3260   23.5730 C   0  0  0  0  0  0  0  0  0  0  0  0
    8.1890   -0.7180   20.8700 C   0  0  0  0  0  0  0  0  0  0  0  0
    6.7580    0.3810   17.8350 N   0  0  0  0  0  0  0  0  0  0  0  0
    7.6390   -0.2680   18.5410 N   0  0  0  0  0  0  0  0  0  0  0  0
    7.3170   -0.1610   19.8550 N   0  0  0  0  0  0  0  0  0  0  0  0
    9.4560    0.1560   22.8130 N   0  0  0  0  0  0  0  0  0  0  0  0
    9.2690    1.4140   20.9380 O   0  0  0  0  0  0  0  0  0  0  0  0
    8.0301    5.5891   25.9196 Cl  0  0  0  0  0  0  0  0  0  0  0  0
    3.0136    2.6524   19.3909 H   0  0  0  0  0  0  0  0  0  0  0  0
    3.6477    2.0141   21.6817 H   0  0  0  0  0  0  0  0  0  0  0  0
    5.4400    1.5979   24.9418 H   0  0  0  0  0  0  0  0  0  0  0  0
    7.3441    0.4143   23.8988 H   0  0  0  0  0  0  0  0  0  0  0  0
    8.6919   -2.3557   26.5813 H   0  0  0  0  0  0  0  0  0  0  0  0
    9.9267   -4.3907   22.9939 H   0  0  0  0  0  0  0  0  0  0  0  0
    4.4041    1.9739   17.4524 H   0  0  0  0  0  0  0  0  0  0  0  0
    5.7107    0.6909   22.1141 H   0  0  0  0  0  0  0  0  0  0  0  0
    8.9217   -0.1995   25.4231 H   0  0  0  0  0  0  0  0  0  0  0  0
   10.0653   -2.2339   21.8256 H   0  0  0  0  0  0  0  0  0  0  0  0
    5.7304    3.8806   25.8363 H   0  0  0  0  0  0  0  0  0  0  0  0
    9.8702    3.8156   24.6405 H   0  0  0  0  0  0  0  0  0  0  0  0
    8.2503   -5.2678   25.5020 H   0  0  0  0  0  0  0  0  0  0  0  0
    9.9817   -5.5374   25.1845 H   0  0  0  0  0  0  0  0  0  0  0  0
    9.4841   -4.7043   26.6562 H   0  0  0  0  0  0  0  0  0  0  0  0
   10.4274    1.9911   22.8906 H   0  0  0  0  0  0  0  0  0  0  0  0
   10.6011    0.9882   24.3313 H   0  0  0  0  0  0  0  0  0  0  0  0
    8.8255   -1.4531   20.3835 H   0  0  0  0  0  0  0  0  0  0  0  0
    7.5533   -1.1948   21.6123 H   0  0  0  0  0  0  0  0  0  0  0  0
  1  2  1  0  0  0  0
  1  7  2  0  0  0  0
  2  8  2  0  0  0  0
  3  4  2  0  0  0  0
  3 11  1  0  0  0  0
  4 14  1  0  0  0  0
  5  9  2  0  0  0  0
  5 13  1  0  0  0  0
  6 10  1  0  0  0  0
  6 13  2  0  0  0  0
  7 15  1  0  0  0  0
  8 16  1  0  0  0  0
  9 17  1  0  0  0  0
 10 17  2  0  0  0  0
 11 18  2  0  0  0  0
 12 14  2  0  0  0  0
 12 18  1  0  0  0  0
 13 20  1  0  0  0  0
 14 21  1  0  0  0  0
 15 16  2  0  0  0  0
 15 23  1  0  0  0  0
 16 25  1  0  0  0  0
 17 26  1  0  0  0  0
 18 28  1  0  0  0  0
 19 22  1  0  0  0  0
 19 26  1  0  0  0  0
 19 27  2  0  0  0  0
 21 26  1  0  0  0  0
 22 25  1  0  0  0  0
 23 24  2  0  0  0  0
 24 25  1  0  0  0  0
  1 29  1  0  0  0  0
  2 30  1  0  0  0  0
  3 31  1  0  0  0  0
  4 32  1  0  0  0  0
  5 33  1  0  0  0  0
  6 34  1  0  0  0  0
  7 35  1  0  0  0  0
  8 36  1  0  0  0  0
  9 37  1  0  0  0  0
 10 38  1  0  0  0  0
 11 39  1  0  0  0  0
 12 40  1  0  0  0  0
 20 41  1  0  0  0  0
 20 42  1  0  0  0  0
 20 43  1  0  0  0  0
 21 44  1  0  0  0  0
 21 45  1  0  0  0  0
 22 46  1  0  0  0  0
 22 47  1  0  0  0  0
M  END
> <clash_score>
0

> <docking_score>
-8.728435516357422

$$$$
BENZO_348_1
  -OEChem-08212023253D

 44 47  0     0  0  0  0  0  0999 V2000
    3.9160    2.0630   19.5520 C   0  0  0  0  0  0  0  0  0  0  0  0
    4.2750    1.7050   20.8490 C   0  0  0  0  0  0  0  0  0  0  0  0
    8.9960   -2.3380   25.5320 C   0  0  0  0  0  0  0  0  0  0  0  0
    9.6730   -3.4710   23.5300 C   0  0  0  0  0  0  0  0  0  0  0  0
    4.6890    1.6810   18.4640 C   0  0  0  0  0  0  0  0  0  0  0  0
    5.4210    0.9600   21.0930 C   0  0  0  0  0  0  0  0  0  0  0  0
    9.0720   -1.1280   24.8640 C   0  0  0  0  0  0  0  0  0  0  0  0
    9.7200   -2.2600   22.8630 C   0  0  0  0  0  0  0  0  0  0  0  0
   12.2913    1.4279   22.6355 C   0  0  0  0  0  0  0  0  0  0  0  0
   13.6024    1.4662   23.0564 C   0  0  0  0  0  0  0  0  0  0  0  0
   12.0284    1.3764   24.9443 C   0  0  0  0  0  0  0  0  0  0  0  0
    9.3070   -3.5340   24.8780 C   0  0  0  0  0  0  0  0  0  0  0  0
   11.3794    1.3761   23.7290 C   0  0  0  0  0  0  0  0  0  0  0  0
    5.8300    0.9190   18.6970 C   0  0  0  0  0  0  0  0  0  0  0  0
    6.1790    0.5730   19.9990 C   0  0  0  0  0  0  0  0  0  0  0  0
    9.3350   -1.0880   23.5010 C   0  0  0  0  0  0  0  0  0  0  0  0
    9.0420    0.3700   21.5280 C   0  0  0  0  0  0  0  0  0  0  0  0
    9.2505   -4.8264   25.5904 C   0  0  0  0  0  0  0  0  0  0  0  0
    9.8870    1.3260   23.5730 C   0  0  0  0  0  0  0  0  0  0  0  0
    8.1890   -0.7180   20.8700 C   0  0  0  0  0  0  0  0  0  0  0  0
    6.7580    0.3810   17.8350 N   0  0  0  0  0  0  0  0  0  0  0  0
    7.6390   -0.2680   18.5410 N   0  0  0  0  0  0  0  0  0  0  0  0
    7.3170   -0.1610   19.8550 N   0  0  0  0  0  0  0  0  0  0  0  0
    9.4560    0.1560   22.8130 N   0  0  0  0  0  0  0  0  0  0  0  0
    9.2690    1.4140   20.9380 O   0  0  0  0  0  0  0  0  0  0  0  0
   13.7301    1.4394   24.7638 S   0  0  0  0  0  0  0  0  0  0  0  0
    3.0136    2.6524   19.3909 H   0  0  0  0  0  0  0  0  0  0  0  0
    3.6477    2.0141   21.6817 H   0  0  0  0  0  0  0  0  0  0  0  0
    8.6919   -2.3557   26.5813 H   0  0  0  0  0  0  0  0  0  0  0  0
    9.9267   -4.3907   22.9939 H   0  0  0  0  0  0  0  0  0  0  0  0
    4.4041    1.9739   17.4524 H   0  0  0  0  0  0  0  0  0  0  0  0
    5.7107    0.6909   22.1141 H   0  0  0  0  0  0  0  0  0  0  0  0
    8.9217   -0.1995   25.4231 H   0  0  0  0  0  0  0  0  0  0  0  0
   10.0653   -2.2339   21.8256 H   0  0  0  0  0  0  0  0  0  0  0  0
   12.0045    1.4365   21.5915 H   0  0  0  0  0  0  0  0  0  0  0  0
   14.4914    1.5078   22.4431 H   0  0  0  0  0  0  0  0  0  0  0  0
   11.5886    1.3416   25.9314 H   0  0  0  0  0  0  0  0  0  0  0  0
    8.2503   -5.2678   25.5020 H   0  0  0  0  0  0  0  0  0  0  0  0
    9.9817   -5.5374   25.1845 H   0  0  0  0  0  0  0  0  0  0  0  0
    9.4841   -4.7043   26.6562 H   0  0  0  0  0  0  0  0  0  0  0  0
    9.3974    1.2912   24.5523 H   0  0  0  0  0  0  0  0  0  0  0  0
    9.5159    2.2168   23.0554 H   0  0  0  0  0  0  0  0  0  0  0  0
    8.8255   -1.4531   20.3835 H   0  0  0  0  0  0  0  0  0  0  0  0
    7.5533   -1.1948   21.6123 H   0  0  0  0  0  0  0  0  0  0  0  0
  1  2  1  0  0  0  0
  1  5  2  0  0  0  0
  2  6  2  0  0  0  0
  3  7  2  0  0  0  0
  3 12  1  0  0  0  0
  4  8  1  0  0  0  0
  4 12  2  0  0  0  0
  5 14  1  0  0  0  0
  6 15  1  0  0  0  0
  7 16  1  0  0  0  0
  8 16  2  0  0  0  0
  9 10  2  0  0  0  0
  9 13  1  0  0  0  0
 10 26  1  0  0  0  0
 11 13  2  0  0  0  0
 11 26  1  0  0  0  0
 12 18  1  0  0  0  0
 13 19  1  0  0  0  0
 14 15  2  0  0  0  0
 14 21  1  0  0  0  0
 15 23  1  0  0  0  0
 16 24  1  0  0  0  0
 17 20  1  0  0  0  0
 17 24  1  0  0  0  0
 17 25  2  0  0  0  0
 19 24  1  0  0  0  0
 20 23  1  0  0  0  0
 21 22  2  0  0  0  0
 22 23  1  0  0  0  0
  1 27  1  0  0  0  0
  2 28  1  0  0  0  0
  3 29  1  0  0  0  0
  4 30  1  0  0  0  0
  5 31  1  0  0  0  0
  6 32  1  0  0  0  0
  7 33  1  0  0  0  0
  8 34  1  0  0  0  0
  9 35  1  0  0  0  0
 10 36  1  0  0  0  0
 11 37  1  0  0  0  0
 18 38  1  0  0  0  0
 18 39  1  0  0  0  0
 18 40  1  0  0  0  0
 19 41  1  0  0  0  0
 19 42  1  0  0  0  0
 20 43  1  0  0  0  0
 20 44  1  0  0  0  0
M  END
> <clash_score>
0

> <docking_score>
-9.421279907226562

$$$$
BENZO_353_1
  -OEChem-08212023293D

 48 51  0     0  0  0  0  0  0999 V2000
   14.1526    1.4694   24.0176 C   0  0  0  0  0  0  0  0  0  0  0  0
   13.3741    0.8121   24.9701 C   0  0  0  0  0  0  0  0  0  0  0  0
   13.5446    2.0802   22.9208 C   0  0  0  0  0  0  0  0  0  0  0  0
    3.9160    2.0630   19.5520 C   0  0  0  0  0  0  0  0  0  0  0  0
    4.2750    1.7050   20.8490 C   0  0  0  0  0  0  0  0  0  0  0  0
   11.9875    0.7654   24.8258 C   0  0  0  0  0  0  0  0  0  0  0  0
   12.1580    2.0335   22.7765 C   0  0  0  0  0  0  0  0  0  0  0  0
    4.6890    1.6810   18.4640 C   0  0  0  0  0  0  0  0  0  0  0  0
    5.4210    0.9600   21.0930 C   0  0  0  0  0  0  0  0  0  0  0  0
    9.0720   -1.1280   24.8640 C   0  0  0  0  0  0  0  0  0  0  0  0
    9.7200   -2.2600   22.8630 C   0  0  0  0  0  0  0  0  0  0  0  0
    8.9960   -2.3380   25.5320 C   0  0  0  0  0  0  0  0  0  0  0  0
    9.6730   -3.4710   23.5300 C   0  0  0  0  0  0  0  0  0  0  0  0
   11.3794    1.3761   23.7290 C   0  0  0  0  0  0  0  0  0  0  0  0
    5.8300    0.9190   18.6970 C   0  0  0  0  0  0  0  0  0  0  0  0
    6.1790    0.5730   19.9990 C   0  0  0  0  0  0  0  0  0  0  0  0
    9.3350   -1.0880   23.5010 C   0  0  0  0  0  0  0  0  0  0  0  0
    9.3070   -3.5340   24.8780 C   0  0  0  0  0  0  0  0  0  0  0  0
    9.0420    0.3700   21.5280 C   0  0  0  0  0  0  0  0  0  0  0  0
    8.8720   -4.6805   26.9013 C   0  0  0  0  0  0  0  0  0  0  0  0
    9.8870    1.3260   23.5730 C   0  0  0  0  0  0  0  0  0  0  0  0
    8.1890   -0.7180   20.8700 C   0  0  0  0  0  0  0  0  0  0  0  0
    6.7580    0.3810   17.8350 N   0  0  0  0  0  0  0  0  0  0  0  0
    7.6390   -0.2680   18.5410 N   0  0  0  0  0  0  0  0  0  0  0  0
    7.3170   -0.1610   19.8550 N   0  0  0  0  0  0  0  0  0  0  0  0
    9.4560    0.1560   22.8130 N   0  0  0  0  0  0  0  0  0  0  0  0
    9.2690    1.4140   20.9380 O   0  0  0  0  0  0  0  0  0  0  0  0
    9.2555   -4.7124   25.5274 O   0  0  0  0  0  0  0  0  0  0  0  0
   15.2322    1.5068   24.1308 H   0  0  0  0  0  0  0  0  0  0  0  0
   13.8473    0.3374   25.8248 H   0  0  0  0  0  0  0  0  0  0  0  0
   14.1503    2.5930   22.1795 H   0  0  0  0  0  0  0  0  0  0  0  0
    3.0136    2.6524   19.3909 H   0  0  0  0  0  0  0  0  0  0  0  0
    3.6477    2.0141   21.6817 H   0  0  0  0  0  0  0  0  0  0  0  0
   11.3889    0.2508   25.5729 H   0  0  0  0  0  0  0  0  0  0  0  0
   11.6930    2.5120   21.9187 H   0  0  0  0  0  0  0  0  0  0  0  0
    4.4041    1.9739   17.4524 H   0  0  0  0  0  0  0  0  0  0  0  0
    5.7107    0.6909   22.1141 H   0  0  0  0  0  0  0  0  0  0  0  0
    8.9221   -0.1995   25.4231 H   0  0  0  0  0  0  0  0  0  0  0  0
   10.0642   -2.2347   21.8253 H   0  0  0  0  0  0  0  0  0  0  0  0
    8.6902   -2.3588   26.5805 H   0  0  0  0  0  0  0  0  0  0  0  0
    9.9254   -4.3921   22.9961 H   0  0  0  0  0  0  0  0  0  0  0  0
    8.8711   -5.6964   27.3038 H   0  0  0  0  0  0  0  0  0  0  0  0
    7.8758   -4.2402   26.9923 H   0  0  0  0  0  0  0  0  0  0  0  0
    9.5894   -4.0716   27.4566 H   0  0  0  0  0  0  0  0  0  0  0  0
    9.3974    1.2912   24.5523 H   0  0  0  0  0  0  0  0  0  0  0  0
    9.5159    2.2168   23.0554 H   0  0  0  0  0  0  0  0  0  0  0  0
    8.8255   -1.4531   20.3835 H   0  0  0  0  0  0  0  0  0  0  0  0
    7.5533   -1.1948   21.6123 H   0  0  0  0  0  0  0  0  0  0  0  0
  1  2  1  0  0  0  0
  1  3  2  0  0  0  0
  2  6  2  0  0  0  0
  3  7  1  0  0  0  0
  4  5  1  0  0  0  0
  4  8  2  0  0  0  0
  5  9  2  0  0  0  0
  6 14  1  0  0  0  0
  7 14  2  0  0  0  0
  8 15  1  0  0  0  0
  9 16  1  0  0  0  0
 10 12  2  0  0  0  0
 10 17  1  0  0  0  0
 11 13  1  0  0  0  0
 11 17  2  0  0  0  0
 12 18  1  0  0  0  0
 13 18  2  0  0  0  0
 14 21  1  0  0  0  0
 15 16  2  0  0  0  0
 15 23  1  0  0  0  0
 16 25  1  0  0  0  0
 17 26  1  0  0  0  0
 18 28  1  0  0  0  0
 19 22  1  0  0  0  0
 19 26  1  0  0  0  0
 19 27  2  0  0  0  0
 20 28  1  0  0  0  0
 21 26  1  0  0  0  0
 22 25  1  0  0  0  0
 23 24  2  0  0  0  0
 24 25  1  0  0  0  0
  1 29  1  0  0  0  0
  2 30  1  0  0  0  0
  3 31  1  0  0  0  0
  4 32  1  0  0  0  0
  5 33  1  0  0  0  0
  6 34  1  0  0  0  0
  7 35  1  0  0  0  0
  8 36  1  0  0  0  0
  9 37  1  0  0  0  0
 10 38  1  0  0  0  0
 11 39  1  0  0  0  0
 12 40  1  0  0  0  0
 13 41  1  0  0  0  0
 20 42  1  0  0  0  0
 20 43  1  0  0  0  0
 20 44  1  0  0  0  0
 21 45  1  0  0  0  0
 21 46  1  0  0  0  0
 22 47  1  0  0  0  0
 22 48  1  0  0  0  0
M  END
> <clash_score>
0

> <docking_score>
-9.078725814819336

$$$$
BENZO_352_1
  -OEChem-08212023293D

 45 48  0     0  0  0  0  0  0999 V2000
    3.9160    2.0630   19.5520 C   0  0  0  0  0  0  0  0  0  0  0  0
    4.2750    1.7050   20.8490 C   0  0  0  0  0  0  0  0  0  0  0  0
    4.6890    1.6810   18.4640 C   0  0  0  0  0  0  0  0  0  0  0  0
    5.4210    0.9600   21.0930 C   0  0  0  0  0  0  0  0  0  0  0  0
    9.0720   -1.1280   24.8640 C   0  0  0  0  0  0  0  0  0  0  0  0
    9.7200   -2.2600   22.8630 C   0  0  0  0  0  0  0  0  0  0  0  0
    8.9960   -2.3380   25.5320 C   0  0  0  0  0  0  0  0  0  0  0  0
    9.6730   -3.4710   23.5300 C   0  0  0  0  0  0  0  0  0  0  0  0
   12.2913    1.4279   22.6355 C   0  0  0  0  0  0  0  0  0  0  0  0
   13.6024    1.4662   23.0564 C   0  0  0  0  0  0  0  0  0  0  0  0
   12.0284    1.3764   24.9443 C   0  0  0  0  0  0  0  0  0  0  0  0
   11.3794    1.3761   23.7290 C   0  0  0  0  0  0  0  0  0  0  0  0
    5.8300    0.9190   18.6970 C   0  0  0  0  0  0  0  0  0  0  0  0
    6.1790    0.5730   19.9990 C   0  0  0  0  0  0  0  0  0  0  0  0
    9.3350   -1.0880   23.5010 C   0  0  0  0  0  0  0  0  0  0  0  0
    9.3070   -3.5340   24.8780 C   0  0  0  0  0  0  0  0  0  0  0  0
    9.0420    0.3700   21.5280 C   0  0  0  0  0  0  0  0  0  0  0  0
    8.8720   -4.6805   26.9013 C   0  0  0  0  0  0  0  0  0  0  0  0
    9.8870    1.3260   23.5730 C   0  0  0  0  0  0  0  0  0  0  0  0
    8.1890   -0.7180   20.8700 C   0  0  0  0  0  0  0  0  0  0  0  0
    6.7580    0.3810   17.8350 N   0  0  0  0  0  0  0  0  0  0  0  0
    7.6390   -0.2680   18.5410 N   0  0  0  0  0  0  0  0  0  0  0  0
    7.3170   -0.1610   19.8550 N   0  0  0  0  0  0  0  0  0  0  0  0
    9.4560    0.1560   22.8130 N   0  0  0  0  0  0  0  0  0  0  0  0
    9.2690    1.4140   20.9380 O   0  0  0  0  0  0  0  0  0  0  0  0
    9.2555   -4.7124   25.5274 O   0  0  0  0  0  0  0  0  0  0  0  0
   13.7301    1.4394   24.7638 S   0  0  0  0  0  0  0  0  0  0  0  0
    3.0136    2.6524   19.3909 H   0  0  0  0  0  0  0  0  0  0  0  0
    3.6477    2.0141   21.6817 H   0  0  0  0  0  0  0  0  0  0  0  0
    4.4041    1.9739   17.4524 H   0  0  0  0  0  0  0  0  0  0  0  0
    5.7107    0.6909   22.1141 H   0  0  0  0  0  0  0  0  0  0  0  0
    8.9221   -0.1995   25.4231 H   0  0  0  0  0  0  0  0  0  0  0  0
   10.0642   -2.2347   21.8253 H   0  0  0  0  0  0  0  0  0  0  0  0
    8.6902   -2.3588   26.5805 H   0  0  0  0  0  0  0  0  0  0  0  0
    9.9254   -4.3921   22.9961 H   0  0  0  0  0  0  0  0  0  0  0  0
   12.0045    1.4365   21.5915 H   0  0  0  0  0  0  0  0  0  0  0  0
   14.4914    1.5078   22.4431 H   0  0  0  0  0  0  0  0  0  0  0  0
   11.5886    1.3416   25.9314 H   0  0  0  0  0  0  0  0  0  0  0  0
    8.8711   -5.6964   27.3038 H   0  0  0  0  0  0  0  0  0  0  0  0
    7.8758   -4.2402   26.9923 H   0  0  0  0  0  0  0  0  0  0  0  0
    9.5894   -4.0716   27.4566 H   0  0  0  0  0  0  0  0  0  0  0  0
    9.3974    1.2912   24.5523 H   0  0  0  0  0  0  0  0  0  0  0  0
    9.5159    2.2168   23.0554 H   0  0  0  0  0  0  0  0  0  0  0  0
    8.8255   -1.4531   20.3835 H   0  0  0  0  0  0  0  0  0  0  0  0
    7.5533   -1.1948   21.6123 H   0  0  0  0  0  0  0  0  0  0  0  0
  1  2  1  0  0  0  0
  1  3  2  0  0  0  0
  2  4  2  0  0  0  0
  3 13  1  0  0  0  0
  4 14  1  0  0  0  0
  5  7  2  0  0  0  0
  5 15  1  0  0  0  0
  6  8  1  0  0  0  0
  6 15  2  0  0  0  0
  7 16  1  0  0  0  0
  8 16  2  0  0  0  0
  9 10  2  0  0  0  0
  9 12  1  0  0  0  0
 10 27  1  0  0  0  0
 11 12  2  0  0  0  0
 11 27  1  0  0  0  0
 12 19  1  0  0  0  0
 13 14  2  0  0  0  0
 13 21  1  0  0  0  0
 14 23  1  0  0  0  0
 15 24  1  0  0  0  0
 16 26  1  0  0  0  0
 17 20  1  0  0  0  0
 17 24  1  0  0  0  0
 17 25  2  0  0  0  0
 18 26  1  0  0  0  0
 19 24  1  0  0  0  0
 20 23  1  0  0  0  0
 21 22  2  0  0  0  0
 22 23  1  0  0  0  0
  1 28  1  0  0  0  0
  2 29  1  0  0  0  0
  3 30  1  0  0  0  0
  4 31  1  0  0  0  0
  5 32  1  0  0  0  0
  6 33  1  0  0  0  0
  7 34  1  0  0  0  0
  8 35  1  0  0  0  0
  9 36  1  0  0  0  0
 10 37  1  0  0  0  0
 11 38  1  0  0  0  0
 18 39  1  0  0  0  0
 18 40  1  0  0  0  0
 18 41  1  0  0  0  0
 19 42  1  0  0  0  0
 19 43  1  0  0  0  0
 20 44  1  0  0  0  0
 20 45  1  0  0  0  0
M  END
> <clash_score>
0

> <docking_score>
-9.157585144042969

$$$$
BENZO_355_1
  -OEChem-08212023293D

 48 51  0     0  0  0  0  0  0999 V2000
    3.9160    2.0630   19.5520 C   0  0  0  0  0  0  0  0  0  0  0  0
    4.2750    1.7050   20.8490 C   0  0  0  0  0  0  0  0  0  0  0  0
    4.6890    1.6810   18.4640 C   0  0  0  0  0  0  0  0  0  0  0  0
    5.4210    0.9600   21.0930 C   0  0  0  0  0  0  0  0  0  0  0  0
    9.0720   -1.1280   24.8640 C   0  0  0  0  0  0  0  0  0  0  0  0
    9.7200   -2.2600   22.8630 C   0  0  0  0  0  0  0  0  0  0  0  0
    8.9960   -2.3380   25.5320 C   0  0  0  0  0  0  0  0  0  0  0  0
    9.6730   -3.4710   23.5300 C   0  0  0  0  0  0  0  0  0  0  0  0
   12.1233    1.3811   24.9242 C   0  0  0  0  0  0  0  0  0  0  0  0
   12.3262    1.4247   22.7351 C   0  0  0  0  0  0  0  0  0  0  0  0
   11.3794    1.3761   23.7290 C   0  0  0  0  0  0  0  0  0  0  0  0
    5.8300    0.9190   18.6970 C   0  0  0  0  0  0  0  0  0  0  0  0
    6.1790    0.5730   19.9990 C   0  0  0  0  0  0  0  0  0  0  0  0
    9.3350   -1.0880   23.5010 C   0  0  0  0  0  0  0  0  0  0  0  0
    9.3070   -3.5340   24.8780 C   0  0  0  0  0  0  0  0  0  0  0  0
    9.0420    0.3700   21.5280 C   0  0  0  0  0  0  0  0  0  0  0  0
   14.8305    1.5084   22.7418 C   0  0  0  0  0  0  0  0  0  0  0  0
    8.8720   -4.6805   26.9013 C   0  0  0  0  0  0  0  0  0  0  0  0
    9.8870    1.3260   23.5730 C   0  0  0  0  0  0  0  0  0  0  0  0
    8.1890   -0.7180   20.8700 C   0  0  0  0  0  0  0  0  0  0  0  0
   13.4410    1.4289   24.7112 N   0  0  0  0  0  0  0  0  0  0  0  0
    6.7580    0.3810   17.8350 N   0  0  0  0  0  0  0  0  0  0  0  0
    7.6390   -0.2680   18.5410 N   0  0  0  0  0  0  0  0  0  0  0  0
   13.5326    1.4543   23.3706 N   0  0  0  0  0  0  0  0  0  0  0  0
    7.3170   -0.1610   19.8550 N   0  0  0  0  0  0  0  0  0  0  0  0
    9.4560    0.1560   22.8130 N   0  0  0  0  0  0  0  0  0  0  0  0
    9.2690    1.4140   20.9380 O   0  0  0  0  0  0  0  0  0  0  0  0
    9.2555   -4.7124   25.5274 O   0  0  0  0  0  0  0  0  0  0  0  0
    3.0136    2.6524   19.3909 H   0  0  0  0  0  0  0  0  0  0  0  0
    3.6477    2.0141   21.6817 H   0  0  0  0  0  0  0  0  0  0  0  0
    4.4041    1.9739   17.4524 H   0  0  0  0  0  0  0  0  0  0  0  0
    5.7107    0.6909   22.1141 H   0  0  0  0  0  0  0  0  0  0  0  0
    8.9221   -0.1995   25.4231 H   0  0  0  0  0  0  0  0  0  0  0  0
   10.0642   -2.2347   21.8253 H   0  0  0  0  0  0  0  0  0  0  0  0
    8.6902   -2.3588   26.5805 H   0  0  0  0  0  0  0  0  0  0  0  0
    9.9254   -4.3921   22.9961 H   0  0  0  0  0  0  0  0  0  0  0  0
   11.7624    1.3510   25.9426 H   0  0  0  0  0  0  0  0  0  0  0  0
   12.2462    1.4390   21.6566 H   0  0  0  0  0  0  0  0  0  0  0  0
   15.0990    2.5601   22.6124 H   0  0  0  0  0  0  0  0  0  0  0  0
   15.5636    1.0018   23.3756 H   0  0  0  0  0  0  0  0  0  0  0  0
   14.7841    1.0025   21.7733 H   0  0  0  0  0  0  0  0  0  0  0  0
    8.8711   -5.6964   27.3038 H   0  0  0  0  0  0  0  0  0  0  0  0
    7.8758   -4.2402   26.9923 H   0  0  0  0  0  0  0  0  0  0  0  0
    9.5894   -4.0716   27.4566 H   0  0  0  0  0  0  0  0  0  0  0  0
    9.3974    1.2912   24.5523 H   0  0  0  0  0  0  0  0  0  0  0  0
    9.5159    2.2168   23.0554 H   0  0  0  0  0  0  0  0  0  0  0  0
    8.8255   -1.4531   20.3835 H   0  0  0  0  0  0  0  0  0  0  0  0
    7.5533   -1.1948   21.6123 H   0  0  0  0  0  0  0  0  0  0  0  0
  1  2  1  0  0  0  0
  1  3  2  0  0  0  0
  2  4  2  0  0  0  0
  3 12  1  0  0  0  0
  4 13  1  0  0  0  0
  5  7  2  0  0  0  0
  5 14  1  0  0  0  0
  6  8  1  0  0  0  0
  6 14  2  0  0  0  0
  7 15  1  0  0  0  0
  8 15  2  0  0  0  0
  9 11  1  0  0  0  0
  9 21  2  0  0  0  0
 10 11  2  0  0  0  0
 10 24  1  0  0  0  0
 11 19  1  0  0  0  0
 12 13  2  0  0  0  0
 12 22  1  0  0  0  0
 13 25  1  0  0  0  0
 14 26  1  0  0  0  0
 15 28  1  0  0  0  0
 16 20  1  0  0  0  0
 16 26  1  0  0  0  0
 16 27  2  0  0  0  0
 17 24  1  0  0  0  0
 18 28  1  0  0  0  0
 19 26  1  0  0  0  0
 20 25  1  0  0  0  0
 21 24  1  0  0  0  0
 22 23  2  0  0  0  0
 23 25  1  0  0  0  0
  1 29  1  0  0  0  0
  2 30  1  0  0  0  0
  3 31  1  0  0  0  0
  4 32  1  0  0  0  0
  5 33  1  0  0  0  0
  6 34  1  0  0  0  0
  7 35  1  0  0  0  0
  8 36  1  0  0  0  0
  9 37  1  0  0  0  0
 10 38  1  0  0  0  0
 17 39  1  0  0  0  0
 17 40  1  0  0  0  0
 17 41  1  0  0  0  0
 18 42  1  0  0  0  0
 18 43  1  0  0  0  0
 18 44  1  0  0  0  0
 19 45  1  0  0  0  0
 19 46  1  0  0  0  0
 20 47  1  0  0  0  0
 20 48  1  0  0  0  0
M  END
> <clash_score>
0

> <docking_score>
-8.794862747192383

$$$$
BENZO_354_1
  -OEChem-08212023293D

 48 51  0     0  0  0  0  0  0999 V2000
    3.9160    2.0630   19.5520 C   0  0  0  0  0  0  0  0  0  0  0  0
    4.2750    1.7050   20.8490 C   0  0  0  0  0  0  0  0  0  0  0  0
    6.4089    2.0844   24.8766 C   0  0  0  0  0  0  0  0  0  0  0  0
    7.4847    1.4191   24.2887 C   0  0  0  0  0  0  0  0  0  0  0  0
    4.6890    1.6810   18.4640 C   0  0  0  0  0  0  0  0  0  0  0  0
    5.4210    0.9600   21.0930 C   0  0  0  0  0  0  0  0  0  0  0  0
    9.0720   -1.1280   24.8640 C   0  0  0  0  0  0  0  0  0  0  0  0
    9.7200   -2.2600   22.8630 C   0  0  0  0  0  0  0  0  0  0  0  0
    8.9960   -2.3380   25.5320 C   0  0  0  0  0  0  0  0  0  0  0  0
    9.6730   -3.4710   23.5300 C   0  0  0  0  0  0  0  0  0  0  0  0
    6.5777    3.3741   25.3805 C   0  0  0  0  0  0  0  0  0  0  0  0
    8.8980    3.3330   24.7088 C   0  0  0  0  0  0  0  0  0  0  0  0
    8.7292    2.0433   24.2048 C   0  0  0  0  0  0  0  0  0  0  0  0
    5.8300    0.9190   18.6970 C   0  0  0  0  0  0  0  0  0  0  0  0
    6.1790    0.5730   19.9990 C   0  0  0  0  0  0  0  0  0  0  0  0
    9.3350   -1.0880   23.5010 C   0  0  0  0  0  0  0  0  0  0  0  0
    9.3070   -3.5340   24.8780 C   0  0  0  0  0  0  0  0  0  0  0  0
    7.8222    3.9984   25.2966 C   0  0  0  0  0  0  0  0  0  0  0  0
    9.0420    0.3700   21.5280 C   0  0  0  0  0  0  0  0  0  0  0  0
    8.8720   -4.6805   26.9013 C   0  0  0  0  0  0  0  0  0  0  0  0
    9.8870    1.3260   23.5730 C   0  0  0  0  0  0  0  0  0  0  0  0
    8.1890   -0.7180   20.8700 C   0  0  0  0  0  0  0  0  0  0  0  0
    6.7580    0.3810   17.8350 N   0  0  0  0  0  0  0  0  0  0  0  0
    7.6390   -0.2680   18.5410 N   0  0  0  0  0  0  0  0  0  0  0  0
    7.3170   -0.1610   19.8550 N   0  0  0  0  0  0  0  0  0  0  0  0
    9.4560    0.1560   22.8130 N   0  0  0  0  0  0  0  0  0  0  0  0
    9.2690    1.4140   20.9380 O   0  0  0  0  0  0  0  0  0  0  0  0
    9.2555   -4.7124   25.5274 O   0  0  0  0  0  0  0  0  0  0  0  0
    8.0301    5.5891   25.9196 Cl  0  0  0  0  0  0  0  0  0  0  0  0
    3.0136    2.6524   19.3909 H   0  0  0  0  0  0  0  0  0  0  0  0
    3.6477    2.0141   21.6817 H   0  0  0  0  0  0  0  0  0  0  0  0
    5.4400    1.5979   24.9418 H   0  0  0  0  0  0  0  0  0  0  0  0
    7.3441    0.4143   23.8988 H   0  0  0  0  0  0  0  0  0  0  0  0
    4.4041    1.9739   17.4524 H   0  0  0  0  0  0  0  0  0  0  0  0
    5.7107    0.6909   22.1141 H   0  0  0  0  0  0  0  0  0  0  0  0
    8.9221   -0.1995   25.4231 H   0  0  0  0  0  0  0  0  0  0  0  0
   10.0642   -2.2347   21.8253 H   0  0  0  0  0  0  0  0  0  0  0  0
    8.6902   -2.3588   26.5805 H   0  0  0  0  0  0  0  0  0  0  0  0
    9.9254   -4.3921   22.9961 H   0  0  0  0  0  0  0  0  0  0  0  0
    5.7304    3.8806   25.8363 H   0  0  0  0  0  0  0  0  0  0  0  0
    9.8702    3.8156   24.6405 H   0  0  0  0  0  0  0  0  0  0  0  0
    8.8711   -5.6964   27.3038 H   0  0  0  0  0  0  0  0  0  0  0  0
    7.8758   -4.2402   26.9923 H   0  0  0  0  0  0  0  0  0  0  0  0
    9.5894   -4.0716   27.4566 H   0  0  0  0  0  0  0  0  0  0  0  0
   10.4274    1.9911   22.8906 H   0  0  0  0  0  0  0  0  0  0  0  0
   10.6011    0.9882   24.3313 H   0  0  0  0  0  0  0  0  0  0  0  0
    8.8255   -1.4531   20.3835 H   0  0  0  0  0  0  0  0  0  0  0  0
    7.5533   -1.1948   21.6123 H   0  0  0  0  0  0  0  0  0  0  0  0
  1  2  1  0  0  0  0
  1  5  2  0  0  0  0
  2  6  2  0  0  0  0
  3  4  2  0  0  0  0
  3 11  1  0  0  0  0
  4 13  1  0  0  0  0
  5 14  1  0  0  0  0
  6 15  1  0  0  0  0
  7  9  2  0  0  0  0
  7 16  1  0  0  0  0
  8 10  1  0  0  0  0
  8 16  2  0  0  0  0
  9 17  1  0  0  0  0
 10 17  2  0  0  0  0
 11 18  2  0  0  0  0
 12 13  2  0  0  0  0
 12 18  1  0  0  0  0
 13 21  1  0  0  0  0
 14 15  2  0  0  0  0
 14 23  1  0  0  0  0
 15 25  1  0  0  0  0
 16 26  1  0  0  0  0
 17 28  1  0  0  0  0
 18 29  1  0  0  0  0
 19 22  1  0  0  0  0
 19 26  1  0  0  0  0
 19 27  2  0  0  0  0
 20 28  1  0  0  0  0
 21 26  1  0  0  0  0
 22 25  1  0  0  0  0
 23 24  2  0  0  0  0
 24 25  1  0  0  0  0
  1 30  1  0  0  0  0
  2 31  1  0  0  0  0
  3 32  1  0  0  0  0
  4 33  1  0  0  0  0
  5 34  1  0  0  0  0
  6 35  1  0  0  0  0
  7 36  1  0  0  0  0
  8 37  1  0  0  0  0
  9 38  1  0  0  0  0
 10 39  1  0  0  0  0
 11 40  1  0  0  0  0
 12 41  1  0  0  0  0
 20 42  1  0  0  0  0
 20 43  1  0  0  0  0
 20 44  1  0  0  0  0
 21 45  1  0  0  0  0
 21 46  1  0  0  0  0
 22 47  1  0  0  0  0
 22 48  1  0  0  0  0
M  END
> <clash_score>
0

> <docking_score>
-8.464741706848145

$$$$
BENZO_359_1
  -OEChem-08212023293D

 58 62  0     0  0  0  0  0  0999 V2000
    3.9160    2.0630   19.5520 C   0  0  0  0  0  0  0  0  0  0  0  0
    4.2750    1.7050   20.8490 C   0  0  0  0  0  0  0  0  0  0  0  0
    4.6890    1.6810   18.4640 C   0  0  0  0  0  0  0  0  0  0  0  0
    5.4210    0.9600   21.0930 C   0  0  0  0  0  0  0  0  0  0  0  0
    8.9960   -2.3380   25.5320 C   0  0  0  0  0  0  0  0  0  0  0  0
    9.6730   -3.4710   23.5300 C   0  0  0  0  0  0  0  0  0  0  0  0
    9.0720   -1.1280   24.8640 C   0  0  0  0  0  0  0  0  0  0  0  0
    9.7200   -2.2600   22.8630 C   0  0  0  0  0  0  0  0  0  0  0  0
   12.1233    1.3811   24.9242 C   0  0  0  0  0  0  0  0  0  0  0  0
   12.3262    1.4247   22.7351 C   0  0  0  0  0  0  0  0  0  0  0  0
   11.3794    1.3761   23.7290 C   0  0  0  0  0  0  0  0  0  0  0  0
    5.8300    0.9190   18.6970 C   0  0  0  0  0  0  0  0  0  0  0  0
    6.1790    0.5730   19.9990 C   0  0  0  0  0  0  0  0  0  0  0  0
    9.3070   -3.5340   24.8780 C   0  0  0  0  0  0  0  0  0  0  0  0
    9.3350   -1.0880   23.5010 C   0  0  0  0  0  0  0  0  0  0  0  0
    8.3597   -5.0073   26.6307 C   0  0  0  0  0  0  0  0  0  0  0  0
    9.0420    0.3700   21.5280 C   0  0  0  0  0  0  0  0  0  0  0  0
    8.4720   -6.3981   27.2296 C   0  0  0  0  0  0  0  0  0  0  0  0
    9.9252   -6.7605   27.4803 C   0  0  0  0  0  0  0  0  0  0  0  0
   10.7833   -6.6094   26.2282 C   0  0  0  0  0  0  0  0  0  0  0  0
   10.0539   -5.9099   25.0823 C   0  0  0  0  0  0  0  0  0  0  0  0
   14.8305    1.5084   22.7418 C   0  0  0  0  0  0  0  0  0  0  0  0
    9.8870    1.3260   23.5730 C   0  0  0  0  0  0  0  0  0  0  0  0
    8.1890   -0.7180   20.8700 C   0  0  0  0  0  0  0  0  0  0  0  0
   13.4410    1.4289   24.7112 N   0  0  0  0  0  0  0  0  0  0  0  0
    6.7580    0.3810   17.8350 N   0  0  0  0  0  0  0  0  0  0  0  0
    7.6390   -0.2680   18.5410 N   0  0  0  0  0  0  0  0  0  0  0  0
   13.5326    1.4543   23.3707 N   0  0  0  0  0  0  0  0  0  0  0  0
    7.3170   -0.1610   19.8550 N   0  0  0  0  0  0  0  0  0  0  0  0
    9.2529   -4.7797   25.5644 N   0  0  0  0  0  0  0  0  0  0  0  0
    9.4560    0.1560   22.8130 N   0  0  0  0  0  0  0  0  0  0  0  0
    7.4954   -4.2356   27.0449 O   0  0  0  0  0  0  0  0  0  0  0  0
    9.2690    1.4140   20.9380 O   0  0  0  0  0  0  0  0  0  0  0  0
    3.0136    2.6524   19.3909 H   0  0  0  0  0  0  0  0  0  0  0  0
    3.6477    2.0141   21.6817 H   0  0  0  0  0  0  0  0  0  0  0  0
    4.4041    1.9739   17.4524 H   0  0  0  0  0  0  0  0  0  0  0  0
    5.7107    0.6909   22.1141 H   0  0  0  0  0  0  0  0  0  0  0  0
    8.6895   -2.3529   26.5807 H   0  0  0  0  0  0  0  0  0  0  0  0
    9.9262   -4.3897   22.9916 H   0  0  0  0  0  0  0  0  0  0  0  0
    8.9224   -0.1998   25.4238 H   0  0  0  0  0  0  0  0  0  0  0  0
   10.0649   -2.2343   21.8258 H   0  0  0  0  0  0  0  0  0  0  0  0
   11.7624    1.3510   25.9426 H   0  0  0  0  0  0  0  0  0  0  0  0
   12.2462    1.4390   21.6566 H   0  0  0  0  0  0  0  0  0  0  0  0
    7.9325   -6.4148   28.1641 H   0  0  0  0  0  0  0  0  0  0  0  0
    8.0254   -7.0920   26.5333 H   0  0  0  0  0  0  0  0  0  0  0  0
   10.3387   -6.1267   28.2923 H   0  0  0  0  0  0  0  0  0  0  0  0
    9.9904   -7.8023   27.8537 H   0  0  0  0  0  0  0  0  0  0  0  0
   11.7037   -6.0404   26.4771 H   0  0  0  0  0  0  0  0  0  0  0  0
   11.1411   -7.6068   25.8918 H   0  0  0  0  0  0  0  0  0  0  0  0
   10.7782   -5.5162   24.3756 H   0  0  0  0  0  0  0  0  0  0  0  0
    9.4042   -6.6189   24.5807 H   0  0  0  0  0  0  0  0  0  0  0  0
   15.0990    2.5601   22.6124 H   0  0  0  0  0  0  0  0  0  0  0  0
   15.5636    1.0018   23.3756 H   0  0  0  0  0  0  0  0  0  0  0  0
   14.7841    1.0025   21.7733 H   0  0  0  0  0  0  0  0  0  0  0  0
    9.3974    1.2912   24.5523 H   0  0  0  0  0  0  0  0  0  0  0  0
    9.5159    2.2168   23.0554 H   0  0  0  0  0  0  0  0  0  0  0  0
    8.8326   -1.4554   20.3912 H   0  0  0  0  0  0  0  0  0  0  0  0
    7.5604   -1.1971   21.6201 H   0  0  0  0  0  0  0  0  0  0  0  0
  1  2  1  0  0  0  0
  1  3  2  0  0  0  0
  2  4  2  0  0  0  0
  3 12  1  0  0  0  0
  4 13  1  0  0  0  0
  5  7  2  0  0  0  0
  5 14  1  0  0  0  0
  6  8  1  0  0  0  0
  6 14  2  0  0  0  0
  7 15  1  0  0  0  0
  8 15  2  0  0  0  0
  9 11  1  0  0  0  0
  9 25  2  0  0  0  0
 10 11  2  0  0  0  0
 10 28  1  0  0  0  0
 11 23  1  0  0  0  0
 12 13  2  0  0  0  0
 12 26  1  0  0  0  0
 13 29  1  0  0  0  0
 14 30  1  0  0  0  0
 15 31  1  0  0  0  0
 16 18  1  0  0  0  0
 16 30  1  0  0  0  0
 16 32  2  0  0  0  0
 17 24  1  0  0  0  0
 17 31  1  0  0  0  0
 17 33  2  0  0  0  0
 18 19  1  0  0  0  0
 19 20  1  0  0  0  0
 20 21  1  0  0  0  0
 21 30  1  0  0  0  0
 22 28  1  0  0  0  0
 23 31  1  0  0  0  0
 24 29  1  0  0  0  0
 25 28  1  0  0  0  0
 26 27  2  0  0  0  0
 27 29  1  0  0  0  0
  1 34  1  0  0  0  0
  2 35  1  0  0  0  0
  3 36  1  0  0  0  0
  4 37  1  0  0  0  0
  5 38  1  0  0  0  0
  6 39  1  0  0  0  0
  7 40  1  0  0  0  0
  8 41  1  0  0  0  0
  9 42  1  0  0  0  0
 10 43  1  0  0  0  0
 18 44  1  0  0  0  0
 18 45  1  0  0  0  0
 19 46  1  0  0  0  0
 19 47  1  0  0  0  0
 20 48  1  0  0  0  0
 20 49  1  0  0  0  0
 21 50  1  0  0  0  0
 21 51  1  0  0  0  0
 22 52  1  0  0  0  0
 22 53  1  0  0  0  0
 22 54  1  0  0  0  0
 23 55  1  0  0  0  0
 23 56  1  0  0  0  0
 24 57  1  0  0  0  0
 24 58  1  0  0  0  0
M  END
> <clash_score>
0.7790751876189459

> <docking_score>
-8.15449047088623

$$$$
BENZO_356_1
  -OEChem-08212023293D

 55 59  0     0  0  0  0  0  0999 V2000
    3.9160    2.0630   19.5520 C   0  0  0  0  0  0  0  0  0  0  0  0
    4.2750    1.7050   20.8490 C   0  0  0  0  0  0  0  0  0  0  0  0
    4.6890    1.6810   18.4640 C   0  0  0  0  0  0  0  0  0  0  0  0
    5.4210    0.9600   21.0930 C   0  0  0  0  0  0  0  0  0  0  0  0
    8.9960   -2.3380   25.5320 C   0  0  0  0  0  0  0  0  0  0  0  0
    9.6730   -3.4710   23.5300 C   0  0  0  0  0  0  0  0  0  0  0  0
    9.0720   -1.1280   24.8640 C   0  0  0  0  0  0  0  0  0  0  0  0
    9.7200   -2.2600   22.8630 C   0  0  0  0  0  0  0  0  0  0  0  0
   12.2913    1.4279   22.6355 C   0  0  0  0  0  0  0  0  0  0  0  0
   13.6024    1.4662   23.0564 C   0  0  0  0  0  0  0  0  0  0  0  0
   12.0284    1.3764   24.9443 C   0  0  0  0  0  0  0  0  0  0  0  0
   11.3794    1.3761   23.7290 C   0  0  0  0  0  0  0  0  0  0  0  0
    5.8300    0.9190   18.6970 C   0  0  0  0  0  0  0  0  0  0  0  0
    6.1790    0.5730   19.9990 C   0  0  0  0  0  0  0  0  0  0  0  0
    9.3070   -3.5340   24.8780 C   0  0  0  0  0  0  0  0  0  0  0  0
    9.3350   -1.0880   23.5010 C   0  0  0  0  0  0  0  0  0  0  0  0
    8.3597   -5.0073   26.6307 C   0  0  0  0  0  0  0  0  0  0  0  0
    9.0420    0.3700   21.5280 C   0  0  0  0  0  0  0  0  0  0  0  0
    8.4720   -6.3981   27.2296 C   0  0  0  0  0  0  0  0  0  0  0  0
    9.9252   -6.7605   27.4803 C   0  0  0  0  0  0  0  0  0  0  0  0
   10.7833   -6.6094   26.2282 C   0  0  0  0  0  0  0  0  0  0  0  0
   10.0539   -5.9099   25.0823 C   0  0  0  0  0  0  0  0  0  0  0  0
    9.8870    1.3260   23.5730 C   0  0  0  0  0  0  0  0  0  0  0  0
    8.1890   -0.7180   20.8700 C   0  0  0  0  0  0  0  0  0  0  0  0
    6.7580    0.3810   17.8350 N   0  0  0  0  0  0  0  0  0  0  0  0
    7.6390   -0.2680   18.5410 N   0  0  0  0  0  0  0  0  0  0  0  0
    7.3170   -0.1610   19.8550 N   0  0  0  0  0  0  0  0  0  0  0  0
    9.2529   -4.7797   25.5644 N   0  0  0  0  0  0  0  0  0  0  0  0
    9.4560    0.1560   22.8130 N   0  0  0  0  0  0  0  0  0  0  0  0
    7.4954   -4.2356   27.0449 O   0  0  0  0  0  0  0  0  0  0  0  0
    9.2690    1.4140   20.9380 O   0  0  0  0  0  0  0  0  0  0  0  0
   13.7301    1.4394   24.7638 S   0  0  0  0  0  0  0  0  0  0  0  0
    3.0136    2.6524   19.3909 H   0  0  0  0  0  0  0  0  0  0  0  0
    3.6477    2.0141   21.6817 H   0  0  0  0  0  0  0  0  0  0  0  0
    4.4041    1.9739   17.4524 H   0  0  0  0  0  0  0  0  0  0  0  0
    5.7107    0.6909   22.1141 H   0  0  0  0  0  0  0  0  0  0  0  0
    8.6895   -2.3529   26.5807 H   0  0  0  0  0  0  0  0  0  0  0  0
    9.9262   -4.3897   22.9916 H   0  0  0  0  0  0  0  0  0  0  0  0
    8.9224   -0.1998   25.4238 H   0  0  0  0  0  0  0  0  0  0  0  0
   10.0649   -2.2343   21.8258 H   0  0  0  0  0  0  0  0  0  0  0  0
   12.0045    1.4365   21.5915 H   0  0  0  0  0  0  0  0  0  0  0  0
   14.4914    1.5078   22.4431 H   0  0  0  0  0  0  0  0  0  0  0  0
   11.5886    1.3416   25.9314 H   0  0  0  0  0  0  0  0  0  0  0  0
    7.9325   -6.4148   28.1641 H   0  0  0  0  0  0  0  0  0  0  0  0
    8.0254   -7.0920   26.5333 H   0  0  0  0  0  0  0  0  0  0  0  0
   10.3387   -6.1267   28.2923 H   0  0  0  0  0  0  0  0  0  0  0  0
    9.9904   -7.8023   27.8537 H   0  0  0  0  0  0  0  0  0  0  0  0
   11.7037   -6.0404   26.4771 H   0  0  0  0  0  0  0  0  0  0  0  0
   11.1411   -7.6068   25.8918 H   0  0  0  0  0  0  0  0  0  0  0  0
   10.7782   -5.5162   24.3756 H   0  0  0  0  0  0  0  0  0  0  0  0
    9.4042   -6.6189   24.5807 H   0  0  0  0  0  0  0  0  0  0  0  0
    9.3974    1.2912   24.5523 H   0  0  0  0  0  0  0  0  0  0  0  0
    9.5159    2.2168   23.0554 H   0  0  0  0  0  0  0  0  0  0  0  0
    8.8326   -1.4554   20.3912 H   0  0  0  0  0  0  0  0  0  0  0  0
    7.5604   -1.1971   21.6201 H   0  0  0  0  0  0  0  0  0  0  0  0
  1  2  1  0  0  0  0
  1  3  2  0  0  0  0
  2  4  2  0  0  0  0
  3 13  1  0  0  0  0
  4 14  1  0  0  0  0
  5  7  2  0  0  0  0
  5 15  1  0  0  0  0
  6  8  1  0  0  0  0
  6 15  2  0  0  0  0
  7 16  1  0  0  0  0
  8 16  2  0  0  0  0
  9 10  2  0  0  0  0
  9 12  1  0  0  0  0
 10 32  1  0  0  0  0
 11 12  2  0  0  0  0
 11 32  1  0  0  0  0
 12 23  1  0  0  0  0
 13 14  2  0  0  0  0
 13 25  1  0  0  0  0
 14 27  1  0  0  0  0
 15 28  1  0  0  0  0
 16 29  1  0  0  0  0
 17 19  1  0  0  0  0
 17 28  1  0  0  0  0
 17 30  2  0  0  0  0
 18 24  1  0  0  0  0
 18 29  1  0  0  0  0
 18 31  2  0  0  0  0
 19 20  1  0  0  0  0
 20 21  1  0  0  0  0
 21 22  1  0  0  0  0
 22 28  1  0  0  0  0
 23 29  1  0  0  0  0
 24 27  1  0  0  0  0
 25 26  2  0  0  0  0
 26 27  1  0  0  0  0
  1 33  1  0  0  0  0
  2 34  1  0  0  0  0
  3 35  1  0  0  0  0
  4 36  1  0  0  0  0
  5 37  1  0  0  0  0
  6 38  1  0  0  0  0
  7 39  1  0  0  0  0
  8 40  1  0  0  0  0
  9 41  1  0  0  0  0
 10 42  1  0  0  0  0
 11 43  1  0  0  0  0
 19 44  1  0  0  0  0
 19 45  1  0  0  0  0
 20 46  1  0  0  0  0
 20 47  1  0  0  0  0
 21 48  1  0  0  0  0
 21 49  1  0  0  0  0
 22 50  1  0  0  0  0
 22 51  1  0  0  0  0
 23 52  1  0  0  0  0
 23 53  1  0  0  0  0
 24 54  1  0  0  0  0
 24 55  1  0  0  0  0
M  END
> <clash_score>
0.7790751876189459

> <docking_score>
-8.517207145690918

$$$$
BENZO_358_1
  -OEChem-08212023293D

 58 62  0     0  0  0  0  0  0999 V2000
    3.9160    2.0630   19.5520 C   0  0  0  0  0  0  0  0  0  0  0  0
    4.2750    1.7050   20.8490 C   0  0  0  0  0  0  0  0  0  0  0  0
    6.4089    2.0844   24.8766 C   0  0  0  0  0  0  0  0  0  0  0  0
    7.4847    1.4191   24.2887 C   0  0  0  0  0  0  0  0  0  0  0  0
    4.6890    1.6810   18.4640 C   0  0  0  0  0  0  0  0  0  0  0  0
    5.4210    0.9600   21.0930 C   0  0  0  0  0  0  0  0  0  0  0  0
    8.9960   -2.3380   25.5320 C   0  0  0  0  0  0  0  0  0  0  0  0
    9.6730   -3.4710   23.5300 C   0  0  0  0  0  0  0  0  0  0  0  0
    9.0720   -1.1280   24.8640 C   0  0  0  0  0  0  0  0  0  0  0  0
    9.7200   -2.2600   22.8630 C   0  0  0  0  0  0  0  0  0  0  0  0
    6.5777    3.3741   25.3805 C   0  0  0  0  0  0  0  0  0  0  0  0
    8.8980    3.3330   24.7088 C   0  0  0  0  0  0  0  0  0  0  0  0
    8.7292    2.0433   24.2048 C   0  0  0  0  0  0  0  0  0  0  0  0
    5.8300    0.9190   18.6970 C   0  0  0  0  0  0  0  0  0  0  0  0
    6.1790    0.5730   19.9990 C   0  0  0  0  0  0  0  0  0  0  0  0
    9.3070   -3.5340   24.8780 C   0  0  0  0  0  0  0  0  0  0  0  0
    9.3350   -1.0880   23.5010 C   0  0  0  0  0  0  0  0  0  0  0  0
    7.8222    3.9984   25.2966 C   0  0  0  0  0  0  0  0  0  0  0  0
    8.3597   -5.0073   26.6307 C   0  0  0  0  0  0  0  0  0  0  0  0
    9.0420    0.3700   21.5280 C   0  0  0  0  0  0  0  0  0  0  0  0
    8.4720   -6.3981   27.2296 C   0  0  0  0  0  0  0  0  0  0  0  0
    9.9252   -6.7605   27.4803 C   0  0  0  0  0  0  0  0  0  0  0  0
   10.7833   -6.6094   26.2282 C   0  0  0  0  0  0  0  0  0  0  0  0
   10.0539   -5.9099   25.0823 C   0  0  0  0  0  0  0  0  0  0  0  0
    9.8870    1.3260   23.5730 C   0  0  0  0  0  0  0  0  0  0  0  0
    8.1890   -0.7180   20.8700 C   0  0  0  0  0  0  0  0  0  0  0  0
    6.7580    0.3810   17.8350 N   0  0  0  0  0  0  0  0  0  0  0  0
    7.6390   -0.2680   18.5410 N   0  0  0  0  0  0  0  0  0  0  0  0
    7.3170   -0.1610   19.8550 N   0  0  0  0  0  0  0  0  0  0  0  0
    9.2529   -4.7797   25.5644 N   0  0  0  0  0  0  0  0  0  0  0  0
    9.4560    0.1560   22.8130 N   0  0  0  0  0  0  0  0  0  0  0  0
    7.4954   -4.2356   27.0449 O   0  0  0  0  0  0  0  0  0  0  0  0
    9.2690    1.4140   20.9380 O   0  0  0  0  0  0  0  0  0  0  0  0
    8.0301    5.5891   25.9196 Cl  0  0  0  0  0  0  0  0  0  0  0  0
    3.0136    2.6524   19.3909 H   0  0  0  0  0  0  0  0  0  0  0  0
    3.6477    2.0141   21.6817 H   0  0  0  0  0  0  0  0  0  0  0  0
    5.4400    1.5979   24.9418 H   0  0  0  0  0  0  0  0  0  0  0  0
    7.3441    0.4143   23.8988 H   0  0  0  0  0  0  0  0  0  0  0  0
    4.4041    1.9739   17.4524 H   0  0  0  0  0  0  0  0  0  0  0  0
    5.7107    0.6909   22.1141 H   0  0  0  0  0  0  0  0  0  0  0  0
    8.6895   -2.3529   26.5807 H   0  0  0  0  0  0  0  0  0  0  0  0
    9.9262   -4.3897   22.9916 H   0  0  0  0  0  0  0  0  0  0  0  0
    8.9224   -0.1998   25.4238 H   0  0  0  0  0  0  0  0  0  0  0  0
   10.0649   -2.2343   21.8258 H   0  0  0  0  0  0  0  0  0  0  0  0
    5.7304    3.8806   25.8363 H   0  0  0  0  0  0  0  0  0  0  0  0
    9.8703    3.8156   24.6405 H   0  0  0  0  0  0  0  0  0  0  0  0
    7.9325   -6.4148   28.1641 H   0  0  0  0  0  0  0  0  0  0  0  0
    8.0254   -7.0920   26.5333 H   0  0  0  0  0  0  0  0  0  0  0  0
   10.3387   -6.1267   28.2923 H   0  0  0  0  0  0  0  0  0  0  0  0
    9.9904   -7.8023   27.8537 H   0  0  0  0  0  0  0  0  0  0  0  0
   11.7037   -6.0404   26.4771 H   0  0  0  0  0  0  0  0  0  0  0  0
   11.1411   -7.6068   25.8918 H   0  0  0  0  0  0  0  0  0  0  0  0
   10.7782   -5.5162   24.3756 H   0  0  0  0  0  0  0  0  0  0  0  0
    9.4042   -6.6189   24.5807 H   0  0  0  0  0  0  0  0  0  0  0  0
   10.4274    1.9911   22.8906 H   0  0  0  0  0  0  0  0  0  0  0  0
   10.6011    0.9882   24.3313 H   0  0  0  0  0  0  0  0  0  0  0  0
    8.8326   -1.4554   20.3912 H   0  0  0  0  0  0  0  0  0  0  0  0
    7.5604   -1.1971   21.6201 H   0  0  0  0  0  0  0  0  0  0  0  0
  1  2  1  0  0  0  0
  1  5  2  0  0  0  0
  2  6  2  0  0  0  0
  3  4  2  0  0  0  0
  3 11  1  0  0  0  0
  4 13  1  0  0  0  0
  5 14  1  0  0  0  0
  6 15  1  0  0  0  0
  7  9  2  0  0  0  0
  7 16  1  0  0  0  0
  8 10  1  0  0  0  0
  8 16  2  0  0  0  0
  9 17  1  0  0  0  0
 10 17  2  0  0  0  0
 11 18  2  0  0  0  0
 12 13  2  0  0  0  0
 12 18  1  0  0  0  0
 13 25  1  0  0  0  0
 14 15  2  0  0  0  0
 14 27  1  0  0  0  0
 15 29  1  0  0  0  0
 16 30  1  0  0  0  0
 17 31  1  0  0  0  0
 18 34  1  0  0  0  0
 19 21  1  0  0  0  0
 19 30  1  0  0  0  0
 19 32  2  0  0  0  0
 20 26  1  0  0  0  0
 20 31  1  0  0  0  0
 20 33  2  0  0  0  0
 21 22  1  0  0  0  0
 22 23  1  0  0  0  0
 23 24  1  0  0  0  0
 24 30  1  0  0  0  0
 25 31  1  0  0  0  0
 26 29  1  0  0  0  0
 27 28  2  0  0  0  0
 28 29  1  0  0  0  0
  1 35  1  0  0  0  0
  2 36  1  0  0  0  0
  3 37  1  0  0  0  0
  4 38  1  0  0  0  0
  5 39  1  0  0  0  0
  6 40  1  0  0  0  0
  7 41  1  0  0  0  0
  8 42  1  0  0  0  0
  9 43  1  0  0  0  0
 10 44  1  0  0  0  0
 11 45  1  0  0  0  0
 12 46  1  0  0  0  0
 21 47  1  0  0  0  0
 21 48  1  0  0  0  0
 22 49  1  0  0  0  0
 22 50  1  0  0  0  0
 23 51  1  0  0  0  0
 23 52  1  0  0  0  0
 24 53  1  0  0  0  0
 24 54  1  0  0  0  0
 25 55  1  0  0  0  0
 25 56  1  0  0  0  0
 26 57  1  0  0  0  0
 26 58  1  0  0  0  0
M  END
> <clash_score>
0.7790751876189459

> <docking_score>
-7.824380874633789

$$$$
BENZO_357_1
  -OEChem-08212023293D

 58 62  0     0  0  0  0  0  0999 V2000
   14.1526    1.4694   24.0176 C   0  0  0  0  0  0  0  0  0  0  0  0
   13.3741    0.8121   24.9701 C   0  0  0  0  0  0  0  0  0  0  0  0
   13.5446    2.0802   22.9208 C   0  0  0  0  0  0  0  0  0  0  0  0
    3.9160    2.0630   19.5520 C   0  0  0  0  0  0  0  0  0  0  0  0
    4.2750    1.7050   20.8490 C   0  0  0  0  0  0  0  0  0  0  0  0
   11.9875    0.7654   24.8258 C   0  0  0  0  0  0  0  0  0  0  0  0
   12.1580    2.0335   22.7765 C   0  0  0  0  0  0  0  0  0  0  0  0
    4.6890    1.6810   18.4640 C   0  0  0  0  0  0  0  0  0  0  0  0
    5.4210    0.9600   21.0930 C   0  0  0  0  0  0  0  0  0  0  0  0
    8.9960   -2.3380   25.5320 C   0  0  0  0  0  0  0  0  0  0  0  0
    9.6730   -3.4710   23.5300 C   0  0  0  0  0  0  0  0  0  0  0  0
    9.0720   -1.1280   24.8640 C   0  0  0  0  0  0  0  0  0  0  0  0
    9.7200   -2.2600   22.8630 C   0  0  0  0  0  0  0  0  0  0  0  0
   11.3794    1.3761   23.7290 C   0  0  0  0  0  0  0  0  0  0  0  0
    5.8300    0.9190   18.6970 C   0  0  0  0  0  0  0  0  0  0  0  0
    6.1790    0.5730   19.9990 C   0  0  0  0  0  0  0  0  0  0  0  0
    9.3070   -3.5340   24.8780 C   0  0  0  0  0  0  0  0  0  0  0  0
    9.3350   -1.0880   23.5010 C   0  0  0  0  0  0  0  0  0  0  0  0
    8.3597   -5.0073   26.6307 C   0  0  0  0  0  0  0  0  0  0  0  0
    9.0420    0.3700   21.5280 C   0  0  0  0  0  0  0  0  0  0  0  0
    8.4720   -6.3981   27.2296 C   0  0  0  0  0  0  0  0  0  0  0  0
    9.9252   -6.7605   27.4803 C   0  0  0  0  0  0  0  0  0  0  0  0
   10.7833   -6.6094   26.2282 C   0  0  0  0  0  0  0  0  0  0  0  0
   10.0539   -5.9099   25.0823 C   0  0  0  0  0  0  0  0  0  0  0  0
    9.8870    1.3260   23.5730 C   0  0  0  0  0  0  0  0  0  0  0  0
    8.1890   -0.7180   20.8700 C   0  0  0  0  0  0  0  0  0  0  0  0
    6.7580    0.3810   17.8350 N   0  0  0  0  0  0  0  0  0  0  0  0
    7.6390   -0.2680   18.5410 N   0  0  0  0  0  0  0  0  0  0  0  0
    7.3170   -0.1610   19.8550 N   0  0  0  0  0  0  0  0  0  0  0  0
    9.2529   -4.7797   25.5644 N   0  0  0  0  0  0  0  0  0  0  0  0
    9.4560    0.1560   22.8130 N   0  0  0  0  0  0  0  0  0  0  0  0
    7.4954   -4.2356   27.0449 O   0  0  0  0  0  0  0  0  0  0  0  0
    9.2690    1.4140   20.9380 O   0  0  0  0  0  0  0  0  0  0  0  0
   15.2322    1.5068   24.1308 H   0  0  0  0  0  0  0  0  0  0  0  0
   13.8473    0.3374   25.8248 H   0  0  0  0  0  0  0  0  0  0  0  0
   14.1503    2.5930   22.1795 H   0  0  0  0  0  0  0  0  0  0  0  0
    3.0136    2.6524   19.3909 H   0  0  0  0  0  0  0  0  0  0  0  0
    3.6477    2.0141   21.6817 H   0  0  0  0  0  0  0  0  0  0  0  0
   11.3889    0.2508   25.5729 H   0  0  0  0  0  0  0  0  0  0  0  0
   11.6930    2.5120   21.9187 H   0  0  0  0  0  0  0  0  0  0  0  0
    4.4041    1.9739   17.4524 H   0  0  0  0  0  0  0  0  0  0  0  0
    5.7107    0.6909   22.1141 H   0  0  0  0  0  0  0  0  0  0  0  0
    8.6895   -2.3529   26.5807 H   0  0  0  0  0  0  0  0  0  0  0  0
    9.9262   -4.3897   22.9916 H   0  0  0  0  0  0  0  0  0  0  0  0
    8.9224   -0.1998   25.4238 H   0  0  0  0  0  0  0  0  0  0  0  0
   10.0649   -2.2343   21.8258 H   0  0  0  0  0  0  0  0  0  0  0  0
    7.9325   -6.4148   28.1641 H   0  0  0  0  0  0  0  0  0  0  0  0
    8.0254   -7.0920   26.5333 H   0  0  0  0  0  0  0  0  0  0  0  0
   10.3387   -6.1267   28.2923 H   0  0  0  0  0  0  0  0  0  0  0  0
    9.9904   -7.8023   27.8537 H   0  0  0  0  0  0  0  0  0  0  0  0
   11.7037   -6.0404   26.4771 H   0  0  0  0  0  0  0  0  0  0  0  0
   11.1411   -7.6068   25.8918 H   0  0  0  0  0  0  0  0  0  0  0  0
   10.7782   -5.5162   24.3756 H   0  0  0  0  0  0  0  0  0  0  0  0
    9.4042   -6.6189   24.5807 H   0  0  0  0  0  0  0  0  0  0  0  0
    9.3974    1.2912   24.5523 H   0  0  0  0  0  0  0  0  0  0  0  0
    9.5159    2.2168   23.0554 H   0  0  0  0  0  0  0  0  0  0  0  0
    8.8326   -1.4554   20.3912 H   0  0  0  0  0  0  0  0  0  0  0  0
    7.5604   -1.1971   21.6201 H   0  0  0  0  0  0  0  0  0  0  0  0
  1  2  1  0  0  0  0
  1  3  2  0  0  0  0
  2  6  2  0  0  0  0
  3  7  1  0  0  0  0
  4  5  1  0  0  0  0
  4  8  2  0  0  0  0
  5  9  2  0  0  0  0
  6 14  1  0  0  0  0
  7 14  2  0  0  0  0
  8 15  1  0  0  0  0
  9 16  1  0  0  0  0
 10 12  2  0  0  0  0
 10 17  1  0  0  0  0
 11 13  1  0  0  0  0
 11 17  2  0  0  0  0
 12 18  1  0  0  0  0
 13 18  2  0  0  0  0
 14 25  1  0  0  0  0
 15 16  2  0  0  0  0
 15 27  1  0  0  0  0
 16 29  1  0  0  0  0
 17 30  1  0  0  0  0
 18 31  1  0  0  0  0
 19 21  1  0  0  0  0
 19 30  1  0  0  0  0
 19 32  2  0  0  0  0
 20 26  1  0  0  0  0
 20 31  1  0  0  0  0
 20 33  2  0  0  0  0
 21 22  1  0  0  0  0
 22 23  1  0  0  0  0
 23 24  1  0  0  0  0
 24 30  1  0  0  0  0
 25 31  1  0  0  0  0
 26 29  1  0  0  0  0
 27 28  2  0  0  0  0
 28 29  1  0  0  0  0
  1 34  1  0  0  0  0
  2 35  1  0  0  0  0
  3 36  1  0  0  0  0
  4 37  1  0  0  0  0
  5 38  1  0  0  0  0
  6 39  1  0  0  0  0
  7 40  1  0  0  0  0
  8 41  1  0  0  0  0
  9 42  1  0  0  0  0
 10 43  1  0  0  0  0
 11 44  1  0  0  0  0
 12 45  1  0  0  0  0
 13 46  1  0  0  0  0
 21 47  1  0  0  0  0
 21 48  1  0  0  0  0
 22 49  1  0  0  0  0
 22 50  1  0  0  0  0
 23 51  1  0  0  0  0
 23 52  1  0  0  0  0
 24 53  1  0  0  0  0
 24 54  1  0  0  0  0
 25 55  1  0  0  0  0
 25 56  1  0  0  0  0
 26 57  1  0  0  0  0
 26 58  1  0  0  0  0
M  END
> <clash_score>
0.7790751876189459

> <docking_score>
-8.43835735321045

$$$$
BENZO_361_1
  -OEChem-08212023333D

 57 61  0     0  0  0  0  0  0999 V2000
   14.1526    1.4694   24.0176 C   0  0  0  0  0  0  0  0  0  0  0  0
   13.3741    0.8121   24.9701 C   0  0  0  0  0  0  0  0  0  0  0  0
   13.5446    2.0802   22.9208 C   0  0  0  0  0  0  0  0  0  0  0  0
    3.9160    2.0630   19.5520 C   0  0  0  0  0  0  0  0  0  0  0  0
    4.2750    1.7050   20.8490 C   0  0  0  0  0  0  0  0  0  0  0  0
   11.9875    0.7654   24.8258 C   0  0  0  0  0  0  0  0  0  0  0  0
   12.1580    2.0335   22.7765 C   0  0  0  0  0  0  0  0  0  0  0  0
    4.6890    1.6810   18.4640 C   0  0  0  0  0  0  0  0  0  0  0  0
    5.4210    0.9600   21.0930 C   0  0  0  0  0  0  0  0  0  0  0  0
    8.9960   -2.3380   25.5320 C   0  0  0  0  0  0  0  0  0  0  0  0
    9.6730   -3.4710   23.5300 C   0  0  0  0  0  0  0  0  0  0  0  0
    9.0720   -1.1280   24.8640 C   0  0  0  0  0  0  0  0  0  0  0  0
    9.7200   -2.2600   22.8630 C   0  0  0  0  0  0  0  0  0  0  0  0
   11.3794    1.3761   23.7290 C   0  0  0  0  0  0  0  0  0  0  0  0
    5.8300    0.9190   18.6970 C   0  0  0  0  0  0  0  0  0  0  0  0
    6.1790    0.5730   19.9990 C   0  0  0  0  0  0  0  0  0  0  0  0
    9.3070   -3.5340   24.8780 C   0  0  0  0  0  0  0  0  0  0  0  0
    9.3350   -1.0880   23.5010 C   0  0  0  0  0  0  0  0  0  0  0  0
    9.0420    0.3700   21.5280 C   0  0  0  0  0  0  0  0  0  0  0  0
   10.0771   -5.0255   26.7193 C   0  0  0  0  0  0  0  0  0  0  0  0
    8.0927   -5.6195   25.4071 C   0  0  0  0  0  0  0  0  0  0  0  0
    9.1933   -4.9427   27.9592 C   0  0  0  0  0  0  0  0  0  0  0  0
    7.2756   -5.5290   26.6967 C   0  0  0  0  0  0  0  0  0  0  0  0
    9.8870    1.3260   23.5730 C   0  0  0  0  0  0  0  0  0  0  0  0
    8.1890   -0.7180   20.8700 C   0  0  0  0  0  0  0  0  0  0  0  0
    6.7580    0.3810   17.8350 N   0  0  0  0  0  0  0  0  0  0  0  0
    7.6390   -0.2680   18.5410 N   0  0  0  0  0  0  0  0  0  0  0  0
    7.3170   -0.1610   19.8550 N   0  0  0  0  0  0  0  0  0  0  0  0
    9.2563   -4.7368   25.5413 N   0  0  0  0  0  0  0  0  0  0  0  0
    9.4560    0.1560   22.8130 N   0  0  0  0  0  0  0  0  0  0  0  0
    9.2690    1.4140   20.9380 O   0  0  0  0  0  0  0  0  0  0  0  0
    8.0883   -5.8459   27.8325 O   0  0  0  0  0  0  0  0  0  0  0  0
   15.2322    1.5068   24.1308 H   0  0  0  0  0  0  0  0  0  0  0  0
   13.8473    0.3374   25.8248 H   0  0  0  0  0  0  0  0  0  0  0  0
   14.1503    2.5930   22.1795 H   0  0  0  0  0  0  0  0  0  0  0  0
    3.0136    2.6524   19.3909 H   0  0  0  0  0  0  0  0  0  0  0  0
    3.6477    2.0141   21.6817 H   0  0  0  0  0  0  0  0  0  0  0  0
   11.3889    0.2508   25.5729 H   0  0  0  0  0  0  0  0  0  0  0  0
   11.6930    2.5120   21.9187 H   0  0  0  0  0  0  0  0  0  0  0  0
    4.4042    1.9739   17.4524 H   0  0  0  0  0  0  0  0  0  0  0  0
    5.7107    0.6909   22.1141 H   0  0  0  0  0  0  0  0  0  0  0  0
    8.6905   -2.3533   26.5810 H   0  0  0  0  0  0  0  0  0  0  0  0
    9.9266   -4.3896   22.9917 H   0  0  0  0  0  0  0  0  0  0  0  0
    8.9233   -0.1992   25.4232 H   0  0  0  0  0  0  0  0  0  0  0  0
   10.0650   -2.2330   21.8256 H   0  0  0  0  0  0  0  0  0  0  0  0
   10.8985   -4.3115   26.8085 H   0  0  0  0  0  0  0  0  0  0  0  0
   10.4915   -6.0334   26.6323 H   0  0  0  0  0  0  0  0  0  0  0  0
    8.4327   -6.6456   25.2620 H   0  0  0  0  0  0  0  0  0  0  0  0
    7.4725   -5.3241   24.5619 H   0  0  0  0  0  0  0  0  0  0  0  0
    9.7636   -5.2398   28.8419 H   0  0  0  0  0  0  0  0  0  0  0  0
    8.8236   -3.9268   28.1248 H   0  0  0  0  0  0  0  0  0  0  0  0
    6.8339   -4.5337   26.8232 H   0  0  0  0  0  0  0  0  0  0  0  0
    6.4550   -6.2521   26.6643 H   0  0  0  0  0  0  0  0  0  0  0  0
    9.3974    1.2912   24.5523 H   0  0  0  0  0  0  0  0  0  0  0  0
    9.5159    2.2168   23.0554 H   0  0  0  0  0  0  0  0  0  0  0  0
    8.8326   -1.4554   20.3912 H   0  0  0  0  0  0  0  0  0  0  0  0
    7.5604   -1.1971   21.6201 H   0  0  0  0  0  0  0  0  0  0  0  0
  1  2  1  0  0  0  0
  1  3  2  0  0  0  0
  2  6  2  0  0  0  0
  3  7  1  0  0  0  0
  4  5  1  0  0  0  0
  4  8  2  0  0  0  0
  5  9  2  0  0  0  0
  6 14  1  0  0  0  0
  7 14  2  0  0  0  0
  8 15  1  0  0  0  0
  9 16  1  0  0  0  0
 10 12  2  0  0  0  0
 10 17  1  0  0  0  0
 11 13  1  0  0  0  0
 11 17  2  0  0  0  0
 12 18  1  0  0  0  0
 13 18  2  0  0  0  0
 14 24  1  0  0  0  0
 15 16  2  0  0  0  0
 15 26  1  0  0  0  0
 16 28  1  0  0  0  0
 17 29  1  0  0  0  0
 18 30  1  0  0  0  0
 19 25  1  0  0  0  0
 19 30  1  0  0  0  0
 19 31  2  0  0  0  0
 20 22  1  0  0  0  0
 20 29  1  0  0  0  0
 21 23  1  0  0  0  0
 21 29  1  0  0  0  0
 22 32  1  0  0  0  0
 23 32  1  0  0  0  0
 24 30  1  0  0  0  0
 25 28  1  0  0  0  0
 26 27  2  0  0  0  0
 27 28  1  0  0  0  0
  1 33  1  0  0  0  0
  2 34  1  0  0  0  0
  3 35  1  0  0  0  0
  4 36  1  0  0  0  0
  5 37  1  0  0  0  0
  6 38  1  0  0  0  0
  7 39  1  0  0  0  0
  8 40  1  0  0  0  0
  9 41  1  0  0  0  0
 10 42  1  0  0  0  0
 11 43  1  0  0  0  0
 12 44  1  0  0  0  0
 13 45  1  0  0  0  0
 20 46  1  0  0  0  0
 20 47  1  0  0  0  0
 21 48  1  0  0  0  0
 21 49  1  0  0  0  0
 22 50  1  0  0  0  0
 22 51  1  0  0  0  0
 23 52  1  0  0  0  0
 23 53  1  0  0  0  0
 24 54  1  0  0  0  0
 24 55  1  0  0  0  0
 25 56  1  0  0  0  0
 25 57  1  0  0  0  0
M  END
> <clash_score>
0

> <docking_score>
-9.419473648071289

$$$$
BENZO_362_1
  -OEChem-08212023333D

 57 61  0     0  0  0  0  0  0999 V2000
    3.9160    2.0630   19.5520 C   0  0  0  0  0  0  0  0  0  0  0  0
    4.2750    1.7050   20.8490 C   0  0  0  0  0  0  0  0  0  0  0  0
    6.4089    2.0844   24.8766 C   0  0  0  0  0  0  0  0  0  0  0  0
    7.4847    1.4191   24.2887 C   0  0  0  0  0  0  0  0  0  0  0  0
    4.6890    1.6810   18.4640 C   0  0  0  0  0  0  0  0  0  0  0  0
    5.4210    0.9600   21.0930 C   0  0  0  0  0  0  0  0  0  0  0  0
    8.9960   -2.3380   25.5320 C   0  0  0  0  0  0  0  0  0  0  0  0
    9.6730   -3.4710   23.5300 C   0  0  0  0  0  0  0  0  0  0  0  0
    9.0720   -1.1280   24.8640 C   0  0  0  0  0  0  0  0  0  0  0  0
    9.7200   -2.2600   22.8630 C   0  0  0  0  0  0  0  0  0  0  0  0
    6.5777    3.3741   25.3805 C   0  0  0  0  0  0  0  0  0  0  0  0
    8.8980    3.3330   24.7088 C   0  0  0  0  0  0  0  0  0  0  0  0
    8.7292    2.0433   24.2048 C   0  0  0  0  0  0  0  0  0  0  0  0
    5.8300    0.9190   18.6970 C   0  0  0  0  0  0  0  0  0  0  0  0
    6.1790    0.5730   19.9990 C   0  0  0  0  0  0  0  0  0  0  0  0
    9.3070   -3.5340   24.8780 C   0  0  0  0  0  0  0  0  0  0  0  0
    9.3350   -1.0880   23.5010 C   0  0  0  0  0  0  0  0  0  0  0  0
    7.8222    3.9984   25.2966 C   0  0  0  0  0  0  0  0  0  0  0  0
    9.0420    0.3700   21.5280 C   0  0  0  0  0  0  0  0  0  0  0  0
    9.5175   -4.8597   26.9771 C   0  0  0  0  0  0  0  0  0  0  0  0
    8.5165   -5.8725   24.9808 C   0  0  0  0  0  0  0  0  0  0  0  0
    8.1868   -5.0439   27.6987 C   0  0  0  0  0  0  0  0  0  0  0  0
    7.2200   -6.0347   25.7755 C   0  0  0  0  0  0  0  0  0  0  0  0
    9.8870    1.3260   23.5730 C   0  0  0  0  0  0  0  0  0  0  0  0
    8.1890   -0.7180   20.8700 C   0  0  0  0  0  0  0  0  0  0  0  0
    6.7580    0.3810   17.8350 N   0  0  0  0  0  0  0  0  0  0  0  0
    7.6390   -0.2680   18.5410 N   0  0  0  0  0  0  0  0  0  0  0  0
    7.3170   -0.1610   19.8550 N   0  0  0  0  0  0  0  0  0  0  0  0
    9.2563   -4.7368   25.5413 N   0  0  0  0  0  0  0  0  0  0  0  0
    9.4560    0.1560   22.8130 N   0  0  0  0  0  0  0  0  0  0  0  0
    9.2690    1.4140   20.9380 O   0  0  0  0  0  0  0  0  0  0  0  0
    7.4994   -6.1853   27.1719 O   0  0  0  0  0  0  0  0  0  0  0  0
    8.0301    5.5891   25.9196 Cl  0  0  0  0  0  0  0  0  0  0  0  0
    3.0136    2.6524   19.3909 H   0  0  0  0  0  0  0  0  0  0  0  0
    3.6477    2.0141   21.6817 H   0  0  0  0  0  0  0  0  0  0  0  0
    5.4400    1.5979   24.9418 H   0  0  0  0  0  0  0  0  0  0  0  0
    7.3441    0.4143   23.8988 H   0  0  0  0  0  0  0  0  0  0  0  0
    4.4042    1.9739   17.4524 H   0  0  0  0  0  0  0  0  0  0  0  0
    5.7107    0.6909   22.1141 H   0  0  0  0  0  0  0  0  0  0  0  0
    8.6905   -2.3533   26.5810 H   0  0  0  0  0  0  0  0  0  0  0  0
    9.9266   -4.3896   22.9917 H   0  0  0  0  0  0  0  0  0  0  0  0
    8.9233   -0.1992   25.4232 H   0  0  0  0  0  0  0  0  0  0  0  0
   10.0650   -2.2330   21.8256 H   0  0  0  0  0  0  0  0  0  0  0  0
    5.7304    3.8806   25.8363 H   0  0  0  0  0  0  0  0  0  0  0  0
    9.8703    3.8156   24.6405 H   0  0  0  0  0  0  0  0  0  0  0  0
   10.0205   -3.9698   27.3609 H   0  0  0  0  0  0  0  0  0  0  0  0
   10.1535   -5.7310   27.1549 H   0  0  0  0  0  0  0  0  0  0  0  0
    9.1181   -6.7773   25.0755 H   0  0  0  0  0  0  0  0  0  0  0  0
    8.2812   -5.7064   23.9305 H   0  0  0  0  0  0  0  0  0  0  0  0
    8.3629   -5.2252   28.7611 H   0  0  0  0  0  0  0  0  0  0  0  0
    7.5530   -4.1570   27.6103 H   0  0  0  0  0  0  0  0  0  0  0  0
    6.5459   -5.1839   25.6221 H   0  0  0  0  0  0  0  0  0  0  0  0
    6.6948   -6.9354   25.4436 H   0  0  0  0  0  0  0  0  0  0  0  0
   10.4274    1.9911   22.8906 H   0  0  0  0  0  0  0  0  0  0  0  0
   10.6011    0.9882   24.3313 H   0  0  0  0  0  0  0  0  0  0  0  0
    8.8326   -1.4554   20.3912 H   0  0  0  0  0  0  0  0  0  0  0  0
    7.5604   -1.1971   21.6201 H   0  0  0  0  0  0  0  0  0  0  0  0
  1  2  1  0  0  0  0
  1  5  2  0  0  0  0
  2  6  2  0  0  0  0
  3  4  2  0  0  0  0
  3 11  1  0  0  0  0
  4 13  1  0  0  0  0
  5 14  1  0  0  0  0
  6 15  1  0  0  0  0
  7  9  2  0  0  0  0
  7 16  1  0  0  0  0
  8 10  1  0  0  0  0
  8 16  2  0  0  0  0
  9 17  1  0  0  0  0
 10 17  2  0  0  0  0
 11 18  2  0  0  0  0
 12 13  2  0  0  0  0
 12 18  1  0  0  0  0
 13 24  1  0  0  0  0
 14 15  2  0  0  0  0
 14 26  1  0  0  0  0
 15 28  1  0  0  0  0
 16 29  1  0  0  0  0
 17 30  1  0  0  0  0
 18 33  1  0  0  0  0
 19 25  1  0  0  0  0
 19 30  1  0  0  0  0
 19 31  2  0  0  0  0
 20 22  1  0  0  0  0
 20 29  1  0  0  0  0
 21 23  1  0  0  0  0
 21 29  1  0  0  0  0
 22 32  1  0  0  0  0
 23 32  1  0  0  0  0
 24 30  1  0  0  0  0
 25 28  1  0  0  0  0
 26 27  2  0  0  0  0
 27 28  1  0  0  0  0
  1 34  1  0  0  0  0
  2 35  1  0  0  0  0
  3 36  1  0  0  0  0
  4 37  1  0  0  0  0
  5 38  1  0  0  0  0
  6 39  1  0  0  0  0
  7 40  1  0  0  0  0
  8 41  1  0  0  0  0
  9 42  1  0  0  0  0
 10 43  1  0  0  0  0
 11 44  1  0  0  0  0
 12 45  1  0  0  0  0
 20 46  1  0  0  0  0
 20 47  1  0  0  0  0
 21 48  1  0  0  0  0
 21 49  1  0  0  0  0
 22 50  1  0  0  0  0
 22 51  1  0  0  0  0
 23 52  1  0  0  0  0
 23 53  1  0  0  0  0
 24 54  1  0  0  0  0
 24 55  1  0  0  0  0
 25 56  1  0  0  0  0
 25 57  1  0  0  0  0
M  END
> <clash_score>
0

> <docking_score>
-8.767600059509277

$$$$
BENZO_363_1
  -OEChem-08212023333D

 57 61  0     0  0  0  0  0  0999 V2000
    3.9160    2.0630   19.5520 C   0  0  0  0  0  0  0  0  0  0  0  0
    4.2750    1.7050   20.8490 C   0  0  0  0  0  0  0  0  0  0  0  0
    4.6890    1.6810   18.4640 C   0  0  0  0  0  0  0  0  0  0  0  0
    5.4210    0.9600   21.0930 C   0  0  0  0  0  0  0  0  0  0  0  0
    8.9960   -2.3380   25.5320 C   0  0  0  0  0  0  0  0  0  0  0  0
    9.6730   -3.4710   23.5300 C   0  0  0  0  0  0  0  0  0  0  0  0
    9.0720   -1.1280   24.8640 C   0  0  0  0  0  0  0  0  0  0  0  0
    9.7200   -2.2600   22.8630 C   0  0  0  0  0  0  0  0  0  0  0  0
   12.1233    1.3811   24.9242 C   0  0  0  0  0  0  0  0  0  0  0  0
   12.3261    1.4247   22.7351 C   0  0  0  0  0  0  0  0  0  0  0  0
   11.3794    1.3761   23.7290 C   0  0  0  0  0  0  0  0  0  0  0  0
    5.8300    0.9190   18.6970 C   0  0  0  0  0  0  0  0  0  0  0  0
    6.1790    0.5730   19.9990 C   0  0  0  0  0  0  0  0  0  0  0  0
    9.3070   -3.5340   24.8780 C   0  0  0  0  0  0  0  0  0  0  0  0
    9.3350   -1.0880   23.5010 C   0  0  0  0  0  0  0  0  0  0  0  0
    9.0420    0.3700   21.5280 C   0  0  0  0  0  0  0  0  0  0  0  0
   10.0771   -5.0255   26.7193 C   0  0  0  0  0  0  0  0  0  0  0  0
    8.0927   -5.6195   25.4071 C   0  0  0  0  0  0  0  0  0  0  0  0
    9.1933   -4.9427   27.9592 C   0  0  0  0  0  0  0  0  0  0  0  0
    7.2756   -5.5290   26.6967 C   0  0  0  0  0  0  0  0  0  0  0  0
   14.8305    1.5084   22.7418 C   0  0  0  0  0  0  0  0  0  0  0  0
    9.8870    1.3260   23.5730 C   0  0  0  0  0  0  0  0  0  0  0  0
    8.1890   -0.7180   20.8700 C   0  0  0  0  0  0  0  0  0  0  0  0
   13.4410    1.4289   24.7112 N   0  0  0  0  0  0  0  0  0  0  0  0
    6.7580    0.3810   17.8350 N   0  0  0  0  0  0  0  0  0  0  0  0
    7.6390   -0.2680   18.5410 N   0  0  0  0  0  0  0  0  0  0  0  0
   13.5326    1.4543   23.3706 N   0  0  0  0  0  0  0  0  0  0  0  0
    7.3170   -0.1610   19.8550 N   0  0  0  0  0  0  0  0  0  0  0  0
    9.2563   -4.7368   25.5413 N   0  0  0  0  0  0  0  0  0  0  0  0
    9.4560    0.1560   22.8130 N   0  0  0  0  0  0  0  0  0  0  0  0
    9.2690    1.4140   20.9380 O   0  0  0  0  0  0  0  0  0  0  0  0
    8.0883   -5.8459   27.8325 O   0  0  0  0  0  0  0  0  0  0  0  0
    3.0136    2.6524   19.3909 H   0  0  0  0  0  0  0  0  0  0  0  0
    3.6477    2.0141   21.6817 H   0  0  0  0  0  0  0  0  0  0  0  0
    4.4042    1.9739   17.4524 H   0  0  0  0  0  0  0  0  0  0  0  0
    5.7107    0.6909   22.1141 H   0  0  0  0  0  0  0  0  0  0  0  0
    8.6905   -2.3533   26.5810 H   0  0  0  0  0  0  0  0  0  0  0  0
    9.9266   -4.3896   22.9917 H   0  0  0  0  0  0  0  0  0  0  0  0
    8.9233   -0.1992   25.4232 H   0  0  0  0  0  0  0  0  0  0  0  0
   10.0650   -2.2330   21.8256 H   0  0  0  0  0  0  0  0  0  0  0  0
   11.7624    1.3510   25.9426 H   0  0  0  0  0  0  0  0  0  0  0  0
   12.2462    1.4390   21.6566 H   0  0  0  0  0  0  0  0  0  0  0  0
   10.8985   -4.3115   26.8085 H   0  0  0  0  0  0  0  0  0  0  0  0
   10.4915   -6.0334   26.6323 H   0  0  0  0  0  0  0  0  0  0  0  0
    8.4327   -6.6456   25.2620 H   0  0  0  0  0  0  0  0  0  0  0  0
    7.4725   -5.3241   24.5619 H   0  0  0  0  0  0  0  0  0  0  0  0
    9.7636   -5.2398   28.8419 H   0  0  0  0  0  0  0  0  0  0  0  0
    8.8236   -3.9268   28.1248 H   0  0  0  0  0  0  0  0  0  0  0  0
    6.8339   -4.5337   26.8232 H   0  0  0  0  0  0  0  0  0  0  0  0
    6.4550   -6.2521   26.6643 H   0  0  0  0  0  0  0  0  0  0  0  0
   15.0990    2.5601   22.6124 H   0  0  0  0  0  0  0  0  0  0  0  0
   15.5636    1.0018   23.3756 H   0  0  0  0  0  0  0  0  0  0  0  0
   14.7841    1.0025   21.7733 H   0  0  0  0  0  0  0  0  0  0  0  0
    9.3974    1.2912   24.5523 H   0  0  0  0  0  0  0  0  0  0  0  0
    9.5159    2.2168   23.0554 H   0  0  0  0  0  0  0  0  0  0  0  0
    8.8326   -1.4554   20.3912 H   0  0  0  0  0  0  0  0  0  0  0  0
    7.5604   -1.1971   21.6201 H   0  0  0  0  0  0  0  0  0  0  0  0
  1  2  1  0  0  0  0
  1  3  2  0  0  0  0
  2  4  2  0  0  0  0
  3 12  1  0  0  0  0
  4 13  1  0  0  0  0
  5  7  2  0  0  0  0
  5 14  1  0  0  0  0
  6  8  1  0  0  0  0
  6 14  2  0  0  0  0
  7 15  1  0  0  0  0
  8 15  2  0  0  0  0
  9 11  1  0  0  0  0
  9 24  2  0  0  0  0
 10 11  2  0  0  0  0
 10 27  1  0  0  0  0
 11 22  1  0  0  0  0
 12 13  2  0  0  0  0
 12 25  1  0  0  0  0
 13 28  1  0  0  0  0
 14 29  1  0  0  0  0
 15 30  1  0  0  0  0
 16 23  1  0  0  0  0
 16 30  1  0  0  0  0
 16 31  2  0  0  0  0
 17 19  1  0  0  0  0
 17 29  1  0  0  0  0
 18 20  1  0  0  0  0
 18 29  1  0  0  0  0
 19 32  1  0  0  0  0
 20 32  1  0  0  0  0
 21 27  1  0  0  0  0
 22 30  1  0  0  0  0
 23 28  1  0  0  0  0
 24 27  1  0  0  0  0
 25 26  2  0  0  0  0
 26 28  1  0  0  0  0
  1 33  1  0  0  0  0
  2 34  1  0  0  0  0
  3 35  1  0  0  0  0
  4 36  1  0  0  0  0
  5 37  1  0  0  0  0
  6 38  1  0  0  0  0
  7 39  1  0  0  0  0
  8 40  1  0  0  0  0
  9 41  1  0  0  0  0
 10 42  1  0  0  0  0
 17 43  1  0  0  0  0
 17 44  1  0  0  0  0
 18 45  1  0  0  0  0
 18 46  1  0  0  0  0
 19 47  1  0  0  0  0
 19 48  1  0  0  0  0
 20 49  1  0  0  0  0
 20 50  1  0  0  0  0
 21 51  1  0  0  0  0
 21 52  1  0  0  0  0
 21 53  1  0  0  0  0
 22 54  1  0  0  0  0
 22 55  1  0  0  0  0
 23 56  1  0  0  0  0
 23 57  1  0  0  0  0
M  END
> <clash_score>
0

> <docking_score>
-9.135612487792969

$$$$
BENZO_360_1
  -OEChem-08212023343D

 54 58  0     0  0  0  0  0  0999 V2000
    3.9160    2.0630   19.5520 C   0  0  0  0  0  0  0  0  0  0  0  0
    4.2750    1.7050   20.8490 C   0  0  0  0  0  0  0  0  0  0  0  0
    4.6890    1.6810   18.4640 C   0  0  0  0  0  0  0  0  0  0  0  0
    5.4210    0.9600   21.0930 C   0  0  0  0  0  0  0  0  0  0  0  0
    8.9960   -2.3380   25.5320 C   0  0  0  0  0  0  0  0  0  0  0  0
    9.6730   -3.4710   23.5300 C   0  0  0  0  0  0  0  0  0  0  0  0
    9.0720   -1.1280   24.8640 C   0  0  0  0  0  0  0  0  0  0  0  0
    9.7200   -2.2600   22.8630 C   0  0  0  0  0  0  0  0  0  0  0  0
   12.2913    1.4279   22.6355 C   0  0  0  0  0  0  0  0  0  0  0  0
   13.6024    1.4662   23.0564 C   0  0  0  0  0  0  0  0  0  0  0  0
   12.0284    1.3764   24.9443 C   0  0  0  0  0  0  0  0  0  0  0  0
   11.3794    1.3761   23.7290 C   0  0  0  0  0  0  0  0  0  0  0  0
    5.8300    0.9190   18.6970 C   0  0  0  0  0  0  0  0  0  0  0  0
    6.1790    0.5730   19.9990 C   0  0  0  0  0  0  0  0  0  0  0  0
    9.3070   -3.5340   24.8780 C   0  0  0  0  0  0  0  0  0  0  0  0
    9.3350   -1.0880   23.5010 C   0  0  0  0  0  0  0  0  0  0  0  0
    9.0420    0.3700   21.5280 C   0  0  0  0  0  0  0  0  0  0  0  0
   10.0771   -5.0255   26.7193 C   0  0  0  0  0  0  0  0  0  0  0  0
    8.0927   -5.6195   25.4071 C   0  0  0  0  0  0  0  0  0  0  0  0
    9.1933   -4.9427   27.9592 C   0  0  0  0  0  0  0  0  0  0  0  0
    7.2756   -5.5290   26.6967 C   0  0  0  0  0  0  0  0  0  0  0  0
    9.8870    1.3260   23.5730 C   0  0  0  0  0  0  0  0  0  0  0  0
    8.1890   -0.7180   20.8700 C   0  0  0  0  0  0  0  0  0  0  0  0
    6.7580    0.3810   17.8350 N   0  0  0  0  0  0  0  0  0  0  0  0
    7.6390   -0.2680   18.5410 N   0  0  0  0  0  0  0  0  0  0  0  0
    7.3170   -0.1610   19.8550 N   0  0  0  0  0  0  0  0  0  0  0  0
    9.2563   -4.7368   25.5413 N   0  0  0  0  0  0  0  0  0  0  0  0
    9.4560    0.1560   22.8130 N   0  0  0  0  0  0  0  0  0  0  0  0
    9.2690    1.4140   20.9380 O   0  0  0  0  0  0  0  0  0  0  0  0
    8.0883   -5.8459   27.8325 O   0  0  0  0  0  0  0  0  0  0  0  0
   13.7301    1.4394   24.7638 S   0  0  0  0  0  0  0  0  0  0  0  0
    3.0136    2.6524   19.3909 H   0  0  0  0  0  0  0  0  0  0  0  0
    3.6477    2.0141   21.6817 H   0  0  0  0  0  0  0  0  0  0  0  0
    4.4042    1.9739   17.4524 H   0  0  0  0  0  0  0  0  0  0  0  0
    5.7107    0.6909   22.1141 H   0  0  0  0  0  0  0  0  0  0  0  0
    8.6905   -2.3533   26.5810 H   0  0  0  0  0  0  0  0  0  0  0  0
    9.9266   -4.3896   22.9917 H   0  0  0  0  0  0  0  0  0  0  0  0
    8.9233   -0.1992   25.4232 H   0  0  0  0  0  0  0  0  0  0  0  0
   10.0650   -2.2330   21.8256 H   0  0  0  0  0  0  0  0  0  0  0  0
   12.0045    1.4365   21.5915 H   0  0  0  0  0  0  0  0  0  0  0  0
   14.4914    1.5078   22.4431 H   0  0  0  0  0  0  0  0  0  0  0  0
   11.5886    1.3416   25.9314 H   0  0  0  0  0  0  0  0  0  0  0  0
   10.8985   -4.3115   26.8085 H   0  0  0  0  0  0  0  0  0  0  0  0
   10.4915   -6.0334   26.6323 H   0  0  0  0  0  0  0  0  0  0  0  0
    8.4327   -6.6456   25.2620 H   0  0  0  0  0  0  0  0  0  0  0  0
    7.4725   -5.3241   24.5619 H   0  0  0  0  0  0  0  0  0  0  0  0
    9.7636   -5.2398   28.8419 H   0  0  0  0  0  0  0  0  0  0  0  0
    8.8236   -3.9268   28.1248 H   0  0  0  0  0  0  0  0  0  0  0  0
    6.8339   -4.5337   26.8232 H   0  0  0  0  0  0  0  0  0  0  0  0
    6.4550   -6.2521   26.6643 H   0  0  0  0  0  0  0  0  0  0  0  0
    9.3974    1.2912   24.5523 H   0  0  0  0  0  0  0  0  0  0  0  0
    9.5159    2.2168   23.0554 H   0  0  0  0  0  0  0  0  0  0  0  0
    8.8326   -1.4554   20.3912 H   0  0  0  0  0  0  0  0  0  0  0  0
    7.5604   -1.1971   21.6201 H   0  0  0  0  0  0  0  0  0  0  0  0
  1  2  1  0  0  0  0
  1  3  2  0  0  0  0
  2  4  2  0  0  0  0
  3 13  1  0  0  0  0
  4 14  1  0  0  0  0
  5  7  2  0  0  0  0
  5 15  1  0  0  0  0
  6  8  1  0  0  0  0
  6 15  2  0  0  0  0
  7 16  1  0  0  0  0
  8 16  2  0  0  0  0
  9 10  2  0  0  0  0
  9 12  1  0  0  0  0
 10 31  1  0  0  0  0
 11 12  2  0  0  0  0
 11 31  1  0  0  0  0
 12 22  1  0  0  0  0
 13 14  2  0  0  0  0
 13 24  1  0  0  0  0
 14 26  1  0  0  0  0
 15 27  1  0  0  0  0
 16 28  1  0  0  0  0
 17 23  1  0  0  0  0
 17 28  1  0  0  0  0
 17 29  2  0  0  0  0
 18 20  1  0  0  0  0
 18 27  1  0  0  0  0
 19 21  1  0  0  0  0
 19 27  1  0  0  0  0
 20 30  1  0  0  0  0
 21 30  1  0  0  0  0
 22 28  1  0  0  0  0
 23 26  1  0  0  0  0
 24 25  2  0  0  0  0
 25 26  1  0  0  0  0
  1 32  1  0  0  0  0
  2 33  1  0  0  0  0
  3 34  1  0  0  0  0
  4 35  1  0  0  0  0
  5 36  1  0  0  0  0
  6 37  1  0  0  0  0
  7 38  1  0  0  0  0
  8 39  1  0  0  0  0
  9 40  1  0  0  0  0
 10 41  1  0  0  0  0
 11 42  1  0  0  0  0
 18 43  1  0  0  0  0
 18 44  1  0  0  0  0
 19 45  1  0  0  0  0
 19 46  1  0  0  0  0
 20 47  1  0  0  0  0
 20 48  1  0  0  0  0
 21 49  1  0  0  0  0
 21 50  1  0  0  0  0
 22 51  1  0  0  0  0
 22 52  1  0  0  0  0
 23 53  1  0  0  0  0
 23 54  1  0  0  0  0
M  END
> <clash_score>
0

> <docking_score>
-9.498327255249023

$$$$
BENZO_367_1
  -OEChem-08212023343D

 53 56  0     0  0  0  0  0  0999 V2000
    3.9160    2.0630   19.5520 C   0  0  0  0  0  0  0  0  0  0  0  0
    4.2750    1.7050   20.8490 C   0  0  0  0  0  0  0  0  0  0  0  0
    4.6890    1.6810   18.4640 C   0  0  0  0  0  0  0  0  0  0  0  0
    5.4210    0.9600   21.0930 C   0  0  0  0  0  0  0  0  0  0  0  0
    9.0720   -1.1280   24.8640 C   0  0  0  0  0  0  0  0  0  0  0  0
    9.7200   -2.2600   22.8630 C   0  0  0  0  0  0  0  0  0  0  0  0
    8.9960   -2.3380   25.5320 C   0  0  0  0  0  0  0  0  0  0  0  0
    9.6730   -3.4710   23.5300 C   0  0  0  0  0  0  0  0  0  0  0  0
   12.1233    1.3811   24.9242 C   0  0  0  0  0  0  0  0  0  0  0  0
   12.3261    1.4247   22.7351 C   0  0  0  0  0  0  0  0  0  0  0  0
    7.6390   -0.2680   18.5410 C   0  0  0  0  0  0  0  0  0  0  0  0
   11.3794    1.3761   23.7290 C   0  0  0  0  0  0  0  0  0  0  0  0
    5.8300    0.9190   18.6970 C   0  0  0  0  0  0  0  0  0  0  0  0
    6.1790    0.5730   19.9990 C   0  0  0  0  0  0  0  0  0  0  0  0
    9.3350   -1.0880   23.5010 C   0  0  0  0  0  0  0  0  0  0  0  0
    9.3070   -3.5340   24.8780 C   0  0  0  0  0  0  0  0  0  0  0  0
    9.0420    0.3700   21.5280 C   0  0  0  0  0  0  0  0  0  0  0  0
   14.8305    1.5084   22.7418 C   0  0  0  0  0  0  0  0  0  0  0  0
    8.0128   -5.2151   26.1416 C   0  0  0  0  0  0  0  0  0  0  0  0
   10.4372   -5.5860   25.6589 C   0  0  0  0  0  0  0  0  0  0  0  0
    9.8870    1.3260   23.5730 C   0  0  0  0  0  0  0  0  0  0  0  0
    8.1890   -0.7180   20.8700 C   0  0  0  0  0  0  0  0  0  0  0  0
   13.4410    1.4289   24.7112 N   0  0  0  0  0  0  0  0  0  0  0  0
    6.7580    0.3810   17.8350 N   0  0  0  0  0  0  0  0  0  0  0  0
   13.5326    1.4543   23.3706 N   0  0  0  0  0  0  0  0  0  0  0  0
    7.3170   -0.1610   19.8550 N   0  0  0  0  0  0  0  0  0  0  0  0
    9.4560    0.1560   22.8130 N   0  0  0  0  0  0  0  0  0  0  0  0
    9.2543   -4.7552   25.5519 N   0  0  0  0  0  0  0  0  0  0  0  0
    9.2690    1.4140   20.9380 O   0  0  0  0  0  0  0  0  0  0  0  0
    3.0133    2.6526   19.3911 H   0  0  0  0  0  0  0  0  0  0  0  0
    3.6478    2.0143   21.6818 H   0  0  0  0  0  0  0  0  0  0  0  0
    4.4036    1.9735   17.4543 H   0  0  0  0  0  0  0  0  0  0  0  0
    5.7089    0.6922   22.1131 H   0  0  0  0  0  0  0  0  0  0  0  0
    8.9217   -0.1995   25.4232 H   0  0  0  0  0  0  0  0  0  0  0  0
   10.0643   -2.2341   21.8254 H   0  0  0  0  0  0  0  0  0  0  0  0
    8.6893   -2.3540   26.5808 H   0  0  0  0  0  0  0  0  0  0  0  0
    9.9257   -4.3898   22.9921 H   0  0  0  0  0  0  0  0  0  0  0  0
   11.7624    1.3510   25.9426 H   0  0  0  0  0  0  0  0  0  0  0  0
   12.2462    1.4390   21.6566 H   0  0  0  0  0  0  0  0  0  0  0  0
    8.4865   -0.8061   18.1803 H   0  0  0  0  0  0  0  0  0  0  0  0
   15.0990    2.5601   22.6124 H   0  0  0  0  0  0  0  0  0  0  0  0
   15.5636    1.0018   23.3756 H   0  0  0  0  0  0  0  0  0  0  0  0
   14.7841    1.0025   21.7733 H   0  0  0  0  0  0  0  0  0  0  0  0
    8.1744   -6.1904   26.6238 H   0  0  0  0  0  0  0  0  0  0  0  0
    7.6718   -4.4870   26.8924 H   0  0  0  0  0  0  0  0  0  0  0  0
    7.2494   -5.3166   25.3561 H   0  0  0  0  0  0  0  0  0  0  0  0
   10.1946   -6.4995   26.2216 H   0  0  0  0  0  0  0  0  0  0  0  0
   10.7865   -5.8578   24.6518 H   0  0  0  0  0  0  0  0  0  0  0  0
   11.2285   -5.0312   26.1842 H   0  0  0  0  0  0  0  0  0  0  0  0
    9.3974    1.2912   24.5523 H   0  0  0  0  0  0  0  0  0  0  0  0
    9.5159    2.2168   23.0553 H   0  0  0  0  0  0  0  0  0  0  0  0
    8.8262   -1.4533   20.3842 H   0  0  0  0  0  0  0  0  0  0  0  0
    7.5540   -1.1950   21.6130 H   0  0  0  0  0  0  0  0  0  0  0  0
  1  2  1  0  0  0  0
  1  3  2  0  0  0  0
  2  4  2  0  0  0  0
  3 13  1  0  0  0  0
  4 14  1  0  0  0  0
  5  7  2  0  0  0  0
  5 15  1  0  0  0  0
  6  8  1  0  0  0  0
  6 15  2  0  0  0  0
  7 16  1  0  0  0  0
  8 16  2  0  0  0  0
  9 12  1  0  0  0  0
  9 23  2  0  0  0  0
 10 12  2  0  0  0  0
 10 25  1  0  0  0  0
 11 24  2  0  0  0  0
 11 26  1  0  0  0  0
 12 21  1  0  0  0  0
 13 14  2  0  0  0  0
 13 24  1  0  0  0  0
 14 26  1  0  0  0  0
 15 27  1  0  0  0  0
 16 28  1  0  0  0  0
 17 22  1  0  0  0  0
 17 27  1  0  0  0  0
 17 29  2  0  0  0  0
 18 25  1  0  0  0  0
 19 28  1  0  0  0  0
 20 28  1  0  0  0  0
 21 27  1  0  0  0  0
 22 26  1  0  0  0  0
 23 25  1  0  0  0  0
  1 30  1  0  0  0  0
  2 31  1  0  0  0  0
  3 32  1  0  0  0  0
  4 33  1  0  0  0  0
  5 34  1  0  0  0  0
  6 35  1  0  0  0  0
  7 36  1  0  0  0  0
  8 37  1  0  0  0  0
  9 38  1  0  0  0  0
 10 39  1  0  0  0  0
 11 40  1  0  0  0  0
 18 41  1  0  0  0  0
 18 42  1  0  0  0  0
 18 43  1  0  0  0  0
 19 44  1  0  0  0  0
 19 45  1  0  0  0  0
 19 46  1  0  0  0  0
 20 47  1  0  0  0  0
 20 48  1  0  0  0  0
 20 49  1  0  0  0  0
 21 50  1  0  0  0  0
 21 51  1  0  0  0  0
 22 52  1  0  0  0  0
 22 53  1  0  0  0  0
M  END
> <clash_score>
0

> <docking_score>
-9.987641334533691

$$$$
BENZO_364_1
  -OEChem-08212023343D

 50 53  0     0  0  0  0  0  0999 V2000
    3.9160    2.0630   19.5520 C   0  0  0  0  0  0  0  0  0  0  0  0
    4.2750    1.7050   20.8490 C   0  0  0  0  0  0  0  0  0  0  0  0
    4.6890    1.6810   18.4640 C   0  0  0  0  0  0  0  0  0  0  0  0
    5.4210    0.9600   21.0930 C   0  0  0  0  0  0  0  0  0  0  0  0
    9.0720   -1.1280   24.8640 C   0  0  0  0  0  0  0  0  0  0  0  0
    9.7200   -2.2600   22.8630 C   0  0  0  0  0  0  0  0  0  0  0  0
    8.9960   -2.3380   25.5320 C   0  0  0  0  0  0  0  0  0  0  0  0
    9.6730   -3.4710   23.5300 C   0  0  0  0  0  0  0  0  0  0  0  0
   12.2913    1.4279   22.6355 C   0  0  0  0  0  0  0  0  0  0  0  0
   13.6024    1.4662   23.0564 C   0  0  0  0  0  0  0  0  0  0  0  0
   12.0284    1.3764   24.9443 C   0  0  0  0  0  0  0  0  0  0  0  0
    7.6390   -0.2680   18.5410 C   0  0  0  0  0  0  0  0  0  0  0  0
   11.3794    1.3761   23.7290 C   0  0  0  0  0  0  0  0  0  0  0  0
    5.8300    0.9190   18.6970 C   0  0  0  0  0  0  0  0  0  0  0  0
    6.1790    0.5730   19.9990 C   0  0  0  0  0  0  0  0  0  0  0  0
    9.3350   -1.0880   23.5010 C   0  0  0  0  0  0  0  0  0  0  0  0
    9.3070   -3.5340   24.8780 C   0  0  0  0  0  0  0  0  0  0  0  0
    9.0420    0.3700   21.5280 C   0  0  0  0  0  0  0  0  0  0  0  0
    8.0128   -5.2151   26.1416 C   0  0  0  0  0  0  0  0  0  0  0  0
   10.4372   -5.5860   25.6589 C   0  0  0  0  0  0  0  0  0  0  0  0
    9.8870    1.3260   23.5730 C   0  0  0  0  0  0  0  0  0  0  0  0
    8.1890   -0.7180   20.8700 C   0  0  0  0  0  0  0  0  0  0  0  0
    6.7580    0.3810   17.8350 N   0  0  0  0  0  0  0  0  0  0  0  0
    7.3170   -0.1610   19.8550 N   0  0  0  0  0  0  0  0  0  0  0  0
    9.4560    0.1560   22.8130 N   0  0  0  0  0  0  0  0  0  0  0  0
    9.2543   -4.7552   25.5519 N   0  0  0  0  0  0  0  0  0  0  0  0
    9.2690    1.4140   20.9380 O   0  0  0  0  0  0  0  0  0  0  0  0
   13.7301    1.4394   24.7638 S   0  0  0  0  0  0  0  0  0  0  0  0
    3.0133    2.6526   19.3911 H   0  0  0  0  0  0  0  0  0  0  0  0
    3.6478    2.0143   21.6818 H   0  0  0  0  0  0  0  0  0  0  0  0
    4.4036    1.9735   17.4543 H   0  0  0  0  0  0  0  0  0  0  0  0
    5.7089    0.6922   22.1131 H   0  0  0  0  0  0  0  0  0  0  0  0
    8.9217   -0.1995   25.4232 H   0  0  0  0  0  0  0  0  0  0  0  0
   10.0643   -2.2341   21.8254 H   0  0  0  0  0  0  0  0  0  0  0  0
    8.6893   -2.3540   26.5808 H   0  0  0  0  0  0  0  0  0  0  0  0
    9.9257   -4.3898   22.9921 H   0  0  0  0  0  0  0  0  0  0  0  0
   12.0045    1.4365   21.5915 H   0  0  0  0  0  0  0  0  0  0  0  0
   14.4914    1.5078   22.4431 H   0  0  0  0  0  0  0  0  0  0  0  0
   11.5886    1.3416   25.9314 H   0  0  0  0  0  0  0  0  0  0  0  0
    8.4865   -0.8061   18.1803 H   0  0  0  0  0  0  0  0  0  0  0  0
    8.1744   -6.1904   26.6238 H   0  0  0  0  0  0  0  0  0  0  0  0
    7.6718   -4.4870   26.8924 H   0  0  0  0  0  0  0  0  0  0  0  0
    7.2494   -5.3166   25.3561 H   0  0  0  0  0  0  0  0  0  0  0  0
   10.1946   -6.4995   26.2216 H   0  0  0  0  0  0  0  0  0  0  0  0
   10.7865   -5.8578   24.6518 H   0  0  0  0  0  0  0  0  0  0  0  0
   11.2285   -5.0312   26.1842 H   0  0  0  0  0  0  0  0  0  0  0  0
    9.3974    1.2912   24.5523 H   0  0  0  0  0  0  0  0  0  0  0  0
    9.5159    2.2168   23.0553 H   0  0  0  0  0  0  0  0  0  0  0  0
    8.8262   -1.4533   20.3842 H   0  0  0  0  0  0  0  0  0  0  0  0
    7.5540   -1.1950   21.6130 H   0  0  0  0  0  0  0  0  0  0  0  0
  1  2  1  0  0  0  0
  1  3  2  0  0  0  0
  2  4  2  0  0  0  0
  3 14  1  0  0  0  0
  4 15  1  0  0  0  0
  5  7  2  0  0  0  0
  5 16  1  0  0  0  0
  6  8  1  0  0  0  0
  6 16  2  0  0  0  0
  7 17  1  0  0  0  0
  8 17  2  0  0  0  0
  9 10  2  0  0  0  0
  9 13  1  0  0  0  0
 10 28  1  0  0  0  0
 11 13  2  0  0  0  0
 11 28  1  0  0  0  0
 12 23  2  0  0  0  0
 12 24  1  0  0  0  0
 13 21  1  0  0  0  0
 14 15  2  0  0  0  0
 14 23  1  0  0  0  0
 15 24  1  0  0  0  0
 16 25  1  0  0  0  0
 17 26  1  0  0  0  0
 18 22  1  0  0  0  0
 18 25  1  0  0  0  0
 18 27  2  0  0  0  0
 19 26  1  0  0  0  0
 20 26  1  0  0  0  0
 21 25  1  0  0  0  0
 22 24  1  0  0  0  0
  1 29  1  0  0  0  0
  2 30  1  0  0  0  0
  3 31  1  0  0  0  0
  4 32  1  0  0  0  0
  5 33  1  0  0  0  0
  6 34  1  0  0  0  0
  7 35  1  0  0  0  0
  8 36  1  0  0  0  0
  9 37  1  0  0  0  0
 10 38  1  0  0  0  0
 11 39  1  0  0  0  0
 12 40  1  0  0  0  0
 19 41  1  0  0  0  0
 19 42  1  0  0  0  0
 19 43  1  0  0  0  0
 20 44  1  0  0  0  0
 20 45  1  0  0  0  0
 20 46  1  0  0  0  0
 21 47  1  0  0  0  0
 21 48  1  0  0  0  0
 22 49  1  0  0  0  0
 22 50  1  0  0  0  0
M  END
> <clash_score>
0

> <docking_score>
-10.350360870361328

$$$$
BENZO_365_1
  -OEChem-08212023343D

 53 56  0     0  0  0  0  0  0999 V2000
   14.1526    1.4694   24.0176 C   0  0  0  0  0  0  0  0  0  0  0  0
   13.3741    0.8121   24.9701 C   0  0  0  0  0  0  0  0  0  0  0  0
   13.5446    2.0802   22.9208 C   0  0  0  0  0  0  0  0  0  0  0  0
    3.9160    2.0630   19.5520 C   0  0  0  0  0  0  0  0  0  0  0  0
    4.2750    1.7050   20.8490 C   0  0  0  0  0  0  0  0  0  0  0  0
   11.9875    0.7654   24.8258 C   0  0  0  0  0  0  0  0  0  0  0  0
   12.1580    2.0335   22.7765 C   0  0  0  0  0  0  0  0  0  0  0  0
    4.6890    1.6810   18.4640 C   0  0  0  0  0  0  0  0  0  0  0  0
    5.4210    0.9600   21.0930 C   0  0  0  0  0  0  0  0  0  0  0  0
    9.0720   -1.1280   24.8640 C   0  0  0  0  0  0  0  0  0  0  0  0
    9.7200   -2.2600   22.8630 C   0  0  0  0  0  0  0  0  0  0  0  0
    8.9960   -2.3380   25.5320 C   0  0  0  0  0  0  0  0  0  0  0  0
    9.6730   -3.4710   23.5300 C   0  0  0  0  0  0  0  0  0  0  0  0
    7.6390   -0.2680   18.5410 C   0  0  0  0  0  0  0  0  0  0  0  0
   11.3794    1.3761   23.7290 C   0  0  0  0  0  0  0  0  0  0  0  0
    5.8300    0.9190   18.6970 C   0  0  0  0  0  0  0  0  0  0  0  0
    6.1790    0.5730   19.9990 C   0  0  0  0  0  0  0  0  0  0  0  0
    9.3350   -1.0880   23.5010 C   0  0  0  0  0  0  0  0  0  0  0  0
    9.3070   -3.5340   24.8780 C   0  0  0  0  0  0  0  0  0  0  0  0
    9.0420    0.3700   21.5280 C   0  0  0  0  0  0  0  0  0  0  0  0
    8.0128   -5.2151   26.1416 C   0  0  0  0  0  0  0  0  0  0  0  0
   10.4372   -5.5860   25.6589 C   0  0  0  0  0  0  0  0  0  0  0  0
    9.8870    1.3260   23.5730 C   0  0  0  0  0  0  0  0  0  0  0  0
    8.1890   -0.7180   20.8700 C   0  0  0  0  0  0  0  0  0  0  0  0
    6.7580    0.3810   17.8350 N   0  0  0  0  0  0  0  0  0  0  0  0
    7.3170   -0.1610   19.8550 N   0  0  0  0  0  0  0  0  0  0  0  0
    9.4560    0.1560   22.8130 N   0  0  0  0  0  0  0  0  0  0  0  0
    9.2543   -4.7552   25.5519 N   0  0  0  0  0  0  0  0  0  0  0  0
    9.2690    1.4140   20.9380 O   0  0  0  0  0  0  0  0  0  0  0  0
   15.2322    1.5068   24.1308 H   0  0  0  0  0  0  0  0  0  0  0  0
   13.8473    0.3374   25.8248 H   0  0  0  0  0  0  0  0  0  0  0  0
   14.1503    2.5930   22.1795 H   0  0  0  0  0  0  0  0  0  0  0  0
    3.0133    2.6526   19.3911 H   0  0  0  0  0  0  0  0  0  0  0  0
    3.6478    2.0143   21.6818 H   0  0  0  0  0  0  0  0  0  0  0  0
   11.3889    0.2508   25.5729 H   0  0  0  0  0  0  0  0  0  0  0  0
   11.6930    2.5120   21.9187 H   0  0  0  0  0  0  0  0  0  0  0  0
    4.4036    1.9735   17.4543 H   0  0  0  0  0  0  0  0  0  0  0  0
    5.7089    0.6922   22.1131 H   0  0  0  0  0  0  0  0  0  0  0  0
    8.9217   -0.1995   25.4232 H   0  0  0  0  0  0  0  0  0  0  0  0
   10.0643   -2.2341   21.8254 H   0  0  0  0  0  0  0  0  0  0  0  0
    8.6893   -2.3540   26.5808 H   0  0  0  0  0  0  0  0  0  0  0  0
    9.9257   -4.3898   22.9921 H   0  0  0  0  0  0  0  0  0  0  0  0
    8.4865   -0.8061   18.1803 H   0  0  0  0  0  0  0  0  0  0  0  0
    8.1744   -6.1904   26.6238 H   0  0  0  0  0  0  0  0  0  0  0  0
    7.6718   -4.4870   26.8924 H   0  0  0  0  0  0  0  0  0  0  0  0
    7.2494   -5.3166   25.3561 H   0  0  0  0  0  0  0  0  0  0  0  0
   10.1946   -6.4995   26.2216 H   0  0  0  0  0  0  0  0  0  0  0  0
   10.7865   -5.8578   24.6518 H   0  0  0  0  0  0  0  0  0  0  0  0
   11.2285   -5.0312   26.1842 H   0  0  0  0  0  0  0  0  0  0  0  0
    9.3974    1.2912   24.5523 H   0  0  0  0  0  0  0  0  0  0  0  0
    9.5159    2.2168   23.0553 H   0  0  0  0  0  0  0  0  0  0  0  0
    8.8262   -1.4533   20.3842 H   0  0  0  0  0  0  0  0  0  0  0  0
    7.5540   -1.1950   21.6130 H   0  0  0  0  0  0  0  0  0  0  0  0
  1  2  1  0  0  0  0
  1  3  2  0  0  0  0
  2  6  2  0  0  0  0
  3  7  1  0  0  0  0
  4  5  1  0  0  0  0
  4  8  2  0  0  0  0
  5  9  2  0  0  0  0
  6 15  1  0  0  0  0
  7 15  2  0  0  0  0
  8 16  1  0  0  0  0
  9 17  1  0  0  0  0
 10 12  2  0  0  0  0
 10 18  1  0  0  0  0
 11 13  1  0  0  0  0
 11 18  2  0  0  0  0
 12 19  1  0  0  0  0
 13 19  2  0  0  0  0
 14 25  2  0  0  0  0
 14 26  1  0  0  0  0
 15 23  1  0  0  0  0
 16 17  2  0  0  0  0
 16 25  1  0  0  0  0
 17 26  1  0  0  0  0
 18 27  1  0  0  0  0
 19 28  1  0  0  0  0
 20 24  1  0  0  0  0
 20 27  1  0  0  0  0
 20 29  2  0  0  0  0
 21 28  1  0  0  0  0
 22 28  1  0  0  0  0
 23 27  1  0  0  0  0
 24 26  1  0  0  0  0
  1 30  1  0  0  0  0
  2 31  1  0  0  0  0
  3 32  1  0  0  0  0
  4 33  1  0  0  0  0
  5 34  1  0  0  0  0
  6 35  1  0  0  0  0
  7 36  1  0  0  0  0
  8 37  1  0  0  0  0
  9 38  1  0  0  0  0
 10 39  1  0  0  0  0
 11 40  1  0  0  0  0
 12 41  1  0  0  0  0
 13 42  1  0  0  0  0
 14 43  1  0  0  0  0
 21 44  1  0  0  0  0
 21 45  1  0  0  0  0
 21 46  1  0  0  0  0
 22 47  1  0  0  0  0
 22 48  1  0  0  0  0
 22 49  1  0  0  0  0
 23 50  1  0  0  0  0
 23 51  1  0  0  0  0
 24 52  1  0  0  0  0
 24 53  1  0  0  0  0
M  END
> <clash_score>
0

> <docking_score>
-10.271506309509277

$$$$
BENZO_366_1
  -OEChem-08212023343D

 53 56  0     0  0  0  0  0  0999 V2000
    3.9160    2.0630   19.5520 C   0  0  0  0  0  0  0  0  0  0  0  0
    4.2750    1.7050   20.8490 C   0  0  0  0  0  0  0  0  0  0  0  0
    6.4089    2.0844   24.8766 C   0  0  0  0  0  0  0  0  0  0  0  0
    7.4847    1.4191   24.2887 C   0  0  0  0  0  0  0  0  0  0  0  0
    4.6890    1.6810   18.4640 C   0  0  0  0  0  0  0  0  0  0  0  0
    5.4210    0.9600   21.0930 C   0  0  0  0  0  0  0  0  0  0  0  0
    9.0720   -1.1280   24.8640 C   0  0  0  0  0  0  0  0  0  0  0  0
    9.7200   -2.2600   22.8630 C   0  0  0  0  0  0  0  0  0  0  0  0
    8.9960   -2.3380   25.5320 C   0  0  0  0  0  0  0  0  0  0  0  0
    9.6730   -3.4710   23.5300 C   0  0  0  0  0  0  0  0  0  0  0  0
    6.5777    3.3741   25.3805 C   0  0  0  0  0  0  0  0  0  0  0  0
    8.8980    3.3330   24.7088 C   0  0  0  0  0  0  0  0  0  0  0  0
    7.6390   -0.2680   18.5410 C   0  0  0  0  0  0  0  0  0  0  0  0
    8.7292    2.0433   24.2048 C   0  0  0  0  0  0  0  0  0  0  0  0
    5.8300    0.9190   18.6970 C   0  0  0  0  0  0  0  0  0  0  0  0
    6.1790    0.5730   19.9990 C   0  0  0  0  0  0  0  0  0  0  0  0
    9.3350   -1.0880   23.5010 C   0  0  0  0  0  0  0  0  0  0  0  0
    9.3070   -3.5340   24.8780 C   0  0  0  0  0  0  0  0  0  0  0  0
    7.8222    3.9984   25.2966 C   0  0  0  0  0  0  0  0  0  0  0  0
    9.0420    0.3700   21.5280 C   0  0  0  0  0  0  0  0  0  0  0  0
    8.0128   -5.2151   26.1416 C   0  0  0  0  0  0  0  0  0  0  0  0
   10.4372   -5.5860   25.6589 C   0  0  0  0  0  0  0  0  0  0  0  0
    9.8870    1.3260   23.5730 C   0  0  0  0  0  0  0  0  0  0  0  0
    8.1890   -0.7180   20.8700 C   0  0  0  0  0  0  0  0  0  0  0  0
    6.7580    0.3810   17.8350 N   0  0  0  0  0  0  0  0  0  0  0  0
    7.3170   -0.1610   19.8550 N   0  0  0  0  0  0  0  0  0  0  0  0
    9.4560    0.1560   22.8130 N   0  0  0  0  0  0  0  0  0  0  0  0
    9.2543   -4.7552   25.5519 N   0  0  0  0  0  0  0  0  0  0  0  0
    9.2690    1.4140   20.9380 O   0  0  0  0  0  0  0  0  0  0  0  0
    8.0301    5.5891   25.9196 Cl  0  0  0  0  0  0  0  0  0  0  0  0
    3.0133    2.6526   19.3911 H   0  0  0  0  0  0  0  0  0  0  0  0
    3.6478    2.0143   21.6818 H   0  0  0  0  0  0  0  0  0  0  0  0
    5.4400    1.5979   24.9418 H   0  0  0  0  0  0  0  0  0  0  0  0
    7.3441    0.4143   23.8988 H   0  0  0  0  0  0  0  0  0  0  0  0
    4.4036    1.9735   17.4543 H   0  0  0  0  0  0  0  0  0  0  0  0
    5.7089    0.6922   22.1131 H   0  0  0  0  0  0  0  0  0  0  0  0
    8.9217   -0.1995   25.4232 H   0  0  0  0  0  0  0  0  0  0  0  0
   10.0643   -2.2341   21.8254 H   0  0  0  0  0  0  0  0  0  0  0  0
    8.6893   -2.3540   26.5808 H   0  0  0  0  0  0  0  0  0  0  0  0
    9.9257   -4.3898   22.9921 H   0  0  0  0  0  0  0  0  0  0  0  0
    5.7304    3.8806   25.8363 H   0  0  0  0  0  0  0  0  0  0  0  0
    9.8703    3.8156   24.6405 H   0  0  0  0  0  0  0  0  0  0  0  0
    8.4865   -0.8061   18.1803 H   0  0  0  0  0  0  0  0  0  0  0  0
    8.1744   -6.1904   26.6238 H   0  0  0  0  0  0  0  0  0  0  0  0
    7.6718   -4.4870   26.8924 H   0  0  0  0  0  0  0  0  0  0  0  0
    7.2494   -5.3166   25.3561 H   0  0  0  0  0  0  0  0  0  0  0  0
   10.1946   -6.4995   26.2216 H   0  0  0  0  0  0  0  0  0  0  0  0
   10.7865   -5.8578   24.6518 H   0  0  0  0  0  0  0  0  0  0  0  0
   11.2285   -5.0312   26.1842 H   0  0  0  0  0  0  0  0  0  0  0  0
   10.4274    1.9911   22.8906 H   0  0  0  0  0  0  0  0  0  0  0  0
   10.6011    0.9882   24.3313 H   0  0  0  0  0  0  0  0  0  0  0  0
    8.8262   -1.4533   20.3842 H   0  0  0  0  0  0  0  0  0  0  0  0
    7.5540   -1.1950   21.6130 H   0  0  0  0  0  0  0  0  0  0  0  0
  1  2  1  0  0  0  0
  1  5  2  0  0  0  0
  2  6  2  0  0  0  0
  3  4  2  0  0  0  0
  3 11  1  0  0  0  0
  4 14  1  0  0  0  0
  5 15  1  0  0  0  0
  6 16  1  0  0  0  0
  7  9  2  0  0  0  0
  7 17  1  0  0  0  0
  8 10  1  0  0  0  0
  8 17  2  0  0  0  0
  9 18  1  0  0  0  0
 10 18  2  0  0  0  0
 11 19  2  0  0  0  0
 12 14  2  0  0  0  0
 12 19  1  0  0  0  0
 13 25  2  0  0  0  0
 13 26  1  0  0  0  0
 14 23  1  0  0  0  0
 15 16  2  0  0  0  0
 15 25  1  0  0  0  0
 16 26  1  0  0  0  0
 17 27  1  0  0  0  0
 18 28  1  0  0  0  0
 19 30  1  0  0  0  0
 20 24  1  0  0  0  0
 20 27  1  0  0  0  0
 20 29  2  0  0  0  0
 21 28  1  0  0  0  0
 22 28  1  0  0  0  0
 23 27  1  0  0  0  0
 24 26  1  0  0  0  0
  1 31  1  0  0  0  0
  2 32  1  0  0  0  0
  3 33  1  0  0  0  0
  4 34  1  0  0  0  0
  5 35  1  0  0  0  0
  6 36  1  0  0  0  0
  7 37  1  0  0  0  0
  8 38  1  0  0  0  0
  9 39  1  0  0  0  0
 10 40  1  0  0  0  0
 11 41  1  0  0  0  0
 12 42  1  0  0  0  0
 13 43  1  0  0  0  0
 21 44  1  0  0  0  0
 21 45  1  0  0  0  0
 21 46  1  0  0  0  0
 22 47  1  0  0  0  0
 22 48  1  0  0  0  0
 22 49  1  0  0  0  0
 23 50  1  0  0  0  0
 23 51  1  0  0  0  0
 24 52  1  0  0  0  0
 24 53  1  0  0  0  0
M  END
> <clash_score>
0

> <docking_score>
-9.657527923583984

$$$$
BENZO_369_1
  -OEChem-08212023383D

 55 58  0     0  0  0  0  0  0999 V2000
   14.1526    1.4694   24.0176 C   0  0  0  0  0  0  0  0  0  0  0  0
   13.3741    0.8121   24.9701 C   0  0  0  0  0  0  0  0  0  0  0  0
   13.5446    2.0802   22.9208 C   0  0  0  0  0  0  0  0  0  0  0  0
    3.9160    2.0630   19.5520 C   0  0  0  0  0  0  0  0  0  0  0  0
    4.2750    1.7050   20.8490 C   0  0  0  0  0  0  0  0  0  0  0  0
   11.9875    0.7654   24.8258 C   0  0  0  0  0  0  0  0  0  0  0  0
   12.1580    2.0335   22.7765 C   0  0  0  0  0  0  0  0  0  0  0  0
    4.6890    1.6810   18.4640 C   0  0  0  0  0  0  0  0  0  0  0  0
    5.4210    0.9600   21.0930 C   0  0  0  0  0  0  0  0  0  0  0  0
    8.9960   -2.3380   25.5320 C   0  0  0  0  0  0  0  0  0  0  0  0
    9.6730   -3.4710   23.5300 C   0  0  0  0  0  0  0  0  0  0  0  0
    9.0720   -1.1280   24.8640 C   0  0  0  0  0  0  0  0  0  0  0  0
    9.7200   -2.2600   22.8630 C   0  0  0  0  0  0  0  0  0  0  0  0
    7.6390   -0.2680   18.5410 C   0  0  0  0  0  0  0  0  0  0  0  0
   11.3794    1.3761   23.7290 C   0  0  0  0  0  0  0  0  0  0  0  0
    5.8300    0.9190   18.6970 C   0  0  0  0  0  0  0  0  0  0  0  0
    6.1790    0.5730   19.9990 C   0  0  0  0  0  0  0  0  0  0  0  0
    9.3070   -3.5340   24.8780 C   0  0  0  0  0  0  0  0  0  0  0  0
    9.3350   -1.0880   23.5010 C   0  0  0  0  0  0  0  0  0  0  0  0
    9.5333   -6.0236   25.0413 C   0  0  0  0  0  0  0  0  0  0  0  0
    9.0420    0.3700   21.5280 C   0  0  0  0  0  0  0  0  0  0  0  0
   10.6330   -7.3747   26.8774 C   0  0  0  0  0  0  0  0  0  0  0  0
    9.8870    1.3260   23.5730 C   0  0  0  0  0  0  0  0  0  0  0  0
    9.3523   -7.0865   26.1148 C   0  0  0  0  0  0  0  0  0  0  0  0
    8.1890   -0.7180   20.8700 C   0  0  0  0  0  0  0  0  0  0  0  0
    6.7580    0.3810   17.8350 N   0  0  0  0  0  0  0  0  0  0  0  0
    7.3170   -0.1610   19.8550 N   0  0  0  0  0  0  0  0  0  0  0  0
    9.2546   -4.7422   25.5438 N   0  0  0  0  0  0  0  0  0  0  0  0
    9.4560    0.1560   22.8130 N   0  0  0  0  0  0  0  0  0  0  0  0
    9.8805   -6.3052   23.8991 O   0  0  0  0  0  0  0  0  0  0  0  0
    9.2690    1.4140   20.9380 O   0  0  0  0  0  0  0  0  0  0  0  0
   15.2322    1.5068   24.1308 H   0  0  0  0  0  0  0  0  0  0  0  0
   13.8473    0.3374   25.8248 H   0  0  0  0  0  0  0  0  0  0  0  0
   14.1503    2.5930   22.1795 H   0  0  0  0  0  0  0  0  0  0  0  0
    3.0133    2.6526   19.3911 H   0  0  0  0  0  0  0  0  0  0  0  0
    3.6478    2.0143   21.6818 H   0  0  0  0  0  0  0  0  0  0  0  0
   11.3889    0.2508   25.5729 H   0  0  0  0  0  0  0  0  0  0  0  0
   11.6930    2.5120   21.9187 H   0  0  0  0  0  0  0  0  0  0  0  0
    4.4036    1.9735   17.4543 H   0  0  0  0  0  0  0  0  0  0  0  0
    5.7089    0.6922   22.1131 H   0  0  0  0  0  0  0  0  0  0  0  0
    8.6895   -2.3529   26.5807 H   0  0  0  0  0  0  0  0  0  0  0  0
    9.9262   -4.3897   22.9916 H   0  0  0  0  0  0  0  0  0  0  0  0
    8.9224   -0.1998   25.4238 H   0  0  0  0  0  0  0  0  0  0  0  0
   10.0649   -2.2343   21.8258 H   0  0  0  0  0  0  0  0  0  0  0  0
    8.4865   -0.8061   18.1803 H   0  0  0  0  0  0  0  0  0  0  0  0
   11.4241   -7.7171   26.2022 H   0  0  0  0  0  0  0  0  0  0  0  0
   10.4629   -8.1531   27.6275 H   0  0  0  0  0  0  0  0  0  0  0  0
   10.9950   -6.4780   27.3910 H   0  0  0  0  0  0  0  0  0  0  0  0
    9.3974    1.2912   24.5523 H   0  0  0  0  0  0  0  0  0  0  0  0
    9.5159    2.2168   23.0553 H   0  0  0  0  0  0  0  0  0  0  0  0
    8.5795   -6.7463   26.8137 H   0  0  0  0  0  0  0  0  0  0  0  0
    8.9965   -8.0064   25.6366 H   0  0  0  0  0  0  0  0  0  0  0  0
    8.8262   -1.4533   20.3842 H   0  0  0  0  0  0  0  0  0  0  0  0
    7.5540   -1.1950   21.6130 H   0  0  0  0  0  0  0  0  0  0  0  0
    8.9776   -4.7057   26.5317 H   0  0  0  0  0  0  0  0  0  0  0  0
  1  2  1  0  0  0  0
  1  3  2  0  0  0  0
  2  6  2  0  0  0  0
  3  7  1  0  0  0  0
  4  5  1  0  0  0  0
  4  8  2  0  0  0  0
  5  9  2  0  0  0  0
  6 15  1  0  0  0  0
  7 15  2  0  0  0  0
  8 16  1  0  0  0  0
  9 17  1  0  0  0  0
 10 12  2  0  0  0  0
 10 18  1  0  0  0  0
 11 13  1  0  0  0  0
 11 18  2  0  0  0  0
 12 19  1  0  0  0  0
 13 19  2  0  0  0  0
 14 26  2  0  0  0  0
 14 27  1  0  0  0  0
 15 23  1  0  0  0  0
 16 17  2  0  0  0  0
 16 26  1  0  0  0  0
 17 27  1  0  0  0  0
 18 28  1  0  0  0  0
 19 29  1  0  0  0  0
 20 24  1  0  0  0  0
 20 28  1  0  0  0  0
 20 30  2  0  0  0  0
 21 25  1  0  0  0  0
 21 29  1  0  0  0  0
 21 31  2  0  0  0  0
 22 24  1  0  0  0  0
 23 29  1  0  0  0  0
 25 27  1  0  0  0  0
  1 32  1  0  0  0  0
  2 33  1  0  0  0  0
  3 34  1  0  0  0  0
  4 35  1  0  0  0  0
  5 36  1  0  0  0  0
  6 37  1  0  0  0  0
  7 38  1  0  0  0  0
  8 39  1  0  0  0  0
  9 40  1  0  0  0  0
 10 41  1  0  0  0  0
 11 42  1  0  0  0  0
 12 43  1  0  0  0  0
 13 44  1  0  0  0  0
 14 45  1  0  0  0  0
 22 46  1  0  0  0  0
 22 47  1  0  0  0  0
 22 48  1  0  0  0  0
 23 49  1  0  0  0  0
 23 50  1  0  0  0  0
 24 51  1  0  0  0  0
 24 52  1  0  0  0  0
 25 53  1  0  0  0  0
 25 54  1  0  0  0  0
 28 55  1  0  0  0  0
M  END
> <clash_score>
1.498603890647447

> <docking_score>
-7.077194690704346

$$$$
BENZO_370_1
  -OEChem-08212023383D

 55 58  0     0  0  0  0  0  0999 V2000
    3.9160    2.0630   19.5520 C   0  0  0  0  0  0  0  0  0  0  0  0
    4.2750    1.7050   20.8490 C   0  0  0  0  0  0  0  0  0  0  0  0
    6.4089    2.0844   24.8766 C   0  0  0  0  0  0  0  0  0  0  0  0
    7.4847    1.4191   24.2887 C   0  0  0  0  0  0  0  0  0  0  0  0
    4.6890    1.6810   18.4640 C   0  0  0  0  0  0  0  0  0  0  0  0
    5.4210    0.9600   21.0930 C   0  0  0  0  0  0  0  0  0  0  0  0
    8.9960   -2.3380   25.5320 C   0  0  0  0  0  0  0  0  0  0  0  0
    9.6730   -3.4710   23.5300 C   0  0  0  0  0  0  0  0  0  0  0  0
    9.0720   -1.1280   24.8640 C   0  0  0  0  0  0  0  0  0  0  0  0
    9.7200   -2.2600   22.8630 C   0  0  0  0  0  0  0  0  0  0  0  0
    6.5777    3.3741   25.3805 C   0  0  0  0  0  0  0  0  0  0  0  0
    8.8980    3.3330   24.7088 C   0  0  0  0  0  0  0  0  0  0  0  0
    7.6390   -0.2680   18.5410 C   0  0  0  0  0  0  0  0  0  0  0  0
    8.7292    2.0433   24.2048 C   0  0  0  0  0  0  0  0  0  0  0  0
    5.8300    0.9190   18.6970 C   0  0  0  0  0  0  0  0  0  0  0  0
    6.1790    0.5730   19.9990 C   0  0  0  0  0  0  0  0  0  0  0  0
    9.3070   -3.5340   24.8780 C   0  0  0  0  0  0  0  0  0  0  0  0
    9.3350   -1.0880   23.5010 C   0  0  0  0  0  0  0  0  0  0  0  0
    7.8222    3.9984   25.2966 C   0  0  0  0  0  0  0  0  0  0  0  0
    9.5333   -6.0236   25.0413 C   0  0  0  0  0  0  0  0  0  0  0  0
    9.0420    0.3700   21.5280 C   0  0  0  0  0  0  0  0  0  0  0  0
   10.6330   -7.3747   26.8774 C   0  0  0  0  0  0  0  0  0  0  0  0
    9.8870    1.3260   23.5730 C   0  0  0  0  0  0  0  0  0  0  0  0
    9.3523   -7.0865   26.1148 C   0  0  0  0  0  0  0  0  0  0  0  0
    8.1890   -0.7180   20.8700 C   0  0  0  0  0  0  0  0  0  0  0  0
    6.7580    0.3810   17.8350 N   0  0  0  0  0  0  0  0  0  0  0  0
    7.3170   -0.1610   19.8550 N   0  0  0  0  0  0  0  0  0  0  0  0
    9.2546   -4.7422   25.5438 N   0  0  0  0  0  0  0  0  0  0  0  0
    9.4560    0.1560   22.8130 N   0  0  0  0  0  0  0  0  0  0  0  0
    9.8805   -6.3052   23.8991 O   0  0  0  0  0  0  0  0  0  0  0  0
    9.2690    1.4140   20.9380 O   0  0  0  0  0  0  0  0  0  0  0  0
    8.0301    5.5891   25.9196 Cl  0  0  0  0  0  0  0  0  0  0  0  0
    3.0133    2.6526   19.3911 H   0  0  0  0  0  0  0  0  0  0  0  0
    3.6478    2.0143   21.6818 H   0  0  0  0  0  0  0  0  0  0  0  0
    5.4400    1.5979   24.9418 H   0  0  0  0  0  0  0  0  0  0  0  0
    7.3441    0.4143   23.8988 H   0  0  0  0  0  0  0  0  0  0  0  0
    4.4036    1.9735   17.4543 H   0  0  0  0  0  0  0  0  0  0  0  0
    5.7089    0.6922   22.1131 H   0  0  0  0  0  0  0  0  0  0  0  0
    8.6895   -2.3529   26.5807 H   0  0  0  0  0  0  0  0  0  0  0  0
    9.9262   -4.3897   22.9916 H   0  0  0  0  0  0  0  0  0  0  0  0
    8.9224   -0.1998   25.4238 H   0  0  0  0  0  0  0  0  0  0  0  0
   10.0649   -2.2343   21.8258 H   0  0  0  0  0  0  0  0  0  0  0  0
    5.7304    3.8806   25.8363 H   0  0  0  0  0  0  0  0  0  0  0  0
    9.8703    3.8156   24.6405 H   0  0  0  0  0  0  0  0  0  0  0  0
    8.4865   -0.8061   18.1803 H   0  0  0  0  0  0  0  0  0  0  0  0
   11.4241   -7.7171   26.2022 H   0  0  0  0  0  0  0  0  0  0  0  0
   10.4629   -8.1531   27.6275 H   0  0  0  0  0  0  0  0  0  0  0  0
   10.9950   -6.4780   27.3910 H   0  0  0  0  0  0  0  0  0  0  0  0
   10.4274    1.9911   22.8906 H   0  0  0  0  0  0  0  0  0  0  0  0
   10.6011    0.9882   24.3313 H   0  0  0  0  0  0  0  0  0  0  0  0
    8.5795   -6.7463   26.8137 H   0  0  0  0  0  0  0  0  0  0  0  0
    8.9965   -8.0064   25.6366 H   0  0  0  0  0  0  0  0  0  0  0  0
    8.8262   -1.4533   20.3842 H   0  0  0  0  0  0  0  0  0  0  0  0
    7.5540   -1.1950   21.6130 H   0  0  0  0  0  0  0  0  0  0  0  0
    8.9776   -4.7057   26.5317 H   0  0  0  0  0  0  0  0  0  0  0  0
  1  2  1  0  0  0  0
  1  5  2  0  0  0  0
  2  6  2  0  0  0  0
  3  4  2  0  0  0  0
  3 11  1  0  0  0  0
  4 14  1  0  0  0  0
  5 15  1  0  0  0  0
  6 16  1  0  0  0  0
  7  9  2  0  0  0  0
  7 17  1  0  0  0  0
  8 10  1  0  0  0  0
  8 17  2  0  0  0  0
  9 18  1  0  0  0  0
 10 18  2  0  0  0  0
 11 19  2  0  0  0  0
 12 14  2  0  0  0  0
 12 19  1  0  0  0  0
 13 26  2  0  0  0  0
 13 27  1  0  0  0  0
 14 23  1  0  0  0  0
 15 16  2  0  0  0  0
 15 26  1  0  0  0  0
 16 27  1  0  0  0  0
 17 28  1  0  0  0  0
 18 29  1  0  0  0  0
 19 32  1  0  0  0  0
 20 24  1  0  0  0  0
 20 28  1  0  0  0  0
 20 30  2  0  0  0  0
 21 25  1  0  0  0  0
 21 29  1  0  0  0  0
 21 31  2  0  0  0  0
 22 24  1  0  0  0  0
 23 29  1  0  0  0  0
 25 27  1  0  0  0  0
  1 33  1  0  0  0  0
  2 34  1  0  0  0  0
  3 35  1  0  0  0  0
  4 36  1  0  0  0  0
  5 37  1  0  0  0  0
  6 38  1  0  0  0  0
  7 39  1  0  0  0  0
  8 40  1  0  0  0  0
  9 41  1  0  0  0  0
 10 42  1  0  0  0  0
 11 43  1  0  0  0  0
 12 44  1  0  0  0  0
 13 45  1  0  0  0  0
 22 46  1  0  0  0  0
 22 47  1  0  0  0  0
 22 48  1  0  0  0  0
 23 49  1  0  0  0  0
 23 50  1  0  0  0  0
 24 51  1  0  0  0  0
 24 52  1  0  0  0  0
 25 53  1  0  0  0  0
 25 54  1  0  0  0  0
 28 55  1  0  0  0  0
M  END
> <clash_score>
1.498603890647447

> <docking_score>
-6.4632134437561035

$$$$
BENZO_368_1
  -OEChem-08212023383D

 52 55  0     0  0  0  0  0  0999 V2000
    3.9160    2.0630   19.5520 C   0  0  0  0  0  0  0  0  0  0  0  0
    4.2750    1.7050   20.8490 C   0  0  0  0  0  0  0  0  0  0  0  0
    4.6890    1.6810   18.4640 C   0  0  0  0  0  0  0  0  0  0  0  0
    5.4210    0.9600   21.0930 C   0  0  0  0  0  0  0  0  0  0  0  0
    8.9960   -2.3380   25.5320 C   0  0  0  0  0  0  0  0  0  0  0  0
    9.6730   -3.4710   23.5300 C   0  0  0  0  0  0  0  0  0  0  0  0
    9.0720   -1.1280   24.8640 C   0  0  0  0  0  0  0  0  0  0  0  0
    9.7200   -2.2600   22.8630 C   0  0  0  0  0  0  0  0  0  0  0  0
   12.2913    1.4279   22.6355 C   0  0  0  0  0  0  0  0  0  0  0  0
   13.6024    1.4662   23.0564 C   0  0  0  0  0  0  0  0  0  0  0  0
   12.0284    1.3764   24.9443 C   0  0  0  0  0  0  0  0  0  0  0  0
    7.6390   -0.2680   18.5410 C   0  0  0  0  0  0  0  0  0  0  0  0
   11.3794    1.3761   23.7290 C   0  0  0  0  0  0  0  0  0  0  0  0
    5.8300    0.9190   18.6970 C   0  0  0  0  0  0  0  0  0  0  0  0
    6.1790    0.5730   19.9990 C   0  0  0  0  0  0  0  0  0  0  0  0
    9.3070   -3.5340   24.8780 C   0  0  0  0  0  0  0  0  0  0  0  0
    9.3350   -1.0880   23.5010 C   0  0  0  0  0  0  0  0  0  0  0  0
    9.5333   -6.0236   25.0413 C   0  0  0  0  0  0  0  0  0  0  0  0
    9.0420    0.3700   21.5280 C   0  0  0  0  0  0  0  0  0  0  0  0
   10.6330   -7.3747   26.8774 C   0  0  0  0  0  0  0  0  0  0  0  0
    9.8870    1.3260   23.5730 C   0  0  0  0  0  0  0  0  0  0  0  0
    9.3523   -7.0865   26.1148 C   0  0  0  0  0  0  0  0  0  0  0  0
    8.1890   -0.7180   20.8700 C   0  0  0  0  0  0  0  0  0  0  0  0
    6.7580    0.3810   17.8350 N   0  0  0  0  0  0  0  0  0  0  0  0
    7.3170   -0.1610   19.8550 N   0  0  0  0  0  0  0  0  0  0  0  0
    9.2546   -4.7422   25.5438 N   0  0  0  0  0  0  0  0  0  0  0  0
    9.4560    0.1560   22.8130 N   0  0  0  0  0  0  0  0  0  0  0  0
    9.8805   -6.3052   23.8991 O   0  0  0  0  0  0  0  0  0  0  0  0
    9.2690    1.4140   20.9380 O   0  0  0  0  0  0  0  0  0  0  0  0
   13.7301    1.4394   24.7638 S   0  0  0  0  0  0  0  0  0  0  0  0
    3.0133    2.6526   19.3911 H   0  0  0  0  0  0  0  0  0  0  0  0
    3.6478    2.0143   21.6818 H   0  0  0  0  0  0  0  0  0  0  0  0
    4.4036    1.9735   17.4543 H   0  0  0  0  0  0  0  0  0  0  0  0
    5.7089    0.6922   22.1131 H   0  0  0  0  0  0  0  0  0  0  0  0
    8.6895   -2.3529   26.5807 H   0  0  0  0  0  0  0  0  0  0  0  0
    9.9262   -4.3897   22.9916 H   0  0  0  0  0  0  0  0  0  0  0  0
    8.9224   -0.1998   25.4238 H   0  0  0  0  0  0  0  0  0  0  0  0
   10.0649   -2.2343   21.8258 H   0  0  0  0  0  0  0  0  0  0  0  0
   12.0045    1.4365   21.5915 H   0  0  0  0  0  0  0  0  0  0  0  0
   14.4914    1.5078   22.4431 H   0  0  0  0  0  0  0  0  0  0  0  0
   11.5886    1.3416   25.9314 H   0  0  0  0  0  0  0  0  0  0  0  0
    8.4865   -0.8061   18.1803 H   0  0  0  0  0  0  0  0  0  0  0  0
   11.4241   -7.7171   26.2022 H   0  0  0  0  0  0  0  0  0  0  0  0
   10.4629   -8.1531   27.6275 H   0  0  0  0  0  0  0  0  0  0  0  0
   10.9950   -6.4780   27.3910 H   0  0  0  0  0  0  0  0  0  0  0  0
    9.3974    1.2912   24.5523 H   0  0  0  0  0  0  0  0  0  0  0  0
    9.5159    2.2168   23.0553 H   0  0  0  0  0  0  0  0  0  0  0  0
    8.5795   -6.7463   26.8137 H   0  0  0  0  0  0  0  0  0  0  0  0
    8.9965   -8.0064   25.6366 H   0  0  0  0  0  0  0  0  0  0  0  0
    8.8262   -1.4533   20.3842 H   0  0  0  0  0  0  0  0  0  0  0  0
    7.5540   -1.1950   21.6130 H   0  0  0  0  0  0  0  0  0  0  0  0
    8.9776   -4.7057   26.5317 H   0  0  0  0  0  0  0  0  0  0  0  0
  1  2  1  0  0  0  0
  1  3  2  0  0  0  0
  2  4  2  0  0  0  0
  3 14  1  0  0  0  0
  4 15  1  0  0  0  0
  5  7  2  0  0  0  0
  5 16  1  0  0  0  0
  6  8  1  0  0  0  0
  6 16  2  0  0  0  0
  7 17  1  0  0  0  0
  8 17  2  0  0  0  0
  9 10  2  0  0  0  0
  9 13  1  0  0  0  0
 10 30  1  0  0  0  0
 11 13  2  0  0  0  0
 11 30  1  0  0  0  0
 12 24  2  0  0  0  0
 12 25  1  0  0  0  0
 13 21  1  0  0  0  0
 14 15  2  0  0  0  0
 14 24  1  0  0  0  0
 15 25  1  0  0  0  0
 16 26  1  0  0  0  0
 17 27  1  0  0  0  0
 18 22  1  0  0  0  0
 18 26  1  0  0  0  0
 18 28  2  0  0  0  0
 19 23  1  0  0  0  0
 19 27  1  0  0  0  0
 19 29  2  0  0  0  0
 20 22  1  0  0  0  0
 21 27  1  0  0  0  0
 23 25  1  0  0  0  0
  1 31  1  0  0  0  0
  2 32  1  0  0  0  0
  3 33  1  0  0  0  0
  4 34  1  0  0  0  0
  5 35  1  0  0  0  0
  6 36  1  0  0  0  0
  7 37  1  0  0  0  0
  8 38  1  0  0  0  0
  9 39  1  0  0  0  0
 10 40  1  0  0  0  0
 11 41  1  0  0  0  0
 12 42  1  0  0  0  0
 20 43  1  0  0  0  0
 20 44  1  0  0  0  0
 20 45  1  0  0  0  0
 21 46  1  0  0  0  0
 21 47  1  0  0  0  0
 22 48  1  0  0  0  0
 22 49  1  0  0  0  0
 23 50  1  0  0  0  0
 23 51  1  0  0  0  0
 26 52  1  0  0  0  0
M  END
> <clash_score>
1.498603890647447

> <docking_score>
-7.156052112579346

$$$$
BENZO_371_1
  -OEChem-08212023383D

 55 58  0     0  0  0  0  0  0999 V2000
    3.9160    2.0630   19.5520 C   0  0  0  0  0  0  0  0  0  0  0  0
    4.2750    1.7050   20.8490 C   0  0  0  0  0  0  0  0  0  0  0  0
    4.6890    1.6810   18.4640 C   0  0  0  0  0  0  0  0  0  0  0  0
    5.4210    0.9600   21.0930 C   0  0  0  0  0  0  0  0  0  0  0  0
    8.9960   -2.3380   25.5320 C   0  0  0  0  0  0  0  0  0  0  0  0
    9.6730   -3.4710   23.5300 C   0  0  0  0  0  0  0  0  0  0  0  0
    9.0720   -1.1280   24.8640 C   0  0  0  0  0  0  0  0  0  0  0  0
    9.7200   -2.2600   22.8630 C   0  0  0  0  0  0  0  0  0  0  0  0
   12.1233    1.3811   24.9242 C   0  0  0  0  0  0  0  0  0  0  0  0
   12.3261    1.4247   22.7351 C   0  0  0  0  0  0  0  0  0  0  0  0
    7.6390   -0.2680   18.5410 C   0  0  0  0  0  0  0  0  0  0  0  0
   11.3794    1.3761   23.7290 C   0  0  0  0  0  0  0  0  0  0  0  0
    5.8300    0.9190   18.6970 C   0  0  0  0  0  0  0  0  0  0  0  0
    6.1790    0.5730   19.9990 C   0  0  0  0  0  0  0  0  0  0  0  0
    9.3070   -3.5340   24.8780 C   0  0  0  0  0  0  0  0  0  0  0  0
    9.3350   -1.0880   23.5010 C   0  0  0  0  0  0  0  0  0  0  0  0
    9.5333   -6.0236   25.0413 C   0  0  0  0  0  0  0  0  0  0  0  0
    9.0420    0.3700   21.5280 C   0  0  0  0  0  0  0  0  0  0  0  0
   10.6330   -7.3747   26.8774 C   0  0  0  0  0  0  0  0  0  0  0  0
   14.8305    1.5084   22.7418 C   0  0  0  0  0  0  0  0  0  0  0  0
    9.8870    1.3260   23.5730 C   0  0  0  0  0  0  0  0  0  0  0  0
    9.3523   -7.0865   26.1148 C   0  0  0  0  0  0  0  0  0  0  0  0
    8.1890   -0.7180   20.8700 C   0  0  0  0  0  0  0  0  0  0  0  0
   13.4410    1.4289   24.7112 N   0  0  0  0  0  0  0  0  0  0  0  0
    6.7580    0.3810   17.8350 N   0  0  0  0  0  0  0  0  0  0  0  0
   13.5326    1.4543   23.3706 N   0  0  0  0  0  0  0  0  0  0  0  0
    7.3170   -0.1610   19.8550 N   0  0  0  0  0  0  0  0  0  0  0  0
    9.2546   -4.7422   25.5438 N   0  0  0  0  0  0  0  0  0  0  0  0
    9.4560    0.1560   22.8130 N   0  0  0  0  0  0  0  0  0  0  0  0
    9.8805   -6.3052   23.8991 O   0  0  0  0  0  0  0  0  0  0  0  0
    9.2690    1.4140   20.9380 O   0  0  0  0  0  0  0  0  0  0  0  0
    3.0133    2.6526   19.3911 H   0  0  0  0  0  0  0  0  0  0  0  0
    3.6478    2.0143   21.6818 H   0  0  0  0  0  0  0  0  0  0  0  0
    4.4036    1.9735   17.4543 H   0  0  0  0  0  0  0  0  0  0  0  0
    5.7089    0.6922   22.1131 H   0  0  0  0  0  0  0  0  0  0  0  0
    8.6895   -2.3529   26.5807 H   0  0  0  0  0  0  0  0  0  0  0  0
    9.9262   -4.3897   22.9916 H   0  0  0  0  0  0  0  0  0  0  0  0
    8.9224   -0.1998   25.4238 H   0  0  0  0  0  0  0  0  0  0  0  0
   10.0649   -2.2343   21.8258 H   0  0  0  0  0  0  0  0  0  0  0  0
   11.7624    1.3510   25.9426 H   0  0  0  0  0  0  0  0  0  0  0  0
   12.2462    1.4390   21.6566 H   0  0  0  0  0  0  0  0  0  0  0  0
    8.4865   -0.8061   18.1803 H   0  0  0  0  0  0  0  0  0  0  0  0
   11.4241   -7.7171   26.2022 H   0  0  0  0  0  0  0  0  0  0  0  0
   10.4629   -8.1531   27.6275 H   0  0  0  0  0  0  0  0  0  0  0  0
   10.9950   -6.4780   27.3910 H   0  0  0  0  0  0  0  0  0  0  0  0
   15.0990    2.5601   22.6124 H   0  0  0  0  0  0  0  0  0  0  0  0
   15.5636    1.0018   23.3756 H   0  0  0  0  0  0  0  0  0  0  0  0
   14.7841    1.0025   21.7733 H   0  0  0  0  0  0  0  0  0  0  0  0
    9.3974    1.2912   24.5523 H   0  0  0  0  0  0  0  0  0  0  0  0
    9.5159    2.2168   23.0553 H   0  0  0  0  0  0  0  0  0  0  0  0
    8.5795   -6.7463   26.8137 H   0  0  0  0  0  0  0  0  0  0  0  0
    8.9965   -8.0064   25.6366 H   0  0  0  0  0  0  0  0  0  0  0  0
    8.8262   -1.4533   20.3842 H   0  0  0  0  0  0  0  0  0  0  0  0
    7.5540   -1.1950   21.6130 H   0  0  0  0  0  0  0  0  0  0  0  0
    8.9776   -4.7057   26.5317 H   0  0  0  0  0  0  0  0  0  0  0  0
  1  2  1  0  0  0  0
  1  3  2  0  0  0  0
  2  4  2  0  0  0  0
  3 13  1  0  0  0  0
  4 14  1  0  0  0  0
  5  7  2  0  0  0  0
  5 15  1  0  0  0  0
  6  8  1  0  0  0  0
  6 15  2  0  0  0  0
  7 16  1  0  0  0  0
  8 16  2  0  0  0  0
  9 12  1  0  0  0  0
  9 24  2  0  0  0  0
 10 12  2  0  0  0  0
 10 26  1  0  0  0  0
 11 25  2  0  0  0  0
 11 27  1  0  0  0  0
 12 21  1  0  0  0  0
 13 14  2  0  0  0  0
 13 25  1  0  0  0  0
 14 27  1  0  0  0  0
 15 28  1  0  0  0  0
 16 29  1  0  0  0  0
 17 22  1  0  0  0  0
 17 28  1  0  0  0  0
 17 30  2  0  0  0  0
 18 23  1  0  0  0  0
 18 29  1  0  0  0  0
 18 31  2  0  0  0  0
 19 22  1  0  0  0  0
 20 26  1  0  0  0  0
 21 29  1  0  0  0  0
 23 27  1  0  0  0  0
 24 26  1  0  0  0  0
  1 32  1  0  0  0  0
  2 33  1  0  0  0  0
  3 34  1  0  0  0  0
  4 35  1  0  0  0  0
  5 36  1  0  0  0  0
  6 37  1  0  0  0  0
  7 38  1  0  0  0  0
  8 39  1  0  0  0  0
  9 40  1  0  0  0  0
 10 41  1  0  0  0  0
 11 42  1  0  0  0  0
 19 43  1  0  0  0  0
 19 44  1  0  0  0  0
 19 45  1  0  0  0  0
 20 46  1  0  0  0  0
 20 47  1  0  0  0  0
 20 48  1  0  0  0  0
 21 49  1  0  0  0  0
 21 50  1  0  0  0  0
 22 51  1  0  0  0  0
 22 52  1  0  0  0  0
 23 53  1  0  0  0  0
 23 54  1  0  0  0  0
 28 55  1  0  0  0  0
M  END
> <clash_score>
1.498603890647447

> <docking_score>
-6.793331623077393

$$$$
BENZO_373_1
  -OEChem-08212023383D

 60 64  0     0  0  0  0  0  0999 V2000
   14.1526    1.4694   24.0176 C   0  0  0  0  0  0  0  0  0  0  0  0
   13.3741    0.8121   24.9701 C   0  0  0  0  0  0  0  0  0  0  0  0
   13.5446    2.0802   22.9208 C   0  0  0  0  0  0  0  0  0  0  0  0
    3.9160    2.0630   19.5520 C   0  0  0  0  0  0  0  0  0  0  0  0
    4.2750    1.7050   20.8490 C   0  0  0  0  0  0  0  0  0  0  0  0
   11.9875    0.7654   24.8258 C   0  0  0  0  0  0  0  0  0  0  0  0
   12.1580    2.0335   22.7765 C   0  0  0  0  0  0  0  0  0  0  0  0
    4.6890    1.6810   18.4640 C   0  0  0  0  0  0  0  0  0  0  0  0
    5.4210    0.9600   21.0930 C   0  0  0  0  0  0  0  0  0  0  0  0
    8.9960   -2.3380   25.5320 C   0  0  0  0  0  0  0  0  0  0  0  0
    9.6730   -3.4710   23.5300 C   0  0  0  0  0  0  0  0  0  0  0  0
    9.0720   -1.1280   24.8640 C   0  0  0  0  0  0  0  0  0  0  0  0
    9.7200   -2.2600   22.8630 C   0  0  0  0  0  0  0  0  0  0  0  0
    7.6390   -0.2680   18.5410 C   0  0  0  0  0  0  0  0  0  0  0  0
   11.3794    1.3761   23.7290 C   0  0  0  0  0  0  0  0  0  0  0  0
    5.8300    0.9190   18.6970 C   0  0  0  0  0  0  0  0  0  0  0  0
    6.1790    0.5730   19.9990 C   0  0  0  0  0  0  0  0  0  0  0  0
    9.3070   -3.5340   24.8780 C   0  0  0  0  0  0  0  0  0  0  0  0
    9.3350   -1.0880   23.5010 C   0  0  0  0  0  0  0  0  0  0  0  0
    9.0420    0.3700   21.5280 C   0  0  0  0  0  0  0  0  0  0  0  0
    7.3635   -6.1361   27.1888 C   0  0  0  0  0  0  0  0  0  0  0  0
    8.1961   -4.9735   27.7341 C   0  0  0  0  0  0  0  0  0  0  0  0
    7.1942   -6.0394   25.6709 C   0  0  0  0  0  0  0  0  0  0  0  0
    9.5196   -4.8490   26.9797 C   0  0  0  0  0  0  0  0  0  0  0  0
    8.5442   -5.8838   24.9639 C   0  0  0  0  0  0  0  0  0  0  0  0
    9.8870    1.3260   23.5730 C   0  0  0  0  0  0  0  0  0  0  0  0
    8.1890   -0.7180   20.8700 C   0  0  0  0  0  0  0  0  0  0  0  0
    6.7580    0.3810   17.8350 N   0  0  0  0  0  0  0  0  0  0  0  0
    7.3170   -0.1610   19.8550 N   0  0  0  0  0  0  0  0  0  0  0  0
    9.2562   -4.7384   25.5422 N   0  0  0  0  0  0  0  0  0  0  0  0
    9.4560    0.1560   22.8130 N   0  0  0  0  0  0  0  0  0  0  0  0
    9.2690    1.4140   20.9380 O   0  0  0  0  0  0  0  0  0  0  0  0
   15.2322    1.5068   24.1308 H   0  0  0  0  0  0  0  0  0  0  0  0
   13.8473    0.3374   25.8248 H   0  0  0  0  0  0  0  0  0  0  0  0
   14.1503    2.5930   22.1795 H   0  0  0  0  0  0  0  0  0  0  0  0
    3.0133    2.6526   19.3911 H   0  0  0  0  0  0  0  0  0  0  0  0
    3.6478    2.0143   21.6818 H   0  0  0  0  0  0  0  0  0  0  0  0
   11.3889    0.2508   25.5729 H   0  0  0  0  0  0  0  0  0  0  0  0
   11.6930    2.5120   21.9187 H   0  0  0  0  0  0  0  0  0  0  0  0
    4.4036    1.9735   17.4543 H   0  0  0  0  0  0  0  0  0  0  0  0
    5.7089    0.6922   22.1131 H   0  0  0  0  0  0  0  0  0  0  0  0
    8.6905   -2.3533   26.5810 H   0  0  0  0  0  0  0  0  0  0  0  0
    9.9266   -4.3896   22.9917 H   0  0  0  0  0  0  0  0  0  0  0  0
    8.9233   -0.1992   25.4231 H   0  0  0  0  0  0  0  0  0  0  0  0
   10.0650   -2.2330   21.8256 H   0  0  0  0  0  0  0  0  0  0  0  0
    8.4865   -0.8061   18.1803 H   0  0  0  0  0  0  0  0  0  0  0  0
    7.8482   -7.0901   27.4469 H   0  0  0  0  0  0  0  0  0  0  0  0
    6.3760   -6.1438   27.6724 H   0  0  0  0  0  0  0  0  0  0  0  0
    7.6307   -4.0424   27.6403 H   0  0  0  0  0  0  0  0  0  0  0  0
    8.3915   -5.1310   28.7968 H   0  0  0  0  0  0  0  0  0  0  0  0
    6.6888   -6.9376   25.3010 H   0  0  0  0  0  0  0  0  0  0  0  0
    6.5515   -5.1859   25.4257 H   0  0  0  0  0  0  0  0  0  0  0  0
   10.0492   -3.9640   27.3414 H   0  0  0  0  0  0  0  0  0  0  0  0
   10.1431   -5.7254   27.1778 H   0  0  0  0  0  0  0  0  0  0  0  0
    9.1338   -6.7931   25.0868 H   0  0  0  0  0  0  0  0  0  0  0  0
    8.3656   -5.7264   23.8998 H   0  0  0  0  0  0  0  0  0  0  0  0
    9.3974    1.2912   24.5523 H   0  0  0  0  0  0  0  0  0  0  0  0
    9.5159    2.2168   23.0554 H   0  0  0  0  0  0  0  0  0  0  0  0
    8.8326   -1.4554   20.3912 H   0  0  0  0  0  0  0  0  0  0  0  0
    7.5604   -1.1971   21.6201 H   0  0  0  0  0  0  0  0  0  0  0  0
  1  2  1  0  0  0  0
  1  3  2  0  0  0  0
  2  6  2  0  0  0  0
  3  7  1  0  0  0  0
  4  5  1  0  0  0  0
  4  8  2  0  0  0  0
  5  9  2  0  0  0  0
  6 15  1  0  0  0  0
  7 15  2  0  0  0  0
  8 16  1  0  0  0  0
  9 17  1  0  0  0  0
 10 12  2  0  0  0  0
 10 18  1  0  0  0  0
 11 13  1  0  0  0  0
 11 18  2  0  0  0  0
 12 19  1  0  0  0  0
 13 19  2  0  0  0  0
 14 28  2  0  0  0  0
 14 29  1  0  0  0  0
 15 26  1  0  0  0  0
 16 17  2  0  0  0  0
 16 28  1  0  0  0  0
 17 29  1  0  0  0  0
 18 30  1  0  0  0  0
 19 31  1  0  0  0  0
 20 27  1  0  0  0  0
 20 31  1  0  0  0  0
 20 32  2  0  0  0  0
 21 22  1  0  0  0  0
 21 23  1  0  0  0  0
 22 24  1  0  0  0  0
 23 25  1  0  0  0  0
 24 30  1  0  0  0  0
 25 30  1  0  0  0  0
 26 31  1  0  0  0  0
 27 29  1  0  0  0  0
  1 33  1  0  0  0  0
  2 34  1  0  0  0  0
  3 35  1  0  0  0  0
  4 36  1  0  0  0  0
  5 37  1  0  0  0  0
  6 38  1  0  0  0  0
  7 39  1  0  0  0  0
  8 40  1  0  0  0  0
  9 41  1  0  0  0  0
 10 42  1  0  0  0  0
 11 43  1  0  0  0  0
 12 44  1  0  0  0  0
 13 45  1  0  0  0  0
 14 46  1  0  0  0  0
 21 47  1  0  0  0  0
 21 48  1  0  0  0  0
 22 49  1  0  0  0  0
 22 50  1  0  0  0  0
 23 51  1  0  0  0  0
 23 52  1  0  0  0  0
 24 53  1  0  0  0  0
 24 54  1  0  0  0  0
 25 55  1  0  0  0  0
 25 56  1  0  0  0  0
 26 57  1  0  0  0  0
 26 58  1  0  0  0  0
 27 59  1  0  0  0  0
 27 60  1  0  0  0  0
M  END
> <clash_score>
0

> <docking_score>
-9.367284774780273

$$$$
BENZO_375_1
  -OEChem-08212023383D

 60 64  0     0  0  0  0  0  0999 V2000
    3.9160    2.0630   19.5520 C   0  0  0  0  0  0  0  0  0  0  0  0
    4.2750    1.7050   20.8490 C   0  0  0  0  0  0  0  0  0  0  0  0
    4.6890    1.6810   18.4640 C   0  0  0  0  0  0  0  0  0  0  0  0
    5.4210    0.9600   21.0930 C   0  0  0  0  0  0  0  0  0  0  0  0
    8.9960   -2.3380   25.5320 C   0  0  0  0  0  0  0  0  0  0  0  0
    9.6730   -3.4710   23.5300 C   0  0  0  0  0  0  0  0  0  0  0  0
    9.0720   -1.1280   24.8640 C   0  0  0  0  0  0  0  0  0  0  0  0
    9.7200   -2.2600   22.8630 C   0  0  0  0  0  0  0  0  0  0  0  0
   12.1233    1.3811   24.9242 C   0  0  0  0  0  0  0  0  0  0  0  0
   12.3261    1.4247   22.7351 C   0  0  0  0  0  0  0  0  0  0  0  0
    7.6390   -0.2680   18.5410 C   0  0  0  0  0  0  0  0  0  0  0  0
   11.3794    1.3761   23.7290 C   0  0  0  0  0  0  0  0  0  0  0  0
    5.8300    0.9190   18.6970 C   0  0  0  0  0  0  0  0  0  0  0  0
    6.1790    0.5730   19.9990 C   0  0  0  0  0  0  0  0  0  0  0  0
    9.3070   -3.5340   24.8780 C   0  0  0  0  0  0  0  0  0  0  0  0
    9.3350   -1.0880   23.5010 C   0  0  0  0  0  0  0  0  0  0  0  0
    9.0420    0.3700   21.5280 C   0  0  0  0  0  0  0  0  0  0  0  0
    7.3635   -6.1361   27.1888 C   0  0  0  0  0  0  0  0  0  0  0  0
    8.1961   -4.9735   27.7341 C   0  0  0  0  0  0  0  0  0  0  0  0
    7.1942   -6.0394   25.6709 C   0  0  0  0  0  0  0  0  0  0  0  0
    9.5196   -4.8490   26.9797 C   0  0  0  0  0  0  0  0  0  0  0  0
    8.5442   -5.8838   24.9639 C   0  0  0  0  0  0  0  0  0  0  0  0
   14.8305    1.5084   22.7418 C   0  0  0  0  0  0  0  0  0  0  0  0
    9.8870    1.3260   23.5730 C   0  0  0  0  0  0  0  0  0  0  0  0
    8.1890   -0.7180   20.8700 C   0  0  0  0  0  0  0  0  0  0  0  0
   13.4410    1.4289   24.7112 N   0  0  0  0  0  0  0  0  0  0  0  0
    6.7580    0.3810   17.8350 N   0  0  0  0  0  0  0  0  0  0  0  0
   13.5326    1.4543   23.3706 N   0  0  0  0  0  0  0  0  0  0  0  0
    7.3170   -0.1610   19.8550 N   0  0  0  0  0  0  0  0  0  0  0  0
    9.2562   -4.7384   25.5422 N   0  0  0  0  0  0  0  0  0  0  0  0
    9.4560    0.1560   22.8130 N   0  0  0  0  0  0  0  0  0  0  0  0
    9.2690    1.4140   20.9380 O   0  0  0  0  0  0  0  0  0  0  0  0
    3.0133    2.6526   19.3911 H   0  0  0  0  0  0  0  0  0  0  0  0
    3.6478    2.0143   21.6818 H   0  0  0  0  0  0  0  0  0  0  0  0
    4.4036    1.9735   17.4543 H   0  0  0  0  0  0  0  0  0  0  0  0
    5.7089    0.6922   22.1131 H   0  0  0  0  0  0  0  0  0  0  0  0
    8.6905   -2.3533   26.5810 H   0  0  0  0  0  0  0  0  0  0  0  0
    9.9266   -4.3896   22.9917 H   0  0  0  0  0  0  0  0  0  0  0  0
    8.9233   -0.1992   25.4231 H   0  0  0  0  0  0  0  0  0  0  0  0
   10.0650   -2.2330   21.8256 H   0  0  0  0  0  0  0  0  0  0  0  0
   11.7624    1.3510   25.9426 H   0  0  0  0  0  0  0  0  0  0  0  0
   12.2462    1.4390   21.6566 H   0  0  0  0  0  0  0  0  0  0  0  0
    8.4865   -0.8061   18.1803 H   0  0  0  0  0  0  0  0  0  0  0  0
    7.8482   -7.0901   27.4469 H   0  0  0  0  0  0  0  0  0  0  0  0
    6.3760   -6.1438   27.6724 H   0  0  0  0  0  0  0  0  0  0  0  0
    7.6307   -4.0424   27.6403 H   0  0  0  0  0  0  0  0  0  0  0  0
    8.3915   -5.1310   28.7968 H   0  0  0  0  0  0  0  0  0  0  0  0
    6.6888   -6.9376   25.3010 H   0  0  0  0  0  0  0  0  0  0  0  0
    6.5515   -5.1859   25.4257 H   0  0  0  0  0  0  0  0  0  0  0  0
   10.0492   -3.9640   27.3414 H   0  0  0  0  0  0  0  0  0  0  0  0
   10.1431   -5.7254   27.1778 H   0  0  0  0  0  0  0  0  0  0  0  0
    9.1338   -6.7931   25.0868 H   0  0  0  0  0  0  0  0  0  0  0  0
    8.3656   -5.7264   23.8998 H   0  0  0  0  0  0  0  0  0  0  0  0
   15.0990    2.5601   22.6124 H   0  0  0  0  0  0  0  0  0  0  0  0
   15.5636    1.0018   23.3756 H   0  0  0  0  0  0  0  0  0  0  0  0
   14.7841    1.0025   21.7733 H   0  0  0  0  0  0  0  0  0  0  0  0
    9.3974    1.2912   24.5523 H   0  0  0  0  0  0  0  0  0  0  0  0
    9.5159    2.2168   23.0554 H   0  0  0  0  0  0  0  0  0  0  0  0
    8.8326   -1.4554   20.3912 H   0  0  0  0  0  0  0  0  0  0  0  0
    7.5604   -1.1971   21.6201 H   0  0  0  0  0  0  0  0  0  0  0  0
  1  2  1  0  0  0  0
  1  3  2  0  0  0  0
  2  4  2  0  0  0  0
  3 13  1  0  0  0  0
  4 14  1  0  0  0  0
  5  7  2  0  0  0  0
  5 15  1  0  0  0  0
  6  8  1  0  0  0  0
  6 15  2  0  0  0  0
  7 16  1  0  0  0  0
  8 16  2  0  0  0  0
  9 12  1  0  0  0  0
  9 26  2  0  0  0  0
 10 12  2  0  0  0  0
 10 28  1  0  0  0  0
 11 27  2  0  0  0  0
 11 29  1  0  0  0  0
 12 24  1  0  0  0  0
 13 14  2  0  0  0  0
 13 27  1  0  0  0  0
 14 29  1  0  0  0  0
 15 30  1  0  0  0  0
 16 31  1  0  0  0  0
 17 25  1  0  0  0  0
 17 31  1  0  0  0  0
 17 32  2  0  0  0  0
 18 19  1  0  0  0  0
 18 20  1  0  0  0  0
 19 21  1  0  0  0  0
 20 22  1  0  0  0  0
 21 30  1  0  0  0  0
 22 30  1  0  0  0  0
 23 28  1  0  0  0  0
 24 31  1  0  0  0  0
 25 29  1  0  0  0  0
 26 28  1  0  0  0  0
  1 33  1  0  0  0  0
  2 34  1  0  0  0  0
  3 35  1  0  0  0  0
  4 36  1  0  0  0  0
  5 37  1  0  0  0  0
  6 38  1  0  0  0  0
  7 39  1  0  0  0  0
  8 40  1  0  0  0  0
  9 41  1  0  0  0  0
 10 42  1  0  0  0  0
 11 43  1  0  0  0  0
 18 44  1  0  0  0  0
 18 45  1  0  0  0  0
 19 46  1  0  0  0  0
 19 47  1  0  0  0  0
 20 48  1  0  0  0  0
 20 49  1  0  0  0  0
 21 50  1  0  0  0  0
 21 51  1  0  0  0  0
 22 52  1  0  0  0  0
 22 53  1  0  0  0  0
 23 54  1  0  0  0  0
 23 55  1  0  0  0  0
 23 56  1  0  0  0  0
 24 57  1  0  0  0  0
 24 58  1  0  0  0  0
 25 59  1  0  0  0  0
 25 60  1  0  0  0  0
M  END
> <clash_score>
0

> <docking_score>
-9.083415031433105

$$$$
BENZO_372_1
  -OEChem-08212023383D

 57 61  0     0  0  0  0  0  0999 V2000
    3.9160    2.0630   19.5520 C   0  0  0  0  0  0  0  0  0  0  0  0
    4.2750    1.7050   20.8490 C   0  0  0  0  0  0  0  0  0  0  0  0
    4.6890    1.6810   18.4640 C   0  0  0  0  0  0  0  0  0  0  0  0
    5.4210    0.9600   21.0930 C   0  0  0  0  0  0  0  0  0  0  0  0
    8.9960   -2.3380   25.5320 C   0  0  0  0  0  0  0  0  0  0  0  0
    9.6730   -3.4710   23.5300 C   0  0  0  0  0  0  0  0  0  0  0  0
    9.0720   -1.1280   24.8640 C   0  0  0  0  0  0  0  0  0  0  0  0
    9.7200   -2.2600   22.8630 C   0  0  0  0  0  0  0  0  0  0  0  0
   12.2913    1.4279   22.6355 C   0  0  0  0  0  0  0  0  0  0  0  0
   13.6024    1.4662   23.0564 C   0  0  0  0  0  0  0  0  0  0  0  0
   12.0284    1.3764   24.9443 C   0  0  0  0  0  0  0  0  0  0  0  0
    7.6390   -0.2680   18.5410 C   0  0  0  0  0  0  0  0  0  0  0  0
   11.3794    1.3761   23.7290 C   0  0  0  0  0  0  0  0  0  0  0  0
    5.8300    0.9190   18.6970 C   0  0  0  0  0  0  0  0  0  0  0  0
    6.1790    0.5730   19.9990 C   0  0  0  0  0  0  0  0  0  0  0  0
    9.3070   -3.5340   24.8780 C   0  0  0  0  0  0  0  0  0  0  0  0
    9.3350   -1.0880   23.5010 C   0  0  0  0  0  0  0  0  0  0  0  0
    9.0420    0.3700   21.5280 C   0  0  0  0  0  0  0  0  0  0  0  0
    7.3635   -6.1361   27.1888 C   0  0  0  0  0  0  0  0  0  0  0  0
    8.1961   -4.9735   27.7341 C   0  0  0  0  0  0  0  0  0  0  0  0
    7.1942   -6.0394   25.6709 C   0  0  0  0  0  0  0  0  0  0  0  0
    9.5196   -4.8490   26.9797 C   0  0  0  0  0  0  0  0  0  0  0  0
    8.5442   -5.8838   24.9639 C   0  0  0  0  0  0  0  0  0  0  0  0
    9.8870    1.3260   23.5730 C   0  0  0  0  0  0  0  0  0  0  0  0
    8.1890   -0.7180   20.8700 C   0  0  0  0  0  0  0  0  0  0  0  0
    6.7580    0.3810   17.8350 N   0  0  0  0  0  0  0  0  0  0  0  0
    7.3170   -0.1610   19.8550 N   0  0  0  0  0  0  0  0  0  0  0  0
    9.2562   -4.7384   25.5422 N   0  0  0  0  0  0  0  0  0  0  0  0
    9.4560    0.1560   22.8130 N   0  0  0  0  0  0  0  0  0  0  0  0
    9.2690    1.4140   20.9380 O   0  0  0  0  0  0  0  0  0  0  0  0
   13.7301    1.4394   24.7638 S   0  0  0  0  0  0  0  0  0  0  0  0
    3.0133    2.6526   19.3911 H   0  0  0  0  0  0  0  0  0  0  0  0
    3.6478    2.0143   21.6818 H   0  0  0  0  0  0  0  0  0  0  0  0
    4.4036    1.9735   17.4543 H   0  0  0  0  0  0  0  0  0  0  0  0
    5.7089    0.6922   22.1131 H   0  0  0  0  0  0  0  0  0  0  0  0
    8.6905   -2.3533   26.5810 H   0  0  0  0  0  0  0  0  0  0  0  0
    9.9266   -4.3896   22.9917 H   0  0  0  0  0  0  0  0  0  0  0  0
    8.9233   -0.1992   25.4231 H   0  0  0  0  0  0  0  0  0  0  0  0
   10.0650   -2.2330   21.8256 H   0  0  0  0  0  0  0  0  0  0  0  0
   12.0045    1.4365   21.5915 H   0  0  0  0  0  0  0  0  0  0  0  0
   14.4914    1.5078   22.4431 H   0  0  0  0  0  0  0  0  0  0  0  0
   11.5886    1.3416   25.9314 H   0  0  0  0  0  0  0  0  0  0  0  0
    8.4865   -0.8061   18.1803 H   0  0  0  0  0  0  0  0  0  0  0  0
    7.8482   -7.0901   27.4469 H   0  0  0  0  0  0  0  0  0  0  0  0
    6.3760   -6.1438   27.6724 H   0  0  0  0  0  0  0  0  0  0  0  0
    7.6307   -4.0424   27.6403 H   0  0  0  0  0  0  0  0  0  0  0  0
    8.3915   -5.1310   28.7968 H   0  0  0  0  0  0  0  0  0  0  0  0
    6.6888   -6.9376   25.3010 H   0  0  0  0  0  0  0  0  0  0  0  0
    6.5515   -5.1859   25.4257 H   0  0  0  0  0  0  0  0  0  0  0  0
   10.0492   -3.9640   27.3414 H   0  0  0  0  0  0  0  0  0  0  0  0
   10.1431   -5.7254   27.1778 H   0  0  0  0  0  0  0  0  0  0  0  0
    9.1338   -6.7931   25.0868 H   0  0  0  0  0  0  0  0  0  0  0  0
    8.3656   -5.7264   23.8998 H   0  0  0  0  0  0  0  0  0  0  0  0
    9.3974    1.2912   24.5523 H   0  0  0  0  0  0  0  0  0  0  0  0
    9.5159    2.2168   23.0554 H   0  0  0  0  0  0  0  0  0  0  0  0
    8.8326   -1.4554   20.3912 H   0  0  0  0  0  0  0  0  0  0  0  0
    7.5604   -1.1971   21.6201 H   0  0  0  0  0  0  0  0  0  0  0  0
  1  2  1  0  0  0  0
  1  3  2  0  0  0  0
  2  4  2  0  0  0  0
  3 14  1  0  0  0  0
  4 15  1  0  0  0  0
  5  7  2  0  0  0  0
  5 16  1  0  0  0  0
  6  8  1  0  0  0  0
  6 16  2  0  0  0  0
  7 17  1  0  0  0  0
  8 17  2  0  0  0  0
  9 10  2  0  0  0  0
  9 13  1  0  0  0  0
 10 31  1  0  0  0  0
 11 13  2  0  0  0  0
 11 31  1  0  0  0  0
 12 26  2  0  0  0  0
 12 27  1  0  0  0  0
 13 24  1  0  0  0  0
 14 15  2  0  0  0  0
 14 26  1  0  0  0  0
 15 27  1  0  0  0  0
 16 28  1  0  0  0  0
 17 29  1  0  0  0  0
 18 25  1  0  0  0  0
 18 29  1  0  0  0  0
 18 30  2  0  0  0  0
 19 20  1  0  0  0  0
 19 21  1  0  0  0  0
 20 22  1  0  0  0  0
 21 23  1  0  0  0  0
 22 28  1  0  0  0  0
 23 28  1  0  0  0  0
 24 29  1  0  0  0  0
 25 27  1  0  0  0  0
  1 32  1  0  0  0  0
  2 33  1  0  0  0  0
  3 34  1  0  0  0  0
  4 35  1  0  0  0  0
  5 36  1  0  0  0  0
  6 37  1  0  0  0  0
  7 38  1  0  0  0  0
  8 39  1  0  0  0  0
  9 40  1  0  0  0  0
 10 41  1  0  0  0  0
 11 42  1  0  0  0  0
 12 43  1  0  0  0  0
 19 44  1  0  0  0  0
 19 45  1  0  0  0  0
 20 46  1  0  0  0  0
 20 47  1  0  0  0  0
 21 48  1  0  0  0  0
 21 49  1  0  0  0  0
 22 50  1  0  0  0  0
 22 51  1  0  0  0  0
 23 52  1  0  0  0  0
 23 53  1  0  0  0  0
 24 54  1  0  0  0  0
 24 55  1  0  0  0  0
 25 56  1  0  0  0  0
 25 57  1  0  0  0  0
M  END
> <clash_score>
0

> <docking_score>
-9.446125030517578

$$$$
BENZO_374_1
  -OEChem-08212023383D

 60 64  0     0  0  0  0  0  0999 V2000
    3.9160    2.0630   19.5520 C   0  0  0  0  0  0  0  0  0  0  0  0
    4.2750    1.7050   20.8490 C   0  0  0  0  0  0  0  0  0  0  0  0
    6.4089    2.0844   24.8766 C   0  0  0  0  0  0  0  0  0  0  0  0
    7.4847    1.4191   24.2887 C   0  0  0  0  0  0  0  0  0  0  0  0
    4.6890    1.6810   18.4640 C   0  0  0  0  0  0  0  0  0  0  0  0
    5.4210    0.9600   21.0930 C   0  0  0  0  0  0  0  0  0  0  0  0
    8.9960   -2.3380   25.5320 C   0  0  0  0  0  0  0  0  0  0  0  0
    9.6730   -3.4710   23.5300 C   0  0  0  0  0  0  0  0  0  0  0  0
    9.0720   -1.1280   24.8640 C   0  0  0  0  0  0  0  0  0  0  0  0
    9.7200   -2.2600   22.8630 C   0  0  0  0  0  0  0  0  0  0  0  0
    6.5777    3.3741   25.3805 C   0  0  0  0  0  0  0  0  0  0  0  0
    8.8980    3.3330   24.7088 C   0  0  0  0  0  0  0  0  0  0  0  0
    7.6390   -0.2680   18.5410 C   0  0  0  0  0  0  0  0  0  0  0  0
    8.7292    2.0433   24.2048 C   0  0  0  0  0  0  0  0  0  0  0  0
    5.8300    0.9190   18.6970 C   0  0  0  0  0  0  0  0  0  0  0  0
    6.1790    0.5730   19.9990 C   0  0  0  0  0  0  0  0  0  0  0  0
    9.3070   -3.5340   24.8780 C   0  0  0  0  0  0  0  0  0  0  0  0
    9.3350   -1.0880   23.5010 C   0  0  0  0  0  0  0  0  0  0  0  0
    7.8222    3.9984   25.2966 C   0  0  0  0  0  0  0  0  0  0  0  0
    9.0420    0.3700   21.5280 C   0  0  0  0  0  0  0  0  0  0  0  0
    7.3635   -6.1361   27.1888 C   0  0  0  0  0  0  0  0  0  0  0  0
    8.1961   -4.9735   27.7341 C   0  0  0  0  0  0  0  0  0  0  0  0
    7.1942   -6.0394   25.6709 C   0  0  0  0  0  0  0  0  0  0  0  0
    9.5196   -4.8490   26.9797 C   0  0  0  0  0  0  0  0  0  0  0  0
    8.5442   -5.8838   24.9639 C   0  0  0  0  0  0  0  0  0  0  0  0
    9.8870    1.3260   23.5730 C   0  0  0  0  0  0  0  0  0  0  0  0
    8.1890   -0.7180   20.8700 C   0  0  0  0  0  0  0  0  0  0  0  0
    6.7580    0.3810   17.8350 N   0  0  0  0  0  0  0  0  0  0  0  0
    7.3170   -0.1610   19.8550 N   0  0  0  0  0  0  0  0  0  0  0  0
    9.2562   -4.7384   25.5422 N   0  0  0  0  0  0  0  0  0  0  0  0
    9.4560    0.1560   22.8130 N   0  0  0  0  0  0  0  0  0  0  0  0
    9.2690    1.4140   20.9380 O   0  0  0  0  0  0  0  0  0  0  0  0
    8.0301    5.5891   25.9196 Cl  0  0  0  0  0  0  0  0  0  0  0  0
    3.0133    2.6526   19.3911 H   0  0  0  0  0  0  0  0  0  0  0  0
    3.6478    2.0143   21.6818 H   0  0  0  0  0  0  0  0  0  0  0  0
    5.4400    1.5979   24.9418 H   0  0  0  0  0  0  0  0  0  0  0  0
    7.3441    0.4143   23.8988 H   0  0  0  0  0  0  0  0  0  0  0  0
    4.4036    1.9735   17.4543 H   0  0  0  0  0  0  0  0  0  0  0  0
    5.7089    0.6922   22.1131 H   0  0  0  0  0  0  0  0  0  0  0  0
    8.6905   -2.3533   26.5810 H   0  0  0  0  0  0  0  0  0  0  0  0
    9.9266   -4.3896   22.9917 H   0  0  0  0  0  0  0  0  0  0  0  0
    8.9233   -0.1992   25.4231 H   0  0  0  0  0  0  0  0  0  0  0  0
   10.0650   -2.2330   21.8256 H   0  0  0  0  0  0  0  0  0  0  0  0
    5.7304    3.8806   25.8363 H   0  0  0  0  0  0  0  0  0  0  0  0
    9.8703    3.8156   24.6405 H   0  0  0  0  0  0  0  0  0  0  0  0
    8.4865   -0.8061   18.1803 H   0  0  0  0  0  0  0  0  0  0  0  0
    7.8482   -7.0901   27.4469 H   0  0  0  0  0  0  0  0  0  0  0  0
    6.3760   -6.1438   27.6724 H   0  0  0  0  0  0  0  0  0  0  0  0
    7.6307   -4.0424   27.6403 H   0  0  0  0  0  0  0  0  0  0  0  0
    8.3915   -5.1310   28.7968 H   0  0  0  0  0  0  0  0  0  0  0  0
    6.6888   -6.9376   25.3010 H   0  0  0  0  0  0  0  0  0  0  0  0
    6.5515   -5.1859   25.4257 H   0  0  0  0  0  0  0  0  0  0  0  0
   10.0492   -3.9640   27.3414 H   0  0  0  0  0  0  0  0  0  0  0  0
   10.1431   -5.7254   27.1778 H   0  0  0  0  0  0  0  0  0  0  0  0
    9.1338   -6.7931   25.0868 H   0  0  0  0  0  0  0  0  0  0  0  0
    8.3656   -5.7264   23.8998 H   0  0  0  0  0  0  0  0  0  0  0  0
   10.4274    1.9911   22.8906 H   0  0  0  0  0  0  0  0  0  0  0  0
   10.6011    0.9882   24.3313 H   0  0  0  0  0  0  0  0  0  0  0  0
    8.8326   -1.4554   20.3912 H   0  0  0  0  0  0  0  0  0  0  0  0
    7.5604   -1.1971   21.6201 H   0  0  0  0  0  0  0  0  0  0  0  0
  1  2  1  0  0  0  0
  1  5  2  0  0  0  0
  2  6  2  0  0  0  0
  3  4  2  0  0  0  0
  3 11  1  0  0  0  0
  4 14  1  0  0  0  0
  5 15  1  0  0  0  0
  6 16  1  0  0  0  0
  7  9  2  0  0  0  0
  7 17  1  0  0  0  0
  8 10  1  0  0  0  0
  8 17  2  0  0  0  0
  9 18  1  0  0  0  0
 10 18  2  0  0  0  0
 11 19  2  0  0  0  0
 12 14  2  0  0  0  0
 12 19  1  0  0  0  0
 13 28  2  0  0  0  0
 13 29  1  0  0  0  0
 14 26  1  0  0  0  0
 15 16  2  0  0  0  0
 15 28  1  0  0  0  0
 16 29  1  0  0  0  0
 17 30  1  0  0  0  0
 18 31  1  0  0  0  0
 19 33  1  0  0  0  0
 20 27  1  0  0  0  0
 20 31  1  0  0  0  0
 20 32  2  0  0  0  0
 21 22  1  0  0  0  0
 21 23  1  0  0  0  0
 22 24  1  0  0  0  0
 23 25  1  0  0  0  0
 24 30  1  0  0  0  0
 25 30  1  0  0  0  0
 26 31  1  0  0  0  0
 27 29  1  0  0  0  0
  1 34  1  0  0  0  0
  2 35  1  0  0  0  0
  3 36  1  0  0  0  0
  4 37  1  0  0  0  0
  5 38  1  0  0  0  0
  6 39  1  0  0  0  0
  7 40  1  0  0  0  0
  8 41  1  0  0  0  0
  9 42  1  0  0  0  0
 10 43  1  0  0  0  0
 11 44  1  0  0  0  0
 12 45  1  0  0  0  0
 13 46  1  0  0  0  0
 21 47  1  0  0  0  0
 21 48  1  0  0  0  0
 22 49  1  0  0  0  0
 22 50  1  0  0  0  0
 23 51  1  0  0  0  0
 23 52  1  0  0  0  0
 24 53  1  0  0  0  0
 24 54  1  0  0  0  0
 25 55  1  0  0  0  0
 25 56  1  0  0  0  0
 26 57  1  0  0  0  0
 26 58  1  0  0  0  0
 27 59  1  0  0  0  0
 27 60  1  0  0  0  0
M  END
> <clash_score>
0

> <docking_score>
-8.753296852111816

$$$$
BENZO_377_1
  -OEChem-08212023423D

 48 51  0     0  0  0  0  0  0999 V2000
   14.1526    1.4694   24.0176 C   0  0  0  0  0  0  0  0  0  0  0  0
   13.3741    0.8121   24.9701 C   0  0  0  0  0  0  0  0  0  0  0  0
   13.5446    2.0802   22.9208 C   0  0  0  0  0  0  0  0  0  0  0  0
    3.9160    2.0630   19.5520 C   0  0  0  0  0  0  0  0  0  0  0  0
    4.2750    1.7050   20.8490 C   0  0  0  0  0  0  0  0  0  0  0  0
   11.9875    0.7654   24.8258 C   0  0  0  0  0  0  0  0  0  0  0  0
   12.1580    2.0335   22.7765 C   0  0  0  0  0  0  0  0  0  0  0  0
    8.9960   -2.3380   25.5320 C   0  0  0  0  0  0  0  0  0  0  0  0
    9.6730   -3.4710   23.5300 C   0  0  0  0  0  0  0  0  0  0  0  0
    4.6890    1.6810   18.4640 C   0  0  0  0  0  0  0  0  0  0  0  0
    5.4210    0.9600   21.0930 C   0  0  0  0  0  0  0  0  0  0  0  0
    9.0720   -1.1280   24.8640 C   0  0  0  0  0  0  0  0  0  0  0  0
    9.7200   -2.2600   22.8630 C   0  0  0  0  0  0  0  0  0  0  0  0
    7.6390   -0.2680   18.5410 C   0  0  0  0  0  0  0  0  0  0  0  0
    9.3070   -3.5340   24.8780 C   0  0  0  0  0  0  0  0  0  0  0  0
   11.3794    1.3761   23.7290 C   0  0  0  0  0  0  0  0  0  0  0  0
    5.8300    0.9190   18.6970 C   0  0  0  0  0  0  0  0  0  0  0  0
    6.1790    0.5730   19.9990 C   0  0  0  0  0  0  0  0  0  0  0  0
    9.3350   -1.0880   23.5010 C   0  0  0  0  0  0  0  0  0  0  0  0
    9.0420    0.3700   21.5280 C   0  0  0  0  0  0  0  0  0  0  0  0
    9.2505   -4.8264   25.5904 C   0  0  0  0  0  0  0  0  0  0  0  0
    9.8870    1.3260   23.5730 C   0  0  0  0  0  0  0  0  0  0  0  0
    8.1890   -0.7180   20.8700 C   0  0  0  0  0  0  0  0  0  0  0  0
    6.7580    0.3810   17.8350 N   0  0  0  0  0  0  0  0  0  0  0  0
    7.3170   -0.1610   19.8550 N   0  0  0  0  0  0  0  0  0  0  0  0
    9.4560    0.1560   22.8130 N   0  0  0  0  0  0  0  0  0  0  0  0
    9.2690    1.4140   20.9380 O   0  0  0  0  0  0  0  0  0  0  0  0
   15.2322    1.5068   24.1308 H   0  0  0  0  0  0  0  0  0  0  0  0
   13.8473    0.3374   25.8248 H   0  0  0  0  0  0  0  0  0  0  0  0
   14.1503    2.5930   22.1795 H   0  0  0  0  0  0  0  0  0  0  0  0
    3.0133    2.6526   19.3911 H   0  0  0  0  0  0  0  0  0  0  0  0
    3.6478    2.0143   21.6818 H   0  0  0  0  0  0  0  0  0  0  0  0
   11.3889    0.2508   25.5729 H   0  0  0  0  0  0  0  0  0  0  0  0
   11.6930    2.5120   21.9187 H   0  0  0  0  0  0  0  0  0  0  0  0
    8.6919   -2.3557   26.5813 H   0  0  0  0  0  0  0  0  0  0  0  0
    9.9267   -4.3907   22.9939 H   0  0  0  0  0  0  0  0  0  0  0  0
    4.4036    1.9735   17.4543 H   0  0  0  0  0  0  0  0  0  0  0  0
    5.7089    0.6922   22.1131 H   0  0  0  0  0  0  0  0  0  0  0  0
    8.9217   -0.1995   25.4231 H   0  0  0  0  0  0  0  0  0  0  0  0
   10.0653   -2.2339   21.8256 H   0  0  0  0  0  0  0  0  0  0  0  0
    8.4865   -0.8061   18.1803 H   0  0  0  0  0  0  0  0  0  0  0  0
    8.2503   -5.2678   25.5020 H   0  0  0  0  0  0  0  0  0  0  0  0
    9.9817   -5.5374   25.1845 H   0  0  0  0  0  0  0  0  0  0  0  0
    9.4841   -4.7043   26.6562 H   0  0  0  0  0  0  0  0  0  0  0  0
    9.3974    1.2912   24.5523 H   0  0  0  0  0  0  0  0  0  0  0  0
    9.5159    2.2168   23.0553 H   0  0  0  0  0  0  0  0  0  0  0  0
    8.8262   -1.4533   20.3842 H   0  0  0  0  0  0  0  0  0  0  0  0
    7.5540   -1.1950   21.6130 H   0  0  0  0  0  0  0  0  0  0  0  0
  1  2  1  0  0  0  0
  1  3  2  0  0  0  0
  2  6  2  0  0  0  0
  3  7  1  0  0  0  0
  4  5  1  0  0  0  0
  4 10  2  0  0  0  0
  5 11  2  0  0  0  0
  6 16  1  0  0  0  0
  7 16  2  0  0  0  0
  8 12  2  0  0  0  0
  8 15  1  0  0  0  0
  9 13  1  0  0  0  0
  9 15  2  0  0  0  0
 10 17  1  0  0  0  0
 11 18  1  0  0  0  0
 12 19  1  0  0  0  0
 13 19  2  0  0  0  0
 14 24  2  0  0  0  0
 14 25  1  0  0  0  0
 15 21  1  0  0  0  0
 16 22  1  0  0  0  0
 17 18  2  0  0  0  0
 17 24  1  0  0  0  0
 18 25  1  0  0  0  0
 19 26  1  0  0  0  0
 20 23  1  0  0  0  0
 20 26  1  0  0  0  0
 20 27  2  0  0  0  0
 22 26  1  0  0  0  0
 23 25  1  0  0  0  0
  1 28  1  0  0  0  0
  2 29  1  0  0  0  0
  3 30  1  0  0  0  0
  4 31  1  0  0  0  0
  5 32  1  0  0  0  0
  6 33  1  0  0  0  0
  7 34  1  0  0  0  0
  8 35  1  0  0  0  0
  9 36  1  0  0  0  0
 10 37  1  0  0  0  0
 11 38  1  0  0  0  0
 12 39  1  0  0  0  0
 13 40  1  0  0  0  0
 14 41  1  0  0  0  0
 21 42  1  0  0  0  0
 21 43  1  0  0  0  0
 21 44  1  0  0  0  0
 22 45  1  0  0  0  0
 22 46  1  0  0  0  0
 23 47  1  0  0  0  0
 23 48  1  0  0  0  0
M  END
> <clash_score>
0

> <docking_score>
-9.6123046875

$$$$
BENZO_376_1
  -OEChem-08212023423D

 45 48  0     0  0  0  0  0  0999 V2000
    3.9160    2.0630   19.5520 C   0  0  0  0  0  0  0  0  0  0  0  0
    4.2750    1.7050   20.8490 C   0  0  0  0  0  0  0  0  0  0  0  0
    8.9960   -2.3380   25.5320 C   0  0  0  0  0  0  0  0  0  0  0  0
    9.6730   -3.4710   23.5300 C   0  0  0  0  0  0  0  0  0  0  0  0
    4.6890    1.6810   18.4640 C   0  0  0  0  0  0  0  0  0  0  0  0
    5.4210    0.9600   21.0930 C   0  0  0  0  0  0  0  0  0  0  0  0
    9.0720   -1.1280   24.8640 C   0  0  0  0  0  0  0  0  0  0  0  0
    9.7200   -2.2600   22.8630 C   0  0  0  0  0  0  0  0  0  0  0  0
   12.2913    1.4279   22.6355 C   0  0  0  0  0  0  0  0  0  0  0  0
   13.6024    1.4662   23.0564 C   0  0  0  0  0  0  0  0  0  0  0  0
   12.0284    1.3764   24.9443 C   0  0  0  0  0  0  0  0  0  0  0  0
    7.6390   -0.2680   18.5410 C   0  0  0  0  0  0  0  0  0  0  0  0
    9.3070   -3.5340   24.8780 C   0  0  0  0  0  0  0  0  0  0  0  0
   11.3794    1.3761   23.7290 C   0  0  0  0  0  0  0  0  0  0  0  0
    5.8300    0.9190   18.6970 C   0  0  0  0  0  0  0  0  0  0  0  0
    6.1790    0.5730   19.9990 C   0  0  0  0  0  0  0  0  0  0  0  0
    9.3350   -1.0880   23.5010 C   0  0  0  0  0  0  0  0  0  0  0  0
    9.0420    0.3700   21.5280 C   0  0  0  0  0  0  0  0  0  0  0  0
    9.2505   -4.8264   25.5904 C   0  0  0  0  0  0  0  0  0  0  0  0
    9.8870    1.3260   23.5730 C   0  0  0  0  0  0  0  0  0  0  0  0
    8.1890   -0.7180   20.8700 C   0  0  0  0  0  0  0  0  0  0  0  0
    6.7580    0.3810   17.8350 N   0  0  0  0  0  0  0  0  0  0  0  0
    7.3170   -0.1610   19.8550 N   0  0  0  0  0  0  0  0  0  0  0  0
    9.4560    0.1560   22.8130 N   0  0  0  0  0  0  0  0  0  0  0  0
    9.2690    1.4140   20.9380 O   0  0  0  0  0  0  0  0  0  0  0  0
   13.7301    1.4394   24.7638 S   0  0  0  0  0  0  0  0  0  0  0  0
    3.0133    2.6526   19.3911 H   0  0  0  0  0  0  0  0  0  0  0  0
    3.6478    2.0143   21.6818 H   0  0  0  0  0  0  0  0  0  0  0  0
    8.6919   -2.3557   26.5813 H   0  0  0  0  0  0  0  0  0  0  0  0
    9.9267   -4.3907   22.9939 H   0  0  0  0  0  0  0  0  0  0  0  0
    4.4036    1.9735   17.4543 H   0  0  0  0  0  0  0  0  0  0  0  0
    5.7089    0.6922   22.1131 H   0  0  0  0  0  0  0  0  0  0  0  0
    8.9217   -0.1995   25.4231 H   0  0  0  0  0  0  0  0  0  0  0  0
   10.0653   -2.2339   21.8256 H   0  0  0  0  0  0  0  0  0  0  0  0
   12.0045    1.4365   21.5915 H   0  0  0  0  0  0  0  0  0  0  0  0
   14.4914    1.5078   22.4431 H   0  0  0  0  0  0  0  0  0  0  0  0
   11.5886    1.3416   25.9314 H   0  0  0  0  0  0  0  0  0  0  0  0
    8.4865   -0.8061   18.1803 H   0  0  0  0  0  0  0  0  0  0  0  0
    8.2503   -5.2678   25.5020 H   0  0  0  0  0  0  0  0  0  0  0  0
    9.9817   -5.5374   25.1845 H   0  0  0  0  0  0  0  0  0  0  0  0
    9.4841   -4.7043   26.6562 H   0  0  0  0  0  0  0  0  0  0  0  0
    9.3974    1.2912   24.5523 H   0  0  0  0  0  0  0  0  0  0  0  0
    9.5159    2.2168   23.0553 H   0  0  0  0  0  0  0  0  0  0  0  0
    8.8262   -1.4533   20.3842 H   0  0  0  0  0  0  0  0  0  0  0  0
    7.5540   -1.1950   21.6130 H   0  0  0  0  0  0  0  0  0  0  0  0
  1  2  1  0  0  0  0
  1  5  2  0  0  0  0
  2  6  2  0  0  0  0
  3  7  2  0  0  0  0
  3 13  1  0  0  0  0
  4  8  1  0  0  0  0
  4 13  2  0  0  0  0
  5 15  1  0  0  0  0
  6 16  1  0  0  0  0
  7 17  1  0  0  0  0
  8 17  2  0  0  0  0
  9 10  2  0  0  0  0
  9 14  1  0  0  0  0
 10 26  1  0  0  0  0
 11 14  2  0  0  0  0
 11 26  1  0  0  0  0
 12 22  2  0  0  0  0
 12 23  1  0  0  0  0
 13 19  1  0  0  0  0
 14 20  1  0  0  0  0
 15 16  2  0  0  0  0
 15 22  1  0  0  0  0
 16 23  1  0  0  0  0
 17 24  1  0  0  0  0
 18 21  1  0  0  0  0
 18 24  1  0  0  0  0
 18 25  2  0  0  0  0
 20 24  1  0  0  0  0
 21 23  1  0  0  0  0
  1 27  1  0  0  0  0
  2 28  1  0  0  0  0
  3 29  1  0  0  0  0
  4 30  1  0  0  0  0
  5 31  1  0  0  0  0
  6 32  1  0  0  0  0
  7 33  1  0  0  0  0
  8 34  1  0  0  0  0
  9 35  1  0  0  0  0
 10 36  1  0  0  0  0
 11 37  1  0  0  0  0
 12 38  1  0  0  0  0
 19 39  1  0  0  0  0
 19 40  1  0  0  0  0
 19 41  1  0  0  0  0
 20 42  1  0  0  0  0
 20 43  1  0  0  0  0
 21 44  1  0  0  0  0
 21 45  1  0  0  0  0
M  END
> <clash_score>
0

> <docking_score>
-9.691162109375

$$$$
BENZO_379_1
  -OEChem-08212023423D

 48 51  0     0  0  0  0  0  0999 V2000
    3.9160    2.0630   19.5520 C   0  0  0  0  0  0  0  0  0  0  0  0
    4.2750    1.7050   20.8490 C   0  0  0  0  0  0  0  0  0  0  0  0
    8.9960   -2.3380   25.5320 C   0  0  0  0  0  0  0  0  0  0  0  0
    9.6730   -3.4710   23.5300 C   0  0  0  0  0  0  0  0  0  0  0  0
    4.6890    1.6810   18.4640 C   0  0  0  0  0  0  0  0  0  0  0  0
    5.4210    0.9600   21.0930 C   0  0  0  0  0  0  0  0  0  0  0  0
    9.0720   -1.1280   24.8640 C   0  0  0  0  0  0  0  0  0  0  0  0
    9.7200   -2.2600   22.8630 C   0  0  0  0  0  0  0  0  0  0  0  0
   12.1233    1.3811   24.9242 C   0  0  0  0  0  0  0  0  0  0  0  0
   12.3261    1.4247   22.7351 C   0  0  0  0  0  0  0  0  0  0  0  0
    7.6390   -0.2680   18.5410 C   0  0  0  0  0  0  0  0  0  0  0  0
    9.3070   -3.5340   24.8780 C   0  0  0  0  0  0  0  0  0  0  0  0
   11.3794    1.3761   23.7290 C   0  0  0  0  0  0  0  0  0  0  0  0
    5.8300    0.9190   18.6970 C   0  0  0  0  0  0  0  0  0  0  0  0
    6.1790    0.5730   19.9990 C   0  0  0  0  0  0  0  0  0  0  0  0
    9.3350   -1.0880   23.5010 C   0  0  0  0  0  0  0  0  0  0  0  0
    9.0420    0.3700   21.5280 C   0  0  0  0  0  0  0  0  0  0  0  0
    9.2505   -4.8264   25.5904 C   0  0  0  0  0  0  0  0  0  0  0  0
   14.8305    1.5084   22.7418 C   0  0  0  0  0  0  0  0  0  0  0  0
    9.8870    1.3260   23.5730 C   0  0  0  0  0  0  0  0  0  0  0  0
    8.1890   -0.7180   20.8700 C   0  0  0  0  0  0  0  0  0  0  0  0
   13.4410    1.4289   24.7112 N   0  0  0  0  0  0  0  0  0  0  0  0
    6.7580    0.3810   17.8350 N   0  0  0  0  0  0  0  0  0  0  0  0
   13.5326    1.4543   23.3706 N   0  0  0  0  0  0  0  0  0  0  0  0
    7.3170   -0.1610   19.8550 N   0  0  0  0  0  0  0  0  0  0  0  0
    9.4560    0.1560   22.8130 N   0  0  0  0  0  0  0  0  0  0  0  0
    9.2690    1.4140   20.9380 O   0  0  0  0  0  0  0  0  0  0  0  0
    3.0133    2.6526   19.3911 H   0  0  0  0  0  0  0  0  0  0  0  0
    3.6478    2.0143   21.6818 H   0  0  0  0  0  0  0  0  0  0  0  0
    8.6919   -2.3557   26.5813 H   0  0  0  0  0  0  0  0  0  0  0  0
    9.9267   -4.3907   22.9939 H   0  0  0  0  0  0  0  0  0  0  0  0
    4.4036    1.9735   17.4543 H   0  0  0  0  0  0  0  0  0  0  0  0
    5.7089    0.6922   22.1131 H   0  0  0  0  0  0  0  0  0  0  0  0
    8.9217   -0.1995   25.4231 H   0  0  0  0  0  0  0  0  0  0  0  0
   10.0653   -2.2339   21.8256 H   0  0  0  0  0  0  0  0  0  0  0  0
   11.7624    1.3510   25.9426 H   0  0  0  0  0  0  0  0  0  0  0  0
   12.2462    1.4390   21.6566 H   0  0  0  0  0  0  0  0  0  0  0  0
    8.4865   -0.8061   18.1803 H   0  0  0  0  0  0  0  0  0  0  0  0
    8.2503   -5.2678   25.5020 H   0  0  0  0  0  0  0  0  0  0  0  0
    9.9817   -5.5374   25.1845 H   0  0  0  0  0  0  0  0  0  0  0  0
    9.4841   -4.7043   26.6562 H   0  0  0  0  0  0  0  0  0  0  0  0
   15.0990    2.5601   22.6124 H   0  0  0  0  0  0  0  0  0  0  0  0
   15.5636    1.0018   23.3756 H   0  0  0  0  0  0  0  0  0  0  0  0
   14.7841    1.0025   21.7733 H   0  0  0  0  0  0  0  0  0  0  0  0
    9.3974    1.2912   24.5523 H   0  0  0  0  0  0  0  0  0  0  0  0
    9.5159    2.2168   23.0553 H   0  0  0  0  0  0  0  0  0  0  0  0
    8.8262   -1.4533   20.3842 H   0  0  0  0  0  0  0  0  0  0  0  0
    7.5540   -1.1950   21.6130 H   0  0  0  0  0  0  0  0  0  0  0  0
  1  2  1  0  0  0  0
  1  5  2  0  0  0  0
  2  6  2  0  0  0  0
  3  7  2  0  0  0  0
  3 12  1  0  0  0  0
  4  8  1  0  0  0  0
  4 12  2  0  0  0  0
  5 14  1  0  0  0  0
  6 15  1  0  0  0  0
  7 16  1  0  0  0  0
  8 16  2  0  0  0  0
  9 13  1  0  0  0  0
  9 22  2  0  0  0  0
 10 13  2  0  0  0  0
 10 24  1  0  0  0  0
 11 23  2  0  0  0  0
 11 25  1  0  0  0  0
 12 18  1  0  0  0  0
 13 20  1  0  0  0  0
 14 15  2  0  0  0  0
 14 23  1  0  0  0  0
 15 25  1  0  0  0  0
 16 26  1  0  0  0  0
 17 21  1  0  0  0  0
 17 26  1  0  0  0  0
 17 27  2  0  0  0  0
 19 24  1  0  0  0  0
 20 26  1  0  0  0  0
 21 25  1  0  0  0  0
 22 24  1  0  0  0  0
  1 28  1  0  0  0  0
  2 29  1  0  0  0  0
  3 30  1  0  0  0  0
  4 31  1  0  0  0  0
  5 32  1  0  0  0  0
  6 33  1  0  0  0  0
  7 34  1  0  0  0  0
  8 35  1  0  0  0  0
  9 36  1  0  0  0  0
 10 37  1  0  0  0  0
 11 38  1  0  0  0  0
 18 39  1  0  0  0  0
 18 40  1  0  0  0  0
 18 41  1  0  0  0  0
 19 42  1  0  0  0  0
 19 43  1  0  0  0  0
 19 44  1  0  0  0  0
 20 45  1  0  0  0  0
 20 46  1  0  0  0  0
 21 47  1  0  0  0  0
 21 48  1  0  0  0  0
M  END
> <clash_score>
0

> <docking_score>
-9.32844066619873

$$$$
BENZO_378_1
  -OEChem-08212023423D

 48 51  0     0  0  0  0  0  0999 V2000
    3.9160    2.0630   19.5520 C   0  0  0  0  0  0  0  0  0  0  0  0
    4.2750    1.7050   20.8490 C   0  0  0  0  0  0  0  0  0  0  0  0
    6.4089    2.0844   24.8766 C   0  0  0  0  0  0  0  0  0  0  0  0
    7.4847    1.4191   24.2887 C   0  0  0  0  0  0  0  0  0  0  0  0
    8.9960   -2.3380   25.5320 C   0  0  0  0  0  0  0  0  0  0  0  0
    9.6730   -3.4710   23.5300 C   0  0  0  0  0  0  0  0  0  0  0  0
    4.6890    1.6810   18.4640 C   0  0  0  0  0  0  0  0  0  0  0  0
    5.4210    0.9600   21.0930 C   0  0  0  0  0  0  0  0  0  0  0  0
    9.0720   -1.1280   24.8640 C   0  0  0  0  0  0  0  0  0  0  0  0
    9.7200   -2.2600   22.8630 C   0  0  0  0  0  0  0  0  0  0  0  0
    6.5777    3.3741   25.3805 C   0  0  0  0  0  0  0  0  0  0  0  0
    8.8980    3.3330   24.7088 C   0  0  0  0  0  0  0  0  0  0  0  0
    7.6390   -0.2680   18.5410 C   0  0  0  0  0  0  0  0  0  0  0  0
    9.3070   -3.5340   24.8780 C   0  0  0  0  0  0  0  0  0  0  0  0
    8.7292    2.0433   24.2048 C   0  0  0  0  0  0  0  0  0  0  0  0
    5.8300    0.9190   18.6970 C   0  0  0  0  0  0  0  0  0  0  0  0
    6.1790    0.5730   19.9990 C   0  0  0  0  0  0  0  0  0  0  0  0
    9.3350   -1.0880   23.5010 C   0  0  0  0  0  0  0  0  0  0  0  0
    7.8222    3.9984   25.2966 C   0  0  0  0  0  0  0  0  0  0  0  0
    9.0420    0.3700   21.5280 C   0  0  0  0  0  0  0  0  0  0  0  0
    9.2505   -4.8264   25.5904 C   0  0  0  0  0  0  0  0  0  0  0  0
    9.8870    1.3260   23.5730 C   0  0  0  0  0  0  0  0  0  0  0  0
    8.1890   -0.7180   20.8700 C   0  0  0  0  0  0  0  0  0  0  0  0
    6.7580    0.3810   17.8350 N   0  0  0  0  0  0  0  0  0  0  0  0
    7.3170   -0.1610   19.8550 N   0  0  0  0  0  0  0  0  0  0  0  0
    9.4560    0.1560   22.8130 N   0  0  0  0  0  0  0  0  0  0  0  0
    9.2690    1.4140   20.9380 O   0  0  0  0  0  0  0  0  0  0  0  0
    8.0301    5.5891   25.9196 Cl  0  0  0  0  0  0  0  0  0  0  0  0
    3.0133    2.6526   19.3911 H   0  0  0  0  0  0  0  0  0  0  0  0
    3.6478    2.0143   21.6818 H   0  0  0  0  0  0  0  0  0  0  0  0
    5.4400    1.5979   24.9418 H   0  0  0  0  0  0  0  0  0  0  0  0
    7.3441    0.4143   23.8988 H   0  0  0  0  0  0  0  0  0  0  0  0
    8.6919   -2.3557   26.5813 H   0  0  0  0  0  0  0  0  0  0  0  0
    9.9267   -4.3907   22.9939 H   0  0  0  0  0  0  0  0  0  0  0  0
    4.4036    1.9735   17.4543 H   0  0  0  0  0  0  0  0  0  0  0  0
    5.7089    0.6922   22.1131 H   0  0  0  0  0  0  0  0  0  0  0  0
    8.9217   -0.1995   25.4231 H   0  0  0  0  0  0  0  0  0  0  0  0
   10.0653   -2.2339   21.8256 H   0  0  0  0  0  0  0  0  0  0  0  0
    5.7304    3.8806   25.8363 H   0  0  0  0  0  0  0  0  0  0  0  0
    9.8703    3.8156   24.6405 H   0  0  0  0  0  0  0  0  0  0  0  0
    8.4865   -0.8061   18.1803 H   0  0  0  0  0  0  0  0  0  0  0  0
    8.2503   -5.2678   25.5020 H   0  0  0  0  0  0  0  0  0  0  0  0
    9.9817   -5.5374   25.1845 H   0  0  0  0  0  0  0  0  0  0  0  0
    9.4841   -4.7043   26.6562 H   0  0  0  0  0  0  0  0  0  0  0  0
   10.4274    1.9911   22.8906 H   0  0  0  0  0  0  0  0  0  0  0  0
   10.6011    0.9882   24.3313 H   0  0  0  0  0  0  0  0  0  0  0  0
    8.8262   -1.4533   20.3842 H   0  0  0  0  0  0  0  0  0  0  0  0
    7.5540   -1.1950   21.6130 H   0  0  0  0  0  0  0  0  0  0  0  0
  1  2  1  0  0  0  0
  1  7  2  0  0  0  0
  2  8  2  0  0  0  0
  3  4  2  0  0  0  0
  3 11  1  0  0  0  0
  4 15  1  0  0  0  0
  5  9  2  0  0  0  0
  5 14  1  0  0  0  0
  6 10  1  0  0  0  0
  6 14  2  0  0  0  0
  7 16  1  0  0  0  0
  8 17  1  0  0  0  0
  9 18  1  0  0  0  0
 10 18  2  0  0  0  0
 11 19  2  0  0  0  0
 12 15  2  0  0  0  0
 12 19  1  0  0  0  0
 13 24  2  0  0  0  0
 13 25  1  0  0  0  0
 14 21  1  0  0  0  0
 15 22  1  0  0  0  0
 16 17  2  0  0  0  0
 16 24  1  0  0  0  0
 17 25  1  0  0  0  0
 18 26  1  0  0  0  0
 19 28  1  0  0  0  0
 20 23  1  0  0  0  0
 20 26  1  0  0  0  0
 20 27  2  0  0  0  0
 22 26  1  0  0  0  0
 23 25  1  0  0  0  0
  1 29  1  0  0  0  0
  2 30  1  0  0  0  0
  3 31  1  0  0  0  0
  4 32  1  0  0  0  0
  5 33  1  0  0  0  0
  6 34  1  0  0  0  0
  7 35  1  0  0  0  0
  8 36  1  0  0  0  0
  9 37  1  0  0  0  0
 10 38  1  0  0  0  0
 11 39  1  0  0  0  0
 12 40  1  0  0  0  0
 13 41  1  0  0  0  0
 21 42  1  0  0  0  0
 21 43  1  0  0  0  0
 21 44  1  0  0  0  0
 22 45  1  0  0  0  0
 22 46  1  0  0  0  0
 23 47  1  0  0  0  0
 23 48  1  0  0  0  0
M  END
> <clash_score>
0

> <docking_score>
-8.998326301574707

$$$$
BENZO_380_1
  -OEChem-08212023423D

 46 49  0     0  0  0  0  0  0999 V2000
    3.9160    2.0630   19.5520 C   0  0  0  0  0  0  0  0  0  0  0  0
    4.2750    1.7050   20.8490 C   0  0  0  0  0  0  0  0  0  0  0  0
    4.6890    1.6810   18.4640 C   0  0  0  0  0  0  0  0  0  0  0  0
    5.4210    0.9600   21.0930 C   0  0  0  0  0  0  0  0  0  0  0  0
    9.0720   -1.1280   24.8640 C   0  0  0  0  0  0  0  0  0  0  0  0
    9.7200   -2.2600   22.8630 C   0  0  0  0  0  0  0  0  0  0  0  0
    8.9960   -2.3380   25.5320 C   0  0  0  0  0  0  0  0  0  0  0  0
    9.6730   -3.4710   23.5300 C   0  0  0  0  0  0  0  0  0  0  0  0
   12.2913    1.4279   22.6355 C   0  0  0  0  0  0  0  0  0  0  0  0
   13.6024    1.4662   23.0564 C   0  0  0  0  0  0  0  0  0  0  0  0
   12.0284    1.3764   24.9443 C   0  0  0  0  0  0  0  0  0  0  0  0
    7.6390   -0.2680   18.5410 C   0  0  0  0  0  0  0  0  0  0  0  0
   11.3794    1.3761   23.7290 C   0  0  0  0  0  0  0  0  0  0  0  0
    5.8300    0.9190   18.6970 C   0  0  0  0  0  0  0  0  0  0  0  0
    6.1790    0.5730   19.9990 C   0  0  0  0  0  0  0  0  0  0  0  0
    9.3350   -1.0880   23.5010 C   0  0  0  0  0  0  0  0  0  0  0  0
    9.3070   -3.5340   24.8780 C   0  0  0  0  0  0  0  0  0  0  0  0
    9.0420    0.3700   21.5280 C   0  0  0  0  0  0  0  0  0  0  0  0
    8.8720   -4.6805   26.9013 C   0  0  0  0  0  0  0  0  0  0  0  0
    9.8870    1.3260   23.5730 C   0  0  0  0  0  0  0  0  0  0  0  0
    8.1890   -0.7180   20.8700 C   0  0  0  0  0  0  0  0  0  0  0  0
    6.7580    0.3810   17.8350 N   0  0  0  0  0  0  0  0  0  0  0  0
    7.3170   -0.1610   19.8550 N   0  0  0  0  0  0  0  0  0  0  0  0
    9.4560    0.1560   22.8130 N   0  0  0  0  0  0  0  0  0  0  0  0
    9.2690    1.4140   20.9380 O   0  0  0  0  0  0  0  0  0  0  0  0
    9.2555   -4.7124   25.5274 O   0  0  0  0  0  0  0  0  0  0  0  0
   13.7301    1.4394   24.7638 S   0  0  0  0  0  0  0  0  0  0  0  0
    3.0133    2.6526   19.3911 H   0  0  0  0  0  0  0  0  0  0  0  0
    3.6478    2.0143   21.6818 H   0  0  0  0  0  0  0  0  0  0  0  0
    4.4036    1.9735   17.4543 H   0  0  0  0  0  0  0  0  0  0  0  0
    5.7089    0.6922   22.1131 H   0  0  0  0  0  0  0  0  0  0  0  0
    8.9221   -0.1995   25.4231 H   0  0  0  0  0  0  0  0  0  0  0  0
   10.0642   -2.2347   21.8253 H   0  0  0  0  0  0  0  0  0  0  0  0
    8.6902   -2.3588   26.5805 H   0  0  0  0  0  0  0  0  0  0  0  0
    9.9254   -4.3921   22.9961 H   0  0  0  0  0  0  0  0  0  0  0  0
   12.0045    1.4365   21.5915 H   0  0  0  0  0  0  0  0  0  0  0  0
   14.4914    1.5078   22.4431 H   0  0  0  0  0  0  0  0  0  0  0  0
   11.5886    1.3416   25.9314 H   0  0  0  0  0  0  0  0  0  0  0  0
    8.4865   -0.8061   18.1803 H   0  0  0  0  0  0  0  0  0  0  0  0
    8.8711   -5.6964   27.3038 H   0  0  0  0  0  0  0  0  0  0  0  0
    7.8758   -4.2402   26.9923 H   0  0  0  0  0  0  0  0  0  0  0  0
    9.5894   -4.0716   27.4566 H   0  0  0  0  0  0  0  0  0  0  0  0
    9.3974    1.2912   24.5523 H   0  0  0  0  0  0  0  0  0  0  0  0
    9.5159    2.2168   23.0553 H   0  0  0  0  0  0  0  0  0  0  0  0
    8.8262   -1.4533   20.3842 H   0  0  0  0  0  0  0  0  0  0  0  0
    7.5540   -1.1950   21.6130 H   0  0  0  0  0  0  0  0  0  0  0  0
  1  2  1  0  0  0  0
  1  3  2  0  0  0  0
  2  4  2  0  0  0  0
  3 14  1  0  0  0  0
  4 15  1  0  0  0  0
  5  7  2  0  0  0  0
  5 16  1  0  0  0  0
  6  8  1  0  0  0  0
  6 16  2  0  0  0  0
  7 17  1  0  0  0  0
  8 17  2  0  0  0  0
  9 10  2  0  0  0  0
  9 13  1  0  0  0  0
 10 27  1  0  0  0  0
 11 13  2  0  0  0  0
 11 27  1  0  0  0  0
 12 22  2  0  0  0  0
 12 23  1  0  0  0  0
 13 20  1  0  0  0  0
 14 15  2  0  0  0  0
 14 22  1  0  0  0  0
 15 23  1  0  0  0  0
 16 24  1  0  0  0  0
 17 26  1  0  0  0  0
 18 21  1  0  0  0  0
 18 24  1  0  0  0  0
 18 25  2  0  0  0  0
 19 26  1  0  0  0  0
 20 24  1  0  0  0  0
 21 23  1  0  0  0  0
  1 28  1  0  0  0  0
  2 29  1  0  0  0  0
  3 30  1  0  0  0  0
  4 31  1  0  0  0  0
  5 32  1  0  0  0  0
  6 33  1  0  0  0  0
  7 34  1  0  0  0  0
  8 35  1  0  0  0  0
  9 36  1  0  0  0  0
 10 37  1  0  0  0  0
 11 38  1  0  0  0  0
 12 39  1  0  0  0  0
 19 40  1  0  0  0  0
 19 41  1  0  0  0  0
 19 42  1  0  0  0  0
 20 43  1  0  0  0  0
 20 44  1  0  0  0  0
 21 45  1  0  0  0  0
 21 46  1  0  0  0  0
M  END
> <clash_score>
0

> <docking_score>
-9.427459716796875

$$$$
BENZO_383_1
  -OEChem-08212023423D

 49 52  0     0  0  0  0  0  0999 V2000
    3.9160    2.0630   19.5520 C   0  0  0  0  0  0  0  0  0  0  0  0
    4.2750    1.7050   20.8490 C   0  0  0  0  0  0  0  0  0  0  0  0
    4.6890    1.6810   18.4640 C   0  0  0  0  0  0  0  0  0  0  0  0
    5.4210    0.9600   21.0930 C   0  0  0  0  0  0  0  0  0  0  0  0
    9.0720   -1.1280   24.8640 C   0  0  0  0  0  0  0  0  0  0  0  0
    9.7200   -2.2600   22.8630 C   0  0  0  0  0  0  0  0  0  0  0  0
    8.9960   -2.3380   25.5320 C   0  0  0  0  0  0  0  0  0  0  0  0
    9.6730   -3.4710   23.5300 C   0  0  0  0  0  0  0  0  0  0  0  0
   12.1233    1.3811   24.9242 C   0  0  0  0  0  0  0  0  0  0  0  0
   12.3261    1.4247   22.7351 C   0  0  0  0  0  0  0  0  0  0  0  0
    7.6390   -0.2680   18.5410 C   0  0  0  0  0  0  0  0  0  0  0  0
   11.3794    1.3761   23.7290 C   0  0  0  0  0  0  0  0  0  0  0  0
    5.8300    0.9190   18.6970 C   0  0  0  0  0  0  0  0  0  0  0  0
    6.1790    0.5730   19.9990 C   0  0  0  0  0  0  0  0  0  0  0  0
    9.3350   -1.0880   23.5010 C   0  0  0  0  0  0  0  0  0  0  0  0
    9.3070   -3.5340   24.8780 C   0  0  0  0  0  0  0  0  0  0  0  0
    9.0420    0.3700   21.5280 C   0  0  0  0  0  0  0  0  0  0  0  0
   14.8305    1.5084   22.7418 C   0  0  0  0  0  0  0  0  0  0  0  0
    8.8720   -4.6805   26.9013 C   0  0  0  0  0  0  0  0  0  0  0  0
    9.8870    1.3260   23.5730 C   0  0  0  0  0  0  0  0  0  0  0  0
    8.1890   -0.7180   20.8700 C   0  0  0  0  0  0  0  0  0  0  0  0
   13.4410    1.4289   24.7112 N   0  0  0  0  0  0  0  0  0  0  0  0
    6.7580    0.3810   17.8350 N   0  0  0  0  0  0  0  0  0  0  0  0
   13.5326    1.4543   23.3706 N   0  0  0  0  0  0  0  0  0  0  0  0
    7.3170   -0.1610   19.8550 N   0  0  0  0  0  0  0  0  0  0  0  0
    9.4560    0.1560   22.8130 N   0  0  0  0  0  0  0  0  0  0  0  0
    9.2690    1.4140   20.9380 O   0  0  0  0  0  0  0  0  0  0  0  0
    9.2555   -4.7124   25.5274 O   0  0  0  0  0  0  0  0  0  0  0  0
    3.0133    2.6526   19.3911 H   0  0  0  0  0  0  0  0  0  0  0  0
    3.6478    2.0143   21.6818 H   0  0  0  0  0  0  0  0  0  0  0  0
    4.4036    1.9735   17.4543 H   0  0  0  0  0  0  0  0  0  0  0  0
    5.7089    0.6922   22.1131 H   0  0  0  0  0  0  0  0  0  0  0  0
    8.9221   -0.1995   25.4231 H   0  0  0  0  0  0  0  0  0  0  0  0
   10.0642   -2.2347   21.8253 H   0  0  0  0  0  0  0  0  0  0  0  0
    8.6902   -2.3588   26.5805 H   0  0  0  0  0  0  0  0  0  0  0  0
    9.9254   -4.3921   22.9961 H   0  0  0  0  0  0  0  0  0  0  0  0
   11.7624    1.3510   25.9426 H   0  0  0  0  0  0  0  0  0  0  0  0
   12.2462    1.4390   21.6566 H   0  0  0  0  0  0  0  0  0  0  0  0
    8.4865   -0.8061   18.1803 H   0  0  0  0  0  0  0  0  0  0  0  0
   15.0990    2.5601   22.6124 H   0  0  0  0  0  0  0  0  0  0  0  0
   15.5636    1.0018   23.3756 H   0  0  0  0  0  0  0  0  0  0  0  0
   14.7841    1.0025   21.7733 H   0  0  0  0  0  0  0  0  0  0  0  0
    8.8711   -5.6964   27.3038 H   0  0  0  0  0  0  0  0  0  0  0  0
    7.8758   -4.2402   26.9923 H   0  0  0  0  0  0  0  0  0  0  0  0
    9.5894   -4.0716   27.4566 H   0  0  0  0  0  0  0  0  0  0  0  0
    9.3974    1.2912   24.5523 H   0  0  0  0  0  0  0  0  0  0  0  0
    9.5159    2.2168   23.0553 H   0  0  0  0  0  0  0  0  0  0  0  0
    8.8262   -1.4533   20.3842 H   0  0  0  0  0  0  0  0  0  0  0  0
    7.5540   -1.1950   21.6130 H   0  0  0  0  0  0  0  0  0  0  0  0
  1  2  1  0  0  0  0
  1  3  2  0  0  0  0
  2  4  2  0  0  0  0
  3 13  1  0  0  0  0
  4 14  1  0  0  0  0
  5  7  2  0  0  0  0
  5 15  1  0  0  0  0
  6  8  1  0  0  0  0
  6 15  2  0  0  0  0
  7 16  1  0  0  0  0
  8 16  2  0  0  0  0
  9 12  1  0  0  0  0
  9 22  2  0  0  0  0
 10 12  2  0  0  0  0
 10 24  1  0  0  0  0
 11 23  2  0  0  0  0
 11 25  1  0  0  0  0
 12 20  1  0  0  0  0
 13 14  2  0  0  0  0
 13 23  1  0  0  0  0
 14 25  1  0  0  0  0
 15 26  1  0  0  0  0
 16 28  1  0  0  0  0
 17 21  1  0  0  0  0
 17 26  1  0  0  0  0
 17 27  2  0  0  0  0
 18 24  1  0  0  0  0
 19 28  1  0  0  0  0
 20 26  1  0  0  0  0
 21 25  1  0  0  0  0
 22 24  1  0  0  0  0
  1 29  1  0  0  0  0
  2 30  1  0  0  0  0
  3 31  1  0  0  0  0
  4 32  1  0  0  0  0
  5 33  1  0  0  0  0
  6 34  1  0  0  0  0
  7 35  1  0  0  0  0
  8 36  1  0  0  0  0
  9 37  1  0  0  0  0
 10 38  1  0  0  0  0
 11 39  1  0  0  0  0
 18 40  1  0  0  0  0
 18 41  1  0  0  0  0
 18 42  1  0  0  0  0
 19 43  1  0  0  0  0
 19 44  1  0  0  0  0
 19 45  1  0  0  0  0
 20 46  1  0  0  0  0
 20 47  1  0  0  0  0
 21 48  1  0  0  0  0
 21 49  1  0  0  0  0
M  END
> <clash_score>
0

> <docking_score>
-9.064742088317871

$$$$
BENZO_382_1
  -OEChem-08212023423D

 49 52  0     0  0  0  0  0  0999 V2000
    3.9160    2.0630   19.5520 C   0  0  0  0  0  0  0  0  0  0  0  0
    4.2750    1.7050   20.8490 C   0  0  0  0  0  0  0  0  0  0  0  0
    6.4089    2.0844   24.8766 C   0  0  0  0  0  0  0  0  0  0  0  0
    7.4847    1.4191   24.2887 C   0  0  0  0  0  0  0  0  0  0  0  0
    4.6890    1.6810   18.4640 C   0  0  0  0  0  0  0  0  0  0  0  0
    5.4210    0.9600   21.0930 C   0  0  0  0  0  0  0  0  0  0  0  0
    9.0720   -1.1280   24.8640 C   0  0  0  0  0  0  0  0  0  0  0  0
    9.7200   -2.2600   22.8630 C   0  0  0  0  0  0  0  0  0  0  0  0
    8.9960   -2.3380   25.5320 C   0  0  0  0  0  0  0  0  0  0  0  0
    9.6730   -3.4710   23.5300 C   0  0  0  0  0  0  0  0  0  0  0  0
    6.5777    3.3741   25.3805 C   0  0  0  0  0  0  0  0  0  0  0  0
    8.8980    3.3330   24.7088 C   0  0  0  0  0  0  0  0  0  0  0  0
    7.6390   -0.2680   18.5410 C   0  0  0  0  0  0  0  0  0  0  0  0
    8.7292    2.0433   24.2048 C   0  0  0  0  0  0  0  0  0  0  0  0
    5.8300    0.9190   18.6970 C   0  0  0  0  0  0  0  0  0  0  0  0
    6.1790    0.5730   19.9990 C   0  0  0  0  0  0  0  0  0  0  0  0
    9.3350   -1.0880   23.5010 C   0  0  0  0  0  0  0  0  0  0  0  0
    9.3070   -3.5340   24.8780 C   0  0  0  0  0  0  0  0  0  0  0  0
    7.8222    3.9984   25.2966 C   0  0  0  0  0  0  0  0  0  0  0  0
    9.0420    0.3700   21.5280 C   0  0  0  0  0  0  0  0  0  0  0  0
    8.8720   -4.6805   26.9013 C   0  0  0  0  0  0  0  0  0  0  0  0
    9.8870    1.3260   23.5730 C   0  0  0  0  0  0  0  0  0  0  0  0
    8.1890   -0.7180   20.8700 C   0  0  0  0  0  0  0  0  0  0  0  0
    6.7580    0.3810   17.8350 N   0  0  0  0  0  0  0  0  0  0  0  0
    7.3170   -0.1610   19.8550 N   0  0  0  0  0  0  0  0  0  0  0  0
    9.4560    0.1560   22.8130 N   0  0  0  0  0  0  0  0  0  0  0  0
    9.2690    1.4140   20.9380 O   0  0  0  0  0  0  0  0  0  0  0  0
    9.2555   -4.7124   25.5274 O   0  0  0  0  0  0  0  0  0  0  0  0
    8.0301    5.5891   25.9196 Cl  0  0  0  0  0  0  0  0  0  0  0  0
    3.0133    2.6526   19.3911 H   0  0  0  0  0  0  0  0  0  0  0  0
    3.6478    2.0143   21.6818 H   0  0  0  0  0  0  0  0  0  0  0  0
    5.4400    1.5979   24.9418 H   0  0  0  0  0  0  0  0  0  0  0  0
    7.3441    0.4143   23.8988 H   0  0  0  0  0  0  0  0  0  0  0  0
    4.4036    1.9735   17.4543 H   0  0  0  0  0  0  0  0  0  0  0  0
    5.7089    0.6922   22.1131 H   0  0  0  0  0  0  0  0  0  0  0  0
    8.9221   -0.1995   25.4231 H   0  0  0  0  0  0  0  0  0  0  0  0
   10.0642   -2.2347   21.8253 H   0  0  0  0  0  0  0  0  0  0  0  0
    8.6902   -2.3588   26.5805 H   0  0  0  0  0  0  0  0  0  0  0  0
    9.9254   -4.3921   22.9961 H   0  0  0  0  0  0  0  0  0  0  0  0
    5.7304    3.8806   25.8363 H   0  0  0  0  0  0  0  0  0  0  0  0
    9.8703    3.8156   24.6405 H   0  0  0  0  0  0  0  0  0  0  0  0
    8.4865   -0.8061   18.1803 H   0  0  0  0  0  0  0  0  0  0  0  0
    8.8711   -5.6964   27.3038 H   0  0  0  0  0  0  0  0  0  0  0  0
    7.8758   -4.2402   26.9923 H   0  0  0  0  0  0  0  0  0  0  0  0
    9.5894   -4.0716   27.4566 H   0  0  0  0  0  0  0  0  0  0  0  0
   10.4274    1.9911   22.8906 H   0  0  0  0  0  0  0  0  0  0  0  0
   10.6011    0.9882   24.3313 H   0  0  0  0  0  0  0  0  0  0  0  0
    8.8262   -1.4533   20.3842 H   0  0  0  0  0  0  0  0  0  0  0  0
    7.5540   -1.1950   21.6130 H   0  0  0  0  0  0  0  0  0  0  0  0
  1  2  1  0  0  0  0
  1  5  2  0  0  0  0
  2  6  2  0  0  0  0
  3  4  2  0  0  0  0
  3 11  1  0  0  0  0
  4 14  1  0  0  0  0
  5 15  1  0  0  0  0
  6 16  1  0  0  0  0
  7  9  2  0  0  0  0
  7 17  1  0  0  0  0
  8 10  1  0  0  0  0
  8 17  2  0  0  0  0
  9 18  1  0  0  0  0
 10 18  2  0  0  0  0
 11 19  2  0  0  0  0
 12 14  2  0  0  0  0
 12 19  1  0  0  0  0
 13 24  2  0  0  0  0
 13 25  1  0  0  0  0
 14 22  1  0  0  0  0
 15 16  2  0  0  0  0
 15 24  1  0  0  0  0
 16 25  1  0  0  0  0
 17 26  1  0  0  0  0
 18 28  1  0  0  0  0
 19 29  1  0  0  0  0
 20 23  1  0  0  0  0
 20 26  1  0  0  0  0
 20 27  2  0  0  0  0
 21 28  1  0  0  0  0
 22 26  1  0  0  0  0
 23 25  1  0  0  0  0
  1 30  1  0  0  0  0
  2 31  1  0  0  0  0
  3 32  1  0  0  0  0
  4 33  1  0  0  0  0
  5 34  1  0  0  0  0
  6 35  1  0  0  0  0
  7 36  1  0  0  0  0
  8 37  1  0  0  0  0
  9 38  1  0  0  0  0
 10 39  1  0  0  0  0
 11 40  1  0  0  0  0
 12 41  1  0  0  0  0
 13 42  1  0  0  0  0
 21 43  1  0  0  0  0
 21 44  1  0  0  0  0
 21 45  1  0  0  0  0
 22 46  1  0  0  0  0
 22 47  1  0  0  0  0
 23 48  1  0  0  0  0
 23 49  1  0  0  0  0
M  END
> <clash_score>
0

> <docking_score>
-8.734624862670898

$$$$
BENZO_381_1
  -OEChem-08212023423D

 49 52  0     0  0  0  0  0  0999 V2000
   14.1526    1.4694   24.0176 C   0  0  0  0  0  0  0  0  0  0  0  0
   13.3741    0.8121   24.9701 C   0  0  0  0  0  0  0  0  0  0  0  0
   13.5446    2.0802   22.9208 C   0  0  0  0  0  0  0  0  0  0  0  0
    3.9160    2.0630   19.5520 C   0  0  0  0  0  0  0  0  0  0  0  0
    4.2750    1.7050   20.8490 C   0  0  0  0  0  0  0  0  0  0  0  0
   11.9875    0.7654   24.8258 C   0  0  0  0  0  0  0  0  0  0  0  0
   12.1580    2.0335   22.7765 C   0  0  0  0  0  0  0  0  0  0  0  0
    4.6890    1.6810   18.4640 C   0  0  0  0  0  0  0  0  0  0  0  0
    5.4210    0.9600   21.0930 C   0  0  0  0  0  0  0  0  0  0  0  0
    9.0720   -1.1280   24.8640 C   0  0  0  0  0  0  0  0  0  0  0  0
    9.7200   -2.2600   22.8630 C   0  0  0  0  0  0  0  0  0  0  0  0
    8.9960   -2.3380   25.5320 C   0  0  0  0  0  0  0  0  0  0  0  0
    9.6730   -3.4710   23.5300 C   0  0  0  0  0  0  0  0  0  0  0  0
    7.6390   -0.2680   18.5410 C   0  0  0  0  0  0  0  0  0  0  0  0
   11.3794    1.3761   23.7290 C   0  0  0  0  0  0  0  0  0  0  0  0
    5.8300    0.9190   18.6970 C   0  0  0  0  0  0  0  0  0  0  0  0
    6.1790    0.5730   19.9990 C   0  0  0  0  0  0  0  0  0  0  0  0
    9.3350   -1.0880   23.5010 C   0  0  0  0  0  0  0  0  0  0  0  0
    9.3070   -3.5340   24.8780 C   0  0  0  0  0  0  0  0  0  0  0  0
    9.0420    0.3700   21.5280 C   0  0  0  0  0  0  0  0  0  0  0  0
    8.8720   -4.6805   26.9013 C   0  0  0  0  0  0  0  0  0  0  0  0
    9.8870    1.3260   23.5730 C   0  0  0  0  0  0  0  0  0  0  0  0
    8.1890   -0.7180   20.8700 C   0  0  0  0  0  0  0  0  0  0  0  0
    6.7580    0.3810   17.8350 N   0  0  0  0  0  0  0  0  0  0  0  0
    7.3170   -0.1610   19.8550 N   0  0  0  0  0  0  0  0  0  0  0  0
    9.4560    0.1560   22.8130 N   0  0  0  0  0  0  0  0  0  0  0  0
    9.2690    1.4140   20.9380 O   0  0  0  0  0  0  0  0  0  0  0  0
    9.2555   -4.7124   25.5274 O   0  0  0  0  0  0  0  0  0  0  0  0
   15.2322    1.5068   24.1308 H   0  0  0  0  0  0  0  0  0  0  0  0
   13.8473    0.3374   25.8248 H   0  0  0  0  0  0  0  0  0  0  0  0
   14.1503    2.5930   22.1795 H   0  0  0  0  0  0  0  0  0  0  0  0
    3.0133    2.6526   19.3911 H   0  0  0  0  0  0  0  0  0  0  0  0
    3.6478    2.0143   21.6818 H   0  0  0  0  0  0  0  0  0  0  0  0
   11.3889    0.2508   25.5729 H   0  0  0  0  0  0  0  0  0  0  0  0
   11.6930    2.5120   21.9187 H   0  0  0  0  0  0  0  0  0  0  0  0
    4.4036    1.9735   17.4543 H   0  0  0  0  0  0  0  0  0  0  0  0
    5.7089    0.6922   22.1131 H   0  0  0  0  0  0  0  0  0  0  0  0
    8.9221   -0.1995   25.4231 H   0  0  0  0  0  0  0  0  0  0  0  0
   10.0642   -2.2347   21.8253 H   0  0  0  0  0  0  0  0  0  0  0  0
    8.6902   -2.3588   26.5805 H   0  0  0  0  0  0  0  0  0  0  0  0
    9.9254   -4.3921   22.9961 H   0  0  0  0  0  0  0  0  0  0  0  0
    8.4865   -0.8061   18.1803 H   0  0  0  0  0  0  0  0  0  0  0  0
    8.8711   -5.6964   27.3038 H   0  0  0  0  0  0  0  0  0  0  0  0
    7.8758   -4.2402   26.9923 H   0  0  0  0  0  0  0  0  0  0  0  0
    9.5894   -4.0716   27.4566 H   0  0  0  0  0  0  0  0  0  0  0  0
    9.3974    1.2912   24.5523 H   0  0  0  0  0  0  0  0  0  0  0  0
    9.5159    2.2168   23.0553 H   0  0  0  0  0  0  0  0  0  0  0  0
    8.8262   -1.4533   20.3842 H   0  0  0  0  0  0  0  0  0  0  0  0
    7.5540   -1.1950   21.6130 H   0  0  0  0  0  0  0  0  0  0  0  0
  1  2  1  0  0  0  0
  1  3  2  0  0  0  0
  2  6  2  0  0  0  0
  3  7  1  0  0  0  0
  4  5  1  0  0  0  0
  4  8  2  0  0  0  0
  5  9  2  0  0  0  0
  6 15  1  0  0  0  0
  7 15  2  0  0  0  0
  8 16  1  0  0  0  0
  9 17  1  0  0  0  0
 10 12  2  0  0  0  0
 10 18  1  0  0  0  0
 11 13  1  0  0  0  0
 11 18  2  0  0  0  0
 12 19  1  0  0  0  0
 13 19  2  0  0  0  0
 14 24  2  0  0  0  0
 14 25  1  0  0  0  0
 15 22  1  0  0  0  0
 16 17  2  0  0  0  0
 16 24  1  0  0  0  0
 17 25  1  0  0  0  0
 18 26  1  0  0  0  0
 19 28  1  0  0  0  0
 20 23  1  0  0  0  0
 20 26  1  0  0  0  0
 20 27  2  0  0  0  0
 21 28  1  0  0  0  0
 22 26  1  0  0  0  0
 23 25  1  0  0  0  0
  1 29  1  0  0  0  0
  2 30  1  0  0  0  0
  3 31  1  0  0  0  0
  4 32  1  0  0  0  0
  5 33  1  0  0  0  0
  6 34  1  0  0  0  0
  7 35  1  0  0  0  0
  8 36  1  0  0  0  0
  9 37  1  0  0  0  0
 10 38  1  0  0  0  0
 11 39  1  0  0  0  0
 12 40  1  0  0  0  0
 13 41  1  0  0  0  0
 14 42  1  0  0  0  0
 21 43  1  0  0  0  0
 21 44  1  0  0  0  0
 21 45  1  0  0  0  0
 22 46  1  0  0  0  0
 22 47  1  0  0  0  0
 23 48  1  0  0  0  0
 23 49  1  0  0  0  0
M  END
> <clash_score>
0

> <docking_score>
-9.348602294921875

$$$$
BENZO_385_1
  -OEChem-08212023463D

 59 63  0     0  0  0  0  0  0999 V2000
   14.1526    1.4694   24.0176 C   0  0  0  0  0  0  0  0  0  0  0  0
   13.3741    0.8121   24.9701 C   0  0  0  0  0  0  0  0  0  0  0  0
   13.5446    2.0802   22.9208 C   0  0  0  0  0  0  0  0  0  0  0  0
    3.9160    2.0630   19.5520 C   0  0  0  0  0  0  0  0  0  0  0  0
    4.2750    1.7050   20.8490 C   0  0  0  0  0  0  0  0  0  0  0  0
   11.9875    0.7654   24.8258 C   0  0  0  0  0  0  0  0  0  0  0  0
   12.1580    2.0335   22.7765 C   0  0  0  0  0  0  0  0  0  0  0  0
    4.6890    1.6810   18.4640 C   0  0  0  0  0  0  0  0  0  0  0  0
    5.4210    0.9600   21.0930 C   0  0  0  0  0  0  0  0  0  0  0  0
    8.9960   -2.3380   25.5320 C   0  0  0  0  0  0  0  0  0  0  0  0
    9.6730   -3.4710   23.5300 C   0  0  0  0  0  0  0  0  0  0  0  0
    9.0720   -1.1280   24.8640 C   0  0  0  0  0  0  0  0  0  0  0  0
    9.7200   -2.2600   22.8630 C   0  0  0  0  0  0  0  0  0  0  0  0
    7.6390   -0.2680   18.5410 C   0  0  0  0  0  0  0  0  0  0  0  0
   11.3794    1.3761   23.7290 C   0  0  0  0  0  0  0  0  0  0  0  0
    5.8300    0.9190   18.6970 C   0  0  0  0  0  0  0  0  0  0  0  0
    6.1790    0.5730   19.9990 C   0  0  0  0  0  0  0  0  0  0  0  0
    9.3070   -3.5340   24.8780 C   0  0  0  0  0  0  0  0  0  0  0  0
    9.3350   -1.0880   23.5010 C   0  0  0  0  0  0  0  0  0  0  0  0
    8.3597   -5.0073   26.6307 C   0  0  0  0  0  0  0  0  0  0  0  0
    9.0420    0.3700   21.5280 C   0  0  0  0  0  0  0  0  0  0  0  0
    8.4720   -6.3981   27.2296 C   0  0  0  0  0  0  0  0  0  0  0  0
    9.9252   -6.7605   27.4803 C   0  0  0  0  0  0  0  0  0  0  0  0
   10.7833   -6.6094   26.2282 C   0  0  0  0  0  0  0  0  0  0  0  0
   10.0539   -5.9099   25.0823 C   0  0  0  0  0  0  0  0  0  0  0  0
    9.8870    1.3260   23.5730 C   0  0  0  0  0  0  0  0  0  0  0  0
    8.1890   -0.7180   20.8700 C   0  0  0  0  0  0  0  0  0  0  0  0
    6.7580    0.3810   17.8350 N   0  0  0  0  0  0  0  0  0  0  0  0
    7.3170   -0.1610   19.8550 N   0  0  0  0  0  0  0  0  0  0  0  0
    9.2529   -4.7797   25.5644 N   0  0  0  0  0  0  0  0  0  0  0  0
    9.4560    0.1560   22.8130 N   0  0  0  0  0  0  0  0  0  0  0  0
    7.4954   -4.2356   27.0449 O   0  0  0  0  0  0  0  0  0  0  0  0
    9.2690    1.4140   20.9380 O   0  0  0  0  0  0  0  0  0  0  0  0
   15.2322    1.5068   24.1308 H   0  0  0  0  0  0  0  0  0  0  0  0
   13.8473    0.3374   25.8248 H   0  0  0  0  0  0  0  0  0  0  0  0
   14.1503    2.5930   22.1795 H   0  0  0  0  0  0  0  0  0  0  0  0
    3.0133    2.6526   19.3911 H   0  0  0  0  0  0  0  0  0  0  0  0
    3.6478    2.0143   21.6818 H   0  0  0  0  0  0  0  0  0  0  0  0
   11.3889    0.2508   25.5729 H   0  0  0  0  0  0  0  0  0  0  0  0
   11.6930    2.5120   21.9187 H   0  0  0  0  0  0  0  0  0  0  0  0
    4.4036    1.9735   17.4543 H   0  0  0  0  0  0  0  0  0  0  0  0
    5.7089    0.6922   22.1131 H   0  0  0  0  0  0  0  0  0  0  0  0
    8.6895   -2.3529   26.5807 H   0  0  0  0  0  0  0  0  0  0  0  0
    9.9262   -4.3897   22.9916 H   0  0  0  0  0  0  0  0  0  0  0  0
    8.9224   -0.1998   25.4238 H   0  0  0  0  0  0  0  0  0  0  0  0
   10.0649   -2.2343   21.8258 H   0  0  0  0  0  0  0  0  0  0  0  0
    8.4865   -0.8061   18.1803 H   0  0  0  0  0  0  0  0  0  0  0  0
    7.9325   -6.4148   28.1641 H   0  0  0  0  0  0  0  0  0  0  0  0
    8.0254   -7.0920   26.5333 H   0  0  0  0  0  0  0  0  0  0  0  0
   10.3387   -6.1267   28.2923 H   0  0  0  0  0  0  0  0  0  0  0  0
    9.9904   -7.8023   27.8537 H   0  0  0  0  0  0  0  0  0  0  0  0
   11.7037   -6.0404   26.4771 H   0  0  0  0  0  0  0  0  0  0  0  0
   11.1411   -7.6068   25.8918 H   0  0  0  0  0  0  0  0  0  0  0  0
   10.7782   -5.5162   24.3756 H   0  0  0  0  0  0  0  0  0  0  0  0
    9.4042   -6.6189   24.5807 H   0  0  0  0  0  0  0  0  0  0  0  0
    9.3974    1.2912   24.5523 H   0  0  0  0  0  0  0  0  0  0  0  0
    9.5159    2.2168   23.0554 H   0  0  0  0  0  0  0  0  0  0  0  0
    8.8326   -1.4554   20.3912 H   0  0  0  0  0  0  0  0  0  0  0  0
    7.5604   -1.1971   21.6201 H   0  0  0  0  0  0  0  0  0  0  0  0
  1  2  1  0  0  0  0
  1  3  2  0  0  0  0
  2  6  2  0  0  0  0
  3  7  1  0  0  0  0
  4  5  1  0  0  0  0
  4  8  2  0  0  0  0
  5  9  2  0  0  0  0
  6 15  1  0  0  0  0
  7 15  2  0  0  0  0
  8 16  1  0  0  0  0
  9 17  1  0  0  0  0
 10 12  2  0  0  0  0
 10 18  1  0  0  0  0
 11 13  1  0  0  0  0
 11 18  2  0  0  0  0
 12 19  1  0  0  0  0
 13 19  2  0  0  0  0
 14 28  2  0  0  0  0
 14 29  1  0  0  0  0
 15 26  1  0  0  0  0
 16 17  2  0  0  0  0
 16 28  1  0  0  0  0
 17 29  1  0  0  0  0
 18 30  1  0  0  0  0
 19 31  1  0  0  0  0
 20 22  1  0  0  0  0
 20 30  1  0  0  0  0
 20 32  2  0  0  0  0
 21 27  1  0  0  0  0
 21 31  1  0  0  0  0
 21 33  2  0  0  0  0
 22 23  1  0  0  0  0
 23 24  1  0  0  0  0
 24 25  1  0  0  0  0
 25 30  1  0  0  0  0
 26 31  1  0  0  0  0
 27 29  1  0  0  0  0
  1 34  1  0  0  0  0
  2 35  1  0  0  0  0
  3 36  1  0  0  0  0
  4 37  1  0  0  0  0
  5 38  1  0  0  0  0
  6 39  1  0  0  0  0
  7 40  1  0  0  0  0
  8 41  1  0  0  0  0
  9 42  1  0  0  0  0
 10 43  1  0  0  0  0
 11 44  1  0  0  0  0
 12 45  1  0  0  0  0
 13 46  1  0  0  0  0
 14 47  1  0  0  0  0
 22 48  1  0  0  0  0
 22 49  1  0  0  0  0
 23 50  1  0  0  0  0
 23 51  1  0  0  0  0
 24 52  1  0  0  0  0
 24 53  1  0  0  0  0
 25 54  1  0  0  0  0
 25 55  1  0  0  0  0
 26 56  1  0  0  0  0
 26 57  1  0  0  0  0
 27 58  1  0  0  0  0
 27 59  1  0  0  0  0
M  END
> <clash_score>
0.7790751876189459

> <docking_score>
-8.708239555358887

$$$$
BENZO_386_1
  -OEChem-08212023463D

 59 63  0     0  0  0  0  0  0999 V2000
    3.9160    2.0630   19.5520 C   0  0  0  0  0  0  0  0  0  0  0  0
    4.2750    1.7050   20.8490 C   0  0  0  0  0  0  0  0  0  0  0  0
    6.4089    2.0844   24.8766 C   0  0  0  0  0  0  0  0  0  0  0  0
    7.4847    1.4191   24.2887 C   0  0  0  0  0  0  0  0  0  0  0  0
    4.6890    1.6810   18.4640 C   0  0  0  0  0  0  0  0  0  0  0  0
    5.4210    0.9600   21.0930 C   0  0  0  0  0  0  0  0  0  0  0  0
    8.9960   -2.3380   25.5320 C   0  0  0  0  0  0  0  0  0  0  0  0
    9.6730   -3.4710   23.5300 C   0  0  0  0  0  0  0  0  0  0  0  0
    9.0720   -1.1280   24.8640 C   0  0  0  0  0  0  0  0  0  0  0  0
    9.7200   -2.2600   22.8630 C   0  0  0  0  0  0  0  0  0  0  0  0
    6.5777    3.3741   25.3805 C   0  0  0  0  0  0  0  0  0  0  0  0
    8.8980    3.3330   24.7088 C   0  0  0  0  0  0  0  0  0  0  0  0
    7.6390   -0.2680   18.5410 C   0  0  0  0  0  0  0  0  0  0  0  0
    8.7292    2.0433   24.2048 C   0  0  0  0  0  0  0  0  0  0  0  0
    5.8300    0.9190   18.6970 C   0  0  0  0  0  0  0  0  0  0  0  0
    6.1790    0.5730   19.9990 C   0  0  0  0  0  0  0  0  0  0  0  0
    9.3070   -3.5340   24.8780 C   0  0  0  0  0  0  0  0  0  0  0  0
    9.3350   -1.0880   23.5010 C   0  0  0  0  0  0  0  0  0  0  0  0
    7.8222    3.9984   25.2966 C   0  0  0  0  0  0  0  0  0  0  0  0
    8.3597   -5.0073   26.6307 C   0  0  0  0  0  0  0  0  0  0  0  0
    9.0420    0.3700   21.5280 C   0  0  0  0  0  0  0  0  0  0  0  0
    8.4720   -6.3981   27.2296 C   0  0  0  0  0  0  0  0  0  0  0  0
    9.9252   -6.7605   27.4803 C   0  0  0  0  0  0  0  0  0  0  0  0
   10.7833   -6.6094   26.2282 C   0  0  0  0  0  0  0  0  0  0  0  0
   10.0539   -5.9099   25.0823 C   0  0  0  0  0  0  0  0  0  0  0  0
    9.8870    1.3260   23.5730 C   0  0  0  0  0  0  0  0  0  0  0  0
    8.1890   -0.7180   20.8700 C   0  0  0  0  0  0  0  0  0  0  0  0
    6.7580    0.3810   17.8350 N   0  0  0  0  0  0  0  0  0  0  0  0
    7.3170   -0.1610   19.8550 N   0  0  0  0  0  0  0  0  0  0  0  0
    9.2529   -4.7797   25.5644 N   0  0  0  0  0  0  0  0  0  0  0  0
    9.4560    0.1560   22.8130 N   0  0  0  0  0  0  0  0  0  0  0  0
    7.4954   -4.2356   27.0449 O   0  0  0  0  0  0  0  0  0  0  0  0
    9.2690    1.4140   20.9380 O   0  0  0  0  0  0  0  0  0  0  0  0
    8.0301    5.5891   25.9196 Cl  0  0  0  0  0  0  0  0  0  0  0  0
    3.0133    2.6526   19.3911 H   0  0  0  0  0  0  0  0  0  0  0  0
    3.6478    2.0143   21.6818 H   0  0  0  0  0  0  0  0  0  0  0  0
    5.4400    1.5979   24.9418 H   0  0  0  0  0  0  0  0  0  0  0  0
    7.3441    0.4143   23.8988 H   0  0  0  0  0  0  0  0  0  0  0  0
    4.4036    1.9735   17.4543 H   0  0  0  0  0  0  0  0  0  0  0  0
    5.7089    0.6922   22.1131 H   0  0  0  0  0  0  0  0  0  0  0  0
    8.6895   -2.3529   26.5807 H   0  0  0  0  0  0  0  0  0  0  0  0
    9.9262   -4.3897   22.9916 H   0  0  0  0  0  0  0  0  0  0  0  0
    8.9224   -0.1998   25.4238 H   0  0  0  0  0  0  0  0  0  0  0  0
   10.0649   -2.2343   21.8258 H   0  0  0  0  0  0  0  0  0  0  0  0
    5.7304    3.8806   25.8363 H   0  0  0  0  0  0  0  0  0  0  0  0
    9.8703    3.8156   24.6405 H   0  0  0  0  0  0  0  0  0  0  0  0
    8.4865   -0.8061   18.1803 H   0  0  0  0  0  0  0  0  0  0  0  0
    7.9325   -6.4148   28.1641 H   0  0  0  0  0  0  0  0  0  0  0  0
    8.0254   -7.0920   26.5333 H   0  0  0  0  0  0  0  0  0  0  0  0
   10.3387   -6.1267   28.2923 H   0  0  0  0  0  0  0  0  0  0  0  0
    9.9904   -7.8023   27.8537 H   0  0  0  0  0  0  0  0  0  0  0  0
   11.7037   -6.0404   26.4771 H   0  0  0  0  0  0  0  0  0  0  0  0
   11.1411   -7.6068   25.8918 H   0  0  0  0  0  0  0  0  0  0  0  0
   10.7782   -5.5162   24.3756 H   0  0  0  0  0  0  0  0  0  0  0  0
    9.4042   -6.6189   24.5807 H   0  0  0  0  0  0  0  0  0  0  0  0
   10.4274    1.9911   22.8906 H   0  0  0  0  0  0  0  0  0  0  0  0
   10.6011    0.9882   24.3313 H   0  0  0  0  0  0  0  0  0  0  0  0
    8.8326   -1.4554   20.3912 H   0  0  0  0  0  0  0  0  0  0  0  0
    7.5604   -1.1971   21.6201 H   0  0  0  0  0  0  0  0  0  0  0  0
  1  2  1  0  0  0  0
  1  5  2  0  0  0  0
  2  6  2  0  0  0  0
  3  4  2  0  0  0  0
  3 11  1  0  0  0  0
  4 14  1  0  0  0  0
  5 15  1  0  0  0  0
  6 16  1  0  0  0  0
  7  9  2  0  0  0  0
  7 17  1  0  0  0  0
  8 10  1  0  0  0  0
  8 17  2  0  0  0  0
  9 18  1  0  0  0  0
 10 18  2  0  0  0  0
 11 19  2  0  0  0  0
 12 14  2  0  0  0  0
 12 19  1  0  0  0  0
 13 28  2  0  0  0  0
 13 29  1  0  0  0  0
 14 26  1  0  0  0  0
 15 16  2  0  0  0  0
 15 28  1  0  0  0  0
 16 29  1  0  0  0  0
 17 30  1  0  0  0  0
 18 31  1  0  0  0  0
 19 34  1  0  0  0  0
 20 22  1  0  0  0  0
 20 30  1  0  0  0  0
 20 32  2  0  0  0  0
 21 27  1  0  0  0  0
 21 31  1  0  0  0  0
 21 33  2  0  0  0  0
 22 23  1  0  0  0  0
 23 24  1  0  0  0  0
 24 25  1  0  0  0  0
 25 30  1  0  0  0  0
 26 31  1  0  0  0  0
 27 29  1  0  0  0  0
  1 35  1  0  0  0  0
  2 36  1  0  0  0  0
  3 37  1  0  0  0  0
  4 38  1  0  0  0  0
  5 39  1  0  0  0  0
  6 40  1  0  0  0  0
  7 41  1  0  0  0  0
  8 42  1  0  0  0  0
  9 43  1  0  0  0  0
 10 44  1  0  0  0  0
 11 45  1  0  0  0  0
 12 46  1  0  0  0  0
 13 47  1  0  0  0  0
 22 48  1  0  0  0  0
 22 49  1  0  0  0  0
 23 50  1  0  0  0  0
 23 51  1  0  0  0  0
 24 52  1  0  0  0  0
 24 53  1  0  0  0  0
 25 54  1  0  0  0  0
 25 55  1  0  0  0  0
 26 56  1  0  0  0  0
 26 57  1  0  0  0  0
 27 58  1  0  0  0  0
 27 59  1  0  0  0  0
M  END
> <clash_score>
0.7790751876189459

> <docking_score>
-8.094264030456543

$$$$
BENZO_387_1
  -OEChem-08212023463D

 59 63  0     0  0  0  0  0  0999 V2000
    3.9160    2.0630   19.5520 C   0  0  0  0  0  0  0  0  0  0  0  0
    4.2750    1.7050   20.8490 C   0  0  0  0  0  0  0  0  0  0  0  0
    4.6890    1.6810   18.4640 C   0  0  0  0  0  0  0  0  0  0  0  0
    5.4210    0.9600   21.0930 C   0  0  0  0  0  0  0  0  0  0  0  0
    8.9960   -2.3380   25.5320 C   0  0  0  0  0  0  0  0  0  0  0  0
    9.6730   -3.4710   23.5300 C   0  0  0  0  0  0  0  0  0  0  0  0
    9.0720   -1.1280   24.8640 C   0  0  0  0  0  0  0  0  0  0  0  0
    9.7200   -2.2600   22.8630 C   0  0  0  0  0  0  0  0  0  0  0  0
   12.1233    1.3811   24.9242 C   0  0  0  0  0  0  0  0  0  0  0  0
   12.3262    1.4247   22.7351 C   0  0  0  0  0  0  0  0  0  0  0  0
    7.6390   -0.2680   18.5410 C   0  0  0  0  0  0  0  0  0  0  0  0
   11.3794    1.3761   23.7290 C   0  0  0  0  0  0  0  0  0  0  0  0
    5.8300    0.9190   18.6970 C   0  0  0  0  0  0  0  0  0  0  0  0
    6.1790    0.5730   19.9990 C   0  0  0  0  0  0  0  0  0  0  0  0
    9.3070   -3.5340   24.8780 C   0  0  0  0  0  0  0  0  0  0  0  0
    9.3350   -1.0880   23.5010 C   0  0  0  0  0  0  0  0  0  0  0  0
    8.3597   -5.0073   26.6307 C   0  0  0  0  0  0  0  0  0  0  0  0
    9.0420    0.3700   21.5280 C   0  0  0  0  0  0  0  0  0  0  0  0
    8.4720   -6.3981   27.2296 C   0  0  0  0  0  0  0  0  0  0  0  0
    9.9252   -6.7605   27.4803 C   0  0  0  0  0  0  0  0  0  0  0  0
   10.7833   -6.6094   26.2282 C   0  0  0  0  0  0  0  0  0  0  0  0
   10.0539   -5.9099   25.0823 C   0  0  0  0  0  0  0  0  0  0  0  0
   14.8305    1.5084   22.7418 C   0  0  0  0  0  0  0  0  0  0  0  0
    9.8870    1.3260   23.5730 C   0  0  0  0  0  0  0  0  0  0  0  0
    8.1890   -0.7180   20.8700 C   0  0  0  0  0  0  0  0  0  0  0  0
   13.4410    1.4289   24.7112 N   0  0  0  0  0  0  0  0  0  0  0  0
    6.7580    0.3810   17.8350 N   0  0  0  0  0  0  0  0  0  0  0  0
   13.5326    1.4543   23.3707 N   0  0  0  0  0  0  0  0  0  0  0  0
    7.3170   -0.1610   19.8550 N   0  0  0  0  0  0  0  0  0  0  0  0
    9.2529   -4.7797   25.5644 N   0  0  0  0  0  0  0  0  0  0  0  0
    9.4560    0.1560   22.8130 N   0  0  0  0  0  0  0  0  0  0  0  0
    7.4954   -4.2356   27.0449 O   0  0  0  0  0  0  0  0  0  0  0  0
    9.2690    1.4140   20.9380 O   0  0  0  0  0  0  0  0  0  0  0  0
    3.0133    2.6526   19.3911 H   0  0  0  0  0  0  0  0  0  0  0  0
    3.6478    2.0143   21.6818 H   0  0  0  0  0  0  0  0  0  0  0  0
    4.4036    1.9735   17.4543 H   0  0  0  0  0  0  0  0  0  0  0  0
    5.7089    0.6922   22.1131 H   0  0  0  0  0  0  0  0  0  0  0  0
    8.6895   -2.3529   26.5807 H   0  0  0  0  0  0  0  0  0  0  0  0
    9.9262   -4.3897   22.9916 H   0  0  0  0  0  0  0  0  0  0  0  0
    8.9224   -0.1998   25.4238 H   0  0  0  0  0  0  0  0  0  0  0  0
   10.0649   -2.2343   21.8258 H   0  0  0  0  0  0  0  0  0  0  0  0
   11.7624    1.3510   25.9426 H   0  0  0  0  0  0  0  0  0  0  0  0
   12.2462    1.4390   21.6566 H   0  0  0  0  0  0  0  0  0  0  0  0
    8.4865   -0.8061   18.1803 H   0  0  0  0  0  0  0  0  0  0  0  0
    7.9325   -6.4148   28.1641 H   0  0  0  0  0  0  0  0  0  0  0  0
    8.0254   -7.0920   26.5333 H   0  0  0  0  0  0  0  0  0  0  0  0
   10.3387   -6.1267   28.2923 H   0  0  0  0  0  0  0  0  0  0  0  0
    9.9904   -7.8023   27.8537 H   0  0  0  0  0  0  0  0  0  0  0  0
   11.7037   -6.0404   26.4771 H   0  0  0  0  0  0  0  0  0  0  0  0
   11.1411   -7.6068   25.8918 H   0  0  0  0  0  0  0  0  0  0  0  0
   10.7782   -5.5162   24.3756 H   0  0  0  0  0  0  0  0  0  0  0  0
    9.4042   -6.6189   24.5807 H   0  0  0  0  0  0  0  0  0  0  0  0
   15.0990    2.5601   22.6124 H   0  0  0  0  0  0  0  0  0  0  0  0
   15.5636    1.0018   23.3756 H   0  0  0  0  0  0  0  0  0  0  0  0
   14.7841    1.0025   21.7733 H   0  0  0  0  0  0  0  0  0  0  0  0
    9.3974    1.2912   24.5523 H   0  0  0  0  0  0  0  0  0  0  0  0
    9.5159    2.2168   23.0554 H   0  0  0  0  0  0  0  0  0  0  0  0
    8.8326   -1.4554   20.3912 H   0  0  0  0  0  0  0  0  0  0  0  0
    7.5604   -1.1971   21.6201 H   0  0  0  0  0  0  0  0  0  0  0  0
  1  2  1  0  0  0  0
  1  3  2  0  0  0  0
  2  4  2  0  0  0  0
  3 13  1  0  0  0  0
  4 14  1  0  0  0  0
  5  7  2  0  0  0  0
  5 15  1  0  0  0  0
  6  8  1  0  0  0  0
  6 15  2  0  0  0  0
  7 16  1  0  0  0  0
  8 16  2  0  0  0  0
  9 12  1  0  0  0  0
  9 26  2  0  0  0  0
 10 12  2  0  0  0  0
 10 28  1  0  0  0  0
 11 27  2  0  0  0  0
 11 29  1  0  0  0  0
 12 24  1  0  0  0  0
 13 14  2  0  0  0  0
 13 27  1  0  0  0  0
 14 29  1  0  0  0  0
 15 30  1  0  0  0  0
 16 31  1  0  0  0  0
 17 19  1  0  0  0  0
 17 30  1  0  0  0  0
 17 32  2  0  0  0  0
 18 25  1  0  0  0  0
 18 31  1  0  0  0  0
 18 33  2  0  0  0  0
 19 20  1  0  0  0  0
 20 21  1  0  0  0  0
 21 22  1  0  0  0  0
 22 30  1  0  0  0  0
 23 28  1  0  0  0  0
 24 31  1  0  0  0  0
 25 29  1  0  0  0  0
 26 28  1  0  0  0  0
  1 34  1  0  0  0  0
  2 35  1  0  0  0  0
  3 36  1  0  0  0  0
  4 37  1  0  0  0  0
  5 38  1  0  0  0  0
  6 39  1  0  0  0  0
  7 40  1  0  0  0  0
  8 41  1  0  0  0  0
  9 42  1  0  0  0  0
 10 43  1  0  0  0  0
 11 44  1  0  0  0  0
 19 45  1  0  0  0  0
 19 46  1  0  0  0  0
 20 47  1  0  0  0  0
 20 48  1  0  0  0  0
 21 49  1  0  0  0  0
 21 50  1  0  0  0  0
 22 51  1  0  0  0  0
 22 52  1  0  0  0  0
 23 53  1  0  0  0  0
 23 54  1  0  0  0  0
 23 55  1  0  0  0  0
 24 56  1  0  0  0  0
 24 57  1  0  0  0  0
 25 58  1  0  0  0  0
 25 59  1  0  0  0  0
M  END
> <clash_score>
0.7790751876189459

> <docking_score>
-8.424371719360352

$$$$
BENZO_384_1
  -OEChem-08212023463D

 56 60  0     0  0  0  0  0  0999 V2000
    3.9160    2.0630   19.5520 C   0  0  0  0  0  0  0  0  0  0  0  0
    4.2750    1.7050   20.8490 C   0  0  0  0  0  0  0  0  0  0  0  0
    4.6890    1.6810   18.4640 C   0  0  0  0  0  0  0  0  0  0  0  0
    5.4210    0.9600   21.0930 C   0  0  0  0  0  0  0  0  0  0  0  0
    8.9960   -2.3380   25.5320 C   0  0  0  0  0  0  0  0  0  0  0  0
    9.6730   -3.4710   23.5300 C   0  0  0  0  0  0  0  0  0  0  0  0
    9.0720   -1.1280   24.8640 C   0  0  0  0  0  0  0  0  0  0  0  0
    9.7200   -2.2600   22.8630 C   0  0  0  0  0  0  0  0  0  0  0  0
   12.2913    1.4279   22.6355 C   0  0  0  0  0  0  0  0  0  0  0  0
   13.6024    1.4662   23.0564 C   0  0  0  0  0  0  0  0  0  0  0  0
   12.0284    1.3764   24.9443 C   0  0  0  0  0  0  0  0  0  0  0  0
    7.6390   -0.2680   18.5410 C   0  0  0  0  0  0  0  0  0  0  0  0
   11.3794    1.3761   23.7290 C   0  0  0  0  0  0  0  0  0  0  0  0
    5.8300    0.9190   18.6970 C   0  0  0  0  0  0  0  0  0  0  0  0
    6.1790    0.5730   19.9990 C   0  0  0  0  0  0  0  0  0  0  0  0
    9.3070   -3.5340   24.8780 C   0  0  0  0  0  0  0  0  0  0  0  0
    9.3350   -1.0880   23.5010 C   0  0  0  0  0  0  0  0  0  0  0  0
    8.3597   -5.0073   26.6307 C   0  0  0  0  0  0  0  0  0  0  0  0
    9.0420    0.3700   21.5280 C   0  0  0  0  0  0  0  0  0  0  0  0
    8.4720   -6.3981   27.2296 C   0  0  0  0  0  0  0  0  0  0  0  0
    9.9252   -6.7605   27.4803 C   0  0  0  0  0  0  0  0  0  0  0  0
   10.7833   -6.6094   26.2282 C   0  0  0  0  0  0  0  0  0  0  0  0
   10.0539   -5.9099   25.0823 C   0  0  0  0  0  0  0  0  0  0  0  0
    9.8870    1.3260   23.5730 C   0  0  0  0  0  0  0  0  0  0  0  0
    8.1890   -0.7180   20.8700 C   0  0  0  0  0  0  0  0  0  0  0  0
    6.7580    0.3810   17.8350 N   0  0  0  0  0  0  0  0  0  0  0  0
    7.3170   -0.1610   19.8550 N   0  0  0  0  0  0  0  0  0  0  0  0
    9.2529   -4.7797   25.5644 N   0  0  0  0  0  0  0  0  0  0  0  0
    9.4560    0.1560   22.8130 N   0  0  0  0  0  0  0  0  0  0  0  0
    7.4954   -4.2356   27.0449 O   0  0  0  0  0  0  0  0  0  0  0  0
    9.2690    1.4140   20.9380 O   0  0  0  0  0  0  0  0  0  0  0  0
   13.7301    1.4394   24.7638 S   0  0  0  0  0  0  0  0  0  0  0  0
    3.0133    2.6526   19.3911 H   0  0  0  0  0  0  0  0  0  0  0  0
    3.6478    2.0143   21.6818 H   0  0  0  0  0  0  0  0  0  0  0  0
    4.4036    1.9735   17.4543 H   0  0  0  0  0  0  0  0  0  0  0  0
    5.7089    0.6922   22.1131 H   0  0  0  0  0  0  0  0  0  0  0  0
    8.6895   -2.3529   26.5807 H   0  0  0  0  0  0  0  0  0  0  0  0
    9.9262   -4.3897   22.9916 H   0  0  0  0  0  0  0  0  0  0  0  0
    8.9224   -0.1998   25.4238 H   0  0  0  0  0  0  0  0  0  0  0  0
   10.0649   -2.2343   21.8258 H   0  0  0  0  0  0  0  0  0  0  0  0
   12.0045    1.4365   21.5915 H   0  0  0  0  0  0  0  0  0  0  0  0
   14.4914    1.5078   22.4431 H   0  0  0  0  0  0  0  0  0  0  0  0
   11.5886    1.3416   25.9314 H   0  0  0  0  0  0  0  0  0  0  0  0
    8.4865   -0.8061   18.1803 H   0  0  0  0  0  0  0  0  0  0  0  0
    7.9325   -6.4148   28.1641 H   0  0  0  0  0  0  0  0  0  0  0  0
    8.0254   -7.0920   26.5333 H   0  0  0  0  0  0  0  0  0  0  0  0
   10.3387   -6.1267   28.2923 H   0  0  0  0  0  0  0  0  0  0  0  0
    9.9904   -7.8023   27.8537 H   0  0  0  0  0  0  0  0  0  0  0  0
   11.7037   -6.0404   26.4771 H   0  0  0  0  0  0  0  0  0  0  0  0
   11.1411   -7.6068   25.8918 H   0  0  0  0  0  0  0  0  0  0  0  0
   10.7782   -5.5162   24.3756 H   0  0  0  0  0  0  0  0  0  0  0  0
    9.4042   -6.6189   24.5807 H   0  0  0  0  0  0  0  0  0  0  0  0
    9.3974    1.2912   24.5523 H   0  0  0  0  0  0  0  0  0  0  0  0
    9.5159    2.2168   23.0554 H   0  0  0  0  0  0  0  0  0  0  0  0
    8.8326   -1.4554   20.3912 H   0  0  0  0  0  0  0  0  0  0  0  0
    7.5604   -1.1971   21.6201 H   0  0  0  0  0  0  0  0  0  0  0  0
  1  2  1  0  0  0  0
  1  3  2  0  0  0  0
  2  4  2  0  0  0  0
  3 14  1  0  0  0  0
  4 15  1  0  0  0  0
  5  7  2  0  0  0  0
  5 16  1  0  0  0  0
  6  8  1  0  0  0  0
  6 16  2  0  0  0  0
  7 17  1  0  0  0  0
  8 17  2  0  0  0  0
  9 10  2  0  0  0  0
  9 13  1  0  0  0  0
 10 32  1  0  0  0  0
 11 13  2  0  0  0  0
 11 32  1  0  0  0  0
 12 26  2  0  0  0  0
 12 27  1  0  0  0  0
 13 24  1  0  0  0  0
 14 15  2  0  0  0  0
 14 26  1  0  0  0  0
 15 27  1  0  0  0  0
 16 28  1  0  0  0  0
 17 29  1  0  0  0  0
 18 20  1  0  0  0  0
 18 28  1  0  0  0  0
 18 30  2  0  0  0  0
 19 25  1  0  0  0  0
 19 29  1  0  0  0  0
 19 31  2  0  0  0  0
 20 21  1  0  0  0  0
 21 22  1  0  0  0  0
 22 23  1  0  0  0  0
 23 28  1  0  0  0  0
 24 29  1  0  0  0  0
 25 27  1  0  0  0  0
  1 33  1  0  0  0  0
  2 34  1  0  0  0  0
  3 35  1  0  0  0  0
  4 36  1  0  0  0  0
  5 37  1  0  0  0  0
  6 38  1  0  0  0  0
  7 39  1  0  0  0  0
  8 40  1  0  0  0  0
  9 41  1  0  0  0  0
 10 42  1  0  0  0  0
 11 43  1  0  0  0  0
 12 44  1  0  0  0  0
 20 45  1  0  0  0  0
 20 46  1  0  0  0  0
 21 47  1  0  0  0  0
 21 48  1  0  0  0  0
 22 49  1  0  0  0  0
 22 50  1  0  0  0  0
 23 51  1  0  0  0  0
 23 52  1  0  0  0  0
 24 53  1  0  0  0  0
 24 54  1  0  0  0  0
 25 55  1  0  0  0  0
 25 56  1  0  0  0  0
M  END
> <clash_score>
0.7790751876189459

> <docking_score>
-8.787088394165039

$$$$
BENZO_389_1
  -OEChem-08212023463D

 58 62  0     0  0  0  0  0  0999 V2000
   14.1526    1.4694   24.0176 C   0  0  0  0  0  0  0  0  0  0  0  0
   13.3741    0.8121   24.9701 C   0  0  0  0  0  0  0  0  0  0  0  0
   13.5446    2.0802   22.9208 C   0  0  0  0  0  0  0  0  0  0  0  0
    3.9160    2.0630   19.5520 C   0  0  0  0  0  0  0  0  0  0  0  0
    4.2750    1.7050   20.8490 C   0  0  0  0  0  0  0  0  0  0  0  0
   11.9875    0.7654   24.8258 C   0  0  0  0  0  0  0  0  0  0  0  0
   12.1580    2.0335   22.7765 C   0  0  0  0  0  0  0  0  0  0  0  0
    4.6890    1.6810   18.4640 C   0  0  0  0  0  0  0  0  0  0  0  0
    5.4210    0.9600   21.0930 C   0  0  0  0  0  0  0  0  0  0  0  0
    8.9960   -2.3380   25.5320 C   0  0  0  0  0  0  0  0  0  0  0  0
    9.6730   -3.4710   23.5300 C   0  0  0  0  0  0  0  0  0  0  0  0
    9.0720   -1.1280   24.8640 C   0  0  0  0  0  0  0  0  0  0  0  0
    9.7200   -2.2600   22.8630 C   0  0  0  0  0  0  0  0  0  0  0  0
    7.6390   -0.2680   18.5410 C   0  0  0  0  0  0  0  0  0  0  0  0
   11.3794    1.3761   23.7290 C   0  0  0  0  0  0  0  0  0  0  0  0
    5.8300    0.9190   18.6970 C   0  0  0  0  0  0  0  0  0  0  0  0
    6.1790    0.5730   19.9990 C   0  0  0  0  0  0  0  0  0  0  0  0
    9.3070   -3.5340   24.8780 C   0  0  0  0  0  0  0  0  0  0  0  0
    9.3350   -1.0880   23.5010 C   0  0  0  0  0  0  0  0  0  0  0  0
    9.0420    0.3700   21.5280 C   0  0  0  0  0  0  0  0  0  0  0  0
   10.0771   -5.0255   26.7193 C   0  0  0  0  0  0  0  0  0  0  0  0
    8.0927   -5.6195   25.4071 C   0  0  0  0  0  0  0  0  0  0  0  0
    9.1933   -4.9427   27.9592 C   0  0  0  0  0  0  0  0  0  0  0  0
    7.2756   -5.5290   26.6967 C   0  0  0  0  0  0  0  0  0  0  0  0
    9.8870    1.3260   23.5730 C   0  0  0  0  0  0  0  0  0  0  0  0
    8.1890   -0.7180   20.8700 C   0  0  0  0  0  0  0  0  0  0  0  0
    6.7580    0.3810   17.8350 N   0  0  0  0  0  0  0  0  0  0  0  0
    7.3170   -0.1610   19.8550 N   0  0  0  0  0  0  0  0  0  0  0  0
    9.2563   -4.7368   25.5413 N   0  0  0  0  0  0  0  0  0  0  0  0
    9.4560    0.1560   22.8130 N   0  0  0  0  0  0  0  0  0  0  0  0
    9.2690    1.4140   20.9380 O   0  0  0  0  0  0  0  0  0  0  0  0
    8.0883   -5.8459   27.8325 O   0  0  0  0  0  0  0  0  0  0  0  0
   15.2322    1.5068   24.1308 H   0  0  0  0  0  0  0  0  0  0  0  0
   13.8473    0.3374   25.8248 H   0  0  0  0  0  0  0  0  0  0  0  0
   14.1503    2.5930   22.1795 H   0  0  0  0  0  0  0  0  0  0  0  0
    3.0133    2.6526   19.3911 H   0  0  0  0  0  0  0  0  0  0  0  0
    3.6478    2.0143   21.6818 H   0  0  0  0  0  0  0  0  0  0  0  0
   11.3889    0.2508   25.5729 H   0  0  0  0  0  0  0  0  0  0  0  0
   11.6930    2.5120   21.9187 H   0  0  0  0  0  0  0  0  0  0  0  0
    4.4036    1.9735   17.4543 H   0  0  0  0  0  0  0  0  0  0  0  0
    5.7089    0.6922   22.1131 H   0  0  0  0  0  0  0  0  0  0  0  0
    8.6905   -2.3533   26.5810 H   0  0  0  0  0  0  0  0  0  0  0  0
    9.9266   -4.3896   22.9917 H   0  0  0  0  0  0  0  0  0  0  0  0
    8.9233   -0.1992   25.4232 H   0  0  0  0  0  0  0  0  0  0  0  0
   10.0650   -2.2330   21.8256 H   0  0  0  0  0  0  0  0  0  0  0  0
    8.4865   -0.8061   18.1803 H   0  0  0  0  0  0  0  0  0  0  0  0
   10.8985   -4.3115   26.8085 H   0  0  0  0  0  0  0  0  0  0  0  0
   10.4915   -6.0334   26.6323 H   0  0  0  0  0  0  0  0  0  0  0  0
    8.4327   -6.6456   25.2620 H   0  0  0  0  0  0  0  0  0  0  0  0
    7.4725   -5.3241   24.5619 H   0  0  0  0  0  0  0  0  0  0  0  0
    9.7636   -5.2398   28.8419 H   0  0  0  0  0  0  0  0  0  0  0  0
    8.8236   -3.9268   28.1248 H   0  0  0  0  0  0  0  0  0  0  0  0
    6.8339   -4.5337   26.8232 H   0  0  0  0  0  0  0  0  0  0  0  0
    6.4550   -6.2521   26.6643 H   0  0  0  0  0  0  0  0  0  0  0  0
    9.3974    1.2912   24.5523 H   0  0  0  0  0  0  0  0  0  0  0  0
    9.5159    2.2168   23.0554 H   0  0  0  0  0  0  0  0  0  0  0  0
    8.8326   -1.4554   20.3912 H   0  0  0  0  0  0  0  0  0  0  0  0
    7.5604   -1.1971   21.6201 H   0  0  0  0  0  0  0  0  0  0  0  0
  1  2  1  0  0  0  0
  1  3  2  0  0  0  0
  2  6  2  0  0  0  0
  3  7  1  0  0  0  0
  4  5  1  0  0  0  0
  4  8  2  0  0  0  0
  5  9  2  0  0  0  0
  6 15  1  0  0  0  0
  7 15  2  0  0  0  0
  8 16  1  0  0  0  0
  9 17  1  0  0  0  0
 10 12  2  0  0  0  0
 10 18  1  0  0  0  0
 11 13  1  0  0  0  0
 11 18  2  0  0  0  0
 12 19  1  0  0  0  0
 13 19  2  0  0  0  0
 14 27  2  0  0  0  0
 14 28  1  0  0  0  0
 15 25  1  0  0  0  0
 16 17  2  0  0  0  0
 16 27  1  0  0  0  0
 17 28  1  0  0  0  0
 18 29  1  0  0  0  0
 19 30  1  0  0  0  0
 20 26  1  0  0  0  0
 20 30  1  0  0  0  0
 20 31  2  0  0  0  0
 21 23  1  0  0  0  0
 21 29  1  0  0  0  0
 22 24  1  0  0  0  0
 22 29  1  0  0  0  0
 23 32  1  0  0  0  0
 24 32  1  0  0  0  0
 25 30  1  0  0  0  0
 26 28  1  0  0  0  0
  1 33  1  0  0  0  0
  2 34  1  0  0  0  0
  3 35  1  0  0  0  0
  4 36  1  0  0  0  0
  5 37  1  0  0  0  0
  6 38  1  0  0  0  0
  7 39  1  0  0  0  0
  8 40  1  0  0  0  0
  9 41  1  0  0  0  0
 10 42  1  0  0  0  0
 11 43  1  0  0  0  0
 12 44  1  0  0  0  0
 13 45  1  0  0  0  0
 14 46  1  0  0  0  0
 21 47  1  0  0  0  0
 21 48  1  0  0  0  0
 22 49  1  0  0  0  0
 22 50  1  0  0  0  0
 23 51  1  0  0  0  0
 23 52  1  0  0  0  0
 24 53  1  0  0  0  0
 24 54  1  0  0  0  0
 25 55  1  0  0  0  0
 25 56  1  0  0  0  0
 26 57  1  0  0  0  0
 26 58  1  0  0  0  0
M  END
> <clash_score>
0

> <docking_score>
-9.689355850219727

$$$$
BENZO_391_1
  -OEChem-08212023463D

 58 62  0     0  0  0  0  0  0999 V2000
    3.9160    2.0630   19.5520 C   0  0  0  0  0  0  0  0  0  0  0  0
    4.2750    1.7050   20.8490 C   0  0  0  0  0  0  0  0  0  0  0  0
    4.6890    1.6810   18.4640 C   0  0  0  0  0  0  0  0  0  0  0  0
    5.4210    0.9600   21.0930 C   0  0  0  0  0  0  0  0  0  0  0  0
    8.9960   -2.3380   25.5320 C   0  0  0  0  0  0  0  0  0  0  0  0
    9.6730   -3.4710   23.5300 C   0  0  0  0  0  0  0  0  0  0  0  0
    9.0720   -1.1280   24.8640 C   0  0  0  0  0  0  0  0  0  0  0  0
    9.7200   -2.2600   22.8630 C   0  0  0  0  0  0  0  0  0  0  0  0
   12.1233    1.3811   24.9242 C   0  0  0  0  0  0  0  0  0  0  0  0
   12.3261    1.4247   22.7351 C   0  0  0  0  0  0  0  0  0  0  0  0
    7.6390   -0.2680   18.5410 C   0  0  0  0  0  0  0  0  0  0  0  0
   11.3794    1.3761   23.7290 C   0  0  0  0  0  0  0  0  0  0  0  0
    5.8300    0.9190   18.6970 C   0  0  0  0  0  0  0  0  0  0  0  0
    6.1790    0.5730   19.9990 C   0  0  0  0  0  0  0  0  0  0  0  0
    9.3070   -3.5340   24.8780 C   0  0  0  0  0  0  0  0  0  0  0  0
    9.3350   -1.0880   23.5010 C   0  0  0  0  0  0  0  0  0  0  0  0
    9.0420    0.3700   21.5280 C   0  0  0  0  0  0  0  0  0  0  0  0
   10.0771   -5.0255   26.7193 C   0  0  0  0  0  0  0  0  0  0  0  0
    8.0927   -5.6195   25.4071 C   0  0  0  0  0  0  0  0  0  0  0  0
    9.1933   -4.9427   27.9592 C   0  0  0  0  0  0  0  0  0  0  0  0
    7.2756   -5.5290   26.6967 C   0  0  0  0  0  0  0  0  0  0  0  0
   14.8305    1.5084   22.7418 C   0  0  0  0  0  0  0  0  0  0  0  0
    9.8870    1.3260   23.5730 C   0  0  0  0  0  0  0  0  0  0  0  0
    8.1890   -0.7180   20.8700 C   0  0  0  0  0  0  0  0  0  0  0  0
   13.4410    1.4289   24.7112 N   0  0  0  0  0  0  0  0  0  0  0  0
    6.7580    0.3810   17.8350 N   0  0  0  0  0  0  0  0  0  0  0  0
   13.5326    1.4543   23.3706 N   0  0  0  0  0  0  0  0  0  0  0  0
    7.3170   -0.1610   19.8550 N   0  0  0  0  0  0  0  0  0  0  0  0
    9.2563   -4.7368   25.5413 N   0  0  0  0  0  0  0  0  0  0  0  0
    9.4560    0.1560   22.8130 N   0  0  0  0  0  0  0  0  0  0  0  0
    9.2690    1.4140   20.9380 O   0  0  0  0  0  0  0  0  0  0  0  0
    8.0883   -5.8459   27.8325 O   0  0  0  0  0  0  0  0  0  0  0  0
    3.0133    2.6526   19.3911 H   0  0  0  0  0  0  0  0  0  0  0  0
    3.6478    2.0143   21.6818 H   0  0  0  0  0  0  0  0  0  0  0  0
    4.4036    1.9735   17.4543 H   0  0  0  0  0  0  0  0  0  0  0  0
    5.7089    0.6922   22.1131 H   0  0  0  0  0  0  0  0  0  0  0  0
    8.6905   -2.3533   26.5810 H   0  0  0  0  0  0  0  0  0  0  0  0
    9.9266   -4.3896   22.9917 H   0  0  0  0  0  0  0  0  0  0  0  0
    8.9233   -0.1992   25.4232 H   0  0  0  0  0  0  0  0  0  0  0  0
   10.0650   -2.2330   21.8256 H   0  0  0  0  0  0  0  0  0  0  0  0
   11.7624    1.3510   25.9426 H   0  0  0  0  0  0  0  0  0  0  0  0
   12.2462    1.4390   21.6566 H   0  0  0  0  0  0  0  0  0  0  0  0
    8.4865   -0.8061   18.1803 H   0  0  0  0  0  0  0  0  0  0  0  0
   10.8985   -4.3115   26.8085 H   0  0  0  0  0  0  0  0  0  0  0  0
   10.4915   -6.0334   26.6323 H   0  0  0  0  0  0  0  0  0  0  0  0
    8.4327   -6.6456   25.2620 H   0  0  0  0  0  0  0  0  0  0  0  0
    7.4725   -5.3241   24.5619 H   0  0  0  0  0  0  0  0  0  0  0  0
    9.7636   -5.2398   28.8419 H   0  0  0  0  0  0  0  0  0  0  0  0
    8.8236   -3.9268   28.1248 H   0  0  0  0  0  0  0  0  0  0  0  0
    6.8339   -4.5337   26.8232 H   0  0  0  0  0  0  0  0  0  0  0  0
    6.4550   -6.2521   26.6643 H   0  0  0  0  0  0  0  0  0  0  0  0
   15.0990    2.5601   22.6124 H   0  0  0  0  0  0  0  0  0  0  0  0
   15.5636    1.0018   23.3756 H   0  0  0  0  0  0  0  0  0  0  0  0
   14.7841    1.0025   21.7733 H   0  0  0  0  0  0  0  0  0  0  0  0
    9.3974    1.2912   24.5523 H   0  0  0  0  0  0  0  0  0  0  0  0
    9.5159    2.2168   23.0554 H   0  0  0  0  0  0  0  0  0  0  0  0
    8.8326   -1.4554   20.3912 H   0  0  0  0  0  0  0  0  0  0  0  0
    7.5604   -1.1971   21.6201 H   0  0  0  0  0  0  0  0  0  0  0  0
  1  2  1  0  0  0  0
  1  3  2  0  0  0  0
  2  4  2  0  0  0  0
  3 13  1  0  0  0  0
  4 14  1  0  0  0  0
  5  7  2  0  0  0  0
  5 15  1  0  0  0  0
  6  8  1  0  0  0  0
  6 15  2  0  0  0  0
  7 16  1  0  0  0  0
  8 16  2  0  0  0  0
  9 12  1  0  0  0  0
  9 25  2  0  0  0  0
 10 12  2  0  0  0  0
 10 27  1  0  0  0  0
 11 26  2  0  0  0  0
 11 28  1  0  0  0  0
 12 23  1  0  0  0  0
 13 14  2  0  0  0  0
 13 26  1  0  0  0  0
 14 28  1  0  0  0  0
 15 29  1  0  0  0  0
 16 30  1  0  0  0  0
 17 24  1  0  0  0  0
 17 30  1  0  0  0  0
 17 31  2  0  0  0  0
 18 20  1  0  0  0  0
 18 29  1  0  0  0  0
 19 21  1  0  0  0  0
 19 29  1  0  0  0  0
 20 32  1  0  0  0  0
 21 32  1  0  0  0  0
 22 27  1  0  0  0  0
 23 30  1  0  0  0  0
 24 28  1  0  0  0  0
 25 27  1  0  0  0  0
  1 33  1  0  0  0  0
  2 34  1  0  0  0  0
  3 35  1  0  0  0  0
  4 36  1  0  0  0  0
  5 37  1  0  0  0  0
  6 38  1  0  0  0  0
  7 39  1  0  0  0  0
  8 40  1  0  0  0  0
  9 41  1  0  0  0  0
 10 42  1  0  0  0  0
 11 43  1  0  0  0  0
 18 44  1  0  0  0  0
 18 45  1  0  0  0  0
 19 46  1  0  0  0  0
 19 47  1  0  0  0  0
 20 48  1  0  0  0  0
 20 49  1  0  0  0  0
 21 50  1  0  0  0  0
 21 51  1  0  0  0  0
 22 52  1  0  0  0  0
 22 53  1  0  0  0  0
 22 54  1  0  0  0  0
 23 55  1  0  0  0  0
 23 56  1  0  0  0  0
 24 57  1  0  0  0  0
 24 58  1  0  0  0  0
M  END
> <clash_score>
0

> <docking_score>
-9.405492782592773

$$$$
BENZO_388_1
  -OEChem-08212023463D

 55 59  0     0  0  0  0  0  0999 V2000
    3.9160    2.0630   19.5520 C   0  0  0  0  0  0  0  0  0  0  0  0
    4.2750    1.7050   20.8490 C   0  0  0  0  0  0  0  0  0  0  0  0
    4.6890    1.6810   18.4640 C   0  0  0  0  0  0  0  0  0  0  0  0
    5.4210    0.9600   21.0930 C   0  0  0  0  0  0  0  0  0  0  0  0
    8.9960   -2.3380   25.5320 C   0  0  0  0  0  0  0  0  0  0  0  0
    9.6730   -3.4710   23.5300 C   0  0  0  0  0  0  0  0  0  0  0  0
    9.0720   -1.1280   24.8640 C   0  0  0  0  0  0  0  0  0  0  0  0
    9.7200   -2.2600   22.8630 C   0  0  0  0  0  0  0  0  0  0  0  0
   12.2913    1.4279   22.6355 C   0  0  0  0  0  0  0  0  0  0  0  0
   13.6024    1.4662   23.0564 C   0  0  0  0  0  0  0  0  0  0  0  0
   12.0284    1.3764   24.9443 C   0  0  0  0  0  0  0  0  0  0  0  0
    7.6390   -0.2680   18.5410 C   0  0  0  0  0  0  0  0  0  0  0  0
   11.3794    1.3761   23.7290 C   0  0  0  0  0  0  0  0  0  0  0  0
    5.8300    0.9190   18.6970 C   0  0  0  0  0  0  0  0  0  0  0  0
    6.1790    0.5730   19.9990 C   0  0  0  0  0  0  0  0  0  0  0  0
    9.3070   -3.5340   24.8780 C   0  0  0  0  0  0  0  0  0  0  0  0
    9.3350   -1.0880   23.5010 C   0  0  0  0  0  0  0  0  0  0  0  0
    9.0420    0.3700   21.5280 C   0  0  0  0  0  0  0  0  0  0  0  0
   10.0771   -5.0255   26.7193 C   0  0  0  0  0  0  0  0  0  0  0  0
    8.0927   -5.6195   25.4071 C   0  0  0  0  0  0  0  0  0  0  0  0
    9.1933   -4.9427   27.9592 C   0  0  0  0  0  0  0  0  0  0  0  0
    7.2756   -5.5290   26.6967 C   0  0  0  0  0  0  0  0  0  0  0  0
    9.8870    1.3260   23.5730 C   0  0  0  0  0  0  0  0  0  0  0  0
    8.1890   -0.7180   20.8700 C   0  0  0  0  0  0  0  0  0  0  0  0
    6.7580    0.3810   17.8350 N   0  0  0  0  0  0  0  0  0  0  0  0
    7.3170   -0.1610   19.8550 N   0  0  0  0  0  0  0  0  0  0  0  0
    9.2563   -4.7368   25.5413 N   0  0  0  0  0  0  0  0  0  0  0  0
    9.4560    0.1560   22.8130 N   0  0  0  0  0  0  0  0  0  0  0  0
    9.2690    1.4140   20.9380 O   0  0  0  0  0  0  0  0  0  0  0  0
    8.0883   -5.8459   27.8325 O   0  0  0  0  0  0  0  0  0  0  0  0
   13.7301    1.4394   24.7638 S   0  0  0  0  0  0  0  0  0  0  0  0
    3.0133    2.6526   19.3911 H   0  0  0  0  0  0  0  0  0  0  0  0
    3.6478    2.0143   21.6818 H   0  0  0  0  0  0  0  0  0  0  0  0
    4.4036    1.9735   17.4543 H   0  0  0  0  0  0  0  0  0  0  0  0
    5.7089    0.6922   22.1131 H   0  0  0  0  0  0  0  0  0  0  0  0
    8.6905   -2.3533   26.5810 H   0  0  0  0  0  0  0  0  0  0  0  0
    9.9266   -4.3896   22.9917 H   0  0  0  0  0  0  0  0  0  0  0  0
    8.9233   -0.1992   25.4232 H   0  0  0  0  0  0  0  0  0  0  0  0
   10.0650   -2.2330   21.8256 H   0  0  0  0  0  0  0  0  0  0  0  0
   12.0045    1.4365   21.5915 H   0  0  0  0  0  0  0  0  0  0  0  0
   14.4914    1.5078   22.4431 H   0  0  0  0  0  0  0  0  0  0  0  0
   11.5886    1.3416   25.9314 H   0  0  0  0  0  0  0  0  0  0  0  0
    8.4865   -0.8061   18.1803 H   0  0  0  0  0  0  0  0  0  0  0  0
   10.8985   -4.3115   26.8085 H   0  0  0  0  0  0  0  0  0  0  0  0
   10.4915   -6.0334   26.6323 H   0  0  0  0  0  0  0  0  0  0  0  0
    8.4327   -6.6456   25.2620 H   0  0  0  0  0  0  0  0  0  0  0  0
    7.4725   -5.3241   24.5619 H   0  0  0  0  0  0  0  0  0  0  0  0
    9.7636   -5.2398   28.8419 H   0  0  0  0  0  0  0  0  0  0  0  0
    8.8236   -3.9268   28.1248 H   0  0  0  0  0  0  0  0  0  0  0  0
    6.8339   -4.5337   26.8232 H   0  0  0  0  0  0  0  0  0  0  0  0
    6.4550   -6.2521   26.6643 H   0  0  0  0  0  0  0  0  0  0  0  0
    9.3974    1.2912   24.5523 H   0  0  0  0  0  0  0  0  0  0  0  0
    9.5159    2.2168   23.0554 H   0  0  0  0  0  0  0  0  0  0  0  0
    8.8326   -1.4554   20.3912 H   0  0  0  0  0  0  0  0  0  0  0  0
    7.5604   -1.1971   21.6201 H   0  0  0  0  0  0  0  0  0  0  0  0
  1  2  1  0  0  0  0
  1  3  2  0  0  0  0
  2  4  2  0  0  0  0
  3 14  1  0  0  0  0
  4 15  1  0  0  0  0
  5  7  2  0  0  0  0
  5 16  1  0  0  0  0
  6  8  1  0  0  0  0
  6 16  2  0  0  0  0
  7 17  1  0  0  0  0
  8 17  2  0  0  0  0
  9 10  2  0  0  0  0
  9 13  1  0  0  0  0
 10 31  1  0  0  0  0
 11 13  2  0  0  0  0
 11 31  1  0  0  0  0
 12 25  2  0  0  0  0
 12 26  1  0  0  0  0
 13 23  1  0  0  0  0
 14 15  2  0  0  0  0
 14 25  1  0  0  0  0
 15 26  1  0  0  0  0
 16 27  1  0  0  0  0
 17 28  1  0  0  0  0
 18 24  1  0  0  0  0
 18 28  1  0  0  0  0
 18 29  2  0  0  0  0
 19 21  1  0  0  0  0
 19 27  1  0  0  0  0
 20 22  1  0  0  0  0
 20 27  1  0  0  0  0
 21 30  1  0  0  0  0
 22 30  1  0  0  0  0
 23 28  1  0  0  0  0
 24 26  1  0  0  0  0
  1 32  1  0  0  0  0
  2 33  1  0  0  0  0
  3 34  1  0  0  0  0
  4 35  1  0  0  0  0
  5 36  1  0  0  0  0
  6 37  1  0  0  0  0
  7 38  1  0  0  0  0
  8 39  1  0  0  0  0
  9 40  1  0  0  0  0
 10 41  1  0  0  0  0
 11 42  1  0  0  0  0
 12 43  1  0  0  0  0
 19 44  1  0  0  0  0
 19 45  1  0  0  0  0
 20 46  1  0  0  0  0
 20 47  1  0  0  0  0
 21 48  1  0  0  0  0
 21 49  1  0  0  0  0
 22 50  1  0  0  0  0
 22 51  1  0  0  0  0
 23 52  1  0  0  0  0
 23 53  1  0  0  0  0
 24 54  1  0  0  0  0
 24 55  1  0  0  0  0
M  END
> <clash_score>
0

> <docking_score>
-9.768207550048828

$$$$
BENZO_390_1
  -OEChem-08212023463D

 58 62  0     0  0  0  0  0  0999 V2000
    3.9160    2.0630   19.5520 C   0  0  0  0  0  0  0  0  0  0  0  0
    4.2750    1.7050   20.8490 C   0  0  0  0  0  0  0  0  0  0  0  0
    6.4089    2.0844   24.8766 C   0  0  0  0  0  0  0  0  0  0  0  0
    7.4847    1.4191   24.2887 C   0  0  0  0  0  0  0  0  0  0  0  0
    4.6890    1.6810   18.4640 C   0  0  0  0  0  0  0  0  0  0  0  0
    5.4210    0.9600   21.0930 C   0  0  0  0  0  0  0  0  0  0  0  0
    8.9960   -2.3380   25.5320 C   0  0  0  0  0  0  0  0  0  0  0  0
    9.6730   -3.4710   23.5300 C   0  0  0  0  0  0  0  0  0  0  0  0
    9.0720   -1.1280   24.8640 C   0  0  0  0  0  0  0  0  0  0  0  0
    9.7200   -2.2600   22.8630 C   0  0  0  0  0  0  0  0  0  0  0  0
    6.5777    3.3741   25.3805 C   0  0  0  0  0  0  0  0  0  0  0  0
    8.8980    3.3330   24.7088 C   0  0  0  0  0  0  0  0  0  0  0  0
    7.6390   -0.2680   18.5410 C   0  0  0  0  0  0  0  0  0  0  0  0
    8.7292    2.0433   24.2048 C   0  0  0  0  0  0  0  0  0  0  0  0
    5.8300    0.9190   18.6970 C   0  0  0  0  0  0  0  0  0  0  0  0
    6.1790    0.5730   19.9990 C   0  0  0  0  0  0  0  0  0  0  0  0
    9.3070   -3.5340   24.8780 C   0  0  0  0  0  0  0  0  0  0  0  0
    9.3350   -1.0880   23.5010 C   0  0  0  0  0  0  0  0  0  0  0  0
    7.8222    3.9984   25.2966 C   0  0  0  0  0  0  0  0  0  0  0  0
    9.0420    0.3700   21.5280 C   0  0  0  0  0  0  0  0  0  0  0  0
    9.5175   -4.8597   26.9771 C   0  0  0  0  0  0  0  0  0  0  0  0
    8.5165   -5.8725   24.9808 C   0  0  0  0  0  0  0  0  0  0  0  0
    8.1868   -5.0439   27.6987 C   0  0  0  0  0  0  0  0  0  0  0  0
    7.2200   -6.0347   25.7755 C   0  0  0  0  0  0  0  0  0  0  0  0
    9.8870    1.3260   23.5730 C   0  0  0  0  0  0  0  0  0  0  0  0
    8.1890   -0.7180   20.8700 C   0  0  0  0  0  0  0  0  0  0  0  0
    6.7580    0.3810   17.8350 N   0  0  0  0  0  0  0  0  0  0  0  0
    7.3170   -0.1610   19.8550 N   0  0  0  0  0  0  0  0  0  0  0  0
    9.2563   -4.7368   25.5413 N   0  0  0  0  0  0  0  0  0  0  0  0
    9.4560    0.1560   22.8130 N   0  0  0  0  0  0  0  0  0  0  0  0
    9.2690    1.4140   20.9380 O   0  0  0  0  0  0  0  0  0  0  0  0
    7.4994   -6.1853   27.1719 O   0  0  0  0  0  0  0  0  0  0  0  0
    8.0301    5.5891   25.9196 Cl  0  0  0  0  0  0  0  0  0  0  0  0
    3.0133    2.6526   19.3911 H   0  0  0  0  0  0  0  0  0  0  0  0
    3.6478    2.0143   21.6818 H   0  0  0  0  0  0  0  0  0  0  0  0
    5.4400    1.5979   24.9418 H   0  0  0  0  0  0  0  0  0  0  0  0
    7.3441    0.4143   23.8988 H   0  0  0  0  0  0  0  0  0  0  0  0
    4.4036    1.9735   17.4543 H   0  0  0  0  0  0  0  0  0  0  0  0
    5.7089    0.6922   22.1131 H   0  0  0  0  0  0  0  0  0  0  0  0
    8.6905   -2.3533   26.5810 H   0  0  0  0  0  0  0  0  0  0  0  0
    9.9266   -4.3896   22.9917 H   0  0  0  0  0  0  0  0  0  0  0  0
    8.9233   -0.1992   25.4232 H   0  0  0  0  0  0  0  0  0  0  0  0
   10.0650   -2.2330   21.8256 H   0  0  0  0  0  0  0  0  0  0  0  0
    5.7304    3.8806   25.8363 H   0  0  0  0  0  0  0  0  0  0  0  0
    9.8703    3.8156   24.6405 H   0  0  0  0  0  0  0  0  0  0  0  0
    8.4865   -0.8061   18.1803 H   0  0  0  0  0  0  0  0  0  0  0  0
   10.0205   -3.9698   27.3609 H   0  0  0  0  0  0  0  0  0  0  0  0
   10.1535   -5.7310   27.1549 H   0  0  0  0  0  0  0  0  0  0  0  0
    9.1181   -6.7773   25.0755 H   0  0  0  0  0  0  0  0  0  0  0  0
    8.2812   -5.7064   23.9305 H   0  0  0  0  0  0  0  0  0  0  0  0
    8.3629   -5.2252   28.7611 H   0  0  0  0  0  0  0  0  0  0  0  0
    7.5530   -4.1570   27.6103 H   0  0  0  0  0  0  0  0  0  0  0  0
    6.5459   -5.1839   25.6221 H   0  0  0  0  0  0  0  0  0  0  0  0
    6.6948   -6.9354   25.4436 H   0  0  0  0  0  0  0  0  0  0  0  0
   10.4274    1.9911   22.8906 H   0  0  0  0  0  0  0  0  0  0  0  0
   10.6011    0.9882   24.3313 H   0  0  0  0  0  0  0  0  0  0  0  0
    8.8326   -1.4554   20.3912 H   0  0  0  0  0  0  0  0  0  0  0  0
    7.5604   -1.1971   21.6201 H   0  0  0  0  0  0  0  0  0  0  0  0
  1  2  1  0  0  0  0
  1  5  2  0  0  0  0
  2  6  2  0  0  0  0
  3  4  2  0  0  0  0
  3 11  1  0  0  0  0
  4 14  1  0  0  0  0
  5 15  1  0  0  0  0
  6 16  1  0  0  0  0
  7  9  2  0  0  0  0
  7 17  1  0  0  0  0
  8 10  1  0  0  0  0
  8 17  2  0  0  0  0
  9 18  1  0  0  0  0
 10 18  2  0  0  0  0
 11 19  2  0  0  0  0
 12 14  2  0  0  0  0
 12 19  1  0  0  0  0
 13 27  2  0  0  0  0
 13 28  1  0  0  0  0
 14 25  1  0  0  0  0
 15 16  2  0  0  0  0
 15 27  1  0  0  0  0
 16 28  1  0  0  0  0
 17 29  1  0  0  0  0
 18 30  1  0  0  0  0
 19 33  1  0  0  0  0
 20 26  1  0  0  0  0
 20 30  1  0  0  0  0
 20 31  2  0  0  0  0
 21 23  1  0  0  0  0
 21 29  1  0  0  0  0
 22 24  1  0  0  0  0
 22 29  1  0  0  0  0
 23 32  1  0  0  0  0
 24 32  1  0  0  0  0
 25 30  1  0  0  0  0
 26 28  1  0  0  0  0
  1 34  1  0  0  0  0
  2 35  1  0  0  0  0
  3 36  1  0  0  0  0
  4 37  1  0  0  0  0
  5 38  1  0  0  0  0
  6 39  1  0  0  0  0
  7 40  1  0  0  0  0
  8 41  1  0  0  0  0
  9 42  1  0  0  0  0
 10 43  1  0  0  0  0
 11 44  1  0  0  0  0
 12 45  1  0  0  0  0
 13 46  1  0  0  0  0
 21 47  1  0  0  0  0
 21 48  1  0  0  0  0
 22 49  1  0  0  0  0
 22 50  1  0  0  0  0
 23 51  1  0  0  0  0
 23 52  1  0  0  0  0
 24 53  1  0  0  0  0
 24 54  1  0  0  0  0
 25 55  1  0  0  0  0
 25 56  1  0  0  0  0
 26 57  1  0  0  0  0
 26 58  1  0  0  0  0
M  END
> <clash_score>
0

> <docking_score>
-9.037484169006348

$$$$
BENZO_392_1
  -OEChem-08212023503D

 50 53  0     0  0  0  0  0  0999 V2000
    4.2750    1.7050   20.8490 C   0  0  0  0  0  0  0  0  0  0  0  0
    3.9160    2.0630   19.5520 C   0  0  0  0  0  0  0  0  0  0  0  0
    5.4210    0.9600   21.0930 C   0  0  0  0  0  0  0  0  0  0  0  0
    4.6890    1.6810   18.4640 C   0  0  0  0  0  0  0  0  0  0  0  0
    9.0720   -1.1280   24.8640 C   0  0  0  0  0  0  0  0  0  0  0  0
    9.7200   -2.2600   22.8630 C   0  0  0  0  0  0  0  0  0  0  0  0
    8.9960   -2.3380   25.5320 C   0  0  0  0  0  0  0  0  0  0  0  0
    9.6730   -3.4710   23.5300 C   0  0  0  0  0  0  0  0  0  0  0  0
   12.2913    1.4279   22.6355 C   0  0  0  0  0  0  0  0  0  0  0  0
   13.6024    1.4662   23.0564 C   0  0  0  0  0  0  0  0  0  0  0  0
   12.0284    1.3764   24.9443 C   0  0  0  0  0  0  0  0  0  0  0  0
    6.1790    0.5730   19.9990 C   0  0  0  0  0  0  0  0  0  0  0  0
   11.3794    1.3761   23.7290 C   0  0  0  0  0  0  0  0  0  0  0  0
    5.8300    0.9190   18.6970 C   0  0  0  0  0  0  0  0  0  0  0  0
    9.3350   -1.0880   23.5010 C   0  0  0  0  0  0  0  0  0  0  0  0
    9.3070   -3.5340   24.8780 C   0  0  0  0  0  0  0  0  0  0  0  0
    7.3170   -0.1610   19.8550 C   0  0  0  0  0  0  0  0  0  0  0  0
    9.0420    0.3700   21.5280 C   0  0  0  0  0  0  0  0  0  0  0  0
    8.0128   -5.2151   26.1416 C   0  0  0  0  0  0  0  0  0  0  0  0
   10.4372   -5.5860   25.6589 C   0  0  0  0  0  0  0  0  0  0  0  0
    9.8870    1.3260   23.5730 C   0  0  0  0  0  0  0  0  0  0  0  0
    8.1890   -0.7180   20.8700 C   0  0  0  0  0  0  0  0  0  0  0  0
    6.7580    0.3810   17.8350 N   0  0  0  0  0  0  0  0  0  0  0  0
    7.6390   -0.2680   18.5410 N   0  0  0  0  0  0  0  0  0  0  0  0
    9.4560    0.1560   22.8130 N   0  0  0  0  0  0  0  0  0  0  0  0
    9.2543   -4.7552   25.5519 N   0  0  0  0  0  0  0  0  0  0  0  0
    9.2690    1.4140   20.9380 O   0  0  0  0  0  0  0  0  0  0  0  0
   13.7301    1.4394   24.7638 S   0  0  0  0  0  0  0  0  0  0  0  0
    3.6562    2.0083   21.6780 H   0  0  0  0  0  0  0  0  0  0  0  0
    3.0225    2.6465   19.3867 H   0  0  0  0  0  0  0  0  0  0  0  0
    5.7084    0.6884   22.1515 H   0  0  0  0  0  0  0  0  0  0  0  0
    4.3943    1.9831   17.4240 H   0  0  0  0  0  0  0  0  0  0  0  0
    8.9217   -0.1995   25.4232 H   0  0  0  0  0  0  0  0  0  0  0  0
   10.0643   -2.2341   21.8254 H   0  0  0  0  0  0  0  0  0  0  0  0
    8.6893   -2.3540   26.5808 H   0  0  0  0  0  0  0  0  0  0  0  0
    9.9257   -4.3898   22.9921 H   0  0  0  0  0  0  0  0  0  0  0  0
   12.0045    1.4365   21.5915 H   0  0  0  0  0  0  0  0  0  0  0  0
   14.4914    1.5078   22.4431 H   0  0  0  0  0  0  0  0  0  0  0  0
   11.5886    1.3416   25.9314 H   0  0  0  0  0  0  0  0  0  0  0  0
    8.1744   -6.1904   26.6238 H   0  0  0  0  0  0  0  0  0  0  0  0
    7.6718   -4.4870   26.8924 H   0  0  0  0  0  0  0  0  0  0  0  0
    7.2494   -5.3166   25.3561 H   0  0  0  0  0  0  0  0  0  0  0  0
   10.1946   -6.4996   26.2216 H   0  0  0  0  0  0  0  0  0  0  0  0
   10.7865   -5.8578   24.6518 H   0  0  0  0  0  0  0  0  0  0  0  0
   11.2285   -5.0312   26.1842 H   0  0  0  0  0  0  0  0  0  0  0  0
    9.3974    1.2912   24.5523 H   0  0  0  0  0  0  0  0  0  0  0  0
    9.5159    2.2168   23.0553 H   0  0  0  0  0  0  0  0  0  0  0  0
    7.6090   -1.2088   21.6628 H   0  0  0  0  0  0  0  0  0  0  0  0
    8.8730   -1.4654   20.4463 H   0  0  0  0  0  0  0  0  0  0  0  0
    8.3933   -0.7388   18.1198 H   0  0  0  0  0  0  0  0  0  0  0  0
  1  2  1  0  0  0  0
  1  3  2  0  0  0  0
  2  4  2  0  0  0  0
  3 12  1  0  0  0  0
  4 14  1  0  0  0  0
  5  7  2  0  0  0  0
  5 15  1  0  0  0  0
  6  8  1  0  0  0  0
  6 15  2  0  0  0  0
  7 16  1  0  0  0  0
  8 16  2  0  0  0  0
  9 10  2  0  0  0  0
  9 13  1  0  0  0  0
 10 28  1  0  0  0  0
 11 13  2  0  0  0  0
 11 28  1  0  0  0  0
 12 14  1  0  0  0  0
 12 17  2  0  0  0  0
 13 21  1  0  0  0  0
 14 23  2  0  0  0  0
 15 25  1  0  0  0  0
 16 26  1  0  0  0  0
 17 22  1  0  0  0  0
 17 24  1  0  0  0  0
 18 22  1  0  0  0  0
 18 25  1  0  0  0  0
 18 27  2  0  0  0  0
 19 26  1  0  0  0  0
 20 26  1  0  0  0  0
 21 25  1  0  0  0  0
 23 24  1  0  0  0  0
  1 29  1  0  0  0  0
  2 30  1  0  0  0  0
  3 31  1  0  0  0  0
  4 32  1  0  0  0  0
  5 33  1  0  0  0  0
  6 34  1  0  0  0  0
  7 35  1  0  0  0  0
  8 36  1  0  0  0  0
  9 37  1  0  0  0  0
 10 38  1  0  0  0  0
 11 39  1  0  0  0  0
 19 40  1  0  0  0  0
 19 41  1  0  0  0  0
 19 42  1  0  0  0  0
 20 43  1  0  0  0  0
 20 44  1  0  0  0  0
 20 45  1  0  0  0  0
 21 46  1  0  0  0  0
 21 47  1  0  0  0  0
 22 48  1  0  0  0  0
 22 49  1  0  0  0  0
 24 50  1  0  0  0  0
M  END
> <clash_score>
0

> <docking_score>
-9.765787124633789

$$$$
BENZO_393_1
  -OEChem-08212023503D

 53 56  0     0  0  0  0  0  0999 V2000
   14.1526    1.4694   24.0176 C   0  0  0  0  0  0  0  0  0  0  0  0
    4.2750    1.7050   20.8490 C   0  0  0  0  0  0  0  0  0  0  0  0
   13.3741    0.8121   24.9701 C   0  0  0  0  0  0  0  0  0  0  0  0
   13.5446    2.0802   22.9208 C   0  0  0  0  0  0  0  0  0  0  0  0
    3.9160    2.0630   19.5520 C   0  0  0  0  0  0  0  0  0  0  0  0
    5.4210    0.9600   21.0930 C   0  0  0  0  0  0  0  0  0  0  0  0
   11.9875    0.7654   24.8258 C   0  0  0  0  0  0  0  0  0  0  0  0
   12.1580    2.0335   22.7765 C   0  0  0  0  0  0  0  0  0  0  0  0
    4.6890    1.6810   18.4640 C   0  0  0  0  0  0  0  0  0  0  0  0
    9.0720   -1.1280   24.8640 C   0  0  0  0  0  0  0  0  0  0  0  0
    9.7200   -2.2600   22.8630 C   0  0  0  0  0  0  0  0  0  0  0  0
    8.9960   -2.3380   25.5320 C   0  0  0  0  0  0  0  0  0  0  0  0
    9.6730   -3.4710   23.5300 C   0  0  0  0  0  0  0  0  0  0  0  0
    6.1790    0.5730   19.9990 C   0  0  0  0  0  0  0  0  0  0  0  0
   11.3794    1.3761   23.7290 C   0  0  0  0  0  0  0  0  0  0  0  0
    5.8300    0.9190   18.6970 C   0  0  0  0  0  0  0  0  0  0  0  0
    9.3350   -1.0880   23.5010 C   0  0  0  0  0  0  0  0  0  0  0  0
    9.3070   -3.5340   24.8780 C   0  0  0  0  0  0  0  0  0  0  0  0
    7.3170   -0.1610   19.8550 C   0  0  0  0  0  0  0  0  0  0  0  0
    9.0420    0.3700   21.5280 C   0  0  0  0  0  0  0  0  0  0  0  0
    8.0128   -5.2151   26.1416 C   0  0  0  0  0  0  0  0  0  0  0  0
   10.4372   -5.5860   25.6589 C   0  0  0  0  0  0  0  0  0  0  0  0
    9.8870    1.3260   23.5730 C   0  0  0  0  0  0  0  0  0  0  0  0
    8.1890   -0.7180   20.8700 C   0  0  0  0  0  0  0  0  0  0  0  0
    6.7580    0.3810   17.8350 N   0  0  0  0  0  0  0  0  0  0  0  0
    7.6390   -0.2680   18.5410 N   0  0  0  0  0  0  0  0  0  0  0  0
    9.4560    0.1560   22.8130 N   0  0  0  0  0  0  0  0  0  0  0  0
    9.2543   -4.7552   25.5519 N   0  0  0  0  0  0  0  0  0  0  0  0
    9.2690    1.4140   20.9380 O   0  0  0  0  0  0  0  0  0  0  0  0
   15.2322    1.5068   24.1308 H   0  0  0  0  0  0  0  0  0  0  0  0
    3.6562    2.0083   21.6780 H   0  0  0  0  0  0  0  0  0  0  0  0
   13.8473    0.3374   25.8248 H   0  0  0  0  0  0  0  0  0  0  0  0
   14.1503    2.5930   22.1795 H   0  0  0  0  0  0  0  0  0  0  0  0
    3.0225    2.6465   19.3867 H   0  0  0  0  0  0  0  0  0  0  0  0
    5.7084    0.6884   22.1515 H   0  0  0  0  0  0  0  0  0  0  0  0
   11.3889    0.2508   25.5729 H   0  0  0  0  0  0  0  0  0  0  0  0
   11.6930    2.5120   21.9187 H   0  0  0  0  0  0  0  0  0  0  0  0
    4.3943    1.9831   17.4240 H   0  0  0  0  0  0  0  0  0  0  0  0
    8.9217   -0.1995   25.4232 H   0  0  0  0  0  0  0  0  0  0  0  0
   10.0643   -2.2341   21.8254 H   0  0  0  0  0  0  0  0  0  0  0  0
    8.6893   -2.3540   26.5808 H   0  0  0  0  0  0  0  0  0  0  0  0
    9.9257   -4.3898   22.9921 H   0  0  0  0  0  0  0  0  0  0  0  0
    8.1744   -6.1904   26.6238 H   0  0  0  0  0  0  0  0  0  0  0  0
    7.6718   -4.4870   26.8924 H   0  0  0  0  0  0  0  0  0  0  0  0
    7.2494   -5.3166   25.3561 H   0  0  0  0  0  0  0  0  0  0  0  0
   10.1946   -6.4996   26.2216 H   0  0  0  0  0  0  0  0  0  0  0  0
   10.7865   -5.8578   24.6518 H   0  0  0  0  0  0  0  0  0  0  0  0
   11.2285   -5.0312   26.1842 H   0  0  0  0  0  0  0  0  0  0  0  0
    9.3974    1.2912   24.5523 H   0  0  0  0  0  0  0  0  0  0  0  0
    9.5159    2.2168   23.0553 H   0  0  0  0  0  0  0  0  0  0  0  0
    7.6090   -1.2088   21.6628 H   0  0  0  0  0  0  0  0  0  0  0  0
    8.8730   -1.4654   20.4463 H   0  0  0  0  0  0  0  0  0  0  0  0
    8.3933   -0.7388   18.1198 H   0  0  0  0  0  0  0  0  0  0  0  0
  1  3  1  0  0  0  0
  1  4  2  0  0  0  0
  2  5  1  0  0  0  0
  2  6  2  0  0  0  0
  3  7  2  0  0  0  0
  4  8  1  0  0  0  0
  5  9  2  0  0  0  0
  6 14  1  0  0  0  0
  7 15  1  0  0  0  0
  8 15  2  0  0  0  0
  9 16  1  0  0  0  0
 10 12  2  0  0  0  0
 10 17  1  0  0  0  0
 11 13  1  0  0  0  0
 11 17  2  0  0  0  0
 12 18  1  0  0  0  0
 13 18  2  0  0  0  0
 14 16  1  0  0  0  0
 14 19  2  0  0  0  0
 15 23  1  0  0  0  0
 16 25  2  0  0  0  0
 17 27  1  0  0  0  0
 18 28  1  0  0  0  0
 19 24  1  0  0  0  0
 19 26  1  0  0  0  0
 20 24  1  0  0  0  0
 20 27  1  0  0  0  0
 20 29  2  0  0  0  0
 21 28  1  0  0  0  0
 22 28  1  0  0  0  0
 23 27  1  0  0  0  0
 25 26  1  0  0  0  0
  1 30  1  0  0  0  0
  2 31  1  0  0  0  0
  3 32  1  0  0  0  0
  4 33  1  0  0  0  0
  5 34  1  0  0  0  0
  6 35  1  0  0  0  0
  7 36  1  0  0  0  0
  8 37  1  0  0  0  0
  9 38  1  0  0  0  0
 10 39  1  0  0  0  0
 11 40  1  0  0  0  0
 12 41  1  0  0  0  0
 13 42  1  0  0  0  0
 21 43  1  0  0  0  0
 21 44  1  0  0  0  0
 21 45  1  0  0  0  0
 22 46  1  0  0  0  0
 22 47  1  0  0  0  0
 22 48  1  0  0  0  0
 23 49  1  0  0  0  0
 23 50  1  0  0  0  0
 24 51  1  0  0  0  0
 24 52  1  0  0  0  0
 26 53  1  0  0  0  0
M  END
> <clash_score>
0

> <docking_score>
-9.68692684173584

$$$$
BENZO_394_1
  -OEChem-08212023503D

 53 56  0     0  0  0  0  0  0999 V2000
    4.2750    1.7050   20.8490 C   0  0  0  0  0  0  0  0  0  0  0  0
    3.9160    2.0630   19.5520 C   0  0  0  0  0  0  0  0  0  0  0  0
    6.4089    2.0844   24.8766 C   0  0  0  0  0  0  0  0  0  0  0  0
    5.4210    0.9600   21.0930 C   0  0  0  0  0  0  0  0  0  0  0  0
    7.4847    1.4191   24.2887 C   0  0  0  0  0  0  0  0  0  0  0  0
    4.6890    1.6810   18.4640 C   0  0  0  0  0  0  0  0  0  0  0  0
    9.0720   -1.1280   24.8640 C   0  0  0  0  0  0  0  0  0  0  0  0
    9.7200   -2.2600   22.8630 C   0  0  0  0  0  0  0  0  0  0  0  0
    8.9960   -2.3380   25.5320 C   0  0  0  0  0  0  0  0  0  0  0  0
    9.6730   -3.4710   23.5300 C   0  0  0  0  0  0  0  0  0  0  0  0
    6.5777    3.3741   25.3805 C   0  0  0  0  0  0  0  0  0  0  0  0
    8.8980    3.3330   24.7088 C   0  0  0  0  0  0  0  0  0  0  0  0
    6.1790    0.5730   19.9990 C   0  0  0  0  0  0  0  0  0  0  0  0
    8.7292    2.0433   24.2048 C   0  0  0  0  0  0  0  0  0  0  0  0
    5.8300    0.9190   18.6970 C   0  0  0  0  0  0  0  0  0  0  0  0
    9.3350   -1.0880   23.5010 C   0  0  0  0  0  0  0  0  0  0  0  0
    9.3070   -3.5340   24.8780 C   0  0  0  0  0  0  0  0  0  0  0  0
    7.8222    3.9984   25.2966 C   0  0  0  0  0  0  0  0  0  0  0  0
    7.3170   -0.1610   19.8550 C   0  0  0  0  0  0  0  0  0  0  0  0
    9.0420    0.3700   21.5280 C   0  0  0  0  0  0  0  0  0  0  0  0
    8.0128   -5.2151   26.1416 C   0  0  0  0  0  0  0  0  0  0  0  0
   10.4372   -5.5860   25.6589 C   0  0  0  0  0  0  0  0  0  0  0  0
    9.8870    1.3260   23.5730 C   0  0  0  0  0  0  0  0  0  0  0  0
    8.1890   -0.7180   20.8700 C   0  0  0  0  0  0  0  0  0  0  0  0
    6.7580    0.3810   17.8350 N   0  0  0  0  0  0  0  0  0  0  0  0
    7.6390   -0.2680   18.5410 N   0  0  0  0  0  0  0  0  0  0  0  0
    9.4560    0.1560   22.8130 N   0  0  0  0  0  0  0  0  0  0  0  0
    9.2543   -4.7552   25.5519 N   0  0  0  0  0  0  0  0  0  0  0  0
    9.2690    1.4140   20.9380 O   0  0  0  0  0  0  0  0  0  0  0  0
    8.0301    5.5891   25.9196 Cl  0  0  0  0  0  0  0  0  0  0  0  0
    3.6562    2.0083   21.6780 H   0  0  0  0  0  0  0  0  0  0  0  0
    3.0225    2.6465   19.3867 H   0  0  0  0  0  0  0  0  0  0  0  0
    5.4400    1.5979   24.9418 H   0  0  0  0  0  0  0  0  0  0  0  0
    5.7084    0.6884   22.1515 H   0  0  0  0  0  0  0  0  0  0  0  0
    7.3441    0.4143   23.8988 H   0  0  0  0  0  0  0  0  0  0  0  0
    4.3943    1.9831   17.4240 H   0  0  0  0  0  0  0  0  0  0  0  0
    8.9217   -0.1995   25.4232 H   0  0  0  0  0  0  0  0  0  0  0  0
   10.0643   -2.2341   21.8254 H   0  0  0  0  0  0  0  0  0  0  0  0
    8.6893   -2.3540   26.5808 H   0  0  0  0  0  0  0  0  0  0  0  0
    9.9257   -4.3898   22.9921 H   0  0  0  0  0  0  0  0  0  0  0  0
    5.7304    3.8806   25.8363 H   0  0  0  0  0  0  0  0  0  0  0  0
    9.8703    3.8156   24.6405 H   0  0  0  0  0  0  0  0  0  0  0  0
    8.1744   -6.1904   26.6238 H   0  0  0  0  0  0  0  0  0  0  0  0
    7.6718   -4.4870   26.8924 H   0  0  0  0  0  0  0  0  0  0  0  0
    7.2494   -5.3166   25.3561 H   0  0  0  0  0  0  0  0  0  0  0  0
   10.1946   -6.4996   26.2216 H   0  0  0  0  0  0  0  0  0  0  0  0
   10.7865   -5.8578   24.6518 H   0  0  0  0  0  0  0  0  0  0  0  0
   11.2285   -5.0312   26.1842 H   0  0  0  0  0  0  0  0  0  0  0  0
   10.4274    1.9911   22.8906 H   0  0  0  0  0  0  0  0  0  0  0  0
   10.6011    0.9882   24.3313 H   0  0  0  0  0  0  0  0  0  0  0  0
    7.6090   -1.2088   21.6628 H   0  0  0  0  0  0  0  0  0  0  0  0
    8.8730   -1.4654   20.4463 H   0  0  0  0  0  0  0  0  0  0  0  0
    8.3933   -0.7388   18.1198 H   0  0  0  0  0  0  0  0  0  0  0  0
  1  2  1  0  0  0  0
  1  4  2  0  0  0  0
  2  6  2  0  0  0  0
  3  5  2  0  0  0  0
  3 11  1  0  0  0  0
  4 13  1  0  0  0  0
  5 14  1  0  0  0  0
  6 15  1  0  0  0  0
  7  9  2  0  0  0  0
  7 16  1  0  0  0  0
  8 10  1  0  0  0  0
  8 16  2  0  0  0  0
  9 17  1  0  0  0  0
 10 17  2  0  0  0  0
 11 18  2  0  0  0  0
 12 14  2  0  0  0  0
 12 18  1  0  0  0  0
 13 15  1  0  0  0  0
 13 19  2  0  0  0  0
 14 23  1  0  0  0  0
 15 25  2  0  0  0  0
 16 27  1  0  0  0  0
 17 28  1  0  0  0  0
 18 30  1  0  0  0  0
 19 24  1  0  0  0  0
 19 26  1  0  0  0  0
 20 24  1  0  0  0  0
 20 27  1  0  0  0  0
 20 29  2  0  0  0  0
 21 28  1  0  0  0  0
 22 28  1  0  0  0  0
 23 27  1  0  0  0  0
 25 26  1  0  0  0  0
  1 31  1  0  0  0  0
  2 32  1  0  0  0  0
  3 33  1  0  0  0  0
  4 34  1  0  0  0  0
  5 35  1  0  0  0  0
  6 36  1  0  0  0  0
  7 37  1  0  0  0  0
  8 38  1  0  0  0  0
  9 39  1  0  0  0  0
 10 40  1  0  0  0  0
 11 41  1  0  0  0  0
 12 42  1  0  0  0  0
 21 43  1  0  0  0  0
 21 44  1  0  0  0  0
 21 45  1  0  0  0  0
 22 46  1  0  0  0  0
 22 47  1  0  0  0  0
 22 48  1  0  0  0  0
 23 49  1  0  0  0  0
 23 50  1  0  0  0  0
 24 51  1  0  0  0  0
 24 52  1  0  0  0  0
 26 53  1  0  0  0  0
M  END
> <clash_score>
0

> <docking_score>
-9.072956085205078

$$$$
BENZO_395_1
  -OEChem-08212023503D

 53 56  0     0  0  0  0  0  0999 V2000
    4.2750    1.7050   20.8490 C   0  0  0  0  0  0  0  0  0  0  0  0
    3.9160    2.0630   19.5520 C   0  0  0  0  0  0  0  0  0  0  0  0
    5.4210    0.9600   21.0930 C   0  0  0  0  0  0  0  0  0  0  0  0
    4.6890    1.6810   18.4640 C   0  0  0  0  0  0  0  0  0  0  0  0
    9.0720   -1.1280   24.8640 C   0  0  0  0  0  0  0  0  0  0  0  0
    9.7200   -2.2600   22.8630 C   0  0  0  0  0  0  0  0  0  0  0  0
    8.9960   -2.3380   25.5320 C   0  0  0  0  0  0  0  0  0  0  0  0
    9.6730   -3.4710   23.5300 C   0  0  0  0  0  0  0  0  0  0  0  0
   12.1233    1.3811   24.9242 C   0  0  0  0  0  0  0  0  0  0  0  0
   12.3261    1.4247   22.7351 C   0  0  0  0  0  0  0  0  0  0  0  0
    6.1790    0.5730   19.9990 C   0  0  0  0  0  0  0  0  0  0  0  0
   11.3794    1.3761   23.7290 C   0  0  0  0  0  0  0  0  0  0  0  0
    5.8300    0.9190   18.6970 C   0  0  0  0  0  0  0  0  0  0  0  0
    9.3350   -1.0880   23.5010 C   0  0  0  0  0  0  0  0  0  0  0  0
    9.3070   -3.5340   24.8780 C   0  0  0  0  0  0  0  0  0  0  0  0
    7.3170   -0.1610   19.8550 C   0  0  0  0  0  0  0  0  0  0  0  0
    9.0420    0.3700   21.5280 C   0  0  0  0  0  0  0  0  0  0  0  0
   14.8305    1.5084   22.7418 C   0  0  0  0  0  0  0  0  0  0  0  0
    8.0128   -5.2151   26.1416 C   0  0  0  0  0  0  0  0  0  0  0  0
   10.4372   -5.5860   25.6589 C   0  0  0  0  0  0  0  0  0  0  0  0
    9.8870    1.3260   23.5730 C   0  0  0  0  0  0  0  0  0  0  0  0
    8.1890   -0.7180   20.8700 C   0  0  0  0  0  0  0  0  0  0  0  0
   13.4410    1.4289   24.7112 N   0  0  0  0  0  0  0  0  0  0  0  0
    6.7580    0.3810   17.8350 N   0  0  0  0  0  0  0  0  0  0  0  0
    7.6390   -0.2680   18.5410 N   0  0  0  0  0  0  0  0  0  0  0  0
   13.5326    1.4543   23.3706 N   0  0  0  0  0  0  0  0  0  0  0  0
    9.4560    0.1560   22.8130 N   0  0  0  0  0  0  0  0  0  0  0  0
    9.2543   -4.7552   25.5519 N   0  0  0  0  0  0  0  0  0  0  0  0
    9.2690    1.4140   20.9380 O   0  0  0  0  0  0  0  0  0  0  0  0
    3.6562    2.0083   21.6780 H   0  0  0  0  0  0  0  0  0  0  0  0
    3.0225    2.6465   19.3867 H   0  0  0  0  0  0  0  0  0  0  0  0
    5.7084    0.6884   22.1515 H   0  0  0  0  0  0  0  0  0  0  0  0
    4.3943    1.9831   17.4240 H   0  0  0  0  0  0  0  0  0  0  0  0
    8.9217   -0.1995   25.4232 H   0  0  0  0  0  0  0  0  0  0  0  0
   10.0643   -2.2341   21.8254 H   0  0  0  0  0  0  0  0  0  0  0  0
    8.6893   -2.3540   26.5808 H   0  0  0  0  0  0  0  0  0  0  0  0
    9.9257   -4.3898   22.9921 H   0  0  0  0  0  0  0  0  0  0  0  0
   11.7624    1.3510   25.9426 H   0  0  0  0  0  0  0  0  0  0  0  0
   12.2462    1.4390   21.6566 H   0  0  0  0  0  0  0  0  0  0  0  0
   15.0990    2.5601   22.6124 H   0  0  0  0  0  0  0  0  0  0  0  0
   15.5636    1.0018   23.3756 H   0  0  0  0  0  0  0  0  0  0  0  0
   14.7841    1.0025   21.7733 H   0  0  0  0  0  0  0  0  0  0  0  0
    8.1744   -6.1904   26.6238 H   0  0  0  0  0  0  0  0  0  0  0  0
    7.6718   -4.4870   26.8924 H   0  0  0  0  0  0  0  0  0  0  0  0
    7.2494   -5.3166   25.3561 H   0  0  0  0  0  0  0  0  0  0  0  0
   10.1946   -6.4996   26.2216 H   0  0  0  0  0  0  0  0  0  0  0  0
   10.7865   -5.8578   24.6518 H   0  0  0  0  0  0  0  0  0  0  0  0
   11.2285   -5.0312   26.1842 H   0  0  0  0  0  0  0  0  0  0  0  0
    9.3974    1.2912   24.5523 H   0  0  0  0  0  0  0  0  0  0  0  0
    9.5159    2.2168   23.0553 H   0  0  0  0  0  0  0  0  0  0  0  0
    7.6090   -1.2088   21.6628 H   0  0  0  0  0  0  0  0  0  0  0  0
    8.8730   -1.4654   20.4463 H   0  0  0  0  0  0  0  0  0  0  0  0
    8.3933   -0.7388   18.1198 H   0  0  0  0  0  0  0  0  0  0  0  0
  1  2  1  0  0  0  0
  1  3  2  0  0  0  0
  2  4  2  0  0  0  0
  3 11  1  0  0  0  0
  4 13  1  0  0  0  0
  5  7  2  0  0  0  0
  5 14  1  0  0  0  0
  6  8  1  0  0  0  0
  6 14  2  0  0  0  0
  7 15  1  0  0  0  0
  8 15  2  0  0  0  0
  9 12  1  0  0  0  0
  9 23  2  0  0  0  0
 10 12  2  0  0  0  0
 10 26  1  0  0  0  0
 11 13  1  0  0  0  0
 11 16  2  0  0  0  0
 12 21  1  0  0  0  0
 13 24  2  0  0  0  0
 14 27  1  0  0  0  0
 15 28  1  0  0  0  0
 16 22  1  0  0  0  0
 16 25  1  0  0  0  0
 17 22  1  0  0  0  0
 17 27  1  0  0  0  0
 17 29  2  0  0  0  0
 18 26  1  0  0  0  0
 19 28  1  0  0  0  0
 20 28  1  0  0  0  0
 21 27  1  0  0  0  0
 23 26  1  0  0  0  0
 24 25  1  0  0  0  0
  1 30  1  0  0  0  0
  2 31  1  0  0  0  0
  3 32  1  0  0  0  0
  4 33  1  0  0  0  0
  5 34  1  0  0  0  0
  6 35  1  0  0  0  0
  7 36  1  0  0  0  0
  8 37  1  0  0  0  0
  9 38  1  0  0  0  0
 10 39  1  0  0  0  0
 18 40  1  0  0  0  0
 18 41  1  0  0  0  0
 18 42  1  0  0  0  0
 19 43  1  0  0  0  0
 19 44  1  0  0  0  0
 19 45  1  0  0  0  0
 20 46  1  0  0  0  0
 20 47  1  0  0  0  0
 20 48  1  0  0  0  0
 21 49  1  0  0  0  0
 21 50  1  0  0  0  0
 22 51  1  0  0  0  0
 22 52  1  0  0  0  0
 25 53  1  0  0  0  0
M  END
> <clash_score>
0

> <docking_score>
-9.403057098388672

$$$$
BENZO_397_1
  -OEChem-08212023503D

 55 58  0     0  0  0  0  0  0999 V2000
   14.1526    1.4694   24.0176 C   0  0  0  0  0  0  0  0  0  0  0  0
    4.2750    1.7050   20.8490 C   0  0  0  0  0  0  0  0  0  0  0  0
   13.3741    0.8121   24.9701 C   0  0  0  0  0  0  0  0  0  0  0  0
   13.5446    2.0802   22.9208 C   0  0  0  0  0  0  0  0  0  0  0  0
    3.9160    2.0630   19.5520 C   0  0  0  0  0  0  0  0  0  0  0  0
    5.4210    0.9600   21.0930 C   0  0  0  0  0  0  0  0  0  0  0  0
   11.9875    0.7654   24.8258 C   0  0  0  0  0  0  0  0  0  0  0  0
   12.1580    2.0335   22.7765 C   0  0  0  0  0  0  0  0  0  0  0  0
    4.6890    1.6810   18.4640 C   0  0  0  0  0  0  0  0  0  0  0  0
    8.9960   -2.3380   25.5320 C   0  0  0  0  0  0  0  0  0  0  0  0
    9.6730   -3.4710   23.5300 C   0  0  0  0  0  0  0  0  0  0  0  0
    9.0720   -1.1280   24.8640 C   0  0  0  0  0  0  0  0  0  0  0  0
    9.7200   -2.2600   22.8630 C   0  0  0  0  0  0  0  0  0  0  0  0
    6.1790    0.5730   19.9990 C   0  0  0  0  0  0  0  0  0  0  0  0
   11.3794    1.3761   23.7290 C   0  0  0  0  0  0  0  0  0  0  0  0
    5.8300    0.9190   18.6970 C   0  0  0  0  0  0  0  0  0  0  0  0
    9.3070   -3.5340   24.8780 C   0  0  0  0  0  0  0  0  0  0  0  0
    9.3350   -1.0880   23.5010 C   0  0  0  0  0  0  0  0  0  0  0  0
    7.3170   -0.1610   19.8550 C   0  0  0  0  0  0  0  0  0  0  0  0
    9.0420    0.3700   21.5280 C   0  0  0  0  0  0  0  0  0  0  0  0
    9.5333   -6.0236   25.0414 C   0  0  0  0  0  0  0  0  0  0  0  0
   10.6330   -7.3746   26.8775 C   0  0  0  0  0  0  0  0  0  0  0  0
    9.8870    1.3260   23.5730 C   0  0  0  0  0  0  0  0  0  0  0  0
    8.1890   -0.7180   20.8700 C   0  0  0  0  0  0  0  0  0  0  0  0
    9.3522   -7.0865   26.1149 C   0  0  0  0  0  0  0  0  0  0  0  0
    6.7580    0.3810   17.8350 N   0  0  0  0  0  0  0  0  0  0  0  0
    7.6390   -0.2680   18.5410 N   0  0  0  0  0  0  0  0  0  0  0  0
    9.2546   -4.7422   25.5438 N   0  0  0  0  0  0  0  0  0  0  0  0
    9.4560    0.1560   22.8130 N   0  0  0  0  0  0  0  0  0  0  0  0
    9.2690    1.4140   20.9380 O   0  0  0  0  0  0  0  0  0  0  0  0
    9.8805   -6.3053   23.8992 O   0  0  0  0  0  0  0  0  0  0  0  0
   15.2322    1.5068   24.1308 H   0  0  0  0  0  0  0  0  0  0  0  0
    3.6562    2.0083   21.6780 H   0  0  0  0  0  0  0  0  0  0  0  0
   13.8473    0.3374   25.8248 H   0  0  0  0  0  0  0  0  0  0  0  0
   14.1503    2.5930   22.1795 H   0  0  0  0  0  0  0  0  0  0  0  0
    3.0225    2.6465   19.3867 H   0  0  0  0  0  0  0  0  0  0  0  0
    5.7084    0.6884   22.1515 H   0  0  0  0  0  0  0  0  0  0  0  0
   11.3889    0.2508   25.5729 H   0  0  0  0  0  0  0  0  0  0  0  0
   11.6930    2.5120   21.9187 H   0  0  0  0  0  0  0  0  0  0  0  0
    4.3943    1.9831   17.4240 H   0  0  0  0  0  0  0  0  0  0  0  0
    8.6895   -2.3529   26.5807 H   0  0  0  0  0  0  0  0  0  0  0  0
    9.9262   -4.3897   22.9916 H   0  0  0  0  0  0  0  0  0  0  0  0
    8.9224   -0.1998   25.4238 H   0  0  0  0  0  0  0  0  0  0  0  0
   10.0649   -2.2343   21.8258 H   0  0  0  0  0  0  0  0  0  0  0  0
   11.4241   -7.7171   26.2024 H   0  0  0  0  0  0  0  0  0  0  0  0
   10.4629   -8.1531   27.6277 H   0  0  0  0  0  0  0  0  0  0  0  0
   10.9949   -6.4779   27.3911 H   0  0  0  0  0  0  0  0  0  0  0  0
    9.3974    1.2912   24.5523 H   0  0  0  0  0  0  0  0  0  0  0  0
    9.5159    2.2168   23.0553 H   0  0  0  0  0  0  0  0  0  0  0  0
    7.6090   -1.2088   21.6628 H   0  0  0  0  0  0  0  0  0  0  0  0
    8.8730   -1.4654   20.4463 H   0  0  0  0  0  0  0  0  0  0  0  0
    8.5795   -6.7462   26.8138 H   0  0  0  0  0  0  0  0  0  0  0  0
    8.9965   -8.0064   25.6368 H   0  0  0  0  0  0  0  0  0  0  0  0
    8.3933   -0.7388   18.1198 H   0  0  0  0  0  0  0  0  0  0  0  0
    8.9776   -4.7057   26.5317 H   0  0  0  0  0  0  0  0  0  0  0  0
  1  3  1  0  0  0  0
  1  4  2  0  0  0  0
  2  5  1  0  0  0  0
  2  6  2  0  0  0  0
  3  7  2  0  0  0  0
  4  8  1  0  0  0  0
  5  9  2  0  0  0  0
  6 14  1  0  0  0  0
  7 15  1  0  0  0  0
  8 15  2  0  0  0  0
  9 16  1  0  0  0  0
 10 12  2  0  0  0  0
 10 17  1  0  0  0  0
 11 13  1  0  0  0  0
 11 17  2  0  0  0  0
 12 18  1  0  0  0  0
 13 18  2  0  0  0  0
 14 16  1  0  0  0  0
 14 19  2  0  0  0  0
 15 23  1  0  0  0  0
 16 26  2  0  0  0  0
 17 28  1  0  0  0  0
 18 29  1  0  0  0  0
 19 24  1  0  0  0  0
 19 27  1  0  0  0  0
 20 24  1  0  0  0  0
 20 29  1  0  0  0  0
 20 30  2  0  0  0  0
 21 25  1  0  0  0  0
 21 28  1  0  0  0  0
 21 31  2  0  0  0  0
 22 25  1  0  0  0  0
 23 29  1  0  0  0  0
 26 27  1  0  0  0  0
  1 32  1  0  0  0  0
  2 33  1  0  0  0  0
  3 34  1  0  0  0  0
  4 35  1  0  0  0  0
  5 36  1  0  0  0  0
  6 37  1  0  0  0  0
  7 38  1  0  0  0  0
  8 39  1  0  0  0  0
  9 40  1  0  0  0  0
 10 41  1  0  0  0  0
 11 42  1  0  0  0  0
 12 43  1  0  0  0  0
 13 44  1  0  0  0  0
 22 45  1  0  0  0  0
 22 46  1  0  0  0  0
 22 47  1  0  0  0  0
 23 48  1  0  0  0  0
 23 49  1  0  0  0  0
 24 50  1  0  0  0  0
 24 51  1  0  0  0  0
 25 52  1  0  0  0  0
 25 53  1  0  0  0  0
 27 54  1  0  0  0  0
 28 55  1  0  0  0  0
M  END
> <clash_score>
1.498654129822121

> <docking_score>
-6.492652893066406

$$$$
BENZO_396_1
  -OEChem-08212023503D

 52 55  0     0  0  0  0  0  0999 V2000
    4.2750    1.7050   20.8490 C   0  0  0  0  0  0  0  0  0  0  0  0
    3.9160    2.0630   19.5520 C   0  0  0  0  0  0  0  0  0  0  0  0
    5.4210    0.9600   21.0930 C   0  0  0  0  0  0  0  0  0  0  0  0
    4.6890    1.6810   18.4640 C   0  0  0  0  0  0  0  0  0  0  0  0
    8.9960   -2.3380   25.5320 C   0  0  0  0  0  0  0  0  0  0  0  0
    9.6730   -3.4710   23.5300 C   0  0  0  0  0  0  0  0  0  0  0  0
    9.0720   -1.1280   24.8640 C   0  0  0  0  0  0  0  0  0  0  0  0
    9.7200   -2.2600   22.8630 C   0  0  0  0  0  0  0  0  0  0  0  0
   12.2913    1.4279   22.6355 C   0  0  0  0  0  0  0  0  0  0  0  0
   13.6024    1.4662   23.0564 C   0  0  0  0  0  0  0  0  0  0  0  0
   12.0284    1.3764   24.9443 C   0  0  0  0  0  0  0  0  0  0  0  0
    6.1790    0.5730   19.9990 C   0  0  0  0  0  0  0  0  0  0  0  0
   11.3794    1.3761   23.7290 C   0  0  0  0  0  0  0  0  0  0  0  0
    5.8300    0.9190   18.6970 C   0  0  0  0  0  0  0  0  0  0  0  0
    9.3070   -3.5340   24.8780 C   0  0  0  0  0  0  0  0  0  0  0  0
    9.3350   -1.0880   23.5010 C   0  0  0  0  0  0  0  0  0  0  0  0
    7.3170   -0.1610   19.8550 C   0  0  0  0  0  0  0  0  0  0  0  0
    9.0420    0.3700   21.5280 C   0  0  0  0  0  0  0  0  0  0  0  0
    9.5333   -6.0236   25.0414 C   0  0  0  0  0  0  0  0  0  0  0  0
   10.6330   -7.3746   26.8775 C   0  0  0  0  0  0  0  0  0  0  0  0
    9.8870    1.3260   23.5730 C   0  0  0  0  0  0  0  0  0  0  0  0
    8.1890   -0.7180   20.8700 C   0  0  0  0  0  0  0  0  0  0  0  0
    9.3522   -7.0865   26.1149 C   0  0  0  0  0  0  0  0  0  0  0  0
    6.7580    0.3810   17.8350 N   0  0  0  0  0  0  0  0  0  0  0  0
    7.6390   -0.2680   18.5410 N   0  0  0  0  0  0  0  0  0  0  0  0
    9.2546   -4.7422   25.5438 N   0  0  0  0  0  0  0  0  0  0  0  0
    9.4560    0.1560   22.8130 N   0  0  0  0  0  0  0  0  0  0  0  0
    9.2690    1.4140   20.9380 O   0  0  0  0  0  0  0  0  0  0  0  0
    9.8805   -6.3053   23.8992 O   0  0  0  0  0  0  0  0  0  0  0  0
   13.7301    1.4394   24.7638 S   0  0  0  0  0  0  0  0  0  0  0  0
    3.6562    2.0083   21.6780 H   0  0  0  0  0  0  0  0  0  0  0  0
    3.0225    2.6465   19.3867 H   0  0  0  0  0  0  0  0  0  0  0  0
    5.7084    0.6884   22.1515 H   0  0  0  0  0  0  0  0  0  0  0  0
    4.3943    1.9831   17.4240 H   0  0  0  0  0  0  0  0  0  0  0  0
    8.6895   -2.3529   26.5807 H   0  0  0  0  0  0  0  0  0  0  0  0
    9.9262   -4.3897   22.9916 H   0  0  0  0  0  0  0  0  0  0  0  0
    8.9224   -0.1998   25.4238 H   0  0  0  0  0  0  0  0  0  0  0  0
   10.0649   -2.2343   21.8258 H   0  0  0  0  0  0  0  0  0  0  0  0
   12.0045    1.4365   21.5915 H   0  0  0  0  0  0  0  0  0  0  0  0
   14.4914    1.5078   22.4431 H   0  0  0  0  0  0  0  0  0  0  0  0
   11.5886    1.3416   25.9314 H   0  0  0  0  0  0  0  0  0  0  0  0
   11.4241   -7.7171   26.2024 H   0  0  0  0  0  0  0  0  0  0  0  0
   10.4629   -8.1531   27.6277 H   0  0  0  0  0  0  0  0  0  0  0  0
   10.9949   -6.4779   27.3911 H   0  0  0  0  0  0  0  0  0  0  0  0
    9.3974    1.2912   24.5523 H   0  0  0  0  0  0  0  0  0  0  0  0
    9.5159    2.2168   23.0553 H   0  0  0  0  0  0  0  0  0  0  0  0
    7.6090   -1.2088   21.6628 H   0  0  0  0  0  0  0  0  0  0  0  0
    8.8730   -1.4654   20.4463 H   0  0  0  0  0  0  0  0  0  0  0  0
    8.5795   -6.7462   26.8138 H   0  0  0  0  0  0  0  0  0  0  0  0
    8.9965   -8.0064   25.6368 H   0  0  0  0  0  0  0  0  0  0  0  0
    8.3933   -0.7388   18.1198 H   0  0  0  0  0  0  0  0  0  0  0  0
    8.9776   -4.7057   26.5317 H   0  0  0  0  0  0  0  0  0  0  0  0
  1  2  1  0  0  0  0
  1  3  2  0  0  0  0
  2  4  2  0  0  0  0
  3 12  1  0  0  0  0
  4 14  1  0  0  0  0
  5  7  2  0  0  0  0
  5 15  1  0  0  0  0
  6  8  1  0  0  0  0
  6 15  2  0  0  0  0
  7 16  1  0  0  0  0
  8 16  2  0  0  0  0
  9 10  2  0  0  0  0
  9 13  1  0  0  0  0
 10 30  1  0  0  0  0
 11 13  2  0  0  0  0
 11 30  1  0  0  0  0
 12 14  1  0  0  0  0
 12 17  2  0  0  0  0
 13 21  1  0  0  0  0
 14 24  2  0  0  0  0
 15 26  1  0  0  0  0
 16 27  1  0  0  0  0
 17 22  1  0  0  0  0
 17 25  1  0  0  0  0
 18 22  1  0  0  0  0
 18 27  1  0  0  0  0
 18 28  2  0  0  0  0
 19 23  1  0  0  0  0
 19 26  1  0  0  0  0
 19 29  2  0  0  0  0
 20 23  1  0  0  0  0
 21 27  1  0  0  0  0
 24 25  1  0  0  0  0
  1 31  1  0  0  0  0
  2 32  1  0  0  0  0
  3 33  1  0  0  0  0
  4 34  1  0  0  0  0
  5 35  1  0  0  0  0
  6 36  1  0  0  0  0
  7 37  1  0  0  0  0
  8 38  1  0  0  0  0
  9 39  1  0  0  0  0
 10 40  1  0  0  0  0
 11 41  1  0  0  0  0
 20 42  1  0  0  0  0
 20 43  1  0  0  0  0
 20 44  1  0  0  0  0
 21 45  1  0  0  0  0
 21 46  1  0  0  0  0
 22 47  1  0  0  0  0
 22 48  1  0  0  0  0
 23 49  1  0  0  0  0
 23 50  1  0  0  0  0
 25 51  1  0  0  0  0
 26 52  1  0  0  0  0
M  END
> <clash_score>
1.498654129822121

> <docking_score>
-6.571510314941406

$$$$
BENZO_399_1
  -OEChem-08212023503D

 55 58  0     0  0  0  0  0  0999 V2000
    4.2750    1.7050   20.8490 C   0  0  0  0  0  0  0  0  0  0  0  0
    3.9160    2.0630   19.5520 C   0  0  0  0  0  0  0  0  0  0  0  0
    5.4210    0.9600   21.0930 C   0  0  0  0  0  0  0  0  0  0  0  0
    4.6890    1.6810   18.4640 C   0  0  0  0  0  0  0  0  0  0  0  0
    8.9960   -2.3380   25.5320 C   0  0  0  0  0  0  0  0  0  0  0  0
    9.6730   -3.4710   23.5300 C   0  0  0  0  0  0  0  0  0  0  0  0
    9.0720   -1.1280   24.8640 C   0  0  0  0  0  0  0  0  0  0  0  0
    9.7200   -2.2600   22.8630 C   0  0  0  0  0  0  0  0  0  0  0  0
   12.1233    1.3811   24.9242 C   0  0  0  0  0  0  0  0  0  0  0  0
   12.3261    1.4247   22.7351 C   0  0  0  0  0  0  0  0  0  0  0  0
    6.1790    0.5730   19.9990 C   0  0  0  0  0  0  0  0  0  0  0  0
   11.3794    1.3761   23.7290 C   0  0  0  0  0  0  0  0  0  0  0  0
    5.8300    0.9190   18.6970 C   0  0  0  0  0  0  0  0  0  0  0  0
    9.3070   -3.5340   24.8780 C   0  0  0  0  0  0  0  0  0  0  0  0
    9.3350   -1.0880   23.5010 C   0  0  0  0  0  0  0  0  0  0  0  0
    7.3170   -0.1610   19.8550 C   0  0  0  0  0  0  0  0  0  0  0  0
    9.0420    0.3700   21.5280 C   0  0  0  0  0  0  0  0  0  0  0  0
    9.5333   -6.0236   25.0414 C   0  0  0  0  0  0  0  0  0  0  0  0
   10.6330   -7.3746   26.8775 C   0  0  0  0  0  0  0  0  0  0  0  0
   14.8305    1.5084   22.7418 C   0  0  0  0  0  0  0  0  0  0  0  0
    9.8870    1.3260   23.5730 C   0  0  0  0  0  0  0  0  0  0  0  0
    8.1890   -0.7180   20.8700 C   0  0  0  0  0  0  0  0  0  0  0  0
    9.3522   -7.0865   26.1149 C   0  0  0  0  0  0  0  0  0  0  0  0
   13.4410    1.4289   24.7112 N   0  0  0  0  0  0  0  0  0  0  0  0
    6.7580    0.3810   17.8350 N   0  0  0  0  0  0  0  0  0  0  0  0
    7.6390   -0.2680   18.5410 N   0  0  0  0  0  0  0  0  0  0  0  0
   13.5326    1.4543   23.3706 N   0  0  0  0  0  0  0  0  0  0  0  0
    9.2546   -4.7422   25.5438 N   0  0  0  0  0  0  0  0  0  0  0  0
    9.4560    0.1560   22.8130 N   0  0  0  0  0  0  0  0  0  0  0  0
    9.2690    1.4140   20.9380 O   0  0  0  0  0  0  0  0  0  0  0  0
    9.8805   -6.3053   23.8992 O   0  0  0  0  0  0  0  0  0  0  0  0
    3.6562    2.0083   21.6780 H   0  0  0  0  0  0  0  0  0  0  0  0
    3.0225    2.6465   19.3867 H   0  0  0  0  0  0  0  0  0  0  0  0
    5.7084    0.6884   22.1515 H   0  0  0  0  0  0  0  0  0  0  0  0
    4.3943    1.9831   17.4240 H   0  0  0  0  0  0  0  0  0  0  0  0
    8.6895   -2.3529   26.5807 H   0  0  0  0  0  0  0  0  0  0  0  0
    9.9262   -4.3897   22.9916 H   0  0  0  0  0  0  0  0  0  0  0  0
    8.9224   -0.1998   25.4238 H   0  0  0  0  0  0  0  0  0  0  0  0
   10.0649   -2.2343   21.8258 H   0  0  0  0  0  0  0  0  0  0  0  0
   11.7624    1.3510   25.9426 H   0  0  0  0  0  0  0  0  0  0  0  0
   12.2462    1.4390   21.6566 H   0  0  0  0  0  0  0  0  0  0  0  0
   11.4241   -7.7171   26.2024 H   0  0  0  0  0  0  0  0  0  0  0  0
   10.4629   -8.1531   27.6277 H   0  0  0  0  0  0  0  0  0  0  0  0
   10.9949   -6.4779   27.3911 H   0  0  0  0  0  0  0  0  0  0  0  0
   15.0990    2.5601   22.6124 H   0  0  0  0  0  0  0  0  0  0  0  0
   15.5636    1.0018   23.3756 H   0  0  0  0  0  0  0  0  0  0  0  0
   14.7841    1.0025   21.7733 H   0  0  0  0  0  0  0  0  0  0  0  0
    9.3974    1.2912   24.5523 H   0  0  0  0  0  0  0  0  0  0  0  0
    9.5159    2.2168   23.0553 H   0  0  0  0  0  0  0  0  0  0  0  0
    7.6090   -1.2088   21.6628 H   0  0  0  0  0  0  0  0  0  0  0  0
    8.8730   -1.4654   20.4463 H   0  0  0  0  0  0  0  0  0  0  0  0
    8.5795   -6.7462   26.8138 H   0  0  0  0  0  0  0  0  0  0  0  0
    8.9965   -8.0064   25.6368 H   0  0  0  0  0  0  0  0  0  0  0  0
    8.3933   -0.7388   18.1198 H   0  0  0  0  0  0  0  0  0  0  0  0
    8.9776   -4.7057   26.5317 H   0  0  0  0  0  0  0  0  0  0  0  0
  1  2  1  0  0  0  0
  1  3  2  0  0  0  0
  2  4  2  0  0  0  0
  3 11  1  0  0  0  0
  4 13  1  0  0  0  0
  5  7  2  0  0  0  0
  5 14  1  0  0  0  0
  6  8  1  0  0  0  0
  6 14  2  0  0  0  0
  7 15  1  0  0  0  0
  8 15  2  0  0  0  0
  9 12  1  0  0  0  0
  9 24  2  0  0  0  0
 10 12  2  0  0  0  0
 10 27  1  0  0  0  0
 11 13  1  0  0  0  0
 11 16  2  0  0  0  0
 12 21  1  0  0  0  0
 13 25  2  0  0  0  0
 14 28  1  0  0  0  0
 15 29  1  0  0  0  0
 16 22  1  0  0  0  0
 16 26  1  0  0  0  0
 17 22  1  0  0  0  0
 17 29  1  0  0  0  0
 17 30  2  0  0  0  0
 18 23  1  0  0  0  0
 18 28  1  0  0  0  0
 18 31  2  0  0  0  0
 19 23  1  0  0  0  0
 20 27  1  0  0  0  0
 21 29  1  0  0  0  0
 24 27  1  0  0  0  0
 25 26  1  0  0  0  0
  1 32  1  0  0  0  0
  2 33  1  0  0  0  0
  3 34  1  0  0  0  0
  4 35  1  0  0  0  0
  5 36  1  0  0  0  0
  6 37  1  0  0  0  0
  7 38  1  0  0  0  0
  8 39  1  0  0  0  0
  9 40  1  0  0  0  0
 10 41  1  0  0  0  0
 19 42  1  0  0  0  0
 19 43  1  0  0  0  0
 19 44  1  0  0  0  0
 20 45  1  0  0  0  0
 20 46  1  0  0  0  0
 20 47  1  0  0  0  0
 21 48  1  0  0  0  0
 21 49  1  0  0  0  0
 22 50  1  0  0  0  0
 22 51  1  0  0  0  0
 23 52  1  0  0  0  0
 23 53  1  0  0  0  0
 26 54  1  0  0  0  0
 28 55  1  0  0  0  0
M  END
> <clash_score>
1.498654129822121

> <docking_score>
-6.20877742767334

$$$$
BENZO_398_1
  -OEChem-08212023503D

 55 58  0     0  0  0  0  0  0999 V2000
    4.2750    1.7050   20.8490 C   0  0  0  0  0  0  0  0  0  0  0  0
    3.9160    2.0630   19.5520 C   0  0  0  0  0  0  0  0  0  0  0  0
    6.4089    2.0844   24.8766 C   0  0  0  0  0  0  0  0  0  0  0  0
    5.4210    0.9600   21.0930 C   0  0  0  0  0  0  0  0  0  0  0  0
    7.4847    1.4191   24.2887 C   0  0  0  0  0  0  0  0  0  0  0  0
    4.6890    1.6810   18.4640 C   0  0  0  0  0  0  0  0  0  0  0  0
    8.9960   -2.3380   25.5320 C   0  0  0  0  0  0  0  0  0  0  0  0
    9.6730   -3.4710   23.5300 C   0  0  0  0  0  0  0  0  0  0  0  0
    9.0720   -1.1280   24.8640 C   0  0  0  0  0  0  0  0  0  0  0  0
    9.7200   -2.2600   22.8630 C   0  0  0  0  0  0  0  0  0  0  0  0
    6.5777    3.3741   25.3805 C   0  0  0  0  0  0  0  0  0  0  0  0
    8.8980    3.3330   24.7088 C   0  0  0  0  0  0  0  0  0  0  0  0
    6.1790    0.5730   19.9990 C   0  0  0  0  0  0  0  0  0  0  0  0
    8.7292    2.0433   24.2048 C   0  0  0  0  0  0  0  0  0  0  0  0
    5.8300    0.9190   18.6970 C   0  0  0  0  0  0  0  0  0  0  0  0
    9.3070   -3.5340   24.8780 C   0  0  0  0  0  0  0  0  0  0  0  0
    9.3350   -1.0880   23.5010 C   0  0  0  0  0  0  0  0  0  0  0  0
    7.8222    3.9984   25.2966 C   0  0  0  0  0  0  0  0  0  0  0  0
    7.3170   -0.1610   19.8550 C   0  0  0  0  0  0  0  0  0  0  0  0
    9.0420    0.3700   21.5280 C   0  0  0  0  0  0  0  0  0  0  0  0
    9.5333   -6.0236   25.0414 C   0  0  0  0  0  0  0  0  0  0  0  0
   10.6330   -7.3746   26.8775 C   0  0  0  0  0  0  0  0  0  0  0  0
    9.8870    1.3260   23.5730 C   0  0  0  0  0  0  0  0  0  0  0  0
    8.1890   -0.7180   20.8700 C   0  0  0  0  0  0  0  0  0  0  0  0
    9.3522   -7.0865   26.1149 C   0  0  0  0  0  0  0  0  0  0  0  0
    6.7580    0.3810   17.8350 N   0  0  0  0  0  0  0  0  0  0  0  0
    7.6390   -0.2680   18.5410 N   0  0  0  0  0  0  0  0  0  0  0  0
    9.2546   -4.7422   25.5438 N   0  0  0  0  0  0  0  0  0  0  0  0
    9.4560    0.1560   22.8130 N   0  0  0  0  0  0  0  0  0  0  0  0
    9.2690    1.4140   20.9380 O   0  0  0  0  0  0  0  0  0  0  0  0
    9.8805   -6.3053   23.8992 O   0  0  0  0  0  0  0  0  0  0  0  0
    8.0301    5.5891   25.9196 Cl  0  0  0  0  0  0  0  0  0  0  0  0
    3.6562    2.0083   21.6780 H   0  0  0  0  0  0  0  0  0  0  0  0
    3.0225    2.6465   19.3867 H   0  0  0  0  0  0  0  0  0  0  0  0
    5.4400    1.5979   24.9418 H   0  0  0  0  0  0  0  0  0  0  0  0
    5.7084    0.6884   22.1515 H   0  0  0  0  0  0  0  0  0  0  0  0
    7.3441    0.4143   23.8988 H   0  0  0  0  0  0  0  0  0  0  0  0
    4.3943    1.9831   17.4240 H   0  0  0  0  0  0  0  0  0  0  0  0
    8.6895   -2.3529   26.5807 H   0  0  0  0  0  0  0  0  0  0  0  0
    9.9262   -4.3897   22.9916 H   0  0  0  0  0  0  0  0  0  0  0  0
    8.9224   -0.1998   25.4238 H   0  0  0  0  0  0  0  0  0  0  0  0
   10.0649   -2.2343   21.8258 H   0  0  0  0  0  0  0  0  0  0  0  0
    5.7304    3.8806   25.8363 H   0  0  0  0  0  0  0  0  0  0  0  0
    9.8703    3.8156   24.6405 H   0  0  0  0  0  0  0  0  0  0  0  0
   11.4241   -7.7171   26.2024 H   0  0  0  0  0  0  0  0  0  0  0  0
   10.4629   -8.1531   27.6277 H   0  0  0  0  0  0  0  0  0  0  0  0
   10.9949   -6.4779   27.3911 H   0  0  0  0  0  0  0  0  0  0  0  0
   10.4274    1.9911   22.8906 H   0  0  0  0  0  0  0  0  0  0  0  0
   10.6011    0.9882   24.3313 H   0  0  0  0  0  0  0  0  0  0  0  0
    7.6090   -1.2088   21.6628 H   0  0  0  0  0  0  0  0  0  0  0  0
    8.8730   -1.4654   20.4463 H   0  0  0  0  0  0  0  0  0  0  0  0
    8.5795   -6.7462   26.8138 H   0  0  0  0  0  0  0  0  0  0  0  0
    8.9965   -8.0064   25.6368 H   0  0  0  0  0  0  0  0  0  0  0  0
    8.3933   -0.7388   18.1198 H   0  0  0  0  0  0  0  0  0  0  0  0
    8.9776   -4.7057   26.5317 H   0  0  0  0  0  0  0  0  0  0  0  0
  1  2  1  0  0  0  0
  1  4  2  0  0  0  0
  2  6  2  0  0  0  0
  3  5  2  0  0  0  0
  3 11  1  0  0  0  0
  4 13  1  0  0  0  0
  5 14  1  0  0  0  0
  6 15  1  0  0  0  0
  7  9  2  0  0  0  0
  7 16  1  0  0  0  0
  8 10  1  0  0  0  0
  8 16  2  0  0  0  0
  9 17  1  0  0  0  0
 10 17  2  0  0  0  0
 11 18  2  0  0  0  0
 12 14  2  0  0  0  0
 12 18  1  0  0  0  0
 13 15  1  0  0  0  0
 13 19  2  0  0  0  0
 14 23  1  0  0  0  0
 15 26  2  0  0  0  0
 16 28  1  0  0  0  0
 17 29  1  0  0  0  0
 18 32  1  0  0  0  0
 19 24  1  0  0  0  0
 19 27  1  0  0  0  0
 20 24  1  0  0  0  0
 20 29  1  0  0  0  0
 20 30  2  0  0  0  0
 21 25  1  0  0  0  0
 21 28  1  0  0  0  0
 21 31  2  0  0  0  0
 22 25  1  0  0  0  0
 23 29  1  0  0  0  0
 26 27  1  0  0  0  0
  1 33  1  0  0  0  0
  2 34  1  0  0  0  0
  3 35  1  0  0  0  0
  4 36  1  0  0  0  0
  5 37  1  0  0  0  0
  6 38  1  0  0  0  0
  7 39  1  0  0  0  0
  8 40  1  0  0  0  0
  9 41  1  0  0  0  0
 10 42  1  0  0  0  0
 11 43  1  0  0  0  0
 12 44  1  0  0  0  0
 22 45  1  0  0  0  0
 22 46  1  0  0  0  0
 22 47  1  0  0  0  0
 23 48  1  0  0  0  0
 23 49  1  0  0  0  0
 24 50  1  0  0  0  0
 24 51  1  0  0  0  0
 25 52  1  0  0  0  0
 25 53  1  0  0  0  0
 27 54  1  0  0  0  0
 28 55  1  0  0  0  0
M  END
> <clash_score>
1.498654129822121

> <docking_score>
-5.878676414489746

$$$$
BENZO_401_1
  -OEChem-08212023533D

 60 64  0     0  0  0  0  0  0999 V2000
   14.1526    1.4694   24.0176 C   0  0  0  0  0  0  0  0  0  0  0  0
    4.2750    1.7050   20.8490 C   0  0  0  0  0  0  0  0  0  0  0  0
   13.3741    0.8121   24.9701 C   0  0  0  0  0  0  0  0  0  0  0  0
   13.5446    2.0802   22.9208 C   0  0  0  0  0  0  0  0  0  0  0  0
    3.9160    2.0630   19.5520 C   0  0  0  0  0  0  0  0  0  0  0  0
    5.4210    0.9600   21.0930 C   0  0  0  0  0  0  0  0  0  0  0  0
   11.9875    0.7654   24.8258 C   0  0  0  0  0  0  0  0  0  0  0  0
   12.1580    2.0335   22.7765 C   0  0  0  0  0  0  0  0  0  0  0  0
    4.6890    1.6810   18.4640 C   0  0  0  0  0  0  0  0  0  0  0  0
    8.9960   -2.3380   25.5320 C   0  0  0  0  0  0  0  0  0  0  0  0
    9.6730   -3.4710   23.5300 C   0  0  0  0  0  0  0  0  0  0  0  0
    9.0720   -1.1280   24.8640 C   0  0  0  0  0  0  0  0  0  0  0  0
    9.7200   -2.2600   22.8630 C   0  0  0  0  0  0  0  0  0  0  0  0
    6.1790    0.5730   19.9990 C   0  0  0  0  0  0  0  0  0  0  0  0
   11.3794    1.3761   23.7290 C   0  0  0  0  0  0  0  0  0  0  0  0
    5.8300    0.9190   18.6970 C   0  0  0  0  0  0  0  0  0  0  0  0
    9.3070   -3.5340   24.8780 C   0  0  0  0  0  0  0  0  0  0  0  0
    9.3350   -1.0880   23.5010 C   0  0  0  0  0  0  0  0  0  0  0  0
    7.3170   -0.1610   19.8550 C   0  0  0  0  0  0  0  0  0  0  0  0
    9.0420    0.3700   21.5280 C   0  0  0  0  0  0  0  0  0  0  0  0
    7.3635   -6.1361   27.1888 C   0  0  0  0  0  0  0  0  0  0  0  0
    8.1961   -4.9735   27.7341 C   0  0  0  0  0  0  0  0  0  0  0  0
    7.1942   -6.0394   25.6709 C   0  0  0  0  0  0  0  0  0  0  0  0
    9.5196   -4.8490   26.9797 C   0  0  0  0  0  0  0  0  0  0  0  0
    8.5442   -5.8838   24.9639 C   0  0  0  0  0  0  0  0  0  0  0  0
    9.8870    1.3260   23.5730 C   0  0  0  0  0  0  0  0  0  0  0  0
    8.1890   -0.7180   20.8700 C   0  0  0  0  0  0  0  0  0  0  0  0
    6.7580    0.3810   17.8350 N   0  0  0  0  0  0  0  0  0  0  0  0
    7.6390   -0.2680   18.5410 N   0  0  0  0  0  0  0  0  0  0  0  0
    9.2562   -4.7384   25.5422 N   0  0  0  0  0  0  0  0  0  0  0  0
    9.4560    0.1560   22.8130 N   0  0  0  0  0  0  0  0  0  0  0  0
    9.2690    1.4140   20.9380 O   0  0  0  0  0  0  0  0  0  0  0  0
   15.2322    1.5068   24.1308 H   0  0  0  0  0  0  0  0  0  0  0  0
    3.6562    2.0083   21.6780 H   0  0  0  0  0  0  0  0  0  0  0  0
   13.8473    0.3374   25.8248 H   0  0  0  0  0  0  0  0  0  0  0  0
   14.1503    2.5930   22.1795 H   0  0  0  0  0  0  0  0  0  0  0  0
    3.0225    2.6465   19.3867 H   0  0  0  0  0  0  0  0  0  0  0  0
    5.7084    0.6884   22.1515 H   0  0  0  0  0  0  0  0  0  0  0  0
   11.3889    0.2508   25.5729 H   0  0  0  0  0  0  0  0  0  0  0  0
   11.6930    2.5120   21.9187 H   0  0  0  0  0  0  0  0  0  0  0  0
    4.3943    1.9831   17.4240 H   0  0  0  0  0  0  0  0  0  0  0  0
    8.6905   -2.3533   26.5810 H   0  0  0  0  0  0  0  0  0  0  0  0
    9.9266   -4.3896   22.9917 H   0  0  0  0  0  0  0  0  0  0  0  0
    8.9233   -0.1992   25.4231 H   0  0  0  0  0  0  0  0  0  0  0  0
   10.0650   -2.2330   21.8256 H   0  0  0  0  0  0  0  0  0  0  0  0
    7.8482   -7.0901   27.4469 H   0  0  0  0  0  0  0  0  0  0  0  0
    6.3760   -6.1438   27.6724 H   0  0  0  0  0  0  0  0  0  0  0  0
    7.6307   -4.0424   27.6403 H   0  0  0  0  0  0  0  0  0  0  0  0
    8.3915   -5.1310   28.7968 H   0  0  0  0  0  0  0  0  0  0  0  0
    6.6888   -6.9376   25.3010 H   0  0  0  0  0  0  0  0  0  0  0  0
    6.5515   -5.1859   25.4257 H   0  0  0  0  0  0  0  0  0  0  0  0
   10.0492   -3.9640   27.3414 H   0  0  0  0  0  0  0  0  0  0  0  0
   10.1431   -5.7254   27.1778 H   0  0  0  0  0  0  0  0  0  0  0  0
    9.1338   -6.7931   25.0868 H   0  0  0  0  0  0  0  0  0  0  0  0
    8.3656   -5.7264   23.8998 H   0  0  0  0  0  0  0  0  0  0  0  0
    9.3974    1.2912   24.5523 H   0  0  0  0  0  0  0  0  0  0  0  0
    9.5159    2.2168   23.0554 H   0  0  0  0  0  0  0  0  0  0  0  0
    7.5972   -1.2056   21.6500 H   0  0  0  0  0  0  0  0  0  0  0  0
    8.8612   -1.4622   20.4334 H   0  0  0  0  0  0  0  0  0  0  0  0
    8.3933   -0.7388   18.1198 H   0  0  0  0  0  0  0  0  0  0  0  0
  1  3  1  0  0  0  0
  1  4  2  0  0  0  0
  2  5  1  0  0  0  0
  2  6  2  0  0  0  0
  3  7  2  0  0  0  0
  4  8  1  0  0  0  0
  5  9  2  0  0  0  0
  6 14  1  0  0  0  0
  7 15  1  0  0  0  0
  8 15  2  0  0  0  0
  9 16  1  0  0  0  0
 10 12  2  0  0  0  0
 10 17  1  0  0  0  0
 11 13  1  0  0  0  0
 11 17  2  0  0  0  0
 12 18  1  0  0  0  0
 13 18  2  0  0  0  0
 14 16  1  0  0  0  0
 14 19  2  0  0  0  0
 15 26  1  0  0  0  0
 16 28  2  0  0  0  0
 17 30  1  0  0  0  0
 18 31  1  0  0  0  0
 19 27  1  0  0  0  0
 19 29  1  0  0  0  0
 20 27  1  0  0  0  0
 20 31  1  0  0  0  0
 20 32  2  0  0  0  0
 21 22  1  0  0  0  0
 21 23  1  0  0  0  0
 22 24  1  0  0  0  0
 23 25  1  0  0  0  0
 24 30  1  0  0  0  0
 25 30  1  0  0  0  0
 26 31  1  0  0  0  0
 28 29  1  0  0  0  0
  1 33  1  0  0  0  0
  2 34  1  0  0  0  0
  3 35  1  0  0  0  0
  4 36  1  0  0  0  0
  5 37  1  0  0  0  0
  6 38  1  0  0  0  0
  7 39  1  0  0  0  0
  8 40  1  0  0  0  0
  9 41  1  0  0  0  0
 10 42  1  0  0  0  0
 11 43  1  0  0  0  0
 12 44  1  0  0  0  0
 13 45  1  0  0  0  0
 21 46  1  0  0  0  0
 21 47  1  0  0  0  0
 22 48  1  0  0  0  0
 22 49  1  0  0  0  0
 23 50  1  0  0  0  0
 23 51  1  0  0  0  0
 24 52  1  0  0  0  0
 24 53  1  0  0  0  0
 25 54  1  0  0  0  0
 25 55  1  0  0  0  0
 26 56  1  0  0  0  0
 26 57  1  0  0  0  0
 27 58  1  0  0  0  0
 27 59  1  0  0  0  0
 29 60  1  0  0  0  0
M  END
> <clash_score>
0

> <docking_score>
-8.782698631286621

$$$$
BENZO_400_1
  -OEChem-08212023533D

 57 61  0     0  0  0  0  0  0999 V2000
    4.2750    1.7050   20.8490 C   0  0  0  0  0  0  0  0  0  0  0  0
    3.9160    2.0630   19.5520 C   0  0  0  0  0  0  0  0  0  0  0  0
    5.4210    0.9600   21.0930 C   0  0  0  0  0  0  0  0  0  0  0  0
    4.6890    1.6810   18.4640 C   0  0  0  0  0  0  0  0  0  0  0  0
    8.9960   -2.3380   25.5320 C   0  0  0  0  0  0  0  0  0  0  0  0
    9.6730   -3.4710   23.5300 C   0  0  0  0  0  0  0  0  0  0  0  0
    9.0720   -1.1280   24.8640 C   0  0  0  0  0  0  0  0  0  0  0  0
    9.7200   -2.2600   22.8630 C   0  0  0  0  0  0  0  0  0  0  0  0
   12.2913    1.4279   22.6355 C   0  0  0  0  0  0  0  0  0  0  0  0
   13.6024    1.4662   23.0564 C   0  0  0  0  0  0  0  0  0  0  0  0
   12.0284    1.3764   24.9443 C   0  0  0  0  0  0  0  0  0  0  0  0
    6.1790    0.5730   19.9990 C   0  0  0  0  0  0  0  0  0  0  0  0
   11.3794    1.3761   23.7290 C   0  0  0  0  0  0  0  0  0  0  0  0
    5.8300    0.9190   18.6970 C   0  0  0  0  0  0  0  0  0  0  0  0
    9.3070   -3.5340   24.8780 C   0  0  0  0  0  0  0  0  0  0  0  0
    9.3350   -1.0880   23.5010 C   0  0  0  0  0  0  0  0  0  0  0  0
    7.3170   -0.1610   19.8550 C   0  0  0  0  0  0  0  0  0  0  0  0
    9.0420    0.3700   21.5280 C   0  0  0  0  0  0  0  0  0  0  0  0
    7.3635   -6.1361   27.1888 C   0  0  0  0  0  0  0  0  0  0  0  0
    8.1961   -4.9735   27.7341 C   0  0  0  0  0  0  0  0  0  0  0  0
    7.1942   -6.0394   25.6709 C   0  0  0  0  0  0  0  0  0  0  0  0
    9.5196   -4.8490   26.9797 C   0  0  0  0  0  0  0  0  0  0  0  0
    8.5442   -5.8838   24.9639 C   0  0  0  0  0  0  0  0  0  0  0  0
    9.8870    1.3260   23.5730 C   0  0  0  0  0  0  0  0  0  0  0  0
    8.1890   -0.7180   20.8700 C   0  0  0  0  0  0  0  0  0  0  0  0
    6.7580    0.3810   17.8350 N   0  0  0  0  0  0  0  0  0  0  0  0
    7.6390   -0.2680   18.5410 N   0  0  0  0  0  0  0  0  0  0  0  0
    9.2562   -4.7384   25.5422 N   0  0  0  0  0  0  0  0  0  0  0  0
    9.4560    0.1560   22.8130 N   0  0  0  0  0  0  0  0  0  0  0  0
    9.2690    1.4140   20.9380 O   0  0  0  0  0  0  0  0  0  0  0  0
   13.7301    1.4394   24.7638 S   0  0  0  0  0  0  0  0  0  0  0  0
    3.6562    2.0083   21.6780 H   0  0  0  0  0  0  0  0  0  0  0  0
    3.0225    2.6465   19.3867 H   0  0  0  0  0  0  0  0  0  0  0  0
    5.7084    0.6884   22.1515 H   0  0  0  0  0  0  0  0  0  0  0  0
    4.3943    1.9831   17.4240 H   0  0  0  0  0  0  0  0  0  0  0  0
    8.6905   -2.3533   26.5810 H   0  0  0  0  0  0  0  0  0  0  0  0
    9.9266   -4.3896   22.9917 H   0  0  0  0  0  0  0  0  0  0  0  0
    8.9233   -0.1992   25.4231 H   0  0  0  0  0  0  0  0  0  0  0  0
   10.0650   -2.2330   21.8256 H   0  0  0  0  0  0  0  0  0  0  0  0
   12.0045    1.4365   21.5915 H   0  0  0  0  0  0  0  0  0  0  0  0
   14.4914    1.5078   22.4431 H   0  0  0  0  0  0  0  0  0  0  0  0
   11.5886    1.3416   25.9314 H   0  0  0  0  0  0  0  0  0  0  0  0
    7.8482   -7.0901   27.4469 H   0  0  0  0  0  0  0  0  0  0  0  0
    6.3760   -6.1438   27.6724 H   0  0  0  0  0  0  0  0  0  0  0  0
    7.6307   -4.0424   27.6403 H   0  0  0  0  0  0  0  0  0  0  0  0
    8.3915   -5.1310   28.7968 H   0  0  0  0  0  0  0  0  0  0  0  0
    6.6888   -6.9376   25.3010 H   0  0  0  0  0  0  0  0  0  0  0  0
    6.5515   -5.1859   25.4257 H   0  0  0  0  0  0  0  0  0  0  0  0
   10.0492   -3.9640   27.3414 H   0  0  0  0  0  0  0  0  0  0  0  0
   10.1431   -5.7254   27.1778 H   0  0  0  0  0  0  0  0  0  0  0  0
    9.1338   -6.7931   25.0868 H   0  0  0  0  0  0  0  0  0  0  0  0
    8.3656   -5.7264   23.8998 H   0  0  0  0  0  0  0  0  0  0  0  0
    9.3974    1.2912   24.5523 H   0  0  0  0  0  0  0  0  0  0  0  0
    9.5159    2.2168   23.0554 H   0  0  0  0  0  0  0  0  0  0  0  0
    7.5972   -1.2056   21.6500 H   0  0  0  0  0  0  0  0  0  0  0  0
    8.8612   -1.4622   20.4334 H   0  0  0  0  0  0  0  0  0  0  0  0
    8.3933   -0.7388   18.1198 H   0  0  0  0  0  0  0  0  0  0  0  0
  1  2  1  0  0  0  0
  1  3  2  0  0  0  0
  2  4  2  0  0  0  0
  3 12  1  0  0  0  0
  4 14  1  0  0  0  0
  5  7  2  0  0  0  0
  5 15  1  0  0  0  0
  6  8  1  0  0  0  0
  6 15  2  0  0  0  0
  7 16  1  0  0  0  0
  8 16  2  0  0  0  0
  9 10  2  0  0  0  0
  9 13  1  0  0  0  0
 10 31  1  0  0  0  0
 11 13  2  0  0  0  0
 11 31  1  0  0  0  0
 12 14  1  0  0  0  0
 12 17  2  0  0  0  0
 13 24  1  0  0  0  0
 14 26  2  0  0  0  0
 15 28  1  0  0  0  0
 16 29  1  0  0  0  0
 17 25  1  0  0  0  0
 17 27  1  0  0  0  0
 18 25  1  0  0  0  0
 18 29  1  0  0  0  0
 18 30  2  0  0  0  0
 19 20  1  0  0  0  0
 19 21  1  0  0  0  0
 20 22  1  0  0  0  0
 21 23  1  0  0  0  0
 22 28  1  0  0  0  0
 23 28  1  0  0  0  0
 24 29  1  0  0  0  0
 26 27  1  0  0  0  0
  1 32  1  0  0  0  0
  2 33  1  0  0  0  0
  3 34  1  0  0  0  0
  4 35  1  0  0  0  0
  5 36  1  0  0  0  0
  6 37  1  0  0  0  0
  7 38  1  0  0  0  0
  8 39  1  0  0  0  0
  9 40  1  0  0  0  0
 10 41  1  0  0  0  0
 11 42  1  0  0  0  0
 19 43  1  0  0  0  0
 19 44  1  0  0  0  0
 20 45  1  0  0  0  0
 20 46  1  0  0  0  0
 21 47  1  0  0  0  0
 21 48  1  0  0  0  0
 22 49  1  0  0  0  0
 22 50  1  0  0  0  0
 23 51  1  0  0  0  0
 23 52  1  0  0  0  0
 24 53  1  0  0  0  0
 24 54  1  0  0  0  0
 25 55  1  0  0  0  0
 25 56  1  0  0  0  0
 27 57  1  0  0  0  0
M  END
> <clash_score>
0

> <docking_score>
-8.861555099487305

$$$$
BENZO_403_1
  -OEChem-08212023533D

 60 64  0     0  0  0  0  0  0999 V2000
    4.2750    1.7050   20.8490 C   0  0  0  0  0  0  0  0  0  0  0  0
    3.9160    2.0630   19.5520 C   0  0  0  0  0  0  0  0  0  0  0  0
    5.4210    0.9600   21.0930 C   0  0  0  0  0  0  0  0  0  0  0  0
    4.6890    1.6810   18.4640 C   0  0  0  0  0  0  0  0  0  0  0  0
    8.9960   -2.3380   25.5320 C   0  0  0  0  0  0  0  0  0  0  0  0
    9.6730   -3.4710   23.5300 C   0  0  0  0  0  0  0  0  0  0  0  0
    9.0720   -1.1280   24.8640 C   0  0  0  0  0  0  0  0  0  0  0  0
    9.7200   -2.2600   22.8630 C   0  0  0  0  0  0  0  0  0  0  0  0
   12.1233    1.3811   24.9242 C   0  0  0  0  0  0  0  0  0  0  0  0
   12.3261    1.4247   22.7351 C   0  0  0  0  0  0  0  0  0  0  0  0
    6.1790    0.5730   19.9990 C   0  0  0  0  0  0  0  0  0  0  0  0
   11.3794    1.3761   23.7290 C   0  0  0  0  0  0  0  0  0  0  0  0
    5.8300    0.9190   18.6970 C   0  0  0  0  0  0  0  0  0  0  0  0
    9.3070   -3.5340   24.8780 C   0  0  0  0  0  0  0  0  0  0  0  0
    9.3350   -1.0880   23.5010 C   0  0  0  0  0  0  0  0  0  0  0  0
    7.3170   -0.1610   19.8550 C   0  0  0  0  0  0  0  0  0  0  0  0
    9.0420    0.3700   21.5280 C   0  0  0  0  0  0  0  0  0  0  0  0
    7.3635   -6.1361   27.1888 C   0  0  0  0  0  0  0  0  0  0  0  0
    8.1961   -4.9735   27.7341 C   0  0  0  0  0  0  0  0  0  0  0  0
    7.1942   -6.0394   25.6709 C   0  0  0  0  0  0  0  0  0  0  0  0
    9.5196   -4.8490   26.9797 C   0  0  0  0  0  0  0  0  0  0  0  0
    8.5442   -5.8838   24.9639 C   0  0  0  0  0  0  0  0  0  0  0  0
   14.8305    1.5084   22.7418 C   0  0  0  0  0  0  0  0  0  0  0  0
    9.8870    1.3260   23.5730 C   0  0  0  0  0  0  0  0  0  0  0  0
    8.1890   -0.7180   20.8700 C   0  0  0  0  0  0  0  0  0  0  0  0
   13.4410    1.4289   24.7112 N   0  0  0  0  0  0  0  0  0  0  0  0
    6.7580    0.3810   17.8350 N   0  0  0  0  0  0  0  0  0  0  0  0
    7.6390   -0.2680   18.5410 N   0  0  0  0  0  0  0  0  0  0  0  0
   13.5326    1.4543   23.3706 N   0  0  0  0  0  0  0  0  0  0  0  0
    9.2562   -4.7384   25.5422 N   0  0  0  0  0  0  0  0  0  0  0  0
    9.4560    0.1560   22.8130 N   0  0  0  0  0  0  0  0  0  0  0  0
    9.2690    1.4140   20.9380 O   0  0  0  0  0  0  0  0  0  0  0  0
    3.6562    2.0083   21.6780 H   0  0  0  0  0  0  0  0  0  0  0  0
    3.0225    2.6465   19.3867 H   0  0  0  0  0  0  0  0  0  0  0  0
    5.7084    0.6884   22.1515 H   0  0  0  0  0  0  0  0  0  0  0  0
    4.3943    1.9831   17.4240 H   0  0  0  0  0  0  0  0  0  0  0  0
    8.6905   -2.3533   26.5810 H   0  0  0  0  0  0  0  0  0  0  0  0
    9.9266   -4.3896   22.9917 H   0  0  0  0  0  0  0  0  0  0  0  0
    8.9233   -0.1992   25.4231 H   0  0  0  0  0  0  0  0  0  0  0  0
   10.0650   -2.2330   21.8256 H   0  0  0  0  0  0  0  0  0  0  0  0
   11.7624    1.3510   25.9426 H   0  0  0  0  0  0  0  0  0  0  0  0
   12.2462    1.4390   21.6566 H   0  0  0  0  0  0  0  0  0  0  0  0
    7.8482   -7.0901   27.4469 H   0  0  0  0  0  0  0  0  0  0  0  0
    6.3760   -6.1438   27.6724 H   0  0  0  0  0  0  0  0  0  0  0  0
    7.6307   -4.0424   27.6403 H   0  0  0  0  0  0  0  0  0  0  0  0
    8.3915   -5.1310   28.7968 H   0  0  0  0  0  0  0  0  0  0  0  0
    6.6888   -6.9376   25.3010 H   0  0  0  0  0  0  0  0  0  0  0  0
    6.5515   -5.1859   25.4257 H   0  0  0  0  0  0  0  0  0  0  0  0
   10.0492   -3.9640   27.3414 H   0  0  0  0  0  0  0  0  0  0  0  0
   10.1431   -5.7254   27.1778 H   0  0  0  0  0  0  0  0  0  0  0  0
    9.1338   -6.7931   25.0868 H   0  0  0  0  0  0  0  0  0  0  0  0
    8.3656   -5.7264   23.8998 H   0  0  0  0  0  0  0  0  0  0  0  0
   15.0990    2.5601   22.6124 H   0  0  0  0  0  0  0  0  0  0  0  0
   15.5636    1.0018   23.3756 H   0  0  0  0  0  0  0  0  0  0  0  0
   14.7841    1.0025   21.7733 H   0  0  0  0  0  0  0  0  0  0  0  0
    9.3974    1.2912   24.5523 H   0  0  0  0  0  0  0  0  0  0  0  0
    9.5159    2.2168   23.0554 H   0  0  0  0  0  0  0  0  0  0  0  0
    7.5972   -1.2056   21.6500 H   0  0  0  0  0  0  0  0  0  0  0  0
    8.8612   -1.4622   20.4334 H   0  0  0  0  0  0  0  0  0  0  0  0
    8.3933   -0.7388   18.1198 H   0  0  0  0  0  0  0  0  0  0  0  0
  1  2  1  0  0  0  0
  1  3  2  0  0  0  0
  2  4  2  0  0  0  0
  3 11  1  0  0  0  0
  4 13  1  0  0  0  0
  5  7  2  0  0  0  0
  5 14  1  0  0  0  0
  6  8  1  0  0  0  0
  6 14  2  0  0  0  0
  7 15  1  0  0  0  0
  8 15  2  0  0  0  0
  9 12  1  0  0  0  0
  9 26  2  0  0  0  0
 10 12  2  0  0  0  0
 10 29  1  0  0  0  0
 11 13  1  0  0  0  0
 11 16  2  0  0  0  0
 12 24  1  0  0  0  0
 13 27  2  0  0  0  0
 14 30  1  0  0  0  0
 15 31  1  0  0  0  0
 16 25  1  0  0  0  0
 16 28  1  0  0  0  0
 17 25  1  0  0  0  0
 17 31  1  0  0  0  0
 17 32  2  0  0  0  0
 18 19  1  0  0  0  0
 18 20  1  0  0  0  0
 19 21  1  0  0  0  0
 20 22  1  0  0  0  0
 21 30  1  0  0  0  0
 22 30  1  0  0  0  0
 23 29  1  0  0  0  0
 24 31  1  0  0  0  0
 26 29  1  0  0  0  0
 27 28  1  0  0  0  0
  1 33  1  0  0  0  0
  2 34  1  0  0  0  0
  3 35  1  0  0  0  0
  4 36  1  0  0  0  0
  5 37  1  0  0  0  0
  6 38  1  0  0  0  0
  7 39  1  0  0  0  0
  8 40  1  0  0  0  0
  9 41  1  0  0  0  0
 10 42  1  0  0  0  0
 18 43  1  0  0  0  0
 18 44  1  0  0  0  0
 19 45  1  0  0  0  0
 19 46  1  0  0  0  0
 20 47  1  0  0  0  0
 20 48  1  0  0  0  0
 21 49  1  0  0  0  0
 21 50  1  0  0  0  0
 22 51  1  0  0  0  0
 22 52  1  0  0  0  0
 23 53  1  0  0  0  0
 23 54  1  0  0  0  0
 23 55  1  0  0  0  0
 24 56  1  0  0  0  0
 24 57  1  0  0  0  0
 25 58  1  0  0  0  0
 25 59  1  0  0  0  0
 28 60  1  0  0  0  0
M  END
> <clash_score>
0

> <docking_score>
-8.498830795288086

$$$$
BENZO_402_1
  -OEChem-08212023533D

 60 64  0     0  0  0  0  0  0999 V2000
    4.2750    1.7050   20.8490 C   0  0  0  0  0  0  0  0  0  0  0  0
    3.9160    2.0630   19.5520 C   0  0  0  0  0  0  0  0  0  0  0  0
    6.4089    2.0844   24.8766 C   0  0  0  0  0  0  0  0  0  0  0  0
    5.4210    0.9600   21.0930 C   0  0  0  0  0  0  0  0  0  0  0  0
    7.4847    1.4191   24.2887 C   0  0  0  0  0  0  0  0  0  0  0  0
    4.6890    1.6810   18.4640 C   0  0  0  0  0  0  0  0  0  0  0  0
    8.9960   -2.3380   25.5320 C   0  0  0  0  0  0  0  0  0  0  0  0
    9.6730   -3.4710   23.5300 C   0  0  0  0  0  0  0  0  0  0  0  0
    9.0720   -1.1280   24.8640 C   0  0  0  0  0  0  0  0  0  0  0  0
    9.7200   -2.2600   22.8630 C   0  0  0  0  0  0  0  0  0  0  0  0
    6.5777    3.3741   25.3805 C   0  0  0  0  0  0  0  0  0  0  0  0
    8.8980    3.3330   24.7088 C   0  0  0  0  0  0  0  0  0  0  0  0
    6.1790    0.5730   19.9990 C   0  0  0  0  0  0  0  0  0  0  0  0
    8.7292    2.0433   24.2048 C   0  0  0  0  0  0  0  0  0  0  0  0
    5.8300    0.9190   18.6970 C   0  0  0  0  0  0  0  0  0  0  0  0
    9.3070   -3.5340   24.8780 C   0  0  0  0  0  0  0  0  0  0  0  0
    9.3350   -1.0880   23.5010 C   0  0  0  0  0  0  0  0  0  0  0  0
    7.8222    3.9984   25.2966 C   0  0  0  0  0  0  0  0  0  0  0  0
    7.3170   -0.1610   19.8550 C   0  0  0  0  0  0  0  0  0  0  0  0
    9.0420    0.3700   21.5280 C   0  0  0  0  0  0  0  0  0  0  0  0
    7.3635   -6.1361   27.1888 C   0  0  0  0  0  0  0  0  0  0  0  0
    8.1961   -4.9735   27.7341 C   0  0  0  0  0  0  0  0  0  0  0  0
    7.1942   -6.0394   25.6709 C   0  0  0  0  0  0  0  0  0  0  0  0
    9.5196   -4.8490   26.9797 C   0  0  0  0  0  0  0  0  0  0  0  0
    8.5442   -5.8838   24.9639 C   0  0  0  0  0  0  0  0  0  0  0  0
    9.8870    1.3260   23.5730 C   0  0  0  0  0  0  0  0  0  0  0  0
    8.1890   -0.7180   20.8700 C   0  0  0  0  0  0  0  0  0  0  0  0
    6.7580    0.3810   17.8350 N   0  0  0  0  0  0  0  0  0  0  0  0
    7.6390   -0.2680   18.5410 N   0  0  0  0  0  0  0  0  0  0  0  0
    9.2562   -4.7384   25.5422 N   0  0  0  0  0  0  0  0  0  0  0  0
    9.4560    0.1560   22.8130 N   0  0  0  0  0  0  0  0  0  0  0  0
    9.2690    1.4140   20.9380 O   0  0  0  0  0  0  0  0  0  0  0  0
    8.0301    5.5891   25.9196 Cl  0  0  0  0  0  0  0  0  0  0  0  0
    3.6562    2.0083   21.6780 H   0  0  0  0  0  0  0  0  0  0  0  0
    3.0225    2.6465   19.3867 H   0  0  0  0  0  0  0  0  0  0  0  0
    5.4400    1.5979   24.9418 H   0  0  0  0  0  0  0  0  0  0  0  0
    5.7084    0.6884   22.1515 H   0  0  0  0  0  0  0  0  0  0  0  0
    7.3441    0.4143   23.8988 H   0  0  0  0  0  0  0  0  0  0  0  0
    4.3943    1.9831   17.4240 H   0  0  0  0  0  0  0  0  0  0  0  0
    8.6905   -2.3533   26.5810 H   0  0  0  0  0  0  0  0  0  0  0  0
    9.9266   -4.3896   22.9917 H   0  0  0  0  0  0  0  0  0  0  0  0
    8.9233   -0.1992   25.4231 H   0  0  0  0  0  0  0  0  0  0  0  0
   10.0650   -2.2330   21.8256 H   0  0  0  0  0  0  0  0  0  0  0  0
    5.7304    3.8806   25.8363 H   0  0  0  0  0  0  0  0  0  0  0  0
    9.8703    3.8156   24.6405 H   0  0  0  0  0  0  0  0  0  0  0  0
    7.8482   -7.0901   27.4469 H   0  0  0  0  0  0  0  0  0  0  0  0
    6.3760   -6.1438   27.6724 H   0  0  0  0  0  0  0  0  0  0  0  0
    7.6307   -4.0424   27.6403 H   0  0  0  0  0  0  0  0  0  0  0  0
    8.3915   -5.1310   28.7968 H   0  0  0  0  0  0  0  0  0  0  0  0
    6.6888   -6.9376   25.3010 H   0  0  0  0  0  0  0  0  0  0  0  0
    6.5515   -5.1859   25.4257 H   0  0  0  0  0  0  0  0  0  0  0  0
   10.0492   -3.9640   27.3414 H   0  0  0  0  0  0  0  0  0  0  0  0
   10.1431   -5.7254   27.1778 H   0  0  0  0  0  0  0  0  0  0  0  0
    9.1338   -6.7931   25.0868 H   0  0  0  0  0  0  0  0  0  0  0  0
    8.3656   -5.7264   23.8998 H   0  0  0  0  0  0  0  0  0  0  0  0
   10.4274    1.9911   22.8906 H   0  0  0  0  0  0  0  0  0  0  0  0
   10.6011    0.9882   24.3313 H   0  0  0  0  0  0  0  0  0  0  0  0
    7.5972   -1.2056   21.6500 H   0  0  0  0  0  0  0  0  0  0  0  0
    8.8612   -1.4622   20.4334 H   0  0  0  0  0  0  0  0  0  0  0  0
    8.3933   -0.7388   18.1198 H   0  0  0  0  0  0  0  0  0  0  0  0
  1  2  1  0  0  0  0
  1  4  2  0  0  0  0
  2  6  2  0  0  0  0
  3  5  2  0  0  0  0
  3 11  1  0  0  0  0
  4 13  1  0  0  0  0
  5 14  1  0  0  0  0
  6 15  1  0  0  0  0
  7  9  2  0  0  0  0
  7 16  1  0  0  0  0
  8 10  1  0  0  0  0
  8 16  2  0  0  0  0
  9 17  1  0  0  0  0
 10 17  2  0  0  0  0
 11 18  2  0  0  0  0
 12 14  2  0  0  0  0
 12 18  1  0  0  0  0
 13 15  1  0  0  0  0
 13 19  2  0  0  0  0
 14 26  1  0  0  0  0
 15 28  2  0  0  0  0
 16 30  1  0  0  0  0
 17 31  1  0  0  0  0
 18 33  1  0  0  0  0
 19 27  1  0  0  0  0
 19 29  1  0  0  0  0
 20 27  1  0  0  0  0
 20 31  1  0  0  0  0
 20 32  2  0  0  0  0
 21 22  1  0  0  0  0
 21 23  1  0  0  0  0
 22 24  1  0  0  0  0
 23 25  1  0  0  0  0
 24 30  1  0  0  0  0
 25 30  1  0  0  0  0
 26 31  1  0  0  0  0
 28 29  1  0  0  0  0
  1 34  1  0  0  0  0
  2 35  1  0  0  0  0
  3 36  1  0  0  0  0
  4 37  1  0  0  0  0
  5 38  1  0  0  0  0
  6 39  1  0  0  0  0
  7 40  1  0  0  0  0
  8 41  1  0  0  0  0
  9 42  1  0  0  0  0
 10 43  1  0  0  0  0
 11 44  1  0  0  0  0
 12 45  1  0  0  0  0
 21 46  1  0  0  0  0
 21 47  1  0  0  0  0
 22 48  1  0  0  0  0
 22 49  1  0  0  0  0
 23 50  1  0  0  0  0
 23 51  1  0  0  0  0
 24 52  1  0  0  0  0
 24 53  1  0  0  0  0
 25 54  1  0  0  0  0
 25 55  1  0  0  0  0
 26 56  1  0  0  0  0
 26 57  1  0  0  0  0
 27 58  1  0  0  0  0
 27 59  1  0  0  0  0
 29 60  1  0  0  0  0
M  END
> <clash_score>
0

> <docking_score>
-8.168724060058594

$$$$
BENZO_405_1
  -OEChem-08212023543D

 48 51  0     0  0  0  0  0  0999 V2000
   14.1526    1.4694   24.0176 C   0  0  0  0  0  0  0  0  0  0  0  0
    4.2750    1.7050   20.8490 C   0  0  0  0  0  0  0  0  0  0  0  0
   13.3741    0.8121   24.9701 C   0  0  0  0  0  0  0  0  0  0  0  0
   13.5446    2.0802   22.9208 C   0  0  0  0  0  0  0  0  0  0  0  0
    3.9160    2.0630   19.5520 C   0  0  0  0  0  0  0  0  0  0  0  0
    5.4210    0.9600   21.0930 C   0  0  0  0  0  0  0  0  0  0  0  0
   11.9875    0.7654   24.8258 C   0  0  0  0  0  0  0  0  0  0  0  0
   12.1580    2.0335   22.7765 C   0  0  0  0  0  0  0  0  0  0  0  0
    8.9960   -2.3380   25.5320 C   0  0  0  0  0  0  0  0  0  0  0  0
    9.6730   -3.4710   23.5300 C   0  0  0  0  0  0  0  0  0  0  0  0
    4.6890    1.6810   18.4640 C   0  0  0  0  0  0  0  0  0  0  0  0
    9.0720   -1.1280   24.8640 C   0  0  0  0  0  0  0  0  0  0  0  0
    9.7200   -2.2600   22.8630 C   0  0  0  0  0  0  0  0  0  0  0  0
    6.1790    0.5730   19.9990 C   0  0  0  0  0  0  0  0  0  0  0  0
    9.3070   -3.5340   24.8780 C   0  0  0  0  0  0  0  0  0  0  0  0
   11.3794    1.3761   23.7290 C   0  0  0  0  0  0  0  0  0  0  0  0
    5.8300    0.9190   18.6970 C   0  0  0  0  0  0  0  0  0  0  0  0
    9.3350   -1.0880   23.5010 C   0  0  0  0  0  0  0  0  0  0  0  0
    7.3170   -0.1610   19.8550 C   0  0  0  0  0  0  0  0  0  0  0  0
    9.0420    0.3700   21.5280 C   0  0  0  0  0  0  0  0  0  0  0  0
    9.2505   -4.8264   25.5904 C   0  0  0  0  0  0  0  0  0  0  0  0
    9.8870    1.3260   23.5730 C   0  0  0  0  0  0  0  0  0  0  0  0
    8.1890   -0.7180   20.8700 C   0  0  0  0  0  0  0  0  0  0  0  0
    6.7580    0.3810   17.8350 N   0  0  0  0  0  0  0  0  0  0  0  0
    7.6390   -0.2680   18.5410 N   0  0  0  0  0  0  0  0  0  0  0  0
    9.4560    0.1560   22.8130 N   0  0  0  0  0  0  0  0  0  0  0  0
    9.2690    1.4140   20.9380 O   0  0  0  0  0  0  0  0  0  0  0  0
   15.2322    1.5068   24.1308 H   0  0  0  0  0  0  0  0  0  0  0  0
    3.6562    2.0083   21.6780 H   0  0  0  0  0  0  0  0  0  0  0  0
   13.8473    0.3374   25.8248 H   0  0  0  0  0  0  0  0  0  0  0  0
   14.1503    2.5930   22.1795 H   0  0  0  0  0  0  0  0  0  0  0  0
    3.0225    2.6465   19.3867 H   0  0  0  0  0  0  0  0  0  0  0  0
    5.7084    0.6884   22.1515 H   0  0  0  0  0  0  0  0  0  0  0  0
   11.3889    0.2508   25.5729 H   0  0  0  0  0  0  0  0  0  0  0  0
   11.6930    2.5120   21.9187 H   0  0  0  0  0  0  0  0  0  0  0  0
    8.6919   -2.3557   26.5813 H   0  0  0  0  0  0  0  0  0  0  0  0
    9.9267   -4.3907   22.9939 H   0  0  0  0  0  0  0  0  0  0  0  0
    4.3943    1.9831   17.4240 H   0  0  0  0  0  0  0  0  0  0  0  0
    8.9217   -0.1995   25.4231 H   0  0  0  0  0  0  0  0  0  0  0  0
   10.0653   -2.2339   21.8256 H   0  0  0  0  0  0  0  0  0  0  0  0
    8.2503   -5.2678   25.5020 H   0  0  0  0  0  0  0  0  0  0  0  0
    9.9817   -5.5374   25.1845 H   0  0  0  0  0  0  0  0  0  0  0  0
    9.4841   -4.7043   26.6562 H   0  0  0  0  0  0  0  0  0  0  0  0
    9.3974    1.2912   24.5523 H   0  0  0  0  0  0  0  0  0  0  0  0
    9.5159    2.2168   23.0553 H   0  0  0  0  0  0  0  0  0  0  0  0
    7.6090   -1.2088   21.6628 H   0  0  0  0  0  0  0  0  0  0  0  0
    8.8730   -1.4654   20.4463 H   0  0  0  0  0  0  0  0  0  0  0  0
    8.3933   -0.7388   18.1198 H   0  0  0  0  0  0  0  0  0  0  0  0
  1  3  1  0  0  0  0
  1  4  2  0  0  0  0
  2  5  1  0  0  0  0
  2  6  2  0  0  0  0
  3  7  2  0  0  0  0
  4  8  1  0  0  0  0
  5 11  2  0  0  0  0
  6 14  1  0  0  0  0
  7 16  1  0  0  0  0
  8 16  2  0  0  0  0
  9 12  2  0  0  0  0
  9 15  1  0  0  0  0
 10 13  1  0  0  0  0
 10 15  2  0  0  0  0
 11 17  1  0  0  0  0
 12 18  1  0  0  0  0
 13 18  2  0  0  0  0
 14 17  1  0  0  0  0
 14 19  2  0  0  0  0
 15 21  1  0  0  0  0
 16 22  1  0  0  0  0
 17 24  2  0  0  0  0
 18 26  1  0  0  0  0
 19 23  1  0  0  0  0
 19 25  1  0  0  0  0
 20 23  1  0  0  0  0
 20 26  1  0  0  0  0
 20 27  2  0  0  0  0
 22 26  1  0  0  0  0
 24 25  1  0  0  0  0
  1 28  1  0  0  0  0
  2 29  1  0  0  0  0
  3 30  1  0  0  0  0
  4 31  1  0  0  0  0
  5 32  1  0  0  0  0
  6 33  1  0  0  0  0
  7 34  1  0  0  0  0
  8 35  1  0  0  0  0
  9 36  1  0  0  0  0
 10 37  1  0  0  0  0
 11 38  1  0  0  0  0
 12 39  1  0  0  0  0
 13 40  1  0  0  0  0
 21 41  1  0  0  0  0
 21 42  1  0  0  0  0
 21 43  1  0  0  0  0
 22 44  1  0  0  0  0
 22 45  1  0  0  0  0
 23 46  1  0  0  0  0
 23 47  1  0  0  0  0
 25 48  1  0  0  0  0
M  END
> <clash_score>
0

> <docking_score>
-9.027729034423828

$$$$
BENZO_404_1
  -OEChem-08212023543D

 45 48  0     0  0  0  0  0  0999 V2000
    4.2750    1.7050   20.8490 C   0  0  0  0  0  0  0  0  0  0  0  0
    3.9160    2.0630   19.5520 C   0  0  0  0  0  0  0  0  0  0  0  0
    5.4210    0.9600   21.0930 C   0  0  0  0  0  0  0  0  0  0  0  0
    8.9960   -2.3380   25.5320 C   0  0  0  0  0  0  0  0  0  0  0  0
    9.6730   -3.4710   23.5300 C   0  0  0  0  0  0  0  0  0  0  0  0
    4.6890    1.6810   18.4640 C   0  0  0  0  0  0  0  0  0  0  0  0
    9.0720   -1.1280   24.8640 C   0  0  0  0  0  0  0  0  0  0  0  0
    9.7200   -2.2600   22.8630 C   0  0  0  0  0  0  0  0  0  0  0  0
   12.2913    1.4279   22.6355 C   0  0  0  0  0  0  0  0  0  0  0  0
   13.6024    1.4662   23.0564 C   0  0  0  0  0  0  0  0  0  0  0  0
   12.0284    1.3764   24.9443 C   0  0  0  0  0  0  0  0  0  0  0  0
    6.1790    0.5730   19.9990 C   0  0  0  0  0  0  0  0  0  0  0  0
    9.3070   -3.5340   24.8780 C   0  0  0  0  0  0  0  0  0  0  0  0
   11.3794    1.3761   23.7290 C   0  0  0  0  0  0  0  0  0  0  0  0
    5.8300    0.9190   18.6970 C   0  0  0  0  0  0  0  0  0  0  0  0
    9.3350   -1.0880   23.5010 C   0  0  0  0  0  0  0  0  0  0  0  0
    7.3170   -0.1610   19.8550 C   0  0  0  0  0  0  0  0  0  0  0  0
    9.0420    0.3700   21.5280 C   0  0  0  0  0  0  0  0  0  0  0  0
    9.2505   -4.8264   25.5904 C   0  0  0  0  0  0  0  0  0  0  0  0
    9.8870    1.3260   23.5730 C   0  0  0  0  0  0  0  0  0  0  0  0
    8.1890   -0.7180   20.8700 C   0  0  0  0  0  0  0  0  0  0  0  0
    6.7580    0.3810   17.8350 N   0  0  0  0  0  0  0  0  0  0  0  0
    7.6390   -0.2680   18.5410 N   0  0  0  0  0  0  0  0  0  0  0  0
    9.4560    0.1560   22.8130 N   0  0  0  0  0  0  0  0  0  0  0  0
    9.2690    1.4140   20.9380 O   0  0  0  0  0  0  0  0  0  0  0  0
   13.7301    1.4394   24.7638 S   0  0  0  0  0  0  0  0  0  0  0  0
    3.6562    2.0083   21.6780 H   0  0  0  0  0  0  0  0  0  0  0  0
    3.0225    2.6465   19.3867 H   0  0  0  0  0  0  0  0  0  0  0  0
    5.7084    0.6884   22.1515 H   0  0  0  0  0  0  0  0  0  0  0  0
    8.6919   -2.3557   26.5813 H   0  0  0  0  0  0  0  0  0  0  0  0
    9.9267   -4.3907   22.9939 H   0  0  0  0  0  0  0  0  0  0  0  0
    4.3943    1.9831   17.4240 H   0  0  0  0  0  0  0  0  0  0  0  0
    8.9217   -0.1995   25.4231 H   0  0  0  0  0  0  0  0  0  0  0  0
   10.0653   -2.2339   21.8256 H   0  0  0  0  0  0  0  0  0  0  0  0
   12.0045    1.4365   21.5915 H   0  0  0  0  0  0  0  0  0  0  0  0
   14.4914    1.5078   22.4431 H   0  0  0  0  0  0  0  0  0  0  0  0
   11.5886    1.3416   25.9314 H   0  0  0  0  0  0  0  0  0  0  0  0
    8.2503   -5.2678   25.5020 H   0  0  0  0  0  0  0  0  0  0  0  0
    9.9817   -5.5374   25.1845 H   0  0  0  0  0  0  0  0  0  0  0  0
    9.4841   -4.7043   26.6562 H   0  0  0  0  0  0  0  0  0  0  0  0
    9.3974    1.2912   24.5523 H   0  0  0  0  0  0  0  0  0  0  0  0
    9.5159    2.2168   23.0553 H   0  0  0  0  0  0  0  0  0  0  0  0
    7.6090   -1.2088   21.6628 H   0  0  0  0  0  0  0  0  0  0  0  0
    8.8730   -1.4654   20.4463 H   0  0  0  0  0  0  0  0  0  0  0  0
    8.3933   -0.7388   18.1198 H   0  0  0  0  0  0  0  0  0  0  0  0
  1  2  1  0  0  0  0
  1  3  2  0  0  0  0
  2  6  2  0  0  0  0
  3 12  1  0  0  0  0
  4  7  2  0  0  0  0
  4 13  1  0  0  0  0
  5  8  1  0  0  0  0
  5 13  2  0  0  0  0
  6 15  1  0  0  0  0
  7 16  1  0  0  0  0
  8 16  2  0  0  0  0
  9 10  2  0  0  0  0
  9 14  1  0  0  0  0
 10 26  1  0  0  0  0
 11 14  2  0  0  0  0
 11 26  1  0  0  0  0
 12 15  1  0  0  0  0
 12 17  2  0  0  0  0
 13 19  1  0  0  0  0
 14 20  1  0  0  0  0
 15 22  2  0  0  0  0
 16 24  1  0  0  0  0
 17 21  1  0  0  0  0
 17 23  1  0  0  0  0
 18 21  1  0  0  0  0
 18 24  1  0  0  0  0
 18 25  2  0  0  0  0
 20 24  1  0  0  0  0
 22 23  1  0  0  0  0
  1 27  1  0  0  0  0
  2 28  1  0  0  0  0
  3 29  1  0  0  0  0
  4 30  1  0  0  0  0
  5 31  1  0  0  0  0
  6 32  1  0  0  0  0
  7 33  1  0  0  0  0
  8 34  1  0  0  0  0
  9 35  1  0  0  0  0
 10 36  1  0  0  0  0
 11 37  1  0  0  0  0
 19 38  1  0  0  0  0
 19 39  1  0  0  0  0
 19 40  1  0  0  0  0
 20 41  1  0  0  0  0
 20 42  1  0  0  0  0
 21 43  1  0  0  0  0
 21 44  1  0  0  0  0
 23 45  1  0  0  0  0
M  END
> <clash_score>
0

> <docking_score>
-9.106586456298828

$$$$
BENZO_407_1
  -OEChem-08212023543D

 48 51  0     0  0  0  0  0  0999 V2000
    4.2750    1.7050   20.8490 C   0  0  0  0  0  0  0  0  0  0  0  0
    3.9160    2.0630   19.5520 C   0  0  0  0  0  0  0  0  0  0  0  0
    5.4210    0.9600   21.0930 C   0  0  0  0  0  0  0  0  0  0  0  0
    8.9960   -2.3380   25.5320 C   0  0  0  0  0  0  0  0  0  0  0  0
    9.6730   -3.4710   23.5300 C   0  0  0  0  0  0  0  0  0  0  0  0
    4.6890    1.6810   18.4640 C   0  0  0  0  0  0  0  0  0  0  0  0
    9.0720   -1.1280   24.8640 C   0  0  0  0  0  0  0  0  0  0  0  0
    9.7200   -2.2600   22.8630 C   0  0  0  0  0  0  0  0  0  0  0  0
   12.1233    1.3811   24.9242 C   0  0  0  0  0  0  0  0  0  0  0  0
   12.3261    1.4247   22.7351 C   0  0  0  0  0  0  0  0  0  0  0  0
    6.1790    0.5730   19.9990 C   0  0  0  0  0  0  0  0  0  0  0  0
    9.3070   -3.5340   24.8780 C   0  0  0  0  0  0  0  0  0  0  0  0
   11.3794    1.3761   23.7290 C   0  0  0  0  0  0  0  0  0  0  0  0
    5.8300    0.9190   18.6970 C   0  0  0  0  0  0  0  0  0  0  0  0
    9.3350   -1.0880   23.5010 C   0  0  0  0  0  0  0  0  0  0  0  0
    7.3170   -0.1610   19.8550 C   0  0  0  0  0  0  0  0  0  0  0  0
    9.0420    0.3700   21.5280 C   0  0  0  0  0  0  0  0  0  0  0  0
    9.2505   -4.8264   25.5904 C   0  0  0  0  0  0  0  0  0  0  0  0
   14.8305    1.5084   22.7418 C   0  0  0  0  0  0  0  0  0  0  0  0
    9.8870    1.3260   23.5730 C   0  0  0  0  0  0  0  0  0  0  0  0
    8.1890   -0.7180   20.8700 C   0  0  0  0  0  0  0  0  0  0  0  0
   13.4410    1.4289   24.7112 N   0  0  0  0  0  0  0  0  0  0  0  0
    6.7580    0.3810   17.8350 N   0  0  0  0  0  0  0  0  0  0  0  0
    7.6390   -0.2680   18.5410 N   0  0  0  0  0  0  0  0  0  0  0  0
   13.5326    1.4543   23.3706 N   0  0  0  0  0  0  0  0  0  0  0  0
    9.4560    0.1560   22.8130 N   0  0  0  0  0  0  0  0  0  0  0  0
    9.2690    1.4140   20.9380 O   0  0  0  0  0  0  0  0  0  0  0  0
    3.6562    2.0083   21.6780 H   0  0  0  0  0  0  0  0  0  0  0  0
    3.0225    2.6465   19.3867 H   0  0  0  0  0  0  0  0  0  0  0  0
    5.7084    0.6884   22.1515 H   0  0  0  0  0  0  0  0  0  0  0  0
    8.6919   -2.3557   26.5813 H   0  0  0  0  0  0  0  0  0  0  0  0
    9.9267   -4.3907   22.9939 H   0  0  0  0  0  0  0  0  0  0  0  0
    4.3943    1.9831   17.4240 H   0  0  0  0  0  0  0  0  0  0  0  0
    8.9217   -0.1995   25.4231 H   0  0  0  0  0  0  0  0  0  0  0  0
   10.0653   -2.2339   21.8256 H   0  0  0  0  0  0  0  0  0  0  0  0
   11.7624    1.3510   25.9426 H   0  0  0  0  0  0  0  0  0  0  0  0
   12.2462    1.4390   21.6566 H   0  0  0  0  0  0  0  0  0  0  0  0
    8.2503   -5.2678   25.5020 H   0  0  0  0  0  0  0  0  0  0  0  0
    9.9817   -5.5374   25.1845 H   0  0  0  0  0  0  0  0  0  0  0  0
    9.4841   -4.7043   26.6562 H   0  0  0  0  0  0  0  0  0  0  0  0
   15.0990    2.5601   22.6124 H   0  0  0  0  0  0  0  0  0  0  0  0
   15.5636    1.0018   23.3756 H   0  0  0  0  0  0  0  0  0  0  0  0
   14.7841    1.0025   21.7733 H   0  0  0  0  0  0  0  0  0  0  0  0
    9.3974    1.2912   24.5523 H   0  0  0  0  0  0  0  0  0  0  0  0
    9.5159    2.2168   23.0553 H   0  0  0  0  0  0  0  0  0  0  0  0
    7.6090   -1.2088   21.6628 H   0  0  0  0  0  0  0  0  0  0  0  0
    8.8730   -1.4654   20.4463 H   0  0  0  0  0  0  0  0  0  0  0  0
    8.3933   -0.7388   18.1198 H   0  0  0  0  0  0  0  0  0  0  0  0
  1  2  1  0  0  0  0
  1  3  2  0  0  0  0
  2  6  2  0  0  0  0
  3 11  1  0  0  0  0
  4  7  2  0  0  0  0
  4 12  1  0  0  0  0
  5  8  1  0  0  0  0
  5 12  2  0  0  0  0
  6 14  1  0  0  0  0
  7 15  1  0  0  0  0
  8 15  2  0  0  0  0
  9 13  1  0  0  0  0
  9 22  2  0  0  0  0
 10 13  2  0  0  0  0
 10 25  1  0  0  0  0
 11 14  1  0  0  0  0
 11 16  2  0  0  0  0
 12 18  1  0  0  0  0
 13 20  1  0  0  0  0
 14 23  2  0  0  0  0
 15 26  1  0  0  0  0
 16 21  1  0  0  0  0
 16 24  1  0  0  0  0
 17 21  1  0  0  0  0
 17 26  1  0  0  0  0
 17 27  2  0  0  0  0
 19 25  1  0  0  0  0
 20 26  1  0  0  0  0
 22 25  1  0  0  0  0
 23 24  1  0  0  0  0
  1 28  1  0  0  0  0
  2 29  1  0  0  0  0
  3 30  1  0  0  0  0
  4 31  1  0  0  0  0
  5 32  1  0  0  0  0
  6 33  1  0  0  0  0
  7 34  1  0  0  0  0
  8 35  1  0  0  0  0
  9 36  1  0  0  0  0
 10 37  1  0  0  0  0
 18 38  1  0  0  0  0
 18 39  1  0  0  0  0
 18 40  1  0  0  0  0
 19 41  1  0  0  0  0
 19 42  1  0  0  0  0
 19 43  1  0  0  0  0
 20 44  1  0  0  0  0
 20 45  1  0  0  0  0
 21 46  1  0  0  0  0
 21 47  1  0  0  0  0
 24 48  1  0  0  0  0
M  END
> <clash_score>
0

> <docking_score>
-8.743858337402344

$$$$
BENZO_406_1
  -OEChem-08212023543D

 48 51  0     0  0  0  0  0  0999 V2000
    4.2750    1.7050   20.8490 C   0  0  0  0  0  0  0  0  0  0  0  0
    3.9160    2.0630   19.5520 C   0  0  0  0  0  0  0  0  0  0  0  0
    6.4089    2.0844   24.8766 C   0  0  0  0  0  0  0  0  0  0  0  0
    5.4210    0.9600   21.0930 C   0  0  0  0  0  0  0  0  0  0  0  0
    7.4847    1.4191   24.2887 C   0  0  0  0  0  0  0  0  0  0  0  0
    8.9960   -2.3380   25.5320 C   0  0  0  0  0  0  0  0  0  0  0  0
    9.6730   -3.4710   23.5300 C   0  0  0  0  0  0  0  0  0  0  0  0
    4.6890    1.6810   18.4640 C   0  0  0  0  0  0  0  0  0  0  0  0
    9.0720   -1.1280   24.8640 C   0  0  0  0  0  0  0  0  0  0  0  0
    9.7200   -2.2600   22.8630 C   0  0  0  0  0  0  0  0  0  0  0  0
    6.5777    3.3741   25.3805 C   0  0  0  0  0  0  0  0  0  0  0  0
    8.8980    3.3330   24.7088 C   0  0  0  0  0  0  0  0  0  0  0  0
    6.1790    0.5730   19.9990 C   0  0  0  0  0  0  0  0  0  0  0  0
    9.3070   -3.5340   24.8780 C   0  0  0  0  0  0  0  0  0  0  0  0
    8.7292    2.0433   24.2048 C   0  0  0  0  0  0  0  0  0  0  0  0
    5.8300    0.9190   18.6970 C   0  0  0  0  0  0  0  0  0  0  0  0
    9.3350   -1.0880   23.5010 C   0  0  0  0  0  0  0  0  0  0  0  0
    7.8222    3.9984   25.2966 C   0  0  0  0  0  0  0  0  0  0  0  0
    7.3170   -0.1610   19.8550 C   0  0  0  0  0  0  0  0  0  0  0  0
    9.0420    0.3700   21.5280 C   0  0  0  0  0  0  0  0  0  0  0  0
    9.2505   -4.8264   25.5904 C   0  0  0  0  0  0  0  0  0  0  0  0
    9.8870    1.3260   23.5730 C   0  0  0  0  0  0  0  0  0  0  0  0
    8.1890   -0.7180   20.8700 C   0  0  0  0  0  0  0  0  0  0  0  0
    6.7580    0.3810   17.8350 N   0  0  0  0  0  0  0  0  0  0  0  0
    7.6390   -0.2680   18.5410 N   0  0  0  0  0  0  0  0  0  0  0  0
    9.4560    0.1560   22.8130 N   0  0  0  0  0  0  0  0  0  0  0  0
    9.2690    1.4140   20.9380 O   0  0  0  0  0  0  0  0  0  0  0  0
    8.0301    5.5891   25.9196 Cl  0  0  0  0  0  0  0  0  0  0  0  0
    3.6562    2.0083   21.6780 H   0  0  0  0  0  0  0  0  0  0  0  0
    3.0225    2.6465   19.3867 H   0  0  0  0  0  0  0  0  0  0  0  0
    5.4400    1.5979   24.9418 H   0  0  0  0  0  0  0  0  0  0  0  0
    5.7084    0.6884   22.1515 H   0  0  0  0  0  0  0  0  0  0  0  0
    7.3441    0.4143   23.8988 H   0  0  0  0  0  0  0  0  0  0  0  0
    8.6919   -2.3557   26.5813 H   0  0  0  0  0  0  0  0  0  0  0  0
    9.9267   -4.3907   22.9939 H   0  0  0  0  0  0  0  0  0  0  0  0
    4.3943    1.9831   17.4240 H   0  0  0  0  0  0  0  0  0  0  0  0
    8.9217   -0.1995   25.4231 H   0  0  0  0  0  0  0  0  0  0  0  0
   10.0653   -2.2339   21.8256 H   0  0  0  0  0  0  0  0  0  0  0  0
    5.7304    3.8806   25.8363 H   0  0  0  0  0  0  0  0  0  0  0  0
    9.8703    3.8156   24.6405 H   0  0  0  0  0  0  0  0  0  0  0  0
    8.2503   -5.2678   25.5020 H   0  0  0  0  0  0  0  0  0  0  0  0
    9.9817   -5.5374   25.1845 H   0  0  0  0  0  0  0  0  0  0  0  0
    9.4841   -4.7043   26.6562 H   0  0  0  0  0  0  0  0  0  0  0  0
   10.4274    1.9911   22.8906 H   0  0  0  0  0  0  0  0  0  0  0  0
   10.6011    0.9882   24.3313 H   0  0  0  0  0  0  0  0  0  0  0  0
    7.6090   -1.2088   21.6628 H   0  0  0  0  0  0  0  0  0  0  0  0
    8.8730   -1.4654   20.4463 H   0  0  0  0  0  0  0  0  0  0  0  0
    8.3933   -0.7388   18.1198 H   0  0  0  0  0  0  0  0  0  0  0  0
  1  2  1  0  0  0  0
  1  4  2  0  0  0  0
  2  8  2  0  0  0  0
  3  5  2  0  0  0  0
  3 11  1  0  0  0  0
  4 13  1  0  0  0  0
  5 15  1  0  0  0  0
  6  9  2  0  0  0  0
  6 14  1  0  0  0  0
  7 10  1  0  0  0  0
  7 14  2  0  0  0  0
  8 16  1  0  0  0  0
  9 17  1  0  0  0  0
 10 17  2  0  0  0  0
 11 18  2  0  0  0  0
 12 15  2  0  0  0  0
 12 18  1  0  0  0  0
 13 16  1  0  0  0  0
 13 19  2  0  0  0  0
 14 21  1  0  0  0  0
 15 22  1  0  0  0  0
 16 24  2  0  0  0  0
 17 26  1  0  0  0  0
 18 28  1  0  0  0  0
 19 23  1  0  0  0  0
 19 25  1  0  0  0  0
 20 23  1  0  0  0  0
 20 26  1  0  0  0  0
 20 27  2  0  0  0  0
 22 26  1  0  0  0  0
 24 25  1  0  0  0  0
  1 29  1  0  0  0  0
  2 30  1  0  0  0  0
  3 31  1  0  0  0  0
  4 32  1  0  0  0  0
  5 33  1  0  0  0  0
  6 34  1  0  0  0  0
  7 35  1  0  0  0  0
  8 36  1  0  0  0  0
  9 37  1  0  0  0  0
 10 38  1  0  0  0  0
 11 39  1  0  0  0  0
 12 40  1  0  0  0  0
 21 41  1  0  0  0  0
 21 42  1  0  0  0  0
 21 43  1  0  0  0  0
 22 44  1  0  0  0  0
 22 45  1  0  0  0  0
 23 46  1  0  0  0  0
 23 47  1  0  0  0  0
 25 48  1  0  0  0  0
M  END
> <clash_score>
0

> <docking_score>
-8.413755416870117

$$$$
BENZO_408_1
  -OEChem-08222010583D

 46 49  0     0  0  0  0  0  0999 V2000
    4.2750    1.7050   20.8490 C   0  0  0  0  0  0  0  0  0  0  0  0
    3.9160    2.0630   19.5520 C   0  0  0  0  0  0  0  0  0  0  0  0
    5.4210    0.9600   21.0930 C   0  0  0  0  0  0  0  0  0  0  0  0
    4.6890    1.6810   18.4640 C   0  0  0  0  0  0  0  0  0  0  0  0
    9.0720   -1.1280   24.8640 C   0  0  0  0  0  0  0  0  0  0  0  0
    9.7200   -2.2600   22.8630 C   0  0  0  0  0  0  0  0  0  0  0  0
    8.9960   -2.3380   25.5320 C   0  0  0  0  0  0  0  0  0  0  0  0
    9.6730   -3.4710   23.5300 C   0  0  0  0  0  0  0  0  0  0  0  0
   12.2913    1.4279   22.6355 C   0  0  0  0  0  0  0  0  0  0  0  0
   13.6024    1.4662   23.0564 C   0  0  0  0  0  0  0  0  0  0  0  0
   12.0284    1.3764   24.9443 C   0  0  0  0  0  0  0  0  0  0  0  0
    6.1790    0.5730   19.9990 C   0  0  0  0  0  0  0  0  0  0  0  0
   11.3794    1.3761   23.7290 C   0  0  0  0  0  0  0  0  0  0  0  0
    5.8300    0.9190   18.6970 C   0  0  0  0  0  0  0  0  0  0  0  0
    9.3350   -1.0880   23.5010 C   0  0  0  0  0  0  0  0  0  0  0  0
    9.3070   -3.5340   24.8780 C   0  0  0  0  0  0  0  0  0  0  0  0
    7.3170   -0.1610   19.8550 C   0  0  0  0  0  0  0  0  0  0  0  0
    9.0420    0.3700   21.5280 C   0  0  0  0  0  0  0  0  0  0  0  0
    8.8720   -4.6805   26.9013 C   0  0  0  0  0  0  0  0  0  0  0  0
    9.8870    1.3260   23.5730 C   0  0  0  0  0  0  0  0  0  0  0  0
    8.1890   -0.7180   20.8700 C   0  0  0  0  0  0  0  0  0  0  0  0
    6.7580    0.3810   17.8350 N   0  0  0  0  0  0  0  0  0  0  0  0
    7.6390   -0.2680   18.5410 N   0  0  0  0  0  0  0  0  0  0  0  0
    9.4560    0.1560   22.8130 N   0  0  0  0  0  0  0  0  0  0  0  0
    9.2690    1.4140   20.9380 O   0  0  0  0  0  0  0  0  0  0  0  0
    9.2555   -4.7124   25.5274 O   0  0  0  0  0  0  0  0  0  0  0  0
   13.7301    1.4394   24.7638 S   0  0  0  0  0  0  0  0  0  0  0  0
    3.6562    2.0083   21.6780 H   0  0  0  0  0  0  0  0  0  0  0  0
    3.0225    2.6465   19.3867 H   0  0  0  0  0  0  0  0  0  0  0  0
    5.7084    0.6884   22.1515 H   0  0  0  0  0  0  0  0  0  0  0  0
    4.3943    1.9831   17.4240 H   0  0  0  0  0  0  0  0  0  0  0  0
    8.9221   -0.1995   25.4231 H   0  0  0  0  0  0  0  0  0  0  0  0
   10.0642   -2.2347   21.8253 H   0  0  0  0  0  0  0  0  0  0  0  0
    8.6902   -2.3588   26.5805 H   0  0  0  0  0  0  0  0  0  0  0  0
    9.9254   -4.3921   22.9961 H   0  0  0  0  0  0  0  0  0  0  0  0
   12.0045    1.4365   21.5915 H   0  0  0  0  0  0  0  0  0  0  0  0
   14.4914    1.5078   22.4431 H   0  0  0  0  0  0  0  0  0  0  0  0
   11.5886    1.3416   25.9314 H   0  0  0  0  0  0  0  0  0  0  0  0
    8.8711   -5.6964   27.3038 H   0  0  0  0  0  0  0  0  0  0  0  0
    7.8758   -4.2402   26.9923 H   0  0  0  0  0  0  0  0  0  0  0  0
    9.5894   -4.0716   27.4566 H   0  0  0  0  0  0  0  0  0  0  0  0
    9.3974    1.2912   24.5523 H   0  0  0  0  0  0  0  0  0  0  0  0
    9.5159    2.2168   23.0553 H   0  0  0  0  0  0  0  0  0  0  0  0
    7.6090   -1.2088   21.6628 H   0  0  0  0  0  0  0  0  0  0  0  0
    8.8730   -1.4654   20.4463 H   0  0  0  0  0  0  0  0  0  0  0  0
    8.3933   -0.7388   18.1198 H   0  0  0  0  0  0  0  0  0  0  0  0
  1  2  1  0  0  0  0
  1  3  2  0  0  0  0
  2  4  2  0  0  0  0
  3 12  1  0  0  0  0
  4 14  1  0  0  0  0
  5  7  2  0  0  0  0
  5 15  1  0  0  0  0
  6  8  1  0  0  0  0
  6 15  2  0  0  0  0
  7 16  1  0  0  0  0
  8 16  2  0  0  0  0
  9 10  2  0  0  0  0
  9 13  1  0  0  0  0
 10 27  1  0  0  0  0
 11 13  2  0  0  0  0
 11 27  1  0  0  0  0
 12 14  1  0  0  0  0
 12 17  2  0  0  0  0
 13 20  1  0  0  0  0
 14 22  2  0  0  0  0
 15 24  1  0  0  0  0
 16 26  1  0  0  0  0
 17 21  1  0  0  0  0
 17 23  1  0  0  0  0
 18 21  1  0  0  0  0
 18 24  1  0  0  0  0
 18 25  2  0  0  0  0
 19 26  1  0  0  0  0
 20 24  1  0  0  0  0
 22 23  1  0  0  0  0
  1 28  1  0  0  0  0
  2 29  1  0  0  0  0
  3 30  1  0  0  0  0
  4 31  1  0  0  0  0
  5 32  1  0  0  0  0
  6 33  1  0  0  0  0
  7 34  1  0  0  0  0
  8 35  1  0  0  0  0
  9 36  1  0  0  0  0
 10 37  1  0  0  0  0
 11 38  1  0  0  0  0
 19 39  1  0  0  0  0
 19 40  1  0  0  0  0
 19 41  1  0  0  0  0
 20 42  1  0  0  0  0
 20 43  1  0  0  0  0
 21 44  1  0  0  0  0
 21 45  1  0  0  0  0
 23 46  1  0  0  0  0
M  END
> <clash_score>
0

> <docking_score>
-8.842890739440918

$$$$
BENZO_409_1
  -OEChem-08222010583D

 49 52  0     0  0  0  0  0  0999 V2000
   14.1526    1.4694   24.0176 C   0  0  0  0  0  0  0  0  0  0  0  0
    4.2750    1.7050   20.8490 C   0  0  0  0  0  0  0  0  0  0  0  0
   13.3741    0.8121   24.9701 C   0  0  0  0  0  0  0  0  0  0  0  0
   13.5446    2.0802   22.9208 C   0  0  0  0  0  0  0  0  0  0  0  0
    3.9160    2.0630   19.5520 C   0  0  0  0  0  0  0  0  0  0  0  0
    5.4210    0.9600   21.0930 C   0  0  0  0  0  0  0  0  0  0  0  0
   11.9875    0.7654   24.8258 C   0  0  0  0  0  0  0  0  0  0  0  0
   12.1580    2.0335   22.7765 C   0  0  0  0  0  0  0  0  0  0  0  0
    4.6890    1.6810   18.4640 C   0  0  0  0  0  0  0  0  0  0  0  0
    9.0720   -1.1280   24.8640 C   0  0  0  0  0  0  0  0  0  0  0  0
    9.7200   -2.2600   22.8630 C   0  0  0  0  0  0  0  0  0  0  0  0
    8.9960   -2.3380   25.5320 C   0  0  0  0  0  0  0  0  0  0  0  0
    9.6730   -3.4710   23.5300 C   0  0  0  0  0  0  0  0  0  0  0  0
    6.1790    0.5730   19.9990 C   0  0  0  0  0  0  0  0  0  0  0  0
   11.3794    1.3761   23.7290 C   0  0  0  0  0  0  0  0  0  0  0  0
    5.8300    0.9190   18.6970 C   0  0  0  0  0  0  0  0  0  0  0  0
    9.3350   -1.0880   23.5010 C   0  0  0  0  0  0  0  0  0  0  0  0
    9.3070   -3.5340   24.8780 C   0  0  0  0  0  0  0  0  0  0  0  0
    7.3170   -0.1610   19.8550 C   0  0  0  0  0  0  0  0  0  0  0  0
    9.0420    0.3700   21.5280 C   0  0  0  0  0  0  0  0  0  0  0  0
    8.8720   -4.6805   26.9013 C   0  0  0  0  0  0  0  0  0  0  0  0
    9.8870    1.3260   23.5730 C   0  0  0  0  0  0  0  0  0  0  0  0
    8.1890   -0.7180   20.8700 C   0  0  0  0  0  0  0  0  0  0  0  0
    6.7580    0.3810   17.8350 N   0  0  0  0  0  0  0  0  0  0  0  0
    7.6390   -0.2680   18.5410 N   0  0  0  0  0  0  0  0  0  0  0  0
    9.4560    0.1560   22.8130 N   0  0  0  0  0  0  0  0  0  0  0  0
    9.2690    1.4140   20.9380 O   0  0  0  0  0  0  0  0  0  0  0  0
    9.2555   -4.7124   25.5274 O   0  0  0  0  0  0  0  0  0  0  0  0
   15.2322    1.5068   24.1308 H   0  0  0  0  0  0  0  0  0  0  0  0
    3.6562    2.0083   21.6780 H   0  0  0  0  0  0  0  0  0  0  0  0
   13.8473    0.3374   25.8248 H   0  0  0  0  0  0  0  0  0  0  0  0
   14.1503    2.5930   22.1795 H   0  0  0  0  0  0  0  0  0  0  0  0
    3.0225    2.6465   19.3867 H   0  0  0  0  0  0  0  0  0  0  0  0
    5.7084    0.6884   22.1515 H   0  0  0  0  0  0  0  0  0  0  0  0
   11.3889    0.2508   25.5729 H   0  0  0  0  0  0  0  0  0  0  0  0
   11.6930    2.5120   21.9187 H   0  0  0  0  0  0  0  0  0  0  0  0
    4.3943    1.9831   17.4240 H   0  0  0  0  0  0  0  0  0  0  0  0
    8.9221   -0.1995   25.4231 H   0  0  0  0  0  0  0  0  0  0  0  0
   10.0642   -2.2347   21.8253 H   0  0  0  0  0  0  0  0  0  0  0  0
    8.6902   -2.3588   26.5805 H   0  0  0  0  0  0  0  0  0  0  0  0
    9.9254   -4.3921   22.9961 H   0  0  0  0  0  0  0  0  0  0  0  0
    8.8711   -5.6964   27.3038 H   0  0  0  0  0  0  0  0  0  0  0  0
    7.8758   -4.2402   26.9923 H   0  0  0  0  0  0  0  0  0  0  0  0
    9.5894   -4.0716   27.4566 H   0  0  0  0  0  0  0  0  0  0  0  0
    9.3974    1.2912   24.5523 H   0  0  0  0  0  0  0  0  0  0  0  0
    9.5159    2.2168   23.0553 H   0  0  0  0  0  0  0  0  0  0  0  0
    7.6090   -1.2088   21.6628 H   0  0  0  0  0  0  0  0  0  0  0  0
    8.8730   -1.4654   20.4463 H   0  0  0  0  0  0  0  0  0  0  0  0
    8.3933   -0.7388   18.1198 H   0  0  0  0  0  0  0  0  0  0  0  0
  1  3  1  0  0  0  0
  1  4  2  0  0  0  0
  2  5  1  0  0  0  0
  2  6  2  0  0  0  0
  3  7  2  0  0  0  0
  4  8  1  0  0  0  0
  5  9  2  0  0  0  0
  6 14  1  0  0  0  0
  7 15  1  0  0  0  0
  8 15  2  0  0  0  0
  9 16  1  0  0  0  0
 10 12  2  0  0  0  0
 10 17  1  0  0  0  0
 11 13  1  0  0  0  0
 11 17  2  0  0  0  0
 12 18  1  0  0  0  0
 13 18  2  0  0  0  0
 14 16  1  0  0  0  0
 14 19  2  0  0  0  0
 15 22  1  0  0  0  0
 16 24  2  0  0  0  0
 17 26  1  0  0  0  0
 18 28  1  0  0  0  0
 19 23  1  0  0  0  0
 19 25  1  0  0  0  0
 20 23  1  0  0  0  0
 20 26  1  0  0  0  0
 20 27  2  0  0  0  0
 21 28  1  0  0  0  0
 22 26  1  0  0  0  0
 24 25  1  0  0  0  0
  1 29  1  0  0  0  0
  2 30  1  0  0  0  0
  3 31  1  0  0  0  0
  4 32  1  0  0  0  0
  5 33  1  0  0  0  0
  6 34  1  0  0  0  0
  7 35  1  0  0  0  0
  8 36  1  0  0  0  0
  9 37  1  0  0  0  0
 10 38  1  0  0  0  0
 11 39  1  0  0  0  0
 12 40  1  0  0  0  0
 13 41  1  0  0  0  0
 21 42  1  0  0  0  0
 21 43  1  0  0  0  0
 21 44  1  0  0  0  0
 22 45  1  0  0  0  0
 22 46  1  0  0  0  0
 23 47  1  0  0  0  0
 23 48  1  0  0  0  0
 25 49  1  0  0  0  0
M  END
> <clash_score>
0

> <docking_score>
-8.764030456542969

$$$$
BENZO_410_1
  -OEChem-08222010583D

 49 52  0     0  0  0  0  0  0999 V2000
    4.2750    1.7050   20.8490 C   0  0  0  0  0  0  0  0  0  0  0  0
    3.9160    2.0630   19.5520 C   0  0  0  0  0  0  0  0  0  0  0  0
    6.4089    2.0844   24.8766 C   0  0  0  0  0  0  0  0  0  0  0  0
    5.4210    0.9600   21.0930 C   0  0  0  0  0  0  0  0  0  0  0  0
    7.4847    1.4191   24.2887 C   0  0  0  0  0  0  0  0  0  0  0  0
    4.6890    1.6810   18.4640 C   0  0  0  0  0  0  0  0  0  0  0  0
    9.0720   -1.1280   24.8640 C   0  0  0  0  0  0  0  0  0  0  0  0
    9.7200   -2.2600   22.8630 C   0  0  0  0  0  0  0  0  0  0  0  0
    8.9960   -2.3380   25.5320 C   0  0  0  0  0  0  0  0  0  0  0  0
    9.6730   -3.4710   23.5300 C   0  0  0  0  0  0  0  0  0  0  0  0
    6.5777    3.3741   25.3805 C   0  0  0  0  0  0  0  0  0  0  0  0
    8.8980    3.3330   24.7088 C   0  0  0  0  0  0  0  0  0  0  0  0
    6.1790    0.5730   19.9990 C   0  0  0  0  0  0  0  0  0  0  0  0
    8.7292    2.0433   24.2048 C   0  0  0  0  0  0  0  0  0  0  0  0
    5.8300    0.9190   18.6970 C   0  0  0  0  0  0  0  0  0  0  0  0
    9.3350   -1.0880   23.5010 C   0  0  0  0  0  0  0  0  0  0  0  0
    9.3070   -3.5340   24.8780 C   0  0  0  0  0  0  0  0  0  0  0  0
    7.8222    3.9984   25.2966 C   0  0  0  0  0  0  0  0  0  0  0  0
    7.3170   -0.1610   19.8550 C   0  0  0  0  0  0  0  0  0  0  0  0
    9.0420    0.3700   21.5280 C   0  0  0  0  0  0  0  0  0  0  0  0
    8.8720   -4.6805   26.9013 C   0  0  0  0  0  0  0  0  0  0  0  0
    9.8870    1.3260   23.5730 C   0  0  0  0  0  0  0  0  0  0  0  0
    8.1890   -0.7180   20.8700 C   0  0  0  0  0  0  0  0  0  0  0  0
    6.7580    0.3810   17.8350 N   0  0  0  0  0  0  0  0  0  0  0  0
    7.6390   -0.2680   18.5410 N   0  0  0  0  0  0  0  0  0  0  0  0
    9.4560    0.1560   22.8130 N   0  0  0  0  0  0  0  0  0  0  0  0
    9.2690    1.4140   20.9380 O   0  0  0  0  0  0  0  0  0  0  0  0
    9.2555   -4.7124   25.5274 O   0  0  0  0  0  0  0  0  0  0  0  0
    8.0301    5.5891   25.9196 Cl  0  0  0  0  0  0  0  0  0  0  0  0
    3.6562    2.0083   21.6780 H   0  0  0  0  0  0  0  0  0  0  0  0
    3.0225    2.6465   19.3867 H   0  0  0  0  0  0  0  0  0  0  0  0
    5.4400    1.5979   24.9418 H   0  0  0  0  0  0  0  0  0  0  0  0
    5.7084    0.6884   22.1515 H   0  0  0  0  0  0  0  0  0  0  0  0
    7.3441    0.4143   23.8988 H   0  0  0  0  0  0  0  0  0  0  0  0
    4.3943    1.9831   17.4240 H   0  0  0  0  0  0  0  0  0  0  0  0
    8.9221   -0.1995   25.4231 H   0  0  0  0  0  0  0  0  0  0  0  0
   10.0642   -2.2347   21.8253 H   0  0  0  0  0  0  0  0  0  0  0  0
    8.6902   -2.3588   26.5805 H   0  0  0  0  0  0  0  0  0  0  0  0
    9.9254   -4.3921   22.9961 H   0  0  0  0  0  0  0  0  0  0  0  0
    5.7304    3.8806   25.8363 H   0  0  0  0  0  0  0  0  0  0  0  0
    9.8703    3.8156   24.6405 H   0  0  0  0  0  0  0  0  0  0  0  0
    8.8711   -5.6964   27.3038 H   0  0  0  0  0  0  0  0  0  0  0  0
    7.8758   -4.2402   26.9923 H   0  0  0  0  0  0  0  0  0  0  0  0
    9.5894   -4.0716   27.4566 H   0  0  0  0  0  0  0  0  0  0  0  0
   10.4274    1.9911   22.8906 H   0  0  0  0  0  0  0  0  0  0  0  0
   10.6011    0.9882   24.3313 H   0  0  0  0  0  0  0  0  0  0  0  0
    7.6090   -1.2088   21.6628 H   0  0  0  0  0  0  0  0  0  0  0  0
    8.8730   -1.4654   20.4463 H   0  0  0  0  0  0  0  0  0  0  0  0
    8.3933   -0.7388   18.1198 H   0  0  0  0  0  0  0  0  0  0  0  0
  1  2  1  0  0  0  0
  1  4  2  0  0  0  0
  2  6  2  0  0  0  0
  3  5  2  0  0  0  0
  3 11  1  0  0  0  0
  4 13  1  0  0  0  0
  5 14  1  0  0  0  0
  6 15  1  0  0  0  0
  7  9  2  0  0  0  0
  7 16  1  0  0  0  0
  8 10  1  0  0  0  0
  8 16  2  0  0  0  0
  9 17  1  0  0  0  0
 10 17  2  0  0  0  0
 11 18  2  0  0  0  0
 12 14  2  0  0  0  0
 12 18  1  0  0  0  0
 13 15  1  0  0  0  0
 13 19  2  0  0  0  0
 14 22  1  0  0  0  0
 15 24  2  0  0  0  0
 16 26  1  0  0  0  0
 17 28  1  0  0  0  0
 18 29  1  0  0  0  0
 19 23  1  0  0  0  0
 19 25  1  0  0  0  0
 20 23  1  0  0  0  0
 20 26  1  0  0  0  0
 20 27  2  0  0  0  0
 21 28  1  0  0  0  0
 22 26  1  0  0  0  0
 24 25  1  0  0  0  0
  1 30  1  0  0  0  0
  2 31  1  0  0  0  0
  3 32  1  0  0  0  0
  4 33  1  0  0  0  0
  5 34  1  0  0  0  0
  6 35  1  0  0  0  0
  7 36  1  0  0  0  0
  8 37  1  0  0  0  0
  9 38  1  0  0  0  0
 10 39  1  0  0  0  0
 11 40  1  0  0  0  0
 12 41  1  0  0  0  0
 21 42  1  0  0  0  0
 21 43  1  0  0  0  0
 21 44  1  0  0  0  0
 22 45  1  0  0  0  0
 22 46  1  0  0  0  0
 23 47  1  0  0  0  0
 23 48  1  0  0  0  0
 25 49  1  0  0  0  0
M  END
> <clash_score>
0

> <docking_score>
-8.150057792663574

$$$$
BENZO_411_1
  -OEChem-08222010593D

 49 52  0     0  0  0  0  0  0999 V2000
    4.2750    1.7050   20.8490 C   0  0  0  0  0  0  0  0  0  0  0  0
    3.9160    2.0630   19.5520 C   0  0  0  0  0  0  0  0  0  0  0  0
    5.4210    0.9600   21.0930 C   0  0  0  0  0  0  0  0  0  0  0  0
    4.6890    1.6810   18.4640 C   0  0  0  0  0  0  0  0  0  0  0  0
    9.0720   -1.1280   24.8640 C   0  0  0  0  0  0  0  0  0  0  0  0
    9.7200   -2.2600   22.8630 C   0  0  0  0  0  0  0  0  0  0  0  0
    8.9960   -2.3380   25.5320 C   0  0  0  0  0  0  0  0  0  0  0  0
    9.6730   -3.4710   23.5300 C   0  0  0  0  0  0  0  0  0  0  0  0
   12.1233    1.3811   24.9242 C   0  0  0  0  0  0  0  0  0  0  0  0
   12.3261    1.4247   22.7351 C   0  0  0  0  0  0  0  0  0  0  0  0
    6.1790    0.5730   19.9990 C   0  0  0  0  0  0  0  0  0  0  0  0
   11.3794    1.3761   23.7290 C   0  0  0  0  0  0  0  0  0  0  0  0
    5.8300    0.9190   18.6970 C   0  0  0  0  0  0  0  0  0  0  0  0
    9.3350   -1.0880   23.5010 C   0  0  0  0  0  0  0  0  0  0  0  0
    9.3070   -3.5340   24.8780 C   0  0  0  0  0  0  0  0  0  0  0  0
    7.3170   -0.1610   19.8550 C   0  0  0  0  0  0  0  0  0  0  0  0
    9.0420    0.3700   21.5280 C   0  0  0  0  0  0  0  0  0  0  0  0
   14.8305    1.5084   22.7418 C   0  0  0  0  0  0  0  0  0  0  0  0
    8.8720   -4.6805   26.9013 C   0  0  0  0  0  0  0  0  0  0  0  0
    9.8870    1.3260   23.5730 C   0  0  0  0  0  0  0  0  0  0  0  0
    8.1890   -0.7180   20.8700 C   0  0  0  0  0  0  0  0  0  0  0  0
   13.4410    1.4289   24.7112 N   0  0  0  0  0  0  0  0  0  0  0  0
    6.7580    0.3810   17.8350 N   0  0  0  0  0  0  0  0  0  0  0  0
    7.6390   -0.2680   18.5410 N   0  0  0  0  0  0  0  0  0  0  0  0
   13.5326    1.4543   23.3706 N   0  0  0  0  0  0  0  0  0  0  0  0
    9.4560    0.1560   22.8130 N   0  0  0  0  0  0  0  0  0  0  0  0
    9.2690    1.4140   20.9380 O   0  0  0  0  0  0  0  0  0  0  0  0
    9.2555   -4.7124   25.5274 O   0  0  0  0  0  0  0  0  0  0  0  0
    3.6562    2.0083   21.6780 H   0  0  0  0  0  0  0  0  0  0  0  0
    3.0225    2.6465   19.3867 H   0  0  0  0  0  0  0  0  0  0  0  0
    5.7084    0.6884   22.1515 H   0  0  0  0  0  0  0  0  0  0  0  0
    4.3943    1.9831   17.4240 H   0  0  0  0  0  0  0  0  0  0  0  0
    8.9221   -0.1995   25.4231 H   0  0  0  0  0  0  0  0  0  0  0  0
   10.0642   -2.2347   21.8253 H   0  0  0  0  0  0  0  0  0  0  0  0
    8.6902   -2.3588   26.5805 H   0  0  0  0  0  0  0  0  0  0  0  0
    9.9254   -4.3921   22.9961 H   0  0  0  0  0  0  0  0  0  0  0  0
   11.7624    1.3510   25.9426 H   0  0  0  0  0  0  0  0  0  0  0  0
   12.2462    1.4390   21.6566 H   0  0  0  0  0  0  0  0  0  0  0  0
   15.0990    2.5601   22.6124 H   0  0  0  0  0  0  0  0  0  0  0  0
   15.5636    1.0018   23.3756 H   0  0  0  0  0  0  0  0  0  0  0  0
   14.7841    1.0025   21.7733 H   0  0  0  0  0  0  0  0  0  0  0  0
    8.8711   -5.6964   27.3038 H   0  0  0  0  0  0  0  0  0  0  0  0
    7.8758   -4.2402   26.9923 H   0  0  0  0  0  0  0  0  0  0  0  0
    9.5894   -4.0716   27.4566 H   0  0  0  0  0  0  0  0  0  0  0  0
    9.3974    1.2912   24.5523 H   0  0  0  0  0  0  0  0  0  0  0  0
    9.5159    2.2168   23.0553 H   0  0  0  0  0  0  0  0  0  0  0  0
    7.6090   -1.2088   21.6628 H   0  0  0  0  0  0  0  0  0  0  0  0
    8.8730   -1.4654   20.4463 H   0  0  0  0  0  0  0  0  0  0  0  0
    8.3933   -0.7388   18.1198 H   0  0  0  0  0  0  0  0  0  0  0  0
  1  2  1  0  0  0  0
  1  3  2  0  0  0  0
  2  4  2  0  0  0  0
  3 11  1  0  0  0  0
  4 13  1  0  0  0  0
  5  7  2  0  0  0  0
  5 14  1  0  0  0  0
  6  8  1  0  0  0  0
  6 14  2  0  0  0  0
  7 15  1  0  0  0  0
  8 15  2  0  0  0  0
  9 12  1  0  0  0  0
  9 22  2  0  0  0  0
 10 12  2  0  0  0  0
 10 25  1  0  0  0  0
 11 13  1  0  0  0  0
 11 16  2  0  0  0  0
 12 20  1  0  0  0  0
 13 23  2  0  0  0  0
 14 26  1  0  0  0  0
 15 28  1  0  0  0  0
 16 21  1  0  0  0  0
 16 24  1  0  0  0  0
 17 21  1  0  0  0  0
 17 26  1  0  0  0  0
 17 27  2  0  0  0  0
 18 25  1  0  0  0  0
 19 28  1  0  0  0  0
 20 26  1  0  0  0  0
 22 25  1  0  0  0  0
 23 24  1  0  0  0  0
  1 29  1  0  0  0  0
  2 30  1  0  0  0  0
  3 31  1  0  0  0  0
  4 32  1  0  0  0  0
  5 33  1  0  0  0  0
  6 34  1  0  0  0  0
  7 35  1  0  0  0  0
  8 36  1  0  0  0  0
  9 37  1  0  0  0  0
 10 38  1  0  0  0  0
 18 39  1  0  0  0  0
 18 40  1  0  0  0  0
 18 41  1  0  0  0  0
 19 42  1  0  0  0  0
 19 43  1  0  0  0  0
 19 44  1  0  0  0  0
 20 45  1  0  0  0  0
 20 46  1  0  0  0  0
 21 47  1  0  0  0  0
 21 48  1  0  0  0  0
 24 49  1  0  0  0  0
M  END
> <clash_score>
0

> <docking_score>
-8.4801607131958

$$$$
BENZO_412_1
  -OEChem-08222010593D

 56 60  0     0  0  0  0  0  0999 V2000
    4.2750    1.7050   20.8490 C   0  0  0  0  0  0  0  0  0  0  0  0
    3.9160    2.0630   19.5520 C   0  0  0  0  0  0  0  0  0  0  0  0
    5.4210    0.9600   21.0930 C   0  0  0  0  0  0  0  0  0  0  0  0
    4.6890    1.6810   18.4640 C   0  0  0  0  0  0  0  0  0  0  0  0
    8.9960   -2.3380   25.5320 C   0  0  0  0  0  0  0  0  0  0  0  0
    9.6730   -3.4710   23.5300 C   0  0  0  0  0  0  0  0  0  0  0  0
    9.0720   -1.1280   24.8640 C   0  0  0  0  0  0  0  0  0  0  0  0
    9.7200   -2.2600   22.8630 C   0  0  0  0  0  0  0  0  0  0  0  0
   12.2913    1.4279   22.6355 C   0  0  0  0  0  0  0  0  0  0  0  0
   13.6024    1.4661   23.0564 C   0  0  0  0  0  0  0  0  0  0  0  0
   12.0284    1.3764   24.9443 C   0  0  0  0  0  0  0  0  0  0  0  0
    6.1790    0.5730   19.9990 C   0  0  0  0  0  0  0  0  0  0  0  0
   11.3794    1.3761   23.7290 C   0  0  0  0  0  0  0  0  0  0  0  0
    5.8300    0.9190   18.6970 C   0  0  0  0  0  0  0  0  0  0  0  0
    9.3070   -3.5340   24.8780 C   0  0  0  0  0  0  0  0  0  0  0  0
    9.3350   -1.0880   23.5010 C   0  0  0  0  0  0  0  0  0  0  0  0
    7.3170   -0.1610   19.8550 C   0  0  0  0  0  0  0  0  0  0  0  0
    8.3597   -5.0073   26.6307 C   0  0  0  0  0  0  0  0  0  0  0  0
    9.0420    0.3700   21.5280 C   0  0  0  0  0  0  0  0  0  0  0  0
    8.4720   -6.3981   27.2296 C   0  0  0  0  0  0  0  0  0  0  0  0
    9.9252   -6.7605   27.4803 C   0  0  0  0  0  0  0  0  0  0  0  0
   10.7833   -6.6094   26.2282 C   0  0  0  0  0  0  0  0  0  0  0  0
   10.0539   -5.9099   25.0823 C   0  0  0  0  0  0  0  0  0  0  0  0
    9.8870    1.3260   23.5730 C   0  0  0  0  0  0  0  0  0  0  0  0
    8.1890   -0.7180   20.8700 C   0  0  0  0  0  0  0  0  0  0  0  0
    6.7580    0.3810   17.8350 N   0  0  0  0  0  0  0  0  0  0  0  0
    7.6390   -0.2680   18.5410 N   0  0  0  0  0  0  0  0  0  0  0  0
    9.2529   -4.7797   25.5644 N   0  0  0  0  0  0  0  0  0  0  0  0
    9.4560    0.1560   22.8130 N   0  0  0  0  0  0  0  0  0  0  0  0
    7.4954   -4.2356   27.0449 O   0  0  0  0  0  0  0  0  0  0  0  0
    9.2690    1.4140   20.9380 O   0  0  0  0  0  0  0  0  0  0  0  0
   13.7301    1.4394   24.7638 S   0  0  0  0  0  0  0  0  0  0  0  0
    3.6562    2.0083   21.6780 H   0  0  0  0  0  0  0  0  0  0  0  0
    3.0225    2.6465   19.3867 H   0  0  0  0  0  0  0  0  0  0  0  0
    5.7084    0.6884   22.1515 H   0  0  0  0  0  0  0  0  0  0  0  0
    4.3943    1.9831   17.4240 H   0  0  0  0  0  0  0  0  0  0  0  0
    8.6895   -2.3529   26.5807 H   0  0  0  0  0  0  0  0  0  0  0  0
    9.9262   -4.3897   22.9916 H   0  0  0  0  0  0  0  0  0  0  0  0
    8.9224   -0.1998   25.4238 H   0  0  0  0  0  0  0  0  0  0  0  0
   10.0649   -2.2343   21.8258 H   0  0  0  0  0  0  0  0  0  0  0  0
   12.0045    1.4365   21.5915 H   0  0  0  0  0  0  0  0  0  0  0  0
   14.4914    1.5078   22.4431 H   0  0  0  0  0  0  0  0  0  0  0  0
   11.5886    1.3416   25.9314 H   0  0  0  0  0  0  0  0  0  0  0  0
    7.9325   -6.4148   28.1641 H   0  0  0  0  0  0  0  0  0  0  0  0
    8.0254   -7.0920   26.5333 H   0  0  0  0  0  0  0  0  0  0  0  0
   10.3387   -6.1267   28.2923 H   0  0  0  0  0  0  0  0  0  0  0  0
    9.9904   -7.8023   27.8537 H   0  0  0  0  0  0  0  0  0  0  0  0
   11.7037   -6.0404   26.4771 H   0  0  0  0  0  0  0  0  0  0  0  0
   11.1411   -7.6068   25.8918 H   0  0  0  0  0  0  0  0  0  0  0  0
   10.7782   -5.5162   24.3756 H   0  0  0  0  0  0  0  0  0  0  0  0
    9.4042   -6.6189   24.5807 H   0  0  0  0  0  0  0  0  0  0  0  0
    9.3974    1.2912   24.5523 H   0  0  0  0  0  0  0  0  0  0  0  0
    9.5159    2.2168   23.0554 H   0  0  0  0  0  0  0  0  0  0  0  0
    7.5972   -1.2056   21.6500 H   0  0  0  0  0  0  0  0  0  0  0  0
    8.8612   -1.4622   20.4334 H   0  0  0  0  0  0  0  0  0  0  0  0
    8.3933   -0.7388   18.1198 H   0  0  0  0  0  0  0  0  0  0  0  0
  1  2  1  0  0  0  0
  1  3  2  0  0  0  0
  2  4  2  0  0  0  0
  3 12  1  0  0  0  0
  4 14  1  0  0  0  0
  5  7  2  0  0  0  0
  5 15  1  0  0  0  0
  6  8  1  0  0  0  0
  6 15  2  0  0  0  0
  7 16  1  0  0  0  0
  8 16  2  0  0  0  0
  9 10  2  0  0  0  0
  9 13  1  0  0  0  0
 10 32  1  0  0  0  0
 11 13  2  0  0  0  0
 11 32  1  0  0  0  0
 12 14  1  0  0  0  0
 12 17  2  0  0  0  0
 13 24  1  0  0  0  0
 14 26  2  0  0  0  0
 15 28  1  0  0  0  0
 16 29  1  0  0  0  0
 17 25  1  0  0  0  0
 17 27  1  0  0  0  0
 18 20  1  0  0  0  0
 18 28  1  0  0  0  0
 18 30  2  0  0  0  0
 19 25  1  0  0  0  0
 19 29  1  0  0  0  0
 19 31  2  0  0  0  0
 20 21  1  0  0  0  0
 21 22  1  0  0  0  0
 22 23  1  0  0  0  0
 23 28  1  0  0  0  0
 24 29  1  0  0  0  0
 26 27  1  0  0  0  0
  1 33  1  0  0  0  0
  2 34  1  0  0  0  0
  3 35  1  0  0  0  0
  4 36  1  0  0  0  0
  5 37  1  0  0  0  0
  6 38  1  0  0  0  0
  7 39  1  0  0  0  0
  8 40  1  0  0  0  0
  9 41  1  0  0  0  0
 10 42  1  0  0  0  0
 11 43  1  0  0  0  0
 20 44  1  0  0  0  0
 20 45  1  0  0  0  0
 21 46  1  0  0  0  0
 21 47  1  0  0  0  0
 22 48  1  0  0  0  0
 22 49  1  0  0  0  0
 23 50  1  0  0  0  0
 23 51  1  0  0  0  0
 24 52  1  0  0  0  0
 24 53  1  0  0  0  0
 25 54  1  0  0  0  0
 25 55  1  0  0  0  0
 27 56  1  0  0  0  0
M  END
> <clash_score>
0.7790751876189459

> <docking_score>
-8.202528953552246

$$$$
BENZO_414_1
  -OEChem-08222010593D

 59 63  0     0  0  0  0  0  0999 V2000
    4.2750    1.7050   20.8490 C   0  0  0  0  0  0  0  0  0  0  0  0
    3.9160    2.0630   19.5520 C   0  0  0  0  0  0  0  0  0  0  0  0
    6.4089    2.0844   24.8766 C   0  0  0  0  0  0  0  0  0  0  0  0
    5.4210    0.9600   21.0930 C   0  0  0  0  0  0  0  0  0  0  0  0
    7.4847    1.4191   24.2887 C   0  0  0  0  0  0  0  0  0  0  0  0
    4.6890    1.6810   18.4640 C   0  0  0  0  0  0  0  0  0  0  0  0
    8.9960   -2.3380   25.5320 C   0  0  0  0  0  0  0  0  0  0  0  0
    9.6730   -3.4710   23.5300 C   0  0  0  0  0  0  0  0  0  0  0  0
    9.0720   -1.1280   24.8640 C   0  0  0  0  0  0  0  0  0  0  0  0
    9.7200   -2.2600   22.8630 C   0  0  0  0  0  0  0  0  0  0  0  0
    6.5777    3.3741   25.3805 C   0  0  0  0  0  0  0  0  0  0  0  0
    8.8980    3.3330   24.7088 C   0  0  0  0  0  0  0  0  0  0  0  0
    6.1790    0.5730   19.9990 C   0  0  0  0  0  0  0  0  0  0  0  0
    8.7292    2.0433   24.2048 C   0  0  0  0  0  0  0  0  0  0  0  0
    5.8300    0.9190   18.6970 C   0  0  0  0  0  0  0  0  0  0  0  0
    9.3070   -3.5340   24.8780 C   0  0  0  0  0  0  0  0  0  0  0  0
    9.3350   -1.0880   23.5010 C   0  0  0  0  0  0  0  0  0  0  0  0
    7.8222    3.9984   25.2966 C   0  0  0  0  0  0  0  0  0  0  0  0
    7.3170   -0.1610   19.8550 C   0  0  0  0  0  0  0  0  0  0  0  0
    8.3597   -5.0073   26.6307 C   0  0  0  0  0  0  0  0  0  0  0  0
    9.0420    0.3700   21.5280 C   0  0  0  0  0  0  0  0  0  0  0  0
    8.4720   -6.3981   27.2296 C   0  0  0  0  0  0  0  0  0  0  0  0
    9.9252   -6.7605   27.4803 C   0  0  0  0  0  0  0  0  0  0  0  0
   10.7833   -6.6094   26.2282 C   0  0  0  0  0  0  0  0  0  0  0  0
   10.0539   -5.9099   25.0823 C   0  0  0  0  0  0  0  0  0  0  0  0
    9.8870    1.3260   23.5730 C   0  0  0  0  0  0  0  0  0  0  0  0
    8.1890   -0.7180   20.8700 C   0  0  0  0  0  0  0  0  0  0  0  0
    6.7580    0.3810   17.8350 N   0  0  0  0  0  0  0  0  0  0  0  0
    7.6390   -0.2680   18.5410 N   0  0  0  0  0  0  0  0  0  0  0  0
    9.2529   -4.7797   25.5644 N   0  0  0  0  0  0  0  0  0  0  0  0
    9.4560    0.1560   22.8130 N   0  0  0  0  0  0  0  0  0  0  0  0
    7.4954   -4.2356   27.0449 O   0  0  0  0  0  0  0  0  0  0  0  0
    9.2690    1.4140   20.9380 O   0  0  0  0  0  0  0  0  0  0  0  0
    8.0301    5.5891   25.9196 Cl  0  0  0  0  0  0  0  0  0  0  0  0
    3.6562    2.0083   21.6780 H   0  0  0  0  0  0  0  0  0  0  0  0
    3.0225    2.6465   19.3867 H   0  0  0  0  0  0  0  0  0  0  0  0
    5.4400    1.5979   24.9418 H   0  0  0  0  0  0  0  0  0  0  0  0
    5.7084    0.6884   22.1515 H   0  0  0  0  0  0  0  0  0  0  0  0
    7.3441    0.4143   23.8988 H   0  0  0  0  0  0  0  0  0  0  0  0
    4.3943    1.9831   17.4240 H   0  0  0  0  0  0  0  0  0  0  0  0
    8.6895   -2.3529   26.5807 H   0  0  0  0  0  0  0  0  0  0  0  0
    9.9262   -4.3897   22.9916 H   0  0  0  0  0  0  0  0  0  0  0  0
    8.9224   -0.1998   25.4238 H   0  0  0  0  0  0  0  0  0  0  0  0
   10.0649   -2.2343   21.8258 H   0  0  0  0  0  0  0  0  0  0  0  0
    5.7304    3.8806   25.8363 H   0  0  0  0  0  0  0  0  0  0  0  0
    9.8702    3.8156   24.6405 H   0  0  0  0  0  0  0  0  0  0  0  0
    7.9325   -6.4148   28.1641 H   0  0  0  0  0  0  0  0  0  0  0  0
    8.0254   -7.0920   26.5333 H   0  0  0  0  0  0  0  0  0  0  0  0
   10.3387   -6.1267   28.2923 H   0  0  0  0  0  0  0  0  0  0  0  0
    9.9904   -7.8023   27.8537 H   0  0  0  0  0  0  0  0  0  0  0  0
   11.7037   -6.0404   26.4771 H   0  0  0  0  0  0  0  0  0  0  0  0
   11.1411   -7.6068   25.8918 H   0  0  0  0  0  0  0  0  0  0  0  0
   10.7782   -5.5162   24.3756 H   0  0  0  0  0  0  0  0  0  0  0  0
    9.4042   -6.6189   24.5807 H   0  0  0  0  0  0  0  0  0  0  0  0
   10.4274    1.9911   22.8906 H   0  0  0  0  0  0  0  0  0  0  0  0
   10.6011    0.9882   24.3313 H   0  0  0  0  0  0  0  0  0  0  0  0
    7.5972   -1.2056   21.6500 H   0  0  0  0  0  0  0  0  0  0  0  0
    8.8612   -1.4622   20.4334 H   0  0  0  0  0  0  0  0  0  0  0  0
    8.3933   -0.7388   18.1198 H   0  0  0  0  0  0  0  0  0  0  0  0
  1  2  1  0  0  0  0
  1  4  2  0  0  0  0
  2  6  2  0  0  0  0
  3  5  2  0  0  0  0
  3 11  1  0  0  0  0
  4 13  1  0  0  0  0
  5 14  1  0  0  0  0
  6 15  1  0  0  0  0
  7  9  2  0  0  0  0
  7 16  1  0  0  0  0
  8 10  1  0  0  0  0
  8 16  2  0  0  0  0
  9 17  1  0  0  0  0
 10 17  2  0  0  0  0
 11 18  2  0  0  0  0
 12 14  2  0  0  0  0
 12 18  1  0  0  0  0
 13 15  1  0  0  0  0
 13 19  2  0  0  0  0
 14 26  1  0  0  0  0
 15 28  2  0  0  0  0
 16 30  1  0  0  0  0
 17 31  1  0  0  0  0
 18 34  1  0  0  0  0
 19 27  1  0  0  0  0
 19 29  1  0  0  0  0
 20 22  1  0  0  0  0
 20 30  1  0  0  0  0
 20 32  2  0  0  0  0
 21 27  1  0  0  0  0
 21 31  1  0  0  0  0
 21 33  2  0  0  0  0
 22 23  1  0  0  0  0
 23 24  1  0  0  0  0
 24 25  1  0  0  0  0
 25 30  1  0  0  0  0
 26 31  1  0  0  0  0
 28 29  1  0  0  0  0
  1 35  1  0  0  0  0
  2 36  1  0  0  0  0
  3 37  1  0  0  0  0
  4 38  1  0  0  0  0
  5 39  1  0  0  0  0
  6 40  1  0  0  0  0
  7 41  1  0  0  0  0
  8 42  1  0  0  0  0
  9 43  1  0  0  0  0
 10 44  1  0  0  0  0
 11 45  1  0  0  0  0
 12 46  1  0  0  0  0
 22 47  1  0  0  0  0
 22 48  1  0  0  0  0
 23 49  1  0  0  0  0
 23 50  1  0  0  0  0
 24 51  1  0  0  0  0
 24 52  1  0  0  0  0
 25 53  1  0  0  0  0
 25 54  1  0  0  0  0
 26 55  1  0  0  0  0
 26 56  1  0  0  0  0
 27 57  1  0  0  0  0
 27 58  1  0  0  0  0
 29 59  1  0  0  0  0
M  END
> <clash_score>
0.7790751876189459

> <docking_score>
-7.5096845626831055

$$$$
BENZO_415_1
  -OEChem-08222010593D

 59 63  0     0  0  0  0  0  0999 V2000
    4.2750    1.7050   20.8490 C   0  0  0  0  0  0  0  0  0  0  0  0
    3.9160    2.0630   19.5520 C   0  0  0  0  0  0  0  0  0  0  0  0
    5.4210    0.9600   21.0930 C   0  0  0  0  0  0  0  0  0  0  0  0
    4.6890    1.6810   18.4640 C   0  0  0  0  0  0  0  0  0  0  0  0
    8.9960   -2.3380   25.5320 C   0  0  0  0  0  0  0  0  0  0  0  0
    9.6730   -3.4710   23.5300 C   0  0  0  0  0  0  0  0  0  0  0  0
    9.0720   -1.1280   24.8640 C   0  0  0  0  0  0  0  0  0  0  0  0
    9.7200   -2.2600   22.8630 C   0  0  0  0  0  0  0  0  0  0  0  0
   12.1233    1.3811   24.9242 C   0  0  0  0  0  0  0  0  0  0  0  0
   12.3262    1.4247   22.7351 C   0  0  0  0  0  0  0  0  0  0  0  0
    6.1790    0.5730   19.9990 C   0  0  0  0  0  0  0  0  0  0  0  0
   11.3794    1.3761   23.7290 C   0  0  0  0  0  0  0  0  0  0  0  0
    5.8300    0.9190   18.6970 C   0  0  0  0  0  0  0  0  0  0  0  0
    9.3070   -3.5340   24.8780 C   0  0  0  0  0  0  0  0  0  0  0  0
    9.3350   -1.0880   23.5010 C   0  0  0  0  0  0  0  0  0  0  0  0
    7.3170   -0.1610   19.8550 C   0  0  0  0  0  0  0  0  0  0  0  0
    8.3597   -5.0073   26.6307 C   0  0  0  0  0  0  0  0  0  0  0  0
    9.0420    0.3700   21.5280 C   0  0  0  0  0  0  0  0  0  0  0  0
    8.4720   -6.3981   27.2296 C   0  0  0  0  0  0  0  0  0  0  0  0
    9.9252   -6.7605   27.4803 C   0  0  0  0  0  0  0  0  0  0  0  0
   10.7833   -6.6094   26.2282 C   0  0  0  0  0  0  0  0  0  0  0  0
   10.0539   -5.9099   25.0823 C   0  0  0  0  0  0  0  0  0  0  0  0
   14.8305    1.5084   22.7418 C   0  0  0  0  0  0  0  0  0  0  0  0
    9.8870    1.3260   23.5730 C   0  0  0  0  0  0  0  0  0  0  0  0
    8.1890   -0.7180   20.8700 C   0  0  0  0  0  0  0  0  0  0  0  0
   13.4410    1.4289   24.7112 N   0  0  0  0  0  0  0  0  0  0  0  0
    6.7580    0.3810   17.8350 N   0  0  0  0  0  0  0  0  0  0  0  0
    7.6390   -0.2680   18.5410 N   0  0  0  0  0  0  0  0  0  0  0  0
   13.5326    1.4543   23.3707 N   0  0  0  0  0  0  0  0  0  0  0  0
    9.2529   -4.7797   25.5644 N   0  0  0  0  0  0  0  0  0  0  0  0
    9.4560    0.1560   22.8130 N   0  0  0  0  0  0  0  0  0  0  0  0
    7.4954   -4.2356   27.0449 O   0  0  0  0  0  0  0  0  0  0  0  0
    9.2690    1.4140   20.9380 O   0  0  0  0  0  0  0  0  0  0  0  0
    3.6562    2.0083   21.6780 H   0  0  0  0  0  0  0  0  0  0  0  0
    3.0225    2.6465   19.3867 H   0  0  0  0  0  0  0  0  0  0  0  0
    5.7084    0.6884   22.1515 H   0  0  0  0  0  0  0  0  0  0  0  0
    4.3943    1.9831   17.4240 H   0  0  0  0  0  0  0  0  0  0  0  0
    8.6895   -2.3529   26.5807 H   0  0  0  0  0  0  0  0  0  0  0  0
    9.9262   -4.3897   22.9916 H   0  0  0  0  0  0  0  0  0  0  0  0
    8.9224   -0.1998   25.4238 H   0  0  0  0  0  0  0  0  0  0  0  0
   10.0649   -2.2343   21.8258 H   0  0  0  0  0  0  0  0  0  0  0  0
   11.7624    1.3510   25.9426 H   0  0  0  0  0  0  0  0  0  0  0  0
   12.2462    1.4390   21.6566 H   0  0  0  0  0  0  0  0  0  0  0  0
    7.9325   -6.4148   28.1641 H   0  0  0  0  0  0  0  0  0  0  0  0
    8.0254   -7.0920   26.5333 H   0  0  0  0  0  0  0  0  0  0  0  0
   10.3387   -6.1267   28.2923 H   0  0  0  0  0  0  0  0  0  0  0  0
    9.9904   -7.8023   27.8537 H   0  0  0  0  0  0  0  0  0  0  0  0
   11.7037   -6.0404   26.4771 H   0  0  0  0  0  0  0  0  0  0  0  0
   11.1411   -7.6068   25.8918 H   0  0  0  0  0  0  0  0  0  0  0  0
   10.7782   -5.5162   24.3756 H   0  0  0  0  0  0  0  0  0  0  0  0
    9.4042   -6.6189   24.5807 H   0  0  0  0  0  0  0  0  0  0  0  0
   15.0990    2.5601   22.6124 H   0  0  0  0  0  0  0  0  0  0  0  0
   15.5636    1.0018   23.3756 H   0  0  0  0  0  0  0  0  0  0  0  0
   14.7841    1.0025   21.7733 H   0  0  0  0  0  0  0  0  0  0  0  0
    9.3974    1.2912   24.5523 H   0  0  0  0  0  0  0  0  0  0  0  0
    9.5159    2.2168   23.0554 H   0  0  0  0  0  0  0  0  0  0  0  0
    7.5972   -1.2056   21.6500 H   0  0  0  0  0  0  0  0  0  0  0  0
    8.8612   -1.4622   20.4334 H   0  0  0  0  0  0  0  0  0  0  0  0
    8.3933   -0.7388   18.1198 H   0  0  0  0  0  0  0  0  0  0  0  0
  1  2  1  0  0  0  0
  1  3  2  0  0  0  0
  2  4  2  0  0  0  0
  3 11  1  0  0  0  0
  4 13  1  0  0  0  0
  5  7  2  0  0  0  0
  5 14  1  0  0  0  0
  6  8  1  0  0  0  0
  6 14  2  0  0  0  0
  7 15  1  0  0  0  0
  8 15  2  0  0  0  0
  9 12  1  0  0  0  0
  9 26  2  0  0  0  0
 10 12  2  0  0  0  0
 10 29  1  0  0  0  0
 11 13  1  0  0  0  0
 11 16  2  0  0  0  0
 12 24  1  0  0  0  0
 13 27  2  0  0  0  0
 14 30  1  0  0  0  0
 15 31  1  0  0  0  0
 16 25  1  0  0  0  0
 16 28  1  0  0  0  0
 17 19  1  0  0  0  0
 17 30  1  0  0  0  0
 17 32  2  0  0  0  0
 18 25  1  0  0  0  0
 18 31  1  0  0  0  0
 18 33  2  0  0  0  0
 19 20  1  0  0  0  0
 20 21  1  0  0  0  0
 21 22  1  0  0  0  0
 22 30  1  0  0  0  0
 23 29  1  0  0  0  0
 24 31  1  0  0  0  0
 26 29  1  0  0  0  0
 27 28  1  0  0  0  0
  1 34  1  0  0  0  0
  2 35  1  0  0  0  0
  3 36  1  0  0  0  0
  4 37  1  0  0  0  0
  5 38  1  0  0  0  0
  6 39  1  0  0  0  0
  7 40  1  0  0  0  0
  8 41  1  0  0  0  0
  9 42  1  0  0  0  0
 10 43  1  0  0  0  0
 19 44  1  0  0  0  0
 19 45  1  0  0  0  0
 20 46  1  0  0  0  0
 20 47  1  0  0  0  0
 21 48  1  0  0  0  0
 21 49  1  0  0  0  0
 22 50  1  0  0  0  0
 22 51  1  0  0  0  0
 23 52  1  0  0  0  0
 23 53  1  0  0  0  0
 23 54  1  0  0  0  0
 24 55  1  0  0  0  0
 24 56  1  0  0  0  0
 25 57  1  0  0  0  0
 25 58  1  0  0  0  0
 28 59  1  0  0  0  0
M  END
> <clash_score>
0.7790751876189459

> <docking_score>
-7.839803695678711

$$$$
BENZO_413_1
  -OEChem-08222010593D

 59 63  0     0  0  0  0  0  0999 V2000
   14.1526    1.4694   24.0176 C   0  0  0  0  0  0  0  0  0  0  0  0
    4.2750    1.7050   20.8490 C   0  0  0  0  0  0  0  0  0  0  0  0
   13.3741    0.8121   24.9701 C   0  0  0  0  0  0  0  0  0  0  0  0
   13.5446    2.0802   22.9208 C   0  0  0  0  0  0  0  0  0  0  0  0
    3.9160    2.0630   19.5520 C   0  0  0  0  0  0  0  0  0  0  0  0
    5.4210    0.9600   21.0930 C   0  0  0  0  0  0  0  0  0  0  0  0
   11.9875    0.7654   24.8258 C   0  0  0  0  0  0  0  0  0  0  0  0
   12.1580    2.0335   22.7765 C   0  0  0  0  0  0  0  0  0  0  0  0
    4.6890    1.6810   18.4640 C   0  0  0  0  0  0  0  0  0  0  0  0
    8.9960   -2.3380   25.5320 C   0  0  0  0  0  0  0  0  0  0  0  0
    9.6730   -3.4710   23.5300 C   0  0  0  0  0  0  0  0  0  0  0  0
    9.0720   -1.1280   24.8640 C   0  0  0  0  0  0  0  0  0  0  0  0
    9.7200   -2.2600   22.8630 C   0  0  0  0  0  0  0  0  0  0  0  0
    6.1790    0.5730   19.9990 C   0  0  0  0  0  0  0  0  0  0  0  0
   11.3794    1.3761   23.7290 C   0  0  0  0  0  0  0  0  0  0  0  0
    5.8300    0.9190   18.6970 C   0  0  0  0  0  0  0  0  0  0  0  0
    9.3070   -3.5340   24.8780 C   0  0  0  0  0  0  0  0  0  0  0  0
    9.3350   -1.0880   23.5010 C   0  0  0  0  0  0  0  0  0  0  0  0
    7.3170   -0.1610   19.8550 C   0  0  0  0  0  0  0  0  0  0  0  0
    8.3597   -5.0073   26.6307 C   0  0  0  0  0  0  0  0  0  0  0  0
    9.0420    0.3700   21.5280 C   0  0  0  0  0  0  0  0  0  0  0  0
    8.4720   -6.3981   27.2296 C   0  0  0  0  0  0  0  0  0  0  0  0
    9.9252   -6.7605   27.4803 C   0  0  0  0  0  0  0  0  0  0  0  0
   10.7833   -6.6094   26.2282 C   0  0  0  0  0  0  0  0  0  0  0  0
   10.0539   -5.9099   25.0823 C   0  0  0  0  0  0  0  0  0  0  0  0
    9.8870    1.3260   23.5730 C   0  0  0  0  0  0  0  0  0  0  0  0
    8.1890   -0.7180   20.8700 C   0  0  0  0  0  0  0  0  0  0  0  0
    6.7580    0.3810   17.8350 N   0  0  0  0  0  0  0  0  0  0  0  0
    7.6390   -0.2680   18.5410 N   0  0  0  0  0  0  0  0  0  0  0  0
    9.2529   -4.7797   25.5644 N   0  0  0  0  0  0  0  0  0  0  0  0
    9.4560    0.1560   22.8130 N   0  0  0  0  0  0  0  0  0  0  0  0
    7.4954   -4.2356   27.0449 O   0  0  0  0  0  0  0  0  0  0  0  0
    9.2690    1.4140   20.9380 O   0  0  0  0  0  0  0  0  0  0  0  0
   15.2322    1.5068   24.1308 H   0  0  0  0  0  0  0  0  0  0  0  0
    3.6562    2.0083   21.6780 H   0  0  0  0  0  0  0  0  0  0  0  0
   13.8473    0.3374   25.8248 H   0  0  0  0  0  0  0  0  0  0  0  0
   14.1503    2.5930   22.1795 H   0  0  0  0  0  0  0  0  0  0  0  0
    3.0225    2.6465   19.3867 H   0  0  0  0  0  0  0  0  0  0  0  0
    5.7084    0.6884   22.1515 H   0  0  0  0  0  0  0  0  0  0  0  0
   11.3889    0.2508   25.5729 H   0  0  0  0  0  0  0  0  0  0  0  0
   11.6930    2.5120   21.9187 H   0  0  0  0  0  0  0  0  0  0  0  0
    4.3943    1.9831   17.4240 H   0  0  0  0  0  0  0  0  0  0  0  0
    8.6895   -2.3529   26.5807 H   0  0  0  0  0  0  0  0  0  0  0  0
    9.9262   -4.3897   22.9916 H   0  0  0  0  0  0  0  0  0  0  0  0
    8.9224   -0.1998   25.4238 H   0  0  0  0  0  0  0  0  0  0  0  0
   10.0649   -2.2343   21.8258 H   0  0  0  0  0  0  0  0  0  0  0  0
    7.9325   -6.4148   28.1641 H   0  0  0  0  0  0  0  0  0  0  0  0
    8.0254   -7.0920   26.5333 H   0  0  0  0  0  0  0  0  0  0  0  0
   10.3387   -6.1267   28.2923 H   0  0  0  0  0  0  0  0  0  0  0  0
    9.9904   -7.8023   27.8537 H   0  0  0  0  0  0  0  0  0  0  0  0
   11.7037   -6.0404   26.4771 H   0  0  0  0  0  0  0  0  0  0  0  0
   11.1411   -7.6068   25.8918 H   0  0  0  0  0  0  0  0  0  0  0  0
   10.7782   -5.5162   24.3756 H   0  0  0  0  0  0  0  0  0  0  0  0
    9.4042   -6.6189   24.5807 H   0  0  0  0  0  0  0  0  0  0  0  0
    9.3974    1.2912   24.5523 H   0  0  0  0  0  0  0  0  0  0  0  0
    9.5159    2.2168   23.0554 H   0  0  0  0  0  0  0  0  0  0  0  0
    7.5972   -1.2056   21.6500 H   0  0  0  0  0  0  0  0  0  0  0  0
    8.8612   -1.4622   20.4334 H   0  0  0  0  0  0  0  0  0  0  0  0
    8.3933   -0.7388   18.1198 H   0  0  0  0  0  0  0  0  0  0  0  0
  1  3  1  0  0  0  0
  1  4  2  0  0  0  0
  2  5  1  0  0  0  0
  2  6  2  0  0  0  0
  3  7  2  0  0  0  0
  4  8  1  0  0  0  0
  5  9  2  0  0  0  0
  6 14  1  0  0  0  0
  7 15  1  0  0  0  0
  8 15  2  0  0  0  0
  9 16  1  0  0  0  0
 10 12  2  0  0  0  0
 10 17  1  0  0  0  0
 11 13  1  0  0  0  0
 11 17  2  0  0  0  0
 12 18  1  0  0  0  0
 13 18  2  0  0  0  0
 14 16  1  0  0  0  0
 14 19  2  0  0  0  0
 15 26  1  0  0  0  0
 16 28  2  0  0  0  0
 17 30  1  0  0  0  0
 18 31  1  0  0  0  0
 19 27  1  0  0  0  0
 19 29  1  0  0  0  0
 20 22  1  0  0  0  0
 20 30  1  0  0  0  0
 20 32  2  0  0  0  0
 21 27  1  0  0  0  0
 21 31  1  0  0  0  0
 21 33  2  0  0  0  0
 22 23  1  0  0  0  0
 23 24  1  0  0  0  0
 24 25  1  0  0  0  0
 25 30  1  0  0  0  0
 26 31  1  0  0  0  0
 28 29  1  0  0  0  0
  1 34  1  0  0  0  0
  2 35  1  0  0  0  0
  3 36  1  0  0  0  0
  4 37  1  0  0  0  0
  5 38  1  0  0  0  0
  6 39  1  0  0  0  0
  7 40  1  0  0  0  0
  8 41  1  0  0  0  0
  9 42  1  0  0  0  0
 10 43  1  0  0  0  0
 11 44  1  0  0  0  0
 12 45  1  0  0  0  0
 13 46  1  0  0  0  0
 22 47  1  0  0  0  0
 22 48  1  0  0  0  0
 23 49  1  0  0  0  0
 23 50  1  0  0  0  0
 24 51  1  0  0  0  0
 24 52  1  0  0  0  0
 25 53  1  0  0  0  0
 25 54  1  0  0  0  0
 26 55  1  0  0  0  0
 26 56  1  0  0  0  0
 27 57  1  0  0  0  0
 27 58  1  0  0  0  0
 29 59  1  0  0  0  0
M  END
> <clash_score>
0.7790751876189459

> <docking_score>
-8.123671531677246

$$$$
BENZO_416_1
  -OEChem-08222011043D

 55 59  0     0  0  0  0  0  0999 V2000
    4.2750    1.7050   20.8490 C   0  0  0  0  0  0  0  0  0  0  0  0
    3.9160    2.0630   19.5520 C   0  0  0  0  0  0  0  0  0  0  0  0
    5.4210    0.9600   21.0930 C   0  0  0  0  0  0  0  0  0  0  0  0
    4.6890    1.6810   18.4640 C   0  0  0  0  0  0  0  0  0  0  0  0
    8.9960   -2.3380   25.5320 C   0  0  0  0  0  0  0  0  0  0  0  0
    9.6730   -3.4710   23.5300 C   0  0  0  0  0  0  0  0  0  0  0  0
    9.0720   -1.1280   24.8640 C   0  0  0  0  0  0  0  0  0  0  0  0
    9.7200   -2.2600   22.8630 C   0  0  0  0  0  0  0  0  0  0  0  0
   12.2913    1.4279   22.6355 C   0  0  0  0  0  0  0  0  0  0  0  0
   13.6024    1.4662   23.0564 C   0  0  0  0  0  0  0  0  0  0  0  0
   12.0284    1.3764   24.9443 C   0  0  0  0  0  0  0  0  0  0  0  0
    6.1790    0.5730   19.9990 C   0  0  0  0  0  0  0  0  0  0  0  0
   11.3794    1.3761   23.7290 C   0  0  0  0  0  0  0  0  0  0  0  0
    5.8300    0.9190   18.6970 C   0  0  0  0  0  0  0  0  0  0  0  0
    9.3070   -3.5340   24.8780 C   0  0  0  0  0  0  0  0  0  0  0  0
    9.3350   -1.0880   23.5010 C   0  0  0  0  0  0  0  0  0  0  0  0
    7.3170   -0.1610   19.8550 C   0  0  0  0  0  0  0  0  0  0  0  0
    9.0420    0.3700   21.5280 C   0  0  0  0  0  0  0  0  0  0  0  0
   10.0771   -5.0255   26.7193 C   0  0  0  0  0  0  0  0  0  0  0  0
    8.0927   -5.6195   25.4071 C   0  0  0  0  0  0  0  0  0  0  0  0
    9.1933   -4.9427   27.9592 C   0  0  0  0  0  0  0  0  0  0  0  0
    7.2756   -5.5290   26.6967 C   0  0  0  0  0  0  0  0  0  0  0  0
    9.8870    1.3260   23.5730 C   0  0  0  0  0  0  0  0  0  0  0  0
    8.1890   -0.7180   20.8700 C   0  0  0  0  0  0  0  0  0  0  0  0
    6.7580    0.3810   17.8350 N   0  0  0  0  0  0  0  0  0  0  0  0
    7.6390   -0.2680   18.5410 N   0  0  0  0  0  0  0  0  0  0  0  0
    9.2563   -4.7368   25.5413 N   0  0  0  0  0  0  0  0  0  0  0  0
    9.4560    0.1560   22.8130 N   0  0  0  0  0  0  0  0  0  0  0  0
    9.2690    1.4140   20.9380 O   0  0  0  0  0  0  0  0  0  0  0  0
    8.0883   -5.8459   27.8325 O   0  0  0  0  0  0  0  0  0  0  0  0
   13.7301    1.4394   24.7638 S   0  0  0  0  0  0  0  0  0  0  0  0
    3.6562    2.0083   21.6780 H   0  0  0  0  0  0  0  0  0  0  0  0
    3.0225    2.6465   19.3867 H   0  0  0  0  0  0  0  0  0  0  0  0
    5.7084    0.6884   22.1515 H   0  0  0  0  0  0  0  0  0  0  0  0
    4.3943    1.9831   17.4240 H   0  0  0  0  0  0  0  0  0  0  0  0
    8.6905   -2.3533   26.5810 H   0  0  0  0  0  0  0  0  0  0  0  0
    9.9266   -4.3896   22.9917 H   0  0  0  0  0  0  0  0  0  0  0  0
    8.9233   -0.1992   25.4232 H   0  0  0  0  0  0  0  0  0  0  0  0
   10.0650   -2.2330   21.8256 H   0  0  0  0  0  0  0  0  0  0  0  0
   12.0045    1.4365   21.5915 H   0  0  0  0  0  0  0  0  0  0  0  0
   14.4914    1.5078   22.4430 H   0  0  0  0  0  0  0  0  0  0  0  0
   11.5886    1.3416   25.9314 H   0  0  0  0  0  0  0  0  0  0  0  0
   10.8985   -4.3115   26.8085 H   0  0  0  0  0  0  0  0  0  0  0  0
   10.4915   -6.0334   26.6323 H   0  0  0  0  0  0  0  0  0  0  0  0
    8.4327   -6.6456   25.2620 H   0  0  0  0  0  0  0  0  0  0  0  0
    7.4725   -5.3241   24.5619 H   0  0  0  0  0  0  0  0  0  0  0  0
    9.7636   -5.2398   28.8419 H   0  0  0  0  0  0  0  0  0  0  0  0
    8.8236   -3.9268   28.1248 H   0  0  0  0  0  0  0  0  0  0  0  0
    6.8339   -4.5337   26.8232 H   0  0  0  0  0  0  0  0  0  0  0  0
    6.4550   -6.2521   26.6643 H   0  0  0  0  0  0  0  0  0  0  0  0
    9.3974    1.2912   24.5523 H   0  0  0  0  0  0  0  0  0  0  0  0
    9.5159    2.2168   23.0554 H   0  0  0  0  0  0  0  0  0  0  0  0
    7.5972   -1.2056   21.6500 H   0  0  0  0  0  0  0  0  0  0  0  0
    8.8612   -1.4622   20.4334 H   0  0  0  0  0  0  0  0  0  0  0  0
    8.3933   -0.7388   18.1198 H   0  0  0  0  0  0  0  0  0  0  0  0
  1  2  1  0  0  0  0
  1  3  2  0  0  0  0
  2  4  2  0  0  0  0
  3 12  1  0  0  0  0
  4 14  1  0  0  0  0
  5  7  2  0  0  0  0
  5 15  1  0  0  0  0
  6  8  1  0  0  0  0
  6 15  2  0  0  0  0
  7 16  1  0  0  0  0
  8 16  2  0  0  0  0
  9 10  2  0  0  0  0
  9 13  1  0  0  0  0
 10 31  1  0  0  0  0
 11 13  2  0  0  0  0
 11 31  1  0  0  0  0
 12 14  1  0  0  0  0
 12 17  2  0  0  0  0
 13 23  1  0  0  0  0
 14 25  2  0  0  0  0
 15 27  1  0  0  0  0
 16 28  1  0  0  0  0
 17 24  1  0  0  0  0
 17 26  1  0  0  0  0
 18 24  1  0  0  0  0
 18 28  1  0  0  0  0
 18 29  2  0  0  0  0
 19 21  1  0  0  0  0
 19 27  1  0  0  0  0
 20 22  1  0  0  0  0
 20 27  1  0  0  0  0
 21 30  1  0  0  0  0
 22 30  1  0  0  0  0
 23 28  1  0  0  0  0
 25 26  1  0  0  0  0
  1 32  1  0  0  0  0
  2 33  1  0  0  0  0
  3 34  1  0  0  0  0
  4 35  1  0  0  0  0
  5 36  1  0  0  0  0
  6 37  1  0  0  0  0
  7 38  1  0  0  0  0
  8 39  1  0  0  0  0
  9 40  1  0  0  0  0
 10 41  1  0  0  0  0
 11 42  1  0  0  0  0
 19 43  1  0  0  0  0
 19 44  1  0  0  0  0
 20 45  1  0  0  0  0
 20 46  1  0  0  0  0
 21 47  1  0  0  0  0
 21 48  1  0  0  0  0
 22 49  1  0  0  0  0
 22 50  1  0  0  0  0
 23 51  1  0  0  0  0
 23 52  1  0  0  0  0
 24 53  1  0  0  0  0
 24 54  1  0  0  0  0
 26 55  1  0  0  0  0
M  END
> <clash_score>
0

> <docking_score>
-9.18364143371582

$$$$
BENZO_417_1
  -OEChem-08222011043D

 58 62  0     0  0  0  0  0  0999 V2000
   14.1526    1.4694   24.0176 C   0  0  0  0  0  0  0  0  0  0  0  0
    4.2750    1.7050   20.8490 C   0  0  0  0  0  0  0  0  0  0  0  0
   13.3741    0.8121   24.9701 C   0  0  0  0  0  0  0  0  0  0  0  0
   13.5446    2.0802   22.9208 C   0  0  0  0  0  0  0  0  0  0  0  0
    3.9160    2.0630   19.5520 C   0  0  0  0  0  0  0  0  0  0  0  0
    5.4210    0.9600   21.0930 C   0  0  0  0  0  0  0  0  0  0  0  0
   11.9875    0.7654   24.8258 C   0  0  0  0  0  0  0  0  0  0  0  0
   12.1580    2.0335   22.7765 C   0  0  0  0  0  0  0  0  0  0  0  0
    4.6890    1.6810   18.4640 C   0  0  0  0  0  0  0  0  0  0  0  0
    8.9960   -2.3380   25.5320 C   0  0  0  0  0  0  0  0  0  0  0  0
    9.6730   -3.4710   23.5300 C   0  0  0  0  0  0  0  0  0  0  0  0
    9.0720   -1.1280   24.8640 C   0  0  0  0  0  0  0  0  0  0  0  0
    9.7200   -2.2600   22.8630 C   0  0  0  0  0  0  0  0  0  0  0  0
    6.1790    0.5730   19.9990 C   0  0  0  0  0  0  0  0  0  0  0  0
   11.3794    1.3761   23.7290 C   0  0  0  0  0  0  0  0  0  0  0  0
    5.8300    0.9190   18.6970 C   0  0  0  0  0  0  0  0  0  0  0  0
    9.3070   -3.5340   24.8780 C   0  0  0  0  0  0  0  0  0  0  0  0
    9.3350   -1.0880   23.5010 C   0  0  0  0  0  0  0  0  0  0  0  0
    7.3170   -0.1610   19.8550 C   0  0  0  0  0  0  0  0  0  0  0  0
    9.0420    0.3700   21.5280 C   0  0  0  0  0  0  0  0  0  0  0  0
   10.0771   -5.0255   26.7193 C   0  0  0  0  0  0  0  0  0  0  0  0
    8.0927   -5.6195   25.4071 C   0  0  0  0  0  0  0  0  0  0  0  0
    9.1933   -4.9427   27.9592 C   0  0  0  0  0  0  0  0  0  0  0  0
    7.2756   -5.5290   26.6967 C   0  0  0  0  0  0  0  0  0  0  0  0
    9.8870    1.3260   23.5730 C   0  0  0  0  0  0  0  0  0  0  0  0
    8.1890   -0.7180   20.8700 C   0  0  0  0  0  0  0  0  0  0  0  0
    6.7580    0.3810   17.8350 N   0  0  0  0  0  0  0  0  0  0  0  0
    7.6390   -0.2680   18.5410 N   0  0  0  0  0  0  0  0  0  0  0  0
    9.2563   -4.7368   25.5413 N   0  0  0  0  0  0  0  0  0  0  0  0
    9.4560    0.1560   22.8130 N   0  0  0  0  0  0  0  0  0  0  0  0
    9.2690    1.4140   20.9380 O   0  0  0  0  0  0  0  0  0  0  0  0
    8.0883   -5.8459   27.8325 O   0  0  0  0  0  0  0  0  0  0  0  0
   15.2322    1.5068   24.1308 H   0  0  0  0  0  0  0  0  0  0  0  0
    3.6562    2.0083   21.6780 H   0  0  0  0  0  0  0  0  0  0  0  0
   13.8473    0.3374   25.8248 H   0  0  0  0  0  0  0  0  0  0  0  0
   14.1503    2.5930   22.1795 H   0  0  0  0  0  0  0  0  0  0  0  0
    3.0225    2.6465   19.3867 H   0  0  0  0  0  0  0  0  0  0  0  0
    5.7084    0.6884   22.1515 H   0  0  0  0  0  0  0  0  0  0  0  0
   11.3889    0.2508   25.5729 H   0  0  0  0  0  0  0  0  0  0  0  0
   11.6930    2.5120   21.9187 H   0  0  0  0  0  0  0  0  0  0  0  0
    4.3943    1.9831   17.4240 H   0  0  0  0  0  0  0  0  0  0  0  0
    8.6905   -2.3533   26.5810 H   0  0  0  0  0  0  0  0  0  0  0  0
    9.9266   -4.3896   22.9917 H   0  0  0  0  0  0  0  0  0  0  0  0
    8.9233   -0.1992   25.4232 H   0  0  0  0  0  0  0  0  0  0  0  0
   10.0650   -2.2330   21.8256 H   0  0  0  0  0  0  0  0  0  0  0  0
   10.8985   -4.3115   26.8085 H   0  0  0  0  0  0  0  0  0  0  0  0
   10.4915   -6.0334   26.6323 H   0  0  0  0  0  0  0  0  0  0  0  0
    8.4327   -6.6456   25.2620 H   0  0  0  0  0  0  0  0  0  0  0  0
    7.4725   -5.3241   24.5619 H   0  0  0  0  0  0  0  0  0  0  0  0
    9.7636   -5.2398   28.8419 H   0  0  0  0  0  0  0  0  0  0  0  0
    8.8236   -3.9268   28.1248 H   0  0  0  0  0  0  0  0  0  0  0  0
    6.8339   -4.5337   26.8232 H   0  0  0  0  0  0  0  0  0  0  0  0
    6.4550   -6.2521   26.6643 H   0  0  0  0  0  0  0  0  0  0  0  0
    9.3974    1.2912   24.5523 H   0  0  0  0  0  0  0  0  0  0  0  0
    9.5159    2.2168   23.0554 H   0  0  0  0  0  0  0  0  0  0  0  0
    7.5972   -1.2056   21.6500 H   0  0  0  0  0  0  0  0  0  0  0  0
    8.8612   -1.4622   20.4334 H   0  0  0  0  0  0  0  0  0  0  0  0
    8.3933   -0.7388   18.1198 H   0  0  0  0  0  0  0  0  0  0  0  0
  1  3  1  0  0  0  0
  1  4  2  0  0  0  0
  2  5  1  0  0  0  0
  2  6  2  0  0  0  0
  3  7  2  0  0  0  0
  4  8  1  0  0  0  0
  5  9  2  0  0  0  0
  6 14  1  0  0  0  0
  7 15  1  0  0  0  0
  8 15  2  0  0  0  0
  9 16  1  0  0  0  0
 10 12  2  0  0  0  0
 10 17  1  0  0  0  0
 11 13  1  0  0  0  0
 11 17  2  0  0  0  0
 12 18  1  0  0  0  0
 13 18  2  0  0  0  0
 14 16  1  0  0  0  0
 14 19  2  0  0  0  0
 15 25  1  0  0  0  0
 16 27  2  0  0  0  0
 17 29  1  0  0  0  0
 18 30  1  0  0  0  0
 19 26  1  0  0  0  0
 19 28  1  0  0  0  0
 20 26  1  0  0  0  0
 20 30  1  0  0  0  0
 20 31  2  0  0  0  0
 21 23  1  0  0  0  0
 21 29  1  0  0  0  0
 22 24  1  0  0  0  0
 22 29  1  0  0  0  0
 23 32  1  0  0  0  0
 24 32  1  0  0  0  0
 25 30  1  0  0  0  0
 27 28  1  0  0  0  0
  1 33  1  0  0  0  0
  2 34  1  0  0  0  0
  3 35  1  0  0  0  0
  4 36  1  0  0  0  0
  5 37  1  0  0  0  0
  6 38  1  0  0  0  0
  7 39  1  0  0  0  0
  8 40  1  0  0  0  0
  9 41  1  0  0  0  0
 10 42  1  0  0  0  0
 11 43  1  0  0  0  0
 12 44  1  0  0  0  0
 13 45  1  0  0  0  0
 21 46  1  0  0  0  0
 21 47  1  0  0  0  0
 22 48  1  0  0  0  0
 22 49  1  0  0  0  0
 23 50  1  0  0  0  0
 23 51  1  0  0  0  0
 24 52  1  0  0  0  0
 24 53  1  0  0  0  0
 25 54  1  0  0  0  0
 25 55  1  0  0  0  0
 26 56  1  0  0  0  0
 26 57  1  0  0  0  0
 28 58  1  0  0  0  0
M  END
> <clash_score>
0

> <docking_score>
-9.104783058166504

$$$$
BENZO_418_1
  -OEChem-08222011043D

 58 62  0     0  0  0  0  0  0999 V2000
    4.2750    1.7050   20.8490 C   0  0  0  0  0  0  0  0  0  0  0  0
    3.9160    2.0630   19.5520 C   0  0  0  0  0  0  0  0  0  0  0  0
    6.4089    2.0844   24.8766 C   0  0  0  0  0  0  0  0  0  0  0  0
    5.4210    0.9600   21.0930 C   0  0  0  0  0  0  0  0  0  0  0  0
    7.4847    1.4191   24.2887 C   0  0  0  0  0  0  0  0  0  0  0  0
    4.6890    1.6810   18.4640 C   0  0  0  0  0  0  0  0  0  0  0  0
    8.9960   -2.3380   25.5320 C   0  0  0  0  0  0  0  0  0  0  0  0
    9.6730   -3.4710   23.5300 C   0  0  0  0  0  0  0  0  0  0  0  0
    9.0720   -1.1280   24.8640 C   0  0  0  0  0  0  0  0  0  0  0  0
    9.7200   -2.2600   22.8630 C   0  0  0  0  0  0  0  0  0  0  0  0
    6.5777    3.3741   25.3805 C   0  0  0  0  0  0  0  0  0  0  0  0
    8.8980    3.3330   24.7088 C   0  0  0  0  0  0  0  0  0  0  0  0
    6.1790    0.5730   19.9990 C   0  0  0  0  0  0  0  0  0  0  0  0
    8.7292    2.0433   24.2048 C   0  0  0  0  0  0  0  0  0  0  0  0
    5.8300    0.9190   18.6970 C   0  0  0  0  0  0  0  0  0  0  0  0
    9.3070   -3.5340   24.8780 C   0  0  0  0  0  0  0  0  0  0  0  0
    9.3350   -1.0880   23.5010 C   0  0  0  0  0  0  0  0  0  0  0  0
    7.8222    3.9984   25.2966 C   0  0  0  0  0  0  0  0  0  0  0  0
    7.3170   -0.1610   19.8550 C   0  0  0  0  0  0  0  0  0  0  0  0
    9.0420    0.3700   21.5280 C   0  0  0  0  0  0  0  0  0  0  0  0
    9.5175   -4.8597   26.9771 C   0  0  0  0  0  0  0  0  0  0  0  0
    8.5165   -5.8725   24.9808 C   0  0  0  0  0  0  0  0  0  0  0  0
    8.1868   -5.0439   27.6987 C   0  0  0  0  0  0  0  0  0  0  0  0
    7.2200   -6.0347   25.7755 C   0  0  0  0  0  0  0  0  0  0  0  0
    9.8870    1.3260   23.5730 C   0  0  0  0  0  0  0  0  0  0  0  0
    8.1890   -0.7180   20.8700 C   0  0  0  0  0  0  0  0  0  0  0  0
    6.7580    0.3810   17.8350 N   0  0  0  0  0  0  0  0  0  0  0  0
    7.6390   -0.2680   18.5410 N   0  0  0  0  0  0  0  0  0  0  0  0
    9.2563   -4.7368   25.5413 N   0  0  0  0  0  0  0  0  0  0  0  0
    9.4560    0.1560   22.8130 N   0  0  0  0  0  0  0  0  0  0  0  0
    9.2690    1.4140   20.9380 O   0  0  0  0  0  0  0  0  0  0  0  0
    7.4994   -6.1853   27.1719 O   0  0  0  0  0  0  0  0  0  0  0  0
    8.0301    5.5891   25.9196 Cl  0  0  0  0  0  0  0  0  0  0  0  0
    3.6562    2.0083   21.6780 H   0  0  0  0  0  0  0  0  0  0  0  0
    3.0225    2.6465   19.3867 H   0  0  0  0  0  0  0  0  0  0  0  0
    5.4400    1.5979   24.9418 H   0  0  0  0  0  0  0  0  0  0  0  0
    5.7084    0.6884   22.1515 H   0  0  0  0  0  0  0  0  0  0  0  0
    7.3441    0.4143   23.8988 H   0  0  0  0  0  0  0  0  0  0  0  0
    4.3943    1.9831   17.4240 H   0  0  0  0  0  0  0  0  0  0  0  0
    8.6905   -2.3533   26.5810 H   0  0  0  0  0  0  0  0  0  0  0  0
    9.9266   -4.3896   22.9917 H   0  0  0  0  0  0  0  0  0  0  0  0
    8.9233   -0.1992   25.4232 H   0  0  0  0  0  0  0  0  0  0  0  0
   10.0650   -2.2330   21.8256 H   0  0  0  0  0  0  0  0  0  0  0  0
    5.7304    3.8806   25.8363 H   0  0  0  0  0  0  0  0  0  0  0  0
    9.8703    3.8156   24.6405 H   0  0  0  0  0  0  0  0  0  0  0  0
   10.0205   -3.9698   27.3609 H   0  0  0  0  0  0  0  0  0  0  0  0
   10.1535   -5.7310   27.1549 H   0  0  0  0  0  0  0  0  0  0  0  0
    9.1181   -6.7773   25.0755 H   0  0  0  0  0  0  0  0  0  0  0  0
    8.2812   -5.7064   23.9305 H   0  0  0  0  0  0  0  0  0  0  0  0
    8.3629   -5.2252   28.7611 H   0  0  0  0  0  0  0  0  0  0  0  0
    7.5530   -4.1570   27.6103 H   0  0  0  0  0  0  0  0  0  0  0  0
    6.5459   -5.1839   25.6221 H   0  0  0  0  0  0  0  0  0  0  0  0
    6.6948   -6.9354   25.4436 H   0  0  0  0  0  0  0  0  0  0  0  0
   10.4274    1.9911   22.8906 H   0  0  0  0  0  0  0  0  0  0  0  0
   10.6011    0.9882   24.3313 H   0  0  0  0  0  0  0  0  0  0  0  0
    7.5972   -1.2056   21.6500 H   0  0  0  0  0  0  0  0  0  0  0  0
    8.8612   -1.4622   20.4334 H   0  0  0  0  0  0  0  0  0  0  0  0
    8.3933   -0.7388   18.1198 H   0  0  0  0  0  0  0  0  0  0  0  0
  1  2  1  0  0  0  0
  1  4  2  0  0  0  0
  2  6  2  0  0  0  0
  3  5  2  0  0  0  0
  3 11  1  0  0  0  0
  4 13  1  0  0  0  0
  5 14  1  0  0  0  0
  6 15  1  0  0  0  0
  7  9  2  0  0  0  0
  7 16  1  0  0  0  0
  8 10  1  0  0  0  0
  8 16  2  0  0  0  0
  9 17  1  0  0  0  0
 10 17  2  0  0  0  0
 11 18  2  0  0  0  0
 12 14  2  0  0  0  0
 12 18  1  0  0  0  0
 13 15  1  0  0  0  0
 13 19  2  0  0  0  0
 14 25  1  0  0  0  0
 15 27  2  0  0  0  0
 16 29  1  0  0  0  0
 17 30  1  0  0  0  0
 18 33  1  0  0  0  0
 19 26  1  0  0  0  0
 19 28  1  0  0  0  0
 20 26  1  0  0  0  0
 20 30  1  0  0  0  0
 20 31  2  0  0  0  0
 21 23  1  0  0  0  0
 21 29  1  0  0  0  0
 22 24  1  0  0  0  0
 22 29  1  0  0  0  0
 23 32  1  0  0  0  0
 24 32  1  0  0  0  0
 25 30  1  0  0  0  0
 27 28  1  0  0  0  0
  1 34  1  0  0  0  0
  2 35  1  0  0  0  0
  3 36  1  0  0  0  0
  4 37  1  0  0  0  0
  5 38  1  0  0  0  0
  6 39  1  0  0  0  0
  7 40  1  0  0  0  0
  8 41  1  0  0  0  0
  9 42  1  0  0  0  0
 10 43  1  0  0  0  0
 11 44  1  0  0  0  0
 12 45  1  0  0  0  0
 21 46  1  0  0  0  0
 21 47  1  0  0  0  0
 22 48  1  0  0  0  0
 22 49  1  0  0  0  0
 23 50  1  0  0  0  0
 23 51  1  0  0  0  0
 24 52  1  0  0  0  0
 24 53  1  0  0  0  0
 25 54  1  0  0  0  0
 25 55  1  0  0  0  0
 26 56  1  0  0  0  0
 26 57  1  0  0  0  0
 28 58  1  0  0  0  0
M  END
> <clash_score>
0

> <docking_score>
-8.452908515930176

$$$$
BENZO_419_1
  -OEChem-08222011043D

 58 62  0     0  0  0  0  0  0999 V2000
    4.2750    1.7050   20.8490 C   0  0  0  0  0  0  0  0  0  0  0  0
    3.9160    2.0630   19.5520 C   0  0  0  0  0  0  0  0  0  0  0  0
    5.4210    0.9600   21.0930 C   0  0  0  0  0  0  0  0  0  0  0  0
    4.6890    1.6810   18.4640 C   0  0  0  0  0  0  0  0  0  0  0  0
    8.9960   -2.3380   25.5320 C   0  0  0  0  0  0  0  0  0  0  0  0
    9.6730   -3.4710   23.5300 C   0  0  0  0  0  0  0  0  0  0  0  0
    9.0720   -1.1280   24.8640 C   0  0  0  0  0  0  0  0  0  0  0  0
    9.7200   -2.2600   22.8630 C   0  0  0  0  0  0  0  0  0  0  0  0
   12.1233    1.3811   24.9242 C   0  0  0  0  0  0  0  0  0  0  0  0
   12.3261    1.4247   22.7351 C   0  0  0  0  0  0  0  0  0  0  0  0
    6.1790    0.5730   19.9990 C   0  0  0  0  0  0  0  0  0  0  0  0
   11.3794    1.3761   23.7290 C   0  0  0  0  0  0  0  0  0  0  0  0
    5.8300    0.9190   18.6970 C   0  0  0  0  0  0  0  0  0  0  0  0
    9.3070   -3.5340   24.8780 C   0  0  0  0  0  0  0  0  0  0  0  0
    9.3350   -1.0880   23.5010 C   0  0  0  0  0  0  0  0  0  0  0  0
    7.3170   -0.1610   19.8550 C   0  0  0  0  0  0  0  0  0  0  0  0
    9.0420    0.3700   21.5280 C   0  0  0  0  0  0  0  0  0  0  0  0
   10.0771   -5.0255   26.7193 C   0  0  0  0  0  0  0  0  0  0  0  0
    8.0927   -5.6195   25.4071 C   0  0  0  0  0  0  0  0  0  0  0  0
    9.1933   -4.9427   27.9592 C   0  0  0  0  0  0  0  0  0  0  0  0
    7.2756   -5.5290   26.6967 C   0  0  0  0  0  0  0  0  0  0  0  0
   14.8305    1.5084   22.7418 C   0  0  0  0  0  0  0  0  0  0  0  0
    9.8870    1.3260   23.5730 C   0  0  0  0  0  0  0  0  0  0  0  0
    8.1890   -0.7180   20.8700 C   0  0  0  0  0  0  0  0  0  0  0  0
   13.4410    1.4289   24.7112 N   0  0  0  0  0  0  0  0  0  0  0  0
    6.7580    0.3810   17.8350 N   0  0  0  0  0  0  0  0  0  0  0  0
    7.6390   -0.2680   18.5410 N   0  0  0  0  0  0  0  0  0  0  0  0
   13.5326    1.4543   23.3707 N   0  0  0  0  0  0  0  0  0  0  0  0
    9.2563   -4.7368   25.5413 N   0  0  0  0  0  0  0  0  0  0  0  0
    9.4560    0.1560   22.8130 N   0  0  0  0  0  0  0  0  0  0  0  0
    9.2690    1.4140   20.9380 O   0  0  0  0  0  0  0  0  0  0  0  0
    8.0883   -5.8459   27.8325 O   0  0  0  0  0  0  0  0  0  0  0  0
    3.6562    2.0083   21.6780 H   0  0  0  0  0  0  0  0  0  0  0  0
    3.0225    2.6465   19.3867 H   0  0  0  0  0  0  0  0  0  0  0  0
    5.7084    0.6884   22.1515 H   0  0  0  0  0  0  0  0  0  0  0  0
    4.3943    1.9831   17.4240 H   0  0  0  0  0  0  0  0  0  0  0  0
    8.6905   -2.3533   26.5810 H   0  0  0  0  0  0  0  0  0  0  0  0
    9.9266   -4.3896   22.9917 H   0  0  0  0  0  0  0  0  0  0  0  0
    8.9233   -0.1992   25.4232 H   0  0  0  0  0  0  0  0  0  0  0  0
   10.0650   -2.2330   21.8256 H   0  0  0  0  0  0  0  0  0  0  0  0
   11.7624    1.3510   25.9426 H   0  0  0  0  0  0  0  0  0  0  0  0
   12.2462    1.4390   21.6566 H   0  0  0  0  0  0  0  0  0  0  0  0
   10.8985   -4.3115   26.8085 H   0  0  0  0  0  0  0  0  0  0  0  0
   10.4915   -6.0334   26.6323 H   0  0  0  0  0  0  0  0  0  0  0  0
    8.4327   -6.6456   25.2620 H   0  0  0  0  0  0  0  0  0  0  0  0
    7.4725   -5.3241   24.5619 H   0  0  0  0  0  0  0  0  0  0  0  0
    9.7636   -5.2398   28.8419 H   0  0  0  0  0  0  0  0  0  0  0  0
    8.8236   -3.9268   28.1248 H   0  0  0  0  0  0  0  0  0  0  0  0
    6.8339   -4.5337   26.8232 H   0  0  0  0  0  0  0  0  0  0  0  0
    6.4550   -6.2521   26.6643 H   0  0  0  0  0  0  0  0  0  0  0  0
   15.0990    2.5601   22.6124 H   0  0  0  0  0  0  0  0  0  0  0  0
   15.5636    1.0018   23.3756 H   0  0  0  0  0  0  0  0  0  0  0  0
   14.7841    1.0025   21.7733 H   0  0  0  0  0  0  0  0  0  0  0  0
    9.3974    1.2912   24.5523 H   0  0  0  0  0  0  0  0  0  0  0  0
    9.5159    2.2168   23.0554 H   0  0  0  0  0  0  0  0  0  0  0  0
    7.5972   -1.2056   21.6500 H   0  0  0  0  0  0  0  0  0  0  0  0
    8.8612   -1.4622   20.4334 H   0  0  0  0  0  0  0  0  0  0  0  0
    8.3933   -0.7388   18.1198 H   0  0  0  0  0  0  0  0  0  0  0  0
  1  2  1  0  0  0  0
  1  3  2  0  0  0  0
  2  4  2  0  0  0  0
  3 11  1  0  0  0  0
  4 13  1  0  0  0  0
  5  7  2  0  0  0  0
  5 14  1  0  0  0  0
  6  8  1  0  0  0  0
  6 14  2  0  0  0  0
  7 15  1  0  0  0  0
  8 15  2  0  0  0  0
  9 12  1  0  0  0  0
  9 25  2  0  0  0  0
 10 12  2  0  0  0  0
 10 28  1  0  0  0  0
 11 13  1  0  0  0  0
 11 16  2  0  0  0  0
 12 23  1  0  0  0  0
 13 26  2  0  0  0  0
 14 29  1  0  0  0  0
 15 30  1  0  0  0  0
 16 24  1  0  0  0  0
 16 27  1  0  0  0  0
 17 24  1  0  0  0  0
 17 30  1  0  0  0  0
 17 31  2  0  0  0  0
 18 20  1  0  0  0  0
 18 29  1  0  0  0  0
 19 21  1  0  0  0  0
 19 29  1  0  0  0  0
 20 32  1  0  0  0  0
 21 32  1  0  0  0  0
 22 28  1  0  0  0  0
 23 30  1  0  0  0  0
 25 28  1  0  0  0  0
 26 27  1  0  0  0  0
  1 33  1  0  0  0  0
  2 34  1  0  0  0  0
  3 35  1  0  0  0  0
  4 36  1  0  0  0  0
  5 37  1  0  0  0  0
  6 38  1  0  0  0  0
  7 39  1  0  0  0  0
  8 40  1  0  0  0  0
  9 41  1  0  0  0  0
 10 42  1  0  0  0  0
 18 43  1  0  0  0  0
 18 44  1  0  0  0  0
 19 45  1  0  0  0  0
 19 46  1  0  0  0  0
 20 47  1  0  0  0  0
 20 48  1  0  0  0  0
 21 49  1  0  0  0  0
 21 50  1  0  0  0  0
 22 51  1  0  0  0  0
 22 52  1  0  0  0  0
 22 53  1  0  0  0  0
 23 54  1  0  0  0  0
 23 55  1  0  0  0  0
 24 56  1  0  0  0  0
 24 57  1  0  0  0  0
 27 58  1  0  0  0  0
M  END
> <clash_score>
0

> <docking_score>
-8.8209228515625

$$$$
BENZO_420_1
  -OEChem-08222011043D

 49 52  0     0  0  0  0  0  0999 V2000
    9.0720   -1.1280   24.8640 C   0  0  0  0  0  0  0  0  0  0  0  0
    9.7200   -2.2600   22.8630 C   0  0  0  0  0  0  0  0  0  0  0  0
    8.9960   -2.3380   25.5320 C   0  0  0  0  0  0  0  0  0  0  0  0
    9.6730   -3.4710   23.5300 C   0  0  0  0  0  0  0  0  0  0  0  0
   12.2913    1.4279   22.6355 C   0  0  0  0  0  0  0  0  0  0  0  0
   13.6024    1.4662   23.0564 C   0  0  0  0  0  0  0  0  0  0  0  0
   12.0284    1.3764   24.9443 C   0  0  0  0  0  0  0  0  0  0  0  0
   11.3794    1.3761   23.7290 C   0  0  0  0  0  0  0  0  0  0  0  0
    9.3350   -1.0880   23.5010 C   0  0  0  0  0  0  0  0  0  0  0  0
    9.3070   -3.5340   24.8780 C   0  0  0  0  0  0  0  0  0  0  0  0
    6.1790    0.5730   19.9990 C   0  0  0  0  0  0  0  0  0  0  0  0
    7.3170   -0.1610   19.8550 C   0  0  0  0  0  0  0  0  0  0  0  0
    5.4210    0.9600   21.0930 C   0  0  0  0  0  0  0  0  0  0  0  0
    4.2750    1.7050   20.8490 C   0  0  0  0  0  0  0  0  0  0  0  0
    3.9160    2.0630   19.5520 C   0  0  0  0  0  0  0  0  0  0  0  0
    4.6890    1.6810   18.4640 C   0  0  0  0  0  0  0  0  0  0  0  0
    9.0420    0.3700   21.5280 C   0  0  0  0  0  0  0  0  0  0  0  0
    8.0128   -5.2151   26.1416 C   0  0  0  0  0  0  0  0  0  0  0  0
   10.4372   -5.5860   25.6589 C   0  0  0  0  0  0  0  0  0  0  0  0
    9.8870    1.3260   23.5730 C   0  0  0  0  0  0  0  0  0  0  0  0
    8.1890   -0.7180   20.8700 C   0  0  0  0  0  0  0  0  0  0  0  0
    7.6390   -0.2680   18.5410 N   0  0  0  0  0  0  0  0  0  0  0  0
    6.7580    0.3810   17.8350 N   0  0  0  0  0  0  0  0  0  0  0  0
    5.8300    0.9190   18.6970 N   0  0  0  0  0  0  0  0  0  0  0  0
    9.4560    0.1560   22.8130 N   0  0  0  0  0  0  0  0  0  0  0  0
    9.2543   -4.7552   25.5519 N   0  0  0  0  0  0  0  0  0  0  0  0
    9.2690    1.4140   20.9380 O   0  0  0  0  0  0  0  0  0  0  0  0
   13.7301    1.4394   24.7638 S   0  0  0  0  0  0  0  0  0  0  0  0
    8.9217   -0.1995   25.4232 H   0  0  0  0  0  0  0  0  0  0  0  0
   10.0643   -2.2341   21.8254 H   0  0  0  0  0  0  0  0  0  0  0  0
    8.6893   -2.3540   26.5808 H   0  0  0  0  0  0  0  0  0  0  0  0
    9.9257   -4.3898   22.9921 H   0  0  0  0  0  0  0  0  0  0  0  0
   12.0045    1.4365   21.5915 H   0  0  0  0  0  0  0  0  0  0  0  0
   14.4914    1.5078   22.4430 H   0  0  0  0  0  0  0  0  0  0  0  0
   11.5886    1.3416   25.9314 H   0  0  0  0  0  0  0  0  0  0  0  0
    5.6859    0.7081   22.1001 H   0  0  0  0  0  0  0  0  0  0  0  0
    3.6634    2.0033   21.6928 H   0  0  0  0  0  0  0  0  0  0  0  0
    3.0114    2.6564   19.3629 H   0  0  0  0  0  0  0  0  0  0  0  0
    4.4373    1.9516   17.4622 H   0  0  0  0  0  0  0  0  0  0  0  0
    8.1744   -6.1904   26.6238 H   0  0  0  0  0  0  0  0  0  0  0  0
    7.6718   -4.4870   26.8924 H   0  0  0  0  0  0  0  0  0  0  0  0
    7.2494   -5.3166   25.3561 H   0  0  0  0  0  0  0  0  0  0  0  0
   10.1946   -6.4995   26.2216 H   0  0  0  0  0  0  0  0  0  0  0  0
   10.7865   -5.8577   24.6518 H   0  0  0  0  0  0  0  0  0  0  0  0
   11.2285   -5.0312   26.1842 H   0  0  0  0  0  0  0  0  0  0  0  0
    9.3974    1.2912   24.5523 H   0  0  0  0  0  0  0  0  0  0  0  0
    9.5159    2.2168   23.0553 H   0  0  0  0  0  0  0  0  0  0  0  0
    7.6102   -1.2091   21.6640 H   0  0  0  0  0  0  0  0  0  0  0  0
    8.8741   -1.4657   20.4475 H   0  0  0  0  0  0  0  0  0  0  0  0
  1  3  2  0  0  0  0
  1  9  1  0  0  0  0
  2  4  1  0  0  0  0
  2  9  2  0  0  0  0
  3 10  1  0  0  0  0
  4 10  2  0  0  0  0
  5  6  2  0  0  0  0
  5  8  1  0  0  0  0
  6 28  1  0  0  0  0
  7  8  2  0  0  0  0
  7 28  1  0  0  0  0
  8 20  1  0  0  0  0
  9 25  1  0  0  0  0
 10 26  1  0  0  0  0
 11 12  2  0  0  0  0
 11 13  1  0  0  0  0
 11 24  1  0  0  0  0
 12 21  1  0  0  0  0
 12 22  1  0  0  0  0
 13 14  2  0  0  0  0
 14 15  1  0  0  0  0
 15 16  2  0  0  0  0
 16 24  1  0  0  0  0
 17 21  1  0  0  0  0
 17 25  1  0  0  0  0
 17 27  2  0  0  0  0
 18 26  1  0  0  0  0
 19 26  1  0  0  0  0
 20 25  1  0  0  0  0
 22 23  2  0  0  0  0
 23 24  1  0  0  0  0
  1 29  1  0  0  0  0
  2 30  1  0  0  0  0
  3 31  1  0  0  0  0
  4 32  1  0  0  0  0
  5 33  1  0  0  0  0
  6 34  1  0  0  0  0
  7 35  1  0  0  0  0
 13 36  1  0  0  0  0
 14 37  1  0  0  0  0
 15 38  1  0  0  0  0
 16 39  1  0  0  0  0
 18 40  1  0  0  0  0
 18 41  1  0  0  0  0
 18 42  1  0  0  0  0
 19 43  1  0  0  0  0
 19 44  1  0  0  0  0
 19 45  1  0  0  0  0
 20 46  1  0  0  0  0
 20 47  1  0  0  0  0
 21 48  1  0  0  0  0
 21 49  1  0  0  0  0
M  END
> <clash_score>
0

> <docking_score>
-9.940709114074707

$$$$
BENZO_423_1
  -OEChem-08222011043D

 52 55  0     0  0  0  0  0  0999 V2000
    9.0720   -1.1280   24.8640 C   0  0  0  0  0  0  0  0  0  0  0  0
    9.7200   -2.2600   22.8630 C   0  0  0  0  0  0  0  0  0  0  0  0
    8.9960   -2.3380   25.5320 C   0  0  0  0  0  0  0  0  0  0  0  0
    9.6730   -3.4710   23.5300 C   0  0  0  0  0  0  0  0  0  0  0  0
   12.1233    1.3811   24.9242 C   0  0  0  0  0  0  0  0  0  0  0  0
   12.3261    1.4247   22.7351 C   0  0  0  0  0  0  0  0  0  0  0  0
   11.3794    1.3761   23.7290 C   0  0  0  0  0  0  0  0  0  0  0  0
    9.3350   -1.0880   23.5010 C   0  0  0  0  0  0  0  0  0  0  0  0
    9.3070   -3.5340   24.8780 C   0  0  0  0  0  0  0  0  0  0  0  0
    6.1790    0.5730   19.9990 C   0  0  0  0  0  0  0  0  0  0  0  0
    7.3170   -0.1610   19.8550 C   0  0  0  0  0  0  0  0  0  0  0  0
    5.4210    0.9600   21.0930 C   0  0  0  0  0  0  0  0  0  0  0  0
    4.2750    1.7050   20.8490 C   0  0  0  0  0  0  0  0  0  0  0  0
    3.9160    2.0630   19.5520 C   0  0  0  0  0  0  0  0  0  0  0  0
    4.6890    1.6810   18.4640 C   0  0  0  0  0  0  0  0  0  0  0  0
    9.0420    0.3700   21.5280 C   0  0  0  0  0  0  0  0  0  0  0  0
   14.8305    1.5084   22.7418 C   0  0  0  0  0  0  0  0  0  0  0  0
    8.0128   -5.2151   26.1416 C   0  0  0  0  0  0  0  0  0  0  0  0
   10.4372   -5.5860   25.6589 C   0  0  0  0  0  0  0  0  0  0  0  0
    9.8870    1.3260   23.5730 C   0  0  0  0  0  0  0  0  0  0  0  0
    8.1890   -0.7180   20.8700 C   0  0  0  0  0  0  0  0  0  0  0  0
   13.4410    1.4289   24.7112 N   0  0  0  0  0  0  0  0  0  0  0  0
    7.6390   -0.2680   18.5410 N   0  0  0  0  0  0  0  0  0  0  0  0
    6.7580    0.3810   17.8350 N   0  0  0  0  0  0  0  0  0  0  0  0
   13.5326    1.4543   23.3706 N   0  0  0  0  0  0  0  0  0  0  0  0
    5.8300    0.9190   18.6970 N   0  0  0  0  0  0  0  0  0  0  0  0
    9.4560    0.1560   22.8130 N   0  0  0  0  0  0  0  0  0  0  0  0
    9.2543   -4.7552   25.5519 N   0  0  0  0  0  0  0  0  0  0  0  0
    9.2690    1.4140   20.9380 O   0  0  0  0  0  0  0  0  0  0  0  0
    8.9217   -0.1995   25.4232 H   0  0  0  0  0  0  0  0  0  0  0  0
   10.0643   -2.2341   21.8254 H   0  0  0  0  0  0  0  0  0  0  0  0
    8.6893   -2.3540   26.5808 H   0  0  0  0  0  0  0  0  0  0  0  0
    9.9257   -4.3898   22.9921 H   0  0  0  0  0  0  0  0  0  0  0  0
   11.7624    1.3510   25.9426 H   0  0  0  0  0  0  0  0  0  0  0  0
   12.2462    1.4390   21.6566 H   0  0  0  0  0  0  0  0  0  0  0  0
    5.6859    0.7081   22.1001 H   0  0  0  0  0  0  0  0  0  0  0  0
    3.6634    2.0033   21.6928 H   0  0  0  0  0  0  0  0  0  0  0  0
    3.0114    2.6564   19.3629 H   0  0  0  0  0  0  0  0  0  0  0  0
    4.4373    1.9516   17.4622 H   0  0  0  0  0  0  0  0  0  0  0  0
   15.0990    2.5601   22.6124 H   0  0  0  0  0  0  0  0  0  0  0  0
   15.5636    1.0018   23.3756 H   0  0  0  0  0  0  0  0  0  0  0  0
   14.7841    1.0025   21.7733 H   0  0  0  0  0  0  0  0  0  0  0  0
    8.1744   -6.1904   26.6238 H   0  0  0  0  0  0  0  0  0  0  0  0
    7.6718   -4.4870   26.8924 H   0  0  0  0  0  0  0  0  0  0  0  0
    7.2494   -5.3166   25.3561 H   0  0  0  0  0  0  0  0  0  0  0  0
   10.1946   -6.4995   26.2216 H   0  0  0  0  0  0  0  0  0  0  0  0
   10.7865   -5.8577   24.6518 H   0  0  0  0  0  0  0  0  0  0  0  0
   11.2285   -5.0312   26.1842 H   0  0  0  0  0  0  0  0  0  0  0  0
    9.3974    1.2912   24.5523 H   0  0  0  0  0  0  0  0  0  0  0  0
    9.5159    2.2168   23.0553 H   0  0  0  0  0  0  0  0  0  0  0  0
    7.6102   -1.2091   21.6640 H   0  0  0  0  0  0  0  0  0  0  0  0
    8.8741   -1.4657   20.4475 H   0  0  0  0  0  0  0  0  0  0  0  0
  1  3  2  0  0  0  0
  1  8  1  0  0  0  0
  2  4  1  0  0  0  0
  2  8  2  0  0  0  0
  3  9  1  0  0  0  0
  4  9  2  0  0  0  0
  5  7  1  0  0  0  0
  5 22  2  0  0  0  0
  6  7  2  0  0  0  0
  6 25  1  0  0  0  0
  7 20  1  0  0  0  0
  8 27  1  0  0  0  0
  9 28  1  0  0  0  0
 10 11  2  0  0  0  0
 10 12  1  0  0  0  0
 10 26  1  0  0  0  0
 11 21  1  0  0  0  0
 11 23  1  0  0  0  0
 12 13  2  0  0  0  0
 13 14  1  0  0  0  0
 14 15  2  0  0  0  0
 15 26  1  0  0  0  0
 16 21  1  0  0  0  0
 16 27  1  0  0  0  0
 16 29  2  0  0  0  0
 17 25  1  0  0  0  0
 18 28  1  0  0  0  0
 19 28  1  0  0  0  0
 20 27  1  0  0  0  0
 22 25  1  0  0  0  0
 23 24  2  0  0  0  0
 24 26  1  0  0  0  0
  1 30  1  0  0  0  0
  2 31  1  0  0  0  0
  3 32  1  0  0  0  0
  4 33  1  0  0  0  0
  5 34  1  0  0  0  0
  6 35  1  0  0  0  0
 12 36  1  0  0  0  0
 13 37  1  0  0  0  0
 14 38  1  0  0  0  0
 15 39  1  0  0  0  0
 17 40  1  0  0  0  0
 17 41  1  0  0  0  0
 17 42  1  0  0  0  0
 18 43  1  0  0  0  0
 18 44  1  0  0  0  0
 18 45  1  0  0  0  0
 19 46  1  0  0  0  0
 19 47  1  0  0  0  0
 19 48  1  0  0  0  0
 20 49  1  0  0  0  0
 20 50  1  0  0  0  0
 21 51  1  0  0  0  0
 21 52  1  0  0  0  0
M  END
> <clash_score>
0

> <docking_score>
-9.577988624572754

$$$$
BENZO_422_1
  -OEChem-08222011043D

 52 55  0     0  0  0  0  0  0999 V2000
    6.4089    2.0844   24.8766 C   0  0  0  0  0  0  0  0  0  0  0  0
    7.4847    1.4191   24.2887 C   0  0  0  0  0  0  0  0  0  0  0  0
    9.0720   -1.1280   24.8640 C   0  0  0  0  0  0  0  0  0  0  0  0
    9.7200   -2.2600   22.8630 C   0  0  0  0  0  0  0  0  0  0  0  0
    8.9960   -2.3380   25.5320 C   0  0  0  0  0  0  0  0  0  0  0  0
    9.6730   -3.4710   23.5300 C   0  0  0  0  0  0  0  0  0  0  0  0
    6.5777    3.3741   25.3805 C   0  0  0  0  0  0  0  0  0  0  0  0
    8.8980    3.3330   24.7088 C   0  0  0  0  0  0  0  0  0  0  0  0
    8.7292    2.0433   24.2048 C   0  0  0  0  0  0  0  0  0  0  0  0
    9.3350   -1.0880   23.5010 C   0  0  0  0  0  0  0  0  0  0  0  0
    9.3070   -3.5340   24.8780 C   0  0  0  0  0  0  0  0  0  0  0  0
    7.8222    3.9984   25.2966 C   0  0  0  0  0  0  0  0  0  0  0  0
    6.1790    0.5730   19.9990 C   0  0  0  0  0  0  0  0  0  0  0  0
    7.3170   -0.1610   19.8550 C   0  0  0  0  0  0  0  0  0  0  0  0
    5.4210    0.9600   21.0930 C   0  0  0  0  0  0  0  0  0  0  0  0
    4.2750    1.7050   20.8490 C   0  0  0  0  0  0  0  0  0  0  0  0
    3.9160    2.0630   19.5520 C   0  0  0  0  0  0  0  0  0  0  0  0
    4.6890    1.6810   18.4640 C   0  0  0  0  0  0  0  0  0  0  0  0
    9.0420    0.3700   21.5280 C   0  0  0  0  0  0  0  0  0  0  0  0
    8.0128   -5.2151   26.1416 C   0  0  0  0  0  0  0  0  0  0  0  0
   10.4372   -5.5860   25.6589 C   0  0  0  0  0  0  0  0  0  0  0  0
    9.8870    1.3260   23.5730 C   0  0  0  0  0  0  0  0  0  0  0  0
    8.1890   -0.7180   20.8700 C   0  0  0  0  0  0  0  0  0  0  0  0
    7.6390   -0.2680   18.5410 N   0  0  0  0  0  0  0  0  0  0  0  0
    6.7580    0.3810   17.8350 N   0  0  0  0  0  0  0  0  0  0  0  0
    5.8300    0.9190   18.6970 N   0  0  0  0  0  0  0  0  0  0  0  0
    9.4560    0.1560   22.8130 N   0  0  0  0  0  0  0  0  0  0  0  0
    9.2543   -4.7552   25.5519 N   0  0  0  0  0  0  0  0  0  0  0  0
    9.2690    1.4140   20.9380 O   0  0  0  0  0  0  0  0  0  0  0  0
    8.0301    5.5891   25.9196 Cl  0  0  0  0  0  0  0  0  0  0  0  0
    5.4400    1.5979   24.9418 H   0  0  0  0  0  0  0  0  0  0  0  0
    7.3441    0.4143   23.8988 H   0  0  0  0  0  0  0  0  0  0  0  0
    8.9217   -0.1995   25.4232 H   0  0  0  0  0  0  0  0  0  0  0  0
   10.0643   -2.2341   21.8254 H   0  0  0  0  0  0  0  0  0  0  0  0
    8.6893   -2.3540   26.5808 H   0  0  0  0  0  0  0  0  0  0  0  0
    9.9257   -4.3898   22.9921 H   0  0  0  0  0  0  0  0  0  0  0  0
    5.7304    3.8806   25.8363 H   0  0  0  0  0  0  0  0  0  0  0  0
    9.8703    3.8156   24.6405 H   0  0  0  0  0  0  0  0  0  0  0  0
    5.6859    0.7081   22.1001 H   0  0  0  0  0  0  0  0  0  0  0  0
    3.6634    2.0033   21.6928 H   0  0  0  0  0  0  0  0  0  0  0  0
    3.0114    2.6564   19.3629 H   0  0  0  0  0  0  0  0  0  0  0  0
    4.4373    1.9516   17.4622 H   0  0  0  0  0  0  0  0  0  0  0  0
    8.1744   -6.1904   26.6238 H   0  0  0  0  0  0  0  0  0  0  0  0
    7.6718   -4.4870   26.8924 H   0  0  0  0  0  0  0  0  0  0  0  0
    7.2494   -5.3166   25.3561 H   0  0  0  0  0  0  0  0  0  0  0  0
   10.1946   -6.4995   26.2216 H   0  0  0  0  0  0  0  0  0  0  0  0
   10.7865   -5.8577   24.6518 H   0  0  0  0  0  0  0  0  0  0  0  0
   11.2285   -5.0312   26.1842 H   0  0  0  0  0  0  0  0  0  0  0  0
   10.4274    1.9911   22.8906 H   0  0  0  0  0  0  0  0  0  0  0  0
   10.6011    0.9882   24.3313 H   0  0  0  0  0  0  0  0  0  0  0  0
    7.6102   -1.2091   21.6640 H   0  0  0  0  0  0  0  0  0  0  0  0
    8.8741   -1.4657   20.4475 H   0  0  0  0  0  0  0  0  0  0  0  0
  1  2  2  0  0  0  0
  1  7  1  0  0  0  0
  2  9  1  0  0  0  0
  3  5  2  0  0  0  0
  3 10  1  0  0  0  0
  4  6  1  0  0  0  0
  4 10  2  0  0  0  0
  5 11  1  0  0  0  0
  6 11  2  0  0  0  0
  7 12  2  0  0  0  0
  8  9  2  0  0  0  0
  8 12  1  0  0  0  0
  9 22  1  0  0  0  0
 10 27  1  0  0  0  0
 11 28  1  0  0  0  0
 12 30  1  0  0  0  0
 13 14  2  0  0  0  0
 13 15  1  0  0  0  0
 13 26  1  0  0  0  0
 14 23  1  0  0  0  0
 14 24  1  0  0  0  0
 15 16  2  0  0  0  0
 16 17  1  0  0  0  0
 17 18  2  0  0  0  0
 18 26  1  0  0  0  0
 19 23  1  0  0  0  0
 19 27  1  0  0  0  0
 19 29  2  0  0  0  0
 20 28  1  0  0  0  0
 21 28  1  0  0  0  0
 22 27  1  0  0  0  0
 24 25  2  0  0  0  0
 25 26  1  0  0  0  0
  1 31  1  0  0  0  0
  2 32  1  0  0  0  0
  3 33  1  0  0  0  0
  4 34  1  0  0  0  0
  5 35  1  0  0  0  0
  6 36  1  0  0  0  0
  7 37  1  0  0  0  0
  8 38  1  0  0  0  0
 15 39  1  0  0  0  0
 16 40  1  0  0  0  0
 17 41  1  0  0  0  0
 18 42  1  0  0  0  0
 20 43  1  0  0  0  0
 20 44  1  0  0  0  0
 20 45  1  0  0  0  0
 21 46  1  0  0  0  0
 21 47  1  0  0  0  0
 21 48  1  0  0  0  0
 22 49  1  0  0  0  0
 22 50  1  0  0  0  0
 23 51  1  0  0  0  0
 23 52  1  0  0  0  0
M  END
> <clash_score>
0

> <docking_score>
-9.247876167297363

$$$$
BENZO_421_1
  -OEChem-08222011043D

 52 55  0     0  0  0  0  0  0999 V2000
   14.1526    1.4694   24.0176 C   0  0  0  0  0  0  0  0  0  0  0  0
   13.3741    0.8121   24.9701 C   0  0  0  0  0  0  0  0  0  0  0  0
   13.5446    2.0802   22.9208 C   0  0  0  0  0  0  0  0  0  0  0  0
   11.9875    0.7654   24.8258 C   0  0  0  0  0  0  0  0  0  0  0  0
   12.1580    2.0335   22.7765 C   0  0  0  0  0  0  0  0  0  0  0  0
    9.0720   -1.1280   24.8640 C   0  0  0  0  0  0  0  0  0  0  0  0
    9.7200   -2.2600   22.8630 C   0  0  0  0  0  0  0  0  0  0  0  0
    8.9960   -2.3380   25.5320 C   0  0  0  0  0  0  0  0  0  0  0  0
    9.6730   -3.4710   23.5300 C   0  0  0  0  0  0  0  0  0  0  0  0
   11.3794    1.3761   23.7290 C   0  0  0  0  0  0  0  0  0  0  0  0
    9.3350   -1.0880   23.5010 C   0  0  0  0  0  0  0  0  0  0  0  0
    9.3070   -3.5340   24.8780 C   0  0  0  0  0  0  0  0  0  0  0  0
    6.1790    0.5730   19.9990 C   0  0  0  0  0  0  0  0  0  0  0  0
    7.3170   -0.1610   19.8550 C   0  0  0  0  0  0  0  0  0  0  0  0
    5.4210    0.9600   21.0930 C   0  0  0  0  0  0  0  0  0  0  0  0
    4.2750    1.7050   20.8490 C   0  0  0  0  0  0  0  0  0  0  0  0
    3.9160    2.0630   19.5520 C   0  0  0  0  0  0  0  0  0  0  0  0
    4.6890    1.6810   18.4640 C   0  0  0  0  0  0  0  0  0  0  0  0
    9.0420    0.3700   21.5280 C   0  0  0  0  0  0  0  0  0  0  0  0
    8.0128   -5.2151   26.1416 C   0  0  0  0  0  0  0  0  0  0  0  0
   10.4372   -5.5860   25.6589 C   0  0  0  0  0  0  0  0  0  0  0  0
    9.8870    1.3260   23.5730 C   0  0  0  0  0  0  0  0  0  0  0  0
    8.1890   -0.7180   20.8700 C   0  0  0  0  0  0  0  0  0  0  0  0
    7.6390   -0.2680   18.5410 N   0  0  0  0  0  0  0  0  0  0  0  0
    6.7580    0.3810   17.8350 N   0  0  0  0  0  0  0  0  0  0  0  0
    5.8300    0.9190   18.6970 N   0  0  0  0  0  0  0  0  0  0  0  0
    9.4560    0.1560   22.8130 N   0  0  0  0  0  0  0  0  0  0  0  0
    9.2543   -4.7552   25.5519 N   0  0  0  0  0  0  0  0  0  0  0  0
    9.2690    1.4140   20.9380 O   0  0  0  0  0  0  0  0  0  0  0  0
   15.2322    1.5068   24.1308 H   0  0  0  0  0  0  0  0  0  0  0  0
   13.8473    0.3374   25.8248 H   0  0  0  0  0  0  0  0  0  0  0  0
   14.1503    2.5930   22.1795 H   0  0  0  0  0  0  0  0  0  0  0  0
   11.3889    0.2508   25.5729 H   0  0  0  0  0  0  0  0  0  0  0  0
   11.6930    2.5120   21.9187 H   0  0  0  0  0  0  0  0  0  0  0  0
    8.9217   -0.1995   25.4232 H   0  0  0  0  0  0  0  0  0  0  0  0
   10.0643   -2.2341   21.8254 H   0  0  0  0  0  0  0  0  0  0  0  0
    8.6893   -2.3540   26.5808 H   0  0  0  0  0  0  0  0  0  0  0  0
    9.9257   -4.3898   22.9921 H   0  0  0  0  0  0  0  0  0  0  0  0
    5.6859    0.7081   22.1001 H   0  0  0  0  0  0  0  0  0  0  0  0
    3.6634    2.0033   21.6928 H   0  0  0  0  0  0  0  0  0  0  0  0
    3.0114    2.6564   19.3629 H   0  0  0  0  0  0  0  0  0  0  0  0
    4.4373    1.9516   17.4622 H   0  0  0  0  0  0  0  0  0  0  0  0
    8.1744   -6.1904   26.6238 H   0  0  0  0  0  0  0  0  0  0  0  0
    7.6718   -4.4870   26.8924 H   0  0  0  0  0  0  0  0  0  0  0  0
    7.2494   -5.3166   25.3561 H   0  0  0  0  0  0  0  0  0  0  0  0
   10.1946   -6.4995   26.2216 H   0  0  0  0  0  0  0  0  0  0  0  0
   10.7865   -5.8577   24.6518 H   0  0  0  0  0  0  0  0  0  0  0  0
   11.2285   -5.0312   26.1842 H   0  0  0  0  0  0  0  0  0  0  0  0
    9.3974    1.2912   24.5523 H   0  0  0  0  0  0  0  0  0  0  0  0
    9.5159    2.2168   23.0553 H   0  0  0  0  0  0  0  0  0  0  0  0
    7.6102   -1.2091   21.6640 H   0  0  0  0  0  0  0  0  0  0  0  0
    8.8741   -1.4657   20.4475 H   0  0  0  0  0  0  0  0  0  0  0  0
  1  2  1  0  0  0  0
  1  3  2  0  0  0  0
  2  4  2  0  0  0  0
  3  5  1  0  0  0  0
  4 10  1  0  0  0  0
  5 10  2  0  0  0  0
  6  8  2  0  0  0  0
  6 11  1  0  0  0  0
  7  9  1  0  0  0  0
  7 11  2  0  0  0  0
  8 12  1  0  0  0  0
  9 12  2  0  0  0  0
 10 22  1  0  0  0  0
 11 27  1  0  0  0  0
 12 28  1  0  0  0  0
 13 14  2  0  0  0  0
 13 15  1  0  0  0  0
 13 26  1  0  0  0  0
 14 23  1  0  0  0  0
 14 24  1  0  0  0  0
 15 16  2  0  0  0  0
 16 17  1  0  0  0  0
 17 18  2  0  0  0  0
 18 26  1  0  0  0  0
 19 23  1  0  0  0  0
 19 27  1  0  0  0  0
 19 29  2  0  0  0  0
 20 28  1  0  0  0  0
 21 28  1  0  0  0  0
 22 27  1  0  0  0  0
 24 25  2  0  0  0  0
 25 26  1  0  0  0  0
  1 30  1  0  0  0  0
  2 31  1  0  0  0  0
  3 32  1  0  0  0  0
  4 33  1  0  0  0  0
  5 34  1  0  0  0  0
  6 35  1  0  0  0  0
  7 36  1  0  0  0  0
  8 37  1  0  0  0  0
  9 38  1  0  0  0  0
 15 39  1  0  0  0  0
 16 40  1  0  0  0  0
 17 41  1  0  0  0  0
 18 42  1  0  0  0  0
 20 43  1  0  0  0  0
 20 44  1  0  0  0  0
 20 45  1  0  0  0  0
 21 46  1  0  0  0  0
 21 47  1  0  0  0  0
 21 48  1  0  0  0  0
 22 49  1  0  0  0  0
 22 50  1  0  0  0  0
 23 51  1  0  0  0  0
 23 52  1  0  0  0  0
M  END
> <clash_score>
0

> <docking_score>
-9.861856460571289

$$$$
BENZO_424_1
  -OEChem-08222011083D

 51 54  0     0  0  0  0  0  0999 V2000
    8.9960   -2.3380   25.5320 C   0  0  0  0  0  0  0  0  0  0  0  0
    9.6730   -3.4710   23.5300 C   0  0  0  0  0  0  0  0  0  0  0  0
    9.0720   -1.1280   24.8640 C   0  0  0  0  0  0  0  0  0  0  0  0
    9.7200   -2.2600   22.8630 C   0  0  0  0  0  0  0  0  0  0  0  0
   12.2913    1.4279   22.6355 C   0  0  0  0  0  0  0  0  0  0  0  0
   13.6024    1.4662   23.0564 C   0  0  0  0  0  0  0  0  0  0  0  0
   12.0284    1.3764   24.9443 C   0  0  0  0  0  0  0  0  0  0  0  0
   11.3794    1.3761   23.7290 C   0  0  0  0  0  0  0  0  0  0  0  0
    9.3070   -3.5340   24.8780 C   0  0  0  0  0  0  0  0  0  0  0  0
    9.3350   -1.0880   23.5010 C   0  0  0  0  0  0  0  0  0  0  0  0
    6.1790    0.5730   19.9990 C   0  0  0  0  0  0  0  0  0  0  0  0
    7.3170   -0.1610   19.8550 C   0  0  0  0  0  0  0  0  0  0  0  0
    5.4210    0.9600   21.0930 C   0  0  0  0  0  0  0  0  0  0  0  0
    4.2750    1.7050   20.8490 C   0  0  0  0  0  0  0  0  0  0  0  0
    3.9160    2.0630   19.5520 C   0  0  0  0  0  0  0  0  0  0  0  0
    4.6890    1.6810   18.4640 C   0  0  0  0  0  0  0  0  0  0  0  0
    9.0420    0.3700   21.5280 C   0  0  0  0  0  0  0  0  0  0  0  0
    9.5333   -6.0236   25.0413 C   0  0  0  0  0  0  0  0  0  0  0  0
   10.6330   -7.3747   26.8774 C   0  0  0  0  0  0  0  0  0  0  0  0
    9.8870    1.3260   23.5730 C   0  0  0  0  0  0  0  0  0  0  0  0
    8.1890   -0.7180   20.8700 C   0  0  0  0  0  0  0  0  0  0  0  0
    9.3523   -7.0865   26.1148 C   0  0  0  0  0  0  0  0  0  0  0  0
    7.6390   -0.2680   18.5410 N   0  0  0  0  0  0  0  0  0  0  0  0
    6.7580    0.3810   17.8350 N   0  0  0  0  0  0  0  0  0  0  0  0
    5.8300    0.9190   18.6970 N   0  0  0  0  0  0  0  0  0  0  0  0
    9.2546   -4.7422   25.5438 N   0  0  0  0  0  0  0  0  0  0  0  0
    9.4560    0.1560   22.8130 N   0  0  0  0  0  0  0  0  0  0  0  0
    9.2690    1.4140   20.9380 O   0  0  0  0  0  0  0  0  0  0  0  0
    9.8805   -6.3052   23.8991 O   0  0  0  0  0  0  0  0  0  0  0  0
   13.7301    1.4394   24.7638 S   0  0  0  0  0  0  0  0  0  0  0  0
    8.6895   -2.3529   26.5807 H   0  0  0  0  0  0  0  0  0  0  0  0
    9.9262   -4.3897   22.9916 H   0  0  0  0  0  0  0  0  0  0  0  0
    8.9224   -0.1998   25.4238 H   0  0  0  0  0  0  0  0  0  0  0  0
   10.0649   -2.2343   21.8258 H   0  0  0  0  0  0  0  0  0  0  0  0
   12.0045    1.4365   21.5915 H   0  0  0  0  0  0  0  0  0  0  0  0
   14.4914    1.5078   22.4430 H   0  0  0  0  0  0  0  0  0  0  0  0
   11.5886    1.3416   25.9314 H   0  0  0  0  0  0  0  0  0  0  0  0
    5.6859    0.7081   22.1001 H   0  0  0  0  0  0  0  0  0  0  0  0
    3.6634    2.0033   21.6928 H   0  0  0  0  0  0  0  0  0  0  0  0
    3.0114    2.6564   19.3629 H   0  0  0  0  0  0  0  0  0  0  0  0
    4.4373    1.9516   17.4622 H   0  0  0  0  0  0  0  0  0  0  0  0
   11.4241   -7.7171   26.2022 H   0  0  0  0  0  0  0  0  0  0  0  0
   10.4629   -8.1531   27.6275 H   0  0  0  0  0  0  0  0  0  0  0  0
   10.9950   -6.4780   27.3910 H   0  0  0  0  0  0  0  0  0  0  0  0
    9.3974    1.2912   24.5523 H   0  0  0  0  0  0  0  0  0  0  0  0
    9.5159    2.2168   23.0553 H   0  0  0  0  0  0  0  0  0  0  0  0
    7.6102   -1.2091   21.6640 H   0  0  0  0  0  0  0  0  0  0  0  0
    8.8741   -1.4657   20.4475 H   0  0  0  0  0  0  0  0  0  0  0  0
    8.5795   -6.7463   26.8137 H   0  0  0  0  0  0  0  0  0  0  0  0
    8.9966   -8.0064   25.6366 H   0  0  0  0  0  0  0  0  0  0  0  0
    8.9776   -4.7057   26.5317 H   0  0  0  0  0  0  0  0  0  0  0  0
  1  3  2  0  0  0  0
  1  9  1  0  0  0  0
  2  4  1  0  0  0  0
  2  9  2  0  0  0  0
  3 10  1  0  0  0  0
  4 10  2  0  0  0  0
  5  6  2  0  0  0  0
  5  8  1  0  0  0  0
  6 30  1  0  0  0  0
  7  8  2  0  0  0  0
  7 30  1  0  0  0  0
  8 20  1  0  0  0  0
  9 26  1  0  0  0  0
 10 27  1  0  0  0  0
 11 12  2  0  0  0  0
 11 13  1  0  0  0  0
 11 25  1  0  0  0  0
 12 21  1  0  0  0  0
 12 23  1  0  0  0  0
 13 14  2  0  0  0  0
 14 15  1  0  0  0  0
 15 16  2  0  0  0  0
 16 25  1  0  0  0  0
 17 21  1  0  0  0  0
 17 27  1  0  0  0  0
 17 28  2  0  0  0  0
 18 22  1  0  0  0  0
 18 26  1  0  0  0  0
 18 29  2  0  0  0  0
 19 22  1  0  0  0  0
 20 27  1  0  0  0  0
 23 24  2  0  0  0  0
 24 25  1  0  0  0  0
  1 31  1  0  0  0  0
  2 32  1  0  0  0  0
  3 33  1  0  0  0  0
  4 34  1  0  0  0  0
  5 35  1  0  0  0  0
  6 36  1  0  0  0  0
  7 37  1  0  0  0  0
 13 38  1  0  0  0  0
 14 39  1  0  0  0  0
 15 40  1  0  0  0  0
 16 41  1  0  0  0  0
 19 42  1  0  0  0  0
 19 43  1  0  0  0  0
 19 44  1  0  0  0  0
 20 45  1  0  0  0  0
 20 46  1  0  0  0  0
 21 47  1  0  0  0  0
 21 48  1  0  0  0  0
 22 49  1  0  0  0  0
 22 50  1  0  0  0  0
 26 51  1  0  0  0  0
M  END
> <clash_score>
1.4986045736624285

> <docking_score>
-6.746401309967041

$$$$
BENZO_425_1
  -OEChem-08222011083D

 54 57  0     0  0  0  0  0  0999 V2000
   14.1526    1.4694   24.0176 C   0  0  0  0  0  0  0  0  0  0  0  0
   13.3741    0.8121   24.9701 C   0  0  0  0  0  0  0  0  0  0  0  0
   13.5446    2.0802   22.9208 C   0  0  0  0  0  0  0  0  0  0  0  0
   11.9875    0.7654   24.8258 C   0  0  0  0  0  0  0  0  0  0  0  0
   12.1580    2.0335   22.7765 C   0  0  0  0  0  0  0  0  0  0  0  0
    8.9960   -2.3380   25.5320 C   0  0  0  0  0  0  0  0  0  0  0  0
    9.6730   -3.4710   23.5300 C   0  0  0  0  0  0  0  0  0  0  0  0
    9.0720   -1.1280   24.8640 C   0  0  0  0  0  0  0  0  0  0  0  0
    9.7200   -2.2600   22.8630 C   0  0  0  0  0  0  0  0  0  0  0  0
   11.3794    1.3761   23.7290 C   0  0  0  0  0  0  0  0  0  0  0  0
    9.3070   -3.5340   24.8780 C   0  0  0  0  0  0  0  0  0  0  0  0
    9.3350   -1.0880   23.5010 C   0  0  0  0  0  0  0  0  0  0  0  0
    6.1790    0.5730   19.9990 C   0  0  0  0  0  0  0  0  0  0  0  0
    7.3170   -0.1610   19.8550 C   0  0  0  0  0  0  0  0  0  0  0  0
    5.4210    0.9600   21.0930 C   0  0  0  0  0  0  0  0  0  0  0  0
    4.2750    1.7050   20.8490 C   0  0  0  0  0  0  0  0  0  0  0  0
    3.9160    2.0630   19.5520 C   0  0  0  0  0  0  0  0  0  0  0  0
    4.6890    1.6810   18.4640 C   0  0  0  0  0  0  0  0  0  0  0  0
    9.0420    0.3700   21.5280 C   0  0  0  0  0  0  0  0  0  0  0  0
    9.5333   -6.0236   25.0413 C   0  0  0  0  0  0  0  0  0  0  0  0
   10.6330   -7.3747   26.8774 C   0  0  0  0  0  0  0  0  0  0  0  0
    9.8870    1.3260   23.5730 C   0  0  0  0  0  0  0  0  0  0  0  0
    8.1890   -0.7180   20.8700 C   0  0  0  0  0  0  0  0  0  0  0  0
    9.3523   -7.0865   26.1148 C   0  0  0  0  0  0  0  0  0  0  0  0
    7.6390   -0.2680   18.5410 N   0  0  0  0  0  0  0  0  0  0  0  0
    6.7580    0.3810   17.8350 N   0  0  0  0  0  0  0  0  0  0  0  0
    5.8300    0.9190   18.6970 N   0  0  0  0  0  0  0  0  0  0  0  0
    9.2546   -4.7422   25.5438 N   0  0  0  0  0  0  0  0  0  0  0  0
    9.4560    0.1560   22.8130 N   0  0  0  0  0  0  0  0  0  0  0  0
    9.2690    1.4140   20.9380 O   0  0  0  0  0  0  0  0  0  0  0  0
    9.8805   -6.3052   23.8991 O   0  0  0  0  0  0  0  0  0  0  0  0
   15.2322    1.5068   24.1308 H   0  0  0  0  0  0  0  0  0  0  0  0
   13.8473    0.3374   25.8248 H   0  0  0  0  0  0  0  0  0  0  0  0
   14.1503    2.5930   22.1795 H   0  0  0  0  0  0  0  0  0  0  0  0
   11.3889    0.2508   25.5729 H   0  0  0  0  0  0  0  0  0  0  0  0
   11.6930    2.5120   21.9187 H   0  0  0  0  0  0  0  0  0  0  0  0
    8.6895   -2.3529   26.5807 H   0  0  0  0  0  0  0  0  0  0  0  0
    9.9262   -4.3897   22.9916 H   0  0  0  0  0  0  0  0  0  0  0  0
    8.9224   -0.1998   25.4238 H   0  0  0  0  0  0  0  0  0  0  0  0
   10.0649   -2.2343   21.8258 H   0  0  0  0  0  0  0  0  0  0  0  0
    5.6859    0.7081   22.1001 H   0  0  0  0  0  0  0  0  0  0  0  0
    3.6634    2.0033   21.6928 H   0  0  0  0  0  0  0  0  0  0  0  0
    3.0114    2.6564   19.3629 H   0  0  0  0  0  0  0  0  0  0  0  0
    4.4373    1.9516   17.4622 H   0  0  0  0  0  0  0  0  0  0  0  0
   11.4241   -7.7171   26.2022 H   0  0  0  0  0  0  0  0  0  0  0  0
   10.4629   -8.1531   27.6275 H   0  0  0  0  0  0  0  0  0  0  0  0
   10.9950   -6.4780   27.3910 H   0  0  0  0  0  0  0  0  0  0  0  0
    9.3974    1.2912   24.5523 H   0  0  0  0  0  0  0  0  0  0  0  0
    9.5159    2.2168   23.0553 H   0  0  0  0  0  0  0  0  0  0  0  0
    7.6102   -1.2091   21.6640 H   0  0  0  0  0  0  0  0  0  0  0  0
    8.8741   -1.4657   20.4475 H   0  0  0  0  0  0  0  0  0  0  0  0
    8.5795   -6.7463   26.8137 H   0  0  0  0  0  0  0  0  0  0  0  0
    8.9966   -8.0064   25.6366 H   0  0  0  0  0  0  0  0  0  0  0  0
    8.9776   -4.7057   26.5317 H   0  0  0  0  0  0  0  0  0  0  0  0
  1  2  1  0  0  0  0
  1  3  2  0  0  0  0
  2  4  2  0  0  0  0
  3  5  1  0  0  0  0
  4 10  1  0  0  0  0
  5 10  2  0  0  0  0
  6  8  2  0  0  0  0
  6 11  1  0  0  0  0
  7  9  1  0  0  0  0
  7 11  2  0  0  0  0
  8 12  1  0  0  0  0
  9 12  2  0  0  0  0
 10 22  1  0  0  0  0
 11 28  1  0  0  0  0
 12 29  1  0  0  0  0
 13 14  2  0  0  0  0
 13 15  1  0  0  0  0
 13 27  1  0  0  0  0
 14 23  1  0  0  0  0
 14 25  1  0  0  0  0
 15 16  2  0  0  0  0
 16 17  1  0  0  0  0
 17 18  2  0  0  0  0
 18 27  1  0  0  0  0
 19 23  1  0  0  0  0
 19 29  1  0  0  0  0
 19 30  2  0  0  0  0
 20 24  1  0  0  0  0
 20 28  1  0  0  0  0
 20 31  2  0  0  0  0
 21 24  1  0  0  0  0
 22 29  1  0  0  0  0
 25 26  2  0  0  0  0
 26 27  1  0  0  0  0
  1 32  1  0  0  0  0
  2 33  1  0  0  0  0
  3 34  1  0  0  0  0
  4 35  1  0  0  0  0
  5 36  1  0  0  0  0
  6 37  1  0  0  0  0
  7 38  1  0  0  0  0
  8 39  1  0  0  0  0
  9 40  1  0  0  0  0
 15 41  1  0  0  0  0
 16 42  1  0  0  0  0
 17 43  1  0  0  0  0
 18 44  1  0  0  0  0
 21 45  1  0  0  0  0
 21 46  1  0  0  0  0
 21 47  1  0  0  0  0
 22 48  1  0  0  0  0
 22 49  1  0  0  0  0
 23 50  1  0  0  0  0
 23 51  1  0  0  0  0
 24 52  1  0  0  0  0
 24 53  1  0  0  0  0
 28 54  1  0  0  0  0
M  END
> <clash_score>
1.4986045736624285

> <docking_score>
-6.6675496101379395

$$$$
BENZO_428_1
  -OEChem-08222011083D

 56 60  0     0  0  0  0  0  0999 V2000
    8.9960   -2.3380   25.5320 C   0  0  0  0  0  0  0  0  0  0  0  0
    9.6730   -3.4710   23.5300 C   0  0  0  0  0  0  0  0  0  0  0  0
    9.0720   -1.1280   24.8640 C   0  0  0  0  0  0  0  0  0  0  0  0
    9.7200   -2.2600   22.8630 C   0  0  0  0  0  0  0  0  0  0  0  0
   12.2913    1.4279   22.6355 C   0  0  0  0  0  0  0  0  0  0  0  0
   13.6024    1.4662   23.0564 C   0  0  0  0  0  0  0  0  0  0  0  0
   12.0284    1.3764   24.9443 C   0  0  0  0  0  0  0  0  0  0  0  0
   11.3794    1.3761   23.7290 C   0  0  0  0  0  0  0  0  0  0  0  0
    9.3070   -3.5340   24.8780 C   0  0  0  0  0  0  0  0  0  0  0  0
    9.3350   -1.0880   23.5010 C   0  0  0  0  0  0  0  0  0  0  0  0
    6.1790    0.5730   19.9990 C   0  0  0  0  0  0  0  0  0  0  0  0
    7.3170   -0.1610   19.8550 C   0  0  0  0  0  0  0  0  0  0  0  0
    5.4210    0.9600   21.0930 C   0  0  0  0  0  0  0  0  0  0  0  0
    4.2750    1.7050   20.8490 C   0  0  0  0  0  0  0  0  0  0  0  0
    3.9160    2.0630   19.5520 C   0  0  0  0  0  0  0  0  0  0  0  0
    4.6890    1.6810   18.4640 C   0  0  0  0  0  0  0  0  0  0  0  0
    9.0420    0.3700   21.5280 C   0  0  0  0  0  0  0  0  0  0  0  0
    7.3635   -6.1361   27.1888 C   0  0  0  0  0  0  0  0  0  0  0  0
    8.1961   -4.9735   27.7341 C   0  0  0  0  0  0  0  0  0  0  0  0
    7.1942   -6.0394   25.6709 C   0  0  0  0  0  0  0  0  0  0  0  0
    9.5196   -4.8490   26.9797 C   0  0  0  0  0  0  0  0  0  0  0  0
    8.5442   -5.8838   24.9639 C   0  0  0  0  0  0  0  0  0  0  0  0
    9.8870    1.3260   23.5730 C   0  0  0  0  0  0  0  0  0  0  0  0
    8.1890   -0.7180   20.8700 C   0  0  0  0  0  0  0  0  0  0  0  0
    7.6390   -0.2680   18.5410 N   0  0  0  0  0  0  0  0  0  0  0  0
    6.7580    0.3810   17.8350 N   0  0  0  0  0  0  0  0  0  0  0  0
    5.8300    0.9190   18.6970 N   0  0  0  0  0  0  0  0  0  0  0  0
    9.2562   -4.7384   25.5422 N   0  0  0  0  0  0  0  0  0  0  0  0
    9.4560    0.1560   22.8130 N   0  0  0  0  0  0  0  0  0  0  0  0
    9.2690    1.4140   20.9380 O   0  0  0  0  0  0  0  0  0  0  0  0
   13.7301    1.4394   24.7638 S   0  0  0  0  0  0  0  0  0  0  0  0
    8.6905   -2.3533   26.5810 H   0  0  0  0  0  0  0  0  0  0  0  0
    9.9266   -4.3896   22.9917 H   0  0  0  0  0  0  0  0  0  0  0  0
    8.9233   -0.1992   25.4231 H   0  0  0  0  0  0  0  0  0  0  0  0
   10.0650   -2.2330   21.8256 H   0  0  0  0  0  0  0  0  0  0  0  0
   12.0045    1.4365   21.5915 H   0  0  0  0  0  0  0  0  0  0  0  0
   14.4914    1.5078   22.4431 H   0  0  0  0  0  0  0  0  0  0  0  0
   11.5886    1.3416   25.9314 H   0  0  0  0  0  0  0  0  0  0  0  0
    5.6859    0.7081   22.1001 H   0  0  0  0  0  0  0  0  0  0  0  0
    3.6634    2.0033   21.6928 H   0  0  0  0  0  0  0  0  0  0  0  0
    3.0114    2.6564   19.3629 H   0  0  0  0  0  0  0  0  0  0  0  0
    4.4373    1.9516   17.4622 H   0  0  0  0  0  0  0  0  0  0  0  0
    7.8482   -7.0901   27.4469 H   0  0  0  0  0  0  0  0  0  0  0  0
    6.3760   -6.1438   27.6724 H   0  0  0  0  0  0  0  0  0  0  0  0
    7.6307   -4.0424   27.6403 H   0  0  0  0  0  0  0  0  0  0  0  0
    8.3915   -5.1310   28.7968 H   0  0  0  0  0  0  0  0  0  0  0  0
    6.6888   -6.9376   25.3010 H   0  0  0  0  0  0  0  0  0  0  0  0
    6.5515   -5.1859   25.4257 H   0  0  0  0  0  0  0  0  0  0  0  0
   10.0492   -3.9640   27.3414 H   0  0  0  0  0  0  0  0  0  0  0  0
   10.1431   -5.7254   27.1778 H   0  0  0  0  0  0  0  0  0  0  0  0
    9.1338   -6.7931   25.0868 H   0  0  0  0  0  0  0  0  0  0  0  0
    8.3656   -5.7264   23.8998 H   0  0  0  0  0  0  0  0  0  0  0  0
    9.3974    1.2912   24.5523 H   0  0  0  0  0  0  0  0  0  0  0  0
    9.5159    2.2168   23.0554 H   0  0  0  0  0  0  0  0  0  0  0  0
    7.5972   -1.2056   21.6500 H   0  0  0  0  0  0  0  0  0  0  0  0
    8.8612   -1.4622   20.4334 H   0  0  0  0  0  0  0  0  0  0  0  0
  1  3  2  0  0  0  0
  1  9  1  0  0  0  0
  2  4  1  0  0  0  0
  2  9  2  0  0  0  0
  3 10  1  0  0  0  0
  4 10  2  0  0  0  0
  5  6  2  0  0  0  0
  5  8  1  0  0  0  0
  6 31  1  0  0  0  0
  7  8  2  0  0  0  0
  7 31  1  0  0  0  0
  8 23  1  0  0  0  0
  9 28  1  0  0  0  0
 10 29  1  0  0  0  0
 11 12  2  0  0  0  0
 11 13  1  0  0  0  0
 11 27  1  0  0  0  0
 12 24  1  0  0  0  0
 12 25  1  0  0  0  0
 13 14  2  0  0  0  0
 14 15  1  0  0  0  0
 15 16  2  0  0  0  0
 16 27  1  0  0  0  0
 17 24  1  0  0  0  0
 17 29  1  0  0  0  0
 17 30  2  0  0  0  0
 18 19  1  0  0  0  0
 18 20  1  0  0  0  0
 19 21  1  0  0  0  0
 20 22  1  0  0  0  0
 21 28  1  0  0  0  0
 22 28  1  0  0  0  0
 23 29  1  0  0  0  0
 25 26  2  0  0  0  0
 26 27  1  0  0  0  0
  1 32  1  0  0  0  0
  2 33  1  0  0  0  0
  3 34  1  0  0  0  0
  4 35  1  0  0  0  0
  5 36  1  0  0  0  0
  6 37  1  0  0  0  0
  7 38  1  0  0  0  0
 13 39  1  0  0  0  0
 14 40  1  0  0  0  0
 15 41  1  0  0  0  0
 16 42  1  0  0  0  0
 18 43  1  0  0  0  0
 18 44  1  0  0  0  0
 19 45  1  0  0  0  0
 19 46  1  0  0  0  0
 20 47  1  0  0  0  0
 20 48  1  0  0  0  0
 21 49  1  0  0  0  0
 21 50  1  0  0  0  0
 22 51  1  0  0  0  0
 22 52  1  0  0  0  0
 23 53  1  0  0  0  0
 23 54  1  0  0  0  0
 24 55  1  0  0  0  0
 24 56  1  0  0  0  0
M  END
> <clash_score>
0

> <docking_score>
-9.036474227905273

$$$$
BENZO_427_1
  -OEChem-08222011083D

 54 57  0     0  0  0  0  0  0999 V2000
    8.9960   -2.3380   25.5320 C   0  0  0  0  0  0  0  0  0  0  0  0
    9.6730   -3.4710   23.5300 C   0  0  0  0  0  0  0  0  0  0  0  0
    9.0720   -1.1280   24.8640 C   0  0  0  0  0  0  0  0  0  0  0  0
    9.7200   -2.2600   22.8630 C   0  0  0  0  0  0  0  0  0  0  0  0
   12.1233    1.3811   24.9242 C   0  0  0  0  0  0  0  0  0  0  0  0
   12.3261    1.4247   22.7351 C   0  0  0  0  0  0  0  0  0  0  0  0
   11.3794    1.3761   23.7290 C   0  0  0  0  0  0  0  0  0  0  0  0
    9.3070   -3.5340   24.8780 C   0  0  0  0  0  0  0  0  0  0  0  0
    9.3350   -1.0880   23.5010 C   0  0  0  0  0  0  0  0  0  0  0  0
    6.1790    0.5730   19.9990 C   0  0  0  0  0  0  0  0  0  0  0  0
    7.3170   -0.1610   19.8550 C   0  0  0  0  0  0  0  0  0  0  0  0
    5.4210    0.9600   21.0930 C   0  0  0  0  0  0  0  0  0  0  0  0
    4.2750    1.7050   20.8490 C   0  0  0  0  0  0  0  0  0  0  0  0
    3.9160    2.0630   19.5520 C   0  0  0  0  0  0  0  0  0  0  0  0
    4.6890    1.6810   18.4640 C   0  0  0  0  0  0  0  0  0  0  0  0
    9.0420    0.3700   21.5280 C   0  0  0  0  0  0  0  0  0  0  0  0
    9.5333   -6.0236   25.0413 C   0  0  0  0  0  0  0  0  0  0  0  0
   10.6330   -7.3747   26.8774 C   0  0  0  0  0  0  0  0  0  0  0  0
   14.8305    1.5084   22.7418 C   0  0  0  0  0  0  0  0  0  0  0  0
    9.8870    1.3260   23.5730 C   0  0  0  0  0  0  0  0  0  0  0  0
    8.1890   -0.7180   20.8700 C   0  0  0  0  0  0  0  0  0  0  0  0
    9.3523   -7.0865   26.1148 C   0  0  0  0  0  0  0  0  0  0  0  0
   13.4410    1.4289   24.7112 N   0  0  0  0  0  0  0  0  0  0  0  0
    7.6390   -0.2680   18.5410 N   0  0  0  0  0  0  0  0  0  0  0  0
    6.7580    0.3810   17.8350 N   0  0  0  0  0  0  0  0  0  0  0  0
   13.5326    1.4543   23.3706 N   0  0  0  0  0  0  0  0  0  0  0  0
    5.8300    0.9190   18.6970 N   0  0  0  0  0  0  0  0  0  0  0  0
    9.2546   -4.7422   25.5438 N   0  0  0  0  0  0  0  0  0  0  0  0
    9.4560    0.1560   22.8130 N   0  0  0  0  0  0  0  0  0  0  0  0
    9.2690    1.4140   20.9380 O   0  0  0  0  0  0  0  0  0  0  0  0
    9.8805   -6.3052   23.8991 O   0  0  0  0  0  0  0  0  0  0  0  0
    8.6895   -2.3529   26.5807 H   0  0  0  0  0  0  0  0  0  0  0  0
    9.9262   -4.3897   22.9916 H   0  0  0  0  0  0  0  0  0  0  0  0
    8.9224   -0.1998   25.4238 H   0  0  0  0  0  0  0  0  0  0  0  0
   10.0649   -2.2343   21.8258 H   0  0  0  0  0  0  0  0  0  0  0  0
   11.7624    1.3510   25.9426 H   0  0  0  0  0  0  0  0  0  0  0  0
   12.2462    1.4390   21.6566 H   0  0  0  0  0  0  0  0  0  0  0  0
    5.6859    0.7081   22.1001 H   0  0  0  0  0  0  0  0  0  0  0  0
    3.6634    2.0033   21.6928 H   0  0  0  0  0  0  0  0  0  0  0  0
    3.0114    2.6564   19.3629 H   0  0  0  0  0  0  0  0  0  0  0  0
    4.4373    1.9516   17.4622 H   0  0  0  0  0  0  0  0  0  0  0  0
   11.4241   -7.7171   26.2022 H   0  0  0  0  0  0  0  0  0  0  0  0
   10.4629   -8.1531   27.6275 H   0  0  0  0  0  0  0  0  0  0  0  0
   10.9950   -6.4780   27.3910 H   0  0  0  0  0  0  0  0  0  0  0  0
   15.0990    2.5601   22.6124 H   0  0  0  0  0  0  0  0  0  0  0  0
   15.5636    1.0018   23.3756 H   0  0  0  0  0  0  0  0  0  0  0  0
   14.7841    1.0025   21.7733 H   0  0  0  0  0  0  0  0  0  0  0  0
    9.3974    1.2912   24.5523 H   0  0  0  0  0  0  0  0  0  0  0  0
    9.5159    2.2168   23.0553 H   0  0  0  0  0  0  0  0  0  0  0  0
    7.6102   -1.2091   21.6640 H   0  0  0  0  0  0  0  0  0  0  0  0
    8.8741   -1.4657   20.4475 H   0  0  0  0  0  0  0  0  0  0  0  0
    8.5795   -6.7463   26.8137 H   0  0  0  0  0  0  0  0  0  0  0  0
    8.9966   -8.0064   25.6366 H   0  0  0  0  0  0  0  0  0  0  0  0
    8.9776   -4.7057   26.5317 H   0  0  0  0  0  0  0  0  0  0  0  0
  1  3  2  0  0  0  0
  1  8  1  0  0  0  0
  2  4  1  0  0  0  0
  2  8  2  0  0  0  0
  3  9  1  0  0  0  0
  4  9  2  0  0  0  0
  5  7  1  0  0  0  0
  5 23  2  0  0  0  0
  6  7  2  0  0  0  0
  6 26  1  0  0  0  0
  7 20  1  0  0  0  0
  8 28  1  0  0  0  0
  9 29  1  0  0  0  0
 10 11  2  0  0  0  0
 10 12  1  0  0  0  0
 10 27  1  0  0  0  0
 11 21  1  0  0  0  0
 11 24  1  0  0  0  0
 12 13  2  0  0  0  0
 13 14  1  0  0  0  0
 14 15  2  0  0  0  0
 15 27  1  0  0  0  0
 16 21  1  0  0  0  0
 16 29  1  0  0  0  0
 16 30  2  0  0  0  0
 17 22  1  0  0  0  0
 17 28  1  0  0  0  0
 17 31  2  0  0  0  0
 18 22  1  0  0  0  0
 19 26  1  0  0  0  0
 20 29  1  0  0  0  0
 23 26  1  0  0  0  0
 24 25  2  0  0  0  0
 25 27  1  0  0  0  0
  1 32  1  0  0  0  0
  2 33  1  0  0  0  0
  3 34  1  0  0  0  0
  4 35  1  0  0  0  0
  5 36  1  0  0  0  0
  6 37  1  0  0  0  0
 12 38  1  0  0  0  0
 13 39  1  0  0  0  0
 14 40  1  0  0  0  0
 15 41  1  0  0  0  0
 18 42  1  0  0  0  0
 18 43  1  0  0  0  0
 18 44  1  0  0  0  0
 19 45  1  0  0  0  0
 19 46  1  0  0  0  0
 19 47  1  0  0  0  0
 20 48  1  0  0  0  0
 20 49  1  0  0  0  0
 21 50  1  0  0  0  0
 21 51  1  0  0  0  0
 22 52  1  0  0  0  0
 22 53  1  0  0  0  0
 28 54  1  0  0  0  0
M  END
> <clash_score>
1.4986045736624285

> <docking_score>
-6.38368034362793

$$$$
BENZO_430_1
  -OEChem-08222011083D

 59 63  0     0  0  0  0  0  0999 V2000
    6.4089    2.0844   24.8766 C   0  0  0  0  0  0  0  0  0  0  0  0
    7.4847    1.4191   24.2887 C   0  0  0  0  0  0  0  0  0  0  0  0
    8.9960   -2.3380   25.5320 C   0  0  0  0  0  0  0  0  0  0  0  0
    9.6730   -3.4710   23.5300 C   0  0  0  0  0  0  0  0  0  0  0  0
    9.0720   -1.1280   24.8640 C   0  0  0  0  0  0  0  0  0  0  0  0
    9.7200   -2.2600   22.8630 C   0  0  0  0  0  0  0  0  0  0  0  0
    6.5777    3.3741   25.3805 C   0  0  0  0  0  0  0  0  0  0  0  0
    8.8980    3.3330   24.7088 C   0  0  0  0  0  0  0  0  0  0  0  0
    8.7292    2.0433   24.2048 C   0  0  0  0  0  0  0  0  0  0  0  0
    9.3070   -3.5340   24.8780 C   0  0  0  0  0  0  0  0  0  0  0  0
    9.3350   -1.0880   23.5010 C   0  0  0  0  0  0  0  0  0  0  0  0
    7.8222    3.9984   25.2966 C   0  0  0  0  0  0  0  0  0  0  0  0
    6.1790    0.5730   19.9990 C   0  0  0  0  0  0  0  0  0  0  0  0
    7.3170   -0.1610   19.8550 C   0  0  0  0  0  0  0  0  0  0  0  0
    5.4210    0.9600   21.0930 C   0  0  0  0  0  0  0  0  0  0  0  0
    4.2750    1.7050   20.8490 C   0  0  0  0  0  0  0  0  0  0  0  0
    3.9160    2.0630   19.5520 C   0  0  0  0  0  0  0  0  0  0  0  0
    4.6890    1.6810   18.4640 C   0  0  0  0  0  0  0  0  0  0  0  0
    9.0420    0.3700   21.5280 C   0  0  0  0  0  0  0  0  0  0  0  0
    7.3635   -6.1361   27.1888 C   0  0  0  0  0  0  0  0  0  0  0  0
    8.1961   -4.9735   27.7341 C   0  0  0  0  0  0  0  0  0  0  0  0
    7.1942   -6.0394   25.6709 C   0  0  0  0  0  0  0  0  0  0  0  0
    9.5196   -4.8490   26.9797 C   0  0  0  0  0  0  0  0  0  0  0  0
    8.5442   -5.8838   24.9639 C   0  0  0  0  0  0  0  0  0  0  0  0
    9.8870    1.3260   23.5730 C   0  0  0  0  0  0  0  0  0  0  0  0
    8.1890   -0.7180   20.8700 C   0  0  0  0  0  0  0  0  0  0  0  0
    7.6390   -0.2680   18.5410 N   0  0  0  0  0  0  0  0  0  0  0  0
    6.7580    0.3810   17.8350 N   0  0  0  0  0  0  0  0  0  0  0  0
    5.8300    0.9190   18.6970 N   0  0  0  0  0  0  0  0  0  0  0  0
    9.2562   -4.7384   25.5422 N   0  0  0  0  0  0  0  0  0  0  0  0
    9.4560    0.1560   22.8130 N   0  0  0  0  0  0  0  0  0  0  0  0
    9.2690    1.4140   20.9380 O   0  0  0  0  0  0  0  0  0  0  0  0
    8.0301    5.5891   25.9196 Cl  0  0  0  0  0  0  0  0  0  0  0  0
    5.4400    1.5979   24.9418 H   0  0  0  0  0  0  0  0  0  0  0  0
    7.3441    0.4143   23.8988 H   0  0  0  0  0  0  0  0  0  0  0  0
    8.6905   -2.3533   26.5810 H   0  0  0  0  0  0  0  0  0  0  0  0
    9.9266   -4.3896   22.9917 H   0  0  0  0  0  0  0  0  0  0  0  0
    8.9233   -0.1992   25.4231 H   0  0  0  0  0  0  0  0  0  0  0  0
   10.0650   -2.2330   21.8256 H   0  0  0  0  0  0  0  0  0  0  0  0
    5.7304    3.8806   25.8363 H   0  0  0  0  0  0  0  0  0  0  0  0
    9.8703    3.8156   24.6405 H   0  0  0  0  0  0  0  0  0  0  0  0
    5.6859    0.7081   22.1001 H   0  0  0  0  0  0  0  0  0  0  0  0
    3.6634    2.0033   21.6928 H   0  0  0  0  0  0  0  0  0  0  0  0
    3.0114    2.6564   19.3629 H   0  0  0  0  0  0  0  0  0  0  0  0
    4.4373    1.9516   17.4622 H   0  0  0  0  0  0  0  0  0  0  0  0
    7.8482   -7.0901   27.4469 H   0  0  0  0  0  0  0  0  0  0  0  0
    6.3760   -6.1438   27.6724 H   0  0  0  0  0  0  0  0  0  0  0  0
    7.6307   -4.0424   27.6403 H   0  0  0  0  0  0  0  0  0  0  0  0
    8.3915   -5.1310   28.7968 H   0  0  0  0  0  0  0  0  0  0  0  0
    6.6888   -6.9376   25.3010 H   0  0  0  0  0  0  0  0  0  0  0  0
    6.5515   -5.1859   25.4257 H   0  0  0  0  0  0  0  0  0  0  0  0
   10.0492   -3.9640   27.3414 H   0  0  0  0  0  0  0  0  0  0  0  0
   10.1431   -5.7254   27.1778 H   0  0  0  0  0  0  0  0  0  0  0  0
    9.1338   -6.7931   25.0868 H   0  0  0  0  0  0  0  0  0  0  0  0
    8.3656   -5.7264   23.8998 H   0  0  0  0  0  0  0  0  0  0  0  0
   10.4274    1.9911   22.8906 H   0  0  0  0  0  0  0  0  0  0  0  0
   10.6011    0.9882   24.3313 H   0  0  0  0  0  0  0  0  0  0  0  0
    7.5972   -1.2056   21.6500 H   0  0  0  0  0  0  0  0  0  0  0  0
    8.8612   -1.4622   20.4334 H   0  0  0  0  0  0  0  0  0  0  0  0
  1  2  2  0  0  0  0
  1  7  1  0  0  0  0
  2  9  1  0  0  0  0
  3  5  2  0  0  0  0
  3 10  1  0  0  0  0
  4  6  1  0  0  0  0
  4 10  2  0  0  0  0
  5 11  1  0  0  0  0
  6 11  2  0  0  0  0
  7 12  2  0  0  0  0
  8  9  2  0  0  0  0
  8 12  1  0  0  0  0
  9 25  1  0  0  0  0
 10 30  1  0  0  0  0
 11 31  1  0  0  0  0
 12 33  1  0  0  0  0
 13 14  2  0  0  0  0
 13 15  1  0  0  0  0
 13 29  1  0  0  0  0
 14 26  1  0  0  0  0
 14 27  1  0  0  0  0
 15 16  2  0  0  0  0
 16 17  1  0  0  0  0
 17 18  2  0  0  0  0
 18 29  1  0  0  0  0
 19 26  1  0  0  0  0
 19 31  1  0  0  0  0
 19 32  2  0  0  0  0
 20 21  1  0  0  0  0
 20 22  1  0  0  0  0
 21 23  1  0  0  0  0
 22 24  1  0  0  0  0
 23 30  1  0  0  0  0
 24 30  1  0  0  0  0
 25 31  1  0  0  0  0
 27 28  2  0  0  0  0
 28 29  1  0  0  0  0
  1 34  1  0  0  0  0
  2 35  1  0  0  0  0
  3 36  1  0  0  0  0
  4 37  1  0  0  0  0
  5 38  1  0  0  0  0
  6 39  1  0  0  0  0
  7 40  1  0  0  0  0
  8 41  1  0  0  0  0
 15 42  1  0  0  0  0
 16 43  1  0  0  0  0
 17 44  1  0  0  0  0
 18 45  1  0  0  0  0
 20 46  1  0  0  0  0
 20 47  1  0  0  0  0
 21 48  1  0  0  0  0
 21 49  1  0  0  0  0
 22 50  1  0  0  0  0
 22 51  1  0  0  0  0
 23 52  1  0  0  0  0
 23 53  1  0  0  0  0
 24 54  1  0  0  0  0
 24 55  1  0  0  0  0
 25 56  1  0  0  0  0
 25 57  1  0  0  0  0
 26 58  1  0  0  0  0
 26 59  1  0  0  0  0
M  END
> <clash_score>
0

> <docking_score>
-8.343647003173828

$$$$
BENZO_426_1
  -OEChem-08222011083D

 54 57  0     0  0  0  0  0  0999 V2000
    6.4089    2.0844   24.8766 C   0  0  0  0  0  0  0  0  0  0  0  0
    7.4847    1.4191   24.2887 C   0  0  0  0  0  0  0  0  0  0  0  0
    8.9960   -2.3380   25.5320 C   0  0  0  0  0  0  0  0  0  0  0  0
    9.6730   -3.4710   23.5300 C   0  0  0  0  0  0  0  0  0  0  0  0
    9.0720   -1.1280   24.8640 C   0  0  0  0  0  0  0  0  0  0  0  0
    9.7200   -2.2600   22.8630 C   0  0  0  0  0  0  0  0  0  0  0  0
    6.5777    3.3741   25.3805 C   0  0  0  0  0  0  0  0  0  0  0  0
    8.8980    3.3330   24.7088 C   0  0  0  0  0  0  0  0  0  0  0  0
    8.7292    2.0433   24.2048 C   0  0  0  0  0  0  0  0  0  0  0  0
    9.3070   -3.5340   24.8780 C   0  0  0  0  0  0  0  0  0  0  0  0
    9.3350   -1.0880   23.5010 C   0  0  0  0  0  0  0  0  0  0  0  0
    7.8222    3.9984   25.2966 C   0  0  0  0  0  0  0  0  0  0  0  0
    6.1790    0.5730   19.9990 C   0  0  0  0  0  0  0  0  0  0  0  0
    7.3170   -0.1610   19.8550 C   0  0  0  0  0  0  0  0  0  0  0  0
    5.4210    0.9600   21.0930 C   0  0  0  0  0  0  0  0  0  0  0  0
    4.2750    1.7050   20.8490 C   0  0  0  0  0  0  0  0  0  0  0  0
    3.9160    2.0630   19.5520 C   0  0  0  0  0  0  0  0  0  0  0  0
    4.6890    1.6810   18.4640 C   0  0  0  0  0  0  0  0  0  0  0  0
    9.0420    0.3700   21.5280 C   0  0  0  0  0  0  0  0  0  0  0  0
    9.5333   -6.0236   25.0413 C   0  0  0  0  0  0  0  0  0  0  0  0
   10.6330   -7.3747   26.8774 C   0  0  0  0  0  0  0  0  0  0  0  0
    9.8870    1.3260   23.5730 C   0  0  0  0  0  0  0  0  0  0  0  0
    8.1890   -0.7180   20.8700 C   0  0  0  0  0  0  0  0  0  0  0  0
    9.3523   -7.0865   26.1148 C   0  0  0  0  0  0  0  0  0  0  0  0
    7.6390   -0.2680   18.5410 N   0  0  0  0  0  0  0  0  0  0  0  0
    6.7580    0.3810   17.8350 N   0  0  0  0  0  0  0  0  0  0  0  0
    5.8300    0.9190   18.6970 N   0  0  0  0  0  0  0  0  0  0  0  0
    9.2546   -4.7422   25.5438 N   0  0  0  0  0  0  0  0  0  0  0  0
    9.4560    0.1560   22.8130 N   0  0  0  0  0  0  0  0  0  0  0  0
    9.2690    1.4140   20.9380 O   0  0  0  0  0  0  0  0  0  0  0  0
    9.8805   -6.3052   23.8991 O   0  0  0  0  0  0  0  0  0  0  0  0
    8.0301    5.5891   25.9196 Cl  0  0  0  0  0  0  0  0  0  0  0  0
    5.4400    1.5979   24.9418 H   0  0  0  0  0  0  0  0  0  0  0  0
    7.3441    0.4143   23.8988 H   0  0  0  0  0  0  0  0  0  0  0  0
    8.6895   -2.3529   26.5807 H   0  0  0  0  0  0  0  0  0  0  0  0
    9.9262   -4.3897   22.9916 H   0  0  0  0  0  0  0  0  0  0  0  0
    8.9224   -0.1998   25.4238 H   0  0  0  0  0  0  0  0  0  0  0  0
   10.0649   -2.2343   21.8258 H   0  0  0  0  0  0  0  0  0  0  0  0
    5.7304    3.8806   25.8363 H   0  0  0  0  0  0  0  0  0  0  0  0
    9.8703    3.8156   24.6405 H   0  0  0  0  0  0  0  0  0  0  0  0
    5.6859    0.7081   22.1001 H   0  0  0  0  0  0  0  0  0  0  0  0
    3.6634    2.0033   21.6928 H   0  0  0  0  0  0  0  0  0  0  0  0
    3.0114    2.6564   19.3629 H   0  0  0  0  0  0  0  0  0  0  0  0
    4.4373    1.9516   17.4622 H   0  0  0  0  0  0  0  0  0  0  0  0
   11.4241   -7.7171   26.2022 H   0  0  0  0  0  0  0  0  0  0  0  0
   10.4629   -8.1531   27.6275 H   0  0  0  0  0  0  0  0  0  0  0  0
   10.9950   -6.4780   27.3910 H   0  0  0  0  0  0  0  0  0  0  0  0
   10.4274    1.9911   22.8906 H   0  0  0  0  0  0  0  0  0  0  0  0
   10.6011    0.9882   24.3313 H   0  0  0  0  0  0  0  0  0  0  0  0
    7.6102   -1.2091   21.6640 H   0  0  0  0  0  0  0  0  0  0  0  0
    8.8741   -1.4657   20.4475 H   0  0  0  0  0  0  0  0  0  0  0  0
    8.5795   -6.7463   26.8137 H   0  0  0  0  0  0  0  0  0  0  0  0
    8.9966   -8.0064   25.6366 H   0  0  0  0  0  0  0  0  0  0  0  0
    8.9776   -4.7057   26.5317 H   0  0  0  0  0  0  0  0  0  0  0  0
  1  2  2  0  0  0  0
  1  7  1  0  0  0  0
  2  9  1  0  0  0  0
  3  5  2  0  0  0  0
  3 10  1  0  0  0  0
  4  6  1  0  0  0  0
  4 10  2  0  0  0  0
  5 11  1  0  0  0  0
  6 11  2  0  0  0  0
  7 12  2  0  0  0  0
  8  9  2  0  0  0  0
  8 12  1  0  0  0  0
  9 22  1  0  0  0  0
 10 28  1  0  0  0  0
 11 29  1  0  0  0  0
 12 32  1  0  0  0  0
 13 14  2  0  0  0  0
 13 15  1  0  0  0  0
 13 27  1  0  0  0  0
 14 23  1  0  0  0  0
 14 25  1  0  0  0  0
 15 16  2  0  0  0  0
 16 17  1  0  0  0  0
 17 18  2  0  0  0  0
 18 27  1  0  0  0  0
 19 23  1  0  0  0  0
 19 29  1  0  0  0  0
 19 30  2  0  0  0  0
 20 24  1  0  0  0  0
 20 28  1  0  0  0  0
 20 31  2  0  0  0  0
 21 24  1  0  0  0  0
 22 29  1  0  0  0  0
 25 26  2  0  0  0  0
 26 27  1  0  0  0  0
  1 33  1  0  0  0  0
  2 34  1  0  0  0  0
  3 35  1  0  0  0  0
  4 36  1  0  0  0  0
  5 37  1  0  0  0  0
  6 38  1  0  0  0  0
  7 39  1  0  0  0  0
  8 40  1  0  0  0  0
 15 41  1  0  0  0  0
 16 42  1  0  0  0  0
 17 43  1  0  0  0  0
 18 44  1  0  0  0  0
 21 45  1  0  0  0  0
 21 46  1  0  0  0  0
 21 47  1  0  0  0  0
 22 48  1  0  0  0  0
 22 49  1  0  0  0  0
 23 50  1  0  0  0  0
 23 51  1  0  0  0  0
 24 52  1  0  0  0  0
 24 53  1  0  0  0  0
 28 54  1  0  0  0  0
M  END
> <clash_score>
1.4986045736624285

> <docking_score>
-6.053567886352539

$$$$
BENZO_431_1
  -OEChem-08222011083D

 59 63  0     0  0  0  0  0  0999 V2000
    8.9960   -2.3380   25.5320 C   0  0  0  0  0  0  0  0  0  0  0  0
    9.6730   -3.4710   23.5300 C   0  0  0  0  0  0  0  0  0  0  0  0
    9.0720   -1.1280   24.8640 C   0  0  0  0  0  0  0  0  0  0  0  0
    9.7200   -2.2600   22.8630 C   0  0  0  0  0  0  0  0  0  0  0  0
   12.1233    1.3811   24.9242 C   0  0  0  0  0  0  0  0  0  0  0  0
   12.3261    1.4247   22.7351 C   0  0  0  0  0  0  0  0  0  0  0  0
   11.3794    1.3761   23.7290 C   0  0  0  0  0  0  0  0  0  0  0  0
    9.3070   -3.5340   24.8780 C   0  0  0  0  0  0  0  0  0  0  0  0
    9.3350   -1.0880   23.5010 C   0  0  0  0  0  0  0  0  0  0  0  0
    6.1790    0.5730   19.9990 C   0  0  0  0  0  0  0  0  0  0  0  0
    7.3170   -0.1610   19.8550 C   0  0  0  0  0  0  0  0  0  0  0  0
    5.4210    0.9600   21.0930 C   0  0  0  0  0  0  0  0  0  0  0  0
    4.2750    1.7050   20.8490 C   0  0  0  0  0  0  0  0  0  0  0  0
    3.9160    2.0630   19.5520 C   0  0  0  0  0  0  0  0  0  0  0  0
    4.6890    1.6810   18.4640 C   0  0  0  0  0  0  0  0  0  0  0  0
    9.0420    0.3700   21.5280 C   0  0  0  0  0  0  0  0  0  0  0  0
    7.3635   -6.1361   27.1888 C   0  0  0  0  0  0  0  0  0  0  0  0
    8.1961   -4.9735   27.7341 C   0  0  0  0  0  0  0  0  0  0  0  0
    7.1942   -6.0394   25.6709 C   0  0  0  0  0  0  0  0  0  0  0  0
    9.5196   -4.8490   26.9797 C   0  0  0  0  0  0  0  0  0  0  0  0
    8.5442   -5.8838   24.9639 C   0  0  0  0  0  0  0  0  0  0  0  0
   14.8305    1.5084   22.7418 C   0  0  0  0  0  0  0  0  0  0  0  0
    9.8870    1.3260   23.5730 C   0  0  0  0  0  0  0  0  0  0  0  0
    8.1890   -0.7180   20.8700 C   0  0  0  0  0  0  0  0  0  0  0  0
   13.4410    1.4289   24.7112 N   0  0  0  0  0  0  0  0  0  0  0  0
    7.6390   -0.2680   18.5410 N   0  0  0  0  0  0  0  0  0  0  0  0
    6.7580    0.3810   17.8350 N   0  0  0  0  0  0  0  0  0  0  0  0
   13.5326    1.4543   23.3706 N   0  0  0  0  0  0  0  0  0  0  0  0
    5.8300    0.9190   18.6970 N   0  0  0  0  0  0  0  0  0  0  0  0
    9.2562   -4.7384   25.5422 N   0  0  0  0  0  0  0  0  0  0  0  0
    9.4560    0.1560   22.8130 N   0  0  0  0  0  0  0  0  0  0  0  0
    9.2690    1.4140   20.9380 O   0  0  0  0  0  0  0  0  0  0  0  0
    8.6905   -2.3533   26.5810 H   0  0  0  0  0  0  0  0  0  0  0  0
    9.9266   -4.3896   22.9917 H   0  0  0  0  0  0  0  0  0  0  0  0
    8.9233   -0.1992   25.4231 H   0  0  0  0  0  0  0  0  0  0  0  0
   10.0650   -2.2330   21.8256 H   0  0  0  0  0  0  0  0  0  0  0  0
   11.7624    1.3510   25.9426 H   0  0  0  0  0  0  0  0  0  0  0  0
   12.2462    1.4390   21.6566 H   0  0  0  0  0  0  0  0  0  0  0  0
    5.6859    0.7081   22.1001 H   0  0  0  0  0  0  0  0  0  0  0  0
    3.6634    2.0033   21.6928 H   0  0  0  0  0  0  0  0  0  0  0  0
    3.0114    2.6564   19.3629 H   0  0  0  0  0  0  0  0  0  0  0  0
    4.4373    1.9516   17.4622 H   0  0  0  0  0  0  0  0  0  0  0  0
    7.8482   -7.0901   27.4469 H   0  0  0  0  0  0  0  0  0  0  0  0
    6.3760   -6.1438   27.6724 H   0  0  0  0  0  0  0  0  0  0  0  0
    7.6307   -4.0424   27.6403 H   0  0  0  0  0  0  0  0  0  0  0  0
    8.3915   -5.1310   28.7968 H   0  0  0  0  0  0  0  0  0  0  0  0
    6.6888   -6.9376   25.3010 H   0  0  0  0  0  0  0  0  0  0  0  0
    6.5515   -5.1859   25.4257 H   0  0  0  0  0  0  0  0  0  0  0  0
   10.0492   -3.9640   27.3414 H   0  0  0  0  0  0  0  0  0  0  0  0
   10.1431   -5.7254   27.1778 H   0  0  0  0  0  0  0  0  0  0  0  0
    9.1338   -6.7931   25.0868 H   0  0  0  0  0  0  0  0  0  0  0  0
    8.3656   -5.7264   23.8998 H   0  0  0  0  0  0  0  0  0  0  0  0
   15.0990    2.5601   22.6124 H   0  0  0  0  0  0  0  0  0  0  0  0
   15.5636    1.0018   23.3756 H   0  0  0  0  0  0  0  0  0  0  0  0
   14.7841    1.0025   21.7733 H   0  0  0  0  0  0  0  0  0  0  0  0
    9.3974    1.2912   24.5523 H   0  0  0  0  0  0  0  0  0  0  0  0
    9.5159    2.2168   23.0554 H   0  0  0  0  0  0  0  0  0  0  0  0
    7.5972   -1.2056   21.6500 H   0  0  0  0  0  0  0  0  0  0  0  0
    8.8612   -1.4622   20.4334 H   0  0  0  0  0  0  0  0  0  0  0  0
  1  3  2  0  0  0  0
  1  8  1  0  0  0  0
  2  4  1  0  0  0  0
  2  8  2  0  0  0  0
  3  9  1  0  0  0  0
  4  9  2  0  0  0  0
  5  7  1  0  0  0  0
  5 25  2  0  0  0  0
  6  7  2  0  0  0  0
  6 28  1  0  0  0  0
  7 23  1  0  0  0  0
  8 30  1  0  0  0  0
  9 31  1  0  0  0  0
 10 11  2  0  0  0  0
 10 12  1  0  0  0  0
 10 29  1  0  0  0  0
 11 24  1  0  0  0  0
 11 26  1  0  0  0  0
 12 13  2  0  0  0  0
 13 14  1  0  0  0  0
 14 15  2  0  0  0  0
 15 29  1  0  0  0  0
 16 24  1  0  0  0  0
 16 31  1  0  0  0  0
 16 32  2  0  0  0  0
 17 18  1  0  0  0  0
 17 19  1  0  0  0  0
 18 20  1  0  0  0  0
 19 21  1  0  0  0  0
 20 30  1  0  0  0  0
 21 30  1  0  0  0  0
 22 28  1  0  0  0  0
 23 31  1  0  0  0  0
 25 28  1  0  0  0  0
 26 27  2  0  0  0  0
 27 29  1  0  0  0  0
  1 33  1  0  0  0  0
  2 34  1  0  0  0  0
  3 35  1  0  0  0  0
  4 36  1  0  0  0  0
  5 37  1  0  0  0  0
  6 38  1  0  0  0  0
 12 39  1  0  0  0  0
 13 40  1  0  0  0  0
 14 41  1  0  0  0  0
 15 42  1  0  0  0  0
 17 43  1  0  0  0  0
 17 44  1  0  0  0  0
 18 45  1  0  0  0  0
 18 46  1  0  0  0  0
 19 47  1  0  0  0  0
 19 48  1  0  0  0  0
 20 49  1  0  0  0  0
 20 50  1  0  0  0  0
 21 51  1  0  0  0  0
 21 52  1  0  0  0  0
 22 53  1  0  0  0  0
 22 54  1  0  0  0  0
 22 55  1  0  0  0  0
 23 56  1  0  0  0  0
 23 57  1  0  0  0  0
 24 58  1  0  0  0  0
 24 59  1  0  0  0  0
M  END
> <clash_score>
0

> <docking_score>
-8.67375373840332

$$$$
BENZO_429_1
  -OEChem-08222011083D

 59 63  0     0  0  0  0  0  0999 V2000
   14.1526    1.4694   24.0176 C   0  0  0  0  0  0  0  0  0  0  0  0
   13.3741    0.8121   24.9701 C   0  0  0  0  0  0  0  0  0  0  0  0
   13.5446    2.0802   22.9208 C   0  0  0  0  0  0  0  0  0  0  0  0
   11.9875    0.7654   24.8258 C   0  0  0  0  0  0  0  0  0  0  0  0
   12.1580    2.0335   22.7765 C   0  0  0  0  0  0  0  0  0  0  0  0
    8.9960   -2.3380   25.5320 C   0  0  0  0  0  0  0  0  0  0  0  0
    9.6730   -3.4710   23.5300 C   0  0  0  0  0  0  0  0  0  0  0  0
    9.0720   -1.1280   24.8640 C   0  0  0  0  0  0  0  0  0  0  0  0
    9.7200   -2.2600   22.8630 C   0  0  0  0  0  0  0  0  0  0  0  0
   11.3794    1.3761   23.7290 C   0  0  0  0  0  0  0  0  0  0  0  0
    9.3070   -3.5340   24.8780 C   0  0  0  0  0  0  0  0  0  0  0  0
    9.3350   -1.0880   23.5010 C   0  0  0  0  0  0  0  0  0  0  0  0
    6.1790    0.5730   19.9990 C   0  0  0  0  0  0  0  0  0  0  0  0
    7.3170   -0.1610   19.8550 C   0  0  0  0  0  0  0  0  0  0  0  0
    5.4210    0.9600   21.0930 C   0  0  0  0  0  0  0  0  0  0  0  0
    4.2750    1.7050   20.8490 C   0  0  0  0  0  0  0  0  0  0  0  0
    3.9160    2.0630   19.5520 C   0  0  0  0  0  0  0  0  0  0  0  0
    4.6890    1.6810   18.4640 C   0  0  0  0  0  0  0  0  0  0  0  0
    9.0420    0.3700   21.5280 C   0  0  0  0  0  0  0  0  0  0  0  0
    7.3635   -6.1361   27.1888 C   0  0  0  0  0  0  0  0  0  0  0  0
    8.1961   -4.9735   27.7341 C   0  0  0  0  0  0  0  0  0  0  0  0
    7.1942   -6.0394   25.6709 C   0  0  0  0  0  0  0  0  0  0  0  0
    9.5196   -4.8490   26.9797 C   0  0  0  0  0  0  0  0  0  0  0  0
    8.5442   -5.8838   24.9639 C   0  0  0  0  0  0  0  0  0  0  0  0
    9.8870    1.3260   23.5730 C   0  0  0  0  0  0  0  0  0  0  0  0
    8.1890   -0.7180   20.8700 C   0  0  0  0  0  0  0  0  0  0  0  0
    7.6390   -0.2680   18.5410 N   0  0  0  0  0  0  0  0  0  0  0  0
    6.7580    0.3810   17.8350 N   0  0  0  0  0  0  0  0  0  0  0  0
    5.8300    0.9190   18.6970 N   0  0  0  0  0  0  0  0  0  0  0  0
    9.2562   -4.7384   25.5422 N   0  0  0  0  0  0  0  0  0  0  0  0
    9.4560    0.1560   22.8130 N   0  0  0  0  0  0  0  0  0  0  0  0
    9.2690    1.4140   20.9380 O   0  0  0  0  0  0  0  0  0  0  0  0
   15.2322    1.5068   24.1308 H   0  0  0  0  0  0  0  0  0  0  0  0
   13.8473    0.3374   25.8248 H   0  0  0  0  0  0  0  0  0  0  0  0
   14.1503    2.5930   22.1795 H   0  0  0  0  0  0  0  0  0  0  0  0
   11.3889    0.2508   25.5729 H   0  0  0  0  0  0  0  0  0  0  0  0
   11.6930    2.5120   21.9187 H   0  0  0  0  0  0  0  0  0  0  0  0
    8.6905   -2.3533   26.5810 H   0  0  0  0  0  0  0  0  0  0  0  0
    9.9266   -4.3896   22.9917 H   0  0  0  0  0  0  0  0  0  0  0  0
    8.9233   -0.1992   25.4231 H   0  0  0  0  0  0  0  0  0  0  0  0
   10.0650   -2.2330   21.8256 H   0  0  0  0  0  0  0  0  0  0  0  0
    5.6859    0.7081   22.1001 H   0  0  0  0  0  0  0  0  0  0  0  0
    3.6634    2.0033   21.6928 H   0  0  0  0  0  0  0  0  0  0  0  0
    3.0114    2.6564   19.3629 H   0  0  0  0  0  0  0  0  0  0  0  0
    4.4373    1.9516   17.4622 H   0  0  0  0  0  0  0  0  0  0  0  0
    7.8482   -7.0901   27.4469 H   0  0  0  0  0  0  0  0  0  0  0  0
    6.3760   -6.1438   27.6724 H   0  0  0  0  0  0  0  0  0  0  0  0
    7.6307   -4.0424   27.6403 H   0  0  0  0  0  0  0  0  0  0  0  0
    8.3915   -5.1310   28.7968 H   0  0  0  0  0  0  0  0  0  0  0  0
    6.6888   -6.9376   25.3010 H   0  0  0  0  0  0  0  0  0  0  0  0
    6.5515   -5.1859   25.4257 H   0  0  0  0  0  0  0  0  0  0  0  0
   10.0492   -3.9640   27.3414 H   0  0  0  0  0  0  0  0  0  0  0  0
   10.1431   -5.7254   27.1778 H   0  0  0  0  0  0  0  0  0  0  0  0
    9.1338   -6.7931   25.0868 H   0  0  0  0  0  0  0  0  0  0  0  0
    8.3656   -5.7264   23.8998 H   0  0  0  0  0  0  0  0  0  0  0  0
    9.3974    1.2912   24.5523 H   0  0  0  0  0  0  0  0  0  0  0  0
    9.5159    2.2168   23.0554 H   0  0  0  0  0  0  0  0  0  0  0  0
    7.5972   -1.2056   21.6500 H   0  0  0  0  0  0  0  0  0  0  0  0
    8.8612   -1.4622   20.4334 H   0  0  0  0  0  0  0  0  0  0  0  0
  1  2  1  0  0  0  0
  1  3  2  0  0  0  0
  2  4  2  0  0  0  0
  3  5  1  0  0  0  0
  4 10  1  0  0  0  0
  5 10  2  0  0  0  0
  6  8  2  0  0  0  0
  6 11  1  0  0  0  0
  7  9  1  0  0  0  0
  7 11  2  0  0  0  0
  8 12  1  0  0  0  0
  9 12  2  0  0  0  0
 10 25  1  0  0  0  0
 11 30  1  0  0  0  0
 12 31  1  0  0  0  0
 13 14  2  0  0  0  0
 13 15  1  0  0  0  0
 13 29  1  0  0  0  0
 14 26  1  0  0  0  0
 14 27  1  0  0  0  0
 15 16  2  0  0  0  0
 16 17  1  0  0  0  0
 17 18  2  0  0  0  0
 18 29  1  0  0  0  0
 19 26  1  0  0  0  0
 19 31  1  0  0  0  0
 19 32  2  0  0  0  0
 20 21  1  0  0  0  0
 20 22  1  0  0  0  0
 21 23  1  0  0  0  0
 22 24  1  0  0  0  0
 23 30  1  0  0  0  0
 24 30  1  0  0  0  0
 25 31  1  0  0  0  0
 27 28  2  0  0  0  0
 28 29  1  0  0  0  0
  1 33  1  0  0  0  0
  2 34  1  0  0  0  0
  3 35  1  0  0  0  0
  4 36  1  0  0  0  0
  5 37  1  0  0  0  0
  6 38  1  0  0  0  0
  7 39  1  0  0  0  0
  8 40  1  0  0  0  0
  9 41  1  0  0  0  0
 15 42  1  0  0  0  0
 16 43  1  0  0  0  0
 17 44  1  0  0  0  0
 18 45  1  0  0  0  0
 20 46  1  0  0  0  0
 20 47  1  0  0  0  0
 21 48  1  0  0  0  0
 21 49  1  0  0  0  0
 22 50  1  0  0  0  0
 22 51  1  0  0  0  0
 23 52  1  0  0  0  0
 23 53  1  0  0  0  0
 24 54  1  0  0  0  0
 24 55  1  0  0  0  0
 25 56  1  0  0  0  0
 25 57  1  0  0  0  0
 26 58  1  0  0  0  0
 26 59  1  0  0  0  0
M  END
> <clash_score>
0

> <docking_score>
-8.957620620727539

$$$$
BENZO_432_1
  -OEChem-08222011123D

 44 47  0     0  0  0  0  0  0999 V2000
    8.9960   -2.3380   25.5320 C   0  0  0  0  0  0  0  0  0  0  0  0
    9.6730   -3.4710   23.5300 C   0  0  0  0  0  0  0  0  0  0  0  0
    9.0720   -1.1280   24.8640 C   0  0  0  0  0  0  0  0  0  0  0  0
    9.7200   -2.2600   22.8630 C   0  0  0  0  0  0  0  0  0  0  0  0
   12.2913    1.4279   22.6355 C   0  0  0  0  0  0  0  0  0  0  0  0
   13.6024    1.4662   23.0564 C   0  0  0  0  0  0  0  0  0  0  0  0
   12.0284    1.3764   24.9443 C   0  0  0  0  0  0  0  0  0  0  0  0
    9.3070   -3.5340   24.8780 C   0  0  0  0  0  0  0  0  0  0  0  0
   11.3794    1.3761   23.7290 C   0  0  0  0  0  0  0  0  0  0  0  0
    9.3350   -1.0880   23.5010 C   0  0  0  0  0  0  0  0  0  0  0  0
    6.1790    0.5730   19.9990 C   0  0  0  0  0  0  0  0  0  0  0  0
    7.3170   -0.1610   19.8550 C   0  0  0  0  0  0  0  0  0  0  0  0
    5.4210    0.9600   21.0930 C   0  0  0  0  0  0  0  0  0  0  0  0
    4.2750    1.7050   20.8490 C   0  0  0  0  0  0  0  0  0  0  0  0
    3.9160    2.0630   19.5520 C   0  0  0  0  0  0  0  0  0  0  0  0
    4.6890    1.6810   18.4640 C   0  0  0  0  0  0  0  0  0  0  0  0
    9.0420    0.3700   21.5280 C   0  0  0  0  0  0  0  0  0  0  0  0
    9.2505   -4.8264   25.5904 C   0  0  0  0  0  0  0  0  0  0  0  0
    9.8870    1.3260   23.5730 C   0  0  0  0  0  0  0  0  0  0  0  0
    8.1890   -0.7180   20.8700 C   0  0  0  0  0  0  0  0  0  0  0  0
    7.6390   -0.2680   18.5410 N   0  0  0  0  0  0  0  0  0  0  0  0
    6.7580    0.3810   17.8350 N   0  0  0  0  0  0  0  0  0  0  0  0
    5.8300    0.9190   18.6970 N   0  0  0  0  0  0  0  0  0  0  0  0
    9.4560    0.1560   22.8130 N   0  0  0  0  0  0  0  0  0  0  0  0
    9.2690    1.4140   20.9380 O   0  0  0  0  0  0  0  0  0  0  0  0
   13.7301    1.4394   24.7638 S   0  0  0  0  0  0  0  0  0  0  0  0
    8.6919   -2.3557   26.5813 H   0  0  0  0  0  0  0  0  0  0  0  0
    9.9267   -4.3907   22.9939 H   0  0  0  0  0  0  0  0  0  0  0  0
    8.9217   -0.1995   25.4231 H   0  0  0  0  0  0  0  0  0  0  0  0
   10.0653   -2.2339   21.8256 H   0  0  0  0  0  0  0  0  0  0  0  0
   12.0045    1.4365   21.5915 H   0  0  0  0  0  0  0  0  0  0  0  0
   14.4914    1.5078   22.4430 H   0  0  0  0  0  0  0  0  0  0  0  0
   11.5886    1.3416   25.9314 H   0  0  0  0  0  0  0  0  0  0  0  0
    5.6859    0.7081   22.1001 H   0  0  0  0  0  0  0  0  0  0  0  0
    3.6634    2.0033   21.6928 H   0  0  0  0  0  0  0  0  0  0  0  0
    3.0114    2.6564   19.3629 H   0  0  0  0  0  0  0  0  0  0  0  0
    4.4373    1.9516   17.4622 H   0  0  0  0  0  0  0  0  0  0  0  0
    8.2503   -5.2678   25.5020 H   0  0  0  0  0  0  0  0  0  0  0  0
    9.9817   -5.5374   25.1845 H   0  0  0  0  0  0  0  0  0  0  0  0
    9.4841   -4.7043   26.6562 H   0  0  0  0  0  0  0  0  0  0  0  0
    9.3974    1.2912   24.5523 H   0  0  0  0  0  0  0  0  0  0  0  0
    9.5159    2.2168   23.0553 H   0  0  0  0  0  0  0  0  0  0  0  0
    7.6102   -1.2091   21.6640 H   0  0  0  0  0  0  0  0  0  0  0  0
    8.8741   -1.4657   20.4475 H   0  0  0  0  0  0  0  0  0  0  0  0
  1  3  2  0  0  0  0
  1  8  1  0  0  0  0
  2  4  1  0  0  0  0
  2  8  2  0  0  0  0
  3 10  1  0  0  0  0
  4 10  2  0  0  0  0
  5  6  2  0  0  0  0
  5  9  1  0  0  0  0
  6 26  1  0  0  0  0
  7  9  2  0  0  0  0
  7 26  1  0  0  0  0
  8 18  1  0  0  0  0
  9 19  1  0  0  0  0
 10 24  1  0  0  0  0
 11 12  2  0  0  0  0
 11 13  1  0  0  0  0
 11 23  1  0  0  0  0
 12 20  1  0  0  0  0
 12 21  1  0  0  0  0
 13 14  2  0  0  0  0
 14 15  1  0  0  0  0
 15 16  2  0  0  0  0
 16 23  1  0  0  0  0
 17 20  1  0  0  0  0
 17 24  1  0  0  0  0
 17 25  2  0  0  0  0
 19 24  1  0  0  0  0
 21 22  2  0  0  0  0
 22 23  1  0  0  0  0
  1 27  1  0  0  0  0
  2 28  1  0  0  0  0
  3 29  1  0  0  0  0
  4 30  1  0  0  0  0
  5 31  1  0  0  0  0
  6 32  1  0  0  0  0
  7 33  1  0  0  0  0
 13 34  1  0  0  0  0
 14 35  1  0  0  0  0
 15 36  1  0  0  0  0
 16 37  1  0  0  0  0
 18 38  1  0  0  0  0
 18 39  1  0  0  0  0
 18 40  1  0  0  0  0
 19 41  1  0  0  0  0
 19 42  1  0  0  0  0
 20 43  1  0  0  0  0
 20 44  1  0  0  0  0
M  END
> <clash_score>
0

> <docking_score>
-9.281506538391113

$$$$
BENZO_435_1
  -OEChem-08222011123D

 47 50  0     0  0  0  0  0  0999 V2000
    8.9960   -2.3380   25.5320 C   0  0  0  0  0  0  0  0  0  0  0  0
    9.6730   -3.4710   23.5300 C   0  0  0  0  0  0  0  0  0  0  0  0
    9.0720   -1.1280   24.8640 C   0  0  0  0  0  0  0  0  0  0  0  0
    9.7200   -2.2600   22.8630 C   0  0  0  0  0  0  0  0  0  0  0  0
   12.1233    1.3811   24.9242 C   0  0  0  0  0  0  0  0  0  0  0  0
   12.3261    1.4247   22.7351 C   0  0  0  0  0  0  0  0  0  0  0  0
    9.3070   -3.5340   24.8780 C   0  0  0  0  0  0  0  0  0  0  0  0
   11.3794    1.3761   23.7290 C   0  0  0  0  0  0  0  0  0  0  0  0
    9.3350   -1.0880   23.5010 C   0  0  0  0  0  0  0  0  0  0  0  0
    6.1790    0.5730   19.9990 C   0  0  0  0  0  0  0  0  0  0  0  0
    7.3170   -0.1610   19.8550 C   0  0  0  0  0  0  0  0  0  0  0  0
    5.4210    0.9600   21.0930 C   0  0  0  0  0  0  0  0  0  0  0  0
    4.2750    1.7050   20.8490 C   0  0  0  0  0  0  0  0  0  0  0  0
    3.9160    2.0630   19.5520 C   0  0  0  0  0  0  0  0  0  0  0  0
    4.6890    1.6810   18.4640 C   0  0  0  0  0  0  0  0  0  0  0  0
    9.0420    0.3700   21.5280 C   0  0  0  0  0  0  0  0  0  0  0  0
    9.2505   -4.8264   25.5904 C   0  0  0  0  0  0  0  0  0  0  0  0
   14.8305    1.5084   22.7418 C   0  0  0  0  0  0  0  0  0  0  0  0
    9.8870    1.3260   23.5730 C   0  0  0  0  0  0  0  0  0  0  0  0
    8.1890   -0.7180   20.8700 C   0  0  0  0  0  0  0  0  0  0  0  0
   13.4410    1.4289   24.7112 N   0  0  0  0  0  0  0  0  0  0  0  0
    7.6390   -0.2680   18.5410 N   0  0  0  0  0  0  0  0  0  0  0  0
    6.7580    0.3810   17.8350 N   0  0  0  0  0  0  0  0  0  0  0  0
   13.5326    1.4543   23.3706 N   0  0  0  0  0  0  0  0  0  0  0  0
    5.8300    0.9190   18.6970 N   0  0  0  0  0  0  0  0  0  0  0  0
    9.4560    0.1560   22.8130 N   0  0  0  0  0  0  0  0  0  0  0  0
    9.2690    1.4140   20.9380 O   0  0  0  0  0  0  0  0  0  0  0  0
    8.6919   -2.3557   26.5813 H   0  0  0  0  0  0  0  0  0  0  0  0
    9.9267   -4.3907   22.9939 H   0  0  0  0  0  0  0  0  0  0  0  0
    8.9217   -0.1995   25.4231 H   0  0  0  0  0  0  0  0  0  0  0  0
   10.0653   -2.2339   21.8256 H   0  0  0  0  0  0  0  0  0  0  0  0
   11.7624    1.3510   25.9426 H   0  0  0  0  0  0  0  0  0  0  0  0
   12.2462    1.4390   21.6566 H   0  0  0  0  0  0  0  0  0  0  0  0
    5.6859    0.7081   22.1001 H   0  0  0  0  0  0  0  0  0  0  0  0
    3.6634    2.0033   21.6928 H   0  0  0  0  0  0  0  0  0  0  0  0
    3.0114    2.6564   19.3629 H   0  0  0  0  0  0  0  0  0  0  0  0
    4.4373    1.9516   17.4622 H   0  0  0  0  0  0  0  0  0  0  0  0
    8.2503   -5.2678   25.5020 H   0  0  0  0  0  0  0  0  0  0  0  0
    9.9817   -5.5374   25.1845 H   0  0  0  0  0  0  0  0  0  0  0  0
    9.4841   -4.7043   26.6562 H   0  0  0  0  0  0  0  0  0  0  0  0
   15.0990    2.5601   22.6124 H   0  0  0  0  0  0  0  0  0  0  0  0
   15.5636    1.0018   23.3756 H   0  0  0  0  0  0  0  0  0  0  0  0
   14.7841    1.0025   21.7733 H   0  0  0  0  0  0  0  0  0  0  0  0
    9.3974    1.2912   24.5523 H   0  0  0  0  0  0  0  0  0  0  0  0
    9.5159    2.2168   23.0553 H   0  0  0  0  0  0  0  0  0  0  0  0
    7.6102   -1.2091   21.6640 H   0  0  0  0  0  0  0  0  0  0  0  0
    8.8741   -1.4657   20.4475 H   0  0  0  0  0  0  0  0  0  0  0  0
  1  3  2  0  0  0  0
  1  7  1  0  0  0  0
  2  4  1  0  0  0  0
  2  7  2  0  0  0  0
  3  9  1  0  0  0  0
  4  9  2  0  0  0  0
  5  8  1  0  0  0  0
  5 21  2  0  0  0  0
  6  8  2  0  0  0  0
  6 24  1  0  0  0  0
  7 17  1  0  0  0  0
  8 19  1  0  0  0  0
  9 26  1  0  0  0  0
 10 11  2  0  0  0  0
 10 12  1  0  0  0  0
 10 25  1  0  0  0  0
 11 20  1  0  0  0  0
 11 22  1  0  0  0  0
 12 13  2  0  0  0  0
 13 14  1  0  0  0  0
 14 15  2  0  0  0  0
 15 25  1  0  0  0  0
 16 20  1  0  0  0  0
 16 26  1  0  0  0  0
 16 27  2  0  0  0  0
 18 24  1  0  0  0  0
 19 26  1  0  0  0  0
 21 24  1  0  0  0  0
 22 23  2  0  0  0  0
 23 25  1  0  0  0  0
  1 28  1  0  0  0  0
  2 29  1  0  0  0  0
  3 30  1  0  0  0  0
  4 31  1  0  0  0  0
  5 32  1  0  0  0  0
  6 33  1  0  0  0  0
 12 34  1  0  0  0  0
 13 35  1  0  0  0  0
 14 36  1  0  0  0  0
 15 37  1  0  0  0  0
 17 38  1  0  0  0  0
 17 39  1  0  0  0  0
 17 40  1  0  0  0  0
 18 41  1  0  0  0  0
 18 42  1  0  0  0  0
 18 43  1  0  0  0  0
 19 44  1  0  0  0  0
 19 45  1  0  0  0  0
 20 46  1  0  0  0  0
 20 47  1  0  0  0  0
M  END
> <clash_score>
0

> <docking_score>
-8.918787956237793

$$$$
BENZO_433_1
  -OEChem-08222011123D

 47 50  0     0  0  0  0  0  0999 V2000
   14.1526    1.4694   24.0176 C   0  0  0  0  0  0  0  0  0  0  0  0
   13.3741    0.8121   24.9701 C   0  0  0  0  0  0  0  0  0  0  0  0
   13.5446    2.0802   22.9208 C   0  0  0  0  0  0  0  0  0  0  0  0
   11.9875    0.7654   24.8258 C   0  0  0  0  0  0  0  0  0  0  0  0
   12.1580    2.0335   22.7765 C   0  0  0  0  0  0  0  0  0  0  0  0
    8.9960   -2.3380   25.5320 C   0  0  0  0  0  0  0  0  0  0  0  0
    9.6730   -3.4710   23.5300 C   0  0  0  0  0  0  0  0  0  0  0  0
    9.0720   -1.1280   24.8640 C   0  0  0  0  0  0  0  0  0  0  0  0
    9.7200   -2.2600   22.8630 C   0  0  0  0  0  0  0  0  0  0  0  0
    9.3070   -3.5340   24.8780 C   0  0  0  0  0  0  0  0  0  0  0  0
   11.3794    1.3761   23.7290 C   0  0  0  0  0  0  0  0  0  0  0  0
    9.3350   -1.0880   23.5010 C   0  0  0  0  0  0  0  0  0  0  0  0
    6.1790    0.5730   19.9990 C   0  0  0  0  0  0  0  0  0  0  0  0
    7.3170   -0.1610   19.8550 C   0  0  0  0  0  0  0  0  0  0  0  0
    5.4210    0.9600   21.0930 C   0  0  0  0  0  0  0  0  0  0  0  0
    4.2750    1.7050   20.8490 C   0  0  0  0  0  0  0  0  0  0  0  0
    3.9160    2.0630   19.5520 C   0  0  0  0  0  0  0  0  0  0  0  0
    4.6890    1.6810   18.4640 C   0  0  0  0  0  0  0  0  0  0  0  0
    9.0420    0.3700   21.5280 C   0  0  0  0  0  0  0  0  0  0  0  0
    9.2505   -4.8264   25.5904 C   0  0  0  0  0  0  0  0  0  0  0  0
    9.8870    1.3260   23.5730 C   0  0  0  0  0  0  0  0  0  0  0  0
    8.1890   -0.7180   20.8700 C   0  0  0  0  0  0  0  0  0  0  0  0
    7.6390   -0.2680   18.5410 N   0  0  0  0  0  0  0  0  0  0  0  0
    6.7580    0.3810   17.8350 N   0  0  0  0  0  0  0  0  0  0  0  0
    5.8300    0.9190   18.6970 N   0  0  0  0  0  0  0  0  0  0  0  0
    9.4560    0.1560   22.8130 N   0  0  0  0  0  0  0  0  0  0  0  0
    9.2690    1.4140   20.9380 O   0  0  0  0  0  0  0  0  0  0  0  0
   15.2322    1.5068   24.1308 H   0  0  0  0  0  0  0  0  0  0  0  0
   13.8473    0.3374   25.8248 H   0  0  0  0  0  0  0  0  0  0  0  0
   14.1503    2.5930   22.1795 H   0  0  0  0  0  0  0  0  0  0  0  0
   11.3889    0.2508   25.5729 H   0  0  0  0  0  0  0  0  0  0  0  0
   11.6930    2.5120   21.9187 H   0  0  0  0  0  0  0  0  0  0  0  0
    8.6919   -2.3557   26.5813 H   0  0  0  0  0  0  0  0  0  0  0  0
    9.9267   -4.3907   22.9939 H   0  0  0  0  0  0  0  0  0  0  0  0
    8.9217   -0.1995   25.4231 H   0  0  0  0  0  0  0  0  0  0  0  0
   10.0653   -2.2339   21.8256 H   0  0  0  0  0  0  0  0  0  0  0  0
    5.6859    0.7081   22.1001 H   0  0  0  0  0  0  0  0  0  0  0  0
    3.6634    2.0033   21.6928 H   0  0  0  0  0  0  0  0  0  0  0  0
    3.0114    2.6564   19.3629 H   0  0  0  0  0  0  0  0  0  0  0  0
    4.4373    1.9516   17.4622 H   0  0  0  0  0  0  0  0  0  0  0  0
    8.2503   -5.2678   25.5020 H   0  0  0  0  0  0  0  0  0  0  0  0
    9.9817   -5.5374   25.1845 H   0  0  0  0  0  0  0  0  0  0  0  0
    9.4841   -4.7043   26.6562 H   0  0  0  0  0  0  0  0  0  0  0  0
    9.3974    1.2912   24.5523 H   0  0  0  0  0  0  0  0  0  0  0  0
    9.5159    2.2168   23.0553 H   0  0  0  0  0  0  0  0  0  0  0  0
    7.6102   -1.2091   21.6640 H   0  0  0  0  0  0  0  0  0  0  0  0
    8.8741   -1.4657   20.4475 H   0  0  0  0  0  0  0  0  0  0  0  0
  1  2  1  0  0  0  0
  1  3  2  0  0  0  0
  2  4  2  0  0  0  0
  3  5  1  0  0  0  0
  4 11  1  0  0  0  0
  5 11  2  0  0  0  0
  6  8  2  0  0  0  0
  6 10  1  0  0  0  0
  7  9  1  0  0  0  0
  7 10  2  0  0  0  0
  8 12  1  0  0  0  0
  9 12  2  0  0  0  0
 10 20  1  0  0  0  0
 11 21  1  0  0  0  0
 12 26  1  0  0  0  0
 13 14  2  0  0  0  0
 13 15  1  0  0  0  0
 13 25  1  0  0  0  0
 14 22  1  0  0  0  0
 14 23  1  0  0  0  0
 15 16  2  0  0  0  0
 16 17  1  0  0  0  0
 17 18  2  0  0  0  0
 18 25  1  0  0  0  0
 19 22  1  0  0  0  0
 19 26  1  0  0  0  0
 19 27  2  0  0  0  0
 21 26  1  0  0  0  0
 23 24  2  0  0  0  0
 24 25  1  0  0  0  0
  1 28  1  0  0  0  0
  2 29  1  0  0  0  0
  3 30  1  0  0  0  0
  4 31  1  0  0  0  0
  5 32  1  0  0  0  0
  6 33  1  0  0  0  0
  7 34  1  0  0  0  0
  8 35  1  0  0  0  0
  9 36  1  0  0  0  0
 15 37  1  0  0  0  0
 16 38  1  0  0  0  0
 17 39  1  0  0  0  0
 18 40  1  0  0  0  0
 20 41  1  0  0  0  0
 20 42  1  0  0  0  0
 20 43  1  0  0  0  0
 21 44  1  0  0  0  0
 21 45  1  0  0  0  0
 22 46  1  0  0  0  0
 22 47  1  0  0  0  0
M  END
> <clash_score>
0

> <docking_score>
-9.202653884887695

$$$$
BENZO_434_1
  -OEChem-08222011123D

 47 50  0     0  0  0  0  0  0999 V2000
    6.4089    2.0844   24.8766 C   0  0  0  0  0  0  0  0  0  0  0  0
    7.4847    1.4191   24.2887 C   0  0  0  0  0  0  0  0  0  0  0  0
    8.9960   -2.3380   25.5320 C   0  0  0  0  0  0  0  0  0  0  0  0
    9.6730   -3.4710   23.5300 C   0  0  0  0  0  0  0  0  0  0  0  0
    9.0720   -1.1280   24.8640 C   0  0  0  0  0  0  0  0  0  0  0  0
    9.7200   -2.2600   22.8630 C   0  0  0  0  0  0  0  0  0  0  0  0
    6.5777    3.3741   25.3805 C   0  0  0  0  0  0  0  0  0  0  0  0
    8.8980    3.3330   24.7088 C   0  0  0  0  0  0  0  0  0  0  0  0
    9.3070   -3.5340   24.8780 C   0  0  0  0  0  0  0  0  0  0  0  0
    8.7292    2.0433   24.2048 C   0  0  0  0  0  0  0  0  0  0  0  0
    9.3350   -1.0880   23.5010 C   0  0  0  0  0  0  0  0  0  0  0  0
    7.8222    3.9984   25.2966 C   0  0  0  0  0  0  0  0  0  0  0  0
    6.1790    0.5730   19.9990 C   0  0  0  0  0  0  0  0  0  0  0  0
    7.3170   -0.1610   19.8550 C   0  0  0  0  0  0  0  0  0  0  0  0
    5.4210    0.9600   21.0930 C   0  0  0  0  0  0  0  0  0  0  0  0
    4.2750    1.7050   20.8490 C   0  0  0  0  0  0  0  0  0  0  0  0
    3.9160    2.0630   19.5520 C   0  0  0  0  0  0  0  0  0  0  0  0
    4.6890    1.6810   18.4640 C   0  0  0  0  0  0  0  0  0  0  0  0
    9.0420    0.3700   21.5280 C   0  0  0  0  0  0  0  0  0  0  0  0
    9.2505   -4.8264   25.5904 C   0  0  0  0  0  0  0  0  0  0  0  0
    9.8870    1.3260   23.5730 C   0  0  0  0  0  0  0  0  0  0  0  0
    8.1890   -0.7180   20.8700 C   0  0  0  0  0  0  0  0  0  0  0  0
    7.6390   -0.2680   18.5410 N   0  0  0  0  0  0  0  0  0  0  0  0
    6.7580    0.3810   17.8350 N   0  0  0  0  0  0  0  0  0  0  0  0
    5.8300    0.9190   18.6970 N   0  0  0  0  0  0  0  0  0  0  0  0
    9.4560    0.1560   22.8130 N   0  0  0  0  0  0  0  0  0  0  0  0
    9.2690    1.4140   20.9380 O   0  0  0  0  0  0  0  0  0  0  0  0
    8.0301    5.5891   25.9196 Cl  0  0  0  0  0  0  0  0  0  0  0  0
    5.4400    1.5979   24.9418 H   0  0  0  0  0  0  0  0  0  0  0  0
    7.3441    0.4143   23.8988 H   0  0  0  0  0  0  0  0  0  0  0  0
    8.6919   -2.3557   26.5813 H   0  0  0  0  0  0  0  0  0  0  0  0
    9.9267   -4.3907   22.9939 H   0  0  0  0  0  0  0  0  0  0  0  0
    8.9217   -0.1995   25.4231 H   0  0  0  0  0  0  0  0  0  0  0  0
   10.0653   -2.2339   21.8256 H   0  0  0  0  0  0  0  0  0  0  0  0
    5.7304    3.8806   25.8363 H   0  0  0  0  0  0  0  0  0  0  0  0
    9.8703    3.8156   24.6405 H   0  0  0  0  0  0  0  0  0  0  0  0
    5.6859    0.7081   22.1001 H   0  0  0  0  0  0  0  0  0  0  0  0
    3.6634    2.0033   21.6928 H   0  0  0  0  0  0  0  0  0  0  0  0
    3.0114    2.6564   19.3629 H   0  0  0  0  0  0  0  0  0  0  0  0
    4.4373    1.9516   17.4622 H   0  0  0  0  0  0  0  0  0  0  0  0
    8.2503   -5.2678   25.5020 H   0  0  0  0  0  0  0  0  0  0  0  0
    9.9817   -5.5374   25.1845 H   0  0  0  0  0  0  0  0  0  0  0  0
    9.4841   -4.7043   26.6562 H   0  0  0  0  0  0  0  0  0  0  0  0
   10.4274    1.9911   22.8906 H   0  0  0  0  0  0  0  0  0  0  0  0
   10.6011    0.9882   24.3313 H   0  0  0  0  0  0  0  0  0  0  0  0
    7.6102   -1.2091   21.6640 H   0  0  0  0  0  0  0  0  0  0  0  0
    8.8741   -1.4657   20.4475 H   0  0  0  0  0  0  0  0  0  0  0  0
  1  2  2  0  0  0  0
  1  7  1  0  0  0  0
  2 10  1  0  0  0  0
  3  5  2  0  0  0  0
  3  9  1  0  0  0  0
  4  6  1  0  0  0  0
  4  9  2  0  0  0  0
  5 11  1  0  0  0  0
  6 11  2  0  0  0  0
  7 12  2  0  0  0  0
  8 10  2  0  0  0  0
  8 12  1  0  0  0  0
  9 20  1  0  0  0  0
 10 21  1  0  0  0  0
 11 26  1  0  0  0  0
 12 28  1  0  0  0  0
 13 14  2  0  0  0  0
 13 15  1  0  0  0  0
 13 25  1  0  0  0  0
 14 22  1  0  0  0  0
 14 23  1  0  0  0  0
 15 16  2  0  0  0  0
 16 17  1  0  0  0  0
 17 18  2  0  0  0  0
 18 25  1  0  0  0  0
 19 22  1  0  0  0  0
 19 26  1  0  0  0  0
 19 27  2  0  0  0  0
 21 26  1  0  0  0  0
 23 24  2  0  0  0  0
 24 25  1  0  0  0  0
  1 29  1  0  0  0  0
  2 30  1  0  0  0  0
  3 31  1  0  0  0  0
  4 32  1  0  0  0  0
  5 33  1  0  0  0  0
  6 34  1  0  0  0  0
  7 35  1  0  0  0  0
  8 36  1  0  0  0  0
 15 37  1  0  0  0  0
 16 38  1  0  0  0  0
 17 39  1  0  0  0  0
 18 40  1  0  0  0  0
 20 41  1  0  0  0  0
 20 42  1  0  0  0  0
 20 43  1  0  0  0  0
 21 44  1  0  0  0  0
 21 45  1  0  0  0  0
 22 46  1  0  0  0  0
 22 47  1  0  0  0  0
M  END
> <clash_score>
0

> <docking_score>
-8.588672637939453

$$$$
BENZO_436_1
  -OEChem-08222011123D

 45 48  0     0  0  0  0  0  0999 V2000
    9.0720   -1.1280   24.8640 C   0  0  0  0  0  0  0  0  0  0  0  0
    9.7200   -2.2600   22.8630 C   0  0  0  0  0  0  0  0  0  0  0  0
    8.9960   -2.3380   25.5320 C   0  0  0  0  0  0  0  0  0  0  0  0
    9.6730   -3.4710   23.5300 C   0  0  0  0  0  0  0  0  0  0  0  0
   12.2913    1.4279   22.6355 C   0  0  0  0  0  0  0  0  0  0  0  0
   13.6024    1.4662   23.0564 C   0  0  0  0  0  0  0  0  0  0  0  0
   12.0284    1.3764   24.9443 C   0  0  0  0  0  0  0  0  0  0  0  0
   11.3794    1.3761   23.7290 C   0  0  0  0  0  0  0  0  0  0  0  0
    9.3350   -1.0880   23.5010 C   0  0  0  0  0  0  0  0  0  0  0  0
    9.3070   -3.5340   24.8780 C   0  0  0  0  0  0  0  0  0  0  0  0
    6.1790    0.5730   19.9990 C   0  0  0  0  0  0  0  0  0  0  0  0
    7.3170   -0.1610   19.8550 C   0  0  0  0  0  0  0  0  0  0  0  0
    5.4210    0.9600   21.0930 C   0  0  0  0  0  0  0  0  0  0  0  0
    4.2750    1.7050   20.8490 C   0  0  0  0  0  0  0  0  0  0  0  0
    3.9160    2.0630   19.5520 C   0  0  0  0  0  0  0  0  0  0  0  0
    4.6890    1.6810   18.4640 C   0  0  0  0  0  0  0  0  0  0  0  0
    9.0420    0.3700   21.5280 C   0  0  0  0  0  0  0  0  0  0  0  0
    8.8720   -4.6805   26.9013 C   0  0  0  0  0  0  0  0  0  0  0  0
    9.8870    1.3260   23.5730 C   0  0  0  0  0  0  0  0  0  0  0  0
    8.1890   -0.7180   20.8700 C   0  0  0  0  0  0  0  0  0  0  0  0
    7.6390   -0.2680   18.5410 N   0  0  0  0  0  0  0  0  0  0  0  0
    6.7580    0.3810   17.8350 N   0  0  0  0  0  0  0  0  0  0  0  0
    5.8300    0.9190   18.6970 N   0  0  0  0  0  0  0  0  0  0  0  0
    9.4560    0.1560   22.8130 N   0  0  0  0  0  0  0  0  0  0  0  0
    9.2690    1.4140   20.9380 O   0  0  0  0  0  0  0  0  0  0  0  0
    9.2555   -4.7124   25.5274 O   0  0  0  0  0  0  0  0  0  0  0  0
   13.7301    1.4394   24.7638 S   0  0  0  0  0  0  0  0  0  0  0  0
    8.9221   -0.1995   25.4231 H   0  0  0  0  0  0  0  0  0  0  0  0
   10.0642   -2.2347   21.8253 H   0  0  0  0  0  0  0  0  0  0  0  0
    8.6902   -2.3588   26.5805 H   0  0  0  0  0  0  0  0  0  0  0  0
    9.9254   -4.3921   22.9961 H   0  0  0  0  0  0  0  0  0  0  0  0
   12.0045    1.4365   21.5915 H   0  0  0  0  0  0  0  0  0  0  0  0
   14.4914    1.5078   22.4430 H   0  0  0  0  0  0  0  0  0  0  0  0
   11.5886    1.3416   25.9314 H   0  0  0  0  0  0  0  0  0  0  0  0
    5.6859    0.7081   22.1001 H   0  0  0  0  0  0  0  0  0  0  0  0
    3.6634    2.0033   21.6928 H   0  0  0  0  0  0  0  0  0  0  0  0
    3.0114    2.6564   19.3629 H   0  0  0  0  0  0  0  0  0  0  0  0
    4.4373    1.9516   17.4622 H   0  0  0  0  0  0  0  0  0  0  0  0
    8.8711   -5.6964   27.3038 H   0  0  0  0  0  0  0  0  0  0  0  0
    7.8758   -4.2402   26.9923 H   0  0  0  0  0  0  0  0  0  0  0  0
    9.5894   -4.0716   27.4566 H   0  0  0  0  0  0  0  0  0  0  0  0
    9.3974    1.2912   24.5523 H   0  0  0  0  0  0  0  0  0  0  0  0
    9.5159    2.2168   23.0553 H   0  0  0  0  0  0  0  0  0  0  0  0
    7.6102   -1.2091   21.6640 H   0  0  0  0  0  0  0  0  0  0  0  0
    8.8741   -1.4657   20.4475 H   0  0  0  0  0  0  0  0  0  0  0  0
  1  3  2  0  0  0  0
  1  9  1  0  0  0  0
  2  4  1  0  0  0  0
  2  9  2  0  0  0  0
  3 10  1  0  0  0  0
  4 10  2  0  0  0  0
  5  6  2  0  0  0  0
  5  8  1  0  0  0  0
  6 27  1  0  0  0  0
  7  8  2  0  0  0  0
  7 27  1  0  0  0  0
  8 19  1  0  0  0  0
  9 24  1  0  0  0  0
 10 26  1  0  0  0  0
 11 12  2  0  0  0  0
 11 13  1  0  0  0  0
 11 23  1  0  0  0  0
 12 20  1  0  0  0  0
 12 21  1  0  0  0  0
 13 14  2  0  0  0  0
 14 15  1  0  0  0  0
 15 16  2  0  0  0  0
 16 23  1  0  0  0  0
 17 20  1  0  0  0  0
 17 24  1  0  0  0  0
 17 25  2  0  0  0  0
 18 26  1  0  0  0  0
 19 24  1  0  0  0  0
 21 22  2  0  0  0  0
 22 23  1  0  0  0  0
  1 28  1  0  0  0  0
  2 29  1  0  0  0  0
  3 30  1  0  0  0  0
  4 31  1  0  0  0  0
  5 32  1  0  0  0  0
  6 33  1  0  0  0  0
  7 34  1  0  0  0  0
 13 35  1  0  0  0  0
 14 36  1  0  0  0  0
 15 37  1  0  0  0  0
 16 38  1  0  0  0  0
 18 39  1  0  0  0  0
 18 40  1  0  0  0  0
 18 41  1  0  0  0  0
 19 42  1  0  0  0  0
 19 43  1  0  0  0  0
 20 44  1  0  0  0  0
 20 45  1  0  0  0  0
M  END
> <clash_score>
0

> <docking_score>
-9.017807960510254

$$$$
BENZO_439_1
  -OEChem-08222011123D

 48 51  0     0  0  0  0  0  0999 V2000
    9.0720   -1.1280   24.8640 C   0  0  0  0  0  0  0  0  0  0  0  0
    9.7200   -2.2600   22.8630 C   0  0  0  0  0  0  0  0  0  0  0  0
    8.9960   -2.3380   25.5320 C   0  0  0  0  0  0  0  0  0  0  0  0
    9.6730   -3.4710   23.5300 C   0  0  0  0  0  0  0  0  0  0  0  0
   12.1233    1.3811   24.9242 C   0  0  0  0  0  0  0  0  0  0  0  0
   12.3261    1.4247   22.7351 C   0  0  0  0  0  0  0  0  0  0  0  0
   11.3794    1.3761   23.7290 C   0  0  0  0  0  0  0  0  0  0  0  0
    9.3350   -1.0880   23.5010 C   0  0  0  0  0  0  0  0  0  0  0  0
    9.3070   -3.5340   24.8780 C   0  0  0  0  0  0  0  0  0  0  0  0
    6.1790    0.5730   19.9990 C   0  0  0  0  0  0  0  0  0  0  0  0
    7.3170   -0.1610   19.8550 C   0  0  0  0  0  0  0  0  0  0  0  0
    5.4210    0.9600   21.0930 C   0  0  0  0  0  0  0  0  0  0  0  0
    4.2750    1.7050   20.8490 C   0  0  0  0  0  0  0  0  0  0  0  0
    3.9160    2.0630   19.5520 C   0  0  0  0  0  0  0  0  0  0  0  0
    4.6890    1.6810   18.4640 C   0  0  0  0  0  0  0  0  0  0  0  0
    9.0420    0.3700   21.5280 C   0  0  0  0  0  0  0  0  0  0  0  0
   14.8305    1.5084   22.7418 C   0  0  0  0  0  0  0  0  0  0  0  0
    8.8720   -4.6805   26.9013 C   0  0  0  0  0  0  0  0  0  0  0  0
    9.8870    1.3260   23.5730 C   0  0  0  0  0  0  0  0  0  0  0  0
    8.1890   -0.7180   20.8700 C   0  0  0  0  0  0  0  0  0  0  0  0
   13.4410    1.4289   24.7112 N   0  0  0  0  0  0  0  0  0  0  0  0
    7.6390   -0.2680   18.5410 N   0  0  0  0  0  0  0  0  0  0  0  0
    6.7580    0.3810   17.8350 N   0  0  0  0  0  0  0  0  0  0  0  0
   13.5326    1.4543   23.3706 N   0  0  0  0  0  0  0  0  0  0  0  0
    5.8300    0.9190   18.6970 N   0  0  0  0  0  0  0  0  0  0  0  0
    9.4560    0.1560   22.8130 N   0  0  0  0  0  0  0  0  0  0  0  0
    9.2690    1.4140   20.9380 O   0  0  0  0  0  0  0  0  0  0  0  0
    9.2555   -4.7124   25.5274 O   0  0  0  0  0  0  0  0  0  0  0  0
    8.9221   -0.1995   25.4231 H   0  0  0  0  0  0  0  0  0  0  0  0
   10.0642   -2.2347   21.8253 H   0  0  0  0  0  0  0  0  0  0  0  0
    8.6902   -2.3588   26.5805 H   0  0  0  0  0  0  0  0  0  0  0  0
    9.9254   -4.3921   22.9961 H   0  0  0  0  0  0  0  0  0  0  0  0
   11.7624    1.3510   25.9426 H   0  0  0  0  0  0  0  0  0  0  0  0
   12.2462    1.4390   21.6566 H   0  0  0  0  0  0  0  0  0  0  0  0
    5.6859    0.7081   22.1001 H   0  0  0  0  0  0  0  0  0  0  0  0
    3.6634    2.0033   21.6928 H   0  0  0  0  0  0  0  0  0  0  0  0
    3.0114    2.6564   19.3629 H   0  0  0  0  0  0  0  0  0  0  0  0
    4.4373    1.9516   17.4622 H   0  0  0  0  0  0  0  0  0  0  0  0
   15.0990    2.5601   22.6124 H   0  0  0  0  0  0  0  0  0  0  0  0
   15.5636    1.0018   23.3756 H   0  0  0  0  0  0  0  0  0  0  0  0
   14.7841    1.0025   21.7733 H   0  0  0  0  0  0  0  0  0  0  0  0
    8.8711   -5.6964   27.3038 H   0  0  0  0  0  0  0  0  0  0  0  0
    7.8758   -4.2402   26.9923 H   0  0  0  0  0  0  0  0  0  0  0  0
    9.5894   -4.0716   27.4566 H   0  0  0  0  0  0  0  0  0  0  0  0
    9.3974    1.2912   24.5523 H   0  0  0  0  0  0  0  0  0  0  0  0
    9.5159    2.2168   23.0553 H   0  0  0  0  0  0  0  0  0  0  0  0
    7.6102   -1.2091   21.6640 H   0  0  0  0  0  0  0  0  0  0  0  0
    8.8741   -1.4657   20.4475 H   0  0  0  0  0  0  0  0  0  0  0  0
  1  3  2  0  0  0  0
  1  8  1  0  0  0  0
  2  4  1  0  0  0  0
  2  8  2  0  0  0  0
  3  9  1  0  0  0  0
  4  9  2  0  0  0  0
  5  7  1  0  0  0  0
  5 21  2  0  0  0  0
  6  7  2  0  0  0  0
  6 24  1  0  0  0  0
  7 19  1  0  0  0  0
  8 26  1  0  0  0  0
  9 28  1  0  0  0  0
 10 11  2  0  0  0  0
 10 12  1  0  0  0  0
 10 25  1  0  0  0  0
 11 20  1  0  0  0  0
 11 22  1  0  0  0  0
 12 13  2  0  0  0  0
 13 14  1  0  0  0  0
 14 15  2  0  0  0  0
 15 25  1  0  0  0  0
 16 20  1  0  0  0  0
 16 26  1  0  0  0  0
 16 27  2  0  0  0  0
 17 24  1  0  0  0  0
 18 28  1  0  0  0  0
 19 26  1  0  0  0  0
 21 24  1  0  0  0  0
 22 23  2  0  0  0  0
 23 25  1  0  0  0  0
  1 29  1  0  0  0  0
  2 30  1  0  0  0  0
  3 31  1  0  0  0  0
  4 32  1  0  0  0  0
  5 33  1  0  0  0  0
  6 34  1  0  0  0  0
 12 35  1  0  0  0  0
 13 36  1  0  0  0  0
 14 37  1  0  0  0  0
 15 38  1  0  0  0  0
 17 39  1  0  0  0  0
 17 40  1  0  0  0  0
 17 41  1  0  0  0  0
 18 42  1  0  0  0  0
 18 43  1  0  0  0  0
 18 44  1  0  0  0  0
 19 45  1  0  0  0  0
 19 46  1  0  0  0  0
 20 47  1  0  0  0  0
 20 48  1  0  0  0  0
M  END
> <clash_score>
0

> <docking_score>
-8.655088424682617

$$$$
BENZO_438_1
  -OEChem-08222011123D

 48 51  0     0  0  0  0  0  0999 V2000
    6.4089    2.0844   24.8766 C   0  0  0  0  0  0  0  0  0  0  0  0
    7.4847    1.4191   24.2887 C   0  0  0  0  0  0  0  0  0  0  0  0
    9.0720   -1.1280   24.8640 C   0  0  0  0  0  0  0  0  0  0  0  0
    9.7200   -2.2600   22.8630 C   0  0  0  0  0  0  0  0  0  0  0  0
    8.9960   -2.3380   25.5320 C   0  0  0  0  0  0  0  0  0  0  0  0
    9.6730   -3.4710   23.5300 C   0  0  0  0  0  0  0  0  0  0  0  0
    6.5777    3.3741   25.3805 C   0  0  0  0  0  0  0  0  0  0  0  0
    8.8980    3.3330   24.7088 C   0  0  0  0  0  0  0  0  0  0  0  0
    8.7292    2.0433   24.2048 C   0  0  0  0  0  0  0  0  0  0  0  0
    9.3350   -1.0880   23.5010 C   0  0  0  0  0  0  0  0  0  0  0  0
    9.3070   -3.5340   24.8780 C   0  0  0  0  0  0  0  0  0  0  0  0
    7.8222    3.9984   25.2966 C   0  0  0  0  0  0  0  0  0  0  0  0
    6.1790    0.5730   19.9990 C   0  0  0  0  0  0  0  0  0  0  0  0
    7.3170   -0.1610   19.8550 C   0  0  0  0  0  0  0  0  0  0  0  0
    5.4210    0.9600   21.0930 C   0  0  0  0  0  0  0  0  0  0  0  0
    4.2750    1.7050   20.8490 C   0  0  0  0  0  0  0  0  0  0  0  0
    3.9160    2.0630   19.5520 C   0  0  0  0  0  0  0  0  0  0  0  0
    4.6890    1.6810   18.4640 C   0  0  0  0  0  0  0  0  0  0  0  0
    9.0420    0.3700   21.5280 C   0  0  0  0  0  0  0  0  0  0  0  0
    8.8720   -4.6805   26.9013 C   0  0  0  0  0  0  0  0  0  0  0  0
    9.8870    1.3260   23.5730 C   0  0  0  0  0  0  0  0  0  0  0  0
    8.1890   -0.7180   20.8700 C   0  0  0  0  0  0  0  0  0  0  0  0
    7.6390   -0.2680   18.5410 N   0  0  0  0  0  0  0  0  0  0  0  0
    6.7580    0.3810   17.8350 N   0  0  0  0  0  0  0  0  0  0  0  0
    5.8300    0.9190   18.6970 N   0  0  0  0  0  0  0  0  0  0  0  0
    9.4560    0.1560   22.8130 N   0  0  0  0  0  0  0  0  0  0  0  0
    9.2690    1.4140   20.9380 O   0  0  0  0  0  0  0  0  0  0  0  0
    9.2555   -4.7124   25.5274 O   0  0  0  0  0  0  0  0  0  0  0  0
    8.0301    5.5891   25.9196 Cl  0  0  0  0  0  0  0  0  0  0  0  0
    5.4400    1.5979   24.9418 H   0  0  0  0  0  0  0  0  0  0  0  0
    7.3441    0.4143   23.8988 H   0  0  0  0  0  0  0  0  0  0  0  0
    8.9221   -0.1995   25.4231 H   0  0  0  0  0  0  0  0  0  0  0  0
   10.0642   -2.2347   21.8253 H   0  0  0  0  0  0  0  0  0  0  0  0
    8.6902   -2.3588   26.5805 H   0  0  0  0  0  0  0  0  0  0  0  0
    9.9254   -4.3921   22.9961 H   0  0  0  0  0  0  0  0  0  0  0  0
    5.7304    3.8806   25.8363 H   0  0  0  0  0  0  0  0  0  0  0  0
    9.8703    3.8156   24.6405 H   0  0  0  0  0  0  0  0  0  0  0  0
    5.6859    0.7081   22.1001 H   0  0  0  0  0  0  0  0  0  0  0  0
    3.6634    2.0033   21.6928 H   0  0  0  0  0  0  0  0  0  0  0  0
    3.0114    2.6564   19.3629 H   0  0  0  0  0  0  0  0  0  0  0  0
    4.4373    1.9516   17.4622 H   0  0  0  0  0  0  0  0  0  0  0  0
    8.8711   -5.6964   27.3038 H   0  0  0  0  0  0  0  0  0  0  0  0
    7.8758   -4.2402   26.9923 H   0  0  0  0  0  0  0  0  0  0  0  0
    9.5894   -4.0716   27.4566 H   0  0  0  0  0  0  0  0  0  0  0  0
   10.4274    1.9911   22.8906 H   0  0  0  0  0  0  0  0  0  0  0  0
   10.6011    0.9882   24.3313 H   0  0  0  0  0  0  0  0  0  0  0  0
    7.6102   -1.2091   21.6640 H   0  0  0  0  0  0  0  0  0  0  0  0
    8.8741   -1.4657   20.4475 H   0  0  0  0  0  0  0  0  0  0  0  0
  1  2  2  0  0  0  0
  1  7  1  0  0  0  0
  2  9  1  0  0  0  0
  3  5  2  0  0  0  0
  3 10  1  0  0  0  0
  4  6  1  0  0  0  0
  4 10  2  0  0  0  0
  5 11  1  0  0  0  0
  6 11  2  0  0  0  0
  7 12  2  0  0  0  0
  8  9  2  0  0  0  0
  8 12  1  0  0  0  0
  9 21  1  0  0  0  0
 10 26  1  0  0  0  0
 11 28  1  0  0  0  0
 12 29  1  0  0  0  0
 13 14  2  0  0  0  0
 13 15  1  0  0  0  0
 13 25  1  0  0  0  0
 14 22  1  0  0  0  0
 14 23  1  0  0  0  0
 15 16  2  0  0  0  0
 16 17  1  0  0  0  0
 17 18  2  0  0  0  0
 18 25  1  0  0  0  0
 19 22  1  0  0  0  0
 19 26  1  0  0  0  0
 19 27  2  0  0  0  0
 20 28  1  0  0  0  0
 21 26  1  0  0  0  0
 23 24  2  0  0  0  0
 24 25  1  0  0  0  0
  1 30  1  0  0  0  0
  2 31  1  0  0  0  0
  3 32  1  0  0  0  0
  4 33  1  0  0  0  0
  5 34  1  0  0  0  0
  6 35  1  0  0  0  0
  7 36  1  0  0  0  0
  8 37  1  0  0  0  0
 15 38  1  0  0  0  0
 16 39  1  0  0  0  0
 17 40  1  0  0  0  0
 18 41  1  0  0  0  0
 20 42  1  0  0  0  0
 20 43  1  0  0  0  0
 20 44  1  0  0  0  0
 21 45  1  0  0  0  0
 21 46  1  0  0  0  0
 22 47  1  0  0  0  0
 22 48  1  0  0  0  0
M  END
> <clash_score>
0

> <docking_score>
-8.32497787475586

$$$$
BENZO_437_1
  -OEChem-08222011123D

 48 51  0     0  0  0  0  0  0999 V2000
   14.1526    1.4694   24.0176 C   0  0  0  0  0  0  0  0  0  0  0  0
   13.3741    0.8121   24.9701 C   0  0  0  0  0  0  0  0  0  0  0  0
   13.5446    2.0802   22.9208 C   0  0  0  0  0  0  0  0  0  0  0  0
   11.9875    0.7654   24.8258 C   0  0  0  0  0  0  0  0  0  0  0  0
   12.1580    2.0335   22.7765 C   0  0  0  0  0  0  0  0  0  0  0  0
    9.0720   -1.1280   24.8640 C   0  0  0  0  0  0  0  0  0  0  0  0
    9.7200   -2.2600   22.8630 C   0  0  0  0  0  0  0  0  0  0  0  0
    8.9960   -2.3380   25.5320 C   0  0  0  0  0  0  0  0  0  0  0  0
    9.6730   -3.4710   23.5300 C   0  0  0  0  0  0  0  0  0  0  0  0
   11.3794    1.3761   23.7290 C   0  0  0  0  0  0  0  0  0  0  0  0
    9.3350   -1.0880   23.5010 C   0  0  0  0  0  0  0  0  0  0  0  0
    9.3070   -3.5340   24.8780 C   0  0  0  0  0  0  0  0  0  0  0  0
    6.1790    0.5730   19.9990 C   0  0  0  0  0  0  0  0  0  0  0  0
    7.3170   -0.1610   19.8550 C   0  0  0  0  0  0  0  0  0  0  0  0
    5.4210    0.9600   21.0930 C   0  0  0  0  0  0  0  0  0  0  0  0
    4.2750    1.7050   20.8490 C   0  0  0  0  0  0  0  0  0  0  0  0
    3.9160    2.0630   19.5520 C   0  0  0  0  0  0  0  0  0  0  0  0
    4.6890    1.6810   18.4640 C   0  0  0  0  0  0  0  0  0  0  0  0
    9.0420    0.3700   21.5280 C   0  0  0  0  0  0  0  0  0  0  0  0
    8.8720   -4.6805   26.9013 C   0  0  0  0  0  0  0  0  0  0  0  0
    9.8870    1.3260   23.5730 C   0  0  0  0  0  0  0  0  0  0  0  0
    8.1890   -0.7180   20.8700 C   0  0  0  0  0  0  0  0  0  0  0  0
    7.6390   -0.2680   18.5410 N   0  0  0  0  0  0  0  0  0  0  0  0
    6.7580    0.3810   17.8350 N   0  0  0  0  0  0  0  0  0  0  0  0
    5.8300    0.9190   18.6970 N   0  0  0  0  0  0  0  0  0  0  0  0
    9.4560    0.1560   22.8130 N   0  0  0  0  0  0  0  0  0  0  0  0
    9.2690    1.4140   20.9380 O   0  0  0  0  0  0  0  0  0  0  0  0
    9.2555   -4.7124   25.5274 O   0  0  0  0  0  0  0  0  0  0  0  0
   15.2322    1.5068   24.1308 H   0  0  0  0  0  0  0  0  0  0  0  0
   13.8473    0.3374   25.8248 H   0  0  0  0  0  0  0  0  0  0  0  0
   14.1503    2.5930   22.1795 H   0  0  0  0  0  0  0  0  0  0  0  0
   11.3889    0.2508   25.5729 H   0  0  0  0  0  0  0  0  0  0  0  0
   11.6930    2.5120   21.9187 H   0  0  0  0  0  0  0  0  0  0  0  0
    8.9221   -0.1995   25.4231 H   0  0  0  0  0  0  0  0  0  0  0  0
   10.0642   -2.2347   21.8253 H   0  0  0  0  0  0  0  0  0  0  0  0
    8.6902   -2.3588   26.5805 H   0  0  0  0  0  0  0  0  0  0  0  0
    9.9254   -4.3921   22.9961 H   0  0  0  0  0  0  0  0  0  0  0  0
    5.6859    0.7081   22.1001 H   0  0  0  0  0  0  0  0  0  0  0  0
    3.6634    2.0033   21.6928 H   0  0  0  0  0  0  0  0  0  0  0  0
    3.0114    2.6564   19.3629 H   0  0  0  0  0  0  0  0  0  0  0  0
    4.4373    1.9516   17.4622 H   0  0  0  0  0  0  0  0  0  0  0  0
    8.8711   -5.6964   27.3038 H   0  0  0  0  0  0  0  0  0  0  0  0
    7.8758   -4.2402   26.9923 H   0  0  0  0  0  0  0  0  0  0  0  0
    9.5894   -4.0716   27.4566 H   0  0  0  0  0  0  0  0  0  0  0  0
    9.3974    1.2912   24.5523 H   0  0  0  0  0  0  0  0  0  0  0  0
    9.5159    2.2168   23.0553 H   0  0  0  0  0  0  0  0  0  0  0  0
    7.6102   -1.2091   21.6640 H   0  0  0  0  0  0  0  0  0  0  0  0
    8.8741   -1.4657   20.4475 H   0  0  0  0  0  0  0  0  0  0  0  0
  1  2  1  0  0  0  0
  1  3  2  0  0  0  0
  2  4  2  0  0  0  0
  3  5  1  0  0  0  0
  4 10  1  0  0  0  0
  5 10  2  0  0  0  0
  6  8  2  0  0  0  0
  6 11  1  0  0  0  0
  7  9  1  0  0  0  0
  7 11  2  0  0  0  0
  8 12  1  0  0  0  0
  9 12  2  0  0  0  0
 10 21  1  0  0  0  0
 11 26  1  0  0  0  0
 12 28  1  0  0  0  0
 13 14  2  0  0  0  0
 13 15  1  0  0  0  0
 13 25  1  0  0  0  0
 14 22  1  0  0  0  0
 14 23  1  0  0  0  0
 15 16  2  0  0  0  0
 16 17  1  0  0  0  0
 17 18  2  0  0  0  0
 18 25  1  0  0  0  0
 19 22  1  0  0  0  0
 19 26  1  0  0  0  0
 19 27  2  0  0  0  0
 20 28  1  0  0  0  0
 21 26  1  0  0  0  0
 23 24  2  0  0  0  0
 24 25  1  0  0  0  0
  1 29  1  0  0  0  0
  2 30  1  0  0  0  0
  3 31  1  0  0  0  0
  4 32  1  0  0  0  0
  5 33  1  0  0  0  0
  6 34  1  0  0  0  0
  7 35  1  0  0  0  0
  8 36  1  0  0  0  0
  9 37  1  0  0  0  0
 15 38  1  0  0  0  0
 16 39  1  0  0  0  0
 17 40  1  0  0  0  0
 18 41  1  0  0  0  0
 20 42  1  0  0  0  0
 20 43  1  0  0  0  0
 20 44  1  0  0  0  0
 21 45  1  0  0  0  0
 21 46  1  0  0  0  0
 22 47  1  0  0  0  0
 22 48  1  0  0  0  0
M  END
> <clash_score>
0

> <docking_score>
-8.938959121704102

$$$$
BENZO_440_1
  -OEChem-08222011163D

 55 59  0     0  0  0  0  0  0999 V2000
    8.9960   -2.3380   25.5320 C   0  0  0  0  0  0  0  0  0  0  0  0
    9.6730   -3.4710   23.5300 C   0  0  0  0  0  0  0  0  0  0  0  0
    9.0720   -1.1280   24.8640 C   0  0  0  0  0  0  0  0  0  0  0  0
    9.7200   -2.2600   22.8630 C   0  0  0  0  0  0  0  0  0  0  0  0
   12.2913    1.4279   22.6355 C   0  0  0  0  0  0  0  0  0  0  0  0
   13.6024    1.4661   23.0564 C   0  0  0  0  0  0  0  0  0  0  0  0
   12.0284    1.3764   24.9443 C   0  0  0  0  0  0  0  0  0  0  0  0
   11.3794    1.3761   23.7290 C   0  0  0  0  0  0  0  0  0  0  0  0
    9.3070   -3.5340   24.8780 C   0  0  0  0  0  0  0  0  0  0  0  0
    9.3350   -1.0880   23.5010 C   0  0  0  0  0  0  0  0  0  0  0  0
    6.1790    0.5730   19.9990 C   0  0  0  0  0  0  0  0  0  0  0  0
    7.3170   -0.1610   19.8550 C   0  0  0  0  0  0  0  0  0  0  0  0
    5.4210    0.9600   21.0930 C   0  0  0  0  0  0  0  0  0  0  0  0
    4.2750    1.7050   20.8490 C   0  0  0  0  0  0  0  0  0  0  0  0
    3.9160    2.0630   19.5520 C   0  0  0  0  0  0  0  0  0  0  0  0
    4.6890    1.6810   18.4640 C   0  0  0  0  0  0  0  0  0  0  0  0
    8.3597   -5.0073   26.6307 C   0  0  0  0  0  0  0  0  0  0  0  0
    9.0420    0.3700   21.5280 C   0  0  0  0  0  0  0  0  0  0  0  0
    8.4720   -6.3981   27.2296 C   0  0  0  0  0  0  0  0  0  0  0  0
    9.9252   -6.7605   27.4803 C   0  0  0  0  0  0  0  0  0  0  0  0
   10.7833   -6.6094   26.2282 C   0  0  0  0  0  0  0  0  0  0  0  0
   10.0539   -5.9099   25.0823 C   0  0  0  0  0  0  0  0  0  0  0  0
    9.8870    1.3260   23.5730 C   0  0  0  0  0  0  0  0  0  0  0  0
    8.1890   -0.7180   20.8700 C   0  0  0  0  0  0  0  0  0  0  0  0
    7.6390   -0.2680   18.5410 N   0  0  0  0  0  0  0  0  0  0  0  0
    6.7580    0.3810   17.8350 N   0  0  0  0  0  0  0  0  0  0  0  0
    5.8300    0.9190   18.6970 N   0  0  0  0  0  0  0  0  0  0  0  0
    9.2529   -4.7797   25.5644 N   0  0  0  0  0  0  0  0  0  0  0  0
    9.4560    0.1560   22.8130 N   0  0  0  0  0  0  0  0  0  0  0  0
    7.4954   -4.2356   27.0449 O   0  0  0  0  0  0  0  0  0  0  0  0
    9.2690    1.4140   20.9380 O   0  0  0  0  0  0  0  0  0  0  0  0
   13.7301    1.4394   24.7638 S   0  0  0  0  0  0  0  0  0  0  0  0
    8.6895   -2.3529   26.5807 H   0  0  0  0  0  0  0  0  0  0  0  0
    9.9262   -4.3897   22.9916 H   0  0  0  0  0  0  0  0  0  0  0  0
    8.9224   -0.1998   25.4238 H   0  0  0  0  0  0  0  0  0  0  0  0
   10.0649   -2.2343   21.8258 H   0  0  0  0  0  0  0  0  0  0  0  0
   12.0045    1.4365   21.5915 H   0  0  0  0  0  0  0  0  0  0  0  0
   14.4914    1.5078   22.4431 H   0  0  0  0  0  0  0  0  0  0  0  0
   11.5886    1.3416   25.9314 H   0  0  0  0  0  0  0  0  0  0  0  0
    5.6859    0.7081   22.1001 H   0  0  0  0  0  0  0  0  0  0  0  0
    3.6634    2.0033   21.6928 H   0  0  0  0  0  0  0  0  0  0  0  0
    3.0114    2.6564   19.3629 H   0  0  0  0  0  0  0  0  0  0  0  0
    4.4373    1.9516   17.4622 H   0  0  0  0  0  0  0  0  0  0  0  0
    7.9325   -6.4148   28.1641 H   0  0  0  0  0  0  0  0  0  0  0  0
    8.0254   -7.0920   26.5333 H   0  0  0  0  0  0  0  0  0  0  0  0
   10.3387   -6.1267   28.2923 H   0  0  0  0  0  0  0  0  0  0  0  0
    9.9904   -7.8023   27.8537 H   0  0  0  0  0  0  0  0  0  0  0  0
   11.7037   -6.0404   26.4771 H   0  0  0  0  0  0  0  0  0  0  0  0
   11.1411   -7.6068   25.8918 H   0  0  0  0  0  0  0  0  0  0  0  0
   10.7782   -5.5162   24.3756 H   0  0  0  0  0  0  0  0  0  0  0  0
    9.4042   -6.6189   24.5807 H   0  0  0  0  0  0  0  0  0  0  0  0
    9.3974    1.2912   24.5523 H   0  0  0  0  0  0  0  0  0  0  0  0
    9.5159    2.2168   23.0554 H   0  0  0  0  0  0  0  0  0  0  0  0
    7.5972   -1.2056   21.6500 H   0  0  0  0  0  0  0  0  0  0  0  0
    8.8612   -1.4622   20.4334 H   0  0  0  0  0  0  0  0  0  0  0  0
  1  3  2  0  0  0  0
  1  9  1  0  0  0  0
  2  4  1  0  0  0  0
  2  9  2  0  0  0  0
  3 10  1  0  0  0  0
  4 10  2  0  0  0  0
  5  6  2  0  0  0  0
  5  8  1  0  0  0  0
  6 32  1  0  0  0  0
  7  8  2  0  0  0  0
  7 32  1  0  0  0  0
  8 23  1  0  0  0  0
  9 28  1  0  0  0  0
 10 29  1  0  0  0  0
 11 12  2  0  0  0  0
 11 13  1  0  0  0  0
 11 27  1  0  0  0  0
 12 24  1  0  0  0  0
 12 25  1  0  0  0  0
 13 14  2  0  0  0  0
 14 15  1  0  0  0  0
 15 16  2  0  0  0  0
 16 27  1  0  0  0  0
 17 19  1  0  0  0  0
 17 28  1  0  0  0  0
 17 30  2  0  0  0  0
 18 24  1  0  0  0  0
 18 29  1  0  0  0  0
 18 31  2  0  0  0  0
 19 20  1  0  0  0  0
 20 21  1  0  0  0  0
 21 22  1  0  0  0  0
 22 28  1  0  0  0  0
 23 29  1  0  0  0  0
 25 26  2  0  0  0  0
 26 27  1  0  0  0  0
  1 33  1  0  0  0  0
  2 34  1  0  0  0  0
  3 35  1  0  0  0  0
  4 36  1  0  0  0  0
  5 37  1  0  0  0  0
  6 38  1  0  0  0  0
  7 39  1  0  0  0  0
 13 40  1  0  0  0  0
 14 41  1  0  0  0  0
 15 42  1  0  0  0  0
 16 43  1  0  0  0  0
 19 44  1  0  0  0  0
 19 45  1  0  0  0  0
 20 46  1  0  0  0  0
 20 47  1  0  0  0  0
 21 48  1  0  0  0  0
 21 49  1  0  0  0  0
 22 50  1  0  0  0  0
 22 51  1  0  0  0  0
 23 52  1  0  0  0  0
 23 53  1  0  0  0  0
 24 54  1  0  0  0  0
 24 55  1  0  0  0  0
M  END
> <clash_score>
0.7790751876189459

> <docking_score>
-8.37745189666748

$$$$
BENZO_442_1
  -OEChem-08222011163D

 58 62  0     0  0  0  0  0  0999 V2000
    6.4089    2.0844   24.8766 C   0  0  0  0  0  0  0  0  0  0  0  0
    7.4847    1.4191   24.2887 C   0  0  0  0  0  0  0  0  0  0  0  0
    8.9960   -2.3380   25.5320 C   0  0  0  0  0  0  0  0  0  0  0  0
    9.6730   -3.4710   23.5300 C   0  0  0  0  0  0  0  0  0  0  0  0
    9.0720   -1.1280   24.8640 C   0  0  0  0  0  0  0  0  0  0  0  0
    9.7200   -2.2600   22.8630 C   0  0  0  0  0  0  0  0  0  0  0  0
    6.5777    3.3741   25.3805 C   0  0  0  0  0  0  0  0  0  0  0  0
    8.8980    3.3330   24.7088 C   0  0  0  0  0  0  0  0  0  0  0  0
    8.7292    2.0433   24.2048 C   0  0  0  0  0  0  0  0  0  0  0  0
    9.3070   -3.5340   24.8780 C   0  0  0  0  0  0  0  0  0  0  0  0
    9.3350   -1.0880   23.5010 C   0  0  0  0  0  0  0  0  0  0  0  0
    7.8222    3.9984   25.2966 C   0  0  0  0  0  0  0  0  0  0  0  0
    6.1790    0.5730   19.9990 C   0  0  0  0  0  0  0  0  0  0  0  0
    7.3170   -0.1610   19.8550 C   0  0  0  0  0  0  0  0  0  0  0  0
    5.4210    0.9600   21.0930 C   0  0  0  0  0  0  0  0  0  0  0  0
    4.2750    1.7050   20.8490 C   0  0  0  0  0  0  0  0  0  0  0  0
    3.9160    2.0630   19.5520 C   0  0  0  0  0  0  0  0  0  0  0  0
    4.6890    1.6810   18.4640 C   0  0  0  0  0  0  0  0  0  0  0  0
    8.3597   -5.0073   26.6307 C   0  0  0  0  0  0  0  0  0  0  0  0
    9.0420    0.3700   21.5280 C   0  0  0  0  0  0  0  0  0  0  0  0
    8.4720   -6.3981   27.2296 C   0  0  0  0  0  0  0  0  0  0  0  0
    9.9252   -6.7605   27.4803 C   0  0  0  0  0  0  0  0  0  0  0  0
   10.7833   -6.6094   26.2282 C   0  0  0  0  0  0  0  0  0  0  0  0
   10.0539   -5.9099   25.0823 C   0  0  0  0  0  0  0  0  0  0  0  0
    9.8870    1.3260   23.5730 C   0  0  0  0  0  0  0  0  0  0  0  0
    8.1890   -0.7180   20.8700 C   0  0  0  0  0  0  0  0  0  0  0  0
    7.6390   -0.2680   18.5410 N   0  0  0  0  0  0  0  0  0  0  0  0
    6.7580    0.3810   17.8350 N   0  0  0  0  0  0  0  0  0  0  0  0
    5.8300    0.9190   18.6970 N   0  0  0  0  0  0  0  0  0  0  0  0
    9.2529   -4.7797   25.5644 N   0  0  0  0  0  0  0  0  0  0  0  0
    9.4560    0.1560   22.8130 N   0  0  0  0  0  0  0  0  0  0  0  0
    7.4954   -4.2356   27.0449 O   0  0  0  0  0  0  0  0  0  0  0  0
    9.2690    1.4140   20.9380 O   0  0  0  0  0  0  0  0  0  0  0  0
    8.0301    5.5891   25.9196 Cl  0  0  0  0  0  0  0  0  0  0  0  0
    5.4400    1.5979   24.9418 H   0  0  0  0  0  0  0  0  0  0  0  0
    7.3441    0.4143   23.8988 H   0  0  0  0  0  0  0  0  0  0  0  0
    8.6895   -2.3529   26.5807 H   0  0  0  0  0  0  0  0  0  0  0  0
    9.9262   -4.3897   22.9916 H   0  0  0  0  0  0  0  0  0  0  0  0
    8.9224   -0.1998   25.4238 H   0  0  0  0  0  0  0  0  0  0  0  0
   10.0649   -2.2343   21.8258 H   0  0  0  0  0  0  0  0  0  0  0  0
    5.7304    3.8806   25.8363 H   0  0  0  0  0  0  0  0  0  0  0  0
    9.8702    3.8156   24.6405 H   0  0  0  0  0  0  0  0  0  0  0  0
    5.6859    0.7081   22.1001 H   0  0  0  0  0  0  0  0  0  0  0  0
    3.6634    2.0033   21.6928 H   0  0  0  0  0  0  0  0  0  0  0  0
    3.0114    2.6564   19.3629 H   0  0  0  0  0  0  0  0  0  0  0  0
    4.4373    1.9516   17.4622 H   0  0  0  0  0  0  0  0  0  0  0  0
    7.9325   -6.4148   28.1641 H   0  0  0  0  0  0  0  0  0  0  0  0
    8.0254   -7.0920   26.5333 H   0  0  0  0  0  0  0  0  0  0  0  0
   10.3387   -6.1267   28.2923 H   0  0  0  0  0  0  0  0  0  0  0  0
    9.9904   -7.8023   27.8537 H   0  0  0  0  0  0  0  0  0  0  0  0
   11.7037   -6.0404   26.4771 H   0  0  0  0  0  0  0  0  0  0  0  0
   11.1411   -7.6068   25.8918 H   0  0  0  0  0  0  0  0  0  0  0  0
   10.7782   -5.5162   24.3756 H   0  0  0  0  0  0  0  0  0  0  0  0
    9.4042   -6.6189   24.5807 H   0  0  0  0  0  0  0  0  0  0  0  0
   10.4274    1.9911   22.8906 H   0  0  0  0  0  0  0  0  0  0  0  0
   10.6011    0.9882   24.3313 H   0  0  0  0  0  0  0  0  0  0  0  0
    7.5972   -1.2056   21.6500 H   0  0  0  0  0  0  0  0  0  0  0  0
    8.8612   -1.4622   20.4334 H   0  0  0  0  0  0  0  0  0  0  0  0
  1  2  2  0  0  0  0
  1  7  1  0  0  0  0
  2  9  1  0  0  0  0
  3  5  2  0  0  0  0
  3 10  1  0  0  0  0
  4  6  1  0  0  0  0
  4 10  2  0  0  0  0
  5 11  1  0  0  0  0
  6 11  2  0  0  0  0
  7 12  2  0  0  0  0
  8  9  2  0  0  0  0
  8 12  1  0  0  0  0
  9 25  1  0  0  0  0
 10 30  1  0  0  0  0
 11 31  1  0  0  0  0
 12 34  1  0  0  0  0
 13 14  2  0  0  0  0
 13 15  1  0  0  0  0
 13 29  1  0  0  0  0
 14 26  1  0  0  0  0
 14 27  1  0  0  0  0
 15 16  2  0  0  0  0
 16 17  1  0  0  0  0
 17 18  2  0  0  0  0
 18 29  1  0  0  0  0
 19 21  1  0  0  0  0
 19 30  1  0  0  0  0
 19 32  2  0  0  0  0
 20 26  1  0  0  0  0
 20 31  1  0  0  0  0
 20 33  2  0  0  0  0
 21 22  1  0  0  0  0
 22 23  1  0  0  0  0
 23 24  1  0  0  0  0
 24 30  1  0  0  0  0
 25 31  1  0  0  0  0
 27 28  2  0  0  0  0
 28 29  1  0  0  0  0
  1 35  1  0  0  0  0
  2 36  1  0  0  0  0
  3 37  1  0  0  0  0
  4 38  1  0  0  0  0
  5 39  1  0  0  0  0
  6 40  1  0  0  0  0
  7 41  1  0  0  0  0
  8 42  1  0  0  0  0
 15 43  1  0  0  0  0
 16 44  1  0  0  0  0
 17 45  1  0  0  0  0
 18 46  1  0  0  0  0
 21 47  1  0  0  0  0
 21 48  1  0  0  0  0
 22 49  1  0  0  0  0
 22 50  1  0  0  0  0
 23 51  1  0  0  0  0
 23 52  1  0  0  0  0
 24 53  1  0  0  0  0
 24 54  1  0  0  0  0
 25 55  1  0  0  0  0
 25 56  1  0  0  0  0
 26 57  1  0  0  0  0
 26 58  1  0  0  0  0
M  END
> <clash_score>
0.7790751876189459

> <docking_score>
-7.68460750579834

$$$$
BENZO_441_1
  -OEChem-08222011163D

 58 62  0     0  0  0  0  0  0999 V2000
   14.1526    1.4694   24.0176 C   0  0  0  0  0  0  0  0  0  0  0  0
   13.3741    0.8121   24.9701 C   0  0  0  0  0  0  0  0  0  0  0  0
   13.5446    2.0802   22.9208 C   0  0  0  0  0  0  0  0  0  0  0  0
   11.9875    0.7654   24.8258 C   0  0  0  0  0  0  0  0  0  0  0  0
   12.1580    2.0335   22.7765 C   0  0  0  0  0  0  0  0  0  0  0  0
    8.9960   -2.3380   25.5320 C   0  0  0  0  0  0  0  0  0  0  0  0
    9.6730   -3.4710   23.5300 C   0  0  0  0  0  0  0  0  0  0  0  0
    9.0720   -1.1280   24.8640 C   0  0  0  0  0  0  0  0  0  0  0  0
    9.7200   -2.2600   22.8630 C   0  0  0  0  0  0  0  0  0  0  0  0
   11.3794    1.3761   23.7290 C   0  0  0  0  0  0  0  0  0  0  0  0
    9.3070   -3.5340   24.8780 C   0  0  0  0  0  0  0  0  0  0  0  0
    9.3350   -1.0880   23.5010 C   0  0  0  0  0  0  0  0  0  0  0  0
    6.1790    0.5730   19.9990 C   0  0  0  0  0  0  0  0  0  0  0  0
    7.3170   -0.1610   19.8550 C   0  0  0  0  0  0  0  0  0  0  0  0
    5.4210    0.9600   21.0930 C   0  0  0  0  0  0  0  0  0  0  0  0
    4.2750    1.7050   20.8490 C   0  0  0  0  0  0  0  0  0  0  0  0
    3.9160    2.0630   19.5520 C   0  0  0  0  0  0  0  0  0  0  0  0
    4.6890    1.6810   18.4640 C   0  0  0  0  0  0  0  0  0  0  0  0
    8.3597   -5.0073   26.6307 C   0  0  0  0  0  0  0  0  0  0  0  0
    9.0420    0.3700   21.5280 C   0  0  0  0  0  0  0  0  0  0  0  0
    8.4720   -6.3981   27.2296 C   0  0  0  0  0  0  0  0  0  0  0  0
    9.9252   -6.7605   27.4803 C   0  0  0  0  0  0  0  0  0  0  0  0
   10.7833   -6.6094   26.2282 C   0  0  0  0  0  0  0  0  0  0  0  0
   10.0539   -5.9099   25.0823 C   0  0  0  0  0  0  0  0  0  0  0  0
    9.8870    1.3260   23.5730 C   0  0  0  0  0  0  0  0  0  0  0  0
    8.1890   -0.7180   20.8700 C   0  0  0  0  0  0  0  0  0  0  0  0
    7.6390   -0.2680   18.5410 N   0  0  0  0  0  0  0  0  0  0  0  0
    6.7580    0.3810   17.8350 N   0  0  0  0  0  0  0  0  0  0  0  0
    5.8300    0.9190   18.6970 N   0  0  0  0  0  0  0  0  0  0  0  0
    9.2529   -4.7797   25.5644 N   0  0  0  0  0  0  0  0  0  0  0  0
    9.4560    0.1560   22.8130 N   0  0  0  0  0  0  0  0  0  0  0  0
    7.4954   -4.2356   27.0449 O   0  0  0  0  0  0  0  0  0  0  0  0
    9.2690    1.4140   20.9380 O   0  0  0  0  0  0  0  0  0  0  0  0
   15.2322    1.5068   24.1308 H   0  0  0  0  0  0  0  0  0  0  0  0
   13.8473    0.3374   25.8248 H   0  0  0  0  0  0  0  0  0  0  0  0
   14.1503    2.5930   22.1795 H   0  0  0  0  0  0  0  0  0  0  0  0
   11.3889    0.2508   25.5729 H   0  0  0  0  0  0  0  0  0  0  0  0
   11.6930    2.5120   21.9187 H   0  0  0  0  0  0  0  0  0  0  0  0
    8.6895   -2.3529   26.5807 H   0  0  0  0  0  0  0  0  0  0  0  0
    9.9262   -4.3897   22.9916 H   0  0  0  0  0  0  0  0  0  0  0  0
    8.9224   -0.1998   25.4238 H   0  0  0  0  0  0  0  0  0  0  0  0
   10.0649   -2.2343   21.8258 H   0  0  0  0  0  0  0  0  0  0  0  0
    5.6859    0.7081   22.1001 H   0  0  0  0  0  0  0  0  0  0  0  0
    3.6634    2.0033   21.6928 H   0  0  0  0  0  0  0  0  0  0  0  0
    3.0114    2.6564   19.3629 H   0  0  0  0  0  0  0  0  0  0  0  0
    4.4373    1.9516   17.4622 H   0  0  0  0  0  0  0  0  0  0  0  0
    7.9325   -6.4148   28.1641 H   0  0  0  0  0  0  0  0  0  0  0  0
    8.0254   -7.0920   26.5333 H   0  0  0  0  0  0  0  0  0  0  0  0
   10.3387   -6.1267   28.2923 H   0  0  0  0  0  0  0  0  0  0  0  0
    9.9904   -7.8023   27.8537 H   0  0  0  0  0  0  0  0  0  0  0  0
   11.7037   -6.0404   26.4771 H   0  0  0  0  0  0  0  0  0  0  0  0
   11.1411   -7.6068   25.8918 H   0  0  0  0  0  0  0  0  0  0  0  0
   10.7782   -5.5162   24.3756 H   0  0  0  0  0  0  0  0  0  0  0  0
    9.4042   -6.6189   24.5807 H   0  0  0  0  0  0  0  0  0  0  0  0
    9.3974    1.2912   24.5523 H   0  0  0  0  0  0  0  0  0  0  0  0
    9.5159    2.2168   23.0554 H   0  0  0  0  0  0  0  0  0  0  0  0
    7.5972   -1.2056   21.6500 H   0  0  0  0  0  0  0  0  0  0  0  0
    8.8612   -1.4622   20.4334 H   0  0  0  0  0  0  0  0  0  0  0  0
  1  2  1  0  0  0  0
  1  3  2  0  0  0  0
  2  4  2  0  0  0  0
  3  5  1  0  0  0  0
  4 10  1  0  0  0  0
  5 10  2  0  0  0  0
  6  8  2  0  0  0  0
  6 11  1  0  0  0  0
  7  9  1  0  0  0  0
  7 11  2  0  0  0  0
  8 12  1  0  0  0  0
  9 12  2  0  0  0  0
 10 25  1  0  0  0  0
 11 30  1  0  0  0  0
 12 31  1  0  0  0  0
 13 14  2  0  0  0  0
 13 15  1  0  0  0  0
 13 29  1  0  0  0  0
 14 26  1  0  0  0  0
 14 27  1  0  0  0  0
 15 16  2  0  0  0  0
 16 17  1  0  0  0  0
 17 18  2  0  0  0  0
 18 29  1  0  0  0  0
 19 21  1  0  0  0  0
 19 30  1  0  0  0  0
 19 32  2  0  0  0  0
 20 26  1  0  0  0  0
 20 31  1  0  0  0  0
 20 33  2  0  0  0  0
 21 22  1  0  0  0  0
 22 23  1  0  0  0  0
 23 24  1  0  0  0  0
 24 30  1  0  0  0  0
 25 31  1  0  0  0  0
 27 28  2  0  0  0  0
 28 29  1  0  0  0  0
  1 34  1  0  0  0  0
  2 35  1  0  0  0  0
  3 36  1  0  0  0  0
  4 37  1  0  0  0  0
  5 38  1  0  0  0  0
  6 39  1  0  0  0  0
  7 40  1  0  0  0  0
  8 41  1  0  0  0  0
  9 42  1  0  0  0  0
 15 43  1  0  0  0  0
 16 44  1  0  0  0  0
 17 45  1  0  0  0  0
 18 46  1  0  0  0  0
 21 47  1  0  0  0  0
 21 48  1  0  0  0  0
 22 49  1  0  0  0  0
 22 50  1  0  0  0  0
 23 51  1  0  0  0  0
 23 52  1  0  0  0  0
 24 53  1  0  0  0  0
 24 54  1  0  0  0  0
 25 55  1  0  0  0  0
 25 56  1  0  0  0  0
 26 57  1  0  0  0  0
 26 58  1  0  0  0  0
M  END
> <clash_score>
0.7790751876189459

> <docking_score>
-8.29859447479248

$$$$
BENZO_443_1
  -OEChem-08222011163D

 58 62  0     0  0  0  0  0  0999 V2000
    8.9960   -2.3380   25.5320 C   0  0  0  0  0  0  0  0  0  0  0  0
    9.6730   -3.4710   23.5300 C   0  0  0  0  0  0  0  0  0  0  0  0
    9.0720   -1.1280   24.8640 C   0  0  0  0  0  0  0  0  0  0  0  0
    9.7200   -2.2600   22.8630 C   0  0  0  0  0  0  0  0  0  0  0  0
   12.1233    1.3811   24.9242 C   0  0  0  0  0  0  0  0  0  0  0  0
   12.3262    1.4247   22.7351 C   0  0  0  0  0  0  0  0  0  0  0  0
   11.3794    1.3761   23.7290 C   0  0  0  0  0  0  0  0  0  0  0  0
    9.3070   -3.5340   24.8780 C   0  0  0  0  0  0  0  0  0  0  0  0
    9.3350   -1.0880   23.5010 C   0  0  0  0  0  0  0  0  0  0  0  0
    6.1790    0.5730   19.9990 C   0  0  0  0  0  0  0  0  0  0  0  0
    7.3170   -0.1610   19.8550 C   0  0  0  0  0  0  0  0  0  0  0  0
    5.4210    0.9600   21.0930 C   0  0  0  0  0  0  0  0  0  0  0  0
    4.2750    1.7050   20.8490 C   0  0  0  0  0  0  0  0  0  0  0  0
    3.9160    2.0630   19.5520 C   0  0  0  0  0  0  0  0  0  0  0  0
    4.6890    1.6810   18.4640 C   0  0  0  0  0  0  0  0  0  0  0  0
    8.3597   -5.0073   26.6307 C   0  0  0  0  0  0  0  0  0  0  0  0
    9.0420    0.3700   21.5280 C   0  0  0  0  0  0  0  0  0  0  0  0
    8.4720   -6.3981   27.2296 C   0  0  0  0  0  0  0  0  0  0  0  0
    9.9252   -6.7605   27.4803 C   0  0  0  0  0  0  0  0  0  0  0  0
   10.7833   -6.6094   26.2282 C   0  0  0  0  0  0  0  0  0  0  0  0
   10.0539   -5.9099   25.0823 C   0  0  0  0  0  0  0  0  0  0  0  0
   14.8305    1.5084   22.7418 C   0  0  0  0  0  0  0  0  0  0  0  0
    9.8870    1.3260   23.5730 C   0  0  0  0  0  0  0  0  0  0  0  0
    8.1890   -0.7180   20.8700 C   0  0  0  0  0  0  0  0  0  0  0  0
   13.4410    1.4289   24.7112 N   0  0  0  0  0  0  0  0  0  0  0  0
    7.6390   -0.2680   18.5410 N   0  0  0  0  0  0  0  0  0  0  0  0
    6.7580    0.3810   17.8350 N   0  0  0  0  0  0  0  0  0  0  0  0
   13.5326    1.4543   23.3707 N   0  0  0  0  0  0  0  0  0  0  0  0
    5.8300    0.9190   18.6970 N   0  0  0  0  0  0  0  0  0  0  0  0
    9.2529   -4.7797   25.5644 N   0  0  0  0  0  0  0  0  0  0  0  0
    9.4560    0.1560   22.8130 N   0  0  0  0  0  0  0  0  0  0  0  0
    7.4954   -4.2356   27.0449 O   0  0  0  0  0  0  0  0  0  0  0  0
    9.2690    1.4140   20.9380 O   0  0  0  0  0  0  0  0  0  0  0  0
    8.6895   -2.3529   26.5807 H   0  0  0  0  0  0  0  0  0  0  0  0
    9.9262   -4.3897   22.9916 H   0  0  0  0  0  0  0  0  0  0  0  0
    8.9224   -0.1998   25.4238 H   0  0  0  0  0  0  0  0  0  0  0  0
   10.0649   -2.2343   21.8258 H   0  0  0  0  0  0  0  0  0  0  0  0
   11.7624    1.3510   25.9426 H   0  0  0  0  0  0  0  0  0  0  0  0
   12.2462    1.4390   21.6566 H   0  0  0  0  0  0  0  0  0  0  0  0
    5.6859    0.7081   22.1001 H   0  0  0  0  0  0  0  0  0  0  0  0
    3.6634    2.0033   21.6928 H   0  0  0  0  0  0  0  0  0  0  0  0
    3.0114    2.6564   19.3629 H   0  0  0  0  0  0  0  0  0  0  0  0
    4.4373    1.9516   17.4622 H   0  0  0  0  0  0  0  0  0  0  0  0
    7.9325   -6.4148   28.1641 H   0  0  0  0  0  0  0  0  0  0  0  0
    8.0254   -7.0920   26.5333 H   0  0  0  0  0  0  0  0  0  0  0  0
   10.3387   -6.1267   28.2923 H   0  0  0  0  0  0  0  0  0  0  0  0
    9.9904   -7.8023   27.8537 H   0  0  0  0  0  0  0  0  0  0  0  0
   11.7037   -6.0404   26.4771 H   0  0  0  0  0  0  0  0  0  0  0  0
   11.1411   -7.6068   25.8918 H   0  0  0  0  0  0  0  0  0  0  0  0
   10.7782   -5.5162   24.3756 H   0  0  0  0  0  0  0  0  0  0  0  0
    9.4042   -6.6189   24.5807 H   0  0  0  0  0  0  0  0  0  0  0  0
   15.0990    2.5601   22.6124 H   0  0  0  0  0  0  0  0  0  0  0  0
   15.5636    1.0018   23.3756 H   0  0  0  0  0  0  0  0  0  0  0  0
   14.7841    1.0025   21.7733 H   0  0  0  0  0  0  0  0  0  0  0  0
    9.3974    1.2912   24.5523 H   0  0  0  0  0  0  0  0  0  0  0  0
    9.5159    2.2168   23.0554 H   0  0  0  0  0  0  0  0  0  0  0  0
    7.5972   -1.2056   21.6500 H   0  0  0  0  0  0  0  0  0  0  0  0
    8.8612   -1.4622   20.4334 H   0  0  0  0  0  0  0  0  0  0  0  0
  1  3  2  0  0  0  0
  1  8  1  0  0  0  0
  2  4  1  0  0  0  0
  2  8  2  0  0  0  0
  3  9  1  0  0  0  0
  4  9  2  0  0  0  0
  5  7  1  0  0  0  0
  5 25  2  0  0  0  0
  6  7  2  0  0  0  0
  6 28  1  0  0  0  0
  7 23  1  0  0  0  0
  8 30  1  0  0  0  0
  9 31  1  0  0  0  0
 10 11  2  0  0  0  0
 10 12  1  0  0  0  0
 10 29  1  0  0  0  0
 11 24  1  0  0  0  0
 11 26  1  0  0  0  0
 12 13  2  0  0  0  0
 13 14  1  0  0  0  0
 14 15  2  0  0  0  0
 15 29  1  0  0  0  0
 16 18  1  0  0  0  0
 16 30  1  0  0  0  0
 16 32  2  0  0  0  0
 17 24  1  0  0  0  0
 17 31  1  0  0  0  0
 17 33  2  0  0  0  0
 18 19  1  0  0  0  0
 19 20  1  0  0  0  0
 20 21  1  0  0  0  0
 21 30  1  0  0  0  0
 22 28  1  0  0  0  0
 23 31  1  0  0  0  0
 25 28  1  0  0  0  0
 26 27  2  0  0  0  0
 27 29  1  0  0  0  0
  1 34  1  0  0  0  0
  2 35  1  0  0  0  0
  3 36  1  0  0  0  0
  4 37  1  0  0  0  0
  5 38  1  0  0  0  0
  6 39  1  0  0  0  0
 12 40  1  0  0  0  0
 13 41  1  0  0  0  0
 14 42  1  0  0  0  0
 15 43  1  0  0  0  0
 18 44  1  0  0  0  0
 18 45  1  0  0  0  0
 19 46  1  0  0  0  0
 19 47  1  0  0  0  0
 20 48  1  0  0  0  0
 20 49  1  0  0  0  0
 21 50  1  0  0  0  0
 21 51  1  0  0  0  0
 22 52  1  0  0  0  0
 22 53  1  0  0  0  0
 22 54  1  0  0  0  0
 23 55  1  0  0  0  0
 23 56  1  0  0  0  0
 24 57  1  0  0  0  0
 24 58  1  0  0  0  0
M  END
> <clash_score>
0.7790751876189459

> <docking_score>
-8.014723777770996

$$$$
BENZO_444_1
  -OEChem-08222011163D

 54 58  0     0  0  0  0  0  0999 V2000
    8.9960   -2.3380   25.5320 C   0  0  0  0  0  0  0  0  0  0  0  0
    9.6730   -3.4710   23.5300 C   0  0  0  0  0  0  0  0  0  0  0  0
    9.0720   -1.1280   24.8640 C   0  0  0  0  0  0  0  0  0  0  0  0
    9.7200   -2.2600   22.8630 C   0  0  0  0  0  0  0  0  0  0  0  0
   12.2913    1.4279   22.6355 C   0  0  0  0  0  0  0  0  0  0  0  0
   13.6024    1.4662   23.0564 C   0  0  0  0  0  0  0  0  0  0  0  0
   12.0284    1.3764   24.9443 C   0  0  0  0  0  0  0  0  0  0  0  0
   11.3794    1.3761   23.7290 C   0  0  0  0  0  0  0  0  0  0  0  0
    9.3070   -3.5340   24.8780 C   0  0  0  0  0  0  0  0  0  0  0  0
    9.3350   -1.0880   23.5010 C   0  0  0  0  0  0  0  0  0  0  0  0
    6.1790    0.5730   19.9990 C   0  0  0  0  0  0  0  0  0  0  0  0
    7.3170   -0.1610   19.8550 C   0  0  0  0  0  0  0  0  0  0  0  0
    5.4210    0.9600   21.0930 C   0  0  0  0  0  0  0  0  0  0  0  0
    4.2750    1.7050   20.8490 C   0  0  0  0  0  0  0  0  0  0  0  0
    3.9160    2.0630   19.5520 C   0  0  0  0  0  0  0  0  0  0  0  0
    4.6890    1.6810   18.4640 C   0  0  0  0  0  0  0  0  0  0  0  0
    9.0420    0.3700   21.5280 C   0  0  0  0  0  0  0  0  0  0  0  0
   10.0771   -5.0255   26.7193 C   0  0  0  0  0  0  0  0  0  0  0  0
    8.0927   -5.6195   25.4071 C   0  0  0  0  0  0  0  0  0  0  0  0
    9.1933   -4.9427   27.9592 C   0  0  0  0  0  0  0  0  0  0  0  0
    7.2756   -5.5290   26.6967 C   0  0  0  0  0  0  0  0  0  0  0  0
    9.8870    1.3260   23.5730 C   0  0  0  0  0  0  0  0  0  0  0  0
    8.1890   -0.7180   20.8700 C   0  0  0  0  0  0  0  0  0  0  0  0
    7.6390   -0.2680   18.5410 N   0  0  0  0  0  0  0  0  0  0  0  0
    6.7580    0.3810   17.8350 N   0  0  0  0  0  0  0  0  0  0  0  0
    5.8300    0.9190   18.6970 N   0  0  0  0  0  0  0  0  0  0  0  0
    9.2563   -4.7368   25.5413 N   0  0  0  0  0  0  0  0  0  0  0  0
    9.4560    0.1560   22.8130 N   0  0  0  0  0  0  0  0  0  0  0  0
    9.2690    1.4140   20.9380 O   0  0  0  0  0  0  0  0  0  0  0  0
    8.0883   -5.8459   27.8325 O   0  0  0  0  0  0  0  0  0  0  0  0
   13.7301    1.4394   24.7638 S   0  0  0  0  0  0  0  0  0  0  0  0
    8.6905   -2.3533   26.5810 H   0  0  0  0  0  0  0  0  0  0  0  0
    9.9266   -4.3896   22.9917 H   0  0  0  0  0  0  0  0  0  0  0  0
    8.9233   -0.1992   25.4232 H   0  0  0  0  0  0  0  0  0  0  0  0
   10.0650   -2.2330   21.8256 H   0  0  0  0  0  0  0  0  0  0  0  0
   12.0045    1.4365   21.5915 H   0  0  0  0  0  0  0  0  0  0  0  0
   14.4914    1.5078   22.4430 H   0  0  0  0  0  0  0  0  0  0  0  0
   11.5886    1.3416   25.9314 H   0  0  0  0  0  0  0  0  0  0  0  0
    5.6859    0.7081   22.1001 H   0  0  0  0  0  0  0  0  0  0  0  0
    3.6634    2.0033   21.6928 H   0  0  0  0  0  0  0  0  0  0  0  0
    3.0114    2.6564   19.3629 H   0  0  0  0  0  0  0  0  0  0  0  0
    4.4373    1.9516   17.4622 H   0  0  0  0  0  0  0  0  0  0  0  0
   10.8985   -4.3115   26.8085 H   0  0  0  0  0  0  0  0  0  0  0  0
   10.4915   -6.0334   26.6323 H   0  0  0  0  0  0  0  0  0  0  0  0
    8.4327   -6.6456   25.2620 H   0  0  0  0  0  0  0  0  0  0  0  0
    7.4725   -5.3241   24.5619 H   0  0  0  0  0  0  0  0  0  0  0  0
    9.7636   -5.2398   28.8419 H   0  0  0  0  0  0  0  0  0  0  0  0
    8.8236   -3.9268   28.1248 H   0  0  0  0  0  0  0  0  0  0  0  0
    6.8339   -4.5337   26.8232 H   0  0  0  0  0  0  0  0  0  0  0  0
    6.4550   -6.2521   26.6643 H   0  0  0  0  0  0  0  0  0  0  0  0
    9.3974    1.2912   24.5523 H   0  0  0  0  0  0  0  0  0  0  0  0
    9.5159    2.2168   23.0554 H   0  0  0  0  0  0  0  0  0  0  0  0
    7.5972   -1.2056   21.6500 H   0  0  0  0  0  0  0  0  0  0  0  0
    8.8612   -1.4622   20.4334 H   0  0  0  0  0  0  0  0  0  0  0  0
  1  3  2  0  0  0  0
  1  9  1  0  0  0  0
  2  4  1  0  0  0  0
  2  9  2  0  0  0  0
  3 10  1  0  0  0  0
  4 10  2  0  0  0  0
  5  6  2  0  0  0  0
  5  8  1  0  0  0  0
  6 31  1  0  0  0  0
  7  8  2  0  0  0  0
  7 31  1  0  0  0  0
  8 22  1  0  0  0  0
  9 27  1  0  0  0  0
 10 28  1  0  0  0  0
 11 12  2  0  0  0  0
 11 13  1  0  0  0  0
 11 26  1  0  0  0  0
 12 23  1  0  0  0  0
 12 24  1  0  0  0  0
 13 14  2  0  0  0  0
 14 15  1  0  0  0  0
 15 16  2  0  0  0  0
 16 26  1  0  0  0  0
 17 23  1  0  0  0  0
 17 28  1  0  0  0  0
 17 29  2  0  0  0  0
 18 20  1  0  0  0  0
 18 27  1  0  0  0  0
 19 21  1  0  0  0  0
 19 27  1  0  0  0  0
 20 30  1  0  0  0  0
 21 30  1  0  0  0  0
 22 28  1  0  0  0  0
 24 25  2  0  0  0  0
 25 26  1  0  0  0  0
  1 32  1  0  0  0  0
  2 33  1  0  0  0  0
  3 34  1  0  0  0  0
  4 35  1  0  0  0  0
  5 36  1  0  0  0  0
  6 37  1  0  0  0  0
  7 38  1  0  0  0  0
 13 39  1  0  0  0  0
 14 40  1  0  0  0  0
 15 41  1  0  0  0  0
 16 42  1  0  0  0  0
 18 43  1  0  0  0  0
 18 44  1  0  0  0  0
 19 45  1  0  0  0  0
 19 46  1  0  0  0  0
 20 47  1  0  0  0  0
 20 48  1  0  0  0  0
 21 49  1  0  0  0  0
 21 50  1  0  0  0  0
 22 51  1  0  0  0  0
 22 52  1  0  0  0  0
 23 53  1  0  0  0  0
 23 54  1  0  0  0  0
M  END
> <clash_score>
0

> <docking_score>
-9.358564376831055

$$$$
BENZO_445_1
  -OEChem-08222011163D

 57 61  0     0  0  0  0  0  0999 V2000
   14.1526    1.4694   24.0176 C   0  0  0  0  0  0  0  0  0  0  0  0
   13.3741    0.8121   24.9701 C   0  0  0  0  0  0  0  0  0  0  0  0
   13.5446    2.0802   22.9208 C   0  0  0  0  0  0  0  0  0  0  0  0
   11.9875    0.7654   24.8258 C   0  0  0  0  0  0  0  0  0  0  0  0
   12.1580    2.0335   22.7765 C   0  0  0  0  0  0  0  0  0  0  0  0
    8.9960   -2.3380   25.5320 C   0  0  0  0  0  0  0  0  0  0  0  0
    9.6730   -3.4710   23.5300 C   0  0  0  0  0  0  0  0  0  0  0  0
    9.0720   -1.1280   24.8640 C   0  0  0  0  0  0  0  0  0  0  0  0
    9.7200   -2.2600   22.8630 C   0  0  0  0  0  0  0  0  0  0  0  0
   11.3794    1.3761   23.7290 C   0  0  0  0  0  0  0  0  0  0  0  0
    9.3070   -3.5340   24.8780 C   0  0  0  0  0  0  0  0  0  0  0  0
    9.3350   -1.0880   23.5010 C   0  0  0  0  0  0  0  0  0  0  0  0
    6.1790    0.5730   19.9990 C   0  0  0  0  0  0  0  0  0  0  0  0
    7.3170   -0.1610   19.8550 C   0  0  0  0  0  0  0  0  0  0  0  0
    5.4210    0.9600   21.0930 C   0  0  0  0  0  0  0  0  0  0  0  0
    4.2750    1.7050   20.8490 C   0  0  0  0  0  0  0  0  0  0  0  0
    3.9160    2.0630   19.5520 C   0  0  0  0  0  0  0  0  0  0  0  0
    4.6890    1.6810   18.4640 C   0  0  0  0  0  0  0  0  0  0  0  0
    9.0420    0.3700   21.5280 C   0  0  0  0  0  0  0  0  0  0  0  0
   10.0771   -5.0255   26.7193 C   0  0  0  0  0  0  0  0  0  0  0  0
    8.0927   -5.6195   25.4071 C   0  0  0  0  0  0  0  0  0  0  0  0
    9.1933   -4.9427   27.9592 C   0  0  0  0  0  0  0  0  0  0  0  0
    7.2756   -5.5290   26.6967 C   0  0  0  0  0  0  0  0  0  0  0  0
    9.8870    1.3260   23.5730 C   0  0  0  0  0  0  0  0  0  0  0  0
    8.1890   -0.7180   20.8700 C   0  0  0  0  0  0  0  0  0  0  0  0
    7.6390   -0.2680   18.5410 N   0  0  0  0  0  0  0  0  0  0  0  0
    6.7580    0.3810   17.8350 N   0  0  0  0  0  0  0  0  0  0  0  0
    5.8300    0.9190   18.6970 N   0  0  0  0  0  0  0  0  0  0  0  0
    9.2563   -4.7368   25.5413 N   0  0  0  0  0  0  0  0  0  0  0  0
    9.4560    0.1560   22.8130 N   0  0  0  0  0  0  0  0  0  0  0  0
    9.2690    1.4140   20.9380 O   0  0  0  0  0  0  0  0  0  0  0  0
    8.0883   -5.8459   27.8325 O   0  0  0  0  0  0  0  0  0  0  0  0
   15.2322    1.5068   24.1308 H   0  0  0  0  0  0  0  0  0  0  0  0
   13.8473    0.3374   25.8248 H   0  0  0  0  0  0  0  0  0  0  0  0
   14.1503    2.5930   22.1795 H   0  0  0  0  0  0  0  0  0  0  0  0
   11.3889    0.2508   25.5729 H   0  0  0  0  0  0  0  0  0  0  0  0
   11.6930    2.5120   21.9187 H   0  0  0  0  0  0  0  0  0  0  0  0
    8.6905   -2.3533   26.5810 H   0  0  0  0  0  0  0  0  0  0  0  0
    9.9266   -4.3896   22.9917 H   0  0  0  0  0  0  0  0  0  0  0  0
    8.9233   -0.1992   25.4232 H   0  0  0  0  0  0  0  0  0  0  0  0
   10.0650   -2.2330   21.8256 H   0  0  0  0  0  0  0  0  0  0  0  0
    5.6859    0.7081   22.1001 H   0  0  0  0  0  0  0  0  0  0  0  0
    3.6634    2.0033   21.6928 H   0  0  0  0  0  0  0  0  0  0  0  0
    3.0114    2.6564   19.3629 H   0  0  0  0  0  0  0  0  0  0  0  0
    4.4373    1.9516   17.4622 H   0  0  0  0  0  0  0  0  0  0  0  0
   10.8985   -4.3115   26.8085 H   0  0  0  0  0  0  0  0  0  0  0  0
   10.4915   -6.0334   26.6323 H   0  0  0  0  0  0  0  0  0  0  0  0
    8.4327   -6.6456   25.2620 H   0  0  0  0  0  0  0  0  0  0  0  0
    7.4725   -5.3241   24.5619 H   0  0  0  0  0  0  0  0  0  0  0  0
    9.7636   -5.2398   28.8419 H   0  0  0  0  0  0  0  0  0  0  0  0
    8.8236   -3.9268   28.1248 H   0  0  0  0  0  0  0  0  0  0  0  0
    6.8339   -4.5337   26.8232 H   0  0  0  0  0  0  0  0  0  0  0  0
    6.4550   -6.2521   26.6643 H   0  0  0  0  0  0  0  0  0  0  0  0
    9.3974    1.2912   24.5523 H   0  0  0  0  0  0  0  0  0  0  0  0
    9.5159    2.2168   23.0554 H   0  0  0  0  0  0  0  0  0  0  0  0
    7.5972   -1.2056   21.6500 H   0  0  0  0  0  0  0  0  0  0  0  0
    8.8612   -1.4622   20.4334 H   0  0  0  0  0  0  0  0  0  0  0  0
  1  2  1  0  0  0  0
  1  3  2  0  0  0  0
  2  4  2  0  0  0  0
  3  5  1  0  0  0  0
  4 10  1  0  0  0  0
  5 10  2  0  0  0  0
  6  8  2  0  0  0  0
  6 11  1  0  0  0  0
  7  9  1  0  0  0  0
  7 11  2  0  0  0  0
  8 12  1  0  0  0  0
  9 12  2  0  0  0  0
 10 24  1  0  0  0  0
 11 29  1  0  0  0  0
 12 30  1  0  0  0  0
 13 14  2  0  0  0  0
 13 15  1  0  0  0  0
 13 28  1  0  0  0  0
 14 25  1  0  0  0  0
 14 26  1  0  0  0  0
 15 16  2  0  0  0  0
 16 17  1  0  0  0  0
 17 18  2  0  0  0  0
 18 28  1  0  0  0  0
 19 25  1  0  0  0  0
 19 30  1  0  0  0  0
 19 31  2  0  0  0  0
 20 22  1  0  0  0  0
 20 29  1  0  0  0  0
 21 23  1  0  0  0  0
 21 29  1  0  0  0  0
 22 32  1  0  0  0  0
 23 32  1  0  0  0  0
 24 30  1  0  0  0  0
 26 27  2  0  0  0  0
 27 28  1  0  0  0  0
  1 33  1  0  0  0  0
  2 34  1  0  0  0  0
  3 35  1  0  0  0  0
  4 36  1  0  0  0  0
  5 37  1  0  0  0  0
  6 38  1  0  0  0  0
  7 39  1  0  0  0  0
  8 40  1  0  0  0  0
  9 41  1  0  0  0  0
 15 42  1  0  0  0  0
 16 43  1  0  0  0  0
 17 44  1  0  0  0  0
 18 45  1  0  0  0  0
 20 46  1  0  0  0  0
 20 47  1  0  0  0  0
 21 48  1  0  0  0  0
 21 49  1  0  0  0  0
 22 50  1  0  0  0  0
 22 51  1  0  0  0  0
 23 52  1  0  0  0  0
 23 53  1  0  0  0  0
 24 54  1  0  0  0  0
 24 55  1  0  0  0  0
 25 56  1  0  0  0  0
 25 57  1  0  0  0  0
M  END
> <clash_score>
0

> <docking_score>
-9.279705047607422

$$$$
BENZO_446_1
  -OEChem-08222011163D

 57 61  0     0  0  0  0  0  0999 V2000
    6.4089    2.0844   24.8766 C   0  0  0  0  0  0  0  0  0  0  0  0
    7.4847    1.4191   24.2887 C   0  0  0  0  0  0  0  0  0  0  0  0
    8.9960   -2.3380   25.5320 C   0  0  0  0  0  0  0  0  0  0  0  0
    9.6730   -3.4710   23.5300 C   0  0  0  0  0  0  0  0  0  0  0  0
    9.0720   -1.1280   24.8640 C   0  0  0  0  0  0  0  0  0  0  0  0
    9.7200   -2.2600   22.8630 C   0  0  0  0  0  0  0  0  0  0  0  0
    6.5777    3.3741   25.3805 C   0  0  0  0  0  0  0  0  0  0  0  0
    8.8980    3.3330   24.7088 C   0  0  0  0  0  0  0  0  0  0  0  0
    8.7292    2.0433   24.2048 C   0  0  0  0  0  0  0  0  0  0  0  0
    9.3070   -3.5340   24.8780 C   0  0  0  0  0  0  0  0  0  0  0  0
    9.3350   -1.0880   23.5010 C   0  0  0  0  0  0  0  0  0  0  0  0
    7.8222    3.9984   25.2966 C   0  0  0  0  0  0  0  0  0  0  0  0
    6.1790    0.5730   19.9990 C   0  0  0  0  0  0  0  0  0  0  0  0
    7.3170   -0.1610   19.8550 C   0  0  0  0  0  0  0  0  0  0  0  0
    5.4210    0.9600   21.0930 C   0  0  0  0  0  0  0  0  0  0  0  0
    4.2750    1.7050   20.8490 C   0  0  0  0  0  0  0  0  0  0  0  0
    3.9160    2.0630   19.5520 C   0  0  0  0  0  0  0  0  0  0  0  0
    4.6890    1.6810   18.4640 C   0  0  0  0  0  0  0  0  0  0  0  0
    9.0420    0.3700   21.5280 C   0  0  0  0  0  0  0  0  0  0  0  0
    9.5175   -4.8597   26.9771 C   0  0  0  0  0  0  0  0  0  0  0  0
    8.5165   -5.8725   24.9808 C   0  0  0  0  0  0  0  0  0  0  0  0
    8.1868   -5.0439   27.6987 C   0  0  0  0  0  0  0  0  0  0  0  0
    7.2200   -6.0347   25.7755 C   0  0  0  0  0  0  0  0  0  0  0  0
    9.8870    1.3260   23.5730 C   0  0  0  0  0  0  0  0  0  0  0  0
    8.1890   -0.7180   20.8700 C   0  0  0  0  0  0  0  0  0  0  0  0
    7.6390   -0.2680   18.5410 N   0  0  0  0  0  0  0  0  0  0  0  0
    6.7580    0.3810   17.8350 N   0  0  0  0  0  0  0  0  0  0  0  0
    5.8300    0.9190   18.6970 N   0  0  0  0  0  0  0  0  0  0  0  0
    9.2563   -4.7368   25.5413 N   0  0  0  0  0  0  0  0  0  0  0  0
    9.4560    0.1560   22.8130 N   0  0  0  0  0  0  0  0  0  0  0  0
    9.2690    1.4140   20.9380 O   0  0  0  0  0  0  0  0  0  0  0  0
    7.4994   -6.1853   27.1719 O   0  0  0  0  0  0  0  0  0  0  0  0
    8.0301    5.5891   25.9196 Cl  0  0  0  0  0  0  0  0  0  0  0  0
    5.4400    1.5979   24.9418 H   0  0  0  0  0  0  0  0  0  0  0  0
    7.3441    0.4143   23.8988 H   0  0  0  0  0  0  0  0  0  0  0  0
    8.6905   -2.3533   26.5810 H   0  0  0  0  0  0  0  0  0  0  0  0
    9.9266   -4.3896   22.9917 H   0  0  0  0  0  0  0  0  0  0  0  0
    8.9233   -0.1992   25.4232 H   0  0  0  0  0  0  0  0  0  0  0  0
   10.0650   -2.2330   21.8256 H   0  0  0  0  0  0  0  0  0  0  0  0
    5.7304    3.8806   25.8363 H   0  0  0  0  0  0  0  0  0  0  0  0
    9.8703    3.8156   24.6405 H   0  0  0  0  0  0  0  0  0  0  0  0
    5.6859    0.7081   22.1001 H   0  0  0  0  0  0  0  0  0  0  0  0
    3.6634    2.0033   21.6928 H   0  0  0  0  0  0  0  0  0  0  0  0
    3.0114    2.6564   19.3629 H   0  0  0  0  0  0  0  0  0  0  0  0
    4.4373    1.9516   17.4622 H   0  0  0  0  0  0  0  0  0  0  0  0
   10.0205   -3.9698   27.3609 H   0  0  0  0  0  0  0  0  0  0  0  0
   10.1535   -5.7310   27.1549 H   0  0  0  0  0  0  0  0  0  0  0  0
    9.1181   -6.7773   25.0755 H   0  0  0  0  0  0  0  0  0  0  0  0
    8.2812   -5.7064   23.9305 H   0  0  0  0  0  0  0  0  0  0  0  0
    8.3629   -5.2252   28.7611 H   0  0  0  0  0  0  0  0  0  0  0  0
    7.5530   -4.1570   27.6103 H   0  0  0  0  0  0  0  0  0  0  0  0
    6.5459   -5.1839   25.6221 H   0  0  0  0  0  0  0  0  0  0  0  0
    6.6948   -6.9354   25.4436 H   0  0  0  0  0  0  0  0  0  0  0  0
   10.4274    1.9911   22.8906 H   0  0  0  0  0  0  0  0  0  0  0  0
   10.6011    0.9882   24.3313 H   0  0  0  0  0  0  0  0  0  0  0  0
    7.5972   -1.2056   21.6500 H   0  0  0  0  0  0  0  0  0  0  0  0
    8.8612   -1.4622   20.4334 H   0  0  0  0  0  0  0  0  0  0  0  0
  1  2  2  0  0  0  0
  1  7  1  0  0  0  0
  2  9  1  0  0  0  0
  3  5  2  0  0  0  0
  3 10  1  0  0  0  0
  4  6  1  0  0  0  0
  4 10  2  0  0  0  0
  5 11  1  0  0  0  0
  6 11  2  0  0  0  0
  7 12  2  0  0  0  0
  8  9  2  0  0  0  0
  8 12  1  0  0  0  0
  9 24  1  0  0  0  0
 10 29  1  0  0  0  0
 11 30  1  0  0  0  0
 12 33  1  0  0  0  0
 13 14  2  0  0  0  0
 13 15  1  0  0  0  0
 13 28  1  0  0  0  0
 14 25  1  0  0  0  0
 14 26  1  0  0  0  0
 15 16  2  0  0  0  0
 16 17  1  0  0  0  0
 17 18  2  0  0  0  0
 18 28  1  0  0  0  0
 19 25  1  0  0  0  0
 19 30  1  0  0  0  0
 19 31  2  0  0  0  0
 20 22  1  0  0  0  0
 20 29  1  0  0  0  0
 21 23  1  0  0  0  0
 21 29  1  0  0  0  0
 22 32  1  0  0  0  0
 23 32  1  0  0  0  0
 24 30  1  0  0  0  0
 26 27  2  0  0  0  0
 27 28  1  0  0  0  0
  1 34  1  0  0  0  0
  2 35  1  0  0  0  0
  3 36  1  0  0  0  0
  4 37  1  0  0  0  0
  5 38  1  0  0  0  0
  6 39  1  0  0  0  0
  7 40  1  0  0  0  0
  8 41  1  0  0  0  0
 15 42  1  0  0  0  0
 16 43  1  0  0  0  0
 17 44  1  0  0  0  0
 18 45  1  0  0  0  0
 20 46  1  0  0  0  0
 20 47  1  0  0  0  0
 21 48  1  0  0  0  0
 21 49  1  0  0  0  0
 22 50  1  0  0  0  0
 22 51  1  0  0  0  0
 23 52  1  0  0  0  0
 23 53  1  0  0  0  0
 24 54  1  0  0  0  0
 24 55  1  0  0  0  0
 25 56  1  0  0  0  0
 25 57  1  0  0  0  0
M  END
> <clash_score>
0

> <docking_score>
-8.627829551696777

$$$$
BENZO_447_1
  -OEChem-08222011163D

 57 61  0     0  0  0  0  0  0999 V2000
    8.9960   -2.3380   25.5320 C   0  0  0  0  0  0  0  0  0  0  0  0
    9.6730   -3.4710   23.5300 C   0  0  0  0  0  0  0  0  0  0  0  0
    9.0720   -1.1280   24.8640 C   0  0  0  0  0  0  0  0  0  0  0  0
    9.7200   -2.2600   22.8630 C   0  0  0  0  0  0  0  0  0  0  0  0
   12.1233    1.3811   24.9242 C   0  0  0  0  0  0  0  0  0  0  0  0
   12.3261    1.4247   22.7351 C   0  0  0  0  0  0  0  0  0  0  0  0
   11.3794    1.3761   23.7290 C   0  0  0  0  0  0  0  0  0  0  0  0
    9.3070   -3.5340   24.8780 C   0  0  0  0  0  0  0  0  0  0  0  0
    9.3350   -1.0880   23.5010 C   0  0  0  0  0  0  0  0  0  0  0  0
    6.1790    0.5730   19.9990 C   0  0  0  0  0  0  0  0  0  0  0  0
    7.3170   -0.1610   19.8550 C   0  0  0  0  0  0  0  0  0  0  0  0
    5.4210    0.9600   21.0930 C   0  0  0  0  0  0  0  0  0  0  0  0
    4.2750    1.7050   20.8490 C   0  0  0  0  0  0  0  0  0  0  0  0
    3.9160    2.0630   19.5520 C   0  0  0  0  0  0  0  0  0  0  0  0
    4.6890    1.6810   18.4640 C   0  0  0  0  0  0  0  0  0  0  0  0
    9.0420    0.3700   21.5280 C   0  0  0  0  0  0  0  0  0  0  0  0
   10.0771   -5.0255   26.7193 C   0  0  0  0  0  0  0  0  0  0  0  0
    8.0927   -5.6195   25.4071 C   0  0  0  0  0  0  0  0  0  0  0  0
    9.1933   -4.9427   27.9592 C   0  0  0  0  0  0  0  0  0  0  0  0
    7.2756   -5.5290   26.6967 C   0  0  0  0  0  0  0  0  0  0  0  0
   14.8305    1.5084   22.7418 C   0  0  0  0  0  0  0  0  0  0  0  0
    9.8870    1.3260   23.5730 C   0  0  0  0  0  0  0  0  0  0  0  0
    8.1890   -0.7180   20.8700 C   0  0  0  0  0  0  0  0  0  0  0  0
   13.4410    1.4289   24.7112 N   0  0  0  0  0  0  0  0  0  0  0  0
    7.6390   -0.2680   18.5410 N   0  0  0  0  0  0  0  0  0  0  0  0
    6.7580    0.3810   17.8350 N   0  0  0  0  0  0  0  0  0  0  0  0
   13.5326    1.4543   23.3707 N   0  0  0  0  0  0  0  0  0  0  0  0
    5.8300    0.9190   18.6970 N   0  0  0  0  0  0  0  0  0  0  0  0
    9.2563   -4.7368   25.5413 N   0  0  0  0  0  0  0  0  0  0  0  0
    9.4560    0.1560   22.8130 N   0  0  0  0  0  0  0  0  0  0  0  0
    9.2690    1.4140   20.9380 O   0  0  0  0  0  0  0  0  0  0  0  0
    8.0883   -5.8459   27.8325 O   0  0  0  0  0  0  0  0  0  0  0  0
    8.6905   -2.3533   26.5810 H   0  0  0  0  0  0  0  0  0  0  0  0
    9.9266   -4.3896   22.9917 H   0  0  0  0  0  0  0  0  0  0  0  0
    8.9233   -0.1992   25.4232 H   0  0  0  0  0  0  0  0  0  0  0  0
   10.0650   -2.2330   21.8256 H   0  0  0  0  0  0  0  0  0  0  0  0
   11.7624    1.3510   25.9426 H   0  0  0  0  0  0  0  0  0  0  0  0
   12.2462    1.4390   21.6566 H   0  0  0  0  0  0  0  0  0  0  0  0
    5.6859    0.7081   22.1001 H   0  0  0  0  0  0  0  0  0  0  0  0
    3.6634    2.0033   21.6928 H   0  0  0  0  0  0  0  0  0  0  0  0
    3.0114    2.6564   19.3629 H   0  0  0  0  0  0  0  0  0  0  0  0
    4.4373    1.9516   17.4622 H   0  0  0  0  0  0  0  0  0  0  0  0
   10.8985   -4.3115   26.8085 H   0  0  0  0  0  0  0  0  0  0  0  0
   10.4915   -6.0334   26.6323 H   0  0  0  0  0  0  0  0  0  0  0  0
    8.4327   -6.6456   25.2620 H   0  0  0  0  0  0  0  0  0  0  0  0
    7.4725   -5.3241   24.5619 H   0  0  0  0  0  0  0  0  0  0  0  0
    9.7636   -5.2398   28.8419 H   0  0  0  0  0  0  0  0  0  0  0  0
    8.8236   -3.9268   28.1248 H   0  0  0  0  0  0  0  0  0  0  0  0
    6.8339   -4.5337   26.8232 H   0  0  0  0  0  0  0  0  0  0  0  0
    6.4550   -6.2521   26.6643 H   0  0  0  0  0  0  0  0  0  0  0  0
   15.0990    2.5601   22.6124 H   0  0  0  0  0  0  0  0  0  0  0  0
   15.5636    1.0018   23.3756 H   0  0  0  0  0  0  0  0  0  0  0  0
   14.7841    1.0025   21.7733 H   0  0  0  0  0  0  0  0  0  0  0  0
    9.3974    1.2912   24.5523 H   0  0  0  0  0  0  0  0  0  0  0  0
    9.5159    2.2168   23.0554 H   0  0  0  0  0  0  0  0  0  0  0  0
    7.5972   -1.2056   21.6500 H   0  0  0  0  0  0  0  0  0  0  0  0
    8.8612   -1.4622   20.4334 H   0  0  0  0  0  0  0  0  0  0  0  0
  1  3  2  0  0  0  0
  1  8  1  0  0  0  0
  2  4  1  0  0  0  0
  2  8  2  0  0  0  0
  3  9  1  0  0  0  0
  4  9  2  0  0  0  0
  5  7  1  0  0  0  0
  5 24  2  0  0  0  0
  6  7  2  0  0  0  0
  6 27  1  0  0  0  0
  7 22  1  0  0  0  0
  8 29  1  0  0  0  0
  9 30  1  0  0  0  0
 10 11  2  0  0  0  0
 10 12  1  0  0  0  0
 10 28  1  0  0  0  0
 11 23  1  0  0  0  0
 11 25  1  0  0  0  0
 12 13  2  0  0  0  0
 13 14  1  0  0  0  0
 14 15  2  0  0  0  0
 15 28  1  0  0  0  0
 16 23  1  0  0  0  0
 16 30  1  0  0  0  0
 16 31  2  0  0  0  0
 17 19  1  0  0  0  0
 17 29  1  0  0  0  0
 18 20  1  0  0  0  0
 18 29  1  0  0  0  0
 19 32  1  0  0  0  0
 20 32  1  0  0  0  0
 21 27  1  0  0  0  0
 22 30  1  0  0  0  0
 24 27  1  0  0  0  0
 25 26  2  0  0  0  0
 26 28  1  0  0  0  0
  1 33  1  0  0  0  0
  2 34  1  0  0  0  0
  3 35  1  0  0  0  0
  4 36  1  0  0  0  0
  5 37  1  0  0  0  0
  6 38  1  0  0  0  0
 12 39  1  0  0  0  0
 13 40  1  0  0  0  0
 14 41  1  0  0  0  0
 15 42  1  0  0  0  0
 17 43  1  0  0  0  0
 17 44  1  0  0  0  0
 18 45  1  0  0  0  0
 18 46  1  0  0  0  0
 19 47  1  0  0  0  0
 19 48  1  0  0  0  0
 20 49  1  0  0  0  0
 20 50  1  0  0  0  0
 21 51  1  0  0  0  0
 21 52  1  0  0  0  0
 21 53  1  0  0  0  0
 22 54  1  0  0  0  0
 22 55  1  0  0  0  0
 23 56  1  0  0  0  0
 23 57  1  0  0  0  0
M  END
> <clash_score>
0

> <docking_score>
-8.995843887329102

$$$$
BENZO_448_1
  -OEChem-08222011203D

 51 54  0     0  0  0  0  0  0999 V2000
    4.2750    1.7050   20.8490 C   0  0  0  0  0  0  0  0  0  0  0  0
    3.9160    2.0630   19.5520 C   0  0  0  0  0  0  0  0  0  0  0  0
    5.4210    0.9600   21.0930 C   0  0  0  0  0  0  0  0  0  0  0  0
    4.6890    1.6810   18.4640 C   0  0  0  0  0  0  0  0  0  0  0  0
    9.0720   -1.1280   24.8640 C   0  0  0  0  0  0  0  0  0  0  0  0
    9.7200   -2.2600   22.8630 C   0  0  0  0  0  0  0  0  0  0  0  0
    8.9960   -2.3380   25.5320 C   0  0  0  0  0  0  0  0  0  0  0  0
    9.6730   -3.4710   23.5300 C   0  0  0  0  0  0  0  0  0  0  0  0
   12.2913    1.4279   22.6355 C   0  0  0  0  0  0  0  0  0  0  0  0
    7.6390   -0.2680   18.5410 C   0  0  0  0  0  0  0  0  0  0  0  0
   13.6024    1.4662   23.0564 C   0  0  0  0  0  0  0  0  0  0  0  0
   12.0284    1.3764   24.9443 C   0  0  0  0  0  0  0  0  0  0  0  0
    6.1790    0.5730   19.9990 C   0  0  0  0  0  0  0  0  0  0  0  0
   11.3794    1.3761   23.7290 C   0  0  0  0  0  0  0  0  0  0  0  0
    7.3170   -0.1610   19.8550 C   0  0  0  0  0  0  0  0  0  0  0  0
    5.8300    0.9190   18.6970 C   0  0  0  0  0  0  0  0  0  0  0  0
    9.3350   -1.0880   23.5010 C   0  0  0  0  0  0  0  0  0  0  0  0
    9.3070   -3.5340   24.8780 C   0  0  0  0  0  0  0  0  0  0  0  0
    9.0420    0.3700   21.5280 C   0  0  0  0  0  0  0  0  0  0  0  0
    8.0128   -5.2151   26.1416 C   0  0  0  0  0  0  0  0  0  0  0  0
   10.4372   -5.5860   25.6589 C   0  0  0  0  0  0  0  0  0  0  0  0
    8.1890   -0.7180   20.8700 C   0  0  0  0  0  0  0  0  0  0  0  0
    9.8870    1.3260   23.5730 C   0  0  0  0  0  0  0  0  0  0  0  0
    6.7580    0.3810   17.8350 N   0  0  0  0  0  0  0  0  0  0  0  0
    9.4560    0.1560   22.8130 N   0  0  0  0  0  0  0  0  0  0  0  0
    9.2543   -4.7552   25.5519 N   0  0  0  0  0  0  0  0  0  0  0  0
    9.2690    1.4140   20.9380 O   0  0  0  0  0  0  0  0  0  0  0  0
   13.7301    1.4394   24.7638 S   0  0  0  0  0  0  0  0  0  0  0  0
    3.6455    2.0160   21.6826 H   0  0  0  0  0  0  0  0  0  0  0  0
    3.0144    2.6518   19.3914 H   0  0  0  0  0  0  0  0  0  0  0  0
    5.6994    0.6999   22.1043 H   0  0  0  0  0  0  0  0  0  0  0  0
    4.4044    1.9727   17.4490 H   0  0  0  0  0  0  0  0  0  0  0  0
    8.9217   -0.1995   25.4232 H   0  0  0  0  0  0  0  0  0  0  0  0
   10.0643   -2.2341   21.8254 H   0  0  0  0  0  0  0  0  0  0  0  0
    8.6893   -2.3540   26.5808 H   0  0  0  0  0  0  0  0  0  0  0  0
    9.9257   -4.3898   22.9921 H   0  0  0  0  0  0  0  0  0  0  0  0
   12.0045    1.4365   21.5915 H   0  0  0  0  0  0  0  0  0  0  0  0
    8.4839   -0.7930   18.0639 H   0  0  0  0  0  0  0  0  0  0  0  0
   14.4914    1.5078   22.4431 H   0  0  0  0  0  0  0  0  0  0  0  0
   11.5886    1.3416   25.9314 H   0  0  0  0  0  0  0  0  0  0  0  0
    8.1744   -6.1904   26.6238 H   0  0  0  0  0  0  0  0  0  0  0  0
    7.6718   -4.4870   26.8924 H   0  0  0  0  0  0  0  0  0  0  0  0
    7.2494   -5.3166   25.3561 H   0  0  0  0  0  0  0  0  0  0  0  0
   10.1946   -6.4995   26.2216 H   0  0  0  0  0  0  0  0  0  0  0  0
   10.7865   -5.8578   24.6518 H   0  0  0  0  0  0  0  0  0  0  0  0
   11.2285   -5.0312   26.1842 H   0  0  0  0  0  0  0  0  0  0  0  0
    7.6077   -1.2085   21.6613 H   0  0  0  0  0  0  0  0  0  0  0  0
    8.8716   -1.4650   20.4448 H   0  0  0  0  0  0  0  0  0  0  0  0
    9.3974    1.2912   24.5523 H   0  0  0  0  0  0  0  0  0  0  0  0
    9.5159    2.2168   23.0553 H   0  0  0  0  0  0  0  0  0  0  0  0
    6.7270    0.4925   16.8305 H   0  0  0  0  0  0  0  0  0  0  0  0
  1  2  1  0  0  0  0
  1  3  2  0  0  0  0
  2  4  2  0  0  0  0
  3 13  1  0  0  0  0
  4 16  1  0  0  0  0
  5  7  2  0  0  0  0
  5 17  1  0  0  0  0
  6  8  1  0  0  0  0
  6 17  2  0  0  0  0
  7 18  1  0  0  0  0
  8 18  2  0  0  0  0
  9 11  2  0  0  0  0
  9 14  1  0  0  0  0
 10 15  2  0  0  0  0
 10 24  1  0  0  0  0
 11 28  1  0  0  0  0
 12 14  2  0  0  0  0
 12 28  1  0  0  0  0
 13 15  1  0  0  0  0
 13 16  2  0  0  0  0
 14 23  1  0  0  0  0
 15 22  1  0  0  0  0
 16 24  1  0  0  0  0
 17 25  1  0  0  0  0
 18 26  1  0  0  0  0
 19 22  1  0  0  0  0
 19 25  1  0  0  0  0
 19 27  2  0  0  0  0
 20 26  1  0  0  0  0
 21 26  1  0  0  0  0
 23 25  1  0  0  0  0
  1 29  1  0  0  0  0
  2 30  1  0  0  0  0
  3 31  1  0  0  0  0
  4 32  1  0  0  0  0
  5 33  1  0  0  0  0
  6 34  1  0  0  0  0
  7 35  1  0  0  0  0
  8 36  1  0  0  0  0
  9 37  1  0  0  0  0
 10 38  1  0  0  0  0
 11 39  1  0  0  0  0
 12 40  1  0  0  0  0
 20 41  1  0  0  0  0
 20 42  1  0  0  0  0
 20 43  1  0  0  0  0
 21 44  1  0  0  0  0
 21 45  1  0  0  0  0
 21 46  1  0  0  0  0
 22 47  1  0  0  0  0
 22 48  1  0  0  0  0
 23 49  1  0  0  0  0
 23 50  1  0  0  0  0
 24 51  1  0  0  0  0
M  END
> <clash_score>
0

> <docking_score>
-9.388586044311523

$$$$
BENZO_449_1
  -OEChem-08222011203D

 54 57  0     0  0  0  0  0  0999 V2000
   14.1526    1.4694   24.0176 C   0  0  0  0  0  0  0  0  0  0  0  0
    4.2750    1.7050   20.8490 C   0  0  0  0  0  0  0  0  0  0  0  0
   13.3741    0.8121   24.9701 C   0  0  0  0  0  0  0  0  0  0  0  0
   13.5446    2.0802   22.9208 C   0  0  0  0  0  0  0  0  0  0  0  0
    3.9160    2.0630   19.5520 C   0  0  0  0  0  0  0  0  0  0  0  0
    5.4210    0.9600   21.0930 C   0  0  0  0  0  0  0  0  0  0  0  0
   11.9875    0.7654   24.8259 C   0  0  0  0  0  0  0  0  0  0  0  0
   12.1580    2.0335   22.7765 C   0  0  0  0  0  0  0  0  0  0  0  0
    4.6890    1.6810   18.4640 C   0  0  0  0  0  0  0  0  0  0  0  0
    9.0720   -1.1280   24.8640 C   0  0  0  0  0  0  0  0  0  0  0  0
    9.7200   -2.2600   22.8630 C   0  0  0  0  0  0  0  0  0  0  0  0
    8.9960   -2.3380   25.5320 C   0  0  0  0  0  0  0  0  0  0  0  0
    9.6730   -3.4710   23.5300 C   0  0  0  0  0  0  0  0  0  0  0  0
    7.6390   -0.2680   18.5410 C   0  0  0  0  0  0  0  0  0  0  0  0
    6.1790    0.5730   19.9990 C   0  0  0  0  0  0  0  0  0  0  0  0
   11.3794    1.3761   23.7290 C   0  0  0  0  0  0  0  0  0  0  0  0
    7.3170   -0.1610   19.8550 C   0  0  0  0  0  0  0  0  0  0  0  0
    5.8300    0.9190   18.6970 C   0  0  0  0  0  0  0  0  0  0  0  0
    9.3350   -1.0880   23.5010 C   0  0  0  0  0  0  0  0  0  0  0  0
    9.3070   -3.5340   24.8780 C   0  0  0  0  0  0  0  0  0  0  0  0
    9.0420    0.3700   21.5280 C   0  0  0  0  0  0  0  0  0  0  0  0
    8.0128   -5.2151   26.1416 C   0  0  0  0  0  0  0  0  0  0  0  0
   10.4372   -5.5860   25.6589 C   0  0  0  0  0  0  0  0  0  0  0  0
    8.1890   -0.7180   20.8700 C   0  0  0  0  0  0  0  0  0  0  0  0
    9.8870    1.3260   23.5730 C   0  0  0  0  0  0  0  0  0  0  0  0
    6.7580    0.3810   17.8350 N   0  0  0  0  0  0  0  0  0  0  0  0
    9.4560    0.1560   22.8130 N   0  0  0  0  0  0  0  0  0  0  0  0
    9.2543   -4.7552   25.5519 N   0  0  0  0  0  0  0  0  0  0  0  0
    9.2690    1.4140   20.9380 O   0  0  0  0  0  0  0  0  0  0  0  0
   15.2322    1.5068   24.1308 H   0  0  0  0  0  0  0  0  0  0  0  0
    3.6455    2.0160   21.6826 H   0  0  0  0  0  0  0  0  0  0  0  0
   13.8473    0.3374   25.8248 H   0  0  0  0  0  0  0  0  0  0  0  0
   14.1503    2.5930   22.1795 H   0  0  0  0  0  0  0  0  0  0  0  0
    3.0144    2.6518   19.3914 H   0  0  0  0  0  0  0  0  0  0  0  0
    5.6994    0.6999   22.1043 H   0  0  0  0  0  0  0  0  0  0  0  0
   11.3889    0.2508   25.5729 H   0  0  0  0  0  0  0  0  0  0  0  0
   11.6930    2.5120   21.9187 H   0  0  0  0  0  0  0  0  0  0  0  0
    4.4044    1.9727   17.4490 H   0  0  0  0  0  0  0  0  0  0  0  0
    8.9217   -0.1995   25.4232 H   0  0  0  0  0  0  0  0  0  0  0  0
   10.0643   -2.2341   21.8254 H   0  0  0  0  0  0  0  0  0  0  0  0
    8.6893   -2.3540   26.5808 H   0  0  0  0  0  0  0  0  0  0  0  0
    9.9257   -4.3898   22.9921 H   0  0  0  0  0  0  0  0  0  0  0  0
    8.4839   -0.7930   18.0639 H   0  0  0  0  0  0  0  0  0  0  0  0
    8.1744   -6.1904   26.6238 H   0  0  0  0  0  0  0  0  0  0  0  0
    7.6718   -4.4870   26.8924 H   0  0  0  0  0  0  0  0  0  0  0  0
    7.2494   -5.3166   25.3561 H   0  0  0  0  0  0  0  0  0  0  0  0
   10.1946   -6.4995   26.2216 H   0  0  0  0  0  0  0  0  0  0  0  0
   10.7865   -5.8578   24.6518 H   0  0  0  0  0  0  0  0  0  0  0  0
   11.2285   -5.0312   26.1842 H   0  0  0  0  0  0  0  0  0  0  0  0
    7.6077   -1.2085   21.6613 H   0  0  0  0  0  0  0  0  0  0  0  0
    8.8716   -1.4650   20.4448 H   0  0  0  0  0  0  0  0  0  0  0  0
    9.3974    1.2912   24.5523 H   0  0  0  0  0  0  0  0  0  0  0  0
    9.5159    2.2168   23.0553 H   0  0  0  0  0  0  0  0  0  0  0  0
    6.7270    0.4925   16.8305 H   0  0  0  0  0  0  0  0  0  0  0  0
  1  3  1  0  0  0  0
  1  4  2  0  0  0  0
  2  5  1  0  0  0  0
  2  6  2  0  0  0  0
  3  7  2  0  0  0  0
  4  8  1  0  0  0  0
  5  9  2  0  0  0  0
  6 15  1  0  0  0  0
  7 16  1  0  0  0  0
  8 16  2  0  0  0  0
  9 18  1  0  0  0  0
 10 12  2  0  0  0  0
 10 19  1  0  0  0  0
 11 13  1  0  0  0  0
 11 19  2  0  0  0  0
 12 20  1  0  0  0  0
 13 20  2  0  0  0  0
 14 17  2  0  0  0  0
 14 26  1  0  0  0  0
 15 17  1  0  0  0  0
 15 18  2  0  0  0  0
 16 25  1  0  0  0  0
 17 24  1  0  0  0  0
 18 26  1  0  0  0  0
 19 27  1  0  0  0  0
 20 28  1  0  0  0  0
 21 24  1  0  0  0  0
 21 27  1  0  0  0  0
 21 29  2  0  0  0  0
 22 28  1  0  0  0  0
 23 28  1  0  0  0  0
 25 27  1  0  0  0  0
  1 30  1  0  0  0  0
  2 31  1  0  0  0  0
  3 32  1  0  0  0  0
  4 33  1  0  0  0  0
  5 34  1  0  0  0  0
  6 35  1  0  0  0  0
  7 36  1  0  0  0  0
  8 37  1  0  0  0  0
  9 38  1  0  0  0  0
 10 39  1  0  0  0  0
 11 40  1  0  0  0  0
 12 41  1  0  0  0  0
 13 42  1  0  0  0  0
 14 43  1  0  0  0  0
 22 44  1  0  0  0  0
 22 45  1  0  0  0  0
 22 46  1  0  0  0  0
 23 47  1  0  0  0  0
 23 48  1  0  0  0  0
 23 49  1  0  0  0  0
 24 50  1  0  0  0  0
 24 51  1  0  0  0  0
 25 52  1  0  0  0  0
 25 53  1  0  0  0  0
 26 54  1  0  0  0  0
M  END
> <clash_score>
0

> <docking_score>
-9.309722900390625

$$$$
BENZO_451_1
  -OEChem-08222011203D

 54 57  0     0  0  0  0  0  0999 V2000
    4.2750    1.7050   20.8490 C   0  0  0  0  0  0  0  0  0  0  0  0
    3.9160    2.0630   19.5520 C   0  0  0  0  0  0  0  0  0  0  0  0
    5.4210    0.9600   21.0930 C   0  0  0  0  0  0  0  0  0  0  0  0
    4.6890    1.6810   18.4640 C   0  0  0  0  0  0  0  0  0  0  0  0
    9.0720   -1.1280   24.8640 C   0  0  0  0  0  0  0  0  0  0  0  0
    9.7200   -2.2600   22.8630 C   0  0  0  0  0  0  0  0  0  0  0  0
    8.9960   -2.3380   25.5320 C   0  0  0  0  0  0  0  0  0  0  0  0
    9.6730   -3.4710   23.5300 C   0  0  0  0  0  0  0  0  0  0  0  0
   12.1233    1.3811   24.9242 C   0  0  0  0  0  0  0  0  0  0  0  0
    7.6390   -0.2680   18.5410 C   0  0  0  0  0  0  0  0  0  0  0  0
   12.3261    1.4247   22.7351 C   0  0  0  0  0  0  0  0  0  0  0  0
    6.1790    0.5730   19.9990 C   0  0  0  0  0  0  0  0  0  0  0  0
   11.3794    1.3761   23.7290 C   0  0  0  0  0  0  0  0  0  0  0  0
    7.3170   -0.1610   19.8550 C   0  0  0  0  0  0  0  0  0  0  0  0
    5.8300    0.9190   18.6970 C   0  0  0  0  0  0  0  0  0  0  0  0
    9.3350   -1.0880   23.5010 C   0  0  0  0  0  0  0  0  0  0  0  0
    9.3070   -3.5340   24.8780 C   0  0  0  0  0  0  0  0  0  0  0  0
    9.0420    0.3700   21.5280 C   0  0  0  0  0  0  0  0  0  0  0  0
   14.8305    1.5084   22.7418 C   0  0  0  0  0  0  0  0  0  0  0  0
    8.0128   -5.2151   26.1416 C   0  0  0  0  0  0  0  0  0  0  0  0
   10.4372   -5.5860   25.6589 C   0  0  0  0  0  0  0  0  0  0  0  0
    8.1890   -0.7180   20.8700 C   0  0  0  0  0  0  0  0  0  0  0  0
    9.8870    1.3260   23.5730 C   0  0  0  0  0  0  0  0  0  0  0  0
   13.4410    1.4289   24.7112 N   0  0  0  0  0  0  0  0  0  0  0  0
    6.7580    0.3810   17.8350 N   0  0  0  0  0  0  0  0  0  0  0  0
   13.5326    1.4543   23.3706 N   0  0  0  0  0  0  0  0  0  0  0  0
    9.4560    0.1560   22.8130 N   0  0  0  0  0  0  0  0  0  0  0  0
    9.2543   -4.7552   25.5519 N   0  0  0  0  0  0  0  0  0  0  0  0
    9.2690    1.4140   20.9380 O   0  0  0  0  0  0  0  0  0  0  0  0
    3.6455    2.0160   21.6826 H   0  0  0  0  0  0  0  0  0  0  0  0
    3.0144    2.6518   19.3914 H   0  0  0  0  0  0  0  0  0  0  0  0
    5.6994    0.6999   22.1043 H   0  0  0  0  0  0  0  0  0  0  0  0
    4.4044    1.9727   17.4490 H   0  0  0  0  0  0  0  0  0  0  0  0
    8.9217   -0.1995   25.4232 H   0  0  0  0  0  0  0  0  0  0  0  0
   10.0643   -2.2341   21.8254 H   0  0  0  0  0  0  0  0  0  0  0  0
    8.6893   -2.3540   26.5808 H   0  0  0  0  0  0  0  0  0  0  0  0
    9.9257   -4.3898   22.9921 H   0  0  0  0  0  0  0  0  0  0  0  0
   11.7624    1.3510   25.9426 H   0  0  0  0  0  0  0  0  0  0  0  0
    8.4839   -0.7930   18.0639 H   0  0  0  0  0  0  0  0  0  0  0  0
   12.2462    1.4390   21.6566 H   0  0  0  0  0  0  0  0  0  0  0  0
   15.0990    2.5601   22.6124 H   0  0  0  0  0  0  0  0  0  0  0  0
   15.5636    1.0018   23.3756 H   0  0  0  0  0  0  0  0  0  0  0  0
   14.7841    1.0025   21.7733 H   0  0  0  0  0  0  0  0  0  0  0  0
    8.1744   -6.1904   26.6238 H   0  0  0  0  0  0  0  0  0  0  0  0
    7.6718   -4.4870   26.8924 H   0  0  0  0  0  0  0  0  0  0  0  0
    7.2494   -5.3166   25.3561 H   0  0  0  0  0  0  0  0  0  0  0  0
   10.1946   -6.4995   26.2216 H   0  0  0  0  0  0  0  0  0  0  0  0
   10.7865   -5.8578   24.6518 H   0  0  0  0  0  0  0  0  0  0  0  0
   11.2285   -5.0312   26.1842 H   0  0  0  0  0  0  0  0  0  0  0  0
    7.6077   -1.2085   21.6613 H   0  0  0  0  0  0  0  0  0  0  0  0
    8.8716   -1.4650   20.4448 H   0  0  0  0  0  0  0  0  0  0  0  0
    9.3974    1.2912   24.5523 H   0  0  0  0  0  0  0  0  0  0  0  0
    9.5159    2.2168   23.0553 H   0  0  0  0  0  0  0  0  0  0  0  0
    6.7270    0.4925   16.8305 H   0  0  0  0  0  0  0  0  0  0  0  0
  1  2  1  0  0  0  0
  1  3  2  0  0  0  0
  2  4  2  0  0  0  0
  3 12  1  0  0  0  0
  4 15  1  0  0  0  0
  5  7  2  0  0  0  0
  5 16  1  0  0  0  0
  6  8  1  0  0  0  0
  6 16  2  0  0  0  0
  7 17  1  0  0  0  0
  8 17  2  0  0  0  0
  9 13  1  0  0  0  0
  9 24  2  0  0  0  0
 10 14  2  0  0  0  0
 10 25  1  0  0  0  0
 11 13  2  0  0  0  0
 11 26  1  0  0  0  0
 12 14  1  0  0  0  0
 12 15  2  0  0  0  0
 13 23  1  0  0  0  0
 14 22  1  0  0  0  0
 15 25  1  0  0  0  0
 16 27  1  0  0  0  0
 17 28  1  0  0  0  0
 18 22  1  0  0  0  0
 18 27  1  0  0  0  0
 18 29  2  0  0  0  0
 19 26  1  0  0  0  0
 20 28  1  0  0  0  0
 21 28  1  0  0  0  0
 23 27  1  0  0  0  0
 24 26  1  0  0  0  0
  1 30  1  0  0  0  0
  2 31  1  0  0  0  0
  3 32  1  0  0  0  0
  4 33  1  0  0  0  0
  5 34  1  0  0  0  0
  6 35  1  0  0  0  0
  7 36  1  0  0  0  0
  8 37  1  0  0  0  0
  9 38  1  0  0  0  0
 10 39  1  0  0  0  0
 11 40  1  0  0  0  0
 19 41  1  0  0  0  0
 19 42  1  0  0  0  0
 19 43  1  0  0  0  0
 20 44  1  0  0  0  0
 20 45  1  0  0  0  0
 20 46  1  0  0  0  0
 21 47  1  0  0  0  0
 21 48  1  0  0  0  0
 21 49  1  0  0  0  0
 22 50  1  0  0  0  0
 22 51  1  0  0  0  0
 23 52  1  0  0  0  0
 23 53  1  0  0  0  0
 25 54  1  0  0  0  0
M  END
> <clash_score>
0

> <docking_score>
-9.025863647460938

$$$$
BENZO_450_1
  -OEChem-08222011203D

 54 57  0     0  0  0  0  0  0999 V2000
    4.2750    1.7050   20.8490 C   0  0  0  0  0  0  0  0  0  0  0  0
    3.9160    2.0630   19.5520 C   0  0  0  0  0  0  0  0  0  0  0  0
    6.4089    2.0844   24.8766 C   0  0  0  0  0  0  0  0  0  0  0  0
    5.4210    0.9600   21.0930 C   0  0  0  0  0  0  0  0  0  0  0  0
    7.4847    1.4191   24.2887 C   0  0  0  0  0  0  0  0  0  0  0  0
    4.6890    1.6810   18.4640 C   0  0  0  0  0  0  0  0  0  0  0  0
    9.0720   -1.1280   24.8640 C   0  0  0  0  0  0  0  0  0  0  0  0
    9.7200   -2.2600   22.8630 C   0  0  0  0  0  0  0  0  0  0  0  0
    8.9960   -2.3380   25.5320 C   0  0  0  0  0  0  0  0  0  0  0  0
    9.6730   -3.4710   23.5300 C   0  0  0  0  0  0  0  0  0  0  0  0
    6.5777    3.3741   25.3805 C   0  0  0  0  0  0  0  0  0  0  0  0
    8.8980    3.3330   24.7088 C   0  0  0  0  0  0  0  0  0  0  0  0
    7.6390   -0.2680   18.5410 C   0  0  0  0  0  0  0  0  0  0  0  0
    6.1790    0.5730   19.9990 C   0  0  0  0  0  0  0  0  0  0  0  0
    8.7292    2.0433   24.2048 C   0  0  0  0  0  0  0  0  0  0  0  0
    7.3170   -0.1610   19.8550 C   0  0  0  0  0  0  0  0  0  0  0  0
    5.8300    0.9190   18.6970 C   0  0  0  0  0  0  0  0  0  0  0  0
    9.3350   -1.0880   23.5010 C   0  0  0  0  0  0  0  0  0  0  0  0
    9.3070   -3.5340   24.8780 C   0  0  0  0  0  0  0  0  0  0  0  0
    7.8222    3.9984   25.2966 C   0  0  0  0  0  0  0  0  0  0  0  0
    9.0420    0.3700   21.5280 C   0  0  0  0  0  0  0  0  0  0  0  0
    8.0128   -5.2151   26.1416 C   0  0  0  0  0  0  0  0  0  0  0  0
   10.4372   -5.5860   25.6589 C   0  0  0  0  0  0  0  0  0  0  0  0
    8.1890   -0.7180   20.8700 C   0  0  0  0  0  0  0  0  0  0  0  0
    9.8870    1.3260   23.5730 C   0  0  0  0  0  0  0  0  0  0  0  0
    6.7580    0.3810   17.8350 N   0  0  0  0  0  0  0  0  0  0  0  0
    9.4560    0.1560   22.8130 N   0  0  0  0  0  0  0  0  0  0  0  0
    9.2543   -4.7552   25.5519 N   0  0  0  0  0  0  0  0  0  0  0  0
    9.2690    1.4140   20.9380 O   0  0  0  0  0  0  0  0  0  0  0  0
    8.0301    5.5891   25.9196 Cl  0  0  0  0  0  0  0  0  0  0  0  0
    3.6455    2.0160   21.6826 H   0  0  0  0  0  0  0  0  0  0  0  0
    3.0144    2.6518   19.3914 H   0  0  0  0  0  0  0  0  0  0  0  0
    5.4400    1.5979   24.9418 H   0  0  0  0  0  0  0  0  0  0  0  0
    5.6994    0.6999   22.1043 H   0  0  0  0  0  0  0  0  0  0  0  0
    7.3441    0.4143   23.8988 H   0  0  0  0  0  0  0  0  0  0  0  0
    4.4044    1.9727   17.4490 H   0  0  0  0  0  0  0  0  0  0  0  0
    8.9217   -0.1995   25.4232 H   0  0  0  0  0  0  0  0  0  0  0  0
   10.0643   -2.2341   21.8254 H   0  0  0  0  0  0  0  0  0  0  0  0
    8.6893   -2.3540   26.5808 H   0  0  0  0  0  0  0  0  0  0  0  0
    9.9257   -4.3898   22.9921 H   0  0  0  0  0  0  0  0  0  0  0  0
    5.7304    3.8806   25.8363 H   0  0  0  0  0  0  0  0  0  0  0  0
    9.8703    3.8156   24.6405 H   0  0  0  0  0  0  0  0  0  0  0  0
    8.4839   -0.7930   18.0639 H   0  0  0  0  0  0  0  0  0  0  0  0
    8.1744   -6.1904   26.6238 H   0  0  0  0  0  0  0  0  0  0  0  0
    7.6718   -4.4870   26.8924 H   0  0  0  0  0  0  0  0  0  0  0  0
    7.2494   -5.3166   25.3561 H   0  0  0  0  0  0  0  0  0  0  0  0
   10.1946   -6.4995   26.2216 H   0  0  0  0  0  0  0  0  0  0  0  0
   10.7865   -5.8578   24.6518 H   0  0  0  0  0  0  0  0  0  0  0  0
   11.2285   -5.0312   26.1842 H   0  0  0  0  0  0  0  0  0  0  0  0
    7.6077   -1.2085   21.6613 H   0  0  0  0  0  0  0  0  0  0  0  0
    8.8716   -1.4650   20.4448 H   0  0  0  0  0  0  0  0  0  0  0  0
   10.4274    1.9911   22.8906 H   0  0  0  0  0  0  0  0  0  0  0  0
   10.6011    0.9882   24.3313 H   0  0  0  0  0  0  0  0  0  0  0  0
    6.7270    0.4925   16.8305 H   0  0  0  0  0  0  0  0  0  0  0  0
  1  2  1  0  0  0  0
  1  4  2  0  0  0  0
  2  6  2  0  0  0  0
  3  5  2  0  0  0  0
  3 11  1  0  0  0  0
  4 14  1  0  0  0  0
  5 15  1  0  0  0  0
  6 17  1  0  0  0  0
  7  9  2  0  0  0  0
  7 18  1  0  0  0  0
  8 10  1  0  0  0  0
  8 18  2  0  0  0  0
  9 19  1  0  0  0  0
 10 19  2  0  0  0  0
 11 20  2  0  0  0  0
 12 15  2  0  0  0  0
 12 20  1  0  0  0  0
 13 16  2  0  0  0  0
 13 26  1  0  0  0  0
 14 16  1  0  0  0  0
 14 17  2  0  0  0  0
 15 25  1  0  0  0  0
 16 24  1  0  0  0  0
 17 26  1  0  0  0  0
 18 27  1  0  0  0  0
 19 28  1  0  0  0  0
 20 30  1  0  0  0  0
 21 24  1  0  0  0  0
 21 27  1  0  0  0  0
 21 29  2  0  0  0  0
 22 28  1  0  0  0  0
 23 28  1  0  0  0  0
 25 27  1  0  0  0  0
  1 31  1  0  0  0  0
  2 32  1  0  0  0  0
  3 33  1  0  0  0  0
  4 34  1  0  0  0  0
  5 35  1  0  0  0  0
  6 36  1  0  0  0  0
  7 37  1  0  0  0  0
  8 38  1  0  0  0  0
  9 39  1  0  0  0  0
 10 40  1  0  0  0  0
 11 41  1  0  0  0  0
 12 42  1  0  0  0  0
 13 43  1  0  0  0  0
 22 44  1  0  0  0  0
 22 45  1  0  0  0  0
 22 46  1  0  0  0  0
 23 47  1  0  0  0  0
 23 48  1  0  0  0  0
 23 49  1  0  0  0  0
 24 50  1  0  0  0  0
 24 51  1  0  0  0  0
 25 52  1  0  0  0  0
 25 53  1  0  0  0  0
 26 54  1  0  0  0  0
M  END
> <clash_score>
0

> <docking_score>
-8.695751190185547

$$$$
BENZO_452_1
  -OEChem-08222011203D

 53 56  0     0  0  0  0  0  0999 V2000
    4.2750    1.7050   20.8490 C   0  0  0  0  0  0  0  0  0  0  0  0
    3.9160    2.0630   19.5520 C   0  0  0  0  0  0  0  0  0  0  0  0
    5.4210    0.9600   21.0930 C   0  0  0  0  0  0  0  0  0  0  0  0
    4.6890    1.6810   18.4640 C   0  0  0  0  0  0  0  0  0  0  0  0
    8.9960   -2.3380   25.5320 C   0  0  0  0  0  0  0  0  0  0  0  0
    9.6730   -3.4710   23.5300 C   0  0  0  0  0  0  0  0  0  0  0  0
    9.0720   -1.1280   24.8640 C   0  0  0  0  0  0  0  0  0  0  0  0
    9.7200   -2.2600   22.8630 C   0  0  0  0  0  0  0  0  0  0  0  0
   12.2913    1.4279   22.6355 C   0  0  0  0  0  0  0  0  0  0  0  0
    7.6390   -0.2680   18.5410 C   0  0  0  0  0  0  0  0  0  0  0  0
   13.6024    1.4662   23.0564 C   0  0  0  0  0  0  0  0  0  0  0  0
   12.0284    1.3764   24.9443 C   0  0  0  0  0  0  0  0  0  0  0  0
    6.1790    0.5730   19.9990 C   0  0  0  0  0  0  0  0  0  0  0  0
   11.3794    1.3761   23.7290 C   0  0  0  0  0  0  0  0  0  0  0  0
    7.3170   -0.1610   19.8550 C   0  0  0  0  0  0  0  0  0  0  0  0
    5.8300    0.9190   18.6970 C   0  0  0  0  0  0  0  0  0  0  0  0
    9.3070   -3.5340   24.8780 C   0  0  0  0  0  0  0  0  0  0  0  0
    9.3350   -1.0880   23.5010 C   0  0  0  0  0  0  0  0  0  0  0  0
    9.0420    0.3700   21.5280 C   0  0  0  0  0  0  0  0  0  0  0  0
    9.5334   -6.0236   25.0414 C   0  0  0  0  0  0  0  0  0  0  0  0
   10.6330   -7.3746   26.8775 C   0  0  0  0  0  0  0  0  0  0  0  0
    8.1890   -0.7180   20.8700 C   0  0  0  0  0  0  0  0  0  0  0  0
    9.8870    1.3260   23.5730 C   0  0  0  0  0  0  0  0  0  0  0  0
    9.3522   -7.0865   26.1149 C   0  0  0  0  0  0  0  0  0  0  0  0
    6.7580    0.3810   17.8350 N   0  0  0  0  0  0  0  0  0  0  0  0
    9.2546   -4.7422   25.5438 N   0  0  0  0  0  0  0  0  0  0  0  0
    9.4560    0.1560   22.8130 N   0  0  0  0  0  0  0  0  0  0  0  0
    9.2690    1.4140   20.9380 O   0  0  0  0  0  0  0  0  0  0  0  0
    9.8805   -6.3053   23.8992 O   0  0  0  0  0  0  0  0  0  0  0  0
   13.7301    1.4394   24.7638 S   0  0  0  0  0  0  0  0  0  0  0  0
    3.6455    2.0160   21.6826 H   0  0  0  0  0  0  0  0  0  0  0  0
    3.0144    2.6518   19.3914 H   0  0  0  0  0  0  0  0  0  0  0  0
    5.6994    0.6999   22.1043 H   0  0  0  0  0  0  0  0  0  0  0  0
    4.4044    1.9727   17.4490 H   0  0  0  0  0  0  0  0  0  0  0  0
    8.6895   -2.3529   26.5807 H   0  0  0  0  0  0  0  0  0  0  0  0
    9.9262   -4.3897   22.9916 H   0  0  0  0  0  0  0  0  0  0  0  0
    8.9224   -0.1998   25.4238 H   0  0  0  0  0  0  0  0  0  0  0  0
   10.0649   -2.2343   21.8258 H   0  0  0  0  0  0  0  0  0  0  0  0
   12.0045    1.4365   21.5915 H   0  0  0  0  0  0  0  0  0  0  0  0
    8.4839   -0.7930   18.0639 H   0  0  0  0  0  0  0  0  0  0  0  0
   14.4914    1.5078   22.4431 H   0  0  0  0  0  0  0  0  0  0  0  0
   11.5886    1.3416   25.9314 H   0  0  0  0  0  0  0  0  0  0  0  0
   11.4241   -7.7171   26.2024 H   0  0  0  0  0  0  0  0  0  0  0  0
   10.4628   -8.1530   27.6277 H   0  0  0  0  0  0  0  0  0  0  0  0
   10.9949   -6.4779   27.3912 H   0  0  0  0  0  0  0  0  0  0  0  0
    7.6077   -1.2085   21.6613 H   0  0  0  0  0  0  0  0  0  0  0  0
    8.8716   -1.4650   20.4448 H   0  0  0  0  0  0  0  0  0  0  0  0
    9.3974    1.2912   24.5523 H   0  0  0  0  0  0  0  0  0  0  0  0
    9.5159    2.2168   23.0553 H   0  0  0  0  0  0  0  0  0  0  0  0
    8.5795   -6.7463   26.8138 H   0  0  0  0  0  0  0  0  0  0  0  0
    8.9965   -8.0064   25.6368 H   0  0  0  0  0  0  0  0  0  0  0  0
    6.7270    0.4925   16.8305 H   0  0  0  0  0  0  0  0  0  0  0  0
    8.9776   -4.7057   26.5317 H   0  0  0  0  0  0  0  0  0  0  0  0
  1  2  1  0  0  0  0
  1  3  2  0  0  0  0
  2  4  2  0  0  0  0
  3 13  1  0  0  0  0
  4 16  1  0  0  0  0
  5  7  2  0  0  0  0
  5 17  1  0  0  0  0
  6  8  1  0  0  0  0
  6 17  2  0  0  0  0
  7 18  1  0  0  0  0
  8 18  2  0  0  0  0
  9 11  2  0  0  0  0
  9 14  1  0  0  0  0
 10 15  2  0  0  0  0
 10 25  1  0  0  0  0
 11 30  1  0  0  0  0
 12 14  2  0  0  0  0
 12 30  1  0  0  0  0
 13 15  1  0  0  0  0
 13 16  2  0  0  0  0
 14 23  1  0  0  0  0
 15 22  1  0  0  0  0
 16 25  1  0  0  0  0
 17 26  1  0  0  0  0
 18 27  1  0  0  0  0
 19 22  1  0  0  0  0
 19 27  1  0  0  0  0
 19 28  2  0  0  0  0
 20 24  1  0  0  0  0
 20 26  1  0  0  0  0
 20 29  2  0  0  0  0
 21 24  1  0  0  0  0
 23 27  1  0  0  0  0
  1 31  1  0  0  0  0
  2 32  1  0  0  0  0
  3 33  1  0  0  0  0
  4 34  1  0  0  0  0
  5 35  1  0  0  0  0
  6 36  1  0  0  0  0
  7 37  1  0  0  0  0
  8 38  1  0  0  0  0
  9 39  1  0  0  0  0
 10 40  1  0  0  0  0
 11 41  1  0  0  0  0
 12 42  1  0  0  0  0
 21 43  1  0  0  0  0
 21 44  1  0  0  0  0
 21 45  1  0  0  0  0
 22 46  1  0  0  0  0
 22 47  1  0  0  0  0
 23 48  1  0  0  0  0
 23 49  1  0  0  0  0
 24 50  1  0  0  0  0
 24 51  1  0  0  0  0
 25 52  1  0  0  0  0
 26 53  1  0  0  0  0
M  END
> <clash_score>
1.498667137989192

> <docking_score>
-6.194310188293457

$$$$
BENZO_453_1
  -OEChem-08222011203D

 56 59  0     0  0  0  0  0  0999 V2000
   14.1526    1.4694   24.0176 C   0  0  0  0  0  0  0  0  0  0  0  0
    4.2750    1.7050   20.8490 C   0  0  0  0  0  0  0  0  0  0  0  0
   13.3741    0.8121   24.9701 C   0  0  0  0  0  0  0  0  0  0  0  0
   13.5446    2.0802   22.9208 C   0  0  0  0  0  0  0  0  0  0  0  0
    3.9160    2.0630   19.5520 C   0  0  0  0  0  0  0  0  0  0  0  0
    5.4210    0.9600   21.0930 C   0  0  0  0  0  0  0  0  0  0  0  0
   11.9875    0.7654   24.8259 C   0  0  0  0  0  0  0  0  0  0  0  0
   12.1580    2.0335   22.7765 C   0  0  0  0  0  0  0  0  0  0  0  0
    4.6890    1.6810   18.4640 C   0  0  0  0  0  0  0  0  0  0  0  0
    8.9960   -2.3380   25.5320 C   0  0  0  0  0  0  0  0  0  0  0  0
    9.6730   -3.4710   23.5300 C   0  0  0  0  0  0  0  0  0  0  0  0
    9.0720   -1.1280   24.8640 C   0  0  0  0  0  0  0  0  0  0  0  0
    9.7200   -2.2600   22.8630 C   0  0  0  0  0  0  0  0  0  0  0  0
    7.6390   -0.2680   18.5410 C   0  0  0  0  0  0  0  0  0  0  0  0
    6.1790    0.5730   19.9990 C   0  0  0  0  0  0  0  0  0  0  0  0
   11.3794    1.3761   23.7290 C   0  0  0  0  0  0  0  0  0  0  0  0
    7.3170   -0.1610   19.8550 C   0  0  0  0  0  0  0  0  0  0  0  0
    5.8300    0.9190   18.6970 C   0  0  0  0  0  0  0  0  0  0  0  0
    9.3070   -3.5340   24.8780 C   0  0  0  0  0  0  0  0  0  0  0  0
    9.3350   -1.0880   23.5010 C   0  0  0  0  0  0  0  0  0  0  0  0
    9.0420    0.3700   21.5280 C   0  0  0  0  0  0  0  0  0  0  0  0
    9.5334   -6.0236   25.0414 C   0  0  0  0  0  0  0  0  0  0  0  0
   10.6330   -7.3746   26.8775 C   0  0  0  0  0  0  0  0  0  0  0  0
    8.1890   -0.7180   20.8700 C   0  0  0  0  0  0  0  0  0  0  0  0
    9.8870    1.3260   23.5730 C   0  0  0  0  0  0  0  0  0  0  0  0
    9.3522   -7.0865   26.1149 C   0  0  0  0  0  0  0  0  0  0  0  0
    6.7580    0.3810   17.8350 N   0  0  0  0  0  0  0  0  0  0  0  0
    9.2546   -4.7422   25.5438 N   0  0  0  0  0  0  0  0  0  0  0  0
    9.4560    0.1560   22.8130 N   0  0  0  0  0  0  0  0  0  0  0  0
    9.2690    1.4140   20.9380 O   0  0  0  0  0  0  0  0  0  0  0  0
    9.8805   -6.3053   23.8992 O   0  0  0  0  0  0  0  0  0  0  0  0
   15.2322    1.5068   24.1308 H   0  0  0  0  0  0  0  0  0  0  0  0
    3.6455    2.0160   21.6826 H   0  0  0  0  0  0  0  0  0  0  0  0
   13.8473    0.3374   25.8248 H   0  0  0  0  0  0  0  0  0  0  0  0
   14.1503    2.5930   22.1795 H   0  0  0  0  0  0  0  0  0  0  0  0
    3.0144    2.6518   19.3914 H   0  0  0  0  0  0  0  0  0  0  0  0
    5.6994    0.6999   22.1043 H   0  0  0  0  0  0  0  0  0  0  0  0
   11.3889    0.2508   25.5729 H   0  0  0  0  0  0  0  0  0  0  0  0
   11.6930    2.5120   21.9187 H   0  0  0  0  0  0  0  0  0  0  0  0
    4.4044    1.9727   17.4490 H   0  0  0  0  0  0  0  0  0  0  0  0
    8.6895   -2.3529   26.5807 H   0  0  0  0  0  0  0  0  0  0  0  0
    9.9262   -4.3897   22.9916 H   0  0  0  0  0  0  0  0  0  0  0  0
    8.9224   -0.1998   25.4238 H   0  0  0  0  0  0  0  0  0  0  0  0
   10.0649   -2.2343   21.8258 H   0  0  0  0  0  0  0  0  0  0  0  0
    8.4839   -0.7930   18.0639 H   0  0  0  0  0  0  0  0  0  0  0  0
   11.4241   -7.7171   26.2024 H   0  0  0  0  0  0  0  0  0  0  0  0
   10.4628   -8.1530   27.6277 H   0  0  0  0  0  0  0  0  0  0  0  0
   10.9949   -6.4779   27.3912 H   0  0  0  0  0  0  0  0  0  0  0  0
    7.6077   -1.2085   21.6613 H   0  0  0  0  0  0  0  0  0  0  0  0
    8.8716   -1.4650   20.4448 H   0  0  0  0  0  0  0  0  0  0  0  0
    9.3974    1.2912   24.5523 H   0  0  0  0  0  0  0  0  0  0  0  0
    9.5159    2.2168   23.0553 H   0  0  0  0  0  0  0  0  0  0  0  0
    8.5795   -6.7463   26.8138 H   0  0  0  0  0  0  0  0  0  0  0  0
    8.9965   -8.0064   25.6368 H   0  0  0  0  0  0  0  0  0  0  0  0
    6.7270    0.4925   16.8305 H   0  0  0  0  0  0  0  0  0  0  0  0
    8.9776   -4.7057   26.5317 H   0  0  0  0  0  0  0  0  0  0  0  0
  1  3  1  0  0  0  0
  1  4  2  0  0  0  0
  2  5  1  0  0  0  0
  2  6  2  0  0  0  0
  3  7  2  0  0  0  0
  4  8  1  0  0  0  0
  5  9  2  0  0  0  0
  6 15  1  0  0  0  0
  7 16  1  0  0  0  0
  8 16  2  0  0  0  0
  9 18  1  0  0  0  0
 10 12  2  0  0  0  0
 10 19  1  0  0  0  0
 11 13  1  0  0  0  0
 11 19  2  0  0  0  0
 12 20  1  0  0  0  0
 13 20  2  0  0  0  0
 14 17  2  0  0  0  0
 14 27  1  0  0  0  0
 15 17  1  0  0  0  0
 15 18  2  0  0  0  0
 16 25  1  0  0  0  0
 17 24  1  0  0  0  0
 18 27  1  0  0  0  0
 19 28  1  0  0  0  0
 20 29  1  0  0  0  0
 21 24  1  0  0  0  0
 21 29  1  0  0  0  0
 21 30  2  0  0  0  0
 22 26  1  0  0  0  0
 22 28  1  0  0  0  0
 22 31  2  0  0  0  0
 23 26  1  0  0  0  0
 25 29  1  0  0  0  0
  1 32  1  0  0  0  0
  2 33  1  0  0  0  0
  3 34  1  0  0  0  0
  4 35  1  0  0  0  0
  5 36  1  0  0  0  0
  6 37  1  0  0  0  0
  7 38  1  0  0  0  0
  8 39  1  0  0  0  0
  9 40  1  0  0  0  0
 10 41  1  0  0  0  0
 11 42  1  0  0  0  0
 12 43  1  0  0  0  0
 13 44  1  0  0  0  0
 14 45  1  0  0  0  0
 23 46  1  0  0  0  0
 23 47  1  0  0  0  0
 23 48  1  0  0  0  0
 24 49  1  0  0  0  0
 24 50  1  0  0  0  0
 25 51  1  0  0  0  0
 25 52  1  0  0  0  0
 26 53  1  0  0  0  0
 26 54  1  0  0  0  0
 27 55  1  0  0  0  0
 28 56  1  0  0  0  0
M  END
> <clash_score>
1.498667137989192

> <docking_score>
-6.115447998046875

$$$$
BENZO_454_1
  -OEChem-08222011203D

 56 59  0     0  0  0  0  0  0999 V2000
    4.2750    1.7050   20.8490 C   0  0  0  0  0  0  0  0  0  0  0  0
    3.9160    2.0630   19.5520 C   0  0  0  0  0  0  0  0  0  0  0  0
    6.4089    2.0844   24.8766 C   0  0  0  0  0  0  0  0  0  0  0  0
    5.4210    0.9600   21.0930 C   0  0  0  0  0  0  0  0  0  0  0  0
    7.4847    1.4191   24.2887 C   0  0  0  0  0  0  0  0  0  0  0  0
    4.6890    1.6810   18.4640 C   0  0  0  0  0  0  0  0  0  0  0  0
    8.9960   -2.3380   25.5320 C   0  0  0  0  0  0  0  0  0  0  0  0
    9.6730   -3.4710   23.5300 C   0  0  0  0  0  0  0  0  0  0  0  0
    9.0720   -1.1280   24.8640 C   0  0  0  0  0  0  0  0  0  0  0  0
    9.7200   -2.2600   22.8630 C   0  0  0  0  0  0  0  0  0  0  0  0
    6.5777    3.3741   25.3805 C   0  0  0  0  0  0  0  0  0  0  0  0
    8.8980    3.3330   24.7088 C   0  0  0  0  0  0  0  0  0  0  0  0
    7.6390   -0.2680   18.5410 C   0  0  0  0  0  0  0  0  0  0  0  0
    6.1790    0.5730   19.9990 C   0  0  0  0  0  0  0  0  0  0  0  0
    8.7292    2.0433   24.2048 C   0  0  0  0  0  0  0  0  0  0  0  0
    7.3170   -0.1610   19.8550 C   0  0  0  0  0  0  0  0  0  0  0  0
    5.8300    0.9190   18.6970 C   0  0  0  0  0  0  0  0  0  0  0  0
    9.3070   -3.5340   24.8780 C   0  0  0  0  0  0  0  0  0  0  0  0
    9.3350   -1.0880   23.5010 C   0  0  0  0  0  0  0  0  0  0  0  0
    7.8222    3.9984   25.2966 C   0  0  0  0  0  0  0  0  0  0  0  0
    9.0420    0.3700   21.5280 C   0  0  0  0  0  0  0  0  0  0  0  0
    9.5334   -6.0236   25.0414 C   0  0  0  0  0  0  0  0  0  0  0  0
   10.6330   -7.3746   26.8775 C   0  0  0  0  0  0  0  0  0  0  0  0
    8.1890   -0.7180   20.8700 C   0  0  0  0  0  0  0  0  0  0  0  0
    9.8870    1.3260   23.5730 C   0  0  0  0  0  0  0  0  0  0  0  0
    9.3522   -7.0865   26.1149 C   0  0  0  0  0  0  0  0  0  0  0  0
    6.7580    0.3810   17.8350 N   0  0  0  0  0  0  0  0  0  0  0  0
    9.2546   -4.7422   25.5438 N   0  0  0  0  0  0  0  0  0  0  0  0
    9.4560    0.1560   22.8130 N   0  0  0  0  0  0  0  0  0  0  0  0
    9.2690    1.4140   20.9380 O   0  0  0  0  0  0  0  0  0  0  0  0
    9.8805   -6.3053   23.8992 O   0  0  0  0  0  0  0  0  0  0  0  0
    8.0301    5.5891   25.9196 Cl  0  0  0  0  0  0  0  0  0  0  0  0
    3.6455    2.0160   21.6826 H   0  0  0  0  0  0  0  0  0  0  0  0
    3.0144    2.6518   19.3914 H   0  0  0  0  0  0  0  0  0  0  0  0
    5.4400    1.5979   24.9418 H   0  0  0  0  0  0  0  0  0  0  0  0
    5.6994    0.6999   22.1043 H   0  0  0  0  0  0  0  0  0  0  0  0
    7.3441    0.4143   23.8988 H   0  0  0  0  0  0  0  0  0  0  0  0
    4.4044    1.9727   17.4490 H   0  0  0  0  0  0  0  0  0  0  0  0
    8.6895   -2.3529   26.5807 H   0  0  0  0  0  0  0  0  0  0  0  0
    9.9262   -4.3897   22.9916 H   0  0  0  0  0  0  0  0  0  0  0  0
    8.9224   -0.1998   25.4238 H   0  0  0  0  0  0  0  0  0  0  0  0
   10.0649   -2.2343   21.8258 H   0  0  0  0  0  0  0  0  0  0  0  0
    5.7304    3.8806   25.8363 H   0  0  0  0  0  0  0  0  0  0  0  0
    9.8703    3.8156   24.6405 H   0  0  0  0  0  0  0  0  0  0  0  0
    8.4839   -0.7930   18.0639 H   0  0  0  0  0  0  0  0  0  0  0  0
   11.4241   -7.7171   26.2024 H   0  0  0  0  0  0  0  0  0  0  0  0
   10.4628   -8.1530   27.6277 H   0  0  0  0  0  0  0  0  0  0  0  0
   10.9949   -6.4779   27.3912 H   0  0  0  0  0  0  0  0  0  0  0  0
    7.6077   -1.2085   21.6613 H   0  0  0  0  0  0  0  0  0  0  0  0
    8.8716   -1.4650   20.4448 H   0  0  0  0  0  0  0  0  0  0  0  0
   10.4274    1.9911   22.8906 H   0  0  0  0  0  0  0  0  0  0  0  0
   10.6011    0.9882   24.3313 H   0  0  0  0  0  0  0  0  0  0  0  0
    8.5795   -6.7463   26.8138 H   0  0  0  0  0  0  0  0  0  0  0  0
    8.9965   -8.0064   25.6368 H   0  0  0  0  0  0  0  0  0  0  0  0
    6.7270    0.4925   16.8305 H   0  0  0  0  0  0  0  0  0  0  0  0
    8.9776   -4.7057   26.5317 H   0  0  0  0  0  0  0  0  0  0  0  0
  1  2  1  0  0  0  0
  1  4  2  0  0  0  0
  2  6  2  0  0  0  0
  3  5  2  0  0  0  0
  3 11  1  0  0  0  0
  4 14  1  0  0  0  0
  5 15  1  0  0  0  0
  6 17  1  0  0  0  0
  7  9  2  0  0  0  0
  7 18  1  0  0  0  0
  8 10  1  0  0  0  0
  8 18  2  0  0  0  0
  9 19  1  0  0  0  0
 10 19  2  0  0  0  0
 11 20  2  0  0  0  0
 12 15  2  0  0  0  0
 12 20  1  0  0  0  0
 13 16  2  0  0  0  0
 13 27  1  0  0  0  0
 14 16  1  0  0  0  0
 14 17  2  0  0  0  0
 15 25  1  0  0  0  0
 16 24  1  0  0  0  0
 17 27  1  0  0  0  0
 18 28  1  0  0  0  0
 19 29  1  0  0  0  0
 20 32  1  0  0  0  0
 21 24  1  0  0  0  0
 21 29  1  0  0  0  0
 21 30  2  0  0  0  0
 22 26  1  0  0  0  0
 22 28  1  0  0  0  0
 22 31  2  0  0  0  0
 23 26  1  0  0  0  0
 25 29  1  0  0  0  0
  1 33  1  0  0  0  0
  2 34  1  0  0  0  0
  3 35  1  0  0  0  0
  4 36  1  0  0  0  0
  5 37  1  0  0  0  0
  6 38  1  0  0  0  0
  7 39  1  0  0  0  0
  8 40  1  0  0  0  0
  9 41  1  0  0  0  0
 10 42  1  0  0  0  0
 11 43  1  0  0  0  0
 12 44  1  0  0  0  0
 13 45  1  0  0  0  0
 23 46  1  0  0  0  0
 23 47  1  0  0  0  0
 23 48  1  0  0  0  0
 24 49  1  0  0  0  0
 24 50  1  0  0  0  0
 25 51  1  0  0  0  0
 25 52  1  0  0  0  0
 26 53  1  0  0  0  0
 26 54  1  0  0  0  0
 27 55  1  0  0  0  0
 28 56  1  0  0  0  0
M  END
> <clash_score>
1.498667137989192

> <docking_score>
-5.501474380493164

$$$$
BENZO_455_1
  -OEChem-08222011203D

 56 59  0     0  0  0  0  0  0999 V2000
    4.2750    1.7050   20.8490 C   0  0  0  0  0  0  0  0  0  0  0  0
    3.9160    2.0630   19.5520 C   0  0  0  0  0  0  0  0  0  0  0  0
    5.4210    0.9600   21.0930 C   0  0  0  0  0  0  0  0  0  0  0  0
    4.6890    1.6810   18.4640 C   0  0  0  0  0  0  0  0  0  0  0  0
    8.9960   -2.3380   25.5320 C   0  0  0  0  0  0  0  0  0  0  0  0
    9.6730   -3.4710   23.5300 C   0  0  0  0  0  0  0  0  0  0  0  0
    9.0720   -1.1280   24.8640 C   0  0  0  0  0  0  0  0  0  0  0  0
    9.7200   -2.2600   22.8630 C   0  0  0  0  0  0  0  0  0  0  0  0
   12.1233    1.3811   24.9242 C   0  0  0  0  0  0  0  0  0  0  0  0
    7.6390   -0.2680   18.5410 C   0  0  0  0  0  0  0  0  0  0  0  0
   12.3261    1.4247   22.7351 C   0  0  0  0  0  0  0  0  0  0  0  0
    6.1790    0.5730   19.9990 C   0  0  0  0  0  0  0  0  0  0  0  0
   11.3794    1.3761   23.7290 C   0  0  0  0  0  0  0  0  0  0  0  0
    7.3170   -0.1610   19.8550 C   0  0  0  0  0  0  0  0  0  0  0  0
    5.8300    0.9190   18.6970 C   0  0  0  0  0  0  0  0  0  0  0  0
    9.3070   -3.5340   24.8780 C   0  0  0  0  0  0  0  0  0  0  0  0
    9.3350   -1.0880   23.5010 C   0  0  0  0  0  0  0  0  0  0  0  0
    9.0420    0.3700   21.5280 C   0  0  0  0  0  0  0  0  0  0  0  0
    9.5334   -6.0236   25.0414 C   0  0  0  0  0  0  0  0  0  0  0  0
   10.6330   -7.3746   26.8775 C   0  0  0  0  0  0  0  0  0  0  0  0
   14.8305    1.5084   22.7418 C   0  0  0  0  0  0  0  0  0  0  0  0
    8.1890   -0.7180   20.8700 C   0  0  0  0  0  0  0  0  0  0  0  0
    9.8870    1.3260   23.5730 C   0  0  0  0  0  0  0  0  0  0  0  0
    9.3522   -7.0865   26.1149 C   0  0  0  0  0  0  0  0  0  0  0  0
   13.4410    1.4289   24.7112 N   0  0  0  0  0  0  0  0  0  0  0  0
    6.7580    0.3810   17.8350 N   0  0  0  0  0  0  0  0  0  0  0  0
   13.5326    1.4543   23.3706 N   0  0  0  0  0  0  0  0  0  0  0  0
    9.2546   -4.7422   25.5438 N   0  0  0  0  0  0  0  0  0  0  0  0
    9.4560    0.1560   22.8130 N   0  0  0  0  0  0  0  0  0  0  0  0
    9.2690    1.4140   20.9380 O   0  0  0  0  0  0  0  0  0  0  0  0
    9.8805   -6.3053   23.8992 O   0  0  0  0  0  0  0  0  0  0  0  0
    3.6455    2.0160   21.6826 H   0  0  0  0  0  0  0  0  0  0  0  0
    3.0144    2.6518   19.3914 H   0  0  0  0  0  0  0  0  0  0  0  0
    5.6994    0.6999   22.1043 H   0  0  0  0  0  0  0  0  0  0  0  0
    4.4044    1.9727   17.4490 H   0  0  0  0  0  0  0  0  0  0  0  0
    8.6895   -2.3529   26.5807 H   0  0  0  0  0  0  0  0  0  0  0  0
    9.9262   -4.3897   22.9916 H   0  0  0  0  0  0  0  0  0  0  0  0
    8.9224   -0.1998   25.4238 H   0  0  0  0  0  0  0  0  0  0  0  0
   10.0649   -2.2343   21.8258 H   0  0  0  0  0  0  0  0  0  0  0  0
   11.7624    1.3510   25.9426 H   0  0  0  0  0  0  0  0  0  0  0  0
    8.4839   -0.7930   18.0639 H   0  0  0  0  0  0  0  0  0  0  0  0
   12.2462    1.4390   21.6566 H   0  0  0  0  0  0  0  0  0  0  0  0
   11.4241   -7.7171   26.2024 H   0  0  0  0  0  0  0  0  0  0  0  0
   10.4628   -8.1530   27.6277 H   0  0  0  0  0  0  0  0  0  0  0  0
   10.9949   -6.4779   27.3912 H   0  0  0  0  0  0  0  0  0  0  0  0
   15.0990    2.5601   22.6124 H   0  0  0  0  0  0  0  0  0  0  0  0
   15.5636    1.0018   23.3756 H   0  0  0  0  0  0  0  0  0  0  0  0
   14.7841    1.0025   21.7733 H   0  0  0  0  0  0  0  0  0  0  0  0
    7.6077   -1.2085   21.6613 H   0  0  0  0  0  0  0  0  0  0  0  0
    8.8716   -1.4650   20.4448 H   0  0  0  0  0  0  0  0  0  0  0  0
    9.3974    1.2912   24.5523 H   0  0  0  0  0  0  0  0  0  0  0  0
    9.5159    2.2168   23.0553 H   0  0  0  0  0  0  0  0  0  0  0  0
    8.5795   -6.7463   26.8138 H   0  0  0  0  0  0  0  0  0  0  0  0
    8.9965   -8.0064   25.6368 H   0  0  0  0  0  0  0  0  0  0  0  0
    6.7270    0.4925   16.8305 H   0  0  0  0  0  0  0  0  0  0  0  0
    8.9776   -4.7057   26.5317 H   0  0  0  0  0  0  0  0  0  0  0  0
  1  2  1  0  0  0  0
  1  3  2  0  0  0  0
  2  4  2  0  0  0  0
  3 12  1  0  0  0  0
  4 15  1  0  0  0  0
  5  7  2  0  0  0  0
  5 16  1  0  0  0  0
  6  8  1  0  0  0  0
  6 16  2  0  0  0  0
  7 17  1  0  0  0  0
  8 17  2  0  0  0  0
  9 13  1  0  0  0  0
  9 25  2  0  0  0  0
 10 14  2  0  0  0  0
 10 26  1  0  0  0  0
 11 13  2  0  0  0  0
 11 27  1  0  0  0  0
 12 14  1  0  0  0  0
 12 15  2  0  0  0  0
 13 23  1  0  0  0  0
 14 22  1  0  0  0  0
 15 26  1  0  0  0  0
 16 28  1  0  0  0  0
 17 29  1  0  0  0  0
 18 22  1  0  0  0  0
 18 29  1  0  0  0  0
 18 30  2  0  0  0  0
 19 24  1  0  0  0  0
 19 28  1  0  0  0  0
 19 31  2  0  0  0  0
 20 24  1  0  0  0  0
 21 27  1  0  0  0  0
 23 29  1  0  0  0  0
 25 27  1  0  0  0  0
  1 32  1  0  0  0  0
  2 33  1  0  0  0  0
  3 34  1  0  0  0  0
  4 35  1  0  0  0  0
  5 36  1  0  0  0  0
  6 37  1  0  0  0  0
  7 38  1  0  0  0  0
  8 39  1  0  0  0  0
  9 40  1  0  0  0  0
 10 41  1  0  0  0  0
 11 42  1  0  0  0  0
 20 43  1  0  0  0  0
 20 44  1  0  0  0  0
 20 45  1  0  0  0  0
 21 46  1  0  0  0  0
 21 47  1  0  0  0  0
 21 48  1  0  0  0  0
 22 49  1  0  0  0  0
 22 50  1  0  0  0  0
 23 51  1  0  0  0  0
 23 52  1  0  0  0  0
 24 53  1  0  0  0  0
 24 54  1  0  0  0  0
 26 55  1  0  0  0  0
 28 56  1  0  0  0  0
M  END
> <clash_score>
1.498667137989192

> <docking_score>
-5.8315887451171875

$$$$
BENZO_457_1
  -OEChem-08222011243D

 61 65  0     0  0  0  0  0  0999 V2000
   14.1526    1.4694   24.0176 C   0  0  0  0  0  0  0  0  0  0  0  0
    4.2750    1.7050   20.8490 C   0  0  0  0  0  0  0  0  0  0  0  0
   13.3741    0.8121   24.9701 C   0  0  0  0  0  0  0  0  0  0  0  0
   13.5446    2.0802   22.9208 C   0  0  0  0  0  0  0  0  0  0  0  0
    3.9160    2.0630   19.5520 C   0  0  0  0  0  0  0  0  0  0  0  0
    5.4210    0.9600   21.0930 C   0  0  0  0  0  0  0  0  0  0  0  0
   11.9875    0.7654   24.8258 C   0  0  0  0  0  0  0  0  0  0  0  0
   12.1580    2.0335   22.7765 C   0  0  0  0  0  0  0  0  0  0  0  0
    4.6890    1.6810   18.4640 C   0  0  0  0  0  0  0  0  0  0  0  0
    8.9960   -2.3380   25.5320 C   0  0  0  0  0  0  0  0  0  0  0  0
    9.6730   -3.4710   23.5300 C   0  0  0  0  0  0  0  0  0  0  0  0
    9.0720   -1.1280   24.8640 C   0  0  0  0  0  0  0  0  0  0  0  0
    9.7200   -2.2600   22.8630 C   0  0  0  0  0  0  0  0  0  0  0  0
    7.6390   -0.2680   18.5410 C   0  0  0  0  0  0  0  0  0  0  0  0
    6.1790    0.5730   19.9990 C   0  0  0  0  0  0  0  0  0  0  0  0
   11.3794    1.3761   23.7290 C   0  0  0  0  0  0  0  0  0  0  0  0
    7.3170   -0.1610   19.8550 C   0  0  0  0  0  0  0  0  0  0  0  0
    5.8300    0.9190   18.6970 C   0  0  0  0  0  0  0  0  0  0  0  0
    9.3070   -3.5340   24.8780 C   0  0  0  0  0  0  0  0  0  0  0  0
    9.3350   -1.0880   23.5010 C   0  0  0  0  0  0  0  0  0  0  0  0
    9.0420    0.3700   21.5280 C   0  0  0  0  0  0  0  0  0  0  0  0
    7.3635   -6.1361   27.1888 C   0  0  0  0  0  0  0  0  0  0  0  0
    8.1961   -4.9735   27.7341 C   0  0  0  0  0  0  0  0  0  0  0  0
    7.1942   -6.0394   25.6709 C   0  0  0  0  0  0  0  0  0  0  0  0
    9.5196   -4.8490   26.9797 C   0  0  0  0  0  0  0  0  0  0  0  0
    8.5442   -5.8838   24.9639 C   0  0  0  0  0  0  0  0  0  0  0  0
    8.1890   -0.7180   20.8700 C   0  0  0  0  0  0  0  0  0  0  0  0
    9.8870    1.3260   23.5730 C   0  0  0  0  0  0  0  0  0  0  0  0
    6.7580    0.3810   17.8350 N   0  0  0  0  0  0  0  0  0  0  0  0
    9.2562   -4.7384   25.5422 N   0  0  0  0  0  0  0  0  0  0  0  0
    9.4560    0.1560   22.8130 N   0  0  0  0  0  0  0  0  0  0  0  0
    9.2690    1.4140   20.9380 O   0  0  0  0  0  0  0  0  0  0  0  0
   15.2322    1.5068   24.1308 H   0  0  0  0  0  0  0  0  0  0  0  0
    3.6455    2.0160   21.6826 H   0  0  0  0  0  0  0  0  0  0  0  0
   13.8473    0.3374   25.8248 H   0  0  0  0  0  0  0  0  0  0  0  0
   14.1503    2.5930   22.1795 H   0  0  0  0  0  0  0  0  0  0  0  0
    3.0144    2.6518   19.3914 H   0  0  0  0  0  0  0  0  0  0  0  0
    5.6994    0.6999   22.1043 H   0  0  0  0  0  0  0  0  0  0  0  0
   11.3889    0.2508   25.5729 H   0  0  0  0  0  0  0  0  0  0  0  0
   11.6930    2.5120   21.9187 H   0  0  0  0  0  0  0  0  0  0  0  0
    4.4044    1.9727   17.4490 H   0  0  0  0  0  0  0  0  0  0  0  0
    8.6905   -2.3533   26.5810 H   0  0  0  0  0  0  0  0  0  0  0  0
    9.9266   -4.3896   22.9917 H   0  0  0  0  0  0  0  0  0  0  0  0
    8.9233   -0.1992   25.4231 H   0  0  0  0  0  0  0  0  0  0  0  0
   10.0650   -2.2330   21.8256 H   0  0  0  0  0  0  0  0  0  0  0  0
    8.4839   -0.7930   18.0639 H   0  0  0  0  0  0  0  0  0  0  0  0
    7.8482   -7.0901   27.4469 H   0  0  0  0  0  0  0  0  0  0  0  0
    6.3760   -6.1438   27.6724 H   0  0  0  0  0  0  0  0  0  0  0  0
    7.6307   -4.0424   27.6403 H   0  0  0  0  0  0  0  0  0  0  0  0
    8.3915   -5.1310   28.7968 H   0  0  0  0  0  0  0  0  0  0  0  0
    6.6888   -6.9376   25.3010 H   0  0  0  0  0  0  0  0  0  0  0  0
    6.5515   -5.1859   25.4257 H   0  0  0  0  0  0  0  0  0  0  0  0
   10.0492   -3.9640   27.3414 H   0  0  0  0  0  0  0  0  0  0  0  0
   10.1431   -5.7254   27.1778 H   0  0  0  0  0  0  0  0  0  0  0  0
    9.1338   -6.7931   25.0868 H   0  0  0  0  0  0  0  0  0  0  0  0
    8.3656   -5.7264   23.8998 H   0  0  0  0  0  0  0  0  0  0  0  0
    7.5972   -1.2056   21.6500 H   0  0  0  0  0  0  0  0  0  0  0  0
    8.8612   -1.4622   20.4334 H   0  0  0  0  0  0  0  0  0  0  0  0
    9.3974    1.2912   24.5523 H   0  0  0  0  0  0  0  0  0  0  0  0
    9.5159    2.2168   23.0554 H   0  0  0  0  0  0  0  0  0  0  0  0
    6.7270    0.4925   16.8305 H   0  0  0  0  0  0  0  0  0  0  0  0
  1  3  1  0  0  0  0
  1  4  2  0  0  0  0
  2  5  1  0  0  0  0
  2  6  2  0  0  0  0
  3  7  2  0  0  0  0
  4  8  1  0  0  0  0
  5  9  2  0  0  0  0
  6 15  1  0  0  0  0
  7 16  1  0  0  0  0
  8 16  2  0  0  0  0
  9 18  1  0  0  0  0
 10 12  2  0  0  0  0
 10 19  1  0  0  0  0
 11 13  1  0  0  0  0
 11 19  2  0  0  0  0
 12 20  1  0  0  0  0
 13 20  2  0  0  0  0
 14 17  2  0  0  0  0
 14 29  1  0  0  0  0
 15 17  1  0  0  0  0
 15 18  2  0  0  0  0
 16 28  1  0  0  0  0
 17 27  1  0  0  0  0
 18 29  1  0  0  0  0
 19 30  1  0  0  0  0
 20 31  1  0  0  0  0
 21 27  1  0  0  0  0
 21 31  1  0  0  0  0
 21 32  2  0  0  0  0
 22 23  1  0  0  0  0
 22 24  1  0  0  0  0
 23 25  1  0  0  0  0
 24 26  1  0  0  0  0
 25 30  1  0  0  0  0
 26 30  1  0  0  0  0
 28 31  1  0  0  0  0
  1 33  1  0  0  0  0
  2 34  1  0  0  0  0
  3 35  1  0  0  0  0
  4 36  1  0  0  0  0
  5 37  1  0  0  0  0
  6 38  1  0  0  0  0
  7 39  1  0  0  0  0
  8 40  1  0  0  0  0
  9 41  1  0  0  0  0
 10 42  1  0  0  0  0
 11 43  1  0  0  0  0
 12 44  1  0  0  0  0
 13 45  1  0  0  0  0
 14 46  1  0  0  0  0
 22 47  1  0  0  0  0
 22 48  1  0  0  0  0
 23 49  1  0  0  0  0
 23 50  1  0  0  0  0
 24 51  1  0  0  0  0
 24 52  1  0  0  0  0
 25 53  1  0  0  0  0
 25 54  1  0  0  0  0
 26 55  1  0  0  0  0
 26 56  1  0  0  0  0
 27 57  1  0  0  0  0
 27 58  1  0  0  0  0
 28 59  1  0  0  0  0
 28 60  1  0  0  0  0
 29 61  1  0  0  0  0
M  END
> <clash_score>
0

> <docking_score>
-8.405502319335938

$$$$
BENZO_456_1
  -OEChem-08222011243D

 58 62  0     0  0  0  0  0  0999 V2000
    4.2750    1.7050   20.8490 C   0  0  0  0  0  0  0  0  0  0  0  0
    3.9160    2.0630   19.5520 C   0  0  0  0  0  0  0  0  0  0  0  0
    5.4210    0.9600   21.0930 C   0  0  0  0  0  0  0  0  0  0  0  0
    4.6890    1.6810   18.4640 C   0  0  0  0  0  0  0  0  0  0  0  0
    8.9960   -2.3380   25.5320 C   0  0  0  0  0  0  0  0  0  0  0  0
    9.6730   -3.4710   23.5300 C   0  0  0  0  0  0  0  0  0  0  0  0
    9.0720   -1.1280   24.8640 C   0  0  0  0  0  0  0  0  0  0  0  0
    9.7200   -2.2600   22.8630 C   0  0  0  0  0  0  0  0  0  0  0  0
   12.2913    1.4279   22.6355 C   0  0  0  0  0  0  0  0  0  0  0  0
    7.6390   -0.2680   18.5410 C   0  0  0  0  0  0  0  0  0  0  0  0
   13.6024    1.4662   23.0564 C   0  0  0  0  0  0  0  0  0  0  0  0
   12.0284    1.3764   24.9443 C   0  0  0  0  0  0  0  0  0  0  0  0
    6.1790    0.5730   19.9990 C   0  0  0  0  0  0  0  0  0  0  0  0
   11.3794    1.3761   23.7290 C   0  0  0  0  0  0  0  0  0  0  0  0
    7.3170   -0.1610   19.8550 C   0  0  0  0  0  0  0  0  0  0  0  0
    5.8300    0.9190   18.6970 C   0  0  0  0  0  0  0  0  0  0  0  0
    9.3070   -3.5340   24.8780 C   0  0  0  0  0  0  0  0  0  0  0  0
    9.3350   -1.0880   23.5010 C   0  0  0  0  0  0  0  0  0  0  0  0
    9.0420    0.3700   21.5280 C   0  0  0  0  0  0  0  0  0  0  0  0
    7.3635   -6.1361   27.1888 C   0  0  0  0  0  0  0  0  0  0  0  0
    8.1961   -4.9735   27.7341 C   0  0  0  0  0  0  0  0  0  0  0  0
    7.1942   -6.0394   25.6709 C   0  0  0  0  0  0  0  0  0  0  0  0
    9.5196   -4.8490   26.9797 C   0  0  0  0  0  0  0  0  0  0  0  0
    8.5442   -5.8838   24.9639 C   0  0  0  0  0  0  0  0  0  0  0  0
    8.1890   -0.7180   20.8700 C   0  0  0  0  0  0  0  0  0  0  0  0
    9.8870    1.3260   23.5730 C   0  0  0  0  0  0  0  0  0  0  0  0
    6.7580    0.3810   17.8350 N   0  0  0  0  0  0  0  0  0  0  0  0
    9.2562   -4.7384   25.5422 N   0  0  0  0  0  0  0  0  0  0  0  0
    9.4560    0.1560   22.8130 N   0  0  0  0  0  0  0  0  0  0  0  0
    9.2690    1.4140   20.9380 O   0  0  0  0  0  0  0  0  0  0  0  0
   13.7301    1.4394   24.7638 S   0  0  0  0  0  0  0  0  0  0  0  0
    3.6455    2.0160   21.6826 H   0  0  0  0  0  0  0  0  0  0  0  0
    3.0144    2.6518   19.3914 H   0  0  0  0  0  0  0  0  0  0  0  0
    5.6994    0.6999   22.1043 H   0  0  0  0  0  0  0  0  0  0  0  0
    4.4044    1.9727   17.4490 H   0  0  0  0  0  0  0  0  0  0  0  0
    8.6905   -2.3533   26.5810 H   0  0  0  0  0  0  0  0  0  0  0  0
    9.9266   -4.3896   22.9917 H   0  0  0  0  0  0  0  0  0  0  0  0
    8.9233   -0.1992   25.4231 H   0  0  0  0  0  0  0  0  0  0  0  0
   10.0650   -2.2330   21.8256 H   0  0  0  0  0  0  0  0  0  0  0  0
   12.0045    1.4365   21.5915 H   0  0  0  0  0  0  0  0  0  0  0  0
    8.4839   -0.7930   18.0639 H   0  0  0  0  0  0  0  0  0  0  0  0
   14.4914    1.5078   22.4431 H   0  0  0  0  0  0  0  0  0  0  0  0
   11.5886    1.3416   25.9314 H   0  0  0  0  0  0  0  0  0  0  0  0
    7.8482   -7.0901   27.4469 H   0  0  0  0  0  0  0  0  0  0  0  0
    6.3760   -6.1438   27.6724 H   0  0  0  0  0  0  0  0  0  0  0  0
    7.6307   -4.0424   27.6403 H   0  0  0  0  0  0  0  0  0  0  0  0
    8.3915   -5.1310   28.7968 H   0  0  0  0  0  0  0  0  0  0  0  0
    6.6888   -6.9376   25.3010 H   0  0  0  0  0  0  0  0  0  0  0  0
    6.5515   -5.1859   25.4257 H   0  0  0  0  0  0  0  0  0  0  0  0
   10.0492   -3.9640   27.3414 H   0  0  0  0  0  0  0  0  0  0  0  0
   10.1431   -5.7254   27.1778 H   0  0  0  0  0  0  0  0  0  0  0  0
    9.1338   -6.7931   25.0868 H   0  0  0  0  0  0  0  0  0  0  0  0
    8.3656   -5.7264   23.8998 H   0  0  0  0  0  0  0  0  0  0  0  0
    7.5972   -1.2056   21.6500 H   0  0  0  0  0  0  0  0  0  0  0  0
    8.8612   -1.4622   20.4334 H   0  0  0  0  0  0  0  0  0  0  0  0
    9.3974    1.2912   24.5523 H   0  0  0  0  0  0  0  0  0  0  0  0
    9.5159    2.2168   23.0554 H   0  0  0  0  0  0  0  0  0  0  0  0
    6.7270    0.4925   16.8305 H   0  0  0  0  0  0  0  0  0  0  0  0
  1  2  1  0  0  0  0
  1  3  2  0  0  0  0
  2  4  2  0  0  0  0
  3 13  1  0  0  0  0
  4 16  1  0  0  0  0
  5  7  2  0  0  0  0
  5 17  1  0  0  0  0
  6  8  1  0  0  0  0
  6 17  2  0  0  0  0
  7 18  1  0  0  0  0
  8 18  2  0  0  0  0
  9 11  2  0  0  0  0
  9 14  1  0  0  0  0
 10 15  2  0  0  0  0
 10 27  1  0  0  0  0
 11 31  1  0  0  0  0
 12 14  2  0  0  0  0
 12 31  1  0  0  0  0
 13 15  1  0  0  0  0
 13 16  2  0  0  0  0
 14 26  1  0  0  0  0
 15 25  1  0  0  0  0
 16 27  1  0  0  0  0
 17 28  1  0  0  0  0
 18 29  1  0  0  0  0
 19 25  1  0  0  0  0
 19 29  1  0  0  0  0
 19 30  2  0  0  0  0
 20 21  1  0  0  0  0
 20 22  1  0  0  0  0
 21 23  1  0  0  0  0
 22 24  1  0  0  0  0
 23 28  1  0  0  0  0
 24 28  1  0  0  0  0
 26 29  1  0  0  0  0
  1 32  1  0  0  0  0
  2 33  1  0  0  0  0
  3 34  1  0  0  0  0
  4 35  1  0  0  0  0
  5 36  1  0  0  0  0
  6 37  1  0  0  0  0
  7 38  1  0  0  0  0
  8 39  1  0  0  0  0
  9 40  1  0  0  0  0
 10 41  1  0  0  0  0
 11 42  1  0  0  0  0
 12 43  1  0  0  0  0
 20 44  1  0  0  0  0
 20 45  1  0  0  0  0
 21 46  1  0  0  0  0
 21 47  1  0  0  0  0
 22 48  1  0  0  0  0
 22 49  1  0  0  0  0
 23 50  1  0  0  0  0
 23 51  1  0  0  0  0
 24 52  1  0  0  0  0
 24 53  1  0  0  0  0
 25 54  1  0  0  0  0
 25 55  1  0  0  0  0
 26 56  1  0  0  0  0
 26 57  1  0  0  0  0
 27 58  1  0  0  0  0
M  END
> <clash_score>
0

> <docking_score>
-8.484355926513672

$$$$
BENZO_458_1
  -OEChem-08222011243D

 61 65  0     0  0  0  0  0  0999 V2000
    4.2750    1.7050   20.8490 C   0  0  0  0  0  0  0  0  0  0  0  0
    3.9160    2.0630   19.5520 C   0  0  0  0  0  0  0  0  0  0  0  0
    6.4089    2.0844   24.8766 C   0  0  0  0  0  0  0  0  0  0  0  0
    5.4210    0.9600   21.0930 C   0  0  0  0  0  0  0  0  0  0  0  0
    7.4847    1.4191   24.2887 C   0  0  0  0  0  0  0  0  0  0  0  0
    4.6890    1.6810   18.4640 C   0  0  0  0  0  0  0  0  0  0  0  0
    8.9960   -2.3380   25.5320 C   0  0  0  0  0  0  0  0  0  0  0  0
    9.6730   -3.4710   23.5300 C   0  0  0  0  0  0  0  0  0  0  0  0
    9.0720   -1.1280   24.8640 C   0  0  0  0  0  0  0  0  0  0  0  0
    9.7200   -2.2600   22.8630 C   0  0  0  0  0  0  0  0  0  0  0  0
    6.5777    3.3741   25.3805 C   0  0  0  0  0  0  0  0  0  0  0  0
    8.8980    3.3330   24.7088 C   0  0  0  0  0  0  0  0  0  0  0  0
    7.6390   -0.2680   18.5410 C   0  0  0  0  0  0  0  0  0  0  0  0
    6.1790    0.5730   19.9990 C   0  0  0  0  0  0  0  0  0  0  0  0
    8.7292    2.0433   24.2048 C   0  0  0  0  0  0  0  0  0  0  0  0
    7.3170   -0.1610   19.8550 C   0  0  0  0  0  0  0  0  0  0  0  0
    5.8300    0.9190   18.6970 C   0  0  0  0  0  0  0  0  0  0  0  0
    9.3070   -3.5340   24.8780 C   0  0  0  0  0  0  0  0  0  0  0  0
    9.3350   -1.0880   23.5010 C   0  0  0  0  0  0  0  0  0  0  0  0
    7.8222    3.9984   25.2966 C   0  0  0  0  0  0  0  0  0  0  0  0
    9.0420    0.3700   21.5280 C   0  0  0  0  0  0  0  0  0  0  0  0
    7.3635   -6.1361   27.1888 C   0  0  0  0  0  0  0  0  0  0  0  0
    8.1961   -4.9735   27.7341 C   0  0  0  0  0  0  0  0  0  0  0  0
    7.1942   -6.0394   25.6709 C   0  0  0  0  0  0  0  0  0  0  0  0
    9.5196   -4.8490   26.9797 C   0  0  0  0  0  0  0  0  0  0  0  0
    8.5442   -5.8838   24.9639 C   0  0  0  0  0  0  0  0  0  0  0  0
    8.1890   -0.7180   20.8700 C   0  0  0  0  0  0  0  0  0  0  0  0
    9.8870    1.3260   23.5730 C   0  0  0  0  0  0  0  0  0  0  0  0
    6.7580    0.3810   17.8350 N   0  0  0  0  0  0  0  0  0  0  0  0
    9.2562   -4.7384   25.5422 N   0  0  0  0  0  0  0  0  0  0  0  0
    9.4560    0.1560   22.8130 N   0  0  0  0  0  0  0  0  0  0  0  0
    9.2690    1.4140   20.9380 O   0  0  0  0  0  0  0  0  0  0  0  0
    8.0301    5.5891   25.9196 Cl  0  0  0  0  0  0  0  0  0  0  0  0
    3.6455    2.0160   21.6826 H   0  0  0  0  0  0  0  0  0  0  0  0
    3.0144    2.6518   19.3914 H   0  0  0  0  0  0  0  0  0  0  0  0
    5.4400    1.5979   24.9418 H   0  0  0  0  0  0  0  0  0  0  0  0
    5.6994    0.6999   22.1043 H   0  0  0  0  0  0  0  0  0  0  0  0
    7.3441    0.4143   23.8988 H   0  0  0  0  0  0  0  0  0  0  0  0
    4.4044    1.9727   17.4490 H   0  0  0  0  0  0  0  0  0  0  0  0
    8.6905   -2.3533   26.5810 H   0  0  0  0  0  0  0  0  0  0  0  0
    9.9266   -4.3896   22.9917 H   0  0  0  0  0  0  0  0  0  0  0  0
    8.9233   -0.1992   25.4231 H   0  0  0  0  0  0  0  0  0  0  0  0
   10.0650   -2.2330   21.8256 H   0  0  0  0  0  0  0  0  0  0  0  0
    5.7304    3.8806   25.8363 H   0  0  0  0  0  0  0  0  0  0  0  0
    9.8703    3.8156   24.6405 H   0  0  0  0  0  0  0  0  0  0  0  0
    8.4839   -0.7930   18.0639 H   0  0  0  0  0  0  0  0  0  0  0  0
    7.8482   -7.0901   27.4469 H   0  0  0  0  0  0  0  0  0  0  0  0
    6.3760   -6.1438   27.6724 H   0  0  0  0  0  0  0  0  0  0  0  0
    7.6307   -4.0424   27.6403 H   0  0  0  0  0  0  0  0  0  0  0  0
    8.3915   -5.1310   28.7968 H   0  0  0  0  0  0  0  0  0  0  0  0
    6.6888   -6.9376   25.3010 H   0  0  0  0  0  0  0  0  0  0  0  0
    6.5515   -5.1859   25.4257 H   0  0  0  0  0  0  0  0  0  0  0  0
   10.0492   -3.9640   27.3414 H   0  0  0  0  0  0  0  0  0  0  0  0
   10.1431   -5.7254   27.1778 H   0  0  0  0  0  0  0  0  0  0  0  0
    9.1338   -6.7931   25.0868 H   0  0  0  0  0  0  0  0  0  0  0  0
    8.3656   -5.7264   23.8998 H   0  0  0  0  0  0  0  0  0  0  0  0
    7.5972   -1.2056   21.6500 H   0  0  0  0  0  0  0  0  0  0  0  0
    8.8612   -1.4622   20.4334 H   0  0  0  0  0  0  0  0  0  0  0  0
   10.4274    1.9911   22.8906 H   0  0  0  0  0  0  0  0  0  0  0  0
   10.6011    0.9882   24.3313 H   0  0  0  0  0  0  0  0  0  0  0  0
    6.7270    0.4925   16.8305 H   0  0  0  0  0  0  0  0  0  0  0  0
  1  2  1  0  0  0  0
  1  4  2  0  0  0  0
  2  6  2  0  0  0  0
  3  5  2  0  0  0  0
  3 11  1  0  0  0  0
  4 14  1  0  0  0  0
  5 15  1  0  0  0  0
  6 17  1  0  0  0  0
  7  9  2  0  0  0  0
  7 18  1  0  0  0  0
  8 10  1  0  0  0  0
  8 18  2  0  0  0  0
  9 19  1  0  0  0  0
 10 19  2  0  0  0  0
 11 20  2  0  0  0  0
 12 15  2  0  0  0  0
 12 20  1  0  0  0  0
 13 16  2  0  0  0  0
 13 29  1  0  0  0  0
 14 16  1  0  0  0  0
 14 17  2  0  0  0  0
 15 28  1  0  0  0  0
 16 27  1  0  0  0  0
 17 29  1  0  0  0  0
 18 30  1  0  0  0  0
 19 31  1  0  0  0  0
 20 33  1  0  0  0  0
 21 27  1  0  0  0  0
 21 31  1  0  0  0  0
 21 32  2  0  0  0  0
 22 23  1  0  0  0  0
 22 24  1  0  0  0  0
 23 25  1  0  0  0  0
 24 26  1  0  0  0  0
 25 30  1  0  0  0  0
 26 30  1  0  0  0  0
 28 31  1  0  0  0  0
  1 34  1  0  0  0  0
  2 35  1  0  0  0  0
  3 36  1  0  0  0  0
  4 37  1  0  0  0  0
  5 38  1  0  0  0  0
  6 39  1  0  0  0  0
  7 40  1  0  0  0  0
  8 41  1  0  0  0  0
  9 42  1  0  0  0  0
 10 43  1  0  0  0  0
 11 44  1  0  0  0  0
 12 45  1  0  0  0  0
 13 46  1  0  0  0  0
 22 47  1  0  0  0  0
 22 48  1  0  0  0  0
 23 49  1  0  0  0  0
 23 50  1  0  0  0  0
 24 51  1  0  0  0  0
 24 52  1  0  0  0  0
 25 53  1  0  0  0  0
 25 54  1  0  0  0  0
 26 55  1  0  0  0  0
 26 56  1  0  0  0  0
 27 57  1  0  0  0  0
 27 58  1  0  0  0  0
 28 59  1  0  0  0  0
 28 60  1  0  0  0  0
 29 61  1  0  0  0  0
M  END
> <clash_score>
0

> <docking_score>
-7.7915239334106445

$$$$
BENZO_460_1
  -OEChem-08222011243D

 46 49  0     0  0  0  0  0  0999 V2000
    4.2750    1.7050   20.8490 C   0  0  0  0  0  0  0  0  0  0  0  0
    3.9160    2.0630   19.5520 C   0  0  0  0  0  0  0  0  0  0  0  0
    5.4210    0.9600   21.0930 C   0  0  0  0  0  0  0  0  0  0  0  0
    8.9960   -2.3380   25.5320 C   0  0  0  0  0  0  0  0  0  0  0  0
    9.6730   -3.4710   23.5300 C   0  0  0  0  0  0  0  0  0  0  0  0
    4.6890    1.6810   18.4640 C   0  0  0  0  0  0  0  0  0  0  0  0
    9.0720   -1.1280   24.8640 C   0  0  0  0  0  0  0  0  0  0  0  0
    9.7200   -2.2600   22.8630 C   0  0  0  0  0  0  0  0  0  0  0  0
   12.2913    1.4279   22.6355 C   0  0  0  0  0  0  0  0  0  0  0  0
    7.6390   -0.2680   18.5410 C   0  0  0  0  0  0  0  0  0  0  0  0
   13.6024    1.4662   23.0564 C   0  0  0  0  0  0  0  0  0  0  0  0
   12.0284    1.3764   24.9443 C   0  0  0  0  0  0  0  0  0  0  0  0
    6.1790    0.5730   19.9990 C   0  0  0  0  0  0  0  0  0  0  0  0
    9.3070   -3.5340   24.8780 C   0  0  0  0  0  0  0  0  0  0  0  0
   11.3794    1.3761   23.7290 C   0  0  0  0  0  0  0  0  0  0  0  0
    7.3170   -0.1610   19.8550 C   0  0  0  0  0  0  0  0  0  0  0  0
    5.8300    0.9190   18.6970 C   0  0  0  0  0  0  0  0  0  0  0  0
    9.3350   -1.0880   23.5010 C   0  0  0  0  0  0  0  0  0  0  0  0
    9.0420    0.3700   21.5280 C   0  0  0  0  0  0  0  0  0  0  0  0
    9.2505   -4.8264   25.5904 C   0  0  0  0  0  0  0  0  0  0  0  0
    8.1890   -0.7180   20.8700 C   0  0  0  0  0  0  0  0  0  0  0  0
    9.8870    1.3260   23.5730 C   0  0  0  0  0  0  0  0  0  0  0  0
    6.7580    0.3810   17.8350 N   0  0  0  0  0  0  0  0  0  0  0  0
    9.4560    0.1560   22.8130 N   0  0  0  0  0  0  0  0  0  0  0  0
    9.2690    1.4140   20.9380 O   0  0  0  0  0  0  0  0  0  0  0  0
   13.7301    1.4394   24.7638 S   0  0  0  0  0  0  0  0  0  0  0  0
    3.6455    2.0160   21.6826 H   0  0  0  0  0  0  0  0  0  0  0  0
    3.0144    2.6518   19.3914 H   0  0  0  0  0  0  0  0  0  0  0  0
    5.6994    0.6999   22.1043 H   0  0  0  0  0  0  0  0  0  0  0  0
    8.6919   -2.3557   26.5813 H   0  0  0  0  0  0  0  0  0  0  0  0
    9.9267   -4.3907   22.9939 H   0  0  0  0  0  0  0  0  0  0  0  0
    4.4044    1.9727   17.4490 H   0  0  0  0  0  0  0  0  0  0  0  0
    8.9217   -0.1995   25.4231 H   0  0  0  0  0  0  0  0  0  0  0  0
   10.0653   -2.2339   21.8256 H   0  0  0  0  0  0  0  0  0  0  0  0
   12.0045    1.4365   21.5915 H   0  0  0  0  0  0  0  0  0  0  0  0
    8.4839   -0.7930   18.0639 H   0  0  0  0  0  0  0  0  0  0  0  0
   14.4914    1.5078   22.4431 H   0  0  0  0  0  0  0  0  0  0  0  0
   11.5886    1.3416   25.9314 H   0  0  0  0  0  0  0  0  0  0  0  0
    8.2503   -5.2678   25.5020 H   0  0  0  0  0  0  0  0  0  0  0  0
    9.9817   -5.5374   25.1845 H   0  0  0  0  0  0  0  0  0  0  0  0
    9.4841   -4.7043   26.6562 H   0  0  0  0  0  0  0  0  0  0  0  0
    7.6077   -1.2085   21.6613 H   0  0  0  0  0  0  0  0  0  0  0  0
    8.8716   -1.4650   20.4448 H   0  0  0  0  0  0  0  0  0  0  0  0
    9.3974    1.2912   24.5523 H   0  0  0  0  0  0  0  0  0  0  0  0
    9.5159    2.2168   23.0553 H   0  0  0  0  0  0  0  0  0  0  0  0
    6.7270    0.4925   16.8305 H   0  0  0  0  0  0  0  0  0  0  0  0
  1  2  1  0  0  0  0
  1  3  2  0  0  0  0
  2  6  2  0  0  0  0
  3 13  1  0  0  0  0
  4  7  2  0  0  0  0
  4 14  1  0  0  0  0
  5  8  1  0  0  0  0
  5 14  2  0  0  0  0
  6 17  1  0  0  0  0
  7 18  1  0  0  0  0
  8 18  2  0  0  0  0
  9 11  2  0  0  0  0
  9 15  1  0  0  0  0
 10 16  2  0  0  0  0
 10 23  1  0  0  0  0
 11 26  1  0  0  0  0
 12 15  2  0  0  0  0
 12 26  1  0  0  0  0
 13 16  1  0  0  0  0
 13 17  2  0  0  0  0
 14 20  1  0  0  0  0
 15 22  1  0  0  0  0
 16 21  1  0  0  0  0
 17 23  1  0  0  0  0
 18 24  1  0  0  0  0
 19 21  1  0  0  0  0
 19 24  1  0  0  0  0
 19 25  2  0  0  0  0
 22 24  1  0  0  0  0
  1 27  1  0  0  0  0
  2 28  1  0  0  0  0
  3 29  1  0  0  0  0
  4 30  1  0  0  0  0
  5 31  1  0  0  0  0
  6 32  1  0  0  0  0
  7 33  1  0  0  0  0
  8 34  1  0  0  0  0
  9 35  1  0  0  0  0
 10 36  1  0  0  0  0
 11 37  1  0  0  0  0
 12 38  1  0  0  0  0
 20 39  1  0  0  0  0
 20 40  1  0  0  0  0
 20 41  1  0  0  0  0
 21 42  1  0  0  0  0
 21 43  1  0  0  0  0
 22 44  1  0  0  0  0
 22 45  1  0  0  0  0
 23 46  1  0  0  0  0
M  END
> <clash_score>
0

> <docking_score>
-8.729385375976562

$$$$
BENZO_461_1
  -OEChem-08222011243D

 49 52  0     0  0  0  0  0  0999 V2000
   14.1526    1.4694   24.0176 C   0  0  0  0  0  0  0  0  0  0  0  0
    4.2750    1.7050   20.8490 C   0  0  0  0  0  0  0  0  0  0  0  0
   13.3741    0.8121   24.9701 C   0  0  0  0  0  0  0  0  0  0  0  0
   13.5446    2.0802   22.9208 C   0  0  0  0  0  0  0  0  0  0  0  0
    3.9160    2.0630   19.5520 C   0  0  0  0  0  0  0  0  0  0  0  0
    5.4210    0.9600   21.0930 C   0  0  0  0  0  0  0  0  0  0  0  0
   11.9875    0.7654   24.8259 C   0  0  0  0  0  0  0  0  0  0  0  0
   12.1580    2.0335   22.7765 C   0  0  0  0  0  0  0  0  0  0  0  0
    8.9960   -2.3380   25.5320 C   0  0  0  0  0  0  0  0  0  0  0  0
    9.6730   -3.4710   23.5300 C   0  0  0  0  0  0  0  0  0  0  0  0
    4.6890    1.6810   18.4640 C   0  0  0  0  0  0  0  0  0  0  0  0
    9.0720   -1.1280   24.8640 C   0  0  0  0  0  0  0  0  0  0  0  0
    9.7200   -2.2600   22.8630 C   0  0  0  0  0  0  0  0  0  0  0  0
    7.6390   -0.2680   18.5410 C   0  0  0  0  0  0  0  0  0  0  0  0
    6.1790    0.5730   19.9990 C   0  0  0  0  0  0  0  0  0  0  0  0
    9.3070   -3.5340   24.8780 C   0  0  0  0  0  0  0  0  0  0  0  0
   11.3794    1.3761   23.7290 C   0  0  0  0  0  0  0  0  0  0  0  0
    7.3170   -0.1610   19.8550 C   0  0  0  0  0  0  0  0  0  0  0  0
    5.8300    0.9190   18.6970 C   0  0  0  0  0  0  0  0  0  0  0  0
    9.3350   -1.0880   23.5010 C   0  0  0  0  0  0  0  0  0  0  0  0
    9.0420    0.3700   21.5280 C   0  0  0  0  0  0  0  0  0  0  0  0
    9.2505   -4.8264   25.5904 C   0  0  0  0  0  0  0  0  0  0  0  0
    8.1890   -0.7180   20.8700 C   0  0  0  0  0  0  0  0  0  0  0  0
    9.8870    1.3260   23.5730 C   0  0  0  0  0  0  0  0  0  0  0  0
    6.7580    0.3810   17.8350 N   0  0  0  0  0  0  0  0  0  0  0  0
    9.4560    0.1560   22.8130 N   0  0  0  0  0  0  0  0  0  0  0  0
    9.2690    1.4140   20.9380 O   0  0  0  0  0  0  0  0  0  0  0  0
   15.2322    1.5068   24.1308 H   0  0  0  0  0  0  0  0  0  0  0  0
    3.6455    2.0160   21.6826 H   0  0  0  0  0  0  0  0  0  0  0  0
   13.8473    0.3374   25.8248 H   0  0  0  0  0  0  0  0  0  0  0  0
   14.1503    2.5930   22.1795 H   0  0  0  0  0  0  0  0  0  0  0  0
    3.0144    2.6518   19.3914 H   0  0  0  0  0  0  0  0  0  0  0  0
    5.6994    0.6999   22.1043 H   0  0  0  0  0  0  0  0  0  0  0  0
   11.3889    0.2508   25.5729 H   0  0  0  0  0  0  0  0  0  0  0  0
   11.6930    2.5120   21.9187 H   0  0  0  0  0  0  0  0  0  0  0  0
    8.6919   -2.3557   26.5813 H   0  0  0  0  0  0  0  0  0  0  0  0
    9.9267   -4.3907   22.9939 H   0  0  0  0  0  0  0  0  0  0  0  0
    4.4044    1.9727   17.4490 H   0  0  0  0  0  0  0  0  0  0  0  0
    8.9217   -0.1995   25.4231 H   0  0  0  0  0  0  0  0  0  0  0  0
   10.0653   -2.2339   21.8256 H   0  0  0  0  0  0  0  0  0  0  0  0
    8.4839   -0.7930   18.0639 H   0  0  0  0  0  0  0  0  0  0  0  0
    8.2503   -5.2678   25.5020 H   0  0  0  0  0  0  0  0  0  0  0  0
    9.9817   -5.5374   25.1845 H   0  0  0  0  0  0  0  0  0  0  0  0
    9.4841   -4.7043   26.6562 H   0  0  0  0  0  0  0  0  0  0  0  0
    7.6077   -1.2085   21.6613 H   0  0  0  0  0  0  0  0  0  0  0  0
    8.8716   -1.4650   20.4448 H   0  0  0  0  0  0  0  0  0  0  0  0
    9.3974    1.2912   24.5523 H   0  0  0  0  0  0  0  0  0  0  0  0
    9.5159    2.2168   23.0553 H   0  0  0  0  0  0  0  0  0  0  0  0
    6.7270    0.4925   16.8305 H   0  0  0  0  0  0  0  0  0  0  0  0
  1  3  1  0  0  0  0
  1  4  2  0  0  0  0
  2  5  1  0  0  0  0
  2  6  2  0  0  0  0
  3  7  2  0  0  0  0
  4  8  1  0  0  0  0
  5 11  2  0  0  0  0
  6 15  1  0  0  0  0
  7 17  1  0  0  0  0
  8 17  2  0  0  0  0
  9 12  2  0  0  0  0
  9 16  1  0  0  0  0
 10 13  1  0  0  0  0
 10 16  2  0  0  0  0
 11 19  1  0  0  0  0
 12 20  1  0  0  0  0
 13 20  2  0  0  0  0
 14 18  2  0  0  0  0
 14 25  1  0  0  0  0
 15 18  1  0  0  0  0
 15 19  2  0  0  0  0
 16 22  1  0  0  0  0
 17 24  1  0  0  0  0
 18 23  1  0  0  0  0
 19 25  1  0  0  0  0
 20 26  1  0  0  0  0
 21 23  1  0  0  0  0
 21 26  1  0  0  0  0
 21 27  2  0  0  0  0
 24 26  1  0  0  0  0
  1 28  1  0  0  0  0
  2 29  1  0  0  0  0
  3 30  1  0  0  0  0
  4 31  1  0  0  0  0
  5 32  1  0  0  0  0
  6 33  1  0  0  0  0
  7 34  1  0  0  0  0
  8 35  1  0  0  0  0
  9 36  1  0  0  0  0
 10 37  1  0  0  0  0
 11 38  1  0  0  0  0
 12 39  1  0  0  0  0
 13 40  1  0  0  0  0
 14 41  1  0  0  0  0
 22 42  1  0  0  0  0
 22 43  1  0  0  0  0
 22 44  1  0  0  0  0
 23 45  1  0  0  0  0
 23 46  1  0  0  0  0
 24 47  1  0  0  0  0
 24 48  1  0  0  0  0
 25 49  1  0  0  0  0
M  END
> <clash_score>
0

> <docking_score>
-8.650522232055664

$$$$
BENZO_459_1
  -OEChem-08222011243D

 61 65  0     0  0  0  0  0  0999 V2000
    4.2750    1.7050   20.8490 C   0  0  0  0  0  0  0  0  0  0  0  0
    3.9160    2.0630   19.5520 C   0  0  0  0  0  0  0  0  0  0  0  0
    5.4210    0.9600   21.0930 C   0  0  0  0  0  0  0  0  0  0  0  0
    4.6890    1.6810   18.4640 C   0  0  0  0  0  0  0  0  0  0  0  0
    8.9960   -2.3380   25.5320 C   0  0  0  0  0  0  0  0  0  0  0  0
    9.6730   -3.4710   23.5300 C   0  0  0  0  0  0  0  0  0  0  0  0
    9.0720   -1.1280   24.8640 C   0  0  0  0  0  0  0  0  0  0  0  0
    9.7200   -2.2600   22.8630 C   0  0  0  0  0  0  0  0  0  0  0  0
   12.1233    1.3811   24.9242 C   0  0  0  0  0  0  0  0  0  0  0  0
    7.6390   -0.2680   18.5410 C   0  0  0  0  0  0  0  0  0  0  0  0
   12.3261    1.4247   22.7351 C   0  0  0  0  0  0  0  0  0  0  0  0
    6.1790    0.5730   19.9990 C   0  0  0  0  0  0  0  0  0  0  0  0
   11.3794    1.3761   23.7290 C   0  0  0  0  0  0  0  0  0  0  0  0
    7.3170   -0.1610   19.8550 C   0  0  0  0  0  0  0  0  0  0  0  0
    5.8300    0.9190   18.6970 C   0  0  0  0  0  0  0  0  0  0  0  0
    9.3070   -3.5340   24.8780 C   0  0  0  0  0  0  0  0  0  0  0  0
    9.3350   -1.0880   23.5010 C   0  0  0  0  0  0  0  0  0  0  0  0
    9.0420    0.3700   21.5280 C   0  0  0  0  0  0  0  0  0  0  0  0
    7.3635   -6.1361   27.1888 C   0  0  0  0  0  0  0  0  0  0  0  0
    8.1961   -4.9735   27.7341 C   0  0  0  0  0  0  0  0  0  0  0  0
    7.1942   -6.0394   25.6709 C   0  0  0  0  0  0  0  0  0  0  0  0
    9.5196   -4.8490   26.9797 C   0  0  0  0  0  0  0  0  0  0  0  0
    8.5442   -5.8838   24.9639 C   0  0  0  0  0  0  0  0  0  0  0  0
   14.8305    1.5084   22.7418 C   0  0  0  0  0  0  0  0  0  0  0  0
    8.1890   -0.7180   20.8700 C   0  0  0  0  0  0  0  0  0  0  0  0
    9.8870    1.3260   23.5730 C   0  0  0  0  0  0  0  0  0  0  0  0
   13.4410    1.4289   24.7112 N   0  0  0  0  0  0  0  0  0  0  0  0
    6.7580    0.3810   17.8350 N   0  0  0  0  0  0  0  0  0  0  0  0
   13.5326    1.4543   23.3706 N   0  0  0  0  0  0  0  0  0  0  0  0
    9.2562   -4.7384   25.5422 N   0  0  0  0  0  0  0  0  0  0  0  0
    9.4560    0.1560   22.8130 N   0  0  0  0  0  0  0  0  0  0  0  0
    9.2690    1.4140   20.9380 O   0  0  0  0  0  0  0  0  0  0  0  0
    3.6455    2.0160   21.6826 H   0  0  0  0  0  0  0  0  0  0  0  0
    3.0144    2.6518   19.3914 H   0  0  0  0  0  0  0  0  0  0  0  0
    5.6994    0.6999   22.1043 H   0  0  0  0  0  0  0  0  0  0  0  0
    4.4044    1.9727   17.4490 H   0  0  0  0  0  0  0  0  0  0  0  0
    8.6905   -2.3533   26.5810 H   0  0  0  0  0  0  0  0  0  0  0  0
    9.9266   -4.3896   22.9917 H   0  0  0  0  0  0  0  0  0  0  0  0
    8.9233   -0.1992   25.4231 H   0  0  0  0  0  0  0  0  0  0  0  0
   10.0650   -2.2330   21.8256 H   0  0  0  0  0  0  0  0  0  0  0  0
   11.7624    1.3510   25.9426 H   0  0  0  0  0  0  0  0  0  0  0  0
    8.4839   -0.7930   18.0639 H   0  0  0  0  0  0  0  0  0  0  0  0
   12.2462    1.4390   21.6566 H   0  0  0  0  0  0  0  0  0  0  0  0
    7.8482   -7.0901   27.4469 H   0  0  0  0  0  0  0  0  0  0  0  0
    6.3760   -6.1438   27.6724 H   0  0  0  0  0  0  0  0  0  0  0  0
    7.6307   -4.0424   27.6403 H   0  0  0  0  0  0  0  0  0  0  0  0
    8.3915   -5.1310   28.7968 H   0  0  0  0  0  0  0  0  0  0  0  0
    6.6888   -6.9376   25.3010 H   0  0  0  0  0  0  0  0  0  0  0  0
    6.5515   -5.1859   25.4257 H   0  0  0  0  0  0  0  0  0  0  0  0
   10.0492   -3.9640   27.3414 H   0  0  0  0  0  0  0  0  0  0  0  0
   10.1431   -5.7254   27.1778 H   0  0  0  0  0  0  0  0  0  0  0  0
    9.1338   -6.7931   25.0868 H   0  0  0  0  0  0  0  0  0  0  0  0
    8.3656   -5.7264   23.8998 H   0  0  0  0  0  0  0  0  0  0  0  0
   15.0990    2.5601   22.6124 H   0  0  0  0  0  0  0  0  0  0  0  0
   15.5636    1.0018   23.3756 H   0  0  0  0  0  0  0  0  0  0  0  0
   14.7841    1.0025   21.7733 H   0  0  0  0  0  0  0  0  0  0  0  0
    7.5972   -1.2056   21.6500 H   0  0  0  0  0  0  0  0  0  0  0  0
    8.8612   -1.4622   20.4334 H   0  0  0  0  0  0  0  0  0  0  0  0
    9.3974    1.2912   24.5523 H   0  0  0  0  0  0  0  0  0  0  0  0
    9.5159    2.2168   23.0554 H   0  0  0  0  0  0  0  0  0  0  0  0
    6.7270    0.4925   16.8305 H   0  0  0  0  0  0  0  0  0  0  0  0
  1  2  1  0  0  0  0
  1  3  2  0  0  0  0
  2  4  2  0  0  0  0
  3 12  1  0  0  0  0
  4 15  1  0  0  0  0
  5  7  2  0  0  0  0
  5 16  1  0  0  0  0
  6  8  1  0  0  0  0
  6 16  2  0  0  0  0
  7 17  1  0  0  0  0
  8 17  2  0  0  0  0
  9 13  1  0  0  0  0
  9 27  2  0  0  0  0
 10 14  2  0  0  0  0
 10 28  1  0  0  0  0
 11 13  2  0  0  0  0
 11 29  1  0  0  0  0
 12 14  1  0  0  0  0
 12 15  2  0  0  0  0
 13 26  1  0  0  0  0
 14 25  1  0  0  0  0
 15 28  1  0  0  0  0
 16 30  1  0  0  0  0
 17 31  1  0  0  0  0
 18 25  1  0  0  0  0
 18 31  1  0  0  0  0
 18 32  2  0  0  0  0
 19 20  1  0  0  0  0
 19 21  1  0  0  0  0
 20 22  1  0  0  0  0
 21 23  1  0  0  0  0
 22 30  1  0  0  0  0
 23 30  1  0  0  0  0
 24 29  1  0  0  0  0
 26 31  1  0  0  0  0
 27 29  1  0  0  0  0
  1 33  1  0  0  0  0
  2 34  1  0  0  0  0
  3 35  1  0  0  0  0
  4 36  1  0  0  0  0
  5 37  1  0  0  0  0
  6 38  1  0  0  0  0
  7 39  1  0  0  0  0
  8 40  1  0  0  0  0
  9 41  1  0  0  0  0
 10 42  1  0  0  0  0
 11 43  1  0  0  0  0
 19 44  1  0  0  0  0
 19 45  1  0  0  0  0
 20 46  1  0  0  0  0
 20 47  1  0  0  0  0
 21 48  1  0  0  0  0
 21 49  1  0  0  0  0
 22 50  1  0  0  0  0
 22 51  1  0  0  0  0
 23 52  1  0  0  0  0
 23 53  1  0  0  0  0
 24 54  1  0  0  0  0
 24 55  1  0  0  0  0
 24 56  1  0  0  0  0
 25 57  1  0  0  0  0
 25 58  1  0  0  0  0
 26 59  1  0  0  0  0
 26 60  1  0  0  0  0
 28 61  1  0  0  0  0
M  END
> <clash_score>
0

> <docking_score>
-8.12163257598877

$$$$
BENZO_462_1
  -OEChem-08222011243D

 49 52  0     0  0  0  0  0  0999 V2000
    4.2750    1.7050   20.8490 C   0  0  0  0  0  0  0  0  0  0  0  0
    3.9160    2.0630   19.5520 C   0  0  0  0  0  0  0  0  0  0  0  0
    6.4089    2.0844   24.8766 C   0  0  0  0  0  0  0  0  0  0  0  0
    5.4210    0.9600   21.0930 C   0  0  0  0  0  0  0  0  0  0  0  0
    7.4847    1.4191   24.2887 C   0  0  0  0  0  0  0  0  0  0  0  0
    8.9960   -2.3380   25.5320 C   0  0  0  0  0  0  0  0  0  0  0  0
    9.6730   -3.4710   23.5300 C   0  0  0  0  0  0  0  0  0  0  0  0
    4.6890    1.6810   18.4640 C   0  0  0  0  0  0  0  0  0  0  0  0
    9.0720   -1.1280   24.8640 C   0  0  0  0  0  0  0  0  0  0  0  0
    9.7200   -2.2600   22.8630 C   0  0  0  0  0  0  0  0  0  0  0  0
    6.5777    3.3741   25.3805 C   0  0  0  0  0  0  0  0  0  0  0  0
    8.8980    3.3330   24.7088 C   0  0  0  0  0  0  0  0  0  0  0  0
    7.6390   -0.2680   18.5410 C   0  0  0  0  0  0  0  0  0  0  0  0
    6.1790    0.5730   19.9990 C   0  0  0  0  0  0  0  0  0  0  0  0
    9.3070   -3.5340   24.8780 C   0  0  0  0  0  0  0  0  0  0  0  0
    8.7292    2.0433   24.2048 C   0  0  0  0  0  0  0  0  0  0  0  0
    7.3170   -0.1610   19.8550 C   0  0  0  0  0  0  0  0  0  0  0  0
    5.8300    0.9190   18.6970 C   0  0  0  0  0  0  0  0  0  0  0  0
    9.3350   -1.0880   23.5010 C   0  0  0  0  0  0  0  0  0  0  0  0
    7.8222    3.9984   25.2966 C   0  0  0  0  0  0  0  0  0  0  0  0
    9.0420    0.3700   21.5280 C   0  0  0  0  0  0  0  0  0  0  0  0
    9.2505   -4.8264   25.5904 C   0  0  0  0  0  0  0  0  0  0  0  0
    8.1890   -0.7180   20.8700 C   0  0  0  0  0  0  0  0  0  0  0  0
    9.8870    1.3260   23.5730 C   0  0  0  0  0  0  0  0  0  0  0  0
    6.7580    0.3810   17.8350 N   0  0  0  0  0  0  0  0  0  0  0  0
    9.4560    0.1560   22.8130 N   0  0  0  0  0  0  0  0  0  0  0  0
    9.2690    1.4140   20.9380 O   0  0  0  0  0  0  0  0  0  0  0  0
    8.0301    5.5891   25.9196 Cl  0  0  0  0  0  0  0  0  0  0  0  0
    3.6455    2.0160   21.6826 H   0  0  0  0  0  0  0  0  0  0  0  0
    3.0144    2.6518   19.3914 H   0  0  0  0  0  0  0  0  0  0  0  0
    5.4400    1.5979   24.9418 H   0  0  0  0  0  0  0  0  0  0  0  0
    5.6994    0.6999   22.1043 H   0  0  0  0  0  0  0  0  0  0  0  0
    7.3441    0.4143   23.8988 H   0  0  0  0  0  0  0  0  0  0  0  0
    8.6919   -2.3557   26.5813 H   0  0  0  0  0  0  0  0  0  0  0  0
    9.9267   -4.3907   22.9939 H   0  0  0  0  0  0  0  0  0  0  0  0
    4.4044    1.9727   17.4490 H   0  0  0  0  0  0  0  0  0  0  0  0
    8.9217   -0.1995   25.4231 H   0  0  0  0  0  0  0  0  0  0  0  0
   10.0653   -2.2339   21.8256 H   0  0  0  0  0  0  0  0  0  0  0  0
    5.7304    3.8806   25.8363 H   0  0  0  0  0  0  0  0  0  0  0  0
    9.8703    3.8156   24.6405 H   0  0  0  0  0  0  0  0  0  0  0  0
    8.4839   -0.7930   18.0639 H   0  0  0  0  0  0  0  0  0  0  0  0
    8.2503   -5.2678   25.5020 H   0  0  0  0  0  0  0  0  0  0  0  0
    9.9817   -5.5374   25.1845 H   0  0  0  0  0  0  0  0  0  0  0  0
    9.4841   -4.7043   26.6562 H   0  0  0  0  0  0  0  0  0  0  0  0
    7.6077   -1.2085   21.6613 H   0  0  0  0  0  0  0  0  0  0  0  0
    8.8716   -1.4650   20.4448 H   0  0  0  0  0  0  0  0  0  0  0  0
   10.4274    1.9911   22.8906 H   0  0  0  0  0  0  0  0  0  0  0  0
   10.6011    0.9882   24.3313 H   0  0  0  0  0  0  0  0  0  0  0  0
    6.7270    0.4925   16.8305 H   0  0  0  0  0  0  0  0  0  0  0  0
  1  2  1  0  0  0  0
  1  4  2  0  0  0  0
  2  8  2  0  0  0  0
  3  5  2  0  0  0  0
  3 11  1  0  0  0  0
  4 14  1  0  0  0  0
  5 16  1  0  0  0  0
  6  9  2  0  0  0  0
  6 15  1  0  0  0  0
  7 10  1  0  0  0  0
  7 15  2  0  0  0  0
  8 18  1  0  0  0  0
  9 19  1  0  0  0  0
 10 19  2  0  0  0  0
 11 20  2  0  0  0  0
 12 16  2  0  0  0  0
 12 20  1  0  0  0  0
 13 17  2  0  0  0  0
 13 25  1  0  0  0  0
 14 17  1  0  0  0  0
 14 18  2  0  0  0  0
 15 22  1  0  0  0  0
 16 24  1  0  0  0  0
 17 23  1  0  0  0  0
 18 25  1  0  0  0  0
 19 26  1  0  0  0  0
 20 28  1  0  0  0  0
 21 23  1  0  0  0  0
 21 26  1  0  0  0  0
 21 27  2  0  0  0  0
 24 26  1  0  0  0  0
  1 29  1  0  0  0  0
  2 30  1  0  0  0  0
  3 31  1  0  0  0  0
  4 32  1  0  0  0  0
  5 33  1  0  0  0  0
  6 34  1  0  0  0  0
  7 35  1  0  0  0  0
  8 36  1  0  0  0  0
  9 37  1  0  0  0  0
 10 38  1  0  0  0  0
 11 39  1  0  0  0  0
 12 40  1  0  0  0  0
 13 41  1  0  0  0  0
 22 42  1  0  0  0  0
 22 43  1  0  0  0  0
 22 44  1  0  0  0  0
 23 45  1  0  0  0  0
 23 46  1  0  0  0  0
 24 47  1  0  0  0  0
 24 48  1  0  0  0  0
 25 49  1  0  0  0  0
M  END
> <clash_score>
0

> <docking_score>
-8.036550521850586

$$$$
BENZO_463_1
  -OEChem-08222011243D

 49 52  0     0  0  0  0  0  0999 V2000
    4.2750    1.7050   20.8490 C   0  0  0  0  0  0  0  0  0  0  0  0
    3.9160    2.0630   19.5520 C   0  0  0  0  0  0  0  0  0  0  0  0
    5.4210    0.9600   21.0930 C   0  0  0  0  0  0  0  0  0  0  0  0
    8.9960   -2.3380   25.5320 C   0  0  0  0  0  0  0  0  0  0  0  0
    9.6730   -3.4710   23.5300 C   0  0  0  0  0  0  0  0  0  0  0  0
    4.6890    1.6810   18.4640 C   0  0  0  0  0  0  0  0  0  0  0  0
    9.0720   -1.1280   24.8640 C   0  0  0  0  0  0  0  0  0  0  0  0
    9.7200   -2.2600   22.8630 C   0  0  0  0  0  0  0  0  0  0  0  0
   12.1233    1.3811   24.9242 C   0  0  0  0  0  0  0  0  0  0  0  0
    7.6390   -0.2680   18.5410 C   0  0  0  0  0  0  0  0  0  0  0  0
   12.3261    1.4247   22.7351 C   0  0  0  0  0  0  0  0  0  0  0  0
    6.1790    0.5730   19.9990 C   0  0  0  0  0  0  0  0  0  0  0  0
    9.3070   -3.5340   24.8780 C   0  0  0  0  0  0  0  0  0  0  0  0
   11.3794    1.3761   23.7290 C   0  0  0  0  0  0  0  0  0  0  0  0
    7.3170   -0.1610   19.8550 C   0  0  0  0  0  0  0  0  0  0  0  0
    5.8300    0.9190   18.6970 C   0  0  0  0  0  0  0  0  0  0  0  0
    9.3350   -1.0880   23.5010 C   0  0  0  0  0  0  0  0  0  0  0  0
    9.0420    0.3700   21.5280 C   0  0  0  0  0  0  0  0  0  0  0  0
    9.2505   -4.8264   25.5904 C   0  0  0  0  0  0  0  0  0  0  0  0
   14.8305    1.5084   22.7418 C   0  0  0  0  0  0  0  0  0  0  0  0
    8.1890   -0.7180   20.8700 C   0  0  0  0  0  0  0  0  0  0  0  0
    9.8870    1.3260   23.5730 C   0  0  0  0  0  0  0  0  0  0  0  0
   13.4410    1.4289   24.7112 N   0  0  0  0  0  0  0  0  0  0  0  0
    6.7580    0.3810   17.8350 N   0  0  0  0  0  0  0  0  0  0  0  0
   13.5326    1.4543   23.3706 N   0  0  0  0  0  0  0  0  0  0  0  0
    9.4560    0.1560   22.8130 N   0  0  0  0  0  0  0  0  0  0  0  0
    9.2690    1.4140   20.9380 O   0  0  0  0  0  0  0  0  0  0  0  0
    3.6455    2.0160   21.6826 H   0  0  0  0  0  0  0  0  0  0  0  0
    3.0144    2.6518   19.3914 H   0  0  0  0  0  0  0  0  0  0  0  0
    5.6994    0.6999   22.1043 H   0  0  0  0  0  0  0  0  0  0  0  0
    8.6919   -2.3557   26.5813 H   0  0  0  0  0  0  0  0  0  0  0  0
    9.9267   -4.3907   22.9939 H   0  0  0  0  0  0  0  0  0  0  0  0
    4.4044    1.9727   17.4490 H   0  0  0  0  0  0  0  0  0  0  0  0
    8.9217   -0.1995   25.4231 H   0  0  0  0  0  0  0  0  0  0  0  0
   10.0653   -2.2339   21.8256 H   0  0  0  0  0  0  0  0  0  0  0  0
   11.7624    1.3510   25.9426 H   0  0  0  0  0  0  0  0  0  0  0  0
    8.4839   -0.7930   18.0639 H   0  0  0  0  0  0  0  0  0  0  0  0
   12.2462    1.4390   21.6566 H   0  0  0  0  0  0  0  0  0  0  0  0
    8.2503   -5.2678   25.5020 H   0  0  0  0  0  0  0  0  0  0  0  0
    9.9817   -5.5374   25.1845 H   0  0  0  0  0  0  0  0  0  0  0  0
    9.4841   -4.7043   26.6562 H   0  0  0  0  0  0  0  0  0  0  0  0
   15.0990    2.5601   22.6124 H   0  0  0  0  0  0  0  0  0  0  0  0
   15.5636    1.0018   23.3756 H   0  0  0  0  0  0  0  0  0  0  0  0
   14.7841    1.0025   21.7733 H   0  0  0  0  0  0  0  0  0  0  0  0
    7.6077   -1.2085   21.6613 H   0  0  0  0  0  0  0  0  0  0  0  0
    8.8716   -1.4650   20.4448 H   0  0  0  0  0  0  0  0  0  0  0  0
    9.3974    1.2912   24.5523 H   0  0  0  0  0  0  0  0  0  0  0  0
    9.5159    2.2168   23.0553 H   0  0  0  0  0  0  0  0  0  0  0  0
    6.7270    0.4925   16.8305 H   0  0  0  0  0  0  0  0  0  0  0  0
  1  2  1  0  0  0  0
  1  3  2  0  0  0  0
  2  6  2  0  0  0  0
  3 12  1  0  0  0  0
  4  7  2  0  0  0  0
  4 13  1  0  0  0  0
  5  8  1  0  0  0  0
  5 13  2  0  0  0  0
  6 16  1  0  0  0  0
  7 17  1  0  0  0  0
  8 17  2  0  0  0  0
  9 14  1  0  0  0  0
  9 23  2  0  0  0  0
 10 15  2  0  0  0  0
 10 24  1  0  0  0  0
 11 14  2  0  0  0  0
 11 25  1  0  0  0  0
 12 15  1  0  0  0  0
 12 16  2  0  0  0  0
 13 19  1  0  0  0  0
 14 22  1  0  0  0  0
 15 21  1  0  0  0  0
 16 24  1  0  0  0  0
 17 26  1  0  0  0  0
 18 21  1  0  0  0  0
 18 26  1  0  0  0  0
 18 27  2  0  0  0  0
 20 25  1  0  0  0  0
 22 26  1  0  0  0  0
 23 25  1  0  0  0  0
  1 28  1  0  0  0  0
  2 29  1  0  0  0  0
  3 30  1  0  0  0  0
  4 31  1  0  0  0  0
  5 32  1  0  0  0  0
  6 33  1  0  0  0  0
  7 34  1  0  0  0  0
  8 35  1  0  0  0  0
  9 36  1  0  0  0  0
 10 37  1  0  0  0  0
 11 38  1  0  0  0  0
 19 39  1  0  0  0  0
 19 40  1  0  0  0  0
 19 41  1  0  0  0  0
 20 42  1  0  0  0  0
 20 43  1  0  0  0  0
 20 44  1  0  0  0  0
 21 45  1  0  0  0  0
 21 46  1  0  0  0  0
 22 47  1  0  0  0  0
 22 48  1  0  0  0  0
 24 49  1  0  0  0  0
M  END
> <clash_score>
0

> <docking_score>
-8.366662979125977

$$$$
BENZO_464_1
  -OEChem-08222011283D

 47 50  0     0  0  0  0  0  0999 V2000
    4.2750    1.7050   20.8490 C   0  0  0  0  0  0  0  0  0  0  0  0
    3.9160    2.0630   19.5520 C   0  0  0  0  0  0  0  0  0  0  0  0
    5.4210    0.9600   21.0930 C   0  0  0  0  0  0  0  0  0  0  0  0
    4.6890    1.6810   18.4640 C   0  0  0  0  0  0  0  0  0  0  0  0
    9.0720   -1.1280   24.8640 C   0  0  0  0  0  0  0  0  0  0  0  0
    9.7200   -2.2600   22.8630 C   0  0  0  0  0  0  0  0  0  0  0  0
    8.9960   -2.3380   25.5320 C   0  0  0  0  0  0  0  0  0  0  0  0
    9.6730   -3.4710   23.5300 C   0  0  0  0  0  0  0  0  0  0  0  0
   12.2913    1.4279   22.6355 C   0  0  0  0  0  0  0  0  0  0  0  0
    7.6390   -0.2680   18.5410 C   0  0  0  0  0  0  0  0  0  0  0  0
   13.6024    1.4662   23.0564 C   0  0  0  0  0  0  0  0  0  0  0  0
   12.0284    1.3764   24.9443 C   0  0  0  0  0  0  0  0  0  0  0  0
    6.1790    0.5730   19.9990 C   0  0  0  0  0  0  0  0  0  0  0  0
   11.3794    1.3761   23.7290 C   0  0  0  0  0  0  0  0  0  0  0  0
    7.3170   -0.1610   19.8550 C   0  0  0  0  0  0  0  0  0  0  0  0
    5.8300    0.9190   18.6970 C   0  0  0  0  0  0  0  0  0  0  0  0
    9.3350   -1.0880   23.5010 C   0  0  0  0  0  0  0  0  0  0  0  0
    9.3070   -3.5340   24.8780 C   0  0  0  0  0  0  0  0  0  0  0  0
    9.0420    0.3700   21.5280 C   0  0  0  0  0  0  0  0  0  0  0  0
    8.8720   -4.6805   26.9013 C   0  0  0  0  0  0  0  0  0  0  0  0
    8.1890   -0.7180   20.8700 C   0  0  0  0  0  0  0  0  0  0  0  0
    9.8870    1.3260   23.5730 C   0  0  0  0  0  0  0  0  0  0  0  0
    6.7580    0.3810   17.8350 N   0  0  0  0  0  0  0  0  0  0  0  0
    9.4560    0.1560   22.8130 N   0  0  0  0  0  0  0  0  0  0  0  0
    9.2690    1.4140   20.9380 O   0  0  0  0  0  0  0  0  0  0  0  0
    9.2555   -4.7124   25.5274 O   0  0  0  0  0  0  0  0  0  0  0  0
   13.7301    1.4394   24.7638 S   0  0  0  0  0  0  0  0  0  0  0  0
    3.6455    2.0160   21.6826 H   0  0  0  0  0  0  0  0  0  0  0  0
    3.0144    2.6518   19.3914 H   0  0  0  0  0  0  0  0  0  0  0  0
    5.6994    0.6999   22.1043 H   0  0  0  0  0  0  0  0  0  0  0  0
    4.4044    1.9727   17.4490 H   0  0  0  0  0  0  0  0  0  0  0  0
    8.9221   -0.1995   25.4231 H   0  0  0  0  0  0  0  0  0  0  0  0
   10.0642   -2.2347   21.8253 H   0  0  0  0  0  0  0  0  0  0  0  0
    8.6902   -2.3588   26.5805 H   0  0  0  0  0  0  0  0  0  0  0  0
    9.9254   -4.3921   22.9961 H   0  0  0  0  0  0  0  0  0  0  0  0
   12.0045    1.4365   21.5915 H   0  0  0  0  0  0  0  0  0  0  0  0
    8.4839   -0.7930   18.0639 H   0  0  0  0  0  0  0  0  0  0  0  0
   14.4914    1.5078   22.4431 H   0  0  0  0  0  0  0  0  0  0  0  0
   11.5886    1.3416   25.9314 H   0  0  0  0  0  0  0  0  0  0  0  0
    8.8711   -5.6964   27.3038 H   0  0  0  0  0  0  0  0  0  0  0  0
    7.8758   -4.2402   26.9923 H   0  0  0  0  0  0  0  0  0  0  0  0
    9.5894   -4.0716   27.4566 H   0  0  0  0  0  0  0  0  0  0  0  0
    7.6077   -1.2085   21.6613 H   0  0  0  0  0  0  0  0  0  0  0  0
    8.8716   -1.4650   20.4448 H   0  0  0  0  0  0  0  0  0  0  0  0
    9.3974    1.2912   24.5523 H   0  0  0  0  0  0  0  0  0  0  0  0
    9.5159    2.2168   23.0553 H   0  0  0  0  0  0  0  0  0  0  0  0
    6.7270    0.4925   16.8305 H   0  0  0  0  0  0  0  0  0  0  0  0
  1  2  1  0  0  0  0
  1  3  2  0  0  0  0
  2  4  2  0  0  0  0
  3 13  1  0  0  0  0
  4 16  1  0  0  0  0
  5  7  2  0  0  0  0
  5 17  1  0  0  0  0
  6  8  1  0  0  0  0
  6 17  2  0  0  0  0
  7 18  1  0  0  0  0
  8 18  2  0  0  0  0
  9 11  2  0  0  0  0
  9 14  1  0  0  0  0
 10 15  2  0  0  0  0
 10 23  1  0  0  0  0
 11 27  1  0  0  0  0
 12 14  2  0  0  0  0
 12 27  1  0  0  0  0
 13 15  1  0  0  0  0
 13 16  2  0  0  0  0
 14 22  1  0  0  0  0
 15 21  1  0  0  0  0
 16 23  1  0  0  0  0
 17 24  1  0  0  0  0
 18 26  1  0  0  0  0
 19 21  1  0  0  0  0
 19 24  1  0  0  0  0
 19 25  2  0  0  0  0
 20 26  1  0  0  0  0
 22 24  1  0  0  0  0
  1 28  1  0  0  0  0
  2 29  1  0  0  0  0
  3 30  1  0  0  0  0
  4 31  1  0  0  0  0
  5 32  1  0  0  0  0
  6 33  1  0  0  0  0
  7 34  1  0  0  0  0
  8 35  1  0  0  0  0
  9 36  1  0  0  0  0
 10 37  1  0  0  0  0
 11 38  1  0  0  0  0
 12 39  1  0  0  0  0
 20 40  1  0  0  0  0
 20 41  1  0  0  0  0
 20 42  1  0  0  0  0
 21 43  1  0  0  0  0
 21 44  1  0  0  0  0
 22 45  1  0  0  0  0
 22 46  1  0  0  0  0
 23 47  1  0  0  0  0
M  END
> <clash_score>
0

> <docking_score>
-8.465688705444336

$$$$
BENZO_465_1
  -OEChem-08222011283D

 50 53  0     0  0  0  0  0  0999 V2000
   14.1526    1.4694   24.0176 C   0  0  0  0  0  0  0  0  0  0  0  0
    4.2750    1.7050   20.8490 C   0  0  0  0  0  0  0  0  0  0  0  0
   13.3741    0.8121   24.9701 C   0  0  0  0  0  0  0  0  0  0  0  0
   13.5446    2.0802   22.9208 C   0  0  0  0  0  0  0  0  0  0  0  0
    3.9160    2.0630   19.5520 C   0  0  0  0  0  0  0  0  0  0  0  0
    5.4210    0.9600   21.0930 C   0  0  0  0  0  0  0  0  0  0  0  0
   11.9875    0.7654   24.8259 C   0  0  0  0  0  0  0  0  0  0  0  0
   12.1580    2.0335   22.7765 C   0  0  0  0  0  0  0  0  0  0  0  0
    4.6890    1.6810   18.4640 C   0  0  0  0  0  0  0  0  0  0  0  0
    9.0720   -1.1280   24.8640 C   0  0  0  0  0  0  0  0  0  0  0  0
    9.7200   -2.2600   22.8630 C   0  0  0  0  0  0  0  0  0  0  0  0
    8.9960   -2.3380   25.5320 C   0  0  0  0  0  0  0  0  0  0  0  0
    9.6730   -3.4710   23.5300 C   0  0  0  0  0  0  0  0  0  0  0  0
    7.6390   -0.2680   18.5410 C   0  0  0  0  0  0  0  0  0  0  0  0
    6.1790    0.5730   19.9990 C   0  0  0  0  0  0  0  0  0  0  0  0
   11.3794    1.3761   23.7290 C   0  0  0  0  0  0  0  0  0  0  0  0
    7.3170   -0.1610   19.8550 C   0  0  0  0  0  0  0  0  0  0  0  0
    5.8300    0.9190   18.6970 C   0  0  0  0  0  0  0  0  0  0  0  0
    9.3350   -1.0880   23.5010 C   0  0  0  0  0  0  0  0  0  0  0  0
    9.3070   -3.5340   24.8780 C   0  0  0  0  0  0  0  0  0  0  0  0
    9.0420    0.3700   21.5280 C   0  0  0  0  0  0  0  0  0  0  0  0
    8.8720   -4.6805   26.9013 C   0  0  0  0  0  0  0  0  0  0  0  0
    8.1890   -0.7180   20.8700 C   0  0  0  0  0  0  0  0  0  0  0  0
    9.8870    1.3260   23.5730 C   0  0  0  0  0  0  0  0  0  0  0  0
    6.7580    0.3810   17.8350 N   0  0  0  0  0  0  0  0  0  0  0  0
    9.4560    0.1560   22.8130 N   0  0  0  0  0  0  0  0  0  0  0  0
    9.2690    1.4140   20.9380 O   0  0  0  0  0  0  0  0  0  0  0  0
    9.2555   -4.7124   25.5274 O   0  0  0  0  0  0  0  0  0  0  0  0
   15.2322    1.5068   24.1308 H   0  0  0  0  0  0  0  0  0  0  0  0
    3.6455    2.0160   21.6826 H   0  0  0  0  0  0  0  0  0  0  0  0
   13.8473    0.3374   25.8248 H   0  0  0  0  0  0  0  0  0  0  0  0
   14.1503    2.5930   22.1795 H   0  0  0  0  0  0  0  0  0  0  0  0
    3.0144    2.6518   19.3914 H   0  0  0  0  0  0  0  0  0  0  0  0
    5.6994    0.6999   22.1043 H   0  0  0  0  0  0  0  0  0  0  0  0
   11.3889    0.2508   25.5729 H   0  0  0  0  0  0  0  0  0  0  0  0
   11.6930    2.5120   21.9187 H   0  0  0  0  0  0  0  0  0  0  0  0
    4.4044    1.9727   17.4490 H   0  0  0  0  0  0  0  0  0  0  0  0
    8.9221   -0.1995   25.4231 H   0  0  0  0  0  0  0  0  0  0  0  0
   10.0642   -2.2347   21.8253 H   0  0  0  0  0  0  0  0  0  0  0  0
    8.6902   -2.3588   26.5805 H   0  0  0  0  0  0  0  0  0  0  0  0
    9.9254   -4.3921   22.9961 H   0  0  0  0  0  0  0  0  0  0  0  0
    8.4839   -0.7930   18.0639 H   0  0  0  0  0  0  0  0  0  0  0  0
    8.8711   -5.6964   27.3038 H   0  0  0  0  0  0  0  0  0  0  0  0
    7.8758   -4.2402   26.9923 H   0  0  0  0  0  0  0  0  0  0  0  0
    9.5894   -4.0716   27.4566 H   0  0  0  0  0  0  0  0  0  0  0  0
    7.6077   -1.2085   21.6613 H   0  0  0  0  0  0  0  0  0  0  0  0
    8.8716   -1.4650   20.4448 H   0  0  0  0  0  0  0  0  0  0  0  0
    9.3974    1.2912   24.5523 H   0  0  0  0  0  0  0  0  0  0  0  0
    9.5159    2.2168   23.0553 H   0  0  0  0  0  0  0  0  0  0  0  0
    6.7270    0.4925   16.8305 H   0  0  0  0  0  0  0  0  0  0  0  0
  1  3  1  0  0  0  0
  1  4  2  0  0  0  0
  2  5  1  0  0  0  0
  2  6  2  0  0  0  0
  3  7  2  0  0  0  0
  4  8  1  0  0  0  0
  5  9  2  0  0  0  0
  6 15  1  0  0  0  0
  7 16  1  0  0  0  0
  8 16  2  0  0  0  0
  9 18  1  0  0  0  0
 10 12  2  0  0  0  0
 10 19  1  0  0  0  0
 11 13  1  0  0  0  0
 11 19  2  0  0  0  0
 12 20  1  0  0  0  0
 13 20  2  0  0  0  0
 14 17  2  0  0  0  0
 14 25  1  0  0  0  0
 15 17  1  0  0  0  0
 15 18  2  0  0  0  0
 16 24  1  0  0  0  0
 17 23  1  0  0  0  0
 18 25  1  0  0  0  0
 19 26  1  0  0  0  0
 20 28  1  0  0  0  0
 21 23  1  0  0  0  0
 21 26  1  0  0  0  0
 21 27  2  0  0  0  0
 22 28  1  0  0  0  0
 24 26  1  0  0  0  0
  1 29  1  0  0  0  0
  2 30  1  0  0  0  0
  3 31  1  0  0  0  0
  4 32  1  0  0  0  0
  5 33  1  0  0  0  0
  6 34  1  0  0  0  0
  7 35  1  0  0  0  0
  8 36  1  0  0  0  0
  9 37  1  0  0  0  0
 10 38  1  0  0  0  0
 11 39  1  0  0  0  0
 12 40  1  0  0  0  0
 13 41  1  0  0  0  0
 14 42  1  0  0  0  0
 22 43  1  0  0  0  0
 22 44  1  0  0  0  0
 22 45  1  0  0  0  0
 23 46  1  0  0  0  0
 23 47  1  0  0  0  0
 24 48  1  0  0  0  0
 24 49  1  0  0  0  0
 25 50  1  0  0  0  0
M  END
> <clash_score>
0

> <docking_score>
-8.386825561523438

$$$$
BENZO_466_1
  -OEChem-08222011283D

 50 53  0     0  0  0  0  0  0999 V2000
    4.2750    1.7050   20.8490 C   0  0  0  0  0  0  0  0  0  0  0  0
    3.9160    2.0630   19.5520 C   0  0  0  0  0  0  0  0  0  0  0  0
    6.4089    2.0844   24.8766 C   0  0  0  0  0  0  0  0  0  0  0  0
    5.4210    0.9600   21.0930 C   0  0  0  0  0  0  0  0  0  0  0  0
    7.4847    1.4191   24.2887 C   0  0  0  0  0  0  0  0  0  0  0  0
    4.6890    1.6810   18.4640 C   0  0  0  0  0  0  0  0  0  0  0  0
    9.0720   -1.1280   24.8640 C   0  0  0  0  0  0  0  0  0  0  0  0
    9.7200   -2.2600   22.8630 C   0  0  0  0  0  0  0  0  0  0  0  0
    8.9960   -2.3380   25.5320 C   0  0  0  0  0  0  0  0  0  0  0  0
    9.6730   -3.4710   23.5300 C   0  0  0  0  0  0  0  0  0  0  0  0
    6.5777    3.3741   25.3805 C   0  0  0  0  0  0  0  0  0  0  0  0
    8.8980    3.3330   24.7088 C   0  0  0  0  0  0  0  0  0  0  0  0
    7.6390   -0.2680   18.5410 C   0  0  0  0  0  0  0  0  0  0  0  0
    6.1790    0.5730   19.9990 C   0  0  0  0  0  0  0  0  0  0  0  0
    8.7292    2.0433   24.2048 C   0  0  0  0  0  0  0  0  0  0  0  0
    7.3170   -0.1610   19.8550 C   0  0  0  0  0  0  0  0  0  0  0  0
    5.8300    0.9190   18.6970 C   0  0  0  0  0  0  0  0  0  0  0  0
    9.3350   -1.0880   23.5010 C   0  0  0  0  0  0  0  0  0  0  0  0
    9.3070   -3.5340   24.8780 C   0  0  0  0  0  0  0  0  0  0  0  0
    7.8222    3.9984   25.2966 C   0  0  0  0  0  0  0  0  0  0  0  0
    9.0420    0.3700   21.5280 C   0  0  0  0  0  0  0  0  0  0  0  0
    8.8720   -4.6805   26.9013 C   0  0  0  0  0  0  0  0  0  0  0  0
    8.1890   -0.7180   20.8700 C   0  0  0  0  0  0  0  0  0  0  0  0
    9.8870    1.3260   23.5730 C   0  0  0  0  0  0  0  0  0  0  0  0
    6.7580    0.3810   17.8350 N   0  0  0  0  0  0  0  0  0  0  0  0
    9.4560    0.1560   22.8130 N   0  0  0  0  0  0  0  0  0  0  0  0
    9.2690    1.4140   20.9380 O   0  0  0  0  0  0  0  0  0  0  0  0
    9.2555   -4.7124   25.5274 O   0  0  0  0  0  0  0  0  0  0  0  0
    8.0301    5.5891   25.9196 Cl  0  0  0  0  0  0  0  0  0  0  0  0
    3.6455    2.0160   21.6826 H   0  0  0  0  0  0  0  0  0  0  0  0
    3.0144    2.6518   19.3914 H   0  0  0  0  0  0  0  0  0  0  0  0
    5.4400    1.5979   24.9418 H   0  0  0  0  0  0  0  0  0  0  0  0
    5.6994    0.6999   22.1043 H   0  0  0  0  0  0  0  0  0  0  0  0
    7.3441    0.4143   23.8988 H   0  0  0  0  0  0  0  0  0  0  0  0
    4.4044    1.9727   17.4490 H   0  0  0  0  0  0  0  0  0  0  0  0
    8.9221   -0.1995   25.4231 H   0  0  0  0  0  0  0  0  0  0  0  0
   10.0642   -2.2347   21.8253 H   0  0  0  0  0  0  0  0  0  0  0  0
    8.6902   -2.3588   26.5805 H   0  0  0  0  0  0  0  0  0  0  0  0
    9.9254   -4.3921   22.9961 H   0  0  0  0  0  0  0  0  0  0  0  0
    5.7304    3.8806   25.8363 H   0  0  0  0  0  0  0  0  0  0  0  0
    9.8703    3.8156   24.6405 H   0  0  0  0  0  0  0  0  0  0  0  0
    8.4839   -0.7930   18.0639 H   0  0  0  0  0  0  0  0  0  0  0  0
    8.8711   -5.6964   27.3038 H   0  0  0  0  0  0  0  0  0  0  0  0
    7.8758   -4.2402   26.9923 H   0  0  0  0  0  0  0  0  0  0  0  0
    9.5894   -4.0716   27.4566 H   0  0  0  0  0  0  0  0  0  0  0  0
    7.6077   -1.2085   21.6613 H   0  0  0  0  0  0  0  0  0  0  0  0
    8.8716   -1.4650   20.4448 H   0  0  0  0  0  0  0  0  0  0  0  0
   10.4274    1.9911   22.8906 H   0  0  0  0  0  0  0  0  0  0  0  0
   10.6011    0.9882   24.3313 H   0  0  0  0  0  0  0  0  0  0  0  0
    6.7270    0.4925   16.8305 H   0  0  0  0  0  0  0  0  0  0  0  0
  1  2  1  0  0  0  0
  1  4  2  0  0  0  0
  2  6  2  0  0  0  0
  3  5  2  0  0  0  0
  3 11  1  0  0  0  0
  4 14  1  0  0  0  0
  5 15  1  0  0  0  0
  6 17  1  0  0  0  0
  7  9  2  0  0  0  0
  7 18  1  0  0  0  0
  8 10  1  0  0  0  0
  8 18  2  0  0  0  0
  9 19  1  0  0  0  0
 10 19  2  0  0  0  0
 11 20  2  0  0  0  0
 12 15  2  0  0  0  0
 12 20  1  0  0  0  0
 13 16  2  0  0  0  0
 13 25  1  0  0  0  0
 14 16  1  0  0  0  0
 14 17  2  0  0  0  0
 15 24  1  0  0  0  0
 16 23  1  0  0  0  0
 17 25  1  0  0  0  0
 18 26  1  0  0  0  0
 19 28  1  0  0  0  0
 20 29  1  0  0  0  0
 21 23  1  0  0  0  0
 21 26  1  0  0  0  0
 21 27  2  0  0  0  0
 22 28  1  0  0  0  0
 24 26  1  0  0  0  0
  1 30  1  0  0  0  0
  2 31  1  0  0  0  0
  3 32  1  0  0  0  0
  4 33  1  0  0  0  0
  5 34  1  0  0  0  0
  6 35  1  0  0  0  0
  7 36  1  0  0  0  0
  8 37  1  0  0  0  0
  9 38  1  0  0  0  0
 10 39  1  0  0  0  0
 11 40  1  0  0  0  0
 12 41  1  0  0  0  0
 13 42  1  0  0  0  0
 22 43  1  0  0  0  0
 22 44  1  0  0  0  0
 22 45  1  0  0  0  0
 23 46  1  0  0  0  0
 23 47  1  0  0  0  0
 24 48  1  0  0  0  0
 24 49  1  0  0  0  0
 25 50  1  0  0  0  0
M  END
> <clash_score>
0

> <docking_score>
-7.772854804992676

$$$$
BENZO_469_1
  -OEChem-08222011283D

 60 64  0     0  0  0  0  0  0999 V2000
   14.1526    1.4694   24.0176 C   0  0  0  0  0  0  0  0  0  0  0  0
    4.2750    1.7050   20.8490 C   0  0  0  0  0  0  0  0  0  0  0  0
   13.3741    0.8121   24.9701 C   0  0  0  0  0  0  0  0  0  0  0  0
   13.5446    2.0802   22.9208 C   0  0  0  0  0  0  0  0  0  0  0  0
    3.9160    2.0630   19.5520 C   0  0  0  0  0  0  0  0  0  0  0  0
    5.4210    0.9600   21.0930 C   0  0  0  0  0  0  0  0  0  0  0  0
   11.9875    0.7654   24.8258 C   0  0  0  0  0  0  0  0  0  0  0  0
   12.1580    2.0335   22.7765 C   0  0  0  0  0  0  0  0  0  0  0  0
    4.6890    1.6810   18.4640 C   0  0  0  0  0  0  0  0  0  0  0  0
    8.9960   -2.3380   25.5320 C   0  0  0  0  0  0  0  0  0  0  0  0
    9.6730   -3.4710   23.5300 C   0  0  0  0  0  0  0  0  0  0  0  0
    9.0720   -1.1280   24.8640 C   0  0  0  0  0  0  0  0  0  0  0  0
    9.7200   -2.2600   22.8630 C   0  0  0  0  0  0  0  0  0  0  0  0
    7.6390   -0.2680   18.5410 C   0  0  0  0  0  0  0  0  0  0  0  0
    6.1790    0.5730   19.9990 C   0  0  0  0  0  0  0  0  0  0  0  0
   11.3794    1.3761   23.7290 C   0  0  0  0  0  0  0  0  0  0  0  0
    7.3170   -0.1610   19.8550 C   0  0  0  0  0  0  0  0  0  0  0  0
    5.8300    0.9190   18.6970 C   0  0  0  0  0  0  0  0  0  0  0  0
    9.3070   -3.5340   24.8780 C   0  0  0  0  0  0  0  0  0  0  0  0
    9.3350   -1.0880   23.5010 C   0  0  0  0  0  0  0  0  0  0  0  0
    8.3597   -5.0072   26.6307 C   0  0  0  0  0  0  0  0  0  0  0  0
    9.0420    0.3700   21.5280 C   0  0  0  0  0  0  0  0  0  0  0  0
    8.4719   -6.3980   27.2297 C   0  0  0  0  0  0  0  0  0  0  0  0
    9.9251   -6.7605   27.4804 C   0  0  0  0  0  0  0  0  0  0  0  0
   10.7833   -6.6094   26.2282 C   0  0  0  0  0  0  0  0  0  0  0  0
   10.0539   -5.9100   25.0823 C   0  0  0  0  0  0  0  0  0  0  0  0
    8.1890   -0.7180   20.8700 C   0  0  0  0  0  0  0  0  0  0  0  0
    9.8870    1.3260   23.5730 C   0  0  0  0  0  0  0  0  0  0  0  0
    6.7580    0.3810   17.8350 N   0  0  0  0  0  0  0  0  0  0  0  0
    9.2530   -4.7797   25.5644 N   0  0  0  0  0  0  0  0  0  0  0  0
    9.4560    0.1560   22.8130 N   0  0  0  0  0  0  0  0  0  0  0  0
    7.4954   -4.2355   27.0449 O   0  0  0  0  0  0  0  0  0  0  0  0
    9.2690    1.4140   20.9380 O   0  0  0  0  0  0  0  0  0  0  0  0
   15.2322    1.5068   24.1308 H   0  0  0  0  0  0  0  0  0  0  0  0
    3.6455    2.0160   21.6826 H   0  0  0  0  0  0  0  0  0  0  0  0
   13.8473    0.3374   25.8248 H   0  0  0  0  0  0  0  0  0  0  0  0
   14.1503    2.5930   22.1795 H   0  0  0  0  0  0  0  0  0  0  0  0
    3.0144    2.6518   19.3914 H   0  0  0  0  0  0  0  0  0  0  0  0
    5.6994    0.6999   22.1043 H   0  0  0  0  0  0  0  0  0  0  0  0
   11.3889    0.2508   25.5729 H   0  0  0  0  0  0  0  0  0  0  0  0
   11.6930    2.5120   21.9187 H   0  0  0  0  0  0  0  0  0  0  0  0
    4.4044    1.9727   17.4490 H   0  0  0  0  0  0  0  0  0  0  0  0
    8.6895   -2.3529   26.5807 H   0  0  0  0  0  0  0  0  0  0  0  0
    9.9262   -4.3897   22.9916 H   0  0  0  0  0  0  0  0  0  0  0  0
    8.9224   -0.1998   25.4238 H   0  0  0  0  0  0  0  0  0  0  0  0
   10.0649   -2.2343   21.8258 H   0  0  0  0  0  0  0  0  0  0  0  0
    8.4839   -0.7930   18.0639 H   0  0  0  0  0  0  0  0  0  0  0  0
    7.9324   -6.4147   28.1641 H   0  0  0  0  0  0  0  0  0  0  0  0
    8.0253   -7.0920   26.5333 H   0  0  0  0  0  0  0  0  0  0  0  0
   10.3386   -6.1266   28.2923 H   0  0  0  0  0  0  0  0  0  0  0  0
    9.9903   -7.8023   27.8538 H   0  0  0  0  0  0  0  0  0  0  0  0
   11.7036   -6.0405   26.4772 H   0  0  0  0  0  0  0  0  0  0  0  0
   11.1410   -7.6068   25.8920 H   0  0  0  0  0  0  0  0  0  0  0  0
   10.7782   -5.5173   24.3764 H   0  0  0  0  0  0  0  0  0  0  0  0
    9.4030   -6.6182   24.5832 H   0  0  0  0  0  0  0  0  0  0  0  0
    7.6077   -1.2085   21.6613 H   0  0  0  0  0  0  0  0  0  0  0  0
    8.8716   -1.4650   20.4448 H   0  0  0  0  0  0  0  0  0  0  0  0
    9.3974    1.2912   24.5523 H   0  0  0  0  0  0  0  0  0  0  0  0
    9.5159    2.2168   23.0553 H   0  0  0  0  0  0  0  0  0  0  0  0
    6.7270    0.4925   16.8305 H   0  0  0  0  0  0  0  0  0  0  0  0
  1  3  1  0  0  0  0
  1  4  2  0  0  0  0
  2  5  1  0  0  0  0
  2  6  2  0  0  0  0
  3  7  2  0  0  0  0
  4  8  1  0  0  0  0
  5  9  2  0  0  0  0
  6 15  1  0  0  0  0
  7 16  1  0  0  0  0
  8 16  2  0  0  0  0
  9 18  1  0  0  0  0
 10 12  2  0  0  0  0
 10 19  1  0  0  0  0
 11 13  1  0  0  0  0
 11 19  2  0  0  0  0
 12 20  1  0  0  0  0
 13 20  2  0  0  0  0
 14 17  2  0  0  0  0
 14 29  1  0  0  0  0
 15 17  1  0  0  0  0
 15 18  2  0  0  0  0
 16 28  1  0  0  0  0
 17 27  1  0  0  0  0
 18 29  1  0  0  0  0
 19 30  1  0  0  0  0
 20 31  1  0  0  0  0
 21 23  1  0  0  0  0
 21 30  1  0  0  0  0
 21 32  2  0  0  0  0
 22 27  1  0  0  0  0
 22 31  1  0  0  0  0
 22 33  2  0  0  0  0
 23 24  1  0  0  0  0
 24 25  1  0  0  0  0
 25 26  1  0  0  0  0
 26 30  1  0  0  0  0
 28 31  1  0  0  0  0
  1 34  1  0  0  0  0
  2 35  1  0  0  0  0
  3 36  1  0  0  0  0
  4 37  1  0  0  0  0
  5 38  1  0  0  0  0
  6 39  1  0  0  0  0
  7 40  1  0  0  0  0
  8 41  1  0  0  0  0
  9 42  1  0  0  0  0
 10 43  1  0  0  0  0
 11 44  1  0  0  0  0
 12 45  1  0  0  0  0
 13 46  1  0  0  0  0
 14 47  1  0  0  0  0
 23 48  1  0  0  0  0
 23 49  1  0  0  0  0
 24 50  1  0  0  0  0
 24 51  1  0  0  0  0
 25 52  1  0  0  0  0
 25 53  1  0  0  0  0
 26 54  1  0  0  0  0
 26 55  1  0  0  0  0
 27 56  1  0  0  0  0
 27 57  1  0  0  0  0
 28 58  1  0  0  0  0
 28 59  1  0  0  0  0
 29 60  1  0  0  0  0
M  END
> <clash_score>
0.7790617508365236

> <docking_score>
-7.746552467346191

$$$$
BENZO_468_1
  -OEChem-08222011283D

 57 61  0     0  0  0  0  0  0999 V2000
    4.2750    1.7050   20.8490 C   0  0  0  0  0  0  0  0  0  0  0  0
    3.9160    2.0630   19.5520 C   0  0  0  0  0  0  0  0  0  0  0  0
    5.4210    0.9600   21.0930 C   0  0  0  0  0  0  0  0  0  0  0  0
    4.6890    1.6810   18.4640 C   0  0  0  0  0  0  0  0  0  0  0  0
    8.9960   -2.3380   25.5320 C   0  0  0  0  0  0  0  0  0  0  0  0
    9.6730   -3.4710   23.5300 C   0  0  0  0  0  0  0  0  0  0  0  0
    9.0720   -1.1280   24.8640 C   0  0  0  0  0  0  0  0  0  0  0  0
    9.7200   -2.2600   22.8630 C   0  0  0  0  0  0  0  0  0  0  0  0
   12.2913    1.4279   22.6355 C   0  0  0  0  0  0  0  0  0  0  0  0
    7.6390   -0.2680   18.5410 C   0  0  0  0  0  0  0  0  0  0  0  0
   13.6024    1.4661   23.0564 C   0  0  0  0  0  0  0  0  0  0  0  0
   12.0284    1.3764   24.9443 C   0  0  0  0  0  0  0  0  0  0  0  0
    6.1790    0.5730   19.9990 C   0  0  0  0  0  0  0  0  0  0  0  0
   11.3794    1.3761   23.7290 C   0  0  0  0  0  0  0  0  0  0  0  0
    7.3170   -0.1610   19.8550 C   0  0  0  0  0  0  0  0  0  0  0  0
    5.8300    0.9190   18.6970 C   0  0  0  0  0  0  0  0  0  0  0  0
    9.3070   -3.5340   24.8780 C   0  0  0  0  0  0  0  0  0  0  0  0
    9.3350   -1.0880   23.5010 C   0  0  0  0  0  0  0  0  0  0  0  0
    8.3597   -5.0072   26.6307 C   0  0  0  0  0  0  0  0  0  0  0  0
    9.0420    0.3700   21.5280 C   0  0  0  0  0  0  0  0  0  0  0  0
    8.4719   -6.3980   27.2297 C   0  0  0  0  0  0  0  0  0  0  0  0
    9.9251   -6.7605   27.4804 C   0  0  0  0  0  0  0  0  0  0  0  0
   10.7833   -6.6094   26.2282 C   0  0  0  0  0  0  0  0  0  0  0  0
   10.0539   -5.9100   25.0823 C   0  0  0  0  0  0  0  0  0  0  0  0
    8.1890   -0.7180   20.8700 C   0  0  0  0  0  0  0  0  0  0  0  0
    9.8870    1.3260   23.5730 C   0  0  0  0  0  0  0  0  0  0  0  0
    6.7580    0.3810   17.8350 N   0  0  0  0  0  0  0  0  0  0  0  0
    9.2530   -4.7797   25.5644 N   0  0  0  0  0  0  0  0  0  0  0  0
    9.4560    0.1560   22.8130 N   0  0  0  0  0  0  0  0  0  0  0  0
    7.4954   -4.2355   27.0449 O   0  0  0  0  0  0  0  0  0  0  0  0
    9.2690    1.4140   20.9380 O   0  0  0  0  0  0  0  0  0  0  0  0
   13.7301    1.4394   24.7638 S   0  0  0  0  0  0  0  0  0  0  0  0
    3.6455    2.0160   21.6826 H   0  0  0  0  0  0  0  0  0  0  0  0
    3.0144    2.6518   19.3914 H   0  0  0  0  0  0  0  0  0  0  0  0
    5.6994    0.6999   22.1043 H   0  0  0  0  0  0  0  0  0  0  0  0
    4.4044    1.9727   17.4490 H   0  0  0  0  0  0  0  0  0  0  0  0
    8.6895   -2.3529   26.5807 H   0  0  0  0  0  0  0  0  0  0  0  0
    9.9262   -4.3897   22.9916 H   0  0  0  0  0  0  0  0  0  0  0  0
    8.9224   -0.1998   25.4238 H   0  0  0  0  0  0  0  0  0  0  0  0
   10.0649   -2.2343   21.8258 H   0  0  0  0  0  0  0  0  0  0  0  0
   12.0045    1.4365   21.5915 H   0  0  0  0  0  0  0  0  0  0  0  0
    8.4839   -0.7930   18.0639 H   0  0  0  0  0  0  0  0  0  0  0  0
   14.4914    1.5078   22.4431 H   0  0  0  0  0  0  0  0  0  0  0  0
   11.5886    1.3416   25.9314 H   0  0  0  0  0  0  0  0  0  0  0  0
    7.9324   -6.4147   28.1641 H   0  0  0  0  0  0  0  0  0  0  0  0
    8.0253   -7.0920   26.5333 H   0  0  0  0  0  0  0  0  0  0  0  0
   10.3386   -6.1266   28.2923 H   0  0  0  0  0  0  0  0  0  0  0  0
    9.9903   -7.8023   27.8538 H   0  0  0  0  0  0  0  0  0  0  0  0
   11.7036   -6.0405   26.4772 H   0  0  0  0  0  0  0  0  0  0  0  0
   11.1410   -7.6068   25.8920 H   0  0  0  0  0  0  0  0  0  0  0  0
   10.7782   -5.5173   24.3764 H   0  0  0  0  0  0  0  0  0  0  0  0
    9.4030   -6.6182   24.5832 H   0  0  0  0  0  0  0  0  0  0  0  0
    7.6077   -1.2085   21.6613 H   0  0  0  0  0  0  0  0  0  0  0  0
    8.8716   -1.4650   20.4448 H   0  0  0  0  0  0  0  0  0  0  0  0
    9.3974    1.2912   24.5523 H   0  0  0  0  0  0  0  0  0  0  0  0
    9.5159    2.2168   23.0553 H   0  0  0  0  0  0  0  0  0  0  0  0
    6.7270    0.4925   16.8305 H   0  0  0  0  0  0  0  0  0  0  0  0
  1  2  1  0  0  0  0
  1  3  2  0  0  0  0
  2  4  2  0  0  0  0
  3 13  1  0  0  0  0
  4 16  1  0  0  0  0
  5  7  2  0  0  0  0
  5 17  1  0  0  0  0
  6  8  1  0  0  0  0
  6 17  2  0  0  0  0
  7 18  1  0  0  0  0
  8 18  2  0  0  0  0
  9 11  2  0  0  0  0
  9 14  1  0  0  0  0
 10 15  2  0  0  0  0
 10 27  1  0  0  0  0
 11 32  1  0  0  0  0
 12 14  2  0  0  0  0
 12 32  1  0  0  0  0
 13 15  1  0  0  0  0
 13 16  2  0  0  0  0
 14 26  1  0  0  0  0
 15 25  1  0  0  0  0
 16 27  1  0  0  0  0
 17 28  1  0  0  0  0
 18 29  1  0  0  0  0
 19 21  1  0  0  0  0
 19 28  1  0  0  0  0
 19 30  2  0  0  0  0
 20 25  1  0  0  0  0
 20 29  1  0  0  0  0
 20 31  2  0  0  0  0
 21 22  1  0  0  0  0
 22 23  1  0  0  0  0
 23 24  1  0  0  0  0
 24 28  1  0  0  0  0
 26 29  1  0  0  0  0
  1 33  1  0  0  0  0
  2 34  1  0  0  0  0
  3 35  1  0  0  0  0
  4 36  1  0  0  0  0
  5 37  1  0  0  0  0
  6 38  1  0  0  0  0
  7 39  1  0  0  0  0
  8 40  1  0  0  0  0
  9 41  1  0  0  0  0
 10 42  1  0  0  0  0
 11 43  1  0  0  0  0
 12 44  1  0  0  0  0
 21 45  1  0  0  0  0
 21 46  1  0  0  0  0
 22 47  1  0  0  0  0
 22 48  1  0  0  0  0
 23 49  1  0  0  0  0
 23 50  1  0  0  0  0
 24 51  1  0  0  0  0
 24 52  1  0  0  0  0
 25 53  1  0  0  0  0
 25 54  1  0  0  0  0
 26 55  1  0  0  0  0
 26 56  1  0  0  0  0
 27 57  1  0  0  0  0
M  END
> <clash_score>
0.7790617508365236

> <docking_score>
-7.825404167175293

$$$$
BENZO_467_1
  -OEChem-08222011283D

 50 53  0     0  0  0  0  0  0999 V2000
    4.2750    1.7050   20.8490 C   0  0  0  0  0  0  0  0  0  0  0  0
    3.9160    2.0630   19.5520 C   0  0  0  0  0  0  0  0  0  0  0  0
    5.4210    0.9600   21.0930 C   0  0  0  0  0  0  0  0  0  0  0  0
    4.6890    1.6810   18.4640 C   0  0  0  0  0  0  0  0  0  0  0  0
    9.0720   -1.1280   24.8640 C   0  0  0  0  0  0  0  0  0  0  0  0
    9.7200   -2.2600   22.8630 C   0  0  0  0  0  0  0  0  0  0  0  0
    8.9960   -2.3380   25.5320 C   0  0  0  0  0  0  0  0  0  0  0  0
    9.6730   -3.4710   23.5300 C   0  0  0  0  0  0  0  0  0  0  0  0
   12.1233    1.3811   24.9242 C   0  0  0  0  0  0  0  0  0  0  0  0
    7.6390   -0.2680   18.5410 C   0  0  0  0  0  0  0  0  0  0  0  0
   12.3261    1.4247   22.7351 C   0  0  0  0  0  0  0  0  0  0  0  0
    6.1790    0.5730   19.9990 C   0  0  0  0  0  0  0  0  0  0  0  0
   11.3794    1.3761   23.7290 C   0  0  0  0  0  0  0  0  0  0  0  0
    7.3170   -0.1610   19.8550 C   0  0  0  0  0  0  0  0  0  0  0  0
    5.8300    0.9190   18.6970 C   0  0  0  0  0  0  0  0  0  0  0  0
    9.3350   -1.0880   23.5010 C   0  0  0  0  0  0  0  0  0  0  0  0
    9.3070   -3.5340   24.8780 C   0  0  0  0  0  0  0  0  0  0  0  0
    9.0420    0.3700   21.5280 C   0  0  0  0  0  0  0  0  0  0  0  0
   14.8305    1.5084   22.7418 C   0  0  0  0  0  0  0  0  0  0  0  0
    8.8720   -4.6805   26.9013 C   0  0  0  0  0  0  0  0  0  0  0  0
    8.1890   -0.7180   20.8700 C   0  0  0  0  0  0  0  0  0  0  0  0
    9.8870    1.3260   23.5730 C   0  0  0  0  0  0  0  0  0  0  0  0
   13.4410    1.4289   24.7112 N   0  0  0  0  0  0  0  0  0  0  0  0
    6.7580    0.3810   17.8350 N   0  0  0  0  0  0  0  0  0  0  0  0
   13.5326    1.4543   23.3706 N   0  0  0  0  0  0  0  0  0  0  0  0
    9.4560    0.1560   22.8130 N   0  0  0  0  0  0  0  0  0  0  0  0
    9.2690    1.4140   20.9380 O   0  0  0  0  0  0  0  0  0  0  0  0
    9.2555   -4.7124   25.5274 O   0  0  0  0  0  0  0  0  0  0  0  0
    3.6455    2.0160   21.6826 H   0  0  0  0  0  0  0  0  0  0  0  0
    3.0144    2.6518   19.3914 H   0  0  0  0  0  0  0  0  0  0  0  0
    5.6994    0.6999   22.1043 H   0  0  0  0  0  0  0  0  0  0  0  0
    4.4044    1.9727   17.4490 H   0  0  0  0  0  0  0  0  0  0  0  0
    8.9221   -0.1995   25.4231 H   0  0  0  0  0  0  0  0  0  0  0  0
   10.0642   -2.2347   21.8253 H   0  0  0  0  0  0  0  0  0  0  0  0
    8.6902   -2.3588   26.5805 H   0  0  0  0  0  0  0  0  0  0  0  0
    9.9254   -4.3921   22.9961 H   0  0  0  0  0  0  0  0  0  0  0  0
   11.7624    1.3510   25.9426 H   0  0  0  0  0  0  0  0  0  0  0  0
    8.4839   -0.7930   18.0639 H   0  0  0  0  0  0  0  0  0  0  0  0
   12.2462    1.4390   21.6566 H   0  0  0  0  0  0  0  0  0  0  0  0
   15.0990    2.5601   22.6124 H   0  0  0  0  0  0  0  0  0  0  0  0
   15.5636    1.0018   23.3756 H   0  0  0  0  0  0  0  0  0  0  0  0
   14.7841    1.0025   21.7733 H   0  0  0  0  0  0  0  0  0  0  0  0
    8.8711   -5.6964   27.3038 H   0  0  0  0  0  0  0  0  0  0  0  0
    7.8758   -4.2402   26.9923 H   0  0  0  0  0  0  0  0  0  0  0  0
    9.5894   -4.0716   27.4566 H   0  0  0  0  0  0  0  0  0  0  0  0
    7.6077   -1.2085   21.6613 H   0  0  0  0  0  0  0  0  0  0  0  0
    8.8716   -1.4650   20.4448 H   0  0  0  0  0  0  0  0  0  0  0  0
    9.3974    1.2912   24.5523 H   0  0  0  0  0  0  0  0  0  0  0  0
    9.5159    2.2168   23.0553 H   0  0  0  0  0  0  0  0  0  0  0  0
    6.7270    0.4925   16.8305 H   0  0  0  0  0  0  0  0  0  0  0  0
  1  2  1  0  0  0  0
  1  3  2  0  0  0  0
  2  4  2  0  0  0  0
  3 12  1  0  0  0  0
  4 15  1  0  0  0  0
  5  7  2  0  0  0  0
  5 16  1  0  0  0  0
  6  8  1  0  0  0  0
  6 16  2  0  0  0  0
  7 17  1  0  0  0  0
  8 17  2  0  0  0  0
  9 13  1  0  0  0  0
  9 23  2  0  0  0  0
 10 14  2  0  0  0  0
 10 24  1  0  0  0  0
 11 13  2  0  0  0  0
 11 25  1  0  0  0  0
 12 14  1  0  0  0  0
 12 15  2  0  0  0  0
 13 22  1  0  0  0  0
 14 21  1  0  0  0  0
 15 24  1  0  0  0  0
 16 26  1  0  0  0  0
 17 28  1  0  0  0  0
 18 21  1  0  0  0  0
 18 26  1  0  0  0  0
 18 27  2  0  0  0  0
 19 25  1  0  0  0  0
 20 28  1  0  0  0  0
 22 26  1  0  0  0  0
 23 25  1  0  0  0  0
  1 29  1  0  0  0  0
  2 30  1  0  0  0  0
  3 31  1  0  0  0  0
  4 32  1  0  0  0  0
  5 33  1  0  0  0  0
  6 34  1  0  0  0  0
  7 35  1  0  0  0  0
  8 36  1  0  0  0  0
  9 37  1  0  0  0  0
 10 38  1  0  0  0  0
 11 39  1  0  0  0  0
 19 40  1  0  0  0  0
 19 41  1  0  0  0  0
 19 42  1  0  0  0  0
 20 43  1  0  0  0  0
 20 44  1  0  0  0  0
 20 45  1  0  0  0  0
 21 46  1  0  0  0  0
 21 47  1  0  0  0  0
 22 48  1  0  0  0  0
 22 49  1  0  0  0  0
 24 50  1  0  0  0  0
M  END
> <clash_score>
0

> <docking_score>
-8.102968215942383

$$$$
BENZO_470_1
  -OEChem-08222011283D

 60 64  0     0  0  0  0  0  0999 V2000
    4.2750    1.7050   20.8490 C   0  0  0  0  0  0  0  0  0  0  0  0
    3.9160    2.0630   19.5520 C   0  0  0  0  0  0  0  0  0  0  0  0
    6.4089    2.0844   24.8766 C   0  0  0  0  0  0  0  0  0  0  0  0
    5.4210    0.9600   21.0930 C   0  0  0  0  0  0  0  0  0  0  0  0
    7.4847    1.4191   24.2887 C   0  0  0  0  0  0  0  0  0  0  0  0
    4.6890    1.6810   18.4640 C   0  0  0  0  0  0  0  0  0  0  0  0
    8.9960   -2.3380   25.5320 C   0  0  0  0  0  0  0  0  0  0  0  0
    9.6730   -3.4710   23.5300 C   0  0  0  0  0  0  0  0  0  0  0  0
    9.0720   -1.1280   24.8640 C   0  0  0  0  0  0  0  0  0  0  0  0
    9.7200   -2.2600   22.8630 C   0  0  0  0  0  0  0  0  0  0  0  0
    6.5777    3.3741   25.3805 C   0  0  0  0  0  0  0  0  0  0  0  0
    8.8980    3.3330   24.7088 C   0  0  0  0  0  0  0  0  0  0  0  0
    7.6390   -0.2680   18.5410 C   0  0  0  0  0  0  0  0  0  0  0  0
    6.1790    0.5730   19.9990 C   0  0  0  0  0  0  0  0  0  0  0  0
    8.7292    2.0433   24.2048 C   0  0  0  0  0  0  0  0  0  0  0  0
    7.3170   -0.1610   19.8550 C   0  0  0  0  0  0  0  0  0  0  0  0
    5.8300    0.9190   18.6970 C   0  0  0  0  0  0  0  0  0  0  0  0
    9.3070   -3.5340   24.8780 C   0  0  0  0  0  0  0  0  0  0  0  0
    9.3350   -1.0880   23.5010 C   0  0  0  0  0  0  0  0  0  0  0  0
    7.8222    3.9984   25.2966 C   0  0  0  0  0  0  0  0  0  0  0  0
    8.3597   -5.0072   26.6307 C   0  0  0  0  0  0  0  0  0  0  0  0
    9.0420    0.3700   21.5280 C   0  0  0  0  0  0  0  0  0  0  0  0
    8.4719   -6.3980   27.2297 C   0  0  0  0  0  0  0  0  0  0  0  0
    9.9251   -6.7605   27.4804 C   0  0  0  0  0  0  0  0  0  0  0  0
   10.7833   -6.6094   26.2282 C   0  0  0  0  0  0  0  0  0  0  0  0
   10.0539   -5.9100   25.0823 C   0  0  0  0  0  0  0  0  0  0  0  0
    8.1890   -0.7180   20.8700 C   0  0  0  0  0  0  0  0  0  0  0  0
    9.8870    1.3260   23.5730 C   0  0  0  0  0  0  0  0  0  0  0  0
    6.7580    0.3810   17.8350 N   0  0  0  0  0  0  0  0  0  0  0  0
    9.2530   -4.7797   25.5644 N   0  0  0  0  0  0  0  0  0  0  0  0
    9.4560    0.1560   22.8130 N   0  0  0  0  0  0  0  0  0  0  0  0
    7.4954   -4.2355   27.0449 O   0  0  0  0  0  0  0  0  0  0  0  0
    9.2690    1.4140   20.9380 O   0  0  0  0  0  0  0  0  0  0  0  0
    8.0301    5.5891   25.9196 Cl  0  0  0  0  0  0  0  0  0  0  0  0
    3.6455    2.0160   21.6826 H   0  0  0  0  0  0  0  0  0  0  0  0
    3.0144    2.6518   19.3914 H   0  0  0  0  0  0  0  0  0  0  0  0
    5.4400    1.5979   24.9418 H   0  0  0  0  0  0  0  0  0  0  0  0
    5.6994    0.6999   22.1043 H   0  0  0  0  0  0  0  0  0  0  0  0
    7.3441    0.4143   23.8988 H   0  0  0  0  0  0  0  0  0  0  0  0
    4.4044    1.9727   17.4490 H   0  0  0  0  0  0  0  0  0  0  0  0
    8.6895   -2.3529   26.5807 H   0  0  0  0  0  0  0  0  0  0  0  0
    9.9262   -4.3897   22.9916 H   0  0  0  0  0  0  0  0  0  0  0  0
    8.9224   -0.1998   25.4238 H   0  0  0  0  0  0  0  0  0  0  0  0
   10.0649   -2.2343   21.8258 H   0  0  0  0  0  0  0  0  0  0  0  0
    5.7304    3.8806   25.8363 H   0  0  0  0  0  0  0  0  0  0  0  0
    9.8702    3.8156   24.6405 H   0  0  0  0  0  0  0  0  0  0  0  0
    8.4839   -0.7930   18.0639 H   0  0  0  0  0  0  0  0  0  0  0  0
    7.9324   -6.4147   28.1641 H   0  0  0  0  0  0  0  0  0  0  0  0
    8.0253   -7.0920   26.5333 H   0  0  0  0  0  0  0  0  0  0  0  0
   10.3386   -6.1266   28.2923 H   0  0  0  0  0  0  0  0  0  0  0  0
    9.9903   -7.8023   27.8538 H   0  0  0  0  0  0  0  0  0  0  0  0
   11.7036   -6.0405   26.4772 H   0  0  0  0  0  0  0  0  0  0  0  0
   11.1410   -7.6068   25.8920 H   0  0  0  0  0  0  0  0  0  0  0  0
   10.7782   -5.5173   24.3764 H   0  0  0  0  0  0  0  0  0  0  0  0
    9.4030   -6.6182   24.5832 H   0  0  0  0  0  0  0  0  0  0  0  0
    7.6077   -1.2085   21.6613 H   0  0  0  0  0  0  0  0  0  0  0  0
    8.8716   -1.4650   20.4448 H   0  0  0  0  0  0  0  0  0  0  0  0
   10.4274    1.9911   22.8906 H   0  0  0  0  0  0  0  0  0  0  0  0
   10.6011    0.9882   24.3313 H   0  0  0  0  0  0  0  0  0  0  0  0
    6.7270    0.4925   16.8305 H   0  0  0  0  0  0  0  0  0  0  0  0
  1  2  1  0  0  0  0
  1  4  2  0  0  0  0
  2  6  2  0  0  0  0
  3  5  2  0  0  0  0
  3 11  1  0  0  0  0
  4 14  1  0  0  0  0
  5 15  1  0  0  0  0
  6 17  1  0  0  0  0
  7  9  2  0  0  0  0
  7 18  1  0  0  0  0
  8 10  1  0  0  0  0
  8 18  2  0  0  0  0
  9 19  1  0  0  0  0
 10 19  2  0  0  0  0
 11 20  2  0  0  0  0
 12 15  2  0  0  0  0
 12 20  1  0  0  0  0
 13 16  2  0  0  0  0
 13 29  1  0  0  0  0
 14 16  1  0  0  0  0
 14 17  2  0  0  0  0
 15 28  1  0  0  0  0
 16 27  1  0  0  0  0
 17 29  1  0  0  0  0
 18 30  1  0  0  0  0
 19 31  1  0  0  0  0
 20 34  1  0  0  0  0
 21 23  1  0  0  0  0
 21 30  1  0  0  0  0
 21 32  2  0  0  0  0
 22 27  1  0  0  0  0
 22 31  1  0  0  0  0
 22 33  2  0  0  0  0
 23 24  1  0  0  0  0
 24 25  1  0  0  0  0
 25 26  1  0  0  0  0
 26 30  1  0  0  0  0
 28 31  1  0  0  0  0
  1 35  1  0  0  0  0
  2 36  1  0  0  0  0
  3 37  1  0  0  0  0
  4 38  1  0  0  0  0
  5 39  1  0  0  0  0
  6 40  1  0  0  0  0
  7 41  1  0  0  0  0
  8 42  1  0  0  0  0
  9 43  1  0  0  0  0
 10 44  1  0  0  0  0
 11 45  1  0  0  0  0
 12 46  1  0  0  0  0
 13 47  1  0  0  0  0
 23 48  1  0  0  0  0
 23 49  1  0  0  0  0
 24 50  1  0  0  0  0
 24 51  1  0  0  0  0
 25 52  1  0  0  0  0
 25 53  1  0  0  0  0
 26 54  1  0  0  0  0
 26 55  1  0  0  0  0
 27 56  1  0  0  0  0
 27 57  1  0  0  0  0
 28 58  1  0  0  0  0
 28 59  1  0  0  0  0
 29 60  1  0  0  0  0
M  END
> <clash_score>
0.7790617508365236

> <docking_score>
-7.132561683654785

$$$$
BENZO_471_1
  -OEChem-08222011283D

 60 64  0     0  0  0  0  0  0999 V2000
    4.2750    1.7050   20.8490 C   0  0  0  0  0  0  0  0  0  0  0  0
    3.9160    2.0630   19.5520 C   0  0  0  0  0  0  0  0  0  0  0  0
    5.4210    0.9600   21.0930 C   0  0  0  0  0  0  0  0  0  0  0  0
    4.6890    1.6810   18.4640 C   0  0  0  0  0  0  0  0  0  0  0  0
    8.9960   -2.3380   25.5320 C   0  0  0  0  0  0  0  0  0  0  0  0
    9.6730   -3.4710   23.5300 C   0  0  0  0  0  0  0  0  0  0  0  0
    9.0720   -1.1280   24.8640 C   0  0  0  0  0  0  0  0  0  0  0  0
    9.7200   -2.2600   22.8630 C   0  0  0  0  0  0  0  0  0  0  0  0
   12.1233    1.3811   24.9242 C   0  0  0  0  0  0  0  0  0  0  0  0
    7.6390   -0.2680   18.5410 C   0  0  0  0  0  0  0  0  0  0  0  0
   12.3262    1.4247   22.7351 C   0  0  0  0  0  0  0  0  0  0  0  0
    6.1790    0.5730   19.9990 C   0  0  0  0  0  0  0  0  0  0  0  0
   11.3794    1.3761   23.7290 C   0  0  0  0  0  0  0  0  0  0  0  0
    7.3170   -0.1610   19.8550 C   0  0  0  0  0  0  0  0  0  0  0  0
    5.8300    0.9190   18.6970 C   0  0  0  0  0  0  0  0  0  0  0  0
    9.3070   -3.5340   24.8780 C   0  0  0  0  0  0  0  0  0  0  0  0
    9.3350   -1.0880   23.5010 C   0  0  0  0  0  0  0  0  0  0  0  0
    8.3597   -5.0072   26.6307 C   0  0  0  0  0  0  0  0  0  0  0  0
    9.0420    0.3700   21.5280 C   0  0  0  0  0  0  0  0  0  0  0  0
    8.4719   -6.3980   27.2297 C   0  0  0  0  0  0  0  0  0  0  0  0
    9.9251   -6.7605   27.4804 C   0  0  0  0  0  0  0  0  0  0  0  0
   10.7833   -6.6094   26.2282 C   0  0  0  0  0  0  0  0  0  0  0  0
   10.0539   -5.9100   25.0823 C   0  0  0  0  0  0  0  0  0  0  0  0
   14.8305    1.5084   22.7418 C   0  0  0  0  0  0  0  0  0  0  0  0
    8.1890   -0.7180   20.8700 C   0  0  0  0  0  0  0  0  0  0  0  0
    9.8870    1.3260   23.5730 C   0  0  0  0  0  0  0  0  0  0  0  0
   13.4410    1.4289   24.7112 N   0  0  0  0  0  0  0  0  0  0  0  0
    6.7580    0.3810   17.8350 N   0  0  0  0  0  0  0  0  0  0  0  0
   13.5326    1.4543   23.3706 N   0  0  0  0  0  0  0  0  0  0  0  0
    9.2530   -4.7797   25.5644 N   0  0  0  0  0  0  0  0  0  0  0  0
    9.4560    0.1560   22.8130 N   0  0  0  0  0  0  0  0  0  0  0  0
    7.4954   -4.2355   27.0449 O   0  0  0  0  0  0  0  0  0  0  0  0
    9.2690    1.4140   20.9380 O   0  0  0  0  0  0  0  0  0  0  0  0
    3.6455    2.0160   21.6826 H   0  0  0  0  0  0  0  0  0  0  0  0
    3.0144    2.6518   19.3914 H   0  0  0  0  0  0  0  0  0  0  0  0
    5.6994    0.6999   22.1043 H   0  0  0  0  0  0  0  0  0  0  0  0
    4.4044    1.9727   17.4490 H   0  0  0  0  0  0  0  0  0  0  0  0
    8.6895   -2.3529   26.5807 H   0  0  0  0  0  0  0  0  0  0  0  0
    9.9262   -4.3897   22.9916 H   0  0  0  0  0  0  0  0  0  0  0  0
    8.9224   -0.1998   25.4238 H   0  0  0  0  0  0  0  0  0  0  0  0
   10.0649   -2.2343   21.8258 H   0  0  0  0  0  0  0  0  0  0  0  0
   11.7624    1.3510   25.9426 H   0  0  0  0  0  0  0  0  0  0  0  0
    8.4839   -0.7930   18.0639 H   0  0  0  0  0  0  0  0  0  0  0  0
   12.2462    1.4390   21.6566 H   0  0  0  0  0  0  0  0  0  0  0  0
    7.9324   -6.4147   28.1641 H   0  0  0  0  0  0  0  0  0  0  0  0
    8.0253   -7.0920   26.5333 H   0  0  0  0  0  0  0  0  0  0  0  0
   10.3386   -6.1266   28.2923 H   0  0  0  0  0  0  0  0  0  0  0  0
    9.9903   -7.8023   27.8538 H   0  0  0  0  0  0  0  0  0  0  0  0
   11.7036   -6.0405   26.4772 H   0  0  0  0  0  0  0  0  0  0  0  0
   11.1410   -7.6068   25.8920 H   0  0  0  0  0  0  0  0  0  0  0  0
   10.7782   -5.5173   24.3764 H   0  0  0  0  0  0  0  0  0  0  0  0
    9.4030   -6.6182   24.5832 H   0  0  0  0  0  0  0  0  0  0  0  0
   15.0990    2.5601   22.6124 H   0  0  0  0  0  0  0  0  0  0  0  0
   15.5636    1.0018   23.3756 H   0  0  0  0  0  0  0  0  0  0  0  0
   14.7841    1.0025   21.7733 H   0  0  0  0  0  0  0  0  0  0  0  0
    7.6077   -1.2085   21.6613 H   0  0  0  0  0  0  0  0  0  0  0  0
    8.8716   -1.4650   20.4448 H   0  0  0  0  0  0  0  0  0  0  0  0
    9.3974    1.2912   24.5523 H   0  0  0  0  0  0  0  0  0  0  0  0
    9.5159    2.2168   23.0553 H   0  0  0  0  0  0  0  0  0  0  0  0
    6.7270    0.4925   16.8305 H   0  0  0  0  0  0  0  0  0  0  0  0
  1  2  1  0  0  0  0
  1  3  2  0  0  0  0
  2  4  2  0  0  0  0
  3 12  1  0  0  0  0
  4 15  1  0  0  0  0
  5  7  2  0  0  0  0
  5 16  1  0  0  0  0
  6  8  1  0  0  0  0
  6 16  2  0  0  0  0
  7 17  1  0  0  0  0
  8 17  2  0  0  0  0
  9 13  1  0  0  0  0
  9 27  2  0  0  0  0
 10 14  2  0  0  0  0
 10 28  1  0  0  0  0
 11 13  2  0  0  0  0
 11 29  1  0  0  0  0
 12 14  1  0  0  0  0
 12 15  2  0  0  0  0
 13 26  1  0  0  0  0
 14 25  1  0  0  0  0
 15 28  1  0  0  0  0
 16 30  1  0  0  0  0
 17 31  1  0  0  0  0
 18 20  1  0  0  0  0
 18 30  1  0  0  0  0
 18 32  2  0  0  0  0
 19 25  1  0  0  0  0
 19 31  1  0  0  0  0
 19 33  2  0  0  0  0
 20 21  1  0  0  0  0
 21 22  1  0  0  0  0
 22 23  1  0  0  0  0
 23 30  1  0  0  0  0
 24 29  1  0  0  0  0
 26 31  1  0  0  0  0
 27 29  1  0  0  0  0
  1 34  1  0  0  0  0
  2 35  1  0  0  0  0
  3 36  1  0  0  0  0
  4 37  1  0  0  0  0
  5 38  1  0  0  0  0
  6 39  1  0  0  0  0
  7 40  1  0  0  0  0
  8 41  1  0  0  0  0
  9 42  1  0  0  0  0
 10 43  1  0  0  0  0
 11 44  1  0  0  0  0
 20 45  1  0  0  0  0
 20 46  1  0  0  0  0
 21 47  1  0  0  0  0
 21 48  1  0  0  0  0
 22 49  1  0  0  0  0
 22 50  1  0  0  0  0
 23 51  1  0  0  0  0
 23 52  1  0  0  0  0
 24 53  1  0  0  0  0
 24 54  1  0  0  0  0
 24 55  1  0  0  0  0
 25 56  1  0  0  0  0
 25 57  1  0  0  0  0
 26 58  1  0  0  0  0
 26 59  1  0  0  0  0
 28 60  1  0  0  0  0
M  END
> <clash_score>
0.7790617508365236

> <docking_score>
-7.462676048278809

$$$$
BENZO_473_1
  -OEChem-08222011323D

 59 63  0     0  0  0  0  0  0999 V2000
   14.1526    1.4694   24.0176 C   0  0  0  0  0  0  0  0  0  0  0  0
    4.2750    1.7050   20.8490 C   0  0  0  0  0  0  0  0  0  0  0  0
   13.3741    0.8121   24.9701 C   0  0  0  0  0  0  0  0  0  0  0  0
   13.5446    2.0802   22.9208 C   0  0  0  0  0  0  0  0  0  0  0  0
    3.9160    2.0630   19.5520 C   0  0  0  0  0  0  0  0  0  0  0  0
    5.4210    0.9600   21.0930 C   0  0  0  0  0  0  0  0  0  0  0  0
   11.9875    0.7654   24.8258 C   0  0  0  0  0  0  0  0  0  0  0  0
   12.1580    2.0335   22.7765 C   0  0  0  0  0  0  0  0  0  0  0  0
    4.6890    1.6810   18.4640 C   0  0  0  0  0  0  0  0  0  0  0  0
    8.9960   -2.3380   25.5320 C   0  0  0  0  0  0  0  0  0  0  0  0
    9.6730   -3.4710   23.5300 C   0  0  0  0  0  0  0  0  0  0  0  0
    9.0720   -1.1280   24.8640 C   0  0  0  0  0  0  0  0  0  0  0  0
    9.7200   -2.2600   22.8630 C   0  0  0  0  0  0  0  0  0  0  0  0
    7.6390   -0.2680   18.5410 C   0  0  0  0  0  0  0  0  0  0  0  0
    6.1790    0.5730   19.9990 C   0  0  0  0  0  0  0  0  0  0  0  0
   11.3794    1.3761   23.7290 C   0  0  0  0  0  0  0  0  0  0  0  0
    7.3170   -0.1610   19.8550 C   0  0  0  0  0  0  0  0  0  0  0  0
    5.8300    0.9190   18.6970 C   0  0  0  0  0  0  0  0  0  0  0  0
    9.3070   -3.5340   24.8780 C   0  0  0  0  0  0  0  0  0  0  0  0
    9.3350   -1.0880   23.5010 C   0  0  0  0  0  0  0  0  0  0  0  0
    9.0420    0.3700   21.5280 C   0  0  0  0  0  0  0  0  0  0  0  0
   10.0771   -5.0255   26.7193 C   0  0  0  0  0  0  0  0  0  0  0  0
    8.0926   -5.6195   25.4071 C   0  0  0  0  0  0  0  0  0  0  0  0
    9.1933   -4.9427   27.9592 C   0  0  0  0  0  0  0  0  0  0  0  0
    7.2756   -5.5290   26.6968 C   0  0  0  0  0  0  0  0  0  0  0  0
    8.1890   -0.7180   20.8700 C   0  0  0  0  0  0  0  0  0  0  0  0
    9.8870    1.3260   23.5730 C   0  0  0  0  0  0  0  0  0  0  0  0
    6.7580    0.3810   17.8350 N   0  0  0  0  0  0  0  0  0  0  0  0
    9.2563   -4.7368   25.5413 N   0  0  0  0  0  0  0  0  0  0  0  0
    9.4560    0.1560   22.8130 N   0  0  0  0  0  0  0  0  0  0  0  0
    9.2690    1.4140   20.9380 O   0  0  0  0  0  0  0  0  0  0  0  0
    8.0883   -5.8458   27.8325 O   0  0  0  0  0  0  0  0  0  0  0  0
   15.2322    1.5068   24.1308 H   0  0  0  0  0  0  0  0  0  0  0  0
    3.6455    2.0160   21.6826 H   0  0  0  0  0  0  0  0  0  0  0  0
   13.8473    0.3374   25.8248 H   0  0  0  0  0  0  0  0  0  0  0  0
   14.1503    2.5930   22.1795 H   0  0  0  0  0  0  0  0  0  0  0  0
    3.0144    2.6518   19.3914 H   0  0  0  0  0  0  0  0  0  0  0  0
    5.6994    0.6999   22.1043 H   0  0  0  0  0  0  0  0  0  0  0  0
   11.3889    0.2508   25.5729 H   0  0  0  0  0  0  0  0  0  0  0  0
   11.6930    2.5120   21.9187 H   0  0  0  0  0  0  0  0  0  0  0  0
    4.4044    1.9727   17.4490 H   0  0  0  0  0  0  0  0  0  0  0  0
    8.6905   -2.3533   26.5810 H   0  0  0  0  0  0  0  0  0  0  0  0
    9.9266   -4.3896   22.9917 H   0  0  0  0  0  0  0  0  0  0  0  0
    8.9233   -0.1992   25.4231 H   0  0  0  0  0  0  0  0  0  0  0  0
   10.0650   -2.2330   21.8256 H   0  0  0  0  0  0  0  0  0  0  0  0
    8.4839   -0.7930   18.0639 H   0  0  0  0  0  0  0  0  0  0  0  0
   10.9045   -4.3143   26.8097 H   0  0  0  0  0  0  0  0  0  0  0  0
   10.4942   -6.0352   26.6309 H   0  0  0  0  0  0  0  0  0  0  0  0
    8.4337   -6.6479   25.2595 H   0  0  0  0  0  0  0  0  0  0  0  0
    7.4706   -5.3291   24.5580 H   0  0  0  0  0  0  0  0  0  0  0  0
    9.7636   -5.2397   28.8419 H   0  0  0  0  0  0  0  0  0  0  0  0
    8.8237   -3.9268   28.1248 H   0  0  0  0  0  0  0  0  0  0  0  0
    6.8339   -4.5336   26.8232 H   0  0  0  0  0  0  0  0  0  0  0  0
    6.4550   -6.2521   26.6644 H   0  0  0  0  0  0  0  0  0  0  0  0
    7.6077   -1.2085   21.6613 H   0  0  0  0  0  0  0  0  0  0  0  0
    8.8716   -1.4650   20.4448 H   0  0  0  0  0  0  0  0  0  0  0  0
    9.3974    1.2912   24.5523 H   0  0  0  0  0  0  0  0  0  0  0  0
    9.5159    2.2168   23.0554 H   0  0  0  0  0  0  0  0  0  0  0  0
    6.7270    0.4925   16.8305 H   0  0  0  0  0  0  0  0  0  0  0  0
  1  3  1  0  0  0  0
  1  4  2  0  0  0  0
  2  5  1  0  0  0  0
  2  6  2  0  0  0  0
  3  7  2  0  0  0  0
  4  8  1  0  0  0  0
  5  9  2  0  0  0  0
  6 15  1  0  0  0  0
  7 16  1  0  0  0  0
  8 16  2  0  0  0  0
  9 18  1  0  0  0  0
 10 12  2  0  0  0  0
 10 19  1  0  0  0  0
 11 13  1  0  0  0  0
 11 19  2  0  0  0  0
 12 20  1  0  0  0  0
 13 20  2  0  0  0  0
 14 17  2  0  0  0  0
 14 28  1  0  0  0  0
 15 17  1  0  0  0  0
 15 18  2  0  0  0  0
 16 27  1  0  0  0  0
 17 26  1  0  0  0  0
 18 28  1  0  0  0  0
 19 29  1  0  0  0  0
 20 30  1  0  0  0  0
 21 26  1  0  0  0  0
 21 30  1  0  0  0  0
 21 31  2  0  0  0  0
 22 24  1  0  0  0  0
 22 29  1  0  0  0  0
 23 25  1  0  0  0  0
 23 29  1  0  0  0  0
 24 32  1  0  0  0  0
 25 32  1  0  0  0  0
 27 30  1  0  0  0  0
  1 33  1  0  0  0  0
  2 34  1  0  0  0  0
  3 35  1  0  0  0  0
  4 36  1  0  0  0  0
  5 37  1  0  0  0  0
  6 38  1  0  0  0  0
  7 39  1  0  0  0  0
  8 40  1  0  0  0  0
  9 41  1  0  0  0  0
 10 42  1  0  0  0  0
 11 43  1  0  0  0  0
 12 44  1  0  0  0  0
 13 45  1  0  0  0  0
 14 46  1  0  0  0  0
 22 47  1  0  0  0  0
 22 48  1  0  0  0  0
 23 49  1  0  0  0  0
 23 50  1  0  0  0  0
 24 51  1  0  0  0  0
 24 52  1  0  0  0  0
 25 53  1  0  0  0  0
 25 54  1  0  0  0  0
 26 55  1  0  0  0  0
 26 56  1  0  0  0  0
 27 57  1  0  0  0  0
 27 58  1  0  0  0  0
 28 59  1  0  0  0  0
M  END
> <clash_score>
0

> <docking_score>
-8.727516174316406

$$$$
BENZO_472_1
  -OEChem-08222011323D

 56 60  0     0  0  0  0  0  0999 V2000
    4.2750    1.7050   20.8490 C   0  0  0  0  0  0  0  0  0  0  0  0
    3.9160    2.0630   19.5520 C   0  0  0  0  0  0  0  0  0  0  0  0
    5.4210    0.9600   21.0930 C   0  0  0  0  0  0  0  0  0  0  0  0
    4.6890    1.6810   18.4640 C   0  0  0  0  0  0  0  0  0  0  0  0
    8.9960   -2.3380   25.5320 C   0  0  0  0  0  0  0  0  0  0  0  0
    9.6730   -3.4710   23.5300 C   0  0  0  0  0  0  0  0  0  0  0  0
    9.0720   -1.1280   24.8640 C   0  0  0  0  0  0  0  0  0  0  0  0
    9.7200   -2.2600   22.8630 C   0  0  0  0  0  0  0  0  0  0  0  0
   12.2913    1.4279   22.6355 C   0  0  0  0  0  0  0  0  0  0  0  0
    7.6390   -0.2680   18.5410 C   0  0  0  0  0  0  0  0  0  0  0  0
   13.6024    1.4662   23.0564 C   0  0  0  0  0  0  0  0  0  0  0  0
   12.0284    1.3764   24.9443 C   0  0  0  0  0  0  0  0  0  0  0  0
    6.1790    0.5730   19.9990 C   0  0  0  0  0  0  0  0  0  0  0  0
   11.3794    1.3761   23.7290 C   0  0  0  0  0  0  0  0  0  0  0  0
    7.3170   -0.1610   19.8550 C   0  0  0  0  0  0  0  0  0  0  0  0
    5.8300    0.9190   18.6970 C   0  0  0  0  0  0  0  0  0  0  0  0
    9.3070   -3.5340   24.8780 C   0  0  0  0  0  0  0  0  0  0  0  0
    9.3350   -1.0880   23.5010 C   0  0  0  0  0  0  0  0  0  0  0  0
    9.0420    0.3700   21.5280 C   0  0  0  0  0  0  0  0  0  0  0  0
   10.0771   -5.0255   26.7193 C   0  0  0  0  0  0  0  0  0  0  0  0
    8.0926   -5.6195   25.4071 C   0  0  0  0  0  0  0  0  0  0  0  0
    9.1933   -4.9427   27.9592 C   0  0  0  0  0  0  0  0  0  0  0  0
    7.2756   -5.5290   26.6968 C   0  0  0  0  0  0  0  0  0  0  0  0
    8.1890   -0.7180   20.8700 C   0  0  0  0  0  0  0  0  0  0  0  0
    9.8870    1.3260   23.5730 C   0  0  0  0  0  0  0  0  0  0  0  0
    6.7580    0.3810   17.8350 N   0  0  0  0  0  0  0  0  0  0  0  0
    9.2563   -4.7368   25.5413 N   0  0  0  0  0  0  0  0  0  0  0  0
    9.4560    0.1560   22.8130 N   0  0  0  0  0  0  0  0  0  0  0  0
    9.2690    1.4140   20.9380 O   0  0  0  0  0  0  0  0  0  0  0  0
    8.0883   -5.8458   27.8325 O   0  0  0  0  0  0  0  0  0  0  0  0
   13.7301    1.4394   24.7638 S   0  0  0  0  0  0  0  0  0  0  0  0
    3.6455    2.0160   21.6826 H   0  0  0  0  0  0  0  0  0  0  0  0
    3.0144    2.6518   19.3914 H   0  0  0  0  0  0  0  0  0  0  0  0
    5.6994    0.6999   22.1043 H   0  0  0  0  0  0  0  0  0  0  0  0
    4.4044    1.9727   17.4490 H   0  0  0  0  0  0  0  0  0  0  0  0
    8.6905   -2.3533   26.5810 H   0  0  0  0  0  0  0  0  0  0  0  0
    9.9266   -4.3896   22.9917 H   0  0  0  0  0  0  0  0  0  0  0  0
    8.9233   -0.1992   25.4231 H   0  0  0  0  0  0  0  0  0  0  0  0
   10.0650   -2.2330   21.8256 H   0  0  0  0  0  0  0  0  0  0  0  0
   12.0045    1.4365   21.5915 H   0  0  0  0  0  0  0  0  0  0  0  0
    8.4839   -0.7930   18.0639 H   0  0  0  0  0  0  0  0  0  0  0  0
   14.4914    1.5078   22.4431 H   0  0  0  0  0  0  0  0  0  0  0  0
   11.5886    1.3416   25.9314 H   0  0  0  0  0  0  0  0  0  0  0  0
   10.9045   -4.3143   26.8097 H   0  0  0  0  0  0  0  0  0  0  0  0
   10.4942   -6.0352   26.6309 H   0  0  0  0  0  0  0  0  0  0  0  0
    8.4337   -6.6479   25.2595 H   0  0  0  0  0  0  0  0  0  0  0  0
    7.4706   -5.3291   24.5580 H   0  0  0  0  0  0  0  0  0  0  0  0
    9.7636   -5.2397   28.8419 H   0  0  0  0  0  0  0  0  0  0  0  0
    8.8237   -3.9268   28.1248 H   0  0  0  0  0  0  0  0  0  0  0  0
    6.8339   -4.5336   26.8232 H   0  0  0  0  0  0  0  0  0  0  0  0
    6.4550   -6.2521   26.6644 H   0  0  0  0  0  0  0  0  0  0  0  0
    7.6077   -1.2085   21.6613 H   0  0  0  0  0  0  0  0  0  0  0  0
    8.8716   -1.4650   20.4448 H   0  0  0  0  0  0  0  0  0  0  0  0
    9.3974    1.2912   24.5523 H   0  0  0  0  0  0  0  0  0  0  0  0
    9.5159    2.2168   23.0554 H   0  0  0  0  0  0  0  0  0  0  0  0
    6.7270    0.4925   16.8305 H   0  0  0  0  0  0  0  0  0  0  0  0
  1  2  1  0  0  0  0
  1  3  2  0  0  0  0
  2  4  2  0  0  0  0
  3 13  1  0  0  0  0
  4 16  1  0  0  0  0
  5  7  2  0  0  0  0
  5 17  1  0  0  0  0
  6  8  1  0  0  0  0
  6 17  2  0  0  0  0
  7 18  1  0  0  0  0
  8 18  2  0  0  0  0
  9 11  2  0  0  0  0
  9 14  1  0  0  0  0
 10 15  2  0  0  0  0
 10 26  1  0  0  0  0
 11 31  1  0  0  0  0
 12 14  2  0  0  0  0
 12 31  1  0  0  0  0
 13 15  1  0  0  0  0
 13 16  2  0  0  0  0
 14 25  1  0  0  0  0
 15 24  1  0  0  0  0
 16 26  1  0  0  0  0
 17 27  1  0  0  0  0
 18 28  1  0  0  0  0
 19 24  1  0  0  0  0
 19 28  1  0  0  0  0
 19 29  2  0  0  0  0
 20 22  1  0  0  0  0
 20 27  1  0  0  0  0
 21 23  1  0  0  0  0
 21 27  1  0  0  0  0
 22 30  1  0  0  0  0
 23 30  1  0  0  0  0
 25 28  1  0  0  0  0
  1 32  1  0  0  0  0
  2 33  1  0  0  0  0
  3 34  1  0  0  0  0
  4 35  1  0  0  0  0
  5 36  1  0  0  0  0
  6 37  1  0  0  0  0
  7 38  1  0  0  0  0
  8 39  1  0  0  0  0
  9 40  1  0  0  0  0
 10 41  1  0  0  0  0
 11 42  1  0  0  0  0
 12 43  1  0  0  0  0
 20 44  1  0  0  0  0
 20 45  1  0  0  0  0
 21 46  1  0  0  0  0
 21 47  1  0  0  0  0
 22 48  1  0  0  0  0
 22 49  1  0  0  0  0
 23 50  1  0  0  0  0
 23 51  1  0  0  0  0
 24 52  1  0  0  0  0
 24 53  1  0  0  0  0
 25 54  1  0  0  0  0
 25 55  1  0  0  0  0
 26 56  1  0  0  0  0
M  END
> <clash_score>
0

> <docking_score>
-8.806379318237305

$$$$
BENZO_474_1
  -OEChem-08222011323D

 59 63  0     0  0  0  0  0  0999 V2000
    4.2750    1.7050   20.8490 C   0  0  0  0  0  0  0  0  0  0  0  0
    3.9160    2.0630   19.5520 C   0  0  0  0  0  0  0  0  0  0  0  0
    6.4089    2.0844   24.8766 C   0  0  0  0  0  0  0  0  0  0  0  0
    5.4210    0.9600   21.0930 C   0  0  0  0  0  0  0  0  0  0  0  0
    7.4847    1.4191   24.2887 C   0  0  0  0  0  0  0  0  0  0  0  0
    4.6890    1.6810   18.4640 C   0  0  0  0  0  0  0  0  0  0  0  0
    8.9960   -2.3380   25.5320 C   0  0  0  0  0  0  0  0  0  0  0  0
    9.6730   -3.4710   23.5300 C   0  0  0  0  0  0  0  0  0  0  0  0
    9.0720   -1.1280   24.8640 C   0  0  0  0  0  0  0  0  0  0  0  0
    9.7200   -2.2600   22.8630 C   0  0  0  0  0  0  0  0  0  0  0  0
    6.5777    3.3741   25.3805 C   0  0  0  0  0  0  0  0  0  0  0  0
    8.8980    3.3330   24.7088 C   0  0  0  0  0  0  0  0  0  0  0  0
    7.6390   -0.2680   18.5410 C   0  0  0  0  0  0  0  0  0  0  0  0
    6.1790    0.5730   19.9990 C   0  0  0  0  0  0  0  0  0  0  0  0
    8.7292    2.0433   24.2048 C   0  0  0  0  0  0  0  0  0  0  0  0
    7.3170   -0.1610   19.8550 C   0  0  0  0  0  0  0  0  0  0  0  0
    5.8300    0.9190   18.6970 C   0  0  0  0  0  0  0  0  0  0  0  0
    9.3070   -3.5340   24.8780 C   0  0  0  0  0  0  0  0  0  0  0  0
    9.3350   -1.0880   23.5010 C   0  0  0  0  0  0  0  0  0  0  0  0
    7.8222    3.9984   25.2966 C   0  0  0  0  0  0  0  0  0  0  0  0
    9.0420    0.3700   21.5280 C   0  0  0  0  0  0  0  0  0  0  0  0
    9.5175   -4.8597   26.9771 C   0  0  0  0  0  0  0  0  0  0  0  0
    8.5165   -5.8725   24.9808 C   0  0  0  0  0  0  0  0  0  0  0  0
    8.1868   -5.0438   27.6987 C   0  0  0  0  0  0  0  0  0  0  0  0
    7.2200   -6.0346   25.7756 C   0  0  0  0  0  0  0  0  0  0  0  0
    8.1890   -0.7180   20.8700 C   0  0  0  0  0  0  0  0  0  0  0  0
    9.8870    1.3260   23.5730 C   0  0  0  0  0  0  0  0  0  0  0  0
    6.7580    0.3810   17.8350 N   0  0  0  0  0  0  0  0  0  0  0  0
    9.2563   -4.7368   25.5413 N   0  0  0  0  0  0  0  0  0  0  0  0
    9.4560    0.1560   22.8130 N   0  0  0  0  0  0  0  0  0  0  0  0
    9.2690    1.4140   20.9380 O   0  0  0  0  0  0  0  0  0  0  0  0
    7.4993   -6.1852   27.1720 O   0  0  0  0  0  0  0  0  0  0  0  0
    8.0301    5.5891   25.9196 Cl  0  0  0  0  0  0  0  0  0  0  0  0
    3.6455    2.0160   21.6826 H   0  0  0  0  0  0  0  0  0  0  0  0
    3.0144    2.6518   19.3914 H   0  0  0  0  0  0  0  0  0  0  0  0
    5.4400    1.5979   24.9418 H   0  0  0  0  0  0  0  0  0  0  0  0
    5.6994    0.6999   22.1043 H   0  0  0  0  0  0  0  0  0  0  0  0
    7.3441    0.4143   23.8988 H   0  0  0  0  0  0  0  0  0  0  0  0
    4.4044    1.9727   17.4490 H   0  0  0  0  0  0  0  0  0  0  0  0
    8.6905   -2.3533   26.5810 H   0  0  0  0  0  0  0  0  0  0  0  0
    9.9266   -4.3896   22.9917 H   0  0  0  0  0  0  0  0  0  0  0  0
    8.9233   -0.1992   25.4231 H   0  0  0  0  0  0  0  0  0  0  0  0
   10.0650   -2.2330   21.8256 H   0  0  0  0  0  0  0  0  0  0  0  0
    5.7304    3.8806   25.8363 H   0  0  0  0  0  0  0  0  0  0  0  0
    9.8703    3.8156   24.6405 H   0  0  0  0  0  0  0  0  0  0  0  0
    8.4839   -0.7930   18.0639 H   0  0  0  0  0  0  0  0  0  0  0  0
   10.0258   -3.9711   27.3648 H   0  0  0  0  0  0  0  0  0  0  0  0
   10.1569   -5.7319   27.1551 H   0  0  0  0  0  0  0  0  0  0  0  0
    9.1205   -6.7792   25.0739 H   0  0  0  0  0  0  0  0  0  0  0  0
    8.2824   -5.7116   23.9265 H   0  0  0  0  0  0  0  0  0  0  0  0
    8.3629   -5.2251   28.7611 H   0  0  0  0  0  0  0  0  0  0  0  0
    7.5530   -4.1569   27.6103 H   0  0  0  0  0  0  0  0  0  0  0  0
    6.5459   -5.1838   25.6221 H   0  0  0  0  0  0  0  0  0  0  0  0
    6.6947   -6.9354   25.4437 H   0  0  0  0  0  0  0  0  0  0  0  0
    7.6077   -1.2085   21.6613 H   0  0  0  0  0  0  0  0  0  0  0  0
    8.8716   -1.4650   20.4448 H   0  0  0  0  0  0  0  0  0  0  0  0
   10.4274    1.9911   22.8906 H   0  0  0  0  0  0  0  0  0  0  0  0
   10.6011    0.9882   24.3313 H   0  0  0  0  0  0  0  0  0  0  0  0
    6.7270    0.4925   16.8305 H   0  0  0  0  0  0  0  0  0  0  0  0
  1  2  1  0  0  0  0
  1  4  2  0  0  0  0
  2  6  2  0  0  0  0
  3  5  2  0  0  0  0
  3 11  1  0  0  0  0
  4 14  1  0  0  0  0
  5 15  1  0  0  0  0
  6 17  1  0  0  0  0
  7  9  2  0  0  0  0
  7 18  1  0  0  0  0
  8 10  1  0  0  0  0
  8 18  2  0  0  0  0
  9 19  1  0  0  0  0
 10 19  2  0  0  0  0
 11 20  2  0  0  0  0
 12 15  2  0  0  0  0
 12 20  1  0  0  0  0
 13 16  2  0  0  0  0
 13 28  1  0  0  0  0
 14 16  1  0  0  0  0
 14 17  2  0  0  0  0
 15 27  1  0  0  0  0
 16 26  1  0  0  0  0
 17 28  1  0  0  0  0
 18 29  1  0  0  0  0
 19 30  1  0  0  0  0
 20 33  1  0  0  0  0
 21 26  1  0  0  0  0
 21 30  1  0  0  0  0
 21 31  2  0  0  0  0
 22 24  1  0  0  0  0
 22 29  1  0  0  0  0
 23 25  1  0  0  0  0
 23 29  1  0  0  0  0
 24 32  1  0  0  0  0
 25 32  1  0  0  0  0
 27 30  1  0  0  0  0
  1 34  1  0  0  0  0
  2 35  1  0  0  0  0
  3 36  1  0  0  0  0
  4 37  1  0  0  0  0
  5 38  1  0  0  0  0
  6 39  1  0  0  0  0
  7 40  1  0  0  0  0
  8 41  1  0  0  0  0
  9 42  1  0  0  0  0
 10 43  1  0  0  0  0
 11 44  1  0  0  0  0
 12 45  1  0  0  0  0
 13 46  1  0  0  0  0
 22 47  1  0  0  0  0
 22 48  1  0  0  0  0
 23 49  1  0  0  0  0
 23 50  1  0  0  0  0
 24 51  1  0  0  0  0
 24 52  1  0  0  0  0
 25 53  1  0  0  0  0
 25 54  1  0  0  0  0
 26 55  1  0  0  0  0
 26 56  1  0  0  0  0
 27 57  1  0  0  0  0
 27 58  1  0  0  0  0
 28 59  1  0  0  0  0
M  END
> <clash_score>
0

> <docking_score>
-8.07573127746582

$$$$
BENZO_477_1
  -OEChem-08222011323D

 52 55  0     0  0  0  0  0  0999 V2000
   14.1526    1.4694   24.0176 C   0  0  0  0  0  0  0  0  0  0  0  0
   13.3741    0.8121   24.9701 C   0  0  0  0  0  0  0  0  0  0  0  0
   13.5446    2.0802   22.9208 C   0  0  0  0  0  0  0  0  0  0  0  0
   11.9875    0.7654   24.8258 C   0  0  0  0  0  0  0  0  0  0  0  0
   12.1580    2.0335   22.7765 C   0  0  0  0  0  0  0  0  0  0  0  0
    9.0720   -1.1280   24.8640 C   0  0  0  0  0  0  0  0  0  0  0  0
    9.7200   -2.2600   22.8630 C   0  0  0  0  0  0  0  0  0  0  0  0
    8.9960   -2.3380   25.5320 C   0  0  0  0  0  0  0  0  0  0  0  0
    9.6730   -3.4710   23.5300 C   0  0  0  0  0  0  0  0  0  0  0  0
   11.3794    1.3761   23.7290 C   0  0  0  0  0  0  0  0  0  0  0  0
    9.3350   -1.0880   23.5010 C   0  0  0  0  0  0  0  0  0  0  0  0
    9.3070   -3.5340   24.8780 C   0  0  0  0  0  0  0  0  0  0  0  0
    5.8300    0.9190   18.6970 C   0  0  0  0  0  0  0  0  0  0  0  0
    7.3170   -0.1610   19.8550 C   0  0  0  0  0  0  0  0  0  0  0  0
    4.6890    1.6810   18.4640 C   0  0  0  0  0  0  0  0  0  0  0  0
    3.9160    2.0630   19.5520 C   0  0  0  0  0  0  0  0  0  0  0  0
    4.2750    1.7050   20.8490 C   0  0  0  0  0  0  0  0  0  0  0  0
    5.4210    0.9600   21.0930 C   0  0  0  0  0  0  0  0  0  0  0  0
    9.0420    0.3700   21.5280 C   0  0  0  0  0  0  0  0  0  0  0  0
    8.0128   -5.2151   26.1416 C   0  0  0  0  0  0  0  0  0  0  0  0
   10.4372   -5.5860   25.6589 C   0  0  0  0  0  0  0  0  0  0  0  0
    9.8870    1.3260   23.5730 C   0  0  0  0  0  0  0  0  0  0  0  0
    8.1890   -0.7180   20.8700 C   0  0  0  0  0  0  0  0  0  0  0  0
    6.7580    0.3810   17.8350 N   0  0  0  0  0  0  0  0  0  0  0  0
    7.6390   -0.2680   18.5410 N   0  0  0  0  0  0  0  0  0  0  0  0
    6.1790    0.5730   19.9990 N   0  0  0  0  0  0  0  0  0  0  0  0
    9.4560    0.1560   22.8130 N   0  0  0  0  0  0  0  0  0  0  0  0
    9.2543   -4.7552   25.5519 N   0  0  0  0  0  0  0  0  0  0  0  0
    9.2690    1.4140   20.9380 O   0  0  0  0  0  0  0  0  0  0  0  0
   15.2322    1.5068   24.1308 H   0  0  0  0  0  0  0  0  0  0  0  0
   13.8473    0.3374   25.8248 H   0  0  0  0  0  0  0  0  0  0  0  0
   14.1503    2.5930   22.1795 H   0  0  0  0  0  0  0  0  0  0  0  0
   11.3889    0.2508   25.5729 H   0  0  0  0  0  0  0  0  0  0  0  0
   11.6930    2.5120   21.9187 H   0  0  0  0  0  0  0  0  0  0  0  0
    8.9217   -0.1995   25.4232 H   0  0  0  0  0  0  0  0  0  0  0  0
   10.0643   -2.2341   21.8254 H   0  0  0  0  0  0  0  0  0  0  0  0
    8.6893   -2.3540   26.5808 H   0  0  0  0  0  0  0  0  0  0  0  0
    9.9257   -4.3898   22.9921 H   0  0  0  0  0  0  0  0  0  0  0  0
    4.3966    1.9781   17.4720 H   0  0  0  0  0  0  0  0  0  0  0  0
    3.0227    2.6498   19.3695 H   0  0  0  0  0  0  0  0  0  0  0  0
    3.6570    2.0037   21.7071 H   0  0  0  0  0  0  0  0  0  0  0  0
    5.7202    0.6868   22.0802 H   0  0  0  0  0  0  0  0  0  0  0  0
    8.1744   -6.1904   26.6238 H   0  0  0  0  0  0  0  0  0  0  0  0
    7.6718   -4.4870   26.8924 H   0  0  0  0  0  0  0  0  0  0  0  0
    7.2494   -5.3166   25.3561 H   0  0  0  0  0  0  0  0  0  0  0  0
   10.1946   -6.4996   26.2216 H   0  0  0  0  0  0  0  0  0  0  0  0
   10.7865   -5.8578   24.6518 H   0  0  0  0  0  0  0  0  0  0  0  0
   11.2285   -5.0312   26.1842 H   0  0  0  0  0  0  0  0  0  0  0  0
    9.3974    1.2912   24.5523 H   0  0  0  0  0  0  0  0  0  0  0  0
    9.5159    2.2168   23.0554 H   0  0  0  0  0  0  0  0  0  0  0  0
    7.6082   -1.2086   21.6619 H   0  0  0  0  0  0  0  0  0  0  0  0
    8.8721   -1.4652   20.4453 H   0  0  0  0  0  0  0  0  0  0  0  0
  1  2  1  0  0  0  0
  1  3  2  0  0  0  0
  2  4  2  0  0  0  0
  3  5  1  0  0  0  0
  4 10  1  0  0  0  0
  5 10  2  0  0  0  0
  6  8  2  0  0  0  0
  6 11  1  0  0  0  0
  7  9  1  0  0  0  0
  7 11  2  0  0  0  0
  8 12  1  0  0  0  0
  9 12  2  0  0  0  0
 10 22  1  0  0  0  0
 11 27  1  0  0  0  0
 12 28  1  0  0  0  0
 13 15  1  0  0  0  0
 13 24  2  0  0  0  0
 13 26  1  0  0  0  0
 14 23  1  0  0  0  0
 14 25  2  0  0  0  0
 14 26  1  0  0  0  0
 15 16  2  0  0  0  0
 16 17  1  0  0  0  0
 17 18  2  0  0  0  0
 18 26  1  0  0  0  0
 19 23  1  0  0  0  0
 19 27  1  0  0  0  0
 19 29  2  0  0  0  0
 20 28  1  0  0  0  0
 21 28  1  0  0  0  0
 22 27  1  0  0  0  0
 24 25  1  0  0  0  0
  1 30  1  0  0  0  0
  2 31  1  0  0  0  0
  3 32  1  0  0  0  0
  4 33  1  0  0  0  0
  5 34  1  0  0  0  0
  6 35  1  0  0  0  0
  7 36  1  0  0  0  0
  8 37  1  0  0  0  0
  9 38  1  0  0  0  0
 15 39  1  0  0  0  0
 16 40  1  0  0  0  0
 17 41  1  0  0  0  0
 18 42  1  0  0  0  0
 20 43  1  0  0  0  0
 20 44  1  0  0  0  0
 20 45  1  0  0  0  0
 21 46  1  0  0  0  0
 21 47  1  0  0  0  0
 21 48  1  0  0  0  0
 22 49  1  0  0  0  0
 22 50  1  0  0  0  0
 23 51  1  0  0  0  0
 23 52  1  0  0  0  0
M  END
> <clash_score>
0

> <docking_score>
-9.934853553771973

$$$$
BENZO_476_1
  -OEChem-08222011323D

 49 52  0     0  0  0  0  0  0999 V2000
    9.0720   -1.1280   24.8640 C   0  0  0  0  0  0  0  0  0  0  0  0
    9.7200   -2.2600   22.8630 C   0  0  0  0  0  0  0  0  0  0  0  0
    8.9960   -2.3380   25.5320 C   0  0  0  0  0  0  0  0  0  0  0  0
    9.6730   -3.4710   23.5300 C   0  0  0  0  0  0  0  0  0  0  0  0
   12.2913    1.4279   22.6355 C   0  0  0  0  0  0  0  0  0  0  0  0
   13.6024    1.4662   23.0564 C   0  0  0  0  0  0  0  0  0  0  0  0
   12.0284    1.3764   24.9443 C   0  0  0  0  0  0  0  0  0  0  0  0
   11.3794    1.3761   23.7290 C   0  0  0  0  0  0  0  0  0  0  0  0
    9.3350   -1.0880   23.5010 C   0  0  0  0  0  0  0  0  0  0  0  0
    9.3070   -3.5340   24.8780 C   0  0  0  0  0  0  0  0  0  0  0  0
    5.8300    0.9190   18.6970 C   0  0  0  0  0  0  0  0  0  0  0  0
    7.3170   -0.1610   19.8550 C   0  0  0  0  0  0  0  0  0  0  0  0
    4.6890    1.6810   18.4640 C   0  0  0  0  0  0  0  0  0  0  0  0
    3.9160    2.0630   19.5520 C   0  0  0  0  0  0  0  0  0  0  0  0
    4.2750    1.7050   20.8490 C   0  0  0  0  0  0  0  0  0  0  0  0
    5.4210    0.9600   21.0930 C   0  0  0  0  0  0  0  0  0  0  0  0
    9.0420    0.3700   21.5280 C   0  0  0  0  0  0  0  0  0  0  0  0
    8.0128   -5.2151   26.1416 C   0  0  0  0  0  0  0  0  0  0  0  0
   10.4372   -5.5860   25.6589 C   0  0  0  0  0  0  0  0  0  0  0  0
    9.8870    1.3260   23.5730 C   0  0  0  0  0  0  0  0  0  0  0  0
    8.1890   -0.7180   20.8700 C   0  0  0  0  0  0  0  0  0  0  0  0
    6.7580    0.3810   17.8350 N   0  0  0  0  0  0  0  0  0  0  0  0
    7.6390   -0.2680   18.5410 N   0  0  0  0  0  0  0  0  0  0  0  0
    6.1790    0.5730   19.9990 N   0  0  0  0  0  0  0  0  0  0  0  0
    9.4560    0.1560   22.8130 N   0  0  0  0  0  0  0  0  0  0  0  0
    9.2543   -4.7552   25.5519 N   0  0  0  0  0  0  0  0  0  0  0  0
    9.2690    1.4140   20.9380 O   0  0  0  0  0  0  0  0  0  0  0  0
   13.7301    1.4394   24.7638 S   0  0  0  0  0  0  0  0  0  0  0  0
    8.9217   -0.1995   25.4232 H   0  0  0  0  0  0  0  0  0  0  0  0
   10.0643   -2.2341   21.8254 H   0  0  0  0  0  0  0  0  0  0  0  0
    8.6893   -2.3540   26.5808 H   0  0  0  0  0  0  0  0  0  0  0  0
    9.9257   -4.3898   22.9921 H   0  0  0  0  0  0  0  0  0  0  0  0
   12.0045    1.4365   21.5915 H   0  0  0  0  0  0  0  0  0  0  0  0
   14.4914    1.5078   22.4430 H   0  0  0  0  0  0  0  0  0  0  0  0
   11.5886    1.3416   25.9314 H   0  0  0  0  0  0  0  0  0  0  0  0
    4.3966    1.9781   17.4720 H   0  0  0  0  0  0  0  0  0  0  0  0
    3.0227    2.6498   19.3695 H   0  0  0  0  0  0  0  0  0  0  0  0
    3.6570    2.0037   21.7071 H   0  0  0  0  0  0  0  0  0  0  0  0
    5.7202    0.6868   22.0802 H   0  0  0  0  0  0  0  0  0  0  0  0
    8.1744   -6.1904   26.6238 H   0  0  0  0  0  0  0  0  0  0  0  0
    7.6718   -4.4870   26.8924 H   0  0  0  0  0  0  0  0  0  0  0  0
    7.2494   -5.3166   25.3561 H   0  0  0  0  0  0  0  0  0  0  0  0
   10.1946   -6.4996   26.2216 H   0  0  0  0  0  0  0  0  0  0  0  0
   10.7865   -5.8578   24.6518 H   0  0  0  0  0  0  0  0  0  0  0  0
   11.2285   -5.0312   26.1842 H   0  0  0  0  0  0  0  0  0  0  0  0
    9.3974    1.2912   24.5523 H   0  0  0  0  0  0  0  0  0  0  0  0
    9.5159    2.2168   23.0554 H   0  0  0  0  0  0  0  0  0  0  0  0
    7.6082   -1.2086   21.6619 H   0  0  0  0  0  0  0  0  0  0  0  0
    8.8721   -1.4652   20.4453 H   0  0  0  0  0  0  0  0  0  0  0  0
  1  3  2  0  0  0  0
  1  9  1  0  0  0  0
  2  4  1  0  0  0  0
  2  9  2  0  0  0  0
  3 10  1  0  0  0  0
  4 10  2  0  0  0  0
  5  6  2  0  0  0  0
  5  8  1  0  0  0  0
  6 28  1  0  0  0  0
  7  8  2  0  0  0  0
  7 28  1  0  0  0  0
  8 20  1  0  0  0  0
  9 25  1  0  0  0  0
 10 26  1  0  0  0  0
 11 13  1  0  0  0  0
 11 22  2  0  0  0  0
 11 24  1  0  0  0  0
 12 21  1  0  0  0  0
 12 23  2  0  0  0  0
 12 24  1  0  0  0  0
 13 14  2  0  0  0  0
 14 15  1  0  0  0  0
 15 16  2  0  0  0  0
 16 24  1  0  0  0  0
 17 21  1  0  0  0  0
 17 25  1  0  0  0  0
 17 27  2  0  0  0  0
 18 26  1  0  0  0  0
 19 26  1  0  0  0  0
 20 25  1  0  0  0  0
 22 23  1  0  0  0  0
  1 29  1  0  0  0  0
  2 30  1  0  0  0  0
  3 31  1  0  0  0  0
  4 32  1  0  0  0  0
  5 33  1  0  0  0  0
  6 34  1  0  0  0  0
  7 35  1  0  0  0  0
 13 36  1  0  0  0  0
 14 37  1  0  0  0  0
 15 38  1  0  0  0  0
 16 39  1  0  0  0  0
 18 40  1  0  0  0  0
 18 41  1  0  0  0  0
 18 42  1  0  0  0  0
 19 43  1  0  0  0  0
 19 44  1  0  0  0  0
 19 45  1  0  0  0  0
 20 46  1  0  0  0  0
 20 47  1  0  0  0  0
 21 48  1  0  0  0  0
 21 49  1  0  0  0  0
M  END
> <clash_score>
0

> <docking_score>
-10.013703346252441

$$$$
BENZO_475_1
  -OEChem-08222011323D

 59 63  0     0  0  0  0  0  0999 V2000
    4.2750    1.7050   20.8490 C   0  0  0  0  0  0  0  0  0  0  0  0
    3.9160    2.0630   19.5520 C   0  0  0  0  0  0  0  0  0  0  0  0
    5.4210    0.9600   21.0930 C   0  0  0  0  0  0  0  0  0  0  0  0
    4.6890    1.6810   18.4640 C   0  0  0  0  0  0  0  0  0  0  0  0
    8.9960   -2.3380   25.5320 C   0  0  0  0  0  0  0  0  0  0  0  0
    9.6730   -3.4710   23.5300 C   0  0  0  0  0  0  0  0  0  0  0  0
    9.0720   -1.1280   24.8640 C   0  0  0  0  0  0  0  0  0  0  0  0
    9.7200   -2.2600   22.8630 C   0  0  0  0  0  0  0  0  0  0  0  0
   12.1233    1.3811   24.9242 C   0  0  0  0  0  0  0  0  0  0  0  0
    7.6390   -0.2680   18.5410 C   0  0  0  0  0  0  0  0  0  0  0  0
   12.3262    1.4247   22.7351 C   0  0  0  0  0  0  0  0  0  0  0  0
    6.1790    0.5730   19.9990 C   0  0  0  0  0  0  0  0  0  0  0  0
   11.3794    1.3761   23.7290 C   0  0  0  0  0  0  0  0  0  0  0  0
    7.3170   -0.1610   19.8550 C   0  0  0  0  0  0  0  0  0  0  0  0
    5.8300    0.9190   18.6970 C   0  0  0  0  0  0  0  0  0  0  0  0
    9.3070   -3.5340   24.8780 C   0  0  0  0  0  0  0  0  0  0  0  0
    9.3350   -1.0880   23.5010 C   0  0  0  0  0  0  0  0  0  0  0  0
    9.0420    0.3700   21.5280 C   0  0  0  0  0  0  0  0  0  0  0  0
   10.0771   -5.0255   26.7193 C   0  0  0  0  0  0  0  0  0  0  0  0
    8.0926   -5.6195   25.4071 C   0  0  0  0  0  0  0  0  0  0  0  0
    9.1933   -4.9427   27.9592 C   0  0  0  0  0  0  0  0  0  0  0  0
    7.2756   -5.5290   26.6968 C   0  0  0  0  0  0  0  0  0  0  0  0
   14.8305    1.5084   22.7418 C   0  0  0  0  0  0  0  0  0  0  0  0
    8.1890   -0.7180   20.8700 C   0  0  0  0  0  0  0  0  0  0  0  0
    9.8870    1.3260   23.5730 C   0  0  0  0  0  0  0  0  0  0  0  0
   13.4410    1.4289   24.7112 N   0  0  0  0  0  0  0  0  0  0  0  0
    6.7580    0.3810   17.8350 N   0  0  0  0  0  0  0  0  0  0  0  0
   13.5326    1.4543   23.3707 N   0  0  0  0  0  0  0  0  0  0  0  0
    9.2563   -4.7368   25.5413 N   0  0  0  0  0  0  0  0  0  0  0  0
    9.4560    0.1560   22.8130 N   0  0  0  0  0  0  0  0  0  0  0  0
    9.2690    1.4140   20.9380 O   0  0  0  0  0  0  0  0  0  0  0  0
    8.0883   -5.8458   27.8325 O   0  0  0  0  0  0  0  0  0  0  0  0
    3.6455    2.0160   21.6826 H   0  0  0  0  0  0  0  0  0  0  0  0
    3.0144    2.6518   19.3914 H   0  0  0  0  0  0  0  0  0  0  0  0
    5.6994    0.6999   22.1043 H   0  0  0  0  0  0  0  0  0  0  0  0
    4.4044    1.9727   17.4490 H   0  0  0  0  0  0  0  0  0  0  0  0
    8.6905   -2.3533   26.5810 H   0  0  0  0  0  0  0  0  0  0  0  0
    9.9266   -4.3896   22.9917 H   0  0  0  0  0  0  0  0  0  0  0  0
    8.9233   -0.1992   25.4231 H   0  0  0  0  0  0  0  0  0  0  0  0
   10.0650   -2.2330   21.8256 H   0  0  0  0  0  0  0  0  0  0  0  0
   11.7624    1.3510   25.9426 H   0  0  0  0  0  0  0  0  0  0  0  0
    8.4839   -0.7930   18.0639 H   0  0  0  0  0  0  0  0  0  0  0  0
   12.2462    1.4390   21.6566 H   0  0  0  0  0  0  0  0  0  0  0  0
   10.9045   -4.3143   26.8097 H   0  0  0  0  0  0  0  0  0  0  0  0
   10.4942   -6.0352   26.6309 H   0  0  0  0  0  0  0  0  0  0  0  0
    8.4337   -6.6479   25.2595 H   0  0  0  0  0  0  0  0  0  0  0  0
    7.4706   -5.3291   24.5580 H   0  0  0  0  0  0  0  0  0  0  0  0
    9.7636   -5.2397   28.8419 H   0  0  0  0  0  0  0  0  0  0  0  0
    8.8237   -3.9268   28.1248 H   0  0  0  0  0  0  0  0  0  0  0  0
    6.8339   -4.5336   26.8232 H   0  0  0  0  0  0  0  0  0  0  0  0
    6.4550   -6.2521   26.6644 H   0  0  0  0  0  0  0  0  0  0  0  0
   15.0990    2.5601   22.6124 H   0  0  0  0  0  0  0  0  0  0  0  0
   15.5636    1.0018   23.3756 H   0  0  0  0  0  0  0  0  0  0  0  0
   14.7841    1.0025   21.7733 H   0  0  0  0  0  0  0  0  0  0  0  0
    7.6077   -1.2085   21.6613 H   0  0  0  0  0  0  0  0  0  0  0  0
    8.8716   -1.4650   20.4448 H   0  0  0  0  0  0  0  0  0  0  0  0
    9.3974    1.2912   24.5523 H   0  0  0  0  0  0  0  0  0  0  0  0
    9.5159    2.2168   23.0554 H   0  0  0  0  0  0  0  0  0  0  0  0
    6.7270    0.4925   16.8305 H   0  0  0  0  0  0  0  0  0  0  0  0
  1  2  1  0  0  0  0
  1  3  2  0  0  0  0
  2  4  2  0  0  0  0
  3 12  1  0  0  0  0
  4 15  1  0  0  0  0
  5  7  2  0  0  0  0
  5 16  1  0  0  0  0
  6  8  1  0  0  0  0
  6 16  2  0  0  0  0
  7 17  1  0  0  0  0
  8 17  2  0  0  0  0
  9 13  1  0  0  0  0
  9 26  2  0  0  0  0
 10 14  2  0  0  0  0
 10 27  1  0  0  0  0
 11 13  2  0  0  0  0
 11 28  1  0  0  0  0
 12 14  1  0  0  0  0
 12 15  2  0  0  0  0
 13 25  1  0  0  0  0
 14 24  1  0  0  0  0
 15 27  1  0  0  0  0
 16 29  1  0  0  0  0
 17 30  1  0  0  0  0
 18 24  1  0  0  0  0
 18 30  1  0  0  0  0
 18 31  2  0  0  0  0
 19 21  1  0  0  0  0
 19 29  1  0  0  0  0
 20 22  1  0  0  0  0
 20 29  1  0  0  0  0
 21 32  1  0  0  0  0
 22 32  1  0  0  0  0
 23 28  1  0  0  0  0
 25 30  1  0  0  0  0
 26 28  1  0  0  0  0
  1 33  1  0  0  0  0
  2 34  1  0  0  0  0
  3 35  1  0  0  0  0
  4 36  1  0  0  0  0
  5 37  1  0  0  0  0
  6 38  1  0  0  0  0
  7 39  1  0  0  0  0
  8 40  1  0  0  0  0
  9 41  1  0  0  0  0
 10 42  1  0  0  0  0
 11 43  1  0  0  0  0
 19 44  1  0  0  0  0
 19 45  1  0  0  0  0
 20 46  1  0  0  0  0
 20 47  1  0  0  0  0
 21 48  1  0  0  0  0
 21 49  1  0  0  0  0
 22 50  1  0  0  0  0
 22 51  1  0  0  0  0
 23 52  1  0  0  0  0
 23 53  1  0  0  0  0
 23 54  1  0  0  0  0
 24 55  1  0  0  0  0
 24 56  1  0  0  0  0
 25 57  1  0  0  0  0
 25 58  1  0  0  0  0
 27 59  1  0  0  0  0
M  END
> <clash_score>
0

> <docking_score>
-8.443652153015137

$$$$
BENZO_478_1
  -OEChem-08222011323D

 52 55  0     0  0  0  0  0  0999 V2000
    6.4089    2.0844   24.8766 C   0  0  0  0  0  0  0  0  0  0  0  0
    7.4847    1.4191   24.2887 C   0  0  0  0  0  0  0  0  0  0  0  0
    9.0720   -1.1280   24.8640 C   0  0  0  0  0  0  0  0  0  0  0  0
    9.7200   -2.2600   22.8630 C   0  0  0  0  0  0  0  0  0  0  0  0
    8.9960   -2.3380   25.5320 C   0  0  0  0  0  0  0  0  0  0  0  0
    9.6730   -3.4710   23.5300 C   0  0  0  0  0  0  0  0  0  0  0  0
    6.5777    3.3741   25.3805 C   0  0  0  0  0  0  0  0  0  0  0  0
    8.8980    3.3330   24.7088 C   0  0  0  0  0  0  0  0  0  0  0  0
    8.7292    2.0433   24.2048 C   0  0  0  0  0  0  0  0  0  0  0  0
    9.3350   -1.0880   23.5010 C   0  0  0  0  0  0  0  0  0  0  0  0
    9.3070   -3.5340   24.8780 C   0  0  0  0  0  0  0  0  0  0  0  0
    7.8222    3.9984   25.2966 C   0  0  0  0  0  0  0  0  0  0  0  0
    5.8300    0.9190   18.6970 C   0  0  0  0  0  0  0  0  0  0  0  0
    7.3170   -0.1610   19.8550 C   0  0  0  0  0  0  0  0  0  0  0  0
    4.6890    1.6810   18.4640 C   0  0  0  0  0  0  0  0  0  0  0  0
    3.9160    2.0630   19.5520 C   0  0  0  0  0  0  0  0  0  0  0  0
    4.2750    1.7050   20.8490 C   0  0  0  0  0  0  0  0  0  0  0  0
    5.4210    0.9600   21.0930 C   0  0  0  0  0  0  0  0  0  0  0  0
    9.0420    0.3700   21.5280 C   0  0  0  0  0  0  0  0  0  0  0  0
    8.0128   -5.2151   26.1416 C   0  0  0  0  0  0  0  0  0  0  0  0
   10.4372   -5.5860   25.6589 C   0  0  0  0  0  0  0  0  0  0  0  0
    9.8870    1.3260   23.5730 C   0  0  0  0  0  0  0  0  0  0  0  0
    8.1890   -0.7180   20.8700 C   0  0  0  0  0  0  0  0  0  0  0  0
    6.7580    0.3810   17.8350 N   0  0  0  0  0  0  0  0  0  0  0  0
    7.6390   -0.2680   18.5410 N   0  0  0  0  0  0  0  0  0  0  0  0
    6.1790    0.5730   19.9990 N   0  0  0  0  0  0  0  0  0  0  0  0
    9.4560    0.1560   22.8130 N   0  0  0  0  0  0  0  0  0  0  0  0
    9.2543   -4.7552   25.5519 N   0  0  0  0  0  0  0  0  0  0  0  0
    9.2690    1.4140   20.9380 O   0  0  0  0  0  0  0  0  0  0  0  0
    8.0301    5.5891   25.9196 Cl  0  0  0  0  0  0  0  0  0  0  0  0
    5.4400    1.5979   24.9418 H   0  0  0  0  0  0  0  0  0  0  0  0
    7.3441    0.4143   23.8988 H   0  0  0  0  0  0  0  0  0  0  0  0
    8.9217   -0.1995   25.4232 H   0  0  0  0  0  0  0  0  0  0  0  0
   10.0643   -2.2341   21.8254 H   0  0  0  0  0  0  0  0  0  0  0  0
    8.6893   -2.3540   26.5808 H   0  0  0  0  0  0  0  0  0  0  0  0
    9.9257   -4.3898   22.9921 H   0  0  0  0  0  0  0  0  0  0  0  0
    5.7304    3.8806   25.8363 H   0  0  0  0  0  0  0  0  0  0  0  0
    9.8703    3.8156   24.6405 H   0  0  0  0  0  0  0  0  0  0  0  0
    4.3966    1.9781   17.4720 H   0  0  0  0  0  0  0  0  0  0  0  0
    3.0227    2.6498   19.3695 H   0  0  0  0  0  0  0  0  0  0  0  0
    3.6570    2.0037   21.7071 H   0  0  0  0  0  0  0  0  0  0  0  0
    5.7202    0.6868   22.0802 H   0  0  0  0  0  0  0  0  0  0  0  0
    8.1744   -6.1904   26.6238 H   0  0  0  0  0  0  0  0  0  0  0  0
    7.6718   -4.4870   26.8924 H   0  0  0  0  0  0  0  0  0  0  0  0
    7.2494   -5.3166   25.3561 H   0  0  0  0  0  0  0  0  0  0  0  0
   10.1946   -6.4996   26.2216 H   0  0  0  0  0  0  0  0  0  0  0  0
   10.7865   -5.8578   24.6518 H   0  0  0  0  0  0  0  0  0  0  0  0
   11.2285   -5.0312   26.1842 H   0  0  0  0  0  0  0  0  0  0  0  0
   10.4274    1.9911   22.8906 H   0  0  0  0  0  0  0  0  0  0  0  0
   10.6011    0.9882   24.3313 H   0  0  0  0  0  0  0  0  0  0  0  0
    7.6082   -1.2086   21.6619 H   0  0  0  0  0  0  0  0  0  0  0  0
    8.8721   -1.4652   20.4453 H   0  0  0  0  0  0  0  0  0  0  0  0
  1  2  2  0  0  0  0
  1  7  1  0  0  0  0
  2  9  1  0  0  0  0
  3  5  2  0  0  0  0
  3 10  1  0  0  0  0
  4  6  1  0  0  0  0
  4 10  2  0  0  0  0
  5 11  1  0  0  0  0
  6 11  2  0  0  0  0
  7 12  2  0  0  0  0
  8  9  2  0  0  0  0
  8 12  1  0  0  0  0
  9 22  1  0  0  0  0
 10 27  1  0  0  0  0
 11 28  1  0  0  0  0
 12 30  1  0  0  0  0
 13 15  1  0  0  0  0
 13 24  2  0  0  0  0
 13 26  1  0  0  0  0
 14 23  1  0  0  0  0
 14 25  2  0  0  0  0
 14 26  1  0  0  0  0
 15 16  2  0  0  0  0
 16 17  1  0  0  0  0
 17 18  2  0  0  0  0
 18 26  1  0  0  0  0
 19 23  1  0  0  0  0
 19 27  1  0  0  0  0
 19 29  2  0  0  0  0
 20 28  1  0  0  0  0
 21 28  1  0  0  0  0
 22 27  1  0  0  0  0
 24 25  1  0  0  0  0
  1 31  1  0  0  0  0
  2 32  1  0  0  0  0
  3 33  1  0  0  0  0
  4 34  1  0  0  0  0
  5 35  1  0  0  0  0
  6 36  1  0  0  0  0
  7 37  1  0  0  0  0
  8 38  1  0  0  0  0
 15 39  1  0  0  0  0
 16 40  1  0  0  0  0
 17 41  1  0  0  0  0
 18 42  1  0  0  0  0
 20 43  1  0  0  0  0
 20 44  1  0  0  0  0
 20 45  1  0  0  0  0
 21 46  1  0  0  0  0
 21 47  1  0  0  0  0
 21 48  1  0  0  0  0
 22 49  1  0  0  0  0
 22 50  1  0  0  0  0
 23 51  1  0  0  0  0
 23 52  1  0  0  0  0
M  END
> <clash_score>
0

> <docking_score>
-9.32087516784668

$$$$
BENZO_479_1
  -OEChem-08222011323D

 52 55  0     0  0  0  0  0  0999 V2000
    9.0720   -1.1280   24.8640 C   0  0  0  0  0  0  0  0  0  0  0  0
    9.7200   -2.2600   22.8630 C   0  0  0  0  0  0  0  0  0  0  0  0
    8.9960   -2.3380   25.5320 C   0  0  0  0  0  0  0  0  0  0  0  0
    9.6730   -3.4710   23.5300 C   0  0  0  0  0  0  0  0  0  0  0  0
   12.1233    1.3811   24.9242 C   0  0  0  0  0  0  0  0  0  0  0  0
   12.3261    1.4247   22.7351 C   0  0  0  0  0  0  0  0  0  0  0  0
   11.3794    1.3761   23.7290 C   0  0  0  0  0  0  0  0  0  0  0  0
    9.3350   -1.0880   23.5010 C   0  0  0  0  0  0  0  0  0  0  0  0
    9.3070   -3.5340   24.8780 C   0  0  0  0  0  0  0  0  0  0  0  0
    5.8300    0.9190   18.6970 C   0  0  0  0  0  0  0  0  0  0  0  0
    7.3170   -0.1610   19.8550 C   0  0  0  0  0  0  0  0  0  0  0  0
    4.6890    1.6810   18.4640 C   0  0  0  0  0  0  0  0  0  0  0  0
    3.9160    2.0630   19.5520 C   0  0  0  0  0  0  0  0  0  0  0  0
    4.2750    1.7050   20.8490 C   0  0  0  0  0  0  0  0  0  0  0  0
    5.4210    0.9600   21.0930 C   0  0  0  0  0  0  0  0  0  0  0  0
    9.0420    0.3700   21.5280 C   0  0  0  0  0  0  0  0  0  0  0  0
   14.8305    1.5084   22.7418 C   0  0  0  0  0  0  0  0  0  0  0  0
    8.0128   -5.2151   26.1416 C   0  0  0  0  0  0  0  0  0  0  0  0
   10.4372   -5.5860   25.6589 C   0  0  0  0  0  0  0  0  0  0  0  0
    9.8870    1.3260   23.5730 C   0  0  0  0  0  0  0  0  0  0  0  0
    8.1890   -0.7180   20.8700 C   0  0  0  0  0  0  0  0  0  0  0  0
   13.4410    1.4289   24.7112 N   0  0  0  0  0  0  0  0  0  0  0  0
    6.7580    0.3810   17.8350 N   0  0  0  0  0  0  0  0  0  0  0  0
    7.6390   -0.2680   18.5410 N   0  0  0  0  0  0  0  0  0  0  0  0
   13.5326    1.4543   23.3706 N   0  0  0  0  0  0  0  0  0  0  0  0
    6.1790    0.5730   19.9990 N   0  0  0  0  0  0  0  0  0  0  0  0
    9.4560    0.1560   22.8130 N   0  0  0  0  0  0  0  0  0  0  0  0
    9.2543   -4.7552   25.5519 N   0  0  0  0  0  0  0  0  0  0  0  0
    9.2690    1.4140   20.9380 O   0  0  0  0  0  0  0  0  0  0  0  0
    8.9217   -0.1995   25.4232 H   0  0  0  0  0  0  0  0  0  0  0  0
   10.0643   -2.2341   21.8254 H   0  0  0  0  0  0  0  0  0  0  0  0
    8.6893   -2.3540   26.5808 H   0  0  0  0  0  0  0  0  0  0  0  0
    9.9257   -4.3898   22.9921 H   0  0  0  0  0  0  0  0  0  0  0  0
   11.7624    1.3510   25.9426 H   0  0  0  0  0  0  0  0  0  0  0  0
   12.2462    1.4390   21.6566 H   0  0  0  0  0  0  0  0  0  0  0  0
    4.3966    1.9781   17.4720 H   0  0  0  0  0  0  0  0  0  0  0  0
    3.0227    2.6498   19.3695 H   0  0  0  0  0  0  0  0  0  0  0  0
    3.6570    2.0037   21.7071 H   0  0  0  0  0  0  0  0  0  0  0  0
    5.7202    0.6868   22.0802 H   0  0  0  0  0  0  0  0  0  0  0  0
   15.0990    2.5601   22.6124 H   0  0  0  0  0  0  0  0  0  0  0  0
   15.5636    1.0018   23.3756 H   0  0  0  0  0  0  0  0  0  0  0  0
   14.7841    1.0025   21.7733 H   0  0  0  0  0  0  0  0  0  0  0  0
    8.1744   -6.1904   26.6238 H   0  0  0  0  0  0  0  0  0  0  0  0
    7.6718   -4.4870   26.8924 H   0  0  0  0  0  0  0  0  0  0  0  0
    7.2494   -5.3166   25.3561 H   0  0  0  0  0  0  0  0  0  0  0  0
   10.1946   -6.4996   26.2216 H   0  0  0  0  0  0  0  0  0  0  0  0
   10.7865   -5.8578   24.6518 H   0  0  0  0  0  0  0  0  0  0  0  0
   11.2285   -5.0312   26.1842 H   0  0  0  0  0  0  0  0  0  0  0  0
    9.3974    1.2912   24.5523 H   0  0  0  0  0  0  0  0  0  0  0  0
    9.5159    2.2168   23.0554 H   0  0  0  0  0  0  0  0  0  0  0  0
    7.6082   -1.2086   21.6619 H   0  0  0  0  0  0  0  0  0  0  0  0
    8.8721   -1.4652   20.4453 H   0  0  0  0  0  0  0  0  0  0  0  0
  1  3  2  0  0  0  0
  1  8  1  0  0  0  0
  2  4  1  0  0  0  0
  2  8  2  0  0  0  0
  3  9  1  0  0  0  0
  4  9  2  0  0  0  0
  5  7  1  0  0  0  0
  5 22  2  0  0  0  0
  6  7  2  0  0  0  0
  6 25  1  0  0  0  0
  7 20  1  0  0  0  0
  8 27  1  0  0  0  0
  9 28  1  0  0  0  0
 10 12  1  0  0  0  0
 10 23  2  0  0  0  0
 10 26  1  0  0  0  0
 11 21  1  0  0  0  0
 11 24  2  0  0  0  0
 11 26  1  0  0  0  0
 12 13  2  0  0  0  0
 13 14  1  0  0  0  0
 14 15  2  0  0  0  0
 15 26  1  0  0  0  0
 16 21  1  0  0  0  0
 16 27  1  0  0  0  0
 16 29  2  0  0  0  0
 17 25  1  0  0  0  0
 18 28  1  0  0  0  0
 19 28  1  0  0  0  0
 20 27  1  0  0  0  0
 22 25  1  0  0  0  0
 23 24  1  0  0  0  0
  1 30  1  0  0  0  0
  2 31  1  0  0  0  0
  3 32  1  0  0  0  0
  4 33  1  0  0  0  0
  5 34  1  0  0  0  0
  6 35  1  0  0  0  0
 12 36  1  0  0  0  0
 13 37  1  0  0  0  0
 14 38  1  0  0  0  0
 15 39  1  0  0  0  0
 17 40  1  0  0  0  0
 17 41  1  0  0  0  0
 17 42  1  0  0  0  0
 18 43  1  0  0  0  0
 18 44  1  0  0  0  0
 18 45  1  0  0  0  0
 19 46  1  0  0  0  0
 19 47  1  0  0  0  0
 19 48  1  0  0  0  0
 20 49  1  0  0  0  0
 20 50  1  0  0  0  0
 21 51  1  0  0  0  0
 21 52  1  0  0  0  0
M  END
> <clash_score>
0

> <docking_score>
-9.650993347167969

$$$$
BENZO_480_1
  -OEChem-08222011363D

 51 54  0     0  0  0  0  0  0999 V2000
    8.9960   -2.3380   25.5320 C   0  0  0  0  0  0  0  0  0  0  0  0
    9.6730   -3.4710   23.5300 C   0  0  0  0  0  0  0  0  0  0  0  0
    9.0720   -1.1280   24.8640 C   0  0  0  0  0  0  0  0  0  0  0  0
    9.7200   -2.2600   22.8630 C   0  0  0  0  0  0  0  0  0  0  0  0
   12.2913    1.4279   22.6355 C   0  0  0  0  0  0  0  0  0  0  0  0
   13.6024    1.4662   23.0564 C   0  0  0  0  0  0  0  0  0  0  0  0
   12.0284    1.3764   24.9443 C   0  0  0  0  0  0  0  0  0  0  0  0
   11.3794    1.3761   23.7290 C   0  0  0  0  0  0  0  0  0  0  0  0
    9.3070   -3.5340   24.8780 C   0  0  0  0  0  0  0  0  0  0  0  0
    9.3350   -1.0880   23.5010 C   0  0  0  0  0  0  0  0  0  0  0  0
    5.8300    0.9190   18.6970 C   0  0  0  0  0  0  0  0  0  0  0  0
    7.3170   -0.1610   19.8550 C   0  0  0  0  0  0  0  0  0  0  0  0
    4.6890    1.6810   18.4640 C   0  0  0  0  0  0  0  0  0  0  0  0
    3.9160    2.0630   19.5520 C   0  0  0  0  0  0  0  0  0  0  0  0
    4.2750    1.7050   20.8490 C   0  0  0  0  0  0  0  0  0  0  0  0
    5.4210    0.9600   21.0930 C   0  0  0  0  0  0  0  0  0  0  0  0
    9.0420    0.3700   21.5280 C   0  0  0  0  0  0  0  0  0  0  0  0
    9.5333   -6.0236   25.0414 C   0  0  0  0  0  0  0  0  0  0  0  0
   10.6329   -7.3747   26.8775 C   0  0  0  0  0  0  0  0  0  0  0  0
    9.8870    1.3260   23.5730 C   0  0  0  0  0  0  0  0  0  0  0  0
    8.1890   -0.7180   20.8700 C   0  0  0  0  0  0  0  0  0  0  0  0
    9.3522   -7.0865   26.1149 C   0  0  0  0  0  0  0  0  0  0  0  0
    6.7580    0.3810   17.8350 N   0  0  0  0  0  0  0  0  0  0  0  0
    7.6390   -0.2680   18.5410 N   0  0  0  0  0  0  0  0  0  0  0  0
    6.1790    0.5730   19.9990 N   0  0  0  0  0  0  0  0  0  0  0  0
    9.2546   -4.7422   25.5438 N   0  0  0  0  0  0  0  0  0  0  0  0
    9.4560    0.1560   22.8130 N   0  0  0  0  0  0  0  0  0  0  0  0
    9.2690    1.4140   20.9380 O   0  0  0  0  0  0  0  0  0  0  0  0
    9.8805   -6.3053   23.8992 O   0  0  0  0  0  0  0  0  0  0  0  0
   13.7301    1.4394   24.7638 S   0  0  0  0  0  0  0  0  0  0  0  0
    8.6895   -2.3529   26.5807 H   0  0  0  0  0  0  0  0  0  0  0  0
    9.9262   -4.3897   22.9916 H   0  0  0  0  0  0  0  0  0  0  0  0
    8.9224   -0.1998   25.4238 H   0  0  0  0  0  0  0  0  0  0  0  0
   10.0649   -2.2343   21.8258 H   0  0  0  0  0  0  0  0  0  0  0  0
   12.0045    1.4365   21.5915 H   0  0  0  0  0  0  0  0  0  0  0  0
   14.4914    1.5078   22.4430 H   0  0  0  0  0  0  0  0  0  0  0  0
   11.5886    1.3416   25.9314 H   0  0  0  0  0  0  0  0  0  0  0  0
    4.3966    1.9781   17.4720 H   0  0  0  0  0  0  0  0  0  0  0  0
    3.0227    2.6498   19.3695 H   0  0  0  0  0  0  0  0  0  0  0  0
    3.6570    2.0037   21.7071 H   0  0  0  0  0  0  0  0  0  0  0  0
    5.7202    0.6868   22.0802 H   0  0  0  0  0  0  0  0  0  0  0  0
   11.4241   -7.7171   26.2024 H   0  0  0  0  0  0  0  0  0  0  0  0
   10.4628   -8.1531   27.6276 H   0  0  0  0  0  0  0  0  0  0  0  0
   10.9949   -6.4779   27.3911 H   0  0  0  0  0  0  0  0  0  0  0  0
    9.3974    1.2912   24.5523 H   0  0  0  0  0  0  0  0  0  0  0  0
    9.5159    2.2168   23.0554 H   0  0  0  0  0  0  0  0  0  0  0  0
    7.6082   -1.2086   21.6619 H   0  0  0  0  0  0  0  0  0  0  0  0
    8.8721   -1.4652   20.4453 H   0  0  0  0  0  0  0  0  0  0  0  0
    8.5795   -6.7462   26.8138 H   0  0  0  0  0  0  0  0  0  0  0  0
    8.9965   -8.0064   25.6368 H   0  0  0  0  0  0  0  0  0  0  0  0
    8.9776   -4.7057   26.5317 H   0  0  0  0  0  0  0  0  0  0  0  0
  1  3  2  0  0  0  0
  1  9  1  0  0  0  0
  2  4  1  0  0  0  0
  2  9  2  0  0  0  0
  3 10  1  0  0  0  0
  4 10  2  0  0  0  0
  5  6  2  0  0  0  0
  5  8  1  0  0  0  0
  6 30  1  0  0  0  0
  7  8  2  0  0  0  0
  7 30  1  0  0  0  0
  8 20  1  0  0  0  0
  9 26  1  0  0  0  0
 10 27  1  0  0  0  0
 11 13  1  0  0  0  0
 11 23  2  0  0  0  0
 11 25  1  0  0  0  0
 12 21  1  0  0  0  0
 12 24  2  0  0  0  0
 12 25  1  0  0  0  0
 13 14  2  0  0  0  0
 14 15  1  0  0  0  0
 15 16  2  0  0  0  0
 16 25  1  0  0  0  0
 17 21  1  0  0  0  0
 17 27  1  0  0  0  0
 17 28  2  0  0  0  0
 18 22  1  0  0  0  0
 18 26  1  0  0  0  0
 18 29  2  0  0  0  0
 19 22  1  0  0  0  0
 20 27  1  0  0  0  0
 23 24  1  0  0  0  0
  1 31  1  0  0  0  0
  2 32  1  0  0  0  0
  3 33  1  0  0  0  0
  4 34  1  0  0  0  0
  5 35  1  0  0  0  0
  6 36  1  0  0  0  0
  7 37  1  0  0  0  0
 13 38  1  0  0  0  0
 14 39  1  0  0  0  0
 15 40  1  0  0  0  0
 16 41  1  0  0  0  0
 19 42  1  0  0  0  0
 19 43  1  0  0  0  0
 19 44  1  0  0  0  0
 20 45  1  0  0  0  0
 20 46  1  0  0  0  0
 21 47  1  0  0  0  0
 21 48  1  0  0  0  0
 22 49  1  0  0  0  0
 22 50  1  0  0  0  0
 26 51  1  0  0  0  0
M  END
> <clash_score>
1.4986520705794621

> <docking_score>
-6.819424629211426

$$$$
BENZO_481_1
  -OEChem-08222011363D

 54 57  0     0  0  0  0  0  0999 V2000
   14.1526    1.4694   24.0176 C   0  0  0  0  0  0  0  0  0  0  0  0
   13.3741    0.8121   24.9701 C   0  0  0  0  0  0  0  0  0  0  0  0
   13.5446    2.0802   22.9208 C   0  0  0  0  0  0  0  0  0  0  0  0
   11.9875    0.7654   24.8258 C   0  0  0  0  0  0  0  0  0  0  0  0
   12.1580    2.0335   22.7765 C   0  0  0  0  0  0  0  0  0  0  0  0
    8.9960   -2.3380   25.5320 C   0  0  0  0  0  0  0  0  0  0  0  0
    9.6730   -3.4710   23.5300 C   0  0  0  0  0  0  0  0  0  0  0  0
    9.0720   -1.1280   24.8640 C   0  0  0  0  0  0  0  0  0  0  0  0
    9.7200   -2.2600   22.8630 C   0  0  0  0  0  0  0  0  0  0  0  0
   11.3794    1.3761   23.7290 C   0  0  0  0  0  0  0  0  0  0  0  0
    9.3070   -3.5340   24.8780 C   0  0  0  0  0  0  0  0  0  0  0  0
    9.3350   -1.0880   23.5010 C   0  0  0  0  0  0  0  0  0  0  0  0
    5.8300    0.9190   18.6970 C   0  0  0  0  0  0  0  0  0  0  0  0
    7.3170   -0.1610   19.8550 C   0  0  0  0  0  0  0  0  0  0  0  0
    4.6890    1.6810   18.4640 C   0  0  0  0  0  0  0  0  0  0  0  0
    3.9160    2.0630   19.5520 C   0  0  0  0  0  0  0  0  0  0  0  0
    4.2750    1.7050   20.8490 C   0  0  0  0  0  0  0  0  0  0  0  0
    5.4210    0.9600   21.0930 C   0  0  0  0  0  0  0  0  0  0  0  0
    9.0420    0.3700   21.5280 C   0  0  0  0  0  0  0  0  0  0  0  0
    9.5333   -6.0236   25.0414 C   0  0  0  0  0  0  0  0  0  0  0  0
   10.6329   -7.3747   26.8775 C   0  0  0  0  0  0  0  0  0  0  0  0
    9.8870    1.3260   23.5730 C   0  0  0  0  0  0  0  0  0  0  0  0
    8.1890   -0.7180   20.8700 C   0  0  0  0  0  0  0  0  0  0  0  0
    9.3522   -7.0865   26.1149 C   0  0  0  0  0  0  0  0  0  0  0  0
    6.7580    0.3810   17.8350 N   0  0  0  0  0  0  0  0  0  0  0  0
    7.6390   -0.2680   18.5410 N   0  0  0  0  0  0  0  0  0  0  0  0
    6.1790    0.5730   19.9990 N   0  0  0  0  0  0  0  0  0  0  0  0
    9.2546   -4.7422   25.5438 N   0  0  0  0  0  0  0  0  0  0  0  0
    9.4560    0.1560   22.8130 N   0  0  0  0  0  0  0  0  0  0  0  0
    9.2690    1.4140   20.9380 O   0  0  0  0  0  0  0  0  0  0  0  0
    9.8805   -6.3053   23.8992 O   0  0  0  0  0  0  0  0  0  0  0  0
   15.2322    1.5068   24.1308 H   0  0  0  0  0  0  0  0  0  0  0  0
   13.8473    0.3374   25.8248 H   0  0  0  0  0  0  0  0  0  0  0  0
   14.1503    2.5930   22.1795 H   0  0  0  0  0  0  0  0  0  0  0  0
   11.3889    0.2508   25.5729 H   0  0  0  0  0  0  0  0  0  0  0  0
   11.6930    2.5120   21.9187 H   0  0  0  0  0  0  0  0  0  0  0  0
    8.6895   -2.3529   26.5807 H   0  0  0  0  0  0  0  0  0  0  0  0
    9.9262   -4.3897   22.9916 H   0  0  0  0  0  0  0  0  0  0  0  0
    8.9224   -0.1998   25.4238 H   0  0  0  0  0  0  0  0  0  0  0  0
   10.0649   -2.2343   21.8258 H   0  0  0  0  0  0  0  0  0  0  0  0
    4.3966    1.9781   17.4720 H   0  0  0  0  0  0  0  0  0  0  0  0
    3.0227    2.6498   19.3695 H   0  0  0  0  0  0  0  0  0  0  0  0
    3.6570    2.0037   21.7071 H   0  0  0  0  0  0  0  0  0  0  0  0
    5.7202    0.6868   22.0802 H   0  0  0  0  0  0  0  0  0  0  0  0
   11.4241   -7.7171   26.2024 H   0  0  0  0  0  0  0  0  0  0  0  0
   10.4628   -8.1531   27.6276 H   0  0  0  0  0  0  0  0  0  0  0  0
   10.9949   -6.4779   27.3911 H   0  0  0  0  0  0  0  0  0  0  0  0
    9.3974    1.2912   24.5523 H   0  0  0  0  0  0  0  0  0  0  0  0
    9.5159    2.2168   23.0554 H   0  0  0  0  0  0  0  0  0  0  0  0
    7.6082   -1.2086   21.6619 H   0  0  0  0  0  0  0  0  0  0  0  0
    8.8721   -1.4652   20.4453 H   0  0  0  0  0  0  0  0  0  0  0  0
    8.5795   -6.7462   26.8138 H   0  0  0  0  0  0  0  0  0  0  0  0
    8.9965   -8.0064   25.6368 H   0  0  0  0  0  0  0  0  0  0  0  0
    8.9776   -4.7057   26.5317 H   0  0  0  0  0  0  0  0  0  0  0  0
  1  2  1  0  0  0  0
  1  3  2  0  0  0  0
  2  4  2  0  0  0  0
  3  5  1  0  0  0  0
  4 10  1  0  0  0  0
  5 10  2  0  0  0  0
  6  8  2  0  0  0  0
  6 11  1  0  0  0  0
  7  9  1  0  0  0  0
  7 11  2  0  0  0  0
  8 12  1  0  0  0  0
  9 12  2  0  0  0  0
 10 22  1  0  0  0  0
 11 28  1  0  0  0  0
 12 29  1  0  0  0  0
 13 15  1  0  0  0  0
 13 25  2  0  0  0  0
 13 27  1  0  0  0  0
 14 23  1  0  0  0  0
 14 26  2  0  0  0  0
 14 27  1  0  0  0  0
 15 16  2  0  0  0  0
 16 17  1  0  0  0  0
 17 18  2  0  0  0  0
 18 27  1  0  0  0  0
 19 23  1  0  0  0  0
 19 29  1  0  0  0  0
 19 30  2  0  0  0  0
 20 24  1  0  0  0  0
 20 28  1  0  0  0  0
 20 31  2  0  0  0  0
 21 24  1  0  0  0  0
 22 29  1  0  0  0  0
 25 26  1  0  0  0  0
  1 32  1  0  0  0  0
  2 33  1  0  0  0  0
  3 34  1  0  0  0  0
  4 35  1  0  0  0  0
  5 36  1  0  0  0  0
  6 37  1  0  0  0  0
  7 38  1  0  0  0  0
  8 39  1  0  0  0  0
  9 40  1  0  0  0  0
 15 41  1  0  0  0  0
 16 42  1  0  0  0  0
 17 43  1  0  0  0  0
 18 44  1  0  0  0  0
 21 45  1  0  0  0  0
 21 46  1  0  0  0  0
 21 47  1  0  0  0  0
 22 48  1  0  0  0  0
 22 49  1  0  0  0  0
 23 50  1  0  0  0  0
 23 51  1  0  0  0  0
 24 52  1  0  0  0  0
 24 53  1  0  0  0  0
 28 54  1  0  0  0  0
M  END
> <clash_score>
1.4986520705794621

> <docking_score>
-6.740574836730957

$$$$
BENZO_482_1
  -OEChem-08222011363D

 54 57  0     0  0  0  0  0  0999 V2000
    6.4089    2.0844   24.8766 C   0  0  0  0  0  0  0  0  0  0  0  0
    7.4847    1.4191   24.2887 C   0  0  0  0  0  0  0  0  0  0  0  0
    8.9960   -2.3380   25.5320 C   0  0  0  0  0  0  0  0  0  0  0  0
    9.6730   -3.4710   23.5300 C   0  0  0  0  0  0  0  0  0  0  0  0
    9.0720   -1.1280   24.8640 C   0  0  0  0  0  0  0  0  0  0  0  0
    9.7200   -2.2600   22.8630 C   0  0  0  0  0  0  0  0  0  0  0  0
    6.5777    3.3741   25.3805 C   0  0  0  0  0  0  0  0  0  0  0  0
    8.8980    3.3330   24.7088 C   0  0  0  0  0  0  0  0  0  0  0  0
    8.7292    2.0433   24.2048 C   0  0  0  0  0  0  0  0  0  0  0  0
    9.3070   -3.5340   24.8780 C   0  0  0  0  0  0  0  0  0  0  0  0
    9.3350   -1.0880   23.5010 C   0  0  0  0  0  0  0  0  0  0  0  0
    7.8222    3.9984   25.2966 C   0  0  0  0  0  0  0  0  0  0  0  0
    5.8300    0.9190   18.6970 C   0  0  0  0  0  0  0  0  0  0  0  0
    7.3170   -0.1610   19.8550 C   0  0  0  0  0  0  0  0  0  0  0  0
    4.6890    1.6810   18.4640 C   0  0  0  0  0  0  0  0  0  0  0  0
    3.9160    2.0630   19.5520 C   0  0  0  0  0  0  0  0  0  0  0  0
    4.2750    1.7050   20.8490 C   0  0  0  0  0  0  0  0  0  0  0  0
    5.4210    0.9600   21.0930 C   0  0  0  0  0  0  0  0  0  0  0  0
    9.0420    0.3700   21.5280 C   0  0  0  0  0  0  0  0  0  0  0  0
    9.5333   -6.0236   25.0414 C   0  0  0  0  0  0  0  0  0  0  0  0
   10.6329   -7.3747   26.8775 C   0  0  0  0  0  0  0  0  0  0  0  0
    9.8870    1.3260   23.5730 C   0  0  0  0  0  0  0  0  0  0  0  0
    8.1890   -0.7180   20.8700 C   0  0  0  0  0  0  0  0  0  0  0  0
    9.3522   -7.0865   26.1149 C   0  0  0  0  0  0  0  0  0  0  0  0
    6.7580    0.3810   17.8350 N   0  0  0  0  0  0  0  0  0  0  0  0
    7.6390   -0.2680   18.5410 N   0  0  0  0  0  0  0  0  0  0  0  0
    6.1790    0.5730   19.9990 N   0  0  0  0  0  0  0  0  0  0  0  0
    9.2546   -4.7422   25.5438 N   0  0  0  0  0  0  0  0  0  0  0  0
    9.4560    0.1560   22.8130 N   0  0  0  0  0  0  0  0  0  0  0  0
    9.2690    1.4140   20.9380 O   0  0  0  0  0  0  0  0  0  0  0  0
    9.8805   -6.3053   23.8992 O   0  0  0  0  0  0  0  0  0  0  0  0
    8.0301    5.5891   25.9196 Cl  0  0  0  0  0  0  0  0  0  0  0  0
    5.4400    1.5979   24.9418 H   0  0  0  0  0  0  0  0  0  0  0  0
    7.3441    0.4143   23.8988 H   0  0  0  0  0  0  0  0  0  0  0  0
    8.6895   -2.3529   26.5807 H   0  0  0  0  0  0  0  0  0  0  0  0
    9.9262   -4.3897   22.9916 H   0  0  0  0  0  0  0  0  0  0  0  0
    8.9224   -0.1998   25.4238 H   0  0  0  0  0  0  0  0  0  0  0  0
   10.0649   -2.2343   21.8258 H   0  0  0  0  0  0  0  0  0  0  0  0
    5.7304    3.8806   25.8363 H   0  0  0  0  0  0  0  0  0  0  0  0
    9.8703    3.8156   24.6405 H   0  0  0  0  0  0  0  0  0  0  0  0
    4.3966    1.9781   17.4720 H   0  0  0  0  0  0  0  0  0  0  0  0
    3.0227    2.6498   19.3695 H   0  0  0  0  0  0  0  0  0  0  0  0
    3.6570    2.0037   21.7071 H   0  0  0  0  0  0  0  0  0  0  0  0
    5.7202    0.6868   22.0802 H   0  0  0  0  0  0  0  0  0  0  0  0
   11.4241   -7.7171   26.2024 H   0  0  0  0  0  0  0  0  0  0  0  0
   10.4628   -8.1531   27.6276 H   0  0  0  0  0  0  0  0  0  0  0  0
   10.9949   -6.4779   27.3911 H   0  0  0  0  0  0  0  0  0  0  0  0
   10.4274    1.9911   22.8906 H   0  0  0  0  0  0  0  0  0  0  0  0
   10.6011    0.9882   24.3313 H   0  0  0  0  0  0  0  0  0  0  0  0
    7.6082   -1.2086   21.6619 H   0  0  0  0  0  0  0  0  0  0  0  0
    8.8721   -1.4652   20.4453 H   0  0  0  0  0  0  0  0  0  0  0  0
    8.5795   -6.7462   26.8138 H   0  0  0  0  0  0  0  0  0  0  0  0
    8.9965   -8.0064   25.6368 H   0  0  0  0  0  0  0  0  0  0  0  0
    8.9776   -4.7057   26.5317 H   0  0  0  0  0  0  0  0  0  0  0  0
  1  2  2  0  0  0  0
  1  7  1  0  0  0  0
  2  9  1  0  0  0  0
  3  5  2  0  0  0  0
  3 10  1  0  0  0  0
  4  6  1  0  0  0  0
  4 10  2  0  0  0  0
  5 11  1  0  0  0  0
  6 11  2  0  0  0  0
  7 12  2  0  0  0  0
  8  9  2  0  0  0  0
  8 12  1  0  0  0  0
  9 22  1  0  0  0  0
 10 28  1  0  0  0  0
 11 29  1  0  0  0  0
 12 32  1  0  0  0  0
 13 15  1  0  0  0  0
 13 25  2  0  0  0  0
 13 27  1  0  0  0  0
 14 23  1  0  0  0  0
 14 26  2  0  0  0  0
 14 27  1  0  0  0  0
 15 16  2  0  0  0  0
 16 17  1  0  0  0  0
 17 18  2  0  0  0  0
 18 27  1  0  0  0  0
 19 23  1  0  0  0  0
 19 29  1  0  0  0  0
 19 30  2  0  0  0  0
 20 24  1  0  0  0  0
 20 28  1  0  0  0  0
 20 31  2  0  0  0  0
 21 24  1  0  0  0  0
 22 29  1  0  0  0  0
 25 26  1  0  0  0  0
  1 33  1  0  0  0  0
  2 34  1  0  0  0  0
  3 35  1  0  0  0  0
  4 36  1  0  0  0  0
  5 37  1  0  0  0  0
  6 38  1  0  0  0  0
  7 39  1  0  0  0  0
  8 40  1  0  0  0  0
 15 41  1  0  0  0  0
 16 42  1  0  0  0  0
 17 43  1  0  0  0  0
 18 44  1  0  0  0  0
 21 45  1  0  0  0  0
 21 46  1  0  0  0  0
 21 47  1  0  0  0  0
 22 48  1  0  0  0  0
 22 49  1  0  0  0  0
 23 50  1  0  0  0  0
 23 51  1  0  0  0  0
 24 52  1  0  0  0  0
 24 53  1  0  0  0  0
 28 54  1  0  0  0  0
M  END
> <clash_score>
1.4986520705794621

> <docking_score>
-6.126596927642822

$$$$
BENZO_483_1
  -OEChem-08222011363D

 54 57  0     0  0  0  0  0  0999 V2000
    8.9960   -2.3380   25.5320 C   0  0  0  0  0  0  0  0  0  0  0  0
    9.6730   -3.4710   23.5300 C   0  0  0  0  0  0  0  0  0  0  0  0
    9.0720   -1.1280   24.8640 C   0  0  0  0  0  0  0  0  0  0  0  0
    9.7200   -2.2600   22.8630 C   0  0  0  0  0  0  0  0  0  0  0  0
   12.1233    1.3811   24.9242 C   0  0  0  0  0  0  0  0  0  0  0  0
   12.3261    1.4247   22.7351 C   0  0  0  0  0  0  0  0  0  0  0  0
   11.3794    1.3761   23.7290 C   0  0  0  0  0  0  0  0  0  0  0  0
    9.3070   -3.5340   24.8780 C   0  0  0  0  0  0  0  0  0  0  0  0
    9.3350   -1.0880   23.5010 C   0  0  0  0  0  0  0  0  0  0  0  0
    5.8300    0.9190   18.6970 C   0  0  0  0  0  0  0  0  0  0  0  0
    7.3170   -0.1610   19.8550 C   0  0  0  0  0  0  0  0  0  0  0  0
    4.6890    1.6810   18.4640 C   0  0  0  0  0  0  0  0  0  0  0  0
    3.9160    2.0630   19.5520 C   0  0  0  0  0  0  0  0  0  0  0  0
    4.2750    1.7050   20.8490 C   0  0  0  0  0  0  0  0  0  0  0  0
    5.4210    0.9600   21.0930 C   0  0  0  0  0  0  0  0  0  0  0  0
    9.0420    0.3700   21.5280 C   0  0  0  0  0  0  0  0  0  0  0  0
    9.5333   -6.0236   25.0414 C   0  0  0  0  0  0  0  0  0  0  0  0
   10.6329   -7.3747   26.8775 C   0  0  0  0  0  0  0  0  0  0  0  0
   14.8305    1.5084   22.7418 C   0  0  0  0  0  0  0  0  0  0  0  0
    9.8870    1.3260   23.5730 C   0  0  0  0  0  0  0  0  0  0  0  0
    8.1890   -0.7180   20.8700 C   0  0  0  0  0  0  0  0  0  0  0  0
    9.3522   -7.0865   26.1149 C   0  0  0  0  0  0  0  0  0  0  0  0
   13.4410    1.4289   24.7112 N   0  0  0  0  0  0  0  0  0  0  0  0
    6.7580    0.3810   17.8350 N   0  0  0  0  0  0  0  0  0  0  0  0
    7.6390   -0.2680   18.5410 N   0  0  0  0  0  0  0  0  0  0  0  0
   13.5326    1.4543   23.3706 N   0  0  0  0  0  0  0  0  0  0  0  0
    6.1790    0.5730   19.9990 N   0  0  0  0  0  0  0  0  0  0  0  0
    9.2546   -4.7422   25.5438 N   0  0  0  0  0  0  0  0  0  0  0  0
    9.4560    0.1560   22.8130 N   0  0  0  0  0  0  0  0  0  0  0  0
    9.2690    1.4140   20.9380 O   0  0  0  0  0  0  0  0  0  0  0  0
    9.8805   -6.3053   23.8992 O   0  0  0  0  0  0  0  0  0  0  0  0
    8.6895   -2.3529   26.5807 H   0  0  0  0  0  0  0  0  0  0  0  0
    9.9262   -4.3897   22.9916 H   0  0  0  0  0  0  0  0  0  0  0  0
    8.9224   -0.1998   25.4238 H   0  0  0  0  0  0  0  0  0  0  0  0
   10.0649   -2.2343   21.8258 H   0  0  0  0  0  0  0  0  0  0  0  0
   11.7624    1.3510   25.9426 H   0  0  0  0  0  0  0  0  0  0  0  0
   12.2462    1.4390   21.6566 H   0  0  0  0  0  0  0  0  0  0  0  0
    4.3966    1.9781   17.4720 H   0  0  0  0  0  0  0  0  0  0  0  0
    3.0227    2.6498   19.3695 H   0  0  0  0  0  0  0  0  0  0  0  0
    3.6570    2.0037   21.7071 H   0  0  0  0  0  0  0  0  0  0  0  0
    5.7202    0.6868   22.0802 H   0  0  0  0  0  0  0  0  0  0  0  0
   11.4241   -7.7171   26.2024 H   0  0  0  0  0  0  0  0  0  0  0  0
   10.4628   -8.1531   27.6276 H   0  0  0  0  0  0  0  0  0  0  0  0
   10.9949   -6.4779   27.3911 H   0  0  0  0  0  0  0  0  0  0  0  0
   15.0990    2.5601   22.6124 H   0  0  0  0  0  0  0  0  0  0  0  0
   15.5636    1.0018   23.3756 H   0  0  0  0  0  0  0  0  0  0  0  0
   14.7841    1.0025   21.7733 H   0  0  0  0  0  0  0  0  0  0  0  0
    9.3974    1.2912   24.5523 H   0  0  0  0  0  0  0  0  0  0  0  0
    9.5159    2.2168   23.0554 H   0  0  0  0  0  0  0  0  0  0  0  0
    7.6082   -1.2086   21.6619 H   0  0  0  0  0  0  0  0  0  0  0  0
    8.8721   -1.4652   20.4453 H   0  0  0  0  0  0  0  0  0  0  0  0
    8.5795   -6.7462   26.8138 H   0  0  0  0  0  0  0  0  0  0  0  0
    8.9965   -8.0064   25.6368 H   0  0  0  0  0  0  0  0  0  0  0  0
    8.9776   -4.7057   26.5317 H   0  0  0  0  0  0  0  0  0  0  0  0
  1  3  2  0  0  0  0
  1  8  1  0  0  0  0
  2  4  1  0  0  0  0
  2  8  2  0  0  0  0
  3  9  1  0  0  0  0
  4  9  2  0  0  0  0
  5  7  1  0  0  0  0
  5 23  2  0  0  0  0
  6  7  2  0  0  0  0
  6 26  1  0  0  0  0
  7 20  1  0  0  0  0
  8 28  1  0  0  0  0
  9 29  1  0  0  0  0
 10 12  1  0  0  0  0
 10 24  2  0  0  0  0
 10 27  1  0  0  0  0
 11 21  1  0  0  0  0
 11 25  2  0  0  0  0
 11 27  1  0  0  0  0
 12 13  2  0  0  0  0
 13 14  1  0  0  0  0
 14 15  2  0  0  0  0
 15 27  1  0  0  0  0
 16 21  1  0  0  0  0
 16 29  1  0  0  0  0
 16 30  2  0  0  0  0
 17 22  1  0  0  0  0
 17 28  1  0  0  0  0
 17 31  2  0  0  0  0
 18 22  1  0  0  0  0
 19 26  1  0  0  0  0
 20 29  1  0  0  0  0
 23 26  1  0  0  0  0
 24 25  1  0  0  0  0
  1 32  1  0  0  0  0
  2 33  1  0  0  0  0
  3 34  1  0  0  0  0
  4 35  1  0  0  0  0
  5 36  1  0  0  0  0
  6 37  1  0  0  0  0
 12 38  1  0  0  0  0
 13 39  1  0  0  0  0
 14 40  1  0  0  0  0
 15 41  1  0  0  0  0
 18 42  1  0  0  0  0
 18 43  1  0  0  0  0
 18 44  1  0  0  0  0
 19 45  1  0  0  0  0
 19 46  1  0  0  0  0
 19 47  1  0  0  0  0
 20 48  1  0  0  0  0
 20 49  1  0  0  0  0
 21 50  1  0  0  0  0
 21 51  1  0  0  0  0
 22 52  1  0  0  0  0
 22 53  1  0  0  0  0
 28 54  1  0  0  0  0
M  END
> <clash_score>
1.4986520705794621

> <docking_score>
-6.456715106964111

$$$$
BENZO_485_1
  -OEChem-08222011363D

 59 63  0     0  0  0  0  0  0999 V2000
   14.1526    1.4694   24.0176 C   0  0  0  0  0  0  0  0  0  0  0  0
   13.3741    0.8121   24.9701 C   0  0  0  0  0  0  0  0  0  0  0  0
   13.5446    2.0802   22.9208 C   0  0  0  0  0  0  0  0  0  0  0  0
   11.9875    0.7654   24.8258 C   0  0  0  0  0  0  0  0  0  0  0  0
   12.1580    2.0335   22.7765 C   0  0  0  0  0  0  0  0  0  0  0  0
    8.9960   -2.3380   25.5320 C   0  0  0  0  0  0  0  0  0  0  0  0
    9.6730   -3.4710   23.5300 C   0  0  0  0  0  0  0  0  0  0  0  0
    9.0720   -1.1280   24.8640 C   0  0  0  0  0  0  0  0  0  0  0  0
    9.7200   -2.2600   22.8630 C   0  0  0  0  0  0  0  0  0  0  0  0
   11.3794    1.3761   23.7290 C   0  0  0  0  0  0  0  0  0  0  0  0
    9.3070   -3.5340   24.8780 C   0  0  0  0  0  0  0  0  0  0  0  0
    9.3350   -1.0880   23.5010 C   0  0  0  0  0  0  0  0  0  0  0  0
    5.8300    0.9190   18.6970 C   0  0  0  0  0  0  0  0  0  0  0  0
    7.3170   -0.1610   19.8550 C   0  0  0  0  0  0  0  0  0  0  0  0
    4.6890    1.6810   18.4640 C   0  0  0  0  0  0  0  0  0  0  0  0
    3.9160    2.0630   19.5520 C   0  0  0  0  0  0  0  0  0  0  0  0
    4.2750    1.7050   20.8490 C   0  0  0  0  0  0  0  0  0  0  0  0
    5.4210    0.9600   21.0930 C   0  0  0  0  0  0  0  0  0  0  0  0
    9.0420    0.3700   21.5280 C   0  0  0  0  0  0  0  0  0  0  0  0
    7.3635   -6.1361   27.1888 C   0  0  0  0  0  0  0  0  0  0  0  0
    8.1961   -4.9735   27.7341 C   0  0  0  0  0  0  0  0  0  0  0  0
    7.1942   -6.0394   25.6709 C   0  0  0  0  0  0  0  0  0  0  0  0
    9.5196   -4.8490   26.9797 C   0  0  0  0  0  0  0  0  0  0  0  0
    8.5442   -5.8838   24.9639 C   0  0  0  0  0  0  0  0  0  0  0  0
    9.8870    1.3260   23.5730 C   0  0  0  0  0  0  0  0  0  0  0  0
    8.1890   -0.7180   20.8700 C   0  0  0  0  0  0  0  0  0  0  0  0
    6.7580    0.3810   17.8350 N   0  0  0  0  0  0  0  0  0  0  0  0
    7.6390   -0.2680   18.5410 N   0  0  0  0  0  0  0  0  0  0  0  0
    6.1790    0.5730   19.9990 N   0  0  0  0  0  0  0  0  0  0  0  0
    9.2562   -4.7384   25.5422 N   0  0  0  0  0  0  0  0  0  0  0  0
    9.4560    0.1560   22.8130 N   0  0  0  0  0  0  0  0  0  0  0  0
    9.2690    1.4140   20.9380 O   0  0  0  0  0  0  0  0  0  0  0  0
   15.2322    1.5068   24.1308 H   0  0  0  0  0  0  0  0  0  0  0  0
   13.8473    0.3374   25.8248 H   0  0  0  0  0  0  0  0  0  0  0  0
   14.1503    2.5930   22.1795 H   0  0  0  0  0  0  0  0  0  0  0  0
   11.3889    0.2508   25.5729 H   0  0  0  0  0  0  0  0  0  0  0  0
   11.6930    2.5120   21.9187 H   0  0  0  0  0  0  0  0  0  0  0  0
    8.6905   -2.3533   26.5810 H   0  0  0  0  0  0  0  0  0  0  0  0
    9.9266   -4.3896   22.9917 H   0  0  0  0  0  0  0  0  0  0  0  0
    8.9233   -0.1992   25.4231 H   0  0  0  0  0  0  0  0  0  0  0  0
   10.0650   -2.2330   21.8256 H   0  0  0  0  0  0  0  0  0  0  0  0
    4.3966    1.9781   17.4720 H   0  0  0  0  0  0  0  0  0  0  0  0
    3.0227    2.6498   19.3695 H   0  0  0  0  0  0  0  0  0  0  0  0
    3.6570    2.0037   21.7071 H   0  0  0  0  0  0  0  0  0  0  0  0
    5.7202    0.6868   22.0802 H   0  0  0  0  0  0  0  0  0  0  0  0
    7.8482   -7.0901   27.4469 H   0  0  0  0  0  0  0  0  0  0  0  0
    6.3760   -6.1438   27.6724 H   0  0  0  0  0  0  0  0  0  0  0  0
    7.6307   -4.0424   27.6403 H   0  0  0  0  0  0  0  0  0  0  0  0
    8.3915   -5.1310   28.7968 H   0  0  0  0  0  0  0  0  0  0  0  0
    6.6888   -6.9376   25.3010 H   0  0  0  0  0  0  0  0  0  0  0  0
    6.5515   -5.1859   25.4257 H   0  0  0  0  0  0  0  0  0  0  0  0
   10.0492   -3.9640   27.3414 H   0  0  0  0  0  0  0  0  0  0  0  0
   10.1431   -5.7254   27.1778 H   0  0  0  0  0  0  0  0  0  0  0  0
    9.1338   -6.7931   25.0868 H   0  0  0  0  0  0  0  0  0  0  0  0
    8.3656   -5.7264   23.8998 H   0  0  0  0  0  0  0  0  0  0  0  0
    9.3974    1.2912   24.5523 H   0  0  0  0  0  0  0  0  0  0  0  0
    9.5159    2.2168   23.0554 H   0  0  0  0  0  0  0  0  0  0  0  0
    7.5972   -1.2056   21.6500 H   0  0  0  0  0  0  0  0  0  0  0  0
    8.8612   -1.4622   20.4334 H   0  0  0  0  0  0  0  0  0  0  0  0
  1  2  1  0  0  0  0
  1  3  2  0  0  0  0
  2  4  2  0  0  0  0
  3  5  1  0  0  0  0
  4 10  1  0  0  0  0
  5 10  2  0  0  0  0
  6  8  2  0  0  0  0
  6 11  1  0  0  0  0
  7  9  1  0  0  0  0
  7 11  2  0  0  0  0
  8 12  1  0  0  0  0
  9 12  2  0  0  0  0
 10 25  1  0  0  0  0
 11 30  1  0  0  0  0
 12 31  1  0  0  0  0
 13 15  1  0  0  0  0
 13 27  2  0  0  0  0
 13 29  1  0  0  0  0
 14 26  1  0  0  0  0
 14 28  2  0  0  0  0
 14 29  1  0  0  0  0
 15 16  2  0  0  0  0
 16 17  1  0  0  0  0
 17 18  2  0  0  0  0
 18 29  1  0  0  0  0
 19 26  1  0  0  0  0
 19 31  1  0  0  0  0
 19 32  2  0  0  0  0
 20 21  1  0  0  0  0
 20 22  1  0  0  0  0
 21 23  1  0  0  0  0
 22 24  1  0  0  0  0
 23 30  1  0  0  0  0
 24 30  1  0  0  0  0
 25 31  1  0  0  0  0
 27 28  1  0  0  0  0
  1 33  1  0  0  0  0
  2 34  1  0  0  0  0
  3 35  1  0  0  0  0
  4 36  1  0  0  0  0
  5 37  1  0  0  0  0
  6 38  1  0  0  0  0
  7 39  1  0  0  0  0
  8 40  1  0  0  0  0
  9 41  1  0  0  0  0
 15 42  1  0  0  0  0
 16 43  1  0  0  0  0
 17 44  1  0  0  0  0
 18 45  1  0  0  0  0
 20 46  1  0  0  0  0
 20 47  1  0  0  0  0
 21 48  1  0  0  0  0
 21 49  1  0  0  0  0
 22 50  1  0  0  0  0
 22 51  1  0  0  0  0
 23 52  1  0  0  0  0
 23 53  1  0  0  0  0
 24 54  1  0  0  0  0
 24 55  1  0  0  0  0
 25 56  1  0  0  0  0
 25 57  1  0  0  0  0
 26 58  1  0  0  0  0
 26 59  1  0  0  0  0
M  END
> <clash_score>
0

> <docking_score>
-9.030623435974121

$$$$
BENZO_484_1
  -OEChem-08222011363D

 56 60  0     0  0  0  0  0  0999 V2000
    8.9960   -2.3380   25.5320 C   0  0  0  0  0  0  0  0  0  0  0  0
    9.6730   -3.4710   23.5300 C   0  0  0  0  0  0  0  0  0  0  0  0
    9.0720   -1.1280   24.8640 C   0  0  0  0  0  0  0  0  0  0  0  0
    9.7200   -2.2600   22.8630 C   0  0  0  0  0  0  0  0  0  0  0  0
   12.2913    1.4279   22.6355 C   0  0  0  0  0  0  0  0  0  0  0  0
   13.6024    1.4662   23.0564 C   0  0  0  0  0  0  0  0  0  0  0  0
   12.0284    1.3764   24.9443 C   0  0  0  0  0  0  0  0  0  0  0  0
   11.3794    1.3761   23.7290 C   0  0  0  0  0  0  0  0  0  0  0  0
    9.3070   -3.5340   24.8780 C   0  0  0  0  0  0  0  0  0  0  0  0
    9.3350   -1.0880   23.5010 C   0  0  0  0  0  0  0  0  0  0  0  0
    5.8300    0.9190   18.6970 C   0  0  0  0  0  0  0  0  0  0  0  0
    7.3170   -0.1610   19.8550 C   0  0  0  0  0  0  0  0  0  0  0  0
    4.6890    1.6810   18.4640 C   0  0  0  0  0  0  0  0  0  0  0  0
    3.9160    2.0630   19.5520 C   0  0  0  0  0  0  0  0  0  0  0  0
    4.2750    1.7050   20.8490 C   0  0  0  0  0  0  0  0  0  0  0  0
    5.4210    0.9600   21.0930 C   0  0  0  0  0  0  0  0  0  0  0  0
    9.0420    0.3700   21.5280 C   0  0  0  0  0  0  0  0  0  0  0  0
    7.3635   -6.1361   27.1888 C   0  0  0  0  0  0  0  0  0  0  0  0
    8.1961   -4.9735   27.7341 C   0  0  0  0  0  0  0  0  0  0  0  0
    7.1942   -6.0394   25.6709 C   0  0  0  0  0  0  0  0  0  0  0  0
    9.5196   -4.8490   26.9797 C   0  0  0  0  0  0  0  0  0  0  0  0
    8.5442   -5.8838   24.9639 C   0  0  0  0  0  0  0  0  0  0  0  0
    9.8870    1.3260   23.5730 C   0  0  0  0  0  0  0  0  0  0  0  0
    8.1890   -0.7180   20.8700 C   0  0  0  0  0  0  0  0  0  0  0  0
    6.7580    0.3810   17.8350 N   0  0  0  0  0  0  0  0  0  0  0  0
    7.6390   -0.2680   18.5410 N   0  0  0  0  0  0  0  0  0  0  0  0
    6.1790    0.5730   19.9990 N   0  0  0  0  0  0  0  0  0  0  0  0
    9.2562   -4.7384   25.5422 N   0  0  0  0  0  0  0  0  0  0  0  0
    9.4560    0.1560   22.8130 N   0  0  0  0  0  0  0  0  0  0  0  0
    9.2690    1.4140   20.9380 O   0  0  0  0  0  0  0  0  0  0  0  0
   13.7301    1.4394   24.7638 S   0  0  0  0  0  0  0  0  0  0  0  0
    8.6905   -2.3533   26.5810 H   0  0  0  0  0  0  0  0  0  0  0  0
    9.9266   -4.3896   22.9917 H   0  0  0  0  0  0  0  0  0  0  0  0
    8.9233   -0.1992   25.4231 H   0  0  0  0  0  0  0  0  0  0  0  0
   10.0650   -2.2330   21.8256 H   0  0  0  0  0  0  0  0  0  0  0  0
   12.0045    1.4365   21.5915 H   0  0  0  0  0  0  0  0  0  0  0  0
   14.4914    1.5078   22.4431 H   0  0  0  0  0  0  0  0  0  0  0  0
   11.5886    1.3416   25.9314 H   0  0  0  0  0  0  0  0  0  0  0  0
    4.3966    1.9781   17.4720 H   0  0  0  0  0  0  0  0  0  0  0  0
    3.0227    2.6498   19.3695 H   0  0  0  0  0  0  0  0  0  0  0  0
    3.6570    2.0037   21.7071 H   0  0  0  0  0  0  0  0  0  0  0  0
    5.7202    0.6868   22.0802 H   0  0  0  0  0  0  0  0  0  0  0  0
    7.8482   -7.0901   27.4469 H   0  0  0  0  0  0  0  0  0  0  0  0
    6.3760   -6.1438   27.6724 H   0  0  0  0  0  0  0  0  0  0  0  0
    7.6307   -4.0424   27.6403 H   0  0  0  0  0  0  0  0  0  0  0  0
    8.3915   -5.1310   28.7968 H   0  0  0  0  0  0  0  0  0  0  0  0
    6.6888   -6.9376   25.3010 H   0  0  0  0  0  0  0  0  0  0  0  0
    6.5515   -5.1859   25.4257 H   0  0  0  0  0  0  0  0  0  0  0  0
   10.0492   -3.9640   27.3414 H   0  0  0  0  0  0  0  0  0  0  0  0
   10.1431   -5.7254   27.1778 H   0  0  0  0  0  0  0  0  0  0  0  0
    9.1338   -6.7931   25.0868 H   0  0  0  0  0  0  0  0  0  0  0  0
    8.3656   -5.7264   23.8998 H   0  0  0  0  0  0  0  0  0  0  0  0
    9.3974    1.2912   24.5523 H   0  0  0  0  0  0  0  0  0  0  0  0
    9.5159    2.2168   23.0554 H   0  0  0  0  0  0  0  0  0  0  0  0
    7.5972   -1.2056   21.6500 H   0  0  0  0  0  0  0  0  0  0  0  0
    8.8612   -1.4622   20.4334 H   0  0  0  0  0  0  0  0  0  0  0  0
  1  3  2  0  0  0  0
  1  9  1  0  0  0  0
  2  4  1  0  0  0  0
  2  9  2  0  0  0  0
  3 10  1  0  0  0  0
  4 10  2  0  0  0  0
  5  6  2  0  0  0  0
  5  8  1  0  0  0  0
  6 31  1  0  0  0  0
  7  8  2  0  0  0  0
  7 31  1  0  0  0  0
  8 23  1  0  0  0  0
  9 28  1  0  0  0  0
 10 29  1  0  0  0  0
 11 13  1  0  0  0  0
 11 25  2  0  0  0  0
 11 27  1  0  0  0  0
 12 24  1  0  0  0  0
 12 26  2  0  0  0  0
 12 27  1  0  0  0  0
 13 14  2  0  0  0  0
 14 15  1  0  0  0  0
 15 16  2  0  0  0  0
 16 27  1  0  0  0  0
 17 24  1  0  0  0  0
 17 29  1  0  0  0  0
 17 30  2  0  0  0  0
 18 19  1  0  0  0  0
 18 20  1  0  0  0  0
 19 21  1  0  0  0  0
 20 22  1  0  0  0  0
 21 28  1  0  0  0  0
 22 28  1  0  0  0  0
 23 29  1  0  0  0  0
 25 26  1  0  0  0  0
  1 32  1  0  0  0  0
  2 33  1  0  0  0  0
  3 34  1  0  0  0  0
  4 35  1  0  0  0  0
  5 36  1  0  0  0  0
  6 37  1  0  0  0  0
  7 38  1  0  0  0  0
 13 39  1  0  0  0  0
 14 40  1  0  0  0  0
 15 41  1  0  0  0  0
 16 42  1  0  0  0  0
 18 43  1  0  0  0  0
 18 44  1  0  0  0  0
 19 45  1  0  0  0  0
 19 46  1  0  0  0  0
 20 47  1  0  0  0  0
 20 48  1  0  0  0  0
 21 49  1  0  0  0  0
 21 50  1  0  0  0  0
 22 51  1  0  0  0  0
 22 52  1  0  0  0  0
 23 53  1  0  0  0  0
 23 54  1  0  0  0  0
 24 55  1  0  0  0  0
 24 56  1  0  0  0  0
M  END
> <clash_score>
0

> <docking_score>
-9.109479904174805

$$$$
BENZO_486_1
  -OEChem-08222011363D

 59 63  0     0  0  0  0  0  0999 V2000
    6.4089    2.0844   24.8766 C   0  0  0  0  0  0  0  0  0  0  0  0
    7.4847    1.4191   24.2887 C   0  0  0  0  0  0  0  0  0  0  0  0
    8.9960   -2.3380   25.5320 C   0  0  0  0  0  0  0  0  0  0  0  0
    9.6730   -3.4710   23.5300 C   0  0  0  0  0  0  0  0  0  0  0  0
    9.0720   -1.1280   24.8640 C   0  0  0  0  0  0  0  0  0  0  0  0
    9.7200   -2.2600   22.8630 C   0  0  0  0  0  0  0  0  0  0  0  0
    6.5777    3.3741   25.3805 C   0  0  0  0  0  0  0  0  0  0  0  0
    8.8980    3.3330   24.7088 C   0  0  0  0  0  0  0  0  0  0  0  0
    8.7292    2.0433   24.2048 C   0  0  0  0  0  0  0  0  0  0  0  0
    9.3070   -3.5340   24.8780 C   0  0  0  0  0  0  0  0  0  0  0  0
    9.3350   -1.0880   23.5010 C   0  0  0  0  0  0  0  0  0  0  0  0
    7.8222    3.9984   25.2966 C   0  0  0  0  0  0  0  0  0  0  0  0
    5.8300    0.9190   18.6970 C   0  0  0  0  0  0  0  0  0  0  0  0
    7.3170   -0.1610   19.8550 C   0  0  0  0  0  0  0  0  0  0  0  0
    4.6890    1.6810   18.4640 C   0  0  0  0  0  0  0  0  0  0  0  0
    3.9160    2.0630   19.5520 C   0  0  0  0  0  0  0  0  0  0  0  0
    4.2750    1.7050   20.8490 C   0  0  0  0  0  0  0  0  0  0  0  0
    5.4210    0.9600   21.0930 C   0  0  0  0  0  0  0  0  0  0  0  0
    9.0420    0.3700   21.5280 C   0  0  0  0  0  0  0  0  0  0  0  0
    7.3635   -6.1361   27.1888 C   0  0  0  0  0  0  0  0  0  0  0  0
    8.1961   -4.9735   27.7341 C   0  0  0  0  0  0  0  0  0  0  0  0
    7.1942   -6.0394   25.6709 C   0  0  0  0  0  0  0  0  0  0  0  0
    9.5196   -4.8490   26.9797 C   0  0  0  0  0  0  0  0  0  0  0  0
    8.5442   -5.8838   24.9639 C   0  0  0  0  0  0  0  0  0  0  0  0
    9.8870    1.3260   23.5730 C   0  0  0  0  0  0  0  0  0  0  0  0
    8.1890   -0.7180   20.8700 C   0  0  0  0  0  0  0  0  0  0  0  0
    6.7580    0.3810   17.8350 N   0  0  0  0  0  0  0  0  0  0  0  0
    7.6390   -0.2680   18.5410 N   0  0  0  0  0  0  0  0  0  0  0  0
    6.1790    0.5730   19.9990 N   0  0  0  0  0  0  0  0  0  0  0  0
    9.2562   -4.7384   25.5422 N   0  0  0  0  0  0  0  0  0  0  0  0
    9.4560    0.1560   22.8130 N   0  0  0  0  0  0  0  0  0  0  0  0
    9.2690    1.4140   20.9380 O   0  0  0  0  0  0  0  0  0  0  0  0
    8.0301    5.5891   25.9196 Cl  0  0  0  0  0  0  0  0  0  0  0  0
    5.4400    1.5979   24.9418 H   0  0  0  0  0  0  0  0  0  0  0  0
    7.3441    0.4143   23.8988 H   0  0  0  0  0  0  0  0  0  0  0  0
    8.6905   -2.3533   26.5810 H   0  0  0  0  0  0  0  0  0  0  0  0
    9.9266   -4.3896   22.9917 H   0  0  0  0  0  0  0  0  0  0  0  0
    8.9233   -0.1992   25.4231 H   0  0  0  0  0  0  0  0  0  0  0  0
   10.0650   -2.2330   21.8256 H   0  0  0  0  0  0  0  0  0  0  0  0
    5.7304    3.8806   25.8363 H   0  0  0  0  0  0  0  0  0  0  0  0
    9.8703    3.8156   24.6405 H   0  0  0  0  0  0  0  0  0  0  0  0
    4.3966    1.9781   17.4720 H   0  0  0  0  0  0  0  0  0  0  0  0
    3.0227    2.6498   19.3695 H   0  0  0  0  0  0  0  0  0  0  0  0
    3.6570    2.0037   21.7071 H   0  0  0  0  0  0  0  0  0  0  0  0
    5.7202    0.6868   22.0802 H   0  0  0  0  0  0  0  0  0  0  0  0
    7.8482   -7.0901   27.4469 H   0  0  0  0  0  0  0  0  0  0  0  0
    6.3760   -6.1438   27.6724 H   0  0  0  0  0  0  0  0  0  0  0  0
    7.6307   -4.0424   27.6403 H   0  0  0  0  0  0  0  0  0  0  0  0
    8.3915   -5.1310   28.7968 H   0  0  0  0  0  0  0  0  0  0  0  0
    6.6888   -6.9376   25.3010 H   0  0  0  0  0  0  0  0  0  0  0  0
    6.5515   -5.1859   25.4257 H   0  0  0  0  0  0  0  0  0  0  0  0
   10.0492   -3.9640   27.3414 H   0  0  0  0  0  0  0  0  0  0  0  0
   10.1431   -5.7254   27.1778 H   0  0  0  0  0  0  0  0  0  0  0  0
    9.1338   -6.7931   25.0868 H   0  0  0  0  0  0  0  0  0  0  0  0
    8.3656   -5.7264   23.8998 H   0  0  0  0  0  0  0  0  0  0  0  0
   10.4274    1.9911   22.8906 H   0  0  0  0  0  0  0  0  0  0  0  0
   10.6011    0.9882   24.3313 H   0  0  0  0  0  0  0  0  0  0  0  0
    7.5972   -1.2056   21.6500 H   0  0  0  0  0  0  0  0  0  0  0  0
    8.8612   -1.4622   20.4334 H   0  0  0  0  0  0  0  0  0  0  0  0
  1  2  2  0  0  0  0
  1  7  1  0  0  0  0
  2  9  1  0  0  0  0
  3  5  2  0  0  0  0
  3 10  1  0  0  0  0
  4  6  1  0  0  0  0
  4 10  2  0  0  0  0
  5 11  1  0  0  0  0
  6 11  2  0  0  0  0
  7 12  2  0  0  0  0
  8  9  2  0  0  0  0
  8 12  1  0  0  0  0
  9 25  1  0  0  0  0
 10 30  1  0  0  0  0
 11 31  1  0  0  0  0
 12 33  1  0  0  0  0
 13 15  1  0  0  0  0
 13 27  2  0  0  0  0
 13 29  1  0  0  0  0
 14 26  1  0  0  0  0
 14 28  2  0  0  0  0
 14 29  1  0  0  0  0
 15 16  2  0  0  0  0
 16 17  1  0  0  0  0
 17 18  2  0  0  0  0
 18 29  1  0  0  0  0
 19 26  1  0  0  0  0
 19 31  1  0  0  0  0
 19 32  2  0  0  0  0
 20 21  1  0  0  0  0
 20 22  1  0  0  0  0
 21 23  1  0  0  0  0
 22 24  1  0  0  0  0
 23 30  1  0  0  0  0
 24 30  1  0  0  0  0
 25 31  1  0  0  0  0
 27 28  1  0  0  0  0
  1 34  1  0  0  0  0
  2 35  1  0  0  0  0
  3 36  1  0  0  0  0
  4 37  1  0  0  0  0
  5 38  1  0  0  0  0
  6 39  1  0  0  0  0
  7 40  1  0  0  0  0
  8 41  1  0  0  0  0
 15 42  1  0  0  0  0
 16 43  1  0  0  0  0
 17 44  1  0  0  0  0
 18 45  1  0  0  0  0
 20 46  1  0  0  0  0
 20 47  1  0  0  0  0
 21 48  1  0  0  0  0
 21 49  1  0  0  0  0
 22 50  1  0  0  0  0
 22 51  1  0  0  0  0
 23 52  1  0  0  0  0
 23 53  1  0  0  0  0
 24 54  1  0  0  0  0
 24 55  1  0  0  0  0
 25 56  1  0  0  0  0
 25 57  1  0  0  0  0
 26 58  1  0  0  0  0
 26 59  1  0  0  0  0
M  END
> <clash_score>
0

> <docking_score>
-8.416646957397461

$$$$
BENZO_487_1
  -OEChem-08222011363D

 59 63  0     0  0  0  0  0  0999 V2000
    8.9960   -2.3380   25.5320 C   0  0  0  0  0  0  0  0  0  0  0  0
    9.6730   -3.4710   23.5300 C   0  0  0  0  0  0  0  0  0  0  0  0
    9.0720   -1.1280   24.8640 C   0  0  0  0  0  0  0  0  0  0  0  0
    9.7200   -2.2600   22.8630 C   0  0  0  0  0  0  0  0  0  0  0  0
   12.1233    1.3811   24.9242 C   0  0  0  0  0  0  0  0  0  0  0  0
   12.3261    1.4247   22.7351 C   0  0  0  0  0  0  0  0  0  0  0  0
   11.3794    1.3761   23.7290 C   0  0  0  0  0  0  0  0  0  0  0  0
    9.3070   -3.5340   24.8780 C   0  0  0  0  0  0  0  0  0  0  0  0
    9.3350   -1.0880   23.5010 C   0  0  0  0  0  0  0  0  0  0  0  0
    5.8300    0.9190   18.6970 C   0  0  0  0  0  0  0  0  0  0  0  0
    7.3170   -0.1610   19.8550 C   0  0  0  0  0  0  0  0  0  0  0  0
    4.6890    1.6810   18.4640 C   0  0  0  0  0  0  0  0  0  0  0  0
    3.9160    2.0630   19.5520 C   0  0  0  0  0  0  0  0  0  0  0  0
    4.2750    1.7050   20.8490 C   0  0  0  0  0  0  0  0  0  0  0  0
    5.4210    0.9600   21.0930 C   0  0  0  0  0  0  0  0  0  0  0  0
    9.0420    0.3700   21.5280 C   0  0  0  0  0  0  0  0  0  0  0  0
    7.3635   -6.1361   27.1888 C   0  0  0  0  0  0  0  0  0  0  0  0
    8.1961   -4.9735   27.7341 C   0  0  0  0  0  0  0  0  0  0  0  0
    7.1942   -6.0394   25.6709 C   0  0  0  0  0  0  0  0  0  0  0  0
    9.5196   -4.8490   26.9797 C   0  0  0  0  0  0  0  0  0  0  0  0
    8.5442   -5.8838   24.9639 C   0  0  0  0  0  0  0  0  0  0  0  0
   14.8305    1.5084   22.7418 C   0  0  0  0  0  0  0  0  0  0  0  0
    9.8870    1.3260   23.5730 C   0  0  0  0  0  0  0  0  0  0  0  0
    8.1890   -0.7180   20.8700 C   0  0  0  0  0  0  0  0  0  0  0  0
   13.4410    1.4289   24.7112 N   0  0  0  0  0  0  0  0  0  0  0  0
    6.7580    0.3810   17.8350 N   0  0  0  0  0  0  0  0  0  0  0  0
    7.6390   -0.2680   18.5410 N   0  0  0  0  0  0  0  0  0  0  0  0
   13.5326    1.4543   23.3706 N   0  0  0  0  0  0  0  0  0  0  0  0
    6.1790    0.5730   19.9990 N   0  0  0  0  0  0  0  0  0  0  0  0
    9.2562   -4.7384   25.5422 N   0  0  0  0  0  0  0  0  0  0  0  0
    9.4560    0.1560   22.8130 N   0  0  0  0  0  0  0  0  0  0  0  0
    9.2690    1.4140   20.9380 O   0  0  0  0  0  0  0  0  0  0  0  0
    8.6905   -2.3533   26.5810 H   0  0  0  0  0  0  0  0  0  0  0  0
    9.9266   -4.3896   22.9917 H   0  0  0  0  0  0  0  0  0  0  0  0
    8.9233   -0.1992   25.4231 H   0  0  0  0  0  0  0  0  0  0  0  0
   10.0650   -2.2330   21.8256 H   0  0  0  0  0  0  0  0  0  0  0  0
   11.7624    1.3510   25.9426 H   0  0  0  0  0  0  0  0  0  0  0  0
   12.2462    1.4390   21.6566 H   0  0  0  0  0  0  0  0  0  0  0  0
    4.3966    1.9781   17.4720 H   0  0  0  0  0  0  0  0  0  0  0  0
    3.0227    2.6498   19.3695 H   0  0  0  0  0  0  0  0  0  0  0  0
    3.6570    2.0037   21.7071 H   0  0  0  0  0  0  0  0  0  0  0  0
    5.7202    0.6868   22.0802 H   0  0  0  0  0  0  0  0  0  0  0  0
    7.8482   -7.0901   27.4469 H   0  0  0  0  0  0  0  0  0  0  0  0
    6.3760   -6.1438   27.6724 H   0  0  0  0  0  0  0  0  0  0  0  0
    7.6307   -4.0424   27.6403 H   0  0  0  0  0  0  0  0  0  0  0  0
    8.3915   -5.1310   28.7968 H   0  0  0  0  0  0  0  0  0  0  0  0
    6.6888   -6.9376   25.3010 H   0  0  0  0  0  0  0  0  0  0  0  0
    6.5515   -5.1859   25.4257 H   0  0  0  0  0  0  0  0  0  0  0  0
   10.0492   -3.9640   27.3414 H   0  0  0  0  0  0  0  0  0  0  0  0
   10.1431   -5.7254   27.1778 H   0  0  0  0  0  0  0  0  0  0  0  0
    9.1338   -6.7931   25.0868 H   0  0  0  0  0  0  0  0  0  0  0  0
    8.3656   -5.7264   23.8998 H   0  0  0  0  0  0  0  0  0  0  0  0
   15.0990    2.5601   22.6124 H   0  0  0  0  0  0  0  0  0  0  0  0
   15.5636    1.0018   23.3756 H   0  0  0  0  0  0  0  0  0  0  0  0
   14.7841    1.0025   21.7733 H   0  0  0  0  0  0  0  0  0  0  0  0
    9.3974    1.2912   24.5523 H   0  0  0  0  0  0  0  0  0  0  0  0
    9.5159    2.2168   23.0554 H   0  0  0  0  0  0  0  0  0  0  0  0
    7.5972   -1.2056   21.6500 H   0  0  0  0  0  0  0  0  0  0  0  0
    8.8612   -1.4622   20.4334 H   0  0  0  0  0  0  0  0  0  0  0  0
  1  3  2  0  0  0  0
  1  8  1  0  0  0  0
  2  4  1  0  0  0  0
  2  8  2  0  0  0  0
  3  9  1  0  0  0  0
  4  9  2  0  0  0  0
  5  7  1  0  0  0  0
  5 25  2  0  0  0  0
  6  7  2  0  0  0  0
  6 28  1  0  0  0  0
  7 23  1  0  0  0  0
  8 30  1  0  0  0  0
  9 31  1  0  0  0  0
 10 12  1  0  0  0  0
 10 26  2  0  0  0  0
 10 29  1  0  0  0  0
 11 24  1  0  0  0  0
 11 27  2  0  0  0  0
 11 29  1  0  0  0  0
 12 13  2  0  0  0  0
 13 14  1  0  0  0  0
 14 15  2  0  0  0  0
 15 29  1  0  0  0  0
 16 24  1  0  0  0  0
 16 31  1  0  0  0  0
 16 32  2  0  0  0  0
 17 18  1  0  0  0  0
 17 19  1  0  0  0  0
 18 20  1  0  0  0  0
 19 21  1  0  0  0  0
 20 30  1  0  0  0  0
 21 30  1  0  0  0  0
 22 28  1  0  0  0  0
 23 31  1  0  0  0  0
 25 28  1  0  0  0  0
 26 27  1  0  0  0  0
  1 33  1  0  0  0  0
  2 34  1  0  0  0  0
  3 35  1  0  0  0  0
  4 36  1  0  0  0  0
  5 37  1  0  0  0  0
  6 38  1  0  0  0  0
 12 39  1  0  0  0  0
 13 40  1  0  0  0  0
 14 41  1  0  0  0  0
 15 42  1  0  0  0  0
 17 43  1  0  0  0  0
 17 44  1  0  0  0  0
 18 45  1  0  0  0  0
 18 46  1  0  0  0  0
 19 47  1  0  0  0  0
 19 48  1  0  0  0  0
 20 49  1  0  0  0  0
 20 50  1  0  0  0  0
 21 51  1  0  0  0  0
 21 52  1  0  0  0  0
 22 53  1  0  0  0  0
 22 54  1  0  0  0  0
 22 55  1  0  0  0  0
 23 56  1  0  0  0  0
 23 57  1  0  0  0  0
 24 58  1  0  0  0  0
 24 59  1  0  0  0  0
M  END
> <clash_score>
0

> <docking_score>
-8.746757507324219

$$$$
BENZO_489_1
  -OEChem-08222011403D

 47 50  0     0  0  0  0  0  0999 V2000
   14.1526    1.4694   24.0176 C   0  0  0  0  0  0  0  0  0  0  0  0
   13.3741    0.8121   24.9701 C   0  0  0  0  0  0  0  0  0  0  0  0
   13.5446    2.0802   22.9208 C   0  0  0  0  0  0  0  0  0  0  0  0
   11.9875    0.7654   24.8258 C   0  0  0  0  0  0  0  0  0  0  0  0
   12.1580    2.0335   22.7765 C   0  0  0  0  0  0  0  0  0  0  0  0
    8.9960   -2.3380   25.5320 C   0  0  0  0  0  0  0  0  0  0  0  0
    9.6730   -3.4710   23.5300 C   0  0  0  0  0  0  0  0  0  0  0  0
    9.0720   -1.1280   24.8640 C   0  0  0  0  0  0  0  0  0  0  0  0
    9.7200   -2.2600   22.8630 C   0  0  0  0  0  0  0  0  0  0  0  0
    9.3070   -3.5340   24.8780 C   0  0  0  0  0  0  0  0  0  0  0  0
   11.3794    1.3761   23.7290 C   0  0  0  0  0  0  0  0  0  0  0  0
    9.3350   -1.0880   23.5010 C   0  0  0  0  0  0  0  0  0  0  0  0
    5.8300    0.9190   18.6970 C   0  0  0  0  0  0  0  0  0  0  0  0
    7.3170   -0.1610   19.8550 C   0  0  0  0  0  0  0  0  0  0  0  0
    4.6890    1.6810   18.4640 C   0  0  0  0  0  0  0  0  0  0  0  0
    3.9160    2.0630   19.5520 C   0  0  0  0  0  0  0  0  0  0  0  0
    4.2750    1.7050   20.8490 C   0  0  0  0  0  0  0  0  0  0  0  0
    5.4210    0.9600   21.0930 C   0  0  0  0  0  0  0  0  0  0  0  0
    9.0420    0.3700   21.5280 C   0  0  0  0  0  0  0  0  0  0  0  0
    9.2505   -4.8264   25.5904 C   0  0  0  0  0  0  0  0  0  0  0  0
    9.8870    1.3260   23.5730 C   0  0  0  0  0  0  0  0  0  0  0  0
    8.1890   -0.7180   20.8700 C   0  0  0  0  0  0  0  0  0  0  0  0
    6.7580    0.3810   17.8350 N   0  0  0  0  0  0  0  0  0  0  0  0
    7.6390   -0.2680   18.5410 N   0  0  0  0  0  0  0  0  0  0  0  0
    6.1790    0.5730   19.9990 N   0  0  0  0  0  0  0  0  0  0  0  0
    9.4560    0.1560   22.8130 N   0  0  0  0  0  0  0  0  0  0  0  0
    9.2690    1.4140   20.9380 O   0  0  0  0  0  0  0  0  0  0  0  0
   15.2322    1.5068   24.1308 H   0  0  0  0  0  0  0  0  0  0  0  0
   13.8473    0.3374   25.8248 H   0  0  0  0  0  0  0  0  0  0  0  0
   14.1503    2.5930   22.1795 H   0  0  0  0  0  0  0  0  0  0  0  0
   11.3889    0.2508   25.5729 H   0  0  0  0  0  0  0  0  0  0  0  0
   11.6930    2.5120   21.9187 H   0  0  0  0  0  0  0  0  0  0  0  0
    8.6919   -2.3557   26.5813 H   0  0  0  0  0  0  0  0  0  0  0  0
    9.9267   -4.3907   22.9939 H   0  0  0  0  0  0  0  0  0  0  0  0
    8.9217   -0.1995   25.4231 H   0  0  0  0  0  0  0  0  0  0  0  0
   10.0653   -2.2339   21.8256 H   0  0  0  0  0  0  0  0  0  0  0  0
    4.3966    1.9781   17.4720 H   0  0  0  0  0  0  0  0  0  0  0  0
    3.0227    2.6498   19.3695 H   0  0  0  0  0  0  0  0  0  0  0  0
    3.6570    2.0037   21.7071 H   0  0  0  0  0  0  0  0  0  0  0  0
    5.7202    0.6868   22.0802 H   0  0  0  0  0  0  0  0  0  0  0  0
    8.2503   -5.2678   25.5020 H   0  0  0  0  0  0  0  0  0  0  0  0
    9.9817   -5.5374   25.1845 H   0  0  0  0  0  0  0  0  0  0  0  0
    9.4841   -4.7043   26.6562 H   0  0  0  0  0  0  0  0  0  0  0  0
    9.3974    1.2912   24.5523 H   0  0  0  0  0  0  0  0  0  0  0  0
    9.5159    2.2168   23.0554 H   0  0  0  0  0  0  0  0  0  0  0  0
    7.6082   -1.2086   21.6619 H   0  0  0  0  0  0  0  0  0  0  0  0
    8.8721   -1.4652   20.4453 H   0  0  0  0  0  0  0  0  0  0  0  0
  1  2  1  0  0  0  0
  1  3  2  0  0  0  0
  2  4  2  0  0  0  0
  3  5  1  0  0  0  0
  4 11  1  0  0  0  0
  5 11  2  0  0  0  0
  6  8  2  0  0  0  0
  6 10  1  0  0  0  0
  7  9  1  0  0  0  0
  7 10  2  0  0  0  0
  8 12  1  0  0  0  0
  9 12  2  0  0  0  0
 10 20  1  0  0  0  0
 11 21  1  0  0  0  0
 12 26  1  0  0  0  0
 13 15  1  0  0  0  0
 13 23  2  0  0  0  0
 13 25  1  0  0  0  0
 14 22  1  0  0  0  0
 14 24  2  0  0  0  0
 14 25  1  0  0  0  0
 15 16  2  0  0  0  0
 16 17  1  0  0  0  0
 17 18  2  0  0  0  0
 18 25  1  0  0  0  0
 19 22  1  0  0  0  0
 19 26  1  0  0  0  0
 19 27  2  0  0  0  0
 21 26  1  0  0  0  0
 23 24  1  0  0  0  0
  1 28  1  0  0  0  0
  2 29  1  0  0  0  0
  3 30  1  0  0  0  0
  4 31  1  0  0  0  0
  5 32  1  0  0  0  0
  6 33  1  0  0  0  0
  7 34  1  0  0  0  0
  8 35  1  0  0  0  0
  9 36  1  0  0  0  0
 15 37  1  0  0  0  0
 16 38  1  0  0  0  0
 17 39  1  0  0  0  0
 18 40  1  0  0  0  0
 20 41  1  0  0  0  0
 20 42  1  0  0  0  0
 20 43  1  0  0  0  0
 21 44  1  0  0  0  0
 21 45  1  0  0  0  0
 22 46  1  0  0  0  0
 22 47  1  0  0  0  0
M  END
> <clash_score>
0

> <docking_score>
-9.275653839111328

$$$$
BENZO_488_1
  -OEChem-08222011403D

 44 47  0     0  0  0  0  0  0999 V2000
    8.9960   -2.3380   25.5320 C   0  0  0  0  0  0  0  0  0  0  0  0
    9.6730   -3.4710   23.5300 C   0  0  0  0  0  0  0  0  0  0  0  0
    9.0720   -1.1280   24.8640 C   0  0  0  0  0  0  0  0  0  0  0  0
    9.7200   -2.2600   22.8630 C   0  0  0  0  0  0  0  0  0  0  0  0
   12.2913    1.4279   22.6355 C   0  0  0  0  0  0  0  0  0  0  0  0
   13.6024    1.4662   23.0564 C   0  0  0  0  0  0  0  0  0  0  0  0
   12.0284    1.3764   24.9443 C   0  0  0  0  0  0  0  0  0  0  0  0
    9.3070   -3.5340   24.8780 C   0  0  0  0  0  0  0  0  0  0  0  0
   11.3794    1.3761   23.7290 C   0  0  0  0  0  0  0  0  0  0  0  0
    9.3350   -1.0880   23.5010 C   0  0  0  0  0  0  0  0  0  0  0  0
    5.8300    0.9190   18.6970 C   0  0  0  0  0  0  0  0  0  0  0  0
    7.3170   -0.1610   19.8550 C   0  0  0  0  0  0  0  0  0  0  0  0
    4.6890    1.6810   18.4640 C   0  0  0  0  0  0  0  0  0  0  0  0
    3.9160    2.0630   19.5520 C   0  0  0  0  0  0  0  0  0  0  0  0
    4.2750    1.7050   20.8490 C   0  0  0  0  0  0  0  0  0  0  0  0
    5.4210    0.9600   21.0930 C   0  0  0  0  0  0  0  0  0  0  0  0
    9.0420    0.3700   21.5280 C   0  0  0  0  0  0  0  0  0  0  0  0
    9.2505   -4.8264   25.5904 C   0  0  0  0  0  0  0  0  0  0  0  0
    9.8870    1.3260   23.5730 C   0  0  0  0  0  0  0  0  0  0  0  0
    8.1890   -0.7180   20.8700 C   0  0  0  0  0  0  0  0  0  0  0  0
    6.7580    0.3810   17.8350 N   0  0  0  0  0  0  0  0  0  0  0  0
    7.6390   -0.2680   18.5410 N   0  0  0  0  0  0  0  0  0  0  0  0
    6.1790    0.5730   19.9990 N   0  0  0  0  0  0  0  0  0  0  0  0
    9.4560    0.1560   22.8130 N   0  0  0  0  0  0  0  0  0  0  0  0
    9.2690    1.4140   20.9380 O   0  0  0  0  0  0  0  0  0  0  0  0
   13.7301    1.4394   24.7638 S   0  0  0  0  0  0  0  0  0  0  0  0
    8.6919   -2.3557   26.5813 H   0  0  0  0  0  0  0  0  0  0  0  0
    9.9267   -4.3907   22.9939 H   0  0  0  0  0  0  0  0  0  0  0  0
    8.9217   -0.1995   25.4231 H   0  0  0  0  0  0  0  0  0  0  0  0
   10.0653   -2.2339   21.8256 H   0  0  0  0  0  0  0  0  0  0  0  0
   12.0045    1.4365   21.5915 H   0  0  0  0  0  0  0  0  0  0  0  0
   14.4914    1.5078   22.4430 H   0  0  0  0  0  0  0  0  0  0  0  0
   11.5886    1.3416   25.9314 H   0  0  0  0  0  0  0  0  0  0  0  0
    4.3966    1.9781   17.4720 H   0  0  0  0  0  0  0  0  0  0  0  0
    3.0227    2.6498   19.3695 H   0  0  0  0  0  0  0  0  0  0  0  0
    3.6570    2.0037   21.7071 H   0  0  0  0  0  0  0  0  0  0  0  0
    5.7202    0.6868   22.0802 H   0  0  0  0  0  0  0  0  0  0  0  0
    8.2503   -5.2678   25.5020 H   0  0  0  0  0  0  0  0  0  0  0  0
    9.9817   -5.5374   25.1845 H   0  0  0  0  0  0  0  0  0  0  0  0
    9.4841   -4.7043   26.6562 H   0  0  0  0  0  0  0  0  0  0  0  0
    9.3974    1.2912   24.5523 H   0  0  0  0  0  0  0  0  0  0  0  0
    9.5159    2.2168   23.0554 H   0  0  0  0  0  0  0  0  0  0  0  0
    7.6082   -1.2086   21.6619 H   0  0  0  0  0  0  0  0  0  0  0  0
    8.8721   -1.4652   20.4453 H   0  0  0  0  0  0  0  0  0  0  0  0
  1  3  2  0  0  0  0
  1  8  1  0  0  0  0
  2  4  1  0  0  0  0
  2  8  2  0  0  0  0
  3 10  1  0  0  0  0
  4 10  2  0  0  0  0
  5  6  2  0  0  0  0
  5  9  1  0  0  0  0
  6 26  1  0  0  0  0
  7  9  2  0  0  0  0
  7 26  1  0  0  0  0
  8 18  1  0  0  0  0
  9 19  1  0  0  0  0
 10 24  1  0  0  0  0
 11 13  1  0  0  0  0
 11 21  2  0  0  0  0
 11 23  1  0  0  0  0
 12 20  1  0  0  0  0
 12 22  2  0  0  0  0
 12 23  1  0  0  0  0
 13 14  2  0  0  0  0
 14 15  1  0  0  0  0
 15 16  2  0  0  0  0
 16 23  1  0  0  0  0
 17 20  1  0  0  0  0
 17 24  1  0  0  0  0
 17 25  2  0  0  0  0
 19 24  1  0  0  0  0
 21 22  1  0  0  0  0
  1 27  1  0  0  0  0
  2 28  1  0  0  0  0
  3 29  1  0  0  0  0
  4 30  1  0  0  0  0
  5 31  1  0  0  0  0
  6 32  1  0  0  0  0
  7 33  1  0  0  0  0
 13 34  1  0  0  0  0
 14 35  1  0  0  0  0
 15 36  1  0  0  0  0
 16 37  1  0  0  0  0
 18 38  1  0  0  0  0
 18 39  1  0  0  0  0
 18 40  1  0  0  0  0
 19 41  1  0  0  0  0
 19 42  1  0  0  0  0
 20 43  1  0  0  0  0
 20 44  1  0  0  0  0
M  END
> <clash_score>
0

> <docking_score>
-9.354503631591797

$$$$
BENZO_490_1
  -OEChem-08222011403D

 47 50  0     0  0  0  0  0  0999 V2000
    6.4089    2.0844   24.8766 C   0  0  0  0  0  0  0  0  0  0  0  0
    7.4847    1.4191   24.2887 C   0  0  0  0  0  0  0  0  0  0  0  0
    8.9960   -2.3380   25.5320 C   0  0  0  0  0  0  0  0  0  0  0  0
    9.6730   -3.4710   23.5300 C   0  0  0  0  0  0  0  0  0  0  0  0
    9.0720   -1.1280   24.8640 C   0  0  0  0  0  0  0  0  0  0  0  0
    9.7200   -2.2600   22.8630 C   0  0  0  0  0  0  0  0  0  0  0  0
    6.5777    3.3741   25.3805 C   0  0  0  0  0  0  0  0  0  0  0  0
    8.8980    3.3330   24.7088 C   0  0  0  0  0  0  0  0  0  0  0  0
    9.3070   -3.5340   24.8780 C   0  0  0  0  0  0  0  0  0  0  0  0
    8.7292    2.0433   24.2048 C   0  0  0  0  0  0  0  0  0  0  0  0
    9.3350   -1.0880   23.5010 C   0  0  0  0  0  0  0  0  0  0  0  0
    7.8222    3.9984   25.2966 C   0  0  0  0  0  0  0  0  0  0  0  0
    5.8300    0.9190   18.6970 C   0  0  0  0  0  0  0  0  0  0  0  0
    7.3170   -0.1610   19.8550 C   0  0  0  0  0  0  0  0  0  0  0  0
    4.6890    1.6810   18.4640 C   0  0  0  0  0  0  0  0  0  0  0  0
    3.9160    2.0630   19.5520 C   0  0  0  0  0  0  0  0  0  0  0  0
    4.2750    1.7050   20.8490 C   0  0  0  0  0  0  0  0  0  0  0  0
    5.4210    0.9600   21.0930 C   0  0  0  0  0  0  0  0  0  0  0  0
    9.0420    0.3700   21.5280 C   0  0  0  0  0  0  0  0  0  0  0  0
    9.2505   -4.8264   25.5904 C   0  0  0  0  0  0  0  0  0  0  0  0
    9.8870    1.3260   23.5730 C   0  0  0  0  0  0  0  0  0  0  0  0
    8.1890   -0.7180   20.8700 C   0  0  0  0  0  0  0  0  0  0  0  0
    6.7580    0.3810   17.8350 N   0  0  0  0  0  0  0  0  0  0  0  0
    7.6390   -0.2680   18.5410 N   0  0  0  0  0  0  0  0  0  0  0  0
    6.1790    0.5730   19.9990 N   0  0  0  0  0  0  0  0  0  0  0  0
    9.4560    0.1560   22.8130 N   0  0  0  0  0  0  0  0  0  0  0  0
    9.2690    1.4140   20.9380 O   0  0  0  0  0  0  0  0  0  0  0  0
    8.0301    5.5891   25.9196 Cl  0  0  0  0  0  0  0  0  0  0  0  0
    5.4400    1.5979   24.9418 H   0  0  0  0  0  0  0  0  0  0  0  0
    7.3441    0.4143   23.8988 H   0  0  0  0  0  0  0  0  0  0  0  0
    8.6919   -2.3557   26.5813 H   0  0  0  0  0  0  0  0  0  0  0  0
    9.9267   -4.3907   22.9939 H   0  0  0  0  0  0  0  0  0  0  0  0
    8.9217   -0.1995   25.4231 H   0  0  0  0  0  0  0  0  0  0  0  0
   10.0653   -2.2339   21.8256 H   0  0  0  0  0  0  0  0  0  0  0  0
    5.7304    3.8806   25.8363 H   0  0  0  0  0  0  0  0  0  0  0  0
    9.8703    3.8156   24.6405 H   0  0  0  0  0  0  0  0  0  0  0  0
    4.3966    1.9781   17.4720 H   0  0  0  0  0  0  0  0  0  0  0  0
    3.0227    2.6498   19.3695 H   0  0  0  0  0  0  0  0  0  0  0  0
    3.6570    2.0037   21.7071 H   0  0  0  0  0  0  0  0  0  0  0  0
    5.7202    0.6868   22.0802 H   0  0  0  0  0  0  0  0  0  0  0  0
    8.2503   -5.2678   25.5020 H   0  0  0  0  0  0  0  0  0  0  0  0
    9.9817   -5.5374   25.1845 H   0  0  0  0  0  0  0  0  0  0  0  0
    9.4841   -4.7043   26.6562 H   0  0  0  0  0  0  0  0  0  0  0  0
   10.4274    1.9911   22.8906 H   0  0  0  0  0  0  0  0  0  0  0  0
   10.6011    0.9882   24.3313 H   0  0  0  0  0  0  0  0  0  0  0  0
    7.6082   -1.2086   21.6619 H   0  0  0  0  0  0  0  0  0  0  0  0
    8.8721   -1.4652   20.4453 H   0  0  0  0  0  0  0  0  0  0  0  0
  1  2  2  0  0  0  0
  1  7  1  0  0  0  0
  2 10  1  0  0  0  0
  3  5  2  0  0  0  0
  3  9  1  0  0  0  0
  4  6  1  0  0  0  0
  4  9  2  0  0  0  0
  5 11  1  0  0  0  0
  6 11  2  0  0  0  0
  7 12  2  0  0  0  0
  8 10  2  0  0  0  0
  8 12  1  0  0  0  0
  9 20  1  0  0  0  0
 10 21  1  0  0  0  0
 11 26  1  0  0  0  0
 12 28  1  0  0  0  0
 13 15  1  0  0  0  0
 13 23  2  0  0  0  0
 13 25  1  0  0  0  0
 14 22  1  0  0  0  0
 14 24  2  0  0  0  0
 14 25  1  0  0  0  0
 15 16  2  0  0  0  0
 16 17  1  0  0  0  0
 17 18  2  0  0  0  0
 18 25  1  0  0  0  0
 19 22  1  0  0  0  0
 19 26  1  0  0  0  0
 19 27  2  0  0  0  0
 21 26  1  0  0  0  0
 23 24  1  0  0  0  0
  1 29  1  0  0  0  0
  2 30  1  0  0  0  0
  3 31  1  0  0  0  0
  4 32  1  0  0  0  0
  5 33  1  0  0  0  0
  6 34  1  0  0  0  0
  7 35  1  0  0  0  0
  8 36  1  0  0  0  0
 15 37  1  0  0  0  0
 16 38  1  0  0  0  0
 17 39  1  0  0  0  0
 18 40  1  0  0  0  0
 20 41  1  0  0  0  0
 20 42  1  0  0  0  0
 20 43  1  0  0  0  0
 21 44  1  0  0  0  0
 21 45  1  0  0  0  0
 22 46  1  0  0  0  0
 22 47  1  0  0  0  0
M  END
> <clash_score>
0

> <docking_score>
-8.661676406860352

$$$$
BENZO_492_1
  -OEChem-08222011403D

 45 48  0     0  0  0  0  0  0999 V2000
    9.0720   -1.1280   24.8640 C   0  0  0  0  0  0  0  0  0  0  0  0
    9.7200   -2.2600   22.8630 C   0  0  0  0  0  0  0  0  0  0  0  0
    8.9960   -2.3380   25.5320 C   0  0  0  0  0  0  0  0  0  0  0  0
    9.6730   -3.4710   23.5300 C   0  0  0  0  0  0  0  0  0  0  0  0
   12.2913    1.4279   22.6355 C   0  0  0  0  0  0  0  0  0  0  0  0
   13.6024    1.4662   23.0564 C   0  0  0  0  0  0  0  0  0  0  0  0
   12.0284    1.3764   24.9443 C   0  0  0  0  0  0  0  0  0  0  0  0
   11.3794    1.3761   23.7290 C   0  0  0  0  0  0  0  0  0  0  0  0
    9.3350   -1.0880   23.5010 C   0  0  0  0  0  0  0  0  0  0  0  0
    9.3070   -3.5340   24.8780 C   0  0  0  0  0  0  0  0  0  0  0  0
    5.8300    0.9190   18.6970 C   0  0  0  0  0  0  0  0  0  0  0  0
    7.3170   -0.1610   19.8550 C   0  0  0  0  0  0  0  0  0  0  0  0
    4.6890    1.6810   18.4640 C   0  0  0  0  0  0  0  0  0  0  0  0
    3.9160    2.0630   19.5520 C   0  0  0  0  0  0  0  0  0  0  0  0
    4.2750    1.7050   20.8490 C   0  0  0  0  0  0  0  0  0  0  0  0
    5.4210    0.9600   21.0930 C   0  0  0  0  0  0  0  0  0  0  0  0
    9.0420    0.3700   21.5280 C   0  0  0  0  0  0  0  0  0  0  0  0
    8.8720   -4.6805   26.9013 C   0  0  0  0  0  0  0  0  0  0  0  0
    9.8870    1.3260   23.5730 C   0  0  0  0  0  0  0  0  0  0  0  0
    8.1890   -0.7180   20.8700 C   0  0  0  0  0  0  0  0  0  0  0  0
    6.7580    0.3810   17.8350 N   0  0  0  0  0  0  0  0  0  0  0  0
    7.6390   -0.2680   18.5410 N   0  0  0  0  0  0  0  0  0  0  0  0
    6.1790    0.5730   19.9990 N   0  0  0  0  0  0  0  0  0  0  0  0
    9.4560    0.1560   22.8130 N   0  0  0  0  0  0  0  0  0  0  0  0
    9.2690    1.4140   20.9380 O   0  0  0  0  0  0  0  0  0  0  0  0
    9.2555   -4.7124   25.5274 O   0  0  0  0  0  0  0  0  0  0  0  0
   13.7301    1.4394   24.7638 S   0  0  0  0  0  0  0  0  0  0  0  0
    8.9221   -0.1995   25.4231 H   0  0  0  0  0  0  0  0  0  0  0  0
   10.0642   -2.2347   21.8253 H   0  0  0  0  0  0  0  0  0  0  0  0
    8.6902   -2.3588   26.5805 H   0  0  0  0  0  0  0  0  0  0  0  0
    9.9254   -4.3921   22.9961 H   0  0  0  0  0  0  0  0  0  0  0  0
   12.0045    1.4365   21.5915 H   0  0  0  0  0  0  0  0  0  0  0  0
   14.4914    1.5078   22.4430 H   0  0  0  0  0  0  0  0  0  0  0  0
   11.5886    1.3416   25.9314 H   0  0  0  0  0  0  0  0  0  0  0  0
    4.3966    1.9781   17.4720 H   0  0  0  0  0  0  0  0  0  0  0  0
    3.0227    2.6498   19.3695 H   0  0  0  0  0  0  0  0  0  0  0  0
    3.6570    2.0037   21.7071 H   0  0  0  0  0  0  0  0  0  0  0  0
    5.7202    0.6868   22.0802 H   0  0  0  0  0  0  0  0  0  0  0  0
    8.8711   -5.6964   27.3038 H   0  0  0  0  0  0  0  0  0  0  0  0
    7.8758   -4.2402   26.9923 H   0  0  0  0  0  0  0  0  0  0  0  0
    9.5894   -4.0716   27.4566 H   0  0  0  0  0  0  0  0  0  0  0  0
    9.3974    1.2912   24.5523 H   0  0  0  0  0  0  0  0  0  0  0  0
    9.5159    2.2168   23.0554 H   0  0  0  0  0  0  0  0  0  0  0  0
    7.6082   -1.2086   21.6619 H   0  0  0  0  0  0  0  0  0  0  0  0
    8.8721   -1.4652   20.4453 H   0  0  0  0  0  0  0  0  0  0  0  0
  1  3  2  0  0  0  0
  1  9  1  0  0  0  0
  2  4  1  0  0  0  0
  2  9  2  0  0  0  0
  3 10  1  0  0  0  0
  4 10  2  0  0  0  0
  5  6  2  0  0  0  0
  5  8  1  0  0  0  0
  6 27  1  0  0  0  0
  7  8  2  0  0  0  0
  7 27  1  0  0  0  0
  8 19  1  0  0  0  0
  9 24  1  0  0  0  0
 10 26  1  0  0  0  0
 11 13  1  0  0  0  0
 11 21  2  0  0  0  0
 11 23  1  0  0  0  0
 12 20  1  0  0  0  0
 12 22  2  0  0  0  0
 12 23  1  0  0  0  0
 13 14  2  0  0  0  0
 14 15  1  0  0  0  0
 15 16  2  0  0  0  0
 16 23  1  0  0  0  0
 17 20  1  0  0  0  0
 17 24  1  0  0  0  0
 17 25  2  0  0  0  0
 18 26  1  0  0  0  0
 19 24  1  0  0  0  0
 21 22  1  0  0  0  0
  1 28  1  0  0  0  0
  2 29  1  0  0  0  0
  3 30  1  0  0  0  0
  4 31  1  0  0  0  0
  5 32  1  0  0  0  0
  6 33  1  0  0  0  0
  7 34  1  0  0  0  0
 13 35  1  0  0  0  0
 14 36  1  0  0  0  0
 15 37  1  0  0  0  0
 16 38  1  0  0  0  0
 18 39  1  0  0  0  0
 18 40  1  0  0  0  0
 18 41  1  0  0  0  0
 19 42  1  0  0  0  0
 19 43  1  0  0  0  0
 20 44  1  0  0  0  0
 20 45  1  0  0  0  0
M  END
> <clash_score>
0

> <docking_score>
-9.090805053710938

$$$$
BENZO_491_1
  -OEChem-08222011403D

 47 50  0     0  0  0  0  0  0999 V2000
    8.9960   -2.3380   25.5320 C   0  0  0  0  0  0  0  0  0  0  0  0
    9.6730   -3.4710   23.5300 C   0  0  0  0  0  0  0  0  0  0  0  0
    9.0720   -1.1280   24.8640 C   0  0  0  0  0  0  0  0  0  0  0  0
    9.7200   -2.2600   22.8630 C   0  0  0  0  0  0  0  0  0  0  0  0
   12.1233    1.3811   24.9242 C   0  0  0  0  0  0  0  0  0  0  0  0
   12.3261    1.4247   22.7351 C   0  0  0  0  0  0  0  0  0  0  0  0
    9.3070   -3.5340   24.8780 C   0  0  0  0  0  0  0  0  0  0  0  0
   11.3794    1.3761   23.7290 C   0  0  0  0  0  0  0  0  0  0  0  0
    9.3350   -1.0880   23.5010 C   0  0  0  0  0  0  0  0  0  0  0  0
    5.8300    0.9190   18.6970 C   0  0  0  0  0  0  0  0  0  0  0  0
    7.3170   -0.1610   19.8550 C   0  0  0  0  0  0  0  0  0  0  0  0
    4.6890    1.6810   18.4640 C   0  0  0  0  0  0  0  0  0  0  0  0
    3.9160    2.0630   19.5520 C   0  0  0  0  0  0  0  0  0  0  0  0
    4.2750    1.7050   20.8490 C   0  0  0  0  0  0  0  0  0  0  0  0
    5.4210    0.9600   21.0930 C   0  0  0  0  0  0  0  0  0  0  0  0
    9.0420    0.3700   21.5280 C   0  0  0  0  0  0  0  0  0  0  0  0
    9.2505   -4.8264   25.5904 C   0  0  0  0  0  0  0  0  0  0  0  0
   14.8305    1.5084   22.7418 C   0  0  0  0  0  0  0  0  0  0  0  0
    9.8870    1.3260   23.5730 C   0  0  0  0  0  0  0  0  0  0  0  0
    8.1890   -0.7180   20.8700 C   0  0  0  0  0  0  0  0  0  0  0  0
   13.4410    1.4289   24.7112 N   0  0  0  0  0  0  0  0  0  0  0  0
    6.7580    0.3810   17.8350 N   0  0  0  0  0  0  0  0  0  0  0  0
    7.6390   -0.2680   18.5410 N   0  0  0  0  0  0  0  0  0  0  0  0
   13.5326    1.4543   23.3706 N   0  0  0  0  0  0  0  0  0  0  0  0
    6.1790    0.5730   19.9990 N   0  0  0  0  0  0  0  0  0  0  0  0
    9.4560    0.1560   22.8130 N   0  0  0  0  0  0  0  0  0  0  0  0
    9.2690    1.4140   20.9380 O   0  0  0  0  0  0  0  0  0  0  0  0
    8.6919   -2.3557   26.5813 H   0  0  0  0  0  0  0  0  0  0  0  0
    9.9267   -4.3907   22.9939 H   0  0  0  0  0  0  0  0  0  0  0  0
    8.9217   -0.1995   25.4231 H   0  0  0  0  0  0  0  0  0  0  0  0
   10.0653   -2.2339   21.8256 H   0  0  0  0  0  0  0  0  0  0  0  0
   11.7624    1.3510   25.9426 H   0  0  0  0  0  0  0  0  0  0  0  0
   12.2462    1.4390   21.6566 H   0  0  0  0  0  0  0  0  0  0  0  0
    4.3966    1.9781   17.4720 H   0  0  0  0  0  0  0  0  0  0  0  0
    3.0227    2.6498   19.3695 H   0  0  0  0  0  0  0  0  0  0  0  0
    3.6570    2.0037   21.7071 H   0  0  0  0  0  0  0  0  0  0  0  0
    5.7202    0.6868   22.0802 H   0  0  0  0  0  0  0  0  0  0  0  0
    8.2503   -5.2678   25.5020 H   0  0  0  0  0  0  0  0  0  0  0  0
    9.9817   -5.5374   25.1845 H   0  0  0  0  0  0  0  0  0  0  0  0
    9.4841   -4.7043   26.6562 H   0  0  0  0  0  0  0  0  0  0  0  0
   15.0990    2.5601   22.6124 H   0  0  0  0  0  0  0  0  0  0  0  0
   15.5636    1.0018   23.3756 H   0  0  0  0  0  0  0  0  0  0  0  0
   14.7841    1.0025   21.7733 H   0  0  0  0  0  0  0  0  0  0  0  0
    9.3974    1.2912   24.5523 H   0  0  0  0  0  0  0  0  0  0  0  0
    9.5159    2.2168   23.0554 H   0  0  0  0  0  0  0  0  0  0  0  0
    7.6082   -1.2086   21.6619 H   0  0  0  0  0  0  0  0  0  0  0  0
    8.8721   -1.4652   20.4453 H   0  0  0  0  0  0  0  0  0  0  0  0
  1  3  2  0  0  0  0
  1  7  1  0  0  0  0
  2  4  1  0  0  0  0
  2  7  2  0  0  0  0
  3  9  1  0  0  0  0
  4  9  2  0  0  0  0
  5  8  1  0  0  0  0
  5 21  2  0  0  0  0
  6  8  2  0  0  0  0
  6 24  1  0  0  0  0
  7 17  1  0  0  0  0
  8 19  1  0  0  0  0
  9 26  1  0  0  0  0
 10 12  1  0  0  0  0
 10 22  2  0  0  0  0
 10 25  1  0  0  0  0
 11 20  1  0  0  0  0
 11 23  2  0  0  0  0
 11 25  1  0  0  0  0
 12 13  2  0  0  0  0
 13 14  1  0  0  0  0
 14 15  2  0  0  0  0
 15 25  1  0  0  0  0
 16 20  1  0  0  0  0
 16 26  1  0  0  0  0
 16 27  2  0  0  0  0
 18 24  1  0  0  0  0
 19 26  1  0  0  0  0
 21 24  1  0  0  0  0
 22 23  1  0  0  0  0
  1 28  1  0  0  0  0
  2 29  1  0  0  0  0
  3 30  1  0  0  0  0
  4 31  1  0  0  0  0
  5 32  1  0  0  0  0
  6 33  1  0  0  0  0
 12 34  1  0  0  0  0
 13 35  1  0  0  0  0
 14 36  1  0  0  0  0
 15 37  1  0  0  0  0
 17 38  1  0  0  0  0
 17 39  1  0  0  0  0
 17 40  1  0  0  0  0
 18 41  1  0  0  0  0
 18 42  1  0  0  0  0
 18 43  1  0  0  0  0
 19 44  1  0  0  0  0
 19 45  1  0  0  0  0
 20 46  1  0  0  0  0
 20 47  1  0  0  0  0
M  END
> <clash_score>
0

> <docking_score>
-8.991796493530273

$$$$
BENZO_493_1
  -OEChem-08222011403D

 48 51  0     0  0  0  0  0  0999 V2000
   14.1526    1.4694   24.0176 C   0  0  0  0  0  0  0  0  0  0  0  0
   13.3741    0.8121   24.9701 C   0  0  0  0  0  0  0  0  0  0  0  0
   13.5446    2.0802   22.9208 C   0  0  0  0  0  0  0  0  0  0  0  0
   11.9875    0.7654   24.8258 C   0  0  0  0  0  0  0  0  0  0  0  0
   12.1580    2.0335   22.7765 C   0  0  0  0  0  0  0  0  0  0  0  0
    9.0720   -1.1280   24.8640 C   0  0  0  0  0  0  0  0  0  0  0  0
    9.7200   -2.2600   22.8630 C   0  0  0  0  0  0  0  0  0  0  0  0
    8.9960   -2.3380   25.5320 C   0  0  0  0  0  0  0  0  0  0  0  0
    9.6730   -3.4710   23.5300 C   0  0  0  0  0  0  0  0  0  0  0  0
   11.3794    1.3761   23.7290 C   0  0  0  0  0  0  0  0  0  0  0  0
    9.3350   -1.0880   23.5010 C   0  0  0  0  0  0  0  0  0  0  0  0
    9.3070   -3.5340   24.8780 C   0  0  0  0  0  0  0  0  0  0  0  0
    5.8300    0.9190   18.6970 C   0  0  0  0  0  0  0  0  0  0  0  0
    7.3170   -0.1610   19.8550 C   0  0  0  0  0  0  0  0  0  0  0  0
    4.6890    1.6810   18.4640 C   0  0  0  0  0  0  0  0  0  0  0  0
    3.9160    2.0630   19.5520 C   0  0  0  0  0  0  0  0  0  0  0  0
    4.2750    1.7050   20.8490 C   0  0  0  0  0  0  0  0  0  0  0  0
    5.4210    0.9600   21.0930 C   0  0  0  0  0  0  0  0  0  0  0  0
    9.0420    0.3700   21.5280 C   0  0  0  0  0  0  0  0  0  0  0  0
    8.8720   -4.6805   26.9013 C   0  0  0  0  0  0  0  0  0  0  0  0
    9.8870    1.3260   23.5730 C   0  0  0  0  0  0  0  0  0  0  0  0
    8.1890   -0.7180   20.8700 C   0  0  0  0  0  0  0  0  0  0  0  0
    6.7580    0.3810   17.8350 N   0  0  0  0  0  0  0  0  0  0  0  0
    7.6390   -0.2680   18.5410 N   0  0  0  0  0  0  0  0  0  0  0  0
    6.1790    0.5730   19.9990 N   0  0  0  0  0  0  0  0  0  0  0  0
    9.4560    0.1560   22.8130 N   0  0  0  0  0  0  0  0  0  0  0  0
    9.2690    1.4140   20.9380 O   0  0  0  0  0  0  0  0  0  0  0  0
    9.2555   -4.7124   25.5274 O   0  0  0  0  0  0  0  0  0  0  0  0
   15.2322    1.5068   24.1308 H   0  0  0  0  0  0  0  0  0  0  0  0
   13.8473    0.3374   25.8248 H   0  0  0  0  0  0  0  0  0  0  0  0
   14.1503    2.5930   22.1795 H   0  0  0  0  0  0  0  0  0  0  0  0
   11.3889    0.2508   25.5729 H   0  0  0  0  0  0  0  0  0  0  0  0
   11.6930    2.5120   21.9187 H   0  0  0  0  0  0  0  0  0  0  0  0
    8.9221   -0.1995   25.4231 H   0  0  0  0  0  0  0  0  0  0  0  0
   10.0642   -2.2347   21.8253 H   0  0  0  0  0  0  0  0  0  0  0  0
    8.6902   -2.3588   26.5805 H   0  0  0  0  0  0  0  0  0  0  0  0
    9.9254   -4.3921   22.9961 H   0  0  0  0  0  0  0  0  0  0  0  0
    4.3966    1.9781   17.4720 H   0  0  0  0  0  0  0  0  0  0  0  0
    3.0227    2.6498   19.3695 H   0  0  0  0  0  0  0  0  0  0  0  0
    3.6570    2.0037   21.7071 H   0  0  0  0  0  0  0  0  0  0  0  0
    5.7202    0.6868   22.0802 H   0  0  0  0  0  0  0  0  0  0  0  0
    8.8711   -5.6964   27.3038 H   0  0  0  0  0  0  0  0  0  0  0  0
    7.8758   -4.2402   26.9923 H   0  0  0  0  0  0  0  0  0  0  0  0
    9.5894   -4.0716   27.4566 H   0  0  0  0  0  0  0  0  0  0  0  0
    9.3974    1.2912   24.5523 H   0  0  0  0  0  0  0  0  0  0  0  0
    9.5159    2.2168   23.0554 H   0  0  0  0  0  0  0  0  0  0  0  0
    7.6082   -1.2086   21.6619 H   0  0  0  0  0  0  0  0  0  0  0  0
    8.8721   -1.4652   20.4453 H   0  0  0  0  0  0  0  0  0  0  0  0
  1  2  1  0  0  0  0
  1  3  2  0  0  0  0
  2  4  2  0  0  0  0
  3  5  1  0  0  0  0
  4 10  1  0  0  0  0
  5 10  2  0  0  0  0
  6  8  2  0  0  0  0
  6 11  1  0  0  0  0
  7  9  1  0  0  0  0
  7 11  2  0  0  0  0
  8 12  1  0  0  0  0
  9 12  2  0  0  0  0
 10 21  1  0  0  0  0
 11 26  1  0  0  0  0
 12 28  1  0  0  0  0
 13 15  1  0  0  0  0
 13 23  2  0  0  0  0
 13 25  1  0  0  0  0
 14 22  1  0  0  0  0
 14 24  2  0  0  0  0
 14 25  1  0  0  0  0
 15 16  2  0  0  0  0
 16 17  1  0  0  0  0
 17 18  2  0  0  0  0
 18 25  1  0  0  0  0
 19 22  1  0  0  0  0
 19 26  1  0  0  0  0
 19 27  2  0  0  0  0
 20 28  1  0  0  0  0
 21 26  1  0  0  0  0
 23 24  1  0  0  0  0
  1 29  1  0  0  0  0
  2 30  1  0  0  0  0
  3 31  1  0  0  0  0
  4 32  1  0  0  0  0
  5 33  1  0  0  0  0
  6 34  1  0  0  0  0
  7 35  1  0  0  0  0
  8 36  1  0  0  0  0
  9 37  1  0  0  0  0
 15 38  1  0  0  0  0
 16 39  1  0  0  0  0
 17 40  1  0  0  0  0
 18 41  1  0  0  0  0
 20 42  1  0  0  0  0
 20 43  1  0  0  0  0
 20 44  1  0  0  0  0
 21 45  1  0  0  0  0
 21 46  1  0  0  0  0
 22 47  1  0  0  0  0
 22 48  1  0  0  0  0
M  END
> <clash_score>
0

> <docking_score>
-9.011957168579102

$$$$
BENZO_494_1
  -OEChem-08222011403D

 48 51  0     0  0  0  0  0  0999 V2000
    6.4089    2.0844   24.8766 C   0  0  0  0  0  0  0  0  0  0  0  0
    7.4847    1.4191   24.2887 C   0  0  0  0  0  0  0  0  0  0  0  0
    9.0720   -1.1280   24.8640 C   0  0  0  0  0  0  0  0  0  0  0  0
    9.7200   -2.2600   22.8630 C   0  0  0  0  0  0  0  0  0  0  0  0
    8.9960   -2.3380   25.5320 C   0  0  0  0  0  0  0  0  0  0  0  0
    9.6730   -3.4710   23.5300 C   0  0  0  0  0  0  0  0  0  0  0  0
    6.5777    3.3741   25.3805 C   0  0  0  0  0  0  0  0  0  0  0  0
    8.8980    3.3330   24.7088 C   0  0  0  0  0  0  0  0  0  0  0  0
    8.7292    2.0433   24.2048 C   0  0  0  0  0  0  0  0  0  0  0  0
    9.3350   -1.0880   23.5010 C   0  0  0  0  0  0  0  0  0  0  0  0
    9.3070   -3.5340   24.8780 C   0  0  0  0  0  0  0  0  0  0  0  0
    7.8222    3.9984   25.2966 C   0  0  0  0  0  0  0  0  0  0  0  0
    5.8300    0.9190   18.6970 C   0  0  0  0  0  0  0  0  0  0  0  0
    7.3170   -0.1610   19.8550 C   0  0  0  0  0  0  0  0  0  0  0  0
    4.6890    1.6810   18.4640 C   0  0  0  0  0  0  0  0  0  0  0  0
    3.9160    2.0630   19.5520 C   0  0  0  0  0  0  0  0  0  0  0  0
    4.2750    1.7050   20.8490 C   0  0  0  0  0  0  0  0  0  0  0  0
    5.4210    0.9600   21.0930 C   0  0  0  0  0  0  0  0  0  0  0  0
    9.0420    0.3700   21.5280 C   0  0  0  0  0  0  0  0  0  0  0  0
    8.8720   -4.6805   26.9013 C   0  0  0  0  0  0  0  0  0  0  0  0
    9.8870    1.3260   23.5730 C   0  0  0  0  0  0  0  0  0  0  0  0
    8.1890   -0.7180   20.8700 C   0  0  0  0  0  0  0  0  0  0  0  0
    6.7580    0.3810   17.8350 N   0  0  0  0  0  0  0  0  0  0  0  0
    7.6390   -0.2680   18.5410 N   0  0  0  0  0  0  0  0  0  0  0  0
    6.1790    0.5730   19.9990 N   0  0  0  0  0  0  0  0  0  0  0  0
    9.4560    0.1560   22.8130 N   0  0  0  0  0  0  0  0  0  0  0  0
    9.2690    1.4140   20.9380 O   0  0  0  0  0  0  0  0  0  0  0  0
    9.2555   -4.7124   25.5274 O   0  0  0  0  0  0  0  0  0  0  0  0
    8.0301    5.5891   25.9196 Cl  0  0  0  0  0  0  0  0  0  0  0  0
    5.4400    1.5979   24.9418 H   0  0  0  0  0  0  0  0  0  0  0  0
    7.3441    0.4143   23.8988 H   0  0  0  0  0  0  0  0  0  0  0  0
    8.9221   -0.1995   25.4231 H   0  0  0  0  0  0  0  0  0  0  0  0
   10.0642   -2.2347   21.8253 H   0  0  0  0  0  0  0  0  0  0  0  0
    8.6902   -2.3588   26.5805 H   0  0  0  0  0  0  0  0  0  0  0  0
    9.9254   -4.3921   22.9961 H   0  0  0  0  0  0  0  0  0  0  0  0
    5.7304    3.8806   25.8363 H   0  0  0  0  0  0  0  0  0  0  0  0
    9.8703    3.8156   24.6405 H   0  0  0  0  0  0  0  0  0  0  0  0
    4.3966    1.9781   17.4720 H   0  0  0  0  0  0  0  0  0  0  0  0
    3.0227    2.6498   19.3695 H   0  0  0  0  0  0  0  0  0  0  0  0
    3.6570    2.0037   21.7071 H   0  0  0  0  0  0  0  0  0  0  0  0
    5.7202    0.6868   22.0802 H   0  0  0  0  0  0  0  0  0  0  0  0
    8.8711   -5.6964   27.3038 H   0  0  0  0  0  0  0  0  0  0  0  0
    7.8758   -4.2402   26.9923 H   0  0  0  0  0  0  0  0  0  0  0  0
    9.5894   -4.0716   27.4566 H   0  0  0  0  0  0  0  0  0  0  0  0
   10.4274    1.9911   22.8906 H   0  0  0  0  0  0  0  0  0  0  0  0
   10.6011    0.9882   24.3313 H   0  0  0  0  0  0  0  0  0  0  0  0
    7.6082   -1.2086   21.6619 H   0  0  0  0  0  0  0  0  0  0  0  0
    8.8721   -1.4652   20.4453 H   0  0  0  0  0  0  0  0  0  0  0  0
  1  2  2  0  0  0  0
  1  7  1  0  0  0  0
  2  9  1  0  0  0  0
  3  5  2  0  0  0  0
  3 10  1  0  0  0  0
  4  6  1  0  0  0  0
  4 10  2  0  0  0  0
  5 11  1  0  0  0  0
  6 11  2  0  0  0  0
  7 12  2  0  0  0  0
  8  9  2  0  0  0  0
  8 12  1  0  0  0  0
  9 21  1  0  0  0  0
 10 26  1  0  0  0  0
 11 28  1  0  0  0  0
 12 29  1  0  0  0  0
 13 15  1  0  0  0  0
 13 23  2  0  0  0  0
 13 25  1  0  0  0  0
 14 22  1  0  0  0  0
 14 24  2  0  0  0  0
 14 25  1  0  0  0  0
 15 16  2  0  0  0  0
 16 17  1  0  0  0  0
 17 18  2  0  0  0  0
 18 25  1  0  0  0  0
 19 22  1  0  0  0  0
 19 26  1  0  0  0  0
 19 27  2  0  0  0  0
 20 28  1  0  0  0  0
 21 26  1  0  0  0  0
 23 24  1  0  0  0  0
  1 30  1  0  0  0  0
  2 31  1  0  0  0  0
  3 32  1  0  0  0  0
  4 33  1  0  0  0  0
  5 34  1  0  0  0  0
  6 35  1  0  0  0  0
  7 36  1  0  0  0  0
  8 37  1  0  0  0  0
 15 38  1  0  0  0  0
 16 39  1  0  0  0  0
 17 40  1  0  0  0  0
 18 41  1  0  0  0  0
 20 42  1  0  0  0  0
 20 43  1  0  0  0  0
 20 44  1  0  0  0  0
 21 45  1  0  0  0  0
 21 46  1  0  0  0  0
 22 47  1  0  0  0  0
 22 48  1  0  0  0  0
M  END
> <clash_score>
0

> <docking_score>
-8.397977828979492

$$$$
BENZO_495_1
  -OEChem-08222011403D

 48 51  0     0  0  0  0  0  0999 V2000
    9.0720   -1.1280   24.8640 C   0  0  0  0  0  0  0  0  0  0  0  0
    9.7200   -2.2600   22.8630 C   0  0  0  0  0  0  0  0  0  0  0  0
    8.9960   -2.3380   25.5320 C   0  0  0  0  0  0  0  0  0  0  0  0
    9.6730   -3.4710   23.5300 C   0  0  0  0  0  0  0  0  0  0  0  0
   12.1233    1.3811   24.9242 C   0  0  0  0  0  0  0  0  0  0  0  0
   12.3261    1.4247   22.7351 C   0  0  0  0  0  0  0  0  0  0  0  0
   11.3794    1.3761   23.7290 C   0  0  0  0  0  0  0  0  0  0  0  0
    9.3350   -1.0880   23.5010 C   0  0  0  0  0  0  0  0  0  0  0  0
    9.3070   -3.5340   24.8780 C   0  0  0  0  0  0  0  0  0  0  0  0
    5.8300    0.9190   18.6970 C   0  0  0  0  0  0  0  0  0  0  0  0
    7.3170   -0.1610   19.8550 C   0  0  0  0  0  0  0  0  0  0  0  0
    4.6890    1.6810   18.4640 C   0  0  0  0  0  0  0  0  0  0  0  0
    3.9160    2.0630   19.5520 C   0  0  0  0  0  0  0  0  0  0  0  0
    4.2750    1.7050   20.8490 C   0  0  0  0  0  0  0  0  0  0  0  0
    5.4210    0.9600   21.0930 C   0  0  0  0  0  0  0  0  0  0  0  0
    9.0420    0.3700   21.5280 C   0  0  0  0  0  0  0  0  0  0  0  0
   14.8305    1.5084   22.7418 C   0  0  0  0  0  0  0  0  0  0  0  0
    8.8720   -4.6805   26.9013 C   0  0  0  0  0  0  0  0  0  0  0  0
    9.8870    1.3260   23.5730 C   0  0  0  0  0  0  0  0  0  0  0  0
    8.1890   -0.7180   20.8700 C   0  0  0  0  0  0  0  0  0  0  0  0
   13.4410    1.4289   24.7112 N   0  0  0  0  0  0  0  0  0  0  0  0
    6.7580    0.3810   17.8350 N   0  0  0  0  0  0  0  0  0  0  0  0
    7.6390   -0.2680   18.5410 N   0  0  0  0  0  0  0  0  0  0  0  0
   13.5326    1.4543   23.3706 N   0  0  0  0  0  0  0  0  0  0  0  0
    6.1790    0.5730   19.9990 N   0  0  0  0  0  0  0  0  0  0  0  0
    9.4560    0.1560   22.8130 N   0  0  0  0  0  0  0  0  0  0  0  0
    9.2690    1.4140   20.9380 O   0  0  0  0  0  0  0  0  0  0  0  0
    9.2555   -4.7124   25.5274 O   0  0  0  0  0  0  0  0  0  0  0  0
    8.9221   -0.1995   25.4231 H   0  0  0  0  0  0  0  0  0  0  0  0
   10.0642   -2.2347   21.8253 H   0  0  0  0  0  0  0  0  0  0  0  0
    8.6902   -2.3588   26.5805 H   0  0  0  0  0  0  0  0  0  0  0  0
    9.9254   -4.3921   22.9961 H   0  0  0  0  0  0  0  0  0  0  0  0
   11.7624    1.3510   25.9426 H   0  0  0  0  0  0  0  0  0  0  0  0
   12.2462    1.4390   21.6566 H   0  0  0  0  0  0  0  0  0  0  0  0
    4.3966    1.9781   17.4720 H   0  0  0  0  0  0  0  0  0  0  0  0
    3.0227    2.6498   19.3695 H   0  0  0  0  0  0  0  0  0  0  0  0
    3.6570    2.0037   21.7071 H   0  0  0  0  0  0  0  0  0  0  0  0
    5.7202    0.6868   22.0802 H   0  0  0  0  0  0  0  0  0  0  0  0
   15.0990    2.5601   22.6124 H   0  0  0  0  0  0  0  0  0  0  0  0
   15.5636    1.0018   23.3756 H   0  0  0  0  0  0  0  0  0  0  0  0
   14.7841    1.0025   21.7733 H   0  0  0  0  0  0  0  0  0  0  0  0
    8.8711   -5.6964   27.3038 H   0  0  0  0  0  0  0  0  0  0  0  0
    7.8758   -4.2402   26.9923 H   0  0  0  0  0  0  0  0  0  0  0  0
    9.5894   -4.0716   27.4566 H   0  0  0  0  0  0  0  0  0  0  0  0
    9.3974    1.2912   24.5523 H   0  0  0  0  0  0  0  0  0  0  0  0
    9.5159    2.2168   23.0554 H   0  0  0  0  0  0  0  0  0  0  0  0
    7.6082   -1.2086   21.6619 H   0  0  0  0  0  0  0  0  0  0  0  0
    8.8721   -1.4652   20.4453 H   0  0  0  0  0  0  0  0  0  0  0  0
  1  3  2  0  0  0  0
  1  8  1  0  0  0  0
  2  4  1  0  0  0  0
  2  8  2  0  0  0  0
  3  9  1  0  0  0  0
  4  9  2  0  0  0  0
  5  7  1  0  0  0  0
  5 21  2  0  0  0  0
  6  7  2  0  0  0  0
  6 24  1  0  0  0  0
  7 19  1  0  0  0  0
  8 26  1  0  0  0  0
  9 28  1  0  0  0  0
 10 12  1  0  0  0  0
 10 22  2  0  0  0  0
 10 25  1  0  0  0  0
 11 20  1  0  0  0  0
 11 23  2  0  0  0  0
 11 25  1  0  0  0  0
 12 13  2  0  0  0  0
 13 14  1  0  0  0  0
 14 15  2  0  0  0  0
 15 25  1  0  0  0  0
 16 20  1  0  0  0  0
 16 26  1  0  0  0  0
 16 27  2  0  0  0  0
 17 24  1  0  0  0  0
 18 28  1  0  0  0  0
 19 26  1  0  0  0  0
 21 24  1  0  0  0  0
 22 23  1  0  0  0  0
  1 29  1  0  0  0  0
  2 30  1  0  0  0  0
  3 31  1  0  0  0  0
  4 32  1  0  0  0  0
  5 33  1  0  0  0  0
  6 34  1  0  0  0  0
 12 35  1  0  0  0  0
 13 36  1  0  0  0  0
 14 37  1  0  0  0  0
 15 38  1  0  0  0  0
 17 39  1  0  0  0  0
 17 40  1  0  0  0  0
 17 41  1  0  0  0  0
 18 42  1  0  0  0  0
 18 43  1  0  0  0  0
 18 44  1  0  0  0  0
 19 45  1  0  0  0  0
 19 46  1  0  0  0  0
 20 47  1  0  0  0  0
 20 48  1  0  0  0  0
M  END
> <clash_score>
0

> <docking_score>
-8.728099822998047

$$$$
BENZO_497_1
  -OEChem-08222011443D

 58 62  0     0  0  0  0  0  0999 V2000
   14.1526    1.4694   24.0176 C   0  0  0  0  0  0  0  0  0  0  0  0
   13.3741    0.8121   24.9701 C   0  0  0  0  0  0  0  0  0  0  0  0
   13.5446    2.0802   22.9208 C   0  0  0  0  0  0  0  0  0  0  0  0
   11.9875    0.7654   24.8258 C   0  0  0  0  0  0  0  0  0  0  0  0
   12.1580    2.0335   22.7765 C   0  0  0  0  0  0  0  0  0  0  0  0
    8.9960   -2.3380   25.5320 C   0  0  0  0  0  0  0  0  0  0  0  0
    9.6730   -3.4710   23.5300 C   0  0  0  0  0  0  0  0  0  0  0  0
    9.0720   -1.1280   24.8640 C   0  0  0  0  0  0  0  0  0  0  0  0
    9.7200   -2.2600   22.8630 C   0  0  0  0  0  0  0  0  0  0  0  0
   11.3794    1.3761   23.7290 C   0  0  0  0  0  0  0  0  0  0  0  0
    9.3070   -3.5340   24.8780 C   0  0  0  0  0  0  0  0  0  0  0  0
    9.3350   -1.0880   23.5010 C   0  0  0  0  0  0  0  0  0  0  0  0
    5.8300    0.9190   18.6970 C   0  0  0  0  0  0  0  0  0  0  0  0
    7.3170   -0.1610   19.8550 C   0  0  0  0  0  0  0  0  0  0  0  0
    4.6890    1.6810   18.4640 C   0  0  0  0  0  0  0  0  0  0  0  0
    3.9160    2.0630   19.5520 C   0  0  0  0  0  0  0  0  0  0  0  0
    4.2750    1.7050   20.8490 C   0  0  0  0  0  0  0  0  0  0  0  0
    5.4210    0.9600   21.0930 C   0  0  0  0  0  0  0  0  0  0  0  0
    8.3597   -5.0073   26.6307 C   0  0  0  0  0  0  0  0  0  0  0  0
    9.0420    0.3700   21.5280 C   0  0  0  0  0  0  0  0  0  0  0  0
    8.4720   -6.3981   27.2296 C   0  0  0  0  0  0  0  0  0  0  0  0
    9.9252   -6.7605   27.4803 C   0  0  0  0  0  0  0  0  0  0  0  0
   10.7833   -6.6094   26.2282 C   0  0  0  0  0  0  0  0  0  0  0  0
   10.0539   -5.9099   25.0823 C   0  0  0  0  0  0  0  0  0  0  0  0
    9.8870    1.3260   23.5730 C   0  0  0  0  0  0  0  0  0  0  0  0
    8.1890   -0.7180   20.8700 C   0  0  0  0  0  0  0  0  0  0  0  0
    6.7580    0.3810   17.8350 N   0  0  0  0  0  0  0  0  0  0  0  0
    7.6390   -0.2680   18.5410 N   0  0  0  0  0  0  0  0  0  0  0  0
    6.1790    0.5730   19.9990 N   0  0  0  0  0  0  0  0  0  0  0  0
    9.2529   -4.7797   25.5644 N   0  0  0  0  0  0  0  0  0  0  0  0
    9.4560    0.1560   22.8130 N   0  0  0  0  0  0  0  0  0  0  0  0
    7.4954   -4.2356   27.0449 O   0  0  0  0  0  0  0  0  0  0  0  0
    9.2690    1.4140   20.9380 O   0  0  0  0  0  0  0  0  0  0  0  0
   15.2322    1.5068   24.1308 H   0  0  0  0  0  0  0  0  0  0  0  0
   13.8473    0.3374   25.8248 H   0  0  0  0  0  0  0  0  0  0  0  0
   14.1503    2.5930   22.1795 H   0  0  0  0  0  0  0  0  0  0  0  0
   11.3889    0.2508   25.5729 H   0  0  0  0  0  0  0  0  0  0  0  0
   11.6930    2.5120   21.9187 H   0  0  0  0  0  0  0  0  0  0  0  0
    8.6895   -2.3529   26.5807 H   0  0  0  0  0  0  0  0  0  0  0  0
    9.9262   -4.3897   22.9916 H   0  0  0  0  0  0  0  0  0  0  0  0
    8.9224   -0.1998   25.4238 H   0  0  0  0  0  0  0  0  0  0  0  0
   10.0649   -2.2343   21.8258 H   0  0  0  0  0  0  0  0  0  0  0  0
    4.3966    1.9781   17.4720 H   0  0  0  0  0  0  0  0  0  0  0  0
    3.0227    2.6498   19.3695 H   0  0  0  0  0  0  0  0  0  0  0  0
    3.6570    2.0037   21.7071 H   0  0  0  0  0  0  0  0  0  0  0  0
    5.7202    0.6868   22.0802 H   0  0  0  0  0  0  0  0  0  0  0  0
    7.9325   -6.4148   28.1641 H   0  0  0  0  0  0  0  0  0  0  0  0
    8.0254   -7.0920   26.5333 H   0  0  0  0  0  0  0  0  0  0  0  0
   10.3387   -6.1267   28.2923 H   0  0  0  0  0  0  0  0  0  0  0  0
    9.9904   -7.8023   27.8537 H   0  0  0  0  0  0  0  0  0  0  0  0
   11.7037   -6.0404   26.4771 H   0  0  0  0  0  0  0  0  0  0  0  0
   11.1411   -7.6068   25.8918 H   0  0  0  0  0  0  0  0  0  0  0  0
   10.7782   -5.5162   24.3756 H   0  0  0  0  0  0  0  0  0  0  0  0
    9.4042   -6.6189   24.5807 H   0  0  0  0  0  0  0  0  0  0  0  0
    9.3974    1.2912   24.5523 H   0  0  0  0  0  0  0  0  0  0  0  0
    9.5159    2.2168   23.0554 H   0  0  0  0  0  0  0  0  0  0  0  0
    7.5972   -1.2056   21.6500 H   0  0  0  0  0  0  0  0  0  0  0  0
    8.8612   -1.4622   20.4334 H   0  0  0  0  0  0  0  0  0  0  0  0
  1  2  1  0  0  0  0
  1  3  2  0  0  0  0
  2  4  2  0  0  0  0
  3  5  1  0  0  0  0
  4 10  1  0  0  0  0
  5 10  2  0  0  0  0
  6  8  2  0  0  0  0
  6 11  1  0  0  0  0
  7  9  1  0  0  0  0
  7 11  2  0  0  0  0
  8 12  1  0  0  0  0
  9 12  2  0  0  0  0
 10 25  1  0  0  0  0
 11 30  1  0  0  0  0
 12 31  1  0  0  0  0
 13 15  1  0  0  0  0
 13 27  2  0  0  0  0
 13 29  1  0  0  0  0
 14 26  1  0  0  0  0
 14 28  2  0  0  0  0
 14 29  1  0  0  0  0
 15 16  2  0  0  0  0
 16 17  1  0  0  0  0
 17 18  2  0  0  0  0
 18 29  1  0  0  0  0
 19 21  1  0  0  0  0
 19 30  1  0  0  0  0
 19 32  2  0  0  0  0
 20 26  1  0  0  0  0
 20 31  1  0  0  0  0
 20 33  2  0  0  0  0
 21 22  1  0  0  0  0
 22 23  1  0  0  0  0
 23 24  1  0  0  0  0
 24 30  1  0  0  0  0
 25 31  1  0  0  0  0
 27 28  1  0  0  0  0
  1 34  1  0  0  0  0
  2 35  1  0  0  0  0
  3 36  1  0  0  0  0
  4 37  1  0  0  0  0
  5 38  1  0  0  0  0
  6 39  1  0  0  0  0
  7 40  1  0  0  0  0
  8 41  1  0  0  0  0
  9 42  1  0  0  0  0
 15 43  1  0  0  0  0
 16 44  1  0  0  0  0
 17 45  1  0  0  0  0
 18 46  1  0  0  0  0
 21 47  1  0  0  0  0
 21 48  1  0  0  0  0
 22 49  1  0  0  0  0
 22 50  1  0  0  0  0
 23 51  1  0  0  0  0
 23 52  1  0  0  0  0
 24 53  1  0  0  0  0
 24 54  1  0  0  0  0
 25 55  1  0  0  0  0
 25 56  1  0  0  0  0
 26 57  1  0  0  0  0
 26 58  1  0  0  0  0
M  END
> <clash_score>
0.7790751876189459

> <docking_score>
-8.371596336364746

$$$$
BENZO_496_1
  -OEChem-08222011443D

 55 59  0     0  0  0  0  0  0999 V2000
    8.9960   -2.3380   25.5320 C   0  0  0  0  0  0  0  0  0  0  0  0
    9.6730   -3.4710   23.5300 C   0  0  0  0  0  0  0  0  0  0  0  0
    9.0720   -1.1280   24.8640 C   0  0  0  0  0  0  0  0  0  0  0  0
    9.7200   -2.2600   22.8630 C   0  0  0  0  0  0  0  0  0  0  0  0
   12.2913    1.4279   22.6355 C   0  0  0  0  0  0  0  0  0  0  0  0
   13.6024    1.4661   23.0564 C   0  0  0  0  0  0  0  0  0  0  0  0
   12.0284    1.3764   24.9443 C   0  0  0  0  0  0  0  0  0  0  0  0
   11.3794    1.3761   23.7290 C   0  0  0  0  0  0  0  0  0  0  0  0
    9.3070   -3.5340   24.8780 C   0  0  0  0  0  0  0  0  0  0  0  0
    9.3350   -1.0880   23.5010 C   0  0  0  0  0  0  0  0  0  0  0  0
    5.8300    0.9190   18.6970 C   0  0  0  0  0  0  0  0  0  0  0  0
    7.3170   -0.1610   19.8550 C   0  0  0  0  0  0  0  0  0  0  0  0
    4.6890    1.6810   18.4640 C   0  0  0  0  0  0  0  0  0  0  0  0
    3.9160    2.0630   19.5520 C   0  0  0  0  0  0  0  0  0  0  0  0
    4.2750    1.7050   20.8490 C   0  0  0  0  0  0  0  0  0  0  0  0
    5.4210    0.9600   21.0930 C   0  0  0  0  0  0  0  0  0  0  0  0
    8.3597   -5.0073   26.6307 C   0  0  0  0  0  0  0  0  0  0  0  0
    9.0420    0.3700   21.5280 C   0  0  0  0  0  0  0  0  0  0  0  0
    8.4720   -6.3981   27.2296 C   0  0  0  0  0  0  0  0  0  0  0  0
    9.9252   -6.7605   27.4803 C   0  0  0  0  0  0  0  0  0  0  0  0
   10.7833   -6.6094   26.2282 C   0  0  0  0  0  0  0  0  0  0  0  0
   10.0539   -5.9099   25.0823 C   0  0  0  0  0  0  0  0  0  0  0  0
    9.8870    1.3260   23.5730 C   0  0  0  0  0  0  0  0  0  0  0  0
    8.1890   -0.7180   20.8700 C   0  0  0  0  0  0  0  0  0  0  0  0
    6.7580    0.3810   17.8350 N   0  0  0  0  0  0  0  0  0  0  0  0
    7.6390   -0.2680   18.5410 N   0  0  0  0  0  0  0  0  0  0  0  0
    6.1790    0.5730   19.9990 N   0  0  0  0  0  0  0  0  0  0  0  0
    9.2529   -4.7797   25.5644 N   0  0  0  0  0  0  0  0  0  0  0  0
    9.4560    0.1560   22.8130 N   0  0  0  0  0  0  0  0  0  0  0  0
    7.4954   -4.2356   27.0449 O   0  0  0  0  0  0  0  0  0  0  0  0
    9.2690    1.4140   20.9380 O   0  0  0  0  0  0  0  0  0  0  0  0
   13.7301    1.4394   24.7638 S   0  0  0  0  0  0  0  0  0  0  0  0
    8.6895   -2.3529   26.5807 H   0  0  0  0  0  0  0  0  0  0  0  0
    9.9262   -4.3897   22.9916 H   0  0  0  0  0  0  0  0  0  0  0  0
    8.9224   -0.1998   25.4238 H   0  0  0  0  0  0  0  0  0  0  0  0
   10.0649   -2.2343   21.8258 H   0  0  0  0  0  0  0  0  0  0  0  0
   12.0045    1.4365   21.5915 H   0  0  0  0  0  0  0  0  0  0  0  0
   14.4914    1.5078   22.4431 H   0  0  0  0  0  0  0  0  0  0  0  0
   11.5886    1.3416   25.9314 H   0  0  0  0  0  0  0  0  0  0  0  0
    4.3966    1.9781   17.4720 H   0  0  0  0  0  0  0  0  0  0  0  0
    3.0227    2.6498   19.3695 H   0  0  0  0  0  0  0  0  0  0  0  0
    3.6570    2.0037   21.7071 H   0  0  0  0  0  0  0  0  0  0  0  0
    5.7202    0.6868   22.0802 H   0  0  0  0  0  0  0  0  0  0  0  0
    7.9325   -6.4148   28.1641 H   0  0  0  0  0  0  0  0  0  0  0  0
    8.0254   -7.0920   26.5333 H   0  0  0  0  0  0  0  0  0  0  0  0
   10.3387   -6.1267   28.2923 H   0  0  0  0  0  0  0  0  0  0  0  0
    9.9904   -7.8023   27.8537 H   0  0  0  0  0  0  0  0  0  0  0  0
   11.7037   -6.0404   26.4771 H   0  0  0  0  0  0  0  0  0  0  0  0
   11.1411   -7.6068   25.8918 H   0  0  0  0  0  0  0  0  0  0  0  0
   10.7782   -5.5162   24.3756 H   0  0  0  0  0  0  0  0  0  0  0  0
    9.4042   -6.6189   24.5807 H   0  0  0  0  0  0  0  0  0  0  0  0
    9.3974    1.2912   24.5523 H   0  0  0  0  0  0  0  0  0  0  0  0
    9.5159    2.2168   23.0554 H   0  0  0  0  0  0  0  0  0  0  0  0
    7.5972   -1.2056   21.6500 H   0  0  0  0  0  0  0  0  0  0  0  0
    8.8612   -1.4622   20.4334 H   0  0  0  0  0  0  0  0  0  0  0  0
  1  3  2  0  0  0  0
  1  9  1  0  0  0  0
  2  4  1  0  0  0  0
  2  9  2  0  0  0  0
  3 10  1  0  0  0  0
  4 10  2  0  0  0  0
  5  6  2  0  0  0  0
  5  8  1  0  0  0  0
  6 32  1  0  0  0  0
  7  8  2  0  0  0  0
  7 32  1  0  0  0  0
  8 23  1  0  0  0  0
  9 28  1  0  0  0  0
 10 29  1  0  0  0  0
 11 13  1  0  0  0  0
 11 25  2  0  0  0  0
 11 27  1  0  0  0  0
 12 24  1  0  0  0  0
 12 26  2  0  0  0  0
 12 27  1  0  0  0  0
 13 14  2  0  0  0  0
 14 15  1  0  0  0  0
 15 16  2  0  0  0  0
 16 27  1  0  0  0  0
 17 19  1  0  0  0  0
 17 28  1  0  0  0  0
 17 30  2  0  0  0  0
 18 24  1  0  0  0  0
 18 29  1  0  0  0  0
 18 31  2  0  0  0  0
 19 20  1  0  0  0  0
 20 21  1  0  0  0  0
 21 22  1  0  0  0  0
 22 28  1  0  0  0  0
 23 29  1  0  0  0  0
 25 26  1  0  0  0  0
  1 33  1  0  0  0  0
  2 34  1  0  0  0  0
  3 35  1  0  0  0  0
  4 36  1  0  0  0  0
  5 37  1  0  0  0  0
  6 38  1  0  0  0  0
  7 39  1  0  0  0  0
 13 40  1  0  0  0  0
 14 41  1  0  0  0  0
 15 42  1  0  0  0  0
 16 43  1  0  0  0  0
 19 44  1  0  0  0  0
 19 45  1  0  0  0  0
 20 46  1  0  0  0  0
 20 47  1  0  0  0  0
 21 48  1  0  0  0  0
 21 49  1  0  0  0  0
 22 50  1  0  0  0  0
 22 51  1  0  0  0  0
 23 52  1  0  0  0  0
 23 53  1  0  0  0  0
 24 54  1  0  0  0  0
 24 55  1  0  0  0  0
M  END
> <clash_score>
0.7790751876189459

> <docking_score>
-8.450456619262695

$$$$
BENZO_498_1
  -OEChem-08222011443D

 58 62  0     0  0  0  0  0  0999 V2000
    6.4089    2.0844   24.8766 C   0  0  0  0  0  0  0  0  0  0  0  0
    7.4847    1.4191   24.2887 C   0  0  0  0  0  0  0  0  0  0  0  0
    8.9960   -2.3380   25.5320 C   0  0  0  0  0  0  0  0  0  0  0  0
    9.6730   -3.4710   23.5300 C   0  0  0  0  0  0  0  0  0  0  0  0
    9.0720   -1.1280   24.8640 C   0  0  0  0  0  0  0  0  0  0  0  0
    9.7200   -2.2600   22.8630 C   0  0  0  0  0  0  0  0  0  0  0  0
    6.5777    3.3741   25.3805 C   0  0  0  0  0  0  0  0  0  0  0  0
    8.8980    3.3330   24.7088 C   0  0  0  0  0  0  0  0  0  0  0  0
    8.7292    2.0433   24.2048 C   0  0  0  0  0  0  0  0  0  0  0  0
    9.3070   -3.5340   24.8780 C   0  0  0  0  0  0  0  0  0  0  0  0
    9.3350   -1.0880   23.5010 C   0  0  0  0  0  0  0  0  0  0  0  0
    7.8222    3.9984   25.2966 C   0  0  0  0  0  0  0  0  0  0  0  0
    5.8300    0.9190   18.6970 C   0  0  0  0  0  0  0  0  0  0  0  0
    7.3170   -0.1610   19.8550 C   0  0  0  0  0  0  0  0  0  0  0  0
    4.6890    1.6810   18.4640 C   0  0  0  0  0  0  0  0  0  0  0  0
    3.9160    2.0630   19.5520 C   0  0  0  0  0  0  0  0  0  0  0  0
    4.2750    1.7050   20.8490 C   0  0  0  0  0  0  0  0  0  0  0  0
    5.4210    0.9600   21.0930 C   0  0  0  0  0  0  0  0  0  0  0  0
    8.3597   -5.0073   26.6307 C   0  0  0  0  0  0  0  0  0  0  0  0
    9.0420    0.3700   21.5280 C   0  0  0  0  0  0  0  0  0  0  0  0
    8.4720   -6.3981   27.2296 C   0  0  0  0  0  0  0  0  0  0  0  0
    9.9252   -6.7605   27.4803 C   0  0  0  0  0  0  0  0  0  0  0  0
   10.7833   -6.6094   26.2282 C   0  0  0  0  0  0  0  0  0  0  0  0
   10.0539   -5.9099   25.0823 C   0  0  0  0  0  0  0  0  0  0  0  0
    9.8870    1.3260   23.5730 C   0  0  0  0  0  0  0  0  0  0  0  0
    8.1890   -0.7180   20.8700 C   0  0  0  0  0  0  0  0  0  0  0  0
    6.7580    0.3810   17.8350 N   0  0  0  0  0  0  0  0  0  0  0  0
    7.6390   -0.2680   18.5410 N   0  0  0  0  0  0  0  0  0  0  0  0
    6.1790    0.5730   19.9990 N   0  0  0  0  0  0  0  0  0  0  0  0
    9.2529   -4.7797   25.5644 N   0  0  0  0  0  0  0  0  0  0  0  0
    9.4560    0.1560   22.8130 N   0  0  0  0  0  0  0  0  0  0  0  0
    7.4954   -4.2356   27.0449 O   0  0  0  0  0  0  0  0  0  0  0  0
    9.2690    1.4140   20.9380 O   0  0  0  0  0  0  0  0  0  0  0  0
    8.0301    5.5891   25.9196 Cl  0  0  0  0  0  0  0  0  0  0  0  0
    5.4400    1.5979   24.9418 H   0  0  0  0  0  0  0  0  0  0  0  0
    7.3441    0.4143   23.8988 H   0  0  0  0  0  0  0  0  0  0  0  0
    8.6895   -2.3529   26.5807 H   0  0  0  0  0  0  0  0  0  0  0  0
    9.9262   -4.3897   22.9916 H   0  0  0  0  0  0  0  0  0  0  0  0
    8.9224   -0.1998   25.4238 H   0  0  0  0  0  0  0  0  0  0  0  0
   10.0649   -2.2343   21.8258 H   0  0  0  0  0  0  0  0  0  0  0  0
    5.7304    3.8806   25.8363 H   0  0  0  0  0  0  0  0  0  0  0  0
    9.8702    3.8156   24.6405 H   0  0  0  0  0  0  0  0  0  0  0  0
    4.3966    1.9781   17.4720 H   0  0  0  0  0  0  0  0  0  0  0  0
    3.0227    2.6498   19.3695 H   0  0  0  0  0  0  0  0  0  0  0  0
    3.6570    2.0037   21.7071 H   0  0  0  0  0  0  0  0  0  0  0  0
    5.7202    0.6868   22.0802 H   0  0  0  0  0  0  0  0  0  0  0  0
    7.9325   -6.4148   28.1641 H   0  0  0  0  0  0  0  0  0  0  0  0
    8.0254   -7.0920   26.5333 H   0  0  0  0  0  0  0  0  0  0  0  0
   10.3387   -6.1267   28.2923 H   0  0  0  0  0  0  0  0  0  0  0  0
    9.9904   -7.8023   27.8537 H   0  0  0  0  0  0  0  0  0  0  0  0
   11.7037   -6.0404   26.4771 H   0  0  0  0  0  0  0  0  0  0  0  0
   11.1411   -7.6068   25.8918 H   0  0  0  0  0  0  0  0  0  0  0  0
   10.7782   -5.5162   24.3756 H   0  0  0  0  0  0  0  0  0  0  0  0
    9.4042   -6.6189   24.5807 H   0  0  0  0  0  0  0  0  0  0  0  0
   10.4274    1.9911   22.8906 H   0  0  0  0  0  0  0  0  0  0  0  0
   10.6011    0.9882   24.3313 H   0  0  0  0  0  0  0  0  0  0  0  0
    7.5972   -1.2056   21.6500 H   0  0  0  0  0  0  0  0  0  0  0  0
    8.8612   -1.4622   20.4334 H   0  0  0  0  0  0  0  0  0  0  0  0
  1  2  2  0  0  0  0
  1  7  1  0  0  0  0
  2  9  1  0  0  0  0
  3  5  2  0  0  0  0
  3 10  1  0  0  0  0
  4  6  1  0  0  0  0
  4 10  2  0  0  0  0
  5 11  1  0  0  0  0
  6 11  2  0  0  0  0
  7 12  2  0  0  0  0
  8  9  2  0  0  0  0
  8 12  1  0  0  0  0
  9 25  1  0  0  0  0
 10 30  1  0  0  0  0
 11 31  1  0  0  0  0
 12 34  1  0  0  0  0
 13 15  1  0  0  0  0
 13 27  2  0  0  0  0
 13 29  1  0  0  0  0
 14 26  1  0  0  0  0
 14 28  2  0  0  0  0
 14 29  1  0  0  0  0
 15 16  2  0  0  0  0
 16 17  1  0  0  0  0
 17 18  2  0  0  0  0
 18 29  1  0  0  0  0
 19 21  1  0  0  0  0
 19 30  1  0  0  0  0
 19 32  2  0  0  0  0
 20 26  1  0  0  0  0
 20 31  1  0  0  0  0
 20 33  2  0  0  0  0
 21 22  1  0  0  0  0
 22 23  1  0  0  0  0
 23 24  1  0  0  0  0
 24 30  1  0  0  0  0
 25 31  1  0  0  0  0
 27 28  1  0  0  0  0
  1 35  1  0  0  0  0
  2 36  1  0  0  0  0
  3 37  1  0  0  0  0
  4 38  1  0  0  0  0
  5 39  1  0  0  0  0
  6 40  1  0  0  0  0
  7 41  1  0  0  0  0
  8 42  1  0  0  0  0
 15 43  1  0  0  0  0
 16 44  1  0  0  0  0
 17 45  1  0  0  0  0
 18 46  1  0  0  0  0
 21 47  1  0  0  0  0
 21 48  1  0  0  0  0
 22 49  1  0  0  0  0
 22 50  1  0  0  0  0
 23 51  1  0  0  0  0
 23 52  1  0  0  0  0
 24 53  1  0  0  0  0
 24 54  1  0  0  0  0
 25 55  1  0  0  0  0
 25 56  1  0  0  0  0
 26 57  1  0  0  0  0
 26 58  1  0  0  0  0
M  END
> <clash_score>
0.7790751876189459

> <docking_score>
-7.757610321044922

$$$$
BENZO_499_1
  -OEChem-08222011443D

 58 62  0     0  0  0  0  0  0999 V2000
    8.9960   -2.3380   25.5320 C   0  0  0  0  0  0  0  0  0  0  0  0
    9.6730   -3.4710   23.5300 C   0  0  0  0  0  0  0  0  0  0  0  0
    9.0720   -1.1280   24.8640 C   0  0  0  0  0  0  0  0  0  0  0  0
    9.7200   -2.2600   22.8630 C   0  0  0  0  0  0  0  0  0  0  0  0
   12.1233    1.3811   24.9242 C   0  0  0  0  0  0  0  0  0  0  0  0
   12.3262    1.4247   22.7351 C   0  0  0  0  0  0  0  0  0  0  0  0
   11.3794    1.3761   23.7290 C   0  0  0  0  0  0  0  0  0  0  0  0
    9.3070   -3.5340   24.8780 C   0  0  0  0  0  0  0  0  0  0  0  0
    9.3350   -1.0880   23.5010 C   0  0  0  0  0  0  0  0  0  0  0  0
    5.8300    0.9190   18.6970 C   0  0  0  0  0  0  0  0  0  0  0  0
    7.3170   -0.1610   19.8550 C   0  0  0  0  0  0  0  0  0  0  0  0
    4.6890    1.6810   18.4640 C   0  0  0  0  0  0  0  0  0  0  0  0
    3.9160    2.0630   19.5520 C   0  0  0  0  0  0  0  0  0  0  0  0
    4.2750    1.7050   20.8490 C   0  0  0  0  0  0  0  0  0  0  0  0
    5.4210    0.9600   21.0930 C   0  0  0  0  0  0  0  0  0  0  0  0
    8.3597   -5.0073   26.6307 C   0  0  0  0  0  0  0  0  0  0  0  0
    9.0420    0.3700   21.5280 C   0  0  0  0  0  0  0  0  0  0  0  0
    8.4720   -6.3981   27.2296 C   0  0  0  0  0  0  0  0  0  0  0  0
    9.9252   -6.7605   27.4803 C   0  0  0  0  0  0  0  0  0  0  0  0
   10.7833   -6.6094   26.2282 C   0  0  0  0  0  0  0  0  0  0  0  0
   10.0539   -5.9099   25.0823 C   0  0  0  0  0  0  0  0  0  0  0  0
   14.8305    1.5084   22.7418 C   0  0  0  0  0  0  0  0  0  0  0  0
    9.8870    1.3260   23.5730 C   0  0  0  0  0  0  0  0  0  0  0  0
    8.1890   -0.7180   20.8700 C   0  0  0  0  0  0  0  0  0  0  0  0
   13.4410    1.4289   24.7112 N   0  0  0  0  0  0  0  0  0  0  0  0
    6.7580    0.3810   17.8350 N   0  0  0  0  0  0  0  0  0  0  0  0
    7.6390   -0.2680   18.5410 N   0  0  0  0  0  0  0  0  0  0  0  0
   13.5326    1.4543   23.3707 N   0  0  0  0  0  0  0  0  0  0  0  0
    6.1790    0.5730   19.9990 N   0  0  0  0  0  0  0  0  0  0  0  0
    9.2529   -4.7797   25.5644 N   0  0  0  0  0  0  0  0  0  0  0  0
    9.4560    0.1560   22.8130 N   0  0  0  0  0  0  0  0  0  0  0  0
    7.4954   -4.2356   27.0449 O   0  0  0  0  0  0  0  0  0  0  0  0
    9.2690    1.4140   20.9380 O   0  0  0  0  0  0  0  0  0  0  0  0
    8.6895   -2.3529   26.5807 H   0  0  0  0  0  0  0  0  0  0  0  0
    9.9262   -4.3897   22.9916 H   0  0  0  0  0  0  0  0  0  0  0  0
    8.9224   -0.1998   25.4238 H   0  0  0  0  0  0  0  0  0  0  0  0
   10.0649   -2.2343   21.8258 H   0  0  0  0  0  0  0  0  0  0  0  0
   11.7624    1.3510   25.9426 H   0  0  0  0  0  0  0  0  0  0  0  0
   12.2462    1.4390   21.6566 H   0  0  0  0  0  0  0  0  0  0  0  0
    4.3966    1.9781   17.4720 H   0  0  0  0  0  0  0  0  0  0  0  0
    3.0227    2.6498   19.3695 H   0  0  0  0  0  0  0  0  0  0  0  0
    3.6570    2.0037   21.7071 H   0  0  0  0  0  0  0  0  0  0  0  0
    5.7202    0.6868   22.0802 H   0  0  0  0  0  0  0  0  0  0  0  0
    7.9325   -6.4148   28.1641 H   0  0  0  0  0  0  0  0  0  0  0  0
    8.0254   -7.0920   26.5333 H   0  0  0  0  0  0  0  0  0  0  0  0
   10.3387   -6.1267   28.2923 H   0  0  0  0  0  0  0  0  0  0  0  0
    9.9904   -7.8023   27.8537 H   0  0  0  0  0  0  0  0  0  0  0  0
   11.7037   -6.0404   26.4771 H   0  0  0  0  0  0  0  0  0  0  0  0
   11.1411   -7.6068   25.8918 H   0  0  0  0  0  0  0  0  0  0  0  0
   10.7782   -5.5162   24.3756 H   0  0  0  0  0  0  0  0  0  0  0  0
    9.4042   -6.6189   24.5807 H   0  0  0  0  0  0  0  0  0  0  0  0
   15.0990    2.5601   22.6124 H   0  0  0  0  0  0  0  0  0  0  0  0
   15.5636    1.0018   23.3756 H   0  0  0  0  0  0  0  0  0  0  0  0
   14.7841    1.0025   21.7733 H   0  0  0  0  0  0  0  0  0  0  0  0
    9.3974    1.2912   24.5523 H   0  0  0  0  0  0  0  0  0  0  0  0
    9.5159    2.2168   23.0554 H   0  0  0  0  0  0  0  0  0  0  0  0
    7.5972   -1.2056   21.6500 H   0  0  0  0  0  0  0  0  0  0  0  0
    8.8612   -1.4622   20.4334 H   0  0  0  0  0  0  0  0  0  0  0  0
  1  3  2  0  0  0  0
  1  8  1  0  0  0  0
  2  4  1  0  0  0  0
  2  8  2  0  0  0  0
  3  9  1  0  0  0  0
  4  9  2  0  0  0  0
  5  7  1  0  0  0  0
  5 25  2  0  0  0  0
  6  7  2  0  0  0  0
  6 28  1  0  0  0  0
  7 23  1  0  0  0  0
  8 30  1  0  0  0  0
  9 31  1  0  0  0  0
 10 12  1  0  0  0  0
 10 26  2  0  0  0  0
 10 29  1  0  0  0  0
 11 24  1  0  0  0  0
 11 27  2  0  0  0  0
 11 29  1  0  0  0  0
 12 13  2  0  0  0  0
 13 14  1  0  0  0  0
 14 15  2  0  0  0  0
 15 29  1  0  0  0  0
 16 18  1  0  0  0  0
 16 30  1  0  0  0  0
 16 32  2  0  0  0  0
 17 24  1  0  0  0  0
 17 31  1  0  0  0  0
 17 33  2  0  0  0  0
 18 19  1  0  0  0  0
 19 20  1  0  0  0  0
 20 21  1  0  0  0  0
 21 30  1  0  0  0  0
 22 28  1  0  0  0  0
 23 31  1  0  0  0  0
 25 28  1  0  0  0  0
 26 27  1  0  0  0  0
  1 34  1  0  0  0  0
  2 35  1  0  0  0  0
  3 36  1  0  0  0  0
  4 37  1  0  0  0  0
  5 38  1  0  0  0  0
  6 39  1  0  0  0  0
 12 40  1  0  0  0  0
 13 41  1  0  0  0  0
 14 42  1  0  0  0  0
 15 43  1  0  0  0  0
 18 44  1  0  0  0  0
 18 45  1  0  0  0  0
 19 46  1  0  0  0  0
 19 47  1  0  0  0  0
 20 48  1  0  0  0  0
 20 49  1  0  0  0  0
 21 50  1  0  0  0  0
 21 51  1  0  0  0  0
 22 52  1  0  0  0  0
 22 53  1  0  0  0  0
 22 54  1  0  0  0  0
 23 55  1  0  0  0  0
 23 56  1  0  0  0  0
 24 57  1  0  0  0  0
 24 58  1  0  0  0  0
M  END
> <clash_score>
0.7790751876189459

> <docking_score>
-8.087728500366211

$$$$
BENZO_500_1
  -OEChem-08222011443D

 54 58  0     0  0  0  0  0  0999 V2000
    8.9960   -2.3380   25.5320 C   0  0  0  0  0  0  0  0  0  0  0  0
    9.6730   -3.4710   23.5300 C   0  0  0  0  0  0  0  0  0  0  0  0
    9.0720   -1.1280   24.8640 C   0  0  0  0  0  0  0  0  0  0  0  0
    9.7200   -2.2600   22.8630 C   0  0  0  0  0  0  0  0  0  0  0  0
   12.2913    1.4279   22.6355 C   0  0  0  0  0  0  0  0  0  0  0  0
   13.6024    1.4662   23.0564 C   0  0  0  0  0  0  0  0  0  0  0  0
   12.0284    1.3764   24.9443 C   0  0  0  0  0  0  0  0  0  0  0  0
   11.3794    1.3761   23.7290 C   0  0  0  0  0  0  0  0  0  0  0  0
    9.3070   -3.5340   24.8780 C   0  0  0  0  0  0  0  0  0  0  0  0
    9.3350   -1.0880   23.5010 C   0  0  0  0  0  0  0  0  0  0  0  0
    5.8300    0.9190   18.6970 C   0  0  0  0  0  0  0  0  0  0  0  0
    7.3170   -0.1610   19.8550 C   0  0  0  0  0  0  0  0  0  0  0  0
    4.6890    1.6810   18.4640 C   0  0  0  0  0  0  0  0  0  0  0  0
    3.9160    2.0630   19.5520 C   0  0  0  0  0  0  0  0  0  0  0  0
    4.2750    1.7050   20.8490 C   0  0  0  0  0  0  0  0  0  0  0  0
    5.4210    0.9600   21.0930 C   0  0  0  0  0  0  0  0  0  0  0  0
    9.0420    0.3700   21.5280 C   0  0  0  0  0  0  0  0  0  0  0  0
   10.0771   -5.0255   26.7193 C   0  0  0  0  0  0  0  0  0  0  0  0
    8.0927   -5.6195   25.4071 C   0  0  0  0  0  0  0  0  0  0  0  0
    9.1933   -4.9427   27.9592 C   0  0  0  0  0  0  0  0  0  0  0  0
    7.2756   -5.5290   26.6967 C   0  0  0  0  0  0  0  0  0  0  0  0
    9.8870    1.3260   23.5730 C   0  0  0  0  0  0  0  0  0  0  0  0
    8.1890   -0.7180   20.8700 C   0  0  0  0  0  0  0  0  0  0  0  0
    6.7580    0.3810   17.8350 N   0  0  0  0  0  0  0  0  0  0  0  0
    7.6390   -0.2680   18.5410 N   0  0  0  0  0  0  0  0  0  0  0  0
    6.1790    0.5730   19.9990 N   0  0  0  0  0  0  0  0  0  0  0  0
    9.2563   -4.7368   25.5413 N   0  0  0  0  0  0  0  0  0  0  0  0
    9.4560    0.1560   22.8130 N   0  0  0  0  0  0  0  0  0  0  0  0
    9.2690    1.4140   20.9380 O   0  0  0  0  0  0  0  0  0  0  0  0
    8.0883   -5.8459   27.8325 O   0  0  0  0  0  0  0  0  0  0  0  0
   13.7301    1.4394   24.7638 S   0  0  0  0  0  0  0  0  0  0  0  0
    8.6905   -2.3533   26.5810 H   0  0  0  0  0  0  0  0  0  0  0  0
    9.9266   -4.3896   22.9917 H   0  0  0  0  0  0  0  0  0  0  0  0
    8.9233   -0.1992   25.4232 H   0  0  0  0  0  0  0  0  0  0  0  0
   10.0650   -2.2330   21.8256 H   0  0  0  0  0  0  0  0  0  0  0  0
   12.0045    1.4365   21.5915 H   0  0  0  0  0  0  0  0  0  0  0  0
   14.4914    1.5078   22.4430 H   0  0  0  0  0  0  0  0  0  0  0  0
   11.5886    1.3416   25.9314 H   0  0  0  0  0  0  0  0  0  0  0  0
    4.3966    1.9781   17.4720 H   0  0  0  0  0  0  0  0  0  0  0  0
    3.0227    2.6498   19.3695 H   0  0  0  0  0  0  0  0  0  0  0  0
    3.6570    2.0037   21.7071 H   0  0  0  0  0  0  0  0  0  0  0  0
    5.7202    0.6868   22.0802 H   0  0  0  0  0  0  0  0  0  0  0  0
   10.8985   -4.3115   26.8085 H   0  0  0  0  0  0  0  0  0  0  0  0
   10.4915   -6.0334   26.6323 H   0  0  0  0  0  0  0  0  0  0  0  0
    8.4327   -6.6456   25.2620 H   0  0  0  0  0  0  0  0  0  0  0  0
    7.4725   -5.3241   24.5619 H   0  0  0  0  0  0  0  0  0  0  0  0
    9.7636   -5.2398   28.8419 H   0  0  0  0  0  0  0  0  0  0  0  0
    8.8236   -3.9268   28.1248 H   0  0  0  0  0  0  0  0  0  0  0  0
    6.8339   -4.5337   26.8232 H   0  0  0  0  0  0  0  0  0  0  0  0
    6.4550   -6.2521   26.6643 H   0  0  0  0  0  0  0  0  0  0  0  0
    9.3974    1.2912   24.5523 H   0  0  0  0  0  0  0  0  0  0  0  0
    9.5159    2.2168   23.0554 H   0  0  0  0  0  0  0  0  0  0  0  0
    7.5972   -1.2056   21.6500 H   0  0  0  0  0  0  0  0  0  0  0  0
    8.8612   -1.4622   20.4334 H   0  0  0  0  0  0  0  0  0  0  0  0
  1  3  2  0  0  0  0
  1  9  1  0  0  0  0
  2  4  1  0  0  0  0
  2  9  2  0  0  0  0
  3 10  1  0  0  0  0
  4 10  2  0  0  0  0
  5  6  2  0  0  0  0
  5  8  1  0  0  0  0
  6 31  1  0  0  0  0
  7  8  2  0  0  0  0
  7 31  1  0  0  0  0
  8 22  1  0  0  0  0
  9 27  1  0  0  0  0
 10 28  1  0  0  0  0
 11 13  1  0  0  0  0
 11 24  2  0  0  0  0
 11 26  1  0  0  0  0
 12 23  1  0  0  0  0
 12 25  2  0  0  0  0
 12 26  1  0  0  0  0
 13 14  2  0  0  0  0
 14 15  1  0  0  0  0
 15 16  2  0  0  0  0
 16 26  1  0  0  0  0
 17 23  1  0  0  0  0
 17 28  1  0  0  0  0
 17 29  2  0  0  0  0
 18 20  1  0  0  0  0
 18 27  1  0  0  0  0
 19 21  1  0  0  0  0
 19 27  1  0  0  0  0
 20 30  1  0  0  0  0
 21 30  1  0  0  0  0
 22 28  1  0  0  0  0
 24 25  1  0  0  0  0
  1 32  1  0  0  0  0
  2 33  1  0  0  0  0
  3 34  1  0  0  0  0
  4 35  1  0  0  0  0
  5 36  1  0  0  0  0
  6 37  1  0  0  0  0
  7 38  1  0  0  0  0
 13 39  1  0  0  0  0
 14 40  1  0  0  0  0
 15 41  1  0  0  0  0
 16 42  1  0  0  0  0
 18 43  1  0  0  0  0
 18 44  1  0  0  0  0
 19 45  1  0  0  0  0
 19 46  1  0  0  0  0
 20 47  1  0  0  0  0
 20 48  1  0  0  0  0
 21 49  1  0  0  0  0
 21 50  1  0  0  0  0
 22 51  1  0  0  0  0
 22 52  1  0  0  0  0
 23 53  1  0  0  0  0
 23 54  1  0  0  0  0
M  END
> <clash_score>
0

> <docking_score>
-9.431567192077637

$$$$
BENZO_501_1
  -OEChem-08222011443D

 57 61  0     0  0  0  0  0  0999 V2000
   14.1526    1.4694   24.0176 C   0  0  0  0  0  0  0  0  0  0  0  0
   13.3741    0.8121   24.9701 C   0  0  0  0  0  0  0  0  0  0  0  0
   13.5446    2.0802   22.9208 C   0  0  0  0  0  0  0  0  0  0  0  0
   11.9875    0.7654   24.8258 C   0  0  0  0  0  0  0  0  0  0  0  0
   12.1580    2.0335   22.7765 C   0  0  0  0  0  0  0  0  0  0  0  0
    8.9960   -2.3380   25.5320 C   0  0  0  0  0  0  0  0  0  0  0  0
    9.6730   -3.4710   23.5300 C   0  0  0  0  0  0  0  0  0  0  0  0
    9.0720   -1.1280   24.8640 C   0  0  0  0  0  0  0  0  0  0  0  0
    9.7200   -2.2600   22.8630 C   0  0  0  0  0  0  0  0  0  0  0  0
   11.3794    1.3761   23.7290 C   0  0  0  0  0  0  0  0  0  0  0  0
    9.3070   -3.5340   24.8780 C   0  0  0  0  0  0  0  0  0  0  0  0
    9.3350   -1.0880   23.5010 C   0  0  0  0  0  0  0  0  0  0  0  0
    5.8300    0.9190   18.6970 C   0  0  0  0  0  0  0  0  0  0  0  0
    7.3170   -0.1610   19.8550 C   0  0  0  0  0  0  0  0  0  0  0  0
    4.6890    1.6810   18.4640 C   0  0  0  0  0  0  0  0  0  0  0  0
    3.9160    2.0630   19.5520 C   0  0  0  0  0  0  0  0  0  0  0  0
    4.2750    1.7050   20.8490 C   0  0  0  0  0  0  0  0  0  0  0  0
    5.4210    0.9600   21.0930 C   0  0  0  0  0  0  0  0  0  0  0  0
    9.0420    0.3700   21.5280 C   0  0  0  0  0  0  0  0  0  0  0  0
   10.0771   -5.0255   26.7193 C   0  0  0  0  0  0  0  0  0  0  0  0
    8.0927   -5.6195   25.4071 C   0  0  0  0  0  0  0  0  0  0  0  0
    9.1933   -4.9427   27.9592 C   0  0  0  0  0  0  0  0  0  0  0  0
    7.2756   -5.5290   26.6967 C   0  0  0  0  0  0  0  0  0  0  0  0
    9.8870    1.3260   23.5730 C   0  0  0  0  0  0  0  0  0  0  0  0
    8.1890   -0.7180   20.8700 C   0  0  0  0  0  0  0  0  0  0  0  0
    6.7580    0.3810   17.8350 N   0  0  0  0  0  0  0  0  0  0  0  0
    7.6390   -0.2680   18.5410 N   0  0  0  0  0  0  0  0  0  0  0  0
    6.1790    0.5730   19.9990 N   0  0  0  0  0  0  0  0  0  0  0  0
    9.2563   -4.7368   25.5413 N   0  0  0  0  0  0  0  0  0  0  0  0
    9.4560    0.1560   22.8130 N   0  0  0  0  0  0  0  0  0  0  0  0
    9.2690    1.4140   20.9380 O   0  0  0  0  0  0  0  0  0  0  0  0
    8.0883   -5.8459   27.8325 O   0  0  0  0  0  0  0  0  0  0  0  0
   15.2322    1.5068   24.1308 H   0  0  0  0  0  0  0  0  0  0  0  0
   13.8473    0.3374   25.8248 H   0  0  0  0  0  0  0  0  0  0  0  0
   14.1503    2.5930   22.1795 H   0  0  0  0  0  0  0  0  0  0  0  0
   11.3889    0.2508   25.5729 H   0  0  0  0  0  0  0  0  0  0  0  0
   11.6930    2.5120   21.9187 H   0  0  0  0  0  0  0  0  0  0  0  0
    8.6905   -2.3533   26.5810 H   0  0  0  0  0  0  0  0  0  0  0  0
    9.9266   -4.3896   22.9917 H   0  0  0  0  0  0  0  0  0  0  0  0
    8.9233   -0.1992   25.4232 H   0  0  0  0  0  0  0  0  0  0  0  0
   10.0650   -2.2330   21.8256 H   0  0  0  0  0  0  0  0  0  0  0  0
    4.3966    1.9781   17.4720 H   0  0  0  0  0  0  0  0  0  0  0  0
    3.0227    2.6498   19.3695 H   0  0  0  0  0  0  0  0  0  0  0  0
    3.6570    2.0037   21.7071 H   0  0  0  0  0  0  0  0  0  0  0  0
    5.7202    0.6868   22.0802 H   0  0  0  0  0  0  0  0  0  0  0  0
   10.8985   -4.3115   26.8085 H   0  0  0  0  0  0  0  0  0  0  0  0
   10.4915   -6.0334   26.6323 H   0  0  0  0  0  0  0  0  0  0  0  0
    8.4327   -6.6456   25.2620 H   0  0  0  0  0  0  0  0  0  0  0  0
    7.4725   -5.3241   24.5619 H   0  0  0  0  0  0  0  0  0  0  0  0
    9.7636   -5.2398   28.8419 H   0  0  0  0  0  0  0  0  0  0  0  0
    8.8236   -3.9268   28.1248 H   0  0  0  0  0  0  0  0  0  0  0  0
    6.8339   -4.5337   26.8232 H   0  0  0  0  0  0  0  0  0  0  0  0
    6.4550   -6.2521   26.6643 H   0  0  0  0  0  0  0  0  0  0  0  0
    9.3974    1.2912   24.5523 H   0  0  0  0  0  0  0  0  0  0  0  0
    9.5159    2.2168   23.0554 H   0  0  0  0  0  0  0  0  0  0  0  0
    7.5972   -1.2056   21.6500 H   0  0  0  0  0  0  0  0  0  0  0  0
    8.8612   -1.4622   20.4334 H   0  0  0  0  0  0  0  0  0  0  0  0
  1  2  1  0  0  0  0
  1  3  2  0  0  0  0
  2  4  2  0  0  0  0
  3  5  1  0  0  0  0
  4 10  1  0  0  0  0
  5 10  2  0  0  0  0
  6  8  2  0  0  0  0
  6 11  1  0  0  0  0
  7  9  1  0  0  0  0
  7 11  2  0  0  0  0
  8 12  1  0  0  0  0
  9 12  2  0  0  0  0
 10 24  1  0  0  0  0
 11 29  1  0  0  0  0
 12 30  1  0  0  0  0
 13 15  1  0  0  0  0
 13 26  2  0  0  0  0
 13 28  1  0  0  0  0
 14 25  1  0  0  0  0
 14 27  2  0  0  0  0
 14 28  1  0  0  0  0
 15 16  2  0  0  0  0
 16 17  1  0  0  0  0
 17 18  2  0  0  0  0
 18 28  1  0  0  0  0
 19 25  1  0  0  0  0
 19 30  1  0  0  0  0
 19 31  2  0  0  0  0
 20 22  1  0  0  0  0
 20 29  1  0  0  0  0
 21 23  1  0  0  0  0
 21 29  1  0  0  0  0
 22 32  1  0  0  0  0
 23 32  1  0  0  0  0
 24 30  1  0  0  0  0
 26 27  1  0  0  0  0
  1 33  1  0  0  0  0
  2 34  1  0  0  0  0
  3 35  1  0  0  0  0
  4 36  1  0  0  0  0
  5 37  1  0  0  0  0
  6 38  1  0  0  0  0
  7 39  1  0  0  0  0
  8 40  1  0  0  0  0
  9 41  1  0  0  0  0
 15 42  1  0  0  0  0
 16 43  1  0  0  0  0
 17 44  1  0  0  0  0
 18 45  1  0  0  0  0
 20 46  1  0  0  0  0
 20 47  1  0  0  0  0
 21 48  1  0  0  0  0
 21 49  1  0  0  0  0
 22 50  1  0  0  0  0
 22 51  1  0  0  0  0
 23 52  1  0  0  0  0
 23 53  1  0  0  0  0
 24 54  1  0  0  0  0
 24 55  1  0  0  0  0
 25 56  1  0  0  0  0
 25 57  1  0  0  0  0
M  END
> <clash_score>
0

> <docking_score>
-9.35270881652832

$$$$
BENZO_502_1
  -OEChem-08222011443D

 57 61  0     0  0  0  0  0  0999 V2000
    6.4089    2.0844   24.8766 C   0  0  0  0  0  0  0  0  0  0  0  0
    7.4847    1.4191   24.2887 C   0  0  0  0  0  0  0  0  0  0  0  0
    8.9960   -2.3380   25.5320 C   0  0  0  0  0  0  0  0  0  0  0  0
    9.6730   -3.4710   23.5300 C   0  0  0  0  0  0  0  0  0  0  0  0
    9.0720   -1.1280   24.8640 C   0  0  0  0  0  0  0  0  0  0  0  0
    9.7200   -2.2600   22.8630 C   0  0  0  0  0  0  0  0  0  0  0  0
    6.5777    3.3741   25.3805 C   0  0  0  0  0  0  0  0  0  0  0  0
    8.8980    3.3330   24.7088 C   0  0  0  0  0  0  0  0  0  0  0  0
    8.7292    2.0433   24.2048 C   0  0  0  0  0  0  0  0  0  0  0  0
    9.3070   -3.5340   24.8780 C   0  0  0  0  0  0  0  0  0  0  0  0
    9.3350   -1.0880   23.5010 C   0  0  0  0  0  0  0  0  0  0  0  0
    7.8222    3.9984   25.2966 C   0  0  0  0  0  0  0  0  0  0  0  0
    5.8300    0.9190   18.6970 C   0  0  0  0  0  0  0  0  0  0  0  0
    7.3170   -0.1610   19.8550 C   0  0  0  0  0  0  0  0  0  0  0  0
    4.6890    1.6810   18.4640 C   0  0  0  0  0  0  0  0  0  0  0  0
    3.9160    2.0630   19.5520 C   0  0  0  0  0  0  0  0  0  0  0  0
    4.2750    1.7050   20.8490 C   0  0  0  0  0  0  0  0  0  0  0  0
    5.4210    0.9600   21.0930 C   0  0  0  0  0  0  0  0  0  0  0  0
    9.0420    0.3700   21.5280 C   0  0  0  0  0  0  0  0  0  0  0  0
    9.5175   -4.8597   26.9771 C   0  0  0  0  0  0  0  0  0  0  0  0
    8.5165   -5.8725   24.9808 C   0  0  0  0  0  0  0  0  0  0  0  0
    8.1868   -5.0439   27.6987 C   0  0  0  0  0  0  0  0  0  0  0  0
    7.2200   -6.0347   25.7755 C   0  0  0  0  0  0  0  0  0  0  0  0
    9.8870    1.3260   23.5730 C   0  0  0  0  0  0  0  0  0  0  0  0
    8.1890   -0.7180   20.8700 C   0  0  0  0  0  0  0  0  0  0  0  0
    6.7580    0.3810   17.8350 N   0  0  0  0  0  0  0  0  0  0  0  0
    7.6390   -0.2680   18.5410 N   0  0  0  0  0  0  0  0  0  0  0  0
    6.1790    0.5730   19.9990 N   0  0  0  0  0  0  0  0  0  0  0  0
    9.2563   -4.7368   25.5413 N   0  0  0  0  0  0  0  0  0  0  0  0
    9.4560    0.1560   22.8130 N   0  0  0  0  0  0  0  0  0  0  0  0
    9.2690    1.4140   20.9380 O   0  0  0  0  0  0  0  0  0  0  0  0
    7.4994   -6.1853   27.1719 O   0  0  0  0  0  0  0  0  0  0  0  0
    8.0301    5.5891   25.9196 Cl  0  0  0  0  0  0  0  0  0  0  0  0
    5.4400    1.5979   24.9418 H   0  0  0  0  0  0  0  0  0  0  0  0
    7.3441    0.4143   23.8988 H   0  0  0  0  0  0  0  0  0  0  0  0
    8.6905   -2.3533   26.5810 H   0  0  0  0  0  0  0  0  0  0  0  0
    9.9266   -4.3896   22.9917 H   0  0  0  0  0  0  0  0  0  0  0  0
    8.9233   -0.1992   25.4232 H   0  0  0  0  0  0  0  0  0  0  0  0
   10.0650   -2.2330   21.8256 H   0  0  0  0  0  0  0  0  0  0  0  0
    5.7304    3.8806   25.8363 H   0  0  0  0  0  0  0  0  0  0  0  0
    9.8703    3.8156   24.6405 H   0  0  0  0  0  0  0  0  0  0  0  0
    4.3966    1.9781   17.4720 H   0  0  0  0  0  0  0  0  0  0  0  0
    3.0227    2.6498   19.3695 H   0  0  0  0  0  0  0  0  0  0  0  0
    3.6570    2.0037   21.7071 H   0  0  0  0  0  0  0  0  0  0  0  0
    5.7202    0.6868   22.0802 H   0  0  0  0  0  0  0  0  0  0  0  0
   10.0205   -3.9698   27.3609 H   0  0  0  0  0  0  0  0  0  0  0  0
   10.1535   -5.7310   27.1549 H   0  0  0  0  0  0  0  0  0  0  0  0
    9.1181   -6.7773   25.0755 H   0  0  0  0  0  0  0  0  0  0  0  0
    8.2812   -5.7064   23.9305 H   0  0  0  0  0  0  0  0  0  0  0  0
    8.3629   -5.2252   28.7611 H   0  0  0  0  0  0  0  0  0  0  0  0
    7.5530   -4.1570   27.6103 H   0  0  0  0  0  0  0  0  0  0  0  0
    6.5459   -5.1839   25.6221 H   0  0  0  0  0  0  0  0  0  0  0  0
    6.6948   -6.9354   25.4436 H   0  0  0  0  0  0  0  0  0  0  0  0
   10.4274    1.9911   22.8906 H   0  0  0  0  0  0  0  0  0  0  0  0
   10.6011    0.9882   24.3313 H   0  0  0  0  0  0  0  0  0  0  0  0
    7.5972   -1.2056   21.6500 H   0  0  0  0  0  0  0  0  0  0  0  0
    8.8612   -1.4622   20.4334 H   0  0  0  0  0  0  0  0  0  0  0  0
  1  2  2  0  0  0  0
  1  7  1  0  0  0  0
  2  9  1  0  0  0  0
  3  5  2  0  0  0  0
  3 10  1  0  0  0  0
  4  6  1  0  0  0  0
  4 10  2  0  0  0  0
  5 11  1  0  0  0  0
  6 11  2  0  0  0  0
  7 12  2  0  0  0  0
  8  9  2  0  0  0  0
  8 12  1  0  0  0  0
  9 24  1  0  0  0  0
 10 29  1  0  0  0  0
 11 30  1  0  0  0  0
 12 33  1  0  0  0  0
 13 15  1  0  0  0  0
 13 26  2  0  0  0  0
 13 28  1  0  0  0  0
 14 25  1  0  0  0  0
 14 27  2  0  0  0  0
 14 28  1  0  0  0  0
 15 16  2  0  0  0  0
 16 17  1  0  0  0  0
 17 18  2  0  0  0  0
 18 28  1  0  0  0  0
 19 25  1  0  0  0  0
 19 30  1  0  0  0  0
 19 31  2  0  0  0  0
 20 22  1  0  0  0  0
 20 29  1  0  0  0  0
 21 23  1  0  0  0  0
 21 29  1  0  0  0  0
 22 32  1  0  0  0  0
 23 32  1  0  0  0  0
 24 30  1  0  0  0  0
 26 27  1  0  0  0  0
  1 34  1  0  0  0  0
  2 35  1  0  0  0  0
  3 36  1  0  0  0  0
  4 37  1  0  0  0  0
  5 38  1  0  0  0  0
  6 39  1  0  0  0  0
  7 40  1  0  0  0  0
  8 41  1  0  0  0  0
 15 42  1  0  0  0  0
 16 43  1  0  0  0  0
 17 44  1  0  0  0  0
 18 45  1  0  0  0  0
 20 46  1  0  0  0  0
 20 47  1  0  0  0  0
 21 48  1  0  0  0  0
 21 49  1  0  0  0  0
 22 50  1  0  0  0  0
 22 51  1  0  0  0  0
 23 52  1  0  0  0  0
 23 53  1  0  0  0  0
 24 54  1  0  0  0  0
 24 55  1  0  0  0  0
 25 56  1  0  0  0  0
 25 57  1  0  0  0  0
M  END
> <clash_score>
0

> <docking_score>
-8.700831413269043

$$$$
BENZO_503_1
  -OEChem-08222011443D

 57 61  0     0  0  0  0  0  0999 V2000
    8.9960   -2.3380   25.5320 C   0  0  0  0  0  0  0  0  0  0  0  0
    9.6730   -3.4710   23.5300 C   0  0  0  0  0  0  0  0  0  0  0  0
    9.0720   -1.1280   24.8640 C   0  0  0  0  0  0  0  0  0  0  0  0
    9.7200   -2.2600   22.8630 C   0  0  0  0  0  0  0  0  0  0  0  0
   12.1233    1.3811   24.9242 C   0  0  0  0  0  0  0  0  0  0  0  0
   12.3261    1.4247   22.7351 C   0  0  0  0  0  0  0  0  0  0  0  0
   11.3794    1.3761   23.7290 C   0  0  0  0  0  0  0  0  0  0  0  0
    9.3070   -3.5340   24.8780 C   0  0  0  0  0  0  0  0  0  0  0  0
    9.3350   -1.0880   23.5010 C   0  0  0  0  0  0  0  0  0  0  0  0
    5.8300    0.9190   18.6970 C   0  0  0  0  0  0  0  0  0  0  0  0
    7.3170   -0.1610   19.8550 C   0  0  0  0  0  0  0  0  0  0  0  0
    4.6890    1.6810   18.4640 C   0  0  0  0  0  0  0  0  0  0  0  0
    3.9160    2.0630   19.5520 C   0  0  0  0  0  0  0  0  0  0  0  0
    4.2750    1.7050   20.8490 C   0  0  0  0  0  0  0  0  0  0  0  0
    5.4210    0.9600   21.0930 C   0  0  0  0  0  0  0  0  0  0  0  0
    9.0420    0.3700   21.5280 C   0  0  0  0  0  0  0  0  0  0  0  0
   10.0771   -5.0255   26.7193 C   0  0  0  0  0  0  0  0  0  0  0  0
    8.0927   -5.6195   25.4071 C   0  0  0  0  0  0  0  0  0  0  0  0
    9.1933   -4.9427   27.9592 C   0  0  0  0  0  0  0  0  0  0  0  0
    7.2756   -5.5290   26.6967 C   0  0  0  0  0  0  0  0  0  0  0  0
   14.8305    1.5084   22.7418 C   0  0  0  0  0  0  0  0  0  0  0  0
    9.8870    1.3260   23.5730 C   0  0  0  0  0  0  0  0  0  0  0  0
    8.1890   -0.7180   20.8700 C   0  0  0  0  0  0  0  0  0  0  0  0
   13.4410    1.4289   24.7112 N   0  0  0  0  0  0  0  0  0  0  0  0
    6.7580    0.3810   17.8350 N   0  0  0  0  0  0  0  0  0  0  0  0
    7.6390   -0.2680   18.5410 N   0  0  0  0  0  0  0  0  0  0  0  0
   13.5326    1.4543   23.3707 N   0  0  0  0  0  0  0  0  0  0  0  0
    6.1790    0.5730   19.9990 N   0  0  0  0  0  0  0  0  0  0  0  0
    9.2563   -4.7368   25.5413 N   0  0  0  0  0  0  0  0  0  0  0  0
    9.4560    0.1560   22.8130 N   0  0  0  0  0  0  0  0  0  0  0  0
    9.2690    1.4140   20.9380 O   0  0  0  0  0  0  0  0  0  0  0  0
    8.0883   -5.8459   27.8325 O   0  0  0  0  0  0  0  0  0  0  0  0
    8.6905   -2.3533   26.5810 H   0  0  0  0  0  0  0  0  0  0  0  0
    9.9266   -4.3896   22.9917 H   0  0  0  0  0  0  0  0  0  0  0  0
    8.9233   -0.1992   25.4232 H   0  0  0  0  0  0  0  0  0  0  0  0
   10.0650   -2.2330   21.8256 H   0  0  0  0  0  0  0  0  0  0  0  0
   11.7624    1.3510   25.9426 H   0  0  0  0  0  0  0  0  0  0  0  0
   12.2462    1.4390   21.6566 H   0  0  0  0  0  0  0  0  0  0  0  0
    4.3966    1.9781   17.4720 H   0  0  0  0  0  0  0  0  0  0  0  0
    3.0227    2.6498   19.3695 H   0  0  0  0  0  0  0  0  0  0  0  0
    3.6570    2.0037   21.7071 H   0  0  0  0  0  0  0  0  0  0  0  0
    5.7202    0.6868   22.0802 H   0  0  0  0  0  0  0  0  0  0  0  0
   10.8985   -4.3115   26.8085 H   0  0  0  0  0  0  0  0  0  0  0  0
   10.4915   -6.0334   26.6323 H   0  0  0  0  0  0  0  0  0  0  0  0
    8.4327   -6.6456   25.2620 H   0  0  0  0  0  0  0  0  0  0  0  0
    7.4725   -5.3241   24.5619 H   0  0  0  0  0  0  0  0  0  0  0  0
    9.7636   -5.2398   28.8419 H   0  0  0  0  0  0  0  0  0  0  0  0
    8.8236   -3.9268   28.1248 H   0  0  0  0  0  0  0  0  0  0  0  0
    6.8339   -4.5337   26.8232 H   0  0  0  0  0  0  0  0  0  0  0  0
    6.4550   -6.2521   26.6643 H   0  0  0  0  0  0  0  0  0  0  0  0
   15.0990    2.5601   22.6124 H   0  0  0  0  0  0  0  0  0  0  0  0
   15.5636    1.0018   23.3756 H   0  0  0  0  0  0  0  0  0  0  0  0
   14.7841    1.0025   21.7733 H   0  0  0  0  0  0  0  0  0  0  0  0
    9.3974    1.2912   24.5523 H   0  0  0  0  0  0  0  0  0  0  0  0
    9.5159    2.2168   23.0554 H   0  0  0  0  0  0  0  0  0  0  0  0
    7.5972   -1.2056   21.6500 H   0  0  0  0  0  0  0  0  0  0  0  0
    8.8612   -1.4622   20.4334 H   0  0  0  0  0  0  0  0  0  0  0  0
  1  3  2  0  0  0  0
  1  8  1  0  0  0  0
  2  4  1  0  0  0  0
  2  8  2  0  0  0  0
  3  9  1  0  0  0  0
  4  9  2  0  0  0  0
  5  7  1  0  0  0  0
  5 24  2  0  0  0  0
  6  7  2  0  0  0  0
  6 27  1  0  0  0  0
  7 22  1  0  0  0  0
  8 29  1  0  0  0  0
  9 30  1  0  0  0  0
 10 12  1  0  0  0  0
 10 25  2  0  0  0  0
 10 28  1  0  0  0  0
 11 23  1  0  0  0  0
 11 26  2  0  0  0  0
 11 28  1  0  0  0  0
 12 13  2  0  0  0  0
 13 14  1  0  0  0  0
 14 15  2  0  0  0  0
 15 28  1  0  0  0  0
 16 23  1  0  0  0  0
 16 30  1  0  0  0  0
 16 31  2  0  0  0  0
 17 19  1  0  0  0  0
 17 29  1  0  0  0  0
 18 20  1  0  0  0  0
 18 29  1  0  0  0  0
 19 32  1  0  0  0  0
 20 32  1  0  0  0  0
 21 27  1  0  0  0  0
 22 30  1  0  0  0  0
 24 27  1  0  0  0  0
 25 26  1  0  0  0  0
  1 33  1  0  0  0  0
  2 34  1  0  0  0  0
  3 35  1  0  0  0  0
  4 36  1  0  0  0  0
  5 37  1  0  0  0  0
  6 38  1  0  0  0  0
 12 39  1  0  0  0  0
 13 40  1  0  0  0  0
 14 41  1  0  0  0  0
 15 42  1  0  0  0  0
 17 43  1  0  0  0  0
 17 44  1  0  0  0  0
 18 45  1  0  0  0  0
 18 46  1  0  0  0  0
 19 47  1  0  0  0  0
 19 48  1  0  0  0  0
 20 49  1  0  0  0  0
 20 50  1  0  0  0  0
 21 51  1  0  0  0  0
 21 52  1  0  0  0  0
 21 53  1  0  0  0  0
 22 54  1  0  0  0  0
 22 55  1  0  0  0  0
 23 56  1  0  0  0  0
 23 57  1  0  0  0  0
M  END
> <clash_score>
0

> <docking_score>
-9.068845748901367

$$$$
