ALP-POS-d2866bdf-1
  -OEChem-09012022313D

 49 52  0     0  0  0  0  0  0999 V2000
    9.2940   -4.7330   25.5510 N   0  0  0  0  0  0  0  0  0  0  0  0
    9.6550   -5.9590   24.8650 C   0  0  0  0  0  0  0  0  0  0  0  0
    9.2690    1.4140   20.9380 O   0  0  0  0  0  0  0  0  0  0  0  0
    8.3680   -4.9600   26.6520 C   0  0  0  0  0  0  0  0  0  0  0  0
    9.4560    0.1560   22.8130 N   0  0  0  0  0  0  0  0  0  0  0  0
    9.3070   -3.5340   24.8780 C   0  0  0  0  0  0  0  0  0  0  0  0
    7.3170   -0.1610   19.8550 N   0  0  0  0  0  0  0  0  0  0  0  0
    8.9960   -2.3380   25.5320 C   0  0  0  0  0  0  0  0  0  0  0  0
    7.6390   -0.2680   18.5410 N   0  0  0  0  0  0  0  0  0  0  0  0
    9.0720   -1.1280   24.8640 C   0  0  0  0  0  0  0  0  0  0  0  0
    6.7580    0.3810   17.8350 N   0  0  0  0  0  0  0  0  0  0  0  0
    9.3350   -1.0880   23.5010 C   0  0  0  0  0  0  0  0  0  0  0  0
    9.7200   -2.2600   22.8630 C   0  0  0  0  0  0  0  0  0  0  0  0
    9.6730   -3.4710   23.5300 C   0  0  0  0  0  0  0  0  0  0  0  0
    9.8870    1.3260   23.5730 C   0  0  0  0  0  0  0  0  0  0  0  0
   11.3540    1.6190   23.3910 C   0  0  0  0  0  0  0  0  0  0  0  0
   12.3110    0.6640   23.5760 C   0  0  0  0  0  0  0  0  0  0  0  0
   13.2890    2.8040   22.8220 C   0  0  0  0  0  0  0  0  0  0  0  0
   11.9200    2.8550   22.9600 C   0  0  0  0  0  0  0  0  0  0  0  0
    9.0420    0.3700   21.5280 C   0  0  0  0  0  0  0  0  0  0  0  0
    8.1890   -0.7180   20.8700 C   0  0  0  0  0  0  0  0  0  0  0  0
    5.8300    0.9190   18.6970 C   0  0  0  0  0  0  0  0  0  0  0  0
    6.1790    0.5730   19.9990 C   0  0  0  0  0  0  0  0  0  0  0  0
    5.4210    0.9600   21.0930 C   0  0  0  0  0  0  0  0  0  0  0  0
    4.2750    1.7050   20.8490 C   0  0  0  0  0  0  0  0  0  0  0  0
    3.9160    2.0630   19.5520 C   0  0  0  0  0  0  0  0  0  0  0  0
    4.6890    1.6810   18.4640 C   0  0  0  0  0  0  0  0  0  0  0  0
   13.8810    1.2400   23.2310 S   0  0  0  0  0  0  0  0  0  0  0  0
   10.3531   -5.7298   24.0464 H   0  0  0  0  0  0  0  0  0  0  0  0
   10.1360   -6.6482   25.5747 H   0  0  0  0  0  0  0  0  0  0  0  0
    8.7496   -6.4292   24.4538 H   0  0  0  0  0  0  0  0  0  0  0  0
    8.1292   -4.0008   27.1347 H   0  0  0  0  0  0  0  0  0  0  0  0
    7.4444   -5.4160   26.2660 H   0  0  0  0  0  0  0  0  0  0  0  0
    8.8308   -5.6350   27.3870 H   0  0  0  0  0  0  0  0  0  0  0  0
    8.6935   -2.3584   26.5686 H   0  0  0  0  0  0  0  0  0  0  0  0
    8.9254   -0.2065   25.4079 H   0  0  0  0  0  0  0  0  0  0  0  0
   10.0587   -2.2257   21.8381 H   0  0  0  0  0  0  0  0  0  0  0  0
    9.9223   -4.3799   23.0025 H   0  0  0  0  0  0  0  0  0  0  0  0
    9.3078    2.1988   23.2371 H   0  0  0  0  0  0  0  0  0  0  0  0
    9.6923    1.1455   24.6405 H   0  0  0  0  0  0  0  0  0  0  0  0
   12.0992   -0.3430   23.9038 H   0  0  0  0  0  0  0  0  0  0  0  0
   13.9059    3.6305   22.5016 H   0  0  0  0  0  0  0  0  0  0  0  0
   11.3345    3.7407   22.7620 H   0  0  0  0  0  0  0  0  0  0  0  0
    7.5752   -1.2072   21.6407 H   0  0  0  0  0  0  0  0  0  0  0  0
    8.8529   -1.4609   20.4038 H   0  0  0  0  0  0  0  0  0  0  0  0
    5.7111    0.6919   22.0982 H   0  0  0  0  0  0  0  0  0  0  0  0
    3.6530    2.0113   21.6771 H   0  0  0  0  0  0  0  0  0  0  0  0
    3.0221    2.6470   19.3900 H   0  0  0  0  0  0  0  0  0  0  0  0
    4.4115    1.9683   17.4606 H   0  0  0  0  0  0  0  0  0  0  0  0
  1  2  1  0  0  0  0
  1  4  1  0  0  0  0
  1  6  1  0  0  0  0
  3 20  2  0  0  0  0
  5 12  1  0  0  0  0
  5 15  1  0  0  0  0
  5 20  1  0  0  0  0
  6  8  2  0  0  0  0
  6 14  1  0  0  0  0
  7  9  1  0  0  0  0
  7 21  1  0  0  0  0
  7 23  1  0  0  0  0
  8 10  1  0  0  0  0
  9 11  2  0  0  0  0
 10 12  2  0  0  0  0
 11 22  1  0  0  0  0
 12 13  1  0  0  0  0
 13 14  2  0  0  0  0
 15 16  1  0  0  0  0
 16 17  2  0  0  0  0
 16 19  1  0  0  0  0
 17 28  1  0  0  0  0
 18 19  2  0  0  0  0
 18 28  1  0  0  0  0
 20 21  1  0  0  0  0
 22 23  2  0  0  0  0
 22 27  1  0  0  0  0
 23 24  1  0  0  0  0
 24 25  2  0  0  0  0
 25 26  1  0  0  0  0
 26 27  2  0  0  0  0
  2 29  1  0  0  0  0
  2 30  1  0  0  0  0
  2 31  1  0  0  0  0
  4 32  1  0  0  0  0
  4 33  1  0  0  0  0
  4 34  1  0  0  0  0
  8 35  1  0  0  0  0
 10 36  1  0  0  0  0
 13 37  1  0  0  0  0
 14 38  1  0  0  0  0
 15 39  1  0  0  0  0
 15 40  1  0  0  0  0
 17 41  1  0  0  0  0
 18 42  1  0  0  0  0
 19 43  1  0  0  0  0
 21 44  1  0  0  0  0
 21 45  1  0  0  0  0
 24 46  1  0  0  0  0
 25 47  1  0  0  0  0
 26 48  1  0  0  0  0
 27 49  1  0  0  0  0
M  END
> <canonical_CID>
ALP-POS-d2866bdf-1

> <r_inhibition_at_20_uM>

> <r_inhibition_at_50_uM>
90.2864920436047

> <r_avg_IC50>
5.36883150229248

> <f_inhibition_at_20_uM>
84.433275

> <f_inhibition_at_50_uM>
90.45516

> <f_avg_IC50>
1.79372477414291

> <f_avg_pIC50>
5.74624419353312

> <relative_solubility_at_20_uM>
0.92

> <relative_solubility_at_100_uM>
0.48

> <trypsin_IC50>
99.0

> <NMR_std_ratio>
197.7977663

> <acrylamide>
False

> <chloroacetamide>
False

> <series>
3-aminopyridine-like

> <Protease Assay (Fluorescence) Dose-Response: IC50 (µM)>
> 99.5

> <Protease Assay (Fluorescence) Dose-Response: IC50 (µM)>
1.79

> <Protease Assay (Fluorescence) Dose-Response: IC50 (µM)>
4.33

> <Protease Assay (Fluorescence) Dose-Response: IC50 (µM)>
3.99

> <Protease Assay (Fluorescence) Dose-Response: IC50 (µM)>
1.63

> <Protease Assay (Fluorescence) Dose-Response: IC50 (µM)>
5.32

> <Protease Assay (Fluorescence) Dose-Response: IC50 (µM)>
> 99.5

> <Protease Assay (Fluorescence) Dose-Response: IC50 (µM)>
> 99.5

> <Protease Assay (Fluorescence) Dose-Response: IC50 (µM)>
> 99.5

> <Protease Assay (Fluorescence) Dose-Response: IC50 (µM)>
> 99.5

> <Protease Assay (Fluorescence) Dose-Response: IC50 (µM)>
37.8

> <Protease Assay (Fluorescence) Dose-Response: IC50 (µM)>
78.5

> <clash_score>
0.0

$$$$
EDJ-MED-06d94977-2_1
  -OEChem-09012022313D

 37 39  0     0  0  0  0  0  0999 V2000
    3.9160    2.0630   19.5520 C   0  0  0  0  0  0  0  0  0  0  0  0
    4.2750    1.7050   20.8490 C   0  0  0  0  0  0  0  0  0  0  0  0
   11.1238   -3.6540   24.0294 C   0  0  0  0  0  0  0  0  0  0  0  0
   10.6399   -2.3459   24.0418 C   0  0  0  0  0  0  0  0  0  0  0  0
    4.6890    1.6810   18.4640 C   0  0  0  0  0  0  0  0  0  0  0  0
    5.4210    0.9600   21.0930 C   0  0  0  0  0  0  0  0  0  0  0  0
   10.2614   -4.7141   23.7496 C   0  0  0  0  0  0  0  0  0  0  0  0
    8.4311   -3.1578   23.4949 C   0  0  0  0  0  0  0  0  0  0  0  0
    9.2936   -2.0977   23.7746 C   0  0  0  0  0  0  0  0  0  0  0  0
    5.8300    0.9190   18.6970 C   0  0  0  0  0  0  0  0  0  0  0  0
    6.1790    0.5730   19.9990 C   0  0  0  0  0  0  0  0  0  0  0  0
    8.9151   -4.4659   23.4824 C   0  0  0  0  0  0  0  0  0  0  0  0
    9.0420    0.3700   21.5280 C   0  0  0  0  0  0  0  0  0  0  0  0
   10.6694    0.8043   23.2946 C   0  0  0  0  0  0  0  0  0  0  0  0
    8.7731   -0.6895   23.7894 C   0  0  0  0  0  0  0  0  0  0  0  0
    8.1890   -0.7180   20.8700 C   0  0  0  0  0  0  0  0  0  0  0  0
    6.7580    0.3810   17.8350 N   0  0  0  0  0  0  0  0  0  0  0  0
    7.6390   -0.2680   18.5410 N   0  0  0  0  0  0  0  0  0  0  0  0
    7.3170   -0.1610   19.8550 N   0  0  0  0  0  0  0  0  0  0  0  0
    9.4560    0.1560   22.8130 N   0  0  0  0  0  0  0  0  0  0  0  0
    9.2690    1.4140   20.9380 O   0  0  0  0  0  0  0  0  0  0  0  0
    7.8513   -5.7743   23.1385 Cl  0  0  0  0  0  0  0  0  0  0  0  0
    3.0136    2.6524   19.3909 H   0  0  0  0  0  0  0  0  0  0  0  0
    3.6477    2.0141   21.6817 H   0  0  0  0  0  0  0  0  0  0  0  0
   12.1723   -3.8468   24.2377 H   0  0  0  0  0  0  0  0  0  0  0  0
   11.3191   -1.5260   24.2609 H   0  0  0  0  0  0  0  0  0  0  0  0
    4.4041    1.9739   17.4524 H   0  0  0  0  0  0  0  0  0  0  0  0
    5.7107    0.6909   22.1141 H   0  0  0  0  0  0  0  0  0  0  0  0
   10.6524   -5.7285   23.7437 H   0  0  0  0  0  0  0  0  0  0  0  0
    7.3823   -2.9590   23.2867 H   0  0  0  0  0  0  0  0  0  0  0  0
   10.4151    1.7812   23.7318 H   0  0  0  0  0  0  0  0  0  0  0  0
   11.1436    0.1724   24.0600 H   0  0  0  0  0  0  0  0  0  0  0  0
   11.3658    0.9485   22.4553 H   0  0  0  0  0  0  0  0  0  0  0  0
    7.7020   -0.6713   23.5607 H   0  0  0  0  0  0  0  0  0  0  0  0
    8.9028   -0.2330   24.7763 H   0  0  0  0  0  0  0  0  0  0  0  0
    8.8361   -1.4528   20.3928 H   0  0  0  0  0  0  0  0  0  0  0  0
    7.5658   -1.2009   21.6215 H   0  0  0  0  0  0  0  0  0  0  0  0
  1  2  1  0  0  0  0
  1  5  2  0  0  0  0
  2  6  2  0  0  0  0
  3  4  2  0  0  0  0
  3  7  1  0  0  0  0
  4  9  1  0  0  0  0
  5 10  1  0  0  0  0
  6 11  1  0  0  0  0
  7 12  2  0  0  0  0
  8  9  2  0  0  0  0
  8 12  1  0  0  0  0
  9 15  1  0  0  0  0
 10 11  2  0  0  0  0
 10 17  1  0  0  0  0
 11 19  1  0  0  0  0
 12 22  1  0  0  0  0
 13 16  1  0  0  0  0
 13 20  1  0  0  0  0
 13 21  2  0  0  0  0
 14 20  1  0  0  0  0
 15 20  1  0  0  0  0
 16 19  1  0  0  0  0
 17 18  2  0  0  0  0
 18 19  1  0  0  0  0
  1 23  1  0  0  0  0
  2 24  1  0  0  0  0
  3 25  1  0  0  0  0
  4 26  1  0  0  0  0
  5 27  1  0  0  0  0
  6 28  1  0  0  0  0
  7 29  1  0  0  0  0
  8 30  1  0  0  0  0
 14 31  1  0  0  0  0
 14 32  1  0  0  0  0
 14 33  1  0  0  0  0
 15 34  1  0  0  0  0
 15 35  1  0  0  0  0
 16 36  1  0  0  0  0
 16 37  1  0  0  0  0
M  END
> <Protease Assay (Fluorescence) Dose-Response: IC50 (µM)>
> 99.5

> <clash_score>
0

> <docking_score>
-7.248837471008301

> <overlap_score>
0.7156155705451965

$$$$
EDJ-MED-06d94977-1_1
  -OEChem-09012022313D

 44 46  0     0  0  0  0  0  0999 V2000
    3.9160    2.0630   19.5520 C   0  0  0  0  0  0  0  0  0  0  0  0
    4.2750    1.7050   20.8490 C   0  0  0  0  0  0  0  0  0  0  0  0
    4.6890    1.6810   18.4640 C   0  0  0  0  0  0  0  0  0  0  0  0
    5.4210    0.9600   21.0930 C   0  0  0  0  0  0  0  0  0  0  0  0
   10.8308   -3.3028   23.1962 C   0  0  0  0  0  0  0  0  0  0  0  0
    9.1535   -2.9371   24.8962 C   0  0  0  0  0  0  0  0  0  0  0  0
   10.6197   -2.0125   22.7103 C   0  0  0  0  0  0  0  0  0  0  0  0
    8.9424   -1.6467   24.4104 C   0  0  0  0  0  0  0  0  0  0  0  0
    5.8300    0.9190   18.6970 C   0  0  0  0  0  0  0  0  0  0  0  0
    6.1790    0.5730   19.9990 C   0  0  0  0  0  0  0  0  0  0  0  0
   10.0977   -3.7652   24.2891 C   0  0  0  0  0  0  0  0  0  0  0  0
    9.6756   -1.1844   23.3174 C   0  0  0  0  0  0  0  0  0  0  0  0
    9.6734   -5.6923   25.8537 C   0  0  0  0  0  0  0  0  0  0  0  0
    9.0420    0.3700   21.5280 C   0  0  0  0  0  0  0  0  0  0  0  0
    9.5635   -7.8153   27.2272 C   0  0  0  0  0  0  0  0  0  0  0  0
    9.5993    1.2539   23.7817 C   0  0  0  0  0  0  0  0  0  0  0  0
   10.2025   -7.1057   26.0470 C   0  0  0  0  0  0  0  0  0  0  0  0
    8.1890   -0.7180   20.8700 C   0  0  0  0  0  0  0  0  0  0  0  0
    6.7580    0.3810   17.8350 N   0  0  0  0  0  0  0  0  0  0  0  0
    7.6390   -0.2680   18.5410 N   0  0  0  0  0  0  0  0  0  0  0  0
    7.3170   -0.1610   19.8550 N   0  0  0  0  0  0  0  0  0  0  0  0
   10.3084   -5.0558   24.7750 N   0  0  0  0  0  0  0  0  0  0  0  0
    9.4560    0.1560   22.8130 N   0  0  0  0  0  0  0  0  0  0  0  0
    8.8024   -5.2193   26.5763 O   0  0  0  0  0  0  0  0  0  0  0  0
    9.2690    1.4140   20.9380 O   0  0  0  0  0  0  0  0  0  0  0  0
    3.0136    2.6524   19.3909 H   0  0  0  0  0  0  0  0  0  0  0  0
    3.6477    2.0141   21.6817 H   0  0  0  0  0  0  0  0  0  0  0  0
    4.4041    1.9739   17.4524 H   0  0  0  0  0  0  0  0  0  0  0  0
    5.7107    0.6909   22.1141 H   0  0  0  0  0  0  0  0  0  0  0  0
   11.5692   -3.9390   22.7150 H   0  0  0  0  0  0  0  0  0  0  0  0
    8.5769   -3.2871   25.7487 H   0  0  0  0  0  0  0  0  0  0  0  0
   11.1967   -1.6633   21.8576 H   0  0  0  0  0  0  0  0  0  0  0  0
    8.2038   -1.0105   24.8907 H   0  0  0  0  0  0  0  0  0  0  0  0
    9.7383   -7.2660   28.1581 H   0  0  0  0  0  0  0  0  0  0  0  0
    9.9817   -8.8204   27.3396 H   0  0  0  0  0  0  0  0  0  0  0  0
    8.4810   -7.9086   27.0908 H   0  0  0  0  0  0  0  0  0  0  0  0
   10.6420    1.6042   23.7881 H   0  0  0  0  0  0  0  0  0  0  0  0
    8.9356    2.0834   23.4964 H   0  0  0  0  0  0  0  0  0  0  0  0
    9.3271    0.8951   24.7853 H   0  0  0  0  0  0  0  0  0  0  0  0
   10.0121   -7.6763   25.1307 H   0  0  0  0  0  0  0  0  0  0  0  0
   11.2872   -7.0535   26.1954 H   0  0  0  0  0  0  0  0  0  0  0  0
    8.8255   -1.4531   20.3835 H   0  0  0  0  0  0  0  0  0  0  0  0
    7.5533   -1.1948   21.6123 H   0  0  0  0  0  0  0  0  0  0  0  0
   11.0160   -5.6162   24.2858 H   0  0  0  0  0  0  0  0  0  0  0  0
  1  2  1  0  0  0  0
  1  3  2  0  0  0  0
  2  4  2  0  0  0  0
  3  9  1  0  0  0  0
  4 10  1  0  0  0  0
  5  7  2  0  0  0  0
  5 11  1  0  0  0  0
  6  8  1  0  0  0  0
  6 11  2  0  0  0  0
  7 12  1  0  0  0  0
  8 12  2  0  0  0  0
  9 10  2  0  0  0  0
  9 19  1  0  0  0  0
 10 21  1  0  0  0  0
 11 22  1  0  0  0  0
 12 23  1  0  0  0  0
 13 17  1  0  0  0  0
 13 22  1  0  0  0  0
 13 24  2  0  0  0  0
 14 18  1  0  0  0  0
 14 23  1  0  0  0  0
 14 25  2  0  0  0  0
 15 17  1  0  0  0  0
 16 23  1  0  0  0  0
 18 21  1  0  0  0  0
 19 20  2  0  0  0  0
 20 21  1  0  0  0  0
  1 26  1  0  0  0  0
  2 27  1  0  0  0  0
  3 28  1  0  0  0  0
  4 29  1  0  0  0  0
  5 30  1  0  0  0  0
  6 31  1  0  0  0  0
  7 32  1  0  0  0  0
  8 33  1  0  0  0  0
 15 34  1  0  0  0  0
 15 35  1  0  0  0  0
 15 36  1  0  0  0  0
 16 37  1  0  0  0  0
 16 38  1  0  0  0  0
 16 39  1  0  0  0  0
 17 40  1  0  0  0  0
 17 41  1  0  0  0  0
 18 42  1  0  0  0  0
 18 43  1  0  0  0  0
 22 44  1  0  0  0  0
M  END
> <Protease Assay (Fluorescence) Dose-Response: IC50 (µM)>
> 99.5

> <clash_score>
2.094662544056405

> <docking_score>
-7.53559684753418

> <overlap_score>
0.8052940368652344

$$$$
ALP-POS-d2866bdf-1_1
  -OEChem-09012022313D

 49 52  0     0  0  0  0  0  0999 V2000
    3.9160    2.0630   19.5520 C   0  0  0  0  0  0  0  0  0  0  0  0
    4.2750    1.7050   20.8490 C   0  0  0  0  0  0  0  0  0  0  0  0
    4.6890    1.6810   18.4640 C   0  0  0  0  0  0  0  0  0  0  0  0
    5.4210    0.9600   21.0930 C   0  0  0  0  0  0  0  0  0  0  0  0
    9.9014   -2.1772   23.4635 C   0  0  0  0  0  0  0  0  0  0  0  0
    7.9156   -1.0758   24.2884 C   0  0  0  0  0  0  0  0  0  0  0  0
    9.5463   -3.3353   24.1551 C   0  0  0  0  0  0  0  0  0  0  0  0
    7.5605   -2.2339   24.9799 C   0  0  0  0  0  0  0  0  0  0  0  0
   12.5073    0.7182   22.4961 C   0  0  0  0  0  0  0  0  0  0  0  0
   13.8089    0.4251   22.8389 C   0  0  0  0  0  0  0  0  0  0  0  0
   12.3631    0.6574   24.8151 C   0  0  0  0  0  0  0  0  0  0  0  0
   11.6697    0.8529   23.6408 C   0  0  0  0  0  0  0  0  0  0  0  0
    5.8300    0.9190   18.6970 C   0  0  0  0  0  0  0  0  0  0  0  0
    6.1790    0.5730   19.9990 C   0  0  0  0  0  0  0  0  0  0  0  0
    9.0860   -1.0474   23.5302 C   0  0  0  0  0  0  0  0  0  0  0  0
    8.3759   -3.3637   24.9132 C   0  0  0  0  0  0  0  0  0  0  0  0
    9.0420    0.3700   21.5280 C   0  0  0  0  0  0  0  0  0  0  0  0
    9.0380   -5.4382   26.1042 C   0  0  0  0  0  0  0  0  0  0  0  0
    6.6223   -4.8445   25.8581 C   0  0  0  0  0  0  0  0  0  0  0  0
   10.2037    1.1697   23.5730 C   0  0  0  0  0  0  0  0  0  0  0  0
    8.1890   -0.7180   20.8700 C   0  0  0  0  0  0  0  0  0  0  0  0
    6.7580    0.3810   17.8350 N   0  0  0  0  0  0  0  0  0  0  0  0
    7.6390   -0.2680   18.5410 N   0  0  0  0  0  0  0  0  0  0  0  0
    7.3170   -0.1610   19.8550 N   0  0  0  0  0  0  0  0  0  0  0  0
    9.4560    0.1560   22.8130 N   0  0  0  0  0  0  0  0  0  0  0  0
    8.0168   -4.5353   25.6117 N   0  0  0  0  0  0  0  0  0  0  0  0
    9.2690    1.4140   20.9380 O   0  0  0  0  0  0  0  0  0  0  0  0
   14.0170    0.3133   24.5349 S   0  0  0  0  0  0  0  0  0  0  0  0
    3.0136    2.6524   19.3909 H   0  0  0  0  0  0  0  0  0  0  0  0
    3.6477    2.0141   21.6817 H   0  0  0  0  0  0  0  0  0  0  0  0
    4.4041    1.9739   17.4524 H   0  0  0  0  0  0  0  0  0  0  0  0
    5.7107    0.6909   22.1141 H   0  0  0  0  0  0  0  0  0  0  0  0
   10.8161   -2.1663   22.8759 H   0  0  0  0  0  0  0  0  0  0  0  0
    7.2728   -0.2012   24.3472 H   0  0  0  0  0  0  0  0  0  0  0  0
   10.1890   -4.2102   24.0965 H   0  0  0  0  0  0  0  0  0  0  0  0
    6.6468   -2.2454   25.5683 H   0  0  0  0  0  0  0  0  0  0  0  0
   12.1760    0.8294   21.4713 H   0  0  0  0  0  0  0  0  0  0  0  0
   14.6474    0.2705   22.1746 H   0  0  0  0  0  0  0  0  0  0  0  0
   11.9813    0.6981   25.8259 H   0  0  0  0  0  0  0  0  0  0  0  0
    8.5616   -6.2865   26.6175 H   0  0  0  0  0  0  0  0  0  0  0  0
    9.6367   -5.8102   25.2596 H   0  0  0  0  0  0  0  0  0  0  0  0
    9.6913   -4.9032   26.8092 H   0  0  0  0  0  0  0  0  0  0  0  0
    6.5487   -5.7918   26.4124 H   0  0  0  0  0  0  0  0  0  0  0  0
    6.1670   -4.0370   26.4502 H   0  0  0  0  0  0  0  0  0  0  0  0
    6.0928   -4.9392   24.8986 H   0  0  0  0  0  0  0  0  0  0  0  0
    9.7732    1.2227   24.5789 H   0  0  0  0  0  0  0  0  0  0  0  0
   10.0331    2.1400   23.0947 H   0  0  0  0  0  0  0  0  0  0  0  0
    8.8255   -1.4531   20.3835 H   0  0  0  0  0  0  0  0  0  0  0  0
    7.5533   -1.1948   21.6123 H   0  0  0  0  0  0  0  0  0  0  0  0
  1  2  1  0  0  0  0
  1  3  2  0  0  0  0
  2  4  2  0  0  0  0
  3 13  1  0  0  0  0
  4 14  1  0  0  0  0
  5  7  2  0  0  0  0
  5 15  1  0  0  0  0
  6  8  1  0  0  0  0
  6 15  2  0  0  0  0
  7 16  1  0  0  0  0
  8 16  2  0  0  0  0
  9 10  2  0  0  0  0
  9 12  1  0  0  0  0
 10 28  1  0  0  0  0
 11 12  2  0  0  0  0
 11 28  1  0  0  0  0
 12 20  1  0  0  0  0
 13 14  2  0  0  0  0
 13 22  1  0  0  0  0
 14 24  1  0  0  0  0
 15 25  1  0  0  0  0
 16 26  1  0  0  0  0
 17 21  1  0  0  0  0
 17 25  1  0  0  0  0
 17 27  2  0  0  0  0
 18 26  1  0  0  0  0
 19 26  1  0  0  0  0
 20 25  1  0  0  0  0
 21 24  1  0  0  0  0
 22 23  2  0  0  0  0
 23 24  1  0  0  0  0
  1 29  1  0  0  0  0
  2 30  1  0  0  0  0
  3 31  1  0  0  0  0
  4 32  1  0  0  0  0
  5 33  1  0  0  0  0
  6 34  1  0  0  0  0
  7 35  1  0  0  0  0
  8 36  1  0  0  0  0
  9 37  1  0  0  0  0
 10 38  1  0  0  0  0
 11 39  1  0  0  0  0
 18 40  1  0  0  0  0
 18 41  1  0  0  0  0
 18 42  1  0  0  0  0
 19 43  1  0  0  0  0
 19 44  1  0  0  0  0
 19 45  1  0  0  0  0
 20 46  1  0  0  0  0
 20 47  1  0  0  0  0
 21 48  1  0  0  0  0
 21 49  1  0  0  0  0
M  END
> <Protease Assay (Fluorescence) Dose-Response: IC50 (µM)>
1.79

> <clash_score>
0

> <docking_score>
-8.92878246307373

> <overlap_score>
0.8729867339134216

$$$$
ALP-POS-c59291d4-1_1
  -OEChem-09012022313D

 51 55  0     0  0  0  0  0  0999 V2000
    7.2899   -6.8795   27.0131 C   0  0  0  0  0  0  0  0  0  0  0  0
    8.4973   -6.2411   27.2966 C   0  0  0  0  0  0  0  0  0  0  0  0
    6.4387   -6.3603   26.0376 C   0  0  0  0  0  0  0  0  0  0  0  0
    3.9160    2.0630   19.5520 C   0  0  0  0  0  0  0  0  0  0  0  0
    4.2750    1.7050   20.8490 C   0  0  0  0  0  0  0  0  0  0  0  0
    8.8535   -5.0836   26.6046 C   0  0  0  0  0  0  0  0  0  0  0  0
    6.7949   -5.2027   25.3456 C   0  0  0  0  0  0  0  0  0  0  0  0
    7.3834   -2.5005   24.4393 C   0  0  0  0  0  0  0  0  0  0  0  0
    9.7179   -3.0688   24.6927 C   0  0  0  0  0  0  0  0  0  0  0  0
    4.6890    1.6810   18.4640 C   0  0  0  0  0  0  0  0  0  0  0  0
    5.4210    0.9600   21.0930 C   0  0  0  0  0  0  0  0  0  0  0  0
    7.7403   -1.3423   23.7488 C   0  0  0  0  0  0  0  0  0  0  0  0
   10.0749   -1.9107   24.0021 C   0  0  0  0  0  0  0  0  0  0  0  0
   12.5073    0.7182   22.4961 C   0  0  0  0  0  0  0  0  0  0  0  0
   13.8089    0.4251   22.8389 C   0  0  0  0  0  0  0  0  0  0  0  0
   12.3632    0.6574   24.8151 C   0  0  0  0  0  0  0  0  0  0  0  0
    8.0023   -4.5644   25.6291 C   0  0  0  0  0  0  0  0  0  0  0  0
    8.3722   -3.3637   24.9114 C   0  0  0  0  0  0  0  0  0  0  0  0
   11.6697    0.8529   23.6408 C   0  0  0  0  0  0  0  0  0  0  0  0
    5.8300    0.9190   18.6970 C   0  0  0  0  0  0  0  0  0  0  0  0
    6.1790    0.5730   19.9990 C   0  0  0  0  0  0  0  0  0  0  0  0
    9.0860   -1.0474   23.5302 C   0  0  0  0  0  0  0  0  0  0  0  0
    9.0420    0.3700   21.5280 C   0  0  0  0  0  0  0  0  0  0  0  0
   10.2037    1.1697   23.5730 C   0  0  0  0  0  0  0  0  0  0  0  0
    8.1890   -0.7180   20.8700 C   0  0  0  0  0  0  0  0  0  0  0  0
    6.7580    0.3810   17.8350 N   0  0  0  0  0  0  0  0  0  0  0  0
    7.6390   -0.2680   18.5410 N   0  0  0  0  0  0  0  0  0  0  0  0
    7.3170   -0.1610   19.8550 N   0  0  0  0  0  0  0  0  0  0  0  0
    9.4560    0.1560   22.8130 N   0  0  0  0  0  0  0  0  0  0  0  0
    9.2690    1.4140   20.9380 O   0  0  0  0  0  0  0  0  0  0  0  0
   14.0171    0.3133   24.5349 S   0  0  0  0  0  0  0  0  0  0  0  0
    7.0136   -7.7817   27.5509 H   0  0  0  0  0  0  0  0  0  0  0  0
    9.1610   -6.6462   28.0549 H   0  0  0  0  0  0  0  0  0  0  0  0
    5.4991   -6.8576   25.8154 H   0  0  0  0  0  0  0  0  0  0  0  0
    3.0136    2.6524   19.3909 H   0  0  0  0  0  0  0  0  0  0  0  0
    3.6477    2.0141   21.6817 H   0  0  0  0  0  0  0  0  0  0  0  0
    9.7983   -4.5977   26.8369 H   0  0  0  0  0  0  0  0  0  0  0  0
    6.1216   -4.8101   24.5874 H   0  0  0  0  0  0  0  0  0  0  0  0
    6.3302   -2.7167   24.6028 H   0  0  0  0  0  0  0  0  0  0  0  0
   10.5006   -3.7310   25.0552 H   0  0  0  0  0  0  0  0  0  0  0  0
    4.4041    1.9739   17.4524 H   0  0  0  0  0  0  0  0  0  0  0  0
    5.7107    0.6909   22.1141 H   0  0  0  0  0  0  0  0  0  0  0  0
    6.9613   -0.6757   23.3875 H   0  0  0  0  0  0  0  0  0  0  0  0
   11.1267   -1.6894   23.8390 H   0  0  0  0  0  0  0  0  0  0  0  0
   12.1760    0.8294   21.4713 H   0  0  0  0  0  0  0  0  0  0  0  0
   14.6474    0.2706   22.1746 H   0  0  0  0  0  0  0  0  0  0  0  0
   11.9813    0.6981   25.8259 H   0  0  0  0  0  0  0  0  0  0  0  0
    9.7732    1.2227   24.5789 H   0  0  0  0  0  0  0  0  0  0  0  0
   10.0331    2.1400   23.0947 H   0  0  0  0  0  0  0  0  0  0  0  0
    8.8255   -1.4531   20.3835 H   0  0  0  0  0  0  0  0  0  0  0  0
    7.5533   -1.1948   21.6123 H   0  0  0  0  0  0  0  0  0  0  0  0
  1  2  1  0  0  0  0
  1  3  2  0  0  0  0
  2  6  2  0  0  0  0
  3  7  1  0  0  0  0
  4  5  1  0  0  0  0
  4 10  2  0  0  0  0
  5 11  2  0  0  0  0
  6 17  1  0  0  0  0
  7 17  2  0  0  0  0
  8 12  2  0  0  0  0
  8 18  1  0  0  0  0
  9 13  1  0  0  0  0
  9 18  2  0  0  0  0
 10 20  1  0  0  0  0
 11 21  1  0  0  0  0
 12 22  1  0  0  0  0
 13 22  2  0  0  0  0
 14 15  2  0  0  0  0
 14 19  1  0  0  0  0
 15 31  1  0  0  0  0
 16 19  2  0  0  0  0
 16 31  1  0  0  0  0
 17 18  1  0  0  0  0
 19 24  1  0  0  0  0
 20 21  2  0  0  0  0
 20 26  1  0  0  0  0
 21 28  1  0  0  0  0
 22 29  1  0  0  0  0
 23 25  1  0  0  0  0
 23 29  1  0  0  0  0
 23 30  2  0  0  0  0
 24 29  1  0  0  0  0
 25 28  1  0  0  0  0
 26 27  2  0  0  0  0
 27 28  1  0  0  0  0
  1 32  1  0  0  0  0
  2 33  1  0  0  0  0
  3 34  1  0  0  0  0
  4 35  1  0  0  0  0
  5 36  1  0  0  0  0
  6 37  1  0  0  0  0
  7 38  1  0  0  0  0
  8 39  1  0  0  0  0
  9 40  1  0  0  0  0
 10 41  1  0  0  0  0
 11 42  1  0  0  0  0
 12 43  1  0  0  0  0
 13 44  1  0  0  0  0
 14 45  1  0  0  0  0
 15 46  1  0  0  0  0
 16 47  1  0  0  0  0
 24 48  1  0  0  0  0
 24 49  1  0  0  0  0
 25 50  1  0  0  0  0
 25 51  1  0  0  0  0
M  END
> <Protease Assay (Fluorescence) Dose-Response: IC50 (µM)>
5.32

> <clash_score>
0

> <docking_score>
-8.192258834838867

> <overlap_score>
0.8663075566291809

$$$$
ALP-POS-c0c213c9-18_1
  -OEChem-09012022313D

 49 53  0     0  0  0  0  0  0999 V2000
    3.9160    2.0630   19.5520 C   0  0  0  0  0  0  0  0  0  0  0  0
    4.2750    1.7050   20.8490 C   0  0  0  0  0  0  0  0  0  0  0  0
   13.7512    0.4488   22.5636 C   0  0  0  0  0  0  0  0  0  0  0  0
   14.3308    0.2756   23.8156 C   0  0  0  0  0  0  0  0  0  0  0  0
    4.6890    1.6810   18.4640 C   0  0  0  0  0  0  0  0  0  0  0  0
    5.4210    0.9600   21.0930 C   0  0  0  0  0  0  0  0  0  0  0  0
    9.1047   -3.4554   23.7248 C   0  0  0  0  0  0  0  0  0  0  0  0
    7.9977   -2.1164   25.4036 C   0  0  0  0  0  0  0  0  0  0  0  0
    9.4612   -2.2964   23.0354 C   0  0  0  0  0  0  0  0  0  0  0  0
    8.3543   -0.9573   24.7143 C   0  0  0  0  0  0  0  0  0  0  0  0
   12.3958    0.7433   22.4659 C   0  0  0  0  0  0  0  0  0  0  0  0
   13.5181    0.4064   24.9301 C   0  0  0  0  0  0  0  0  0  0  0  0
    8.3078   -5.7997   25.2449 C   0  0  0  0  0  0  0  0  0  0  0  0
    7.3135   -4.5977   26.7534 C   0  0  0  0  0  0  0  0  0  0  0  0
    5.8300    0.9190   18.6970 C   0  0  0  0  0  0  0  0  0  0  0  0
    6.1790    0.5730   19.9990 C   0  0  0  0  0  0  0  0  0  0  0  0
    8.3729   -3.3654   24.9089 C   0  0  0  0  0  0  0  0  0  0  0  0
    9.0860   -1.0474   23.5302 C   0  0  0  0  0  0  0  0  0  0  0  0
   11.6697    0.8529   23.6408 C   0  0  0  0  0  0  0  0  0  0  0  0
    9.0420    0.3700   21.5280 C   0  0  0  0  0  0  0  0  0  0  0  0
   10.2037    1.1697   23.5730 C   0  0  0  0  0  0  0  0  0  0  0  0
    8.1890   -0.7180   20.8700 C   0  0  0  0  0  0  0  0  0  0  0  0
   12.1978    0.6916   24.8748 N   0  0  0  0  0  0  0  0  0  0  0  0
    7.8079   -6.6226   26.1389 N   0  0  0  0  0  0  0  0  0  0  0  0
    7.1754   -5.8579   27.0987 N   0  0  0  0  0  0  0  0  0  0  0  0
    6.7580    0.3810   17.8350 N   0  0  0  0  0  0  0  0  0  0  0  0
    7.6390   -0.2680   18.5410 N   0  0  0  0  0  0  0  0  0  0  0  0
    8.0202   -4.5146   25.5922 N   0  0  0  0  0  0  0  0  0  0  0  0
    7.3170   -0.1610   19.8550 N   0  0  0  0  0  0  0  0  0  0  0  0
    9.4560    0.1560   22.8130 N   0  0  0  0  0  0  0  0  0  0  0  0
    9.2690    1.4140   20.9380 O   0  0  0  0  0  0  0  0  0  0  0  0
    3.0136    2.6524   19.3909 H   0  0  0  0  0  0  0  0  0  0  0  0
    3.6477    2.0141   21.6817 H   0  0  0  0  0  0  0  0  0  0  0  0
   14.3548    0.3544   21.6659 H   0  0  0  0  0  0  0  0  0  0  0  0
   15.3853    0.0456   23.9157 H   0  0  0  0  0  0  0  0  0  0  0  0
    4.4041    1.9739   17.4524 H   0  0  0  0  0  0  0  0  0  0  0  0
    5.7107    0.6909   22.1141 H   0  0  0  0  0  0  0  0  0  0  0  0
    9.4030   -4.4226   23.3275 H   0  0  0  0  0  0  0  0  0  0  0  0
    7.4268   -2.0316   26.3251 H   0  0  0  0  0  0  0  0  0  0  0  0
   10.0316   -2.3782   22.1136 H   0  0  0  0  0  0  0  0  0  0  0  0
    8.0562    0.0108   25.1090 H   0  0  0  0  0  0  0  0  0  0  0  0
   11.9316    0.8807   21.4952 H   0  0  0  0  0  0  0  0  0  0  0  0
   13.9218    0.2809   25.9295 H   0  0  0  0  0  0  0  0  0  0  0  0
    8.8668   -6.0762   24.3617 H   0  0  0  0  0  0  0  0  0  0  0  0
    6.9321   -3.7410   27.2917 H   0  0  0  0  0  0  0  0  0  0  0  0
    9.7732    1.2227   24.5789 H   0  0  0  0  0  0  0  0  0  0  0  0
   10.0331    2.1400   23.0947 H   0  0  0  0  0  0  0  0  0  0  0  0
    8.8255   -1.4531   20.3835 H   0  0  0  0  0  0  0  0  0  0  0  0
    7.5533   -1.1948   21.6123 H   0  0  0  0  0  0  0  0  0  0  0  0
  1  2  1  0  0  0  0
  1  5  2  0  0  0  0
  2  6  2  0  0  0  0
  3  4  1  0  0  0  0
  3 11  2  0  0  0  0
  4 12  2  0  0  0  0
  5 15  1  0  0  0  0
  6 16  1  0  0  0  0
  7  9  2  0  0  0  0
  7 17  1  0  0  0  0
  8 10  1  0  0  0  0
  8 17  2  0  0  0  0
  9 18  1  0  0  0  0
 10 18  2  0  0  0  0
 11 19  1  0  0  0  0
 12 23  1  0  0  0  0
 13 24  2  0  0  0  0
 13 28  1  0  0  0  0
 14 25  2  0  0  0  0
 14 28  1  0  0  0  0
 15 16  2  0  0  0  0
 15 26  1  0  0  0  0
 16 29  1  0  0  0  0
 17 28  1  0  0  0  0
 18 30  1  0  0  0  0
 19 21  1  0  0  0  0
 19 23  2  0  0  0  0
 20 22  1  0  0  0  0
 20 30  1  0  0  0  0
 20 31  2  0  0  0  0
 21 30  1  0  0  0  0
 22 29  1  0  0  0  0
 24 25  1  0  0  0  0
 26 27  2  0  0  0  0
 27 29  1  0  0  0  0
  1 32  1  0  0  0  0
  2 33  1  0  0  0  0
  3 34  1  0  0  0  0
  4 35  1  0  0  0  0
  5 36  1  0  0  0  0
  6 37  1  0  0  0  0
  7 38  1  0  0  0  0
  8 39  1  0  0  0  0
  9 40  1  0  0  0  0
 10 41  1  0  0  0  0
 11 42  1  0  0  0  0
 12 43  1  0  0  0  0
 13 44  1  0  0  0  0
 14 45  1  0  0  0  0
 21 46  1  0  0  0  0
 21 47  1  0  0  0  0
 22 48  1  0  0  0  0
 22 49  1  0  0  0  0
M  END
> <Protease Assay (Fluorescence) Dose-Response: IC50 (µM)>
> 99.5

> <clash_score>
0

> <docking_score>
-9.869136810302734

> <overlap_score>
0.8927367925643921

$$$$
ALP-POS-c59291d4-4_1
  -OEChem-09012022313D

 46 49  0     0  0  0  0  0  0999 V2000
    3.9160    2.0630   19.5520 C   0  0  0  0  0  0  0  0  0  0  0  0
    4.2750    1.7050   20.8490 C   0  0  0  0  0  0  0  0  0  0  0  0
    4.6890    1.6810   18.4640 C   0  0  0  0  0  0  0  0  0  0  0  0
    5.4210    0.9600   21.0930 C   0  0  0  0  0  0  0  0  0  0  0  0
   10.8312   -3.3025   23.1957 C   0  0  0  0  0  0  0  0  0  0  0  0
    9.1541   -2.9375   24.8960 C   0  0  0  0  0  0  0  0  0  0  0  0
   10.6198   -2.0122   22.7101 C   0  0  0  0  0  0  0  0  0  0  0  0
    8.9427   -1.6471   24.4104 C   0  0  0  0  0  0  0  0  0  0  0  0
   11.8809    2.1138   22.9303 C   0  0  0  0  0  0  0  0  0  0  0  0
   13.1500    2.4039   23.3807 C   0  0  0  0  0  0  0  0  0  0  0  0
   11.6902    1.5972   25.1884 C   0  0  0  0  0  0  0  0  0  0  0  0
   11.0351    1.6466   23.9775 C   0  0  0  0  0  0  0  0  0  0  0  0
    5.8300    0.9190   18.6970 C   0  0  0  0  0  0  0  0  0  0  0  0
    6.1790    0.5730   19.9990 C   0  0  0  0  0  0  0  0  0  0  0  0
   10.0984   -3.7652   24.2886 C   0  0  0  0  0  0  0  0  0  0  0  0
    9.6756   -1.1844   23.3174 C   0  0  0  0  0  0  0  0  0  0  0  0
    9.0420    0.3700   21.5280 C   0  0  0  0  0  0  0  0  0  0  0  0
   10.1308   -5.4233   26.1529 C   0  0  0  0  0  0  0  0  0  0  0  0
    9.5993    1.2539   23.7817 C   0  0  0  0  0  0  0  0  0  0  0  0
    8.1890   -0.7180   20.8700 C   0  0  0  0  0  0  0  0  0  0  0  0
    6.7580    0.3810   17.8350 N   0  0  0  0  0  0  0  0  0  0  0  0
    7.6390   -0.2680   18.5410 N   0  0  0  0  0  0  0  0  0  0  0  0
    7.3170   -0.1610   19.8550 N   0  0  0  0  0  0  0  0  0  0  0  0
   10.3107   -5.0707   24.7786 N   0  0  0  0  0  0  0  0  0  0  0  0
    9.4560    0.1560   22.8130 N   0  0  0  0  0  0  0  0  0  0  0  0
    9.2690    1.4140   20.9380 O   0  0  0  0  0  0  0  0  0  0  0  0
   13.3180    2.1130   25.0599 S   0  0  0  0  0  0  0  0  0  0  0  0
    3.0136    2.6524   19.3909 H   0  0  0  0  0  0  0  0  0  0  0  0
    3.6477    2.0141   21.6817 H   0  0  0  0  0  0  0  0  0  0  0  0
    4.4041    1.9739   17.4524 H   0  0  0  0  0  0  0  0  0  0  0  0
    5.7107    0.6909   22.1141 H   0  0  0  0  0  0  0  0  0  0  0  0
   11.5688   -3.9392   22.7140 H   0  0  0  0  0  0  0  0  0  0  0  0
    8.5773   -3.2878   25.7482 H   0  0  0  0  0  0  0  0  0  0  0  0
   11.1956   -1.6621   21.8569 H   0  0  0  0  0  0  0  0  0  0  0  0
    8.2039   -1.0101   24.8900 H   0  0  0  0  0  0  0  0  0  0  0  0
   11.5781    2.2322   21.8976 H   0  0  0  0  0  0  0  0  0  0  0  0
   13.9868    2.7721   22.8041 H   0  0  0  0  0  0  0  0  0  0  0  0
   11.2949    1.2825   26.1444 H   0  0  0  0  0  0  0  0  0  0  0  0
    9.8129   -4.5366   26.7209 H   0  0  0  0  0  0  0  0  0  0  0  0
    9.3612   -6.2052   26.2330 H   0  0  0  0  0  0  0  0  0  0  0  0
   11.0800   -5.7997   26.5620 H   0  0  0  0  0  0  0  0  0  0  0  0
    9.1556    0.9281   24.7288 H   0  0  0  0  0  0  0  0  0  0  0  0
    9.0064    2.1001   23.4189 H   0  0  0  0  0  0  0  0  0  0  0  0
    8.8255   -1.4531   20.3835 H   0  0  0  0  0  0  0  0  0  0  0  0
    7.5533   -1.1948   21.6123 H   0  0  0  0  0  0  0  0  0  0  0  0
   10.6012   -5.7635   24.1147 H   0  0  0  0  0  0  0  0  0  0  0  0
  1  2  1  0  0  0  0
  1  3  2  0  0  0  0
  2  4  2  0  0  0  0
  3 13  1  0  0  0  0
  4 14  1  0  0  0  0
  5  7  2  0  0  0  0
  5 15  1  0  0  0  0
  6  8  1  0  0  0  0
  6 15  2  0  0  0  0
  7 16  1  0  0  0  0
  8 16  2  0  0  0  0
  9 10  2  0  0  0  0
  9 12  1  0  0  0  0
 10 27  1  0  0  0  0
 11 12  2  0  0  0  0
 11 27  1  0  0  0  0
 12 19  1  0  0  0  0
 13 14  2  0  0  0  0
 13 21  1  0  0  0  0
 14 23  1  0  0  0  0
 15 24  1  0  0  0  0
 16 25  1  0  0  0  0
 17 20  1  0  0  0  0
 17 25  1  0  0  0  0
 17 26  2  0  0  0  0
 18 24  1  0  0  0  0
 19 25  1  0  0  0  0
 20 23  1  0  0  0  0
 21 22  2  0  0  0  0
 22 23  1  0  0  0  0
  1 28  1  0  0  0  0
  2 29  1  0  0  0  0
  3 30  1  0  0  0  0
  4 31  1  0  0  0  0
  5 32  1  0  0  0  0
  6 33  1  0  0  0  0
  7 34  1  0  0  0  0
  8 35  1  0  0  0  0
  9 36  1  0  0  0  0
 10 37  1  0  0  0  0
 11 38  1  0  0  0  0
 18 39  1  0  0  0  0
 18 40  1  0  0  0  0
 18 41  1  0  0  0  0
 19 42  1  0  0  0  0
 19 43  1  0  0  0  0
 20 44  1  0  0  0  0
 20 45  1  0  0  0  0
 24 46  1  0  0  0  0
M  END
> <Protease Assay (Fluorescence) Dose-Response: IC50 (µM)>
4.33

> <clash_score>
0.63134614078675

> <docking_score>
-8.873497009277344

> <overlap_score>
0.8862718343734741

$$$$
ALP-POS-c59291d4-3_1
  -OEChem-09012022313D

 52 56  0     0  0  0  0  0  0999 V2000
    3.9160    2.0630   19.5520 C   0  0  0  0  0  0  0  0  0  0  0  0
    4.2750    1.7050   20.8490 C   0  0  0  0  0  0  0  0  0  0  0  0
    4.6890    1.6810   18.4640 C   0  0  0  0  0  0  0  0  0  0  0  0
    5.4210    0.9600   21.0930 C   0  0  0  0  0  0  0  0  0  0  0  0
    7.5589   -2.2349   24.9775 C   0  0  0  0  0  0  0  0  0  0  0  0
    9.5456   -3.3358   24.1538 C   0  0  0  0  0  0  0  0  0  0  0  0
    7.9148   -1.0763   24.2872 C   0  0  0  0  0  0  0  0  0  0  0  0
    9.9014   -2.1772   23.4635 C   0  0  0  0  0  0  0  0  0  0  0  0
   12.5073    0.7182   22.4961 C   0  0  0  0  0  0  0  0  0  0  0  0
   13.8089    0.4251   22.8389 C   0  0  0  0  0  0  0  0  0  0  0  0
   12.3632    0.6574   24.8151 C   0  0  0  0  0  0  0  0  0  0  0  0
   11.6697    0.8529   23.6408 C   0  0  0  0  0  0  0  0  0  0  0  0
    5.8300    0.9190   18.6970 C   0  0  0  0  0  0  0  0  0  0  0  0
    6.1790    0.5730   19.9990 C   0  0  0  0  0  0  0  0  0  0  0  0
    8.3744   -3.3647   24.9109 C   0  0  0  0  0  0  0  0  0  0  0  0
    9.0860   -1.0474   23.5302 C   0  0  0  0  0  0  0  0  0  0  0  0
    8.7051   -5.7441   25.6547 C   0  0  0  0  0  0  0  0  0  0  0  0
    9.0420    0.3700   21.5280 C   0  0  0  0  0  0  0  0  0  0  0  0
    7.2577   -6.2563   27.7105 C   0  0  0  0  0  0  0  0  0  0  0  0
    6.5018   -6.7401   26.5098 C   0  0  0  0  0  0  0  0  0  0  0  0
    7.9867   -6.7526   26.5157 C   0  0  0  0  0  0  0  0  0  0  0  0
   10.2037    1.1697   23.5730 C   0  0  0  0  0  0  0  0  0  0  0  0
    8.1890   -0.7180   20.8700 C   0  0  0  0  0  0  0  0  0  0  0  0
    6.7580    0.3810   17.8350 N   0  0  0  0  0  0  0  0  0  0  0  0
    7.6390   -0.2680   18.5410 N   0  0  0  0  0  0  0  0  0  0  0  0
    7.3170   -0.1610   19.8550 N   0  0  0  0  0  0  0  0  0  0  0  0
    8.0188   -4.5235   25.6015 N   0  0  0  0  0  0  0  0  0  0  0  0
    9.4560    0.1560   22.8130 N   0  0  0  0  0  0  0  0  0  0  0  0
    9.7621   -6.0300   25.1015 O   0  0  0  0  0  0  0  0  0  0  0  0
    9.2690    1.4140   20.9380 O   0  0  0  0  0  0  0  0  0  0  0  0
   14.0171    0.3133   24.5349 S   0  0  0  0  0  0  0  0  0  0  0  0
    3.0136    2.6524   19.3909 H   0  0  0  0  0  0  0  0  0  0  0  0
    3.6477    2.0141   21.6817 H   0  0  0  0  0  0  0  0  0  0  0  0
    4.4041    1.9739   17.4524 H   0  0  0  0  0  0  0  0  0  0  0  0
    5.7107    0.6909   22.1141 H   0  0  0  0  0  0  0  0  0  0  0  0
    6.6440   -2.2456   25.5641 H   0  0  0  0  0  0  0  0  0  0  0  0
   10.1882   -4.2106   24.0947 H   0  0  0  0  0  0  0  0  0  0  0  0
    7.2716   -0.2018   24.3470 H   0  0  0  0  0  0  0  0  0  0  0  0
   10.8166   -2.1657   22.8774 H   0  0  0  0  0  0  0  0  0  0  0  0
   12.1760    0.8294   21.4713 H   0  0  0  0  0  0  0  0  0  0  0  0
   14.6474    0.2706   22.1746 H   0  0  0  0  0  0  0  0  0  0  0  0
   11.9813    0.6981   25.8259 H   0  0  0  0  0  0  0  0  0  0  0  0
    7.2324   -5.1954   27.9278 H   0  0  0  0  0  0  0  0  0  0  0  0
    7.2736   -6.8925   28.5870 H   0  0  0  0  0  0  0  0  0  0  0  0
    6.0082   -7.7019   26.5782 H   0  0  0  0  0  0  0  0  0  0  0  0
    5.9670   -6.0037   25.9223 H   0  0  0  0  0  0  0  0  0  0  0  0
    8.5012   -7.6876   26.5673 H   0  0  0  0  0  0  0  0  0  0  0  0
    9.7732    1.2227   24.5789 H   0  0  0  0  0  0  0  0  0  0  0  0
   10.0331    2.1400   23.0947 H   0  0  0  0  0  0  0  0  0  0  0  0
    8.8255   -1.4531   20.3835 H   0  0  0  0  0  0  0  0  0  0  0  0
    7.5533   -1.1948   21.6123 H   0  0  0  0  0  0  0  0  0  0  0  0
    7.1462   -4.4831   26.1409 H   0  0  0  0  0  0  0  0  0  0  0  0
  1  2  1  0  0  0  0
  1  3  2  0  0  0  0
  2  4  2  0  0  0  0
  3 13  1  0  0  0  0
  4 14  1  0  0  0  0
  5  7  2  0  0  0  0
  5 15  1  0  0  0  0
  6  8  1  0  0  0  0
  6 15  2  0  0  0  0
  7 16  1  0  0  0  0
  8 16  2  0  0  0  0
  9 10  2  0  0  0  0
  9 12  1  0  0  0  0
 10 31  1  0  0  0  0
 11 12  2  0  0  0  0
 11 31  1  0  0  0  0
 12 22  1  0  0  0  0
 13 14  2  0  0  0  0
 13 24  1  0  0  0  0
 14 26  1  0  0  0  0
 15 27  1  0  0  0  0
 16 28  1  0  0  0  0
 17 21  1  0  0  0  0
 17 27  1  0  0  0  0
 17 29  2  0  0  0  0
 18 23  1  0  0  0  0
 18 28  1  0  0  0  0
 18 30  2  0  0  0  0
 19 20  1  0  0  0  0
 19 21  1  0  0  0  0
 20 21  1  0  0  0  0
 22 28  1  0  0  0  0
 23 26  1  0  0  0  0
 24 25  2  0  0  0  0
 25 26  1  0  0  0  0
  1 32  1  0  0  0  0
  2 33  1  0  0  0  0
  3 34  1  0  0  0  0
  4 35  1  0  0  0  0
  5 36  1  0  0  0  0
  6 37  1  0  0  0  0
  7 38  1  0  0  0  0
  8 39  1  0  0  0  0
  9 40  1  0  0  0  0
 10 41  1  0  0  0  0
 11 42  1  0  0  0  0
 19 43  1  0  0  0  0
 19 44  1  0  0  0  0
 20 45  1  0  0  0  0
 20 46  1  0  0  0  0
 21 47  1  0  0  0  0
 22 48  1  0  0  0  0
 22 49  1  0  0  0  0
 23 50  1  0  0  0  0
 23 51  1  0  0  0  0
 27 52  1  0  0  0  0
M  END
> <Protease Assay (Fluorescence) Dose-Response: IC50 (µM)>
3.99

> <clash_score>
0

> <docking_score>
-7.971259117126465

> <overlap_score>
0.8948029279708862

$$$$
ALP-POS-c59291d4-2_1
  -OEChem-09012022313D

 51 54  0     0  0  0  0  0  0999 V2000
    3.9160    2.0630   19.5520 C   0  0  0  0  0  0  0  0  0  0  0  0
    4.2750    1.7050   20.8490 C   0  0  0  0  0  0  0  0  0  0  0  0
    4.6890    1.6810   18.4640 C   0  0  0  0  0  0  0  0  0  0  0  0
    5.4210    0.9600   21.0930 C   0  0  0  0  0  0  0  0  0  0  0  0
    7.5589   -2.2349   24.9775 C   0  0  0  0  0  0  0  0  0  0  0  0
    9.5456   -3.3358   24.1538 C   0  0  0  0  0  0  0  0  0  0  0  0
    7.9148   -1.0763   24.2872 C   0  0  0  0  0  0  0  0  0  0  0  0
    9.9014   -2.1772   23.4635 C   0  0  0  0  0  0  0  0  0  0  0  0
   12.5073    0.7182   22.4961 C   0  0  0  0  0  0  0  0  0  0  0  0
   13.8089    0.4251   22.8389 C   0  0  0  0  0  0  0  0  0  0  0  0
   12.3632    0.6574   24.8151 C   0  0  0  0  0  0  0  0  0  0  0  0
   11.6697    0.8529   23.6408 C   0  0  0  0  0  0  0  0  0  0  0  0
    5.8300    0.9190   18.6970 C   0  0  0  0  0  0  0  0  0  0  0  0
    6.1790    0.5730   19.9990 C   0  0  0  0  0  0  0  0  0  0  0  0
    8.3744   -3.3647   24.9109 C   0  0  0  0  0  0  0  0  0  0  0  0
    9.0860   -1.0474   23.5302 C   0  0  0  0  0  0  0  0  0  0  0  0
    8.8639   -5.5036   26.1468 C   0  0  0  0  0  0  0  0  0  0  0  0
    9.0420    0.3700   21.5280 C   0  0  0  0  0  0  0  0  0  0  0  0
    7.2203   -6.0995   27.9768 C   0  0  0  0  0  0  0  0  0  0  0  0
   10.2037    1.1697   23.5730 C   0  0  0  0  0  0  0  0  0  0  0  0
    8.0626   -6.6076   26.8205 C   0  0  0  0  0  0  0  0  0  0  0  0
    8.1890   -0.7180   20.8700 C   0  0  0  0  0  0  0  0  0  0  0  0
    6.7580    0.3810   17.8350 N   0  0  0  0  0  0  0  0  0  0  0  0
    7.6390   -0.2680   18.5410 N   0  0  0  0  0  0  0  0  0  0  0  0
    7.3170   -0.1610   19.8550 N   0  0  0  0  0  0  0  0  0  0  0  0
    8.0188   -4.5235   25.6015 N   0  0  0  0  0  0  0  0  0  0  0  0
    9.4560    0.1560   22.8130 N   0  0  0  0  0  0  0  0  0  0  0  0
   10.0900   -5.5172   26.1137 O   0  0  0  0  0  0  0  0  0  0  0  0
    9.2690    1.4140   20.9380 O   0  0  0  0  0  0  0  0  0  0  0  0
   14.0171    0.3133   24.5349 S   0  0  0  0  0  0  0  0  0  0  0  0
    3.0136    2.6524   19.3909 H   0  0  0  0  0  0  0  0  0  0  0  0
    3.6477    2.0141   21.6817 H   0  0  0  0  0  0  0  0  0  0  0  0
    4.4041    1.9739   17.4524 H   0  0  0  0  0  0  0  0  0  0  0  0
    5.7107    0.6909   22.1141 H   0  0  0  0  0  0  0  0  0  0  0  0
    6.6440   -2.2456   25.5641 H   0  0  0  0  0  0  0  0  0  0  0  0
   10.1882   -4.2106   24.0947 H   0  0  0  0  0  0  0  0  0  0  0  0
    7.2716   -0.2018   24.3470 H   0  0  0  0  0  0  0  0  0  0  0  0
   10.8166   -2.1657   22.8774 H   0  0  0  0  0  0  0  0  0  0  0  0
   12.1760    0.8294   21.4713 H   0  0  0  0  0  0  0  0  0  0  0  0
   14.6474    0.2706   22.1746 H   0  0  0  0  0  0  0  0  0  0  0  0
   11.9813    0.6981   25.8259 H   0  0  0  0  0  0  0  0  0  0  0  0
    7.8463   -5.6299   28.7428 H   0  0  0  0  0  0  0  0  0  0  0  0
    6.6731   -6.9255   28.4416 H   0  0  0  0  0  0  0  0  0  0  0  0
    6.4924   -5.3559   27.6360 H   0  0  0  0  0  0  0  0  0  0  0  0
    9.7732    1.2227   24.5789 H   0  0  0  0  0  0  0  0  0  0  0  0
   10.0331    2.1400   23.0947 H   0  0  0  0  0  0  0  0  0  0  0  0
    7.4117   -7.0716   26.0705 H   0  0  0  0  0  0  0  0  0  0  0  0
    8.7600   -7.3711   27.1839 H   0  0  0  0  0  0  0  0  0  0  0  0
    8.8255   -1.4531   20.3835 H   0  0  0  0  0  0  0  0  0  0  0  0
    7.5533   -1.1948   21.6123 H   0  0  0  0  0  0  0  0  0  0  0  0
    7.0133   -4.6856   25.7309 H   0  0  0  0  0  0  0  0  0  0  0  0
  1  2  1  0  0  0  0
  1  3  2  0  0  0  0
  2  4  2  0  0  0  0
  3 13  1  0  0  0  0
  4 14  1  0  0  0  0
  5  7  2  0  0  0  0
  5 15  1  0  0  0  0
  6  8  1  0  0  0  0
  6 15  2  0  0  0  0
  7 16  1  0  0  0  0
  8 16  2  0  0  0  0
  9 10  2  0  0  0  0
  9 12  1  0  0  0  0
 10 30  1  0  0  0  0
 11 12  2  0  0  0  0
 11 30  1  0  0  0  0
 12 20  1  0  0  0  0
 13 14  2  0  0  0  0
 13 23  1  0  0  0  0
 14 25  1  0  0  0  0
 15 26  1  0  0  0  0
 16 27  1  0  0  0  0
 17 21  1  0  0  0  0
 17 26  1  0  0  0  0
 17 28  2  0  0  0  0
 18 22  1  0  0  0  0
 18 27  1  0  0  0  0
 18 29  2  0  0  0  0
 19 21  1  0  0  0  0
 20 27  1  0  0  0  0
 22 25  1  0  0  0  0
 23 24  2  0  0  0  0
 24 25  1  0  0  0  0
  1 31  1  0  0  0  0
  2 32  1  0  0  0  0
  3 33  1  0  0  0  0
  4 34  1  0  0  0  0
  5 35  1  0  0  0  0
  6 36  1  0  0  0  0
  7 37  1  0  0  0  0
  8 38  1  0  0  0  0
  9 39  1  0  0  0  0
 10 40  1  0  0  0  0
 11 41  1  0  0  0  0
 19 42  1  0  0  0  0
 19 43  1  0  0  0  0
 19 44  1  0  0  0  0
 20 45  1  0  0  0  0
 20 46  1  0  0  0  0
 21 47  1  0  0  0  0
 21 48  1  0  0  0  0
 22 49  1  0  0  0  0
 22 50  1  0  0  0  0
 26 51  1  0  0  0  0
M  END
> <Protease Assay (Fluorescence) Dose-Response: IC50 (µM)>
1.63

> <clash_score>
0

> <docking_score>
-8.294225692749023

> <overlap_score>
0.8936073184013367

$$$$
ALP-POS-c0c213c9-15_1
  -OEChem-09012022313D

 51 55  0     0  0  0  0  0  0999 V2000
    7.3229   -6.7909   26.9527 C   0  0  0  0  0  0  0  0  0  0  0  0
    8.6681   -6.4948   26.7333 C   0  0  0  0  0  0  0  0  0  0  0  0
    6.3330   -5.9282   26.4819 C   0  0  0  0  0  0  0  0  0  0  0  0
    3.9160    2.0630   19.5520 C   0  0  0  0  0  0  0  0  0  0  0  0
    4.2750    1.7050   20.8490 C   0  0  0  0  0  0  0  0  0  0  0  0
   13.7512    0.4488   22.5636 C   0  0  0  0  0  0  0  0  0  0  0  0
   14.3308    0.2756   23.8156 C   0  0  0  0  0  0  0  0  0  0  0  0
    9.0236   -5.3360   26.0431 C   0  0  0  0  0  0  0  0  0  0  0  0
    6.6885   -4.7694   25.7917 C   0  0  0  0  0  0  0  0  0  0  0  0
    4.6890    1.6810   18.4640 C   0  0  0  0  0  0  0  0  0  0  0  0
    5.4210    0.9600   21.0930 C   0  0  0  0  0  0  0  0  0  0  0  0
   12.3958    0.7433   22.4659 C   0  0  0  0  0  0  0  0  0  0  0  0
   13.5181    0.4064   24.9302 C   0  0  0  0  0  0  0  0  0  0  0  0
    9.8588   -2.1902   23.4958 C   0  0  0  0  0  0  0  0  0  0  0  0
    7.9383   -1.1255   24.2923 C   0  0  0  0  0  0  0  0  0  0  0  0
    8.0338   -4.4733   25.5722 C   0  0  0  0  0  0  0  0  0  0  0  0
    5.8300    0.9190   18.6970 C   0  0  0  0  0  0  0  0  0  0  0  0
    6.1790    0.5730   19.9990 C   0  0  0  0  0  0  0  0  0  0  0  0
    9.0860   -1.0474   23.5302 C   0  0  0  0  0  0  0  0  0  0  0  0
   11.6697    0.8529   23.6408 C   0  0  0  0  0  0  0  0  0  0  0  0
    8.4011   -3.2774   24.8597 C   0  0  0  0  0  0  0  0  0  0  0  0
    9.0420    0.3700   21.5280 C   0  0  0  0  0  0  0  0  0  0  0  0
   10.2037    1.1697   23.5730 C   0  0  0  0  0  0  0  0  0  0  0  0
    8.1890   -0.7180   20.8700 C   0  0  0  0  0  0  0  0  0  0  0  0
   12.1978    0.6916   24.8748 N   0  0  0  0  0  0  0  0  0  0  0  0
    9.5451   -3.3271   24.1510 N   0  0  0  0  0  0  0  0  0  0  0  0
    7.5637   -2.2288   24.9726 N   0  0  0  0  0  0  0  0  0  0  0  0
    6.7580    0.3810   17.8350 N   0  0  0  0  0  0  0  0  0  0  0  0
    7.6390   -0.2680   18.5410 N   0  0  0  0  0  0  0  0  0  0  0  0
    7.3170   -0.1610   19.8550 N   0  0  0  0  0  0  0  0  0  0  0  0
    9.4560    0.1560   22.8130 N   0  0  0  0  0  0  0  0  0  0  0  0
    9.2690    1.4140   20.9380 O   0  0  0  0  0  0  0  0  0  0  0  0
    7.0463   -7.6941   27.4886 H   0  0  0  0  0  0  0  0  0  0  0  0
    9.4389   -7.1673   27.0983 H   0  0  0  0  0  0  0  0  0  0  0  0
    5.2853   -6.1589   26.6511 H   0  0  0  0  0  0  0  0  0  0  0  0
    3.0136    2.6524   19.3909 H   0  0  0  0  0  0  0  0  0  0  0  0
    3.6477    2.0141   21.6817 H   0  0  0  0  0  0  0  0  0  0  0  0
   14.3548    0.3544   21.6659 H   0  0  0  0  0  0  0  0  0  0  0  0
   15.3853    0.0456   23.9157 H   0  0  0  0  0  0  0  0  0  0  0  0
   10.0767   -5.1193   25.8798 H   0  0  0  0  0  0  0  0  0  0  0  0
    5.9059   -4.1067   25.4300 H   0  0  0  0  0  0  0  0  0  0  0  0
    4.4041    1.9739   17.4524 H   0  0  0  0  0  0  0  0  0  0  0  0
    5.7107    0.6909   22.1141 H   0  0  0  0  0  0  0  0  0  0  0  0
   11.9316    0.8807   21.4952 H   0  0  0  0  0  0  0  0  0  0  0  0
   13.9218    0.2809   25.9295 H   0  0  0  0  0  0  0  0  0  0  0  0
   10.7815   -2.2328   22.9250 H   0  0  0  0  0  0  0  0  0  0  0  0
    7.2623   -0.2811   24.3853 H   0  0  0  0  0  0  0  0  0  0  0  0
    9.7732    1.2227   24.5789 H   0  0  0  0  0  0  0  0  0  0  0  0
   10.0331    2.1400   23.0947 H   0  0  0  0  0  0  0  0  0  0  0  0
    8.8255   -1.4531   20.3835 H   0  0  0  0  0  0  0  0  0  0  0  0
    7.5533   -1.1948   21.6123 H   0  0  0  0  0  0  0  0  0  0  0  0
  1  2  1  0  0  0  0
  1  3  2  0  0  0  0
  2  8  2  0  0  0  0
  3  9  1  0  0  0  0
  4  5  1  0  0  0  0
  4 10  2  0  0  0  0
  5 11  2  0  0  0  0
  6  7  1  0  0  0  0
  6 12  2  0  0  0  0
  7 13  2  0  0  0  0
  8 16  1  0  0  0  0
  9 16  2  0  0  0  0
 10 17  1  0  0  0  0
 11 18  1  0  0  0  0
 12 20  1  0  0  0  0
 13 25  1  0  0  0  0
 14 19  1  0  0  0  0
 14 26  2  0  0  0  0
 15 19  2  0  0  0  0
 15 27  1  0  0  0  0
 16 21  1  0  0  0  0
 17 18  2  0  0  0  0
 17 28  1  0  0  0  0
 18 30  1  0  0  0  0
 19 31  1  0  0  0  0
 20 23  1  0  0  0  0
 20 25  2  0  0  0  0
 21 26  1  0  0  0  0
 21 27  2  0  0  0  0
 22 24  1  0  0  0  0
 22 31  1  0  0  0  0
 22 32  2  0  0  0  0
 23 31  1  0  0  0  0
 24 30  1  0  0  0  0
 28 29  2  0  0  0  0
 29 30  1  0  0  0  0
  1 33  1  0  0  0  0
  2 34  1  0  0  0  0
  3 35  1  0  0  0  0
  4 36  1  0  0  0  0
  5 37  1  0  0  0  0
  6 38  1  0  0  0  0
  7 39  1  0  0  0  0
  8 40  1  0  0  0  0
  9 41  1  0  0  0  0
 10 42  1  0  0  0  0
 11 43  1  0  0  0  0
 12 44  1  0  0  0  0
 13 45  1  0  0  0  0
 14 46  1  0  0  0  0
 15 47  1  0  0  0  0
 23 48  1  0  0  0  0
 23 49  1  0  0  0  0
 24 50  1  0  0  0  0
 24 51  1  0  0  0  0
M  END
> <Protease Assay (Fluorescence) Dose-Response: IC50 (µM)>
> 99.5

> <clash_score>
0

> <docking_score>
-7.268688201904297

> <overlap_score>
0.8931666016578674

$$$$
AAR-POS-8a4e0f60-7_1
  -OEChem-09012022313D

 47 50  0     0  0  0  0  0  0999 V2000
    3.9160    2.0630   19.5520 C   0  0  0  0  0  0  0  0  0  0  0  0
    4.2750    1.7050   20.8490 C   0  0  0  0  0  0  0  0  0  0  0  0
    8.2041   -7.9932   24.5205 C   0  0  0  0  0  0  0  0  0  0  0  0
    4.6890    1.6810   18.4640 C   0  0  0  0  0  0  0  0  0  0  0  0
    5.4210    0.9600   21.0930 C   0  0  0  0  0  0  0  0  0  0  0  0
   10.6198   -2.0123   22.7102 C   0  0  0  0  0  0  0  0  0  0  0  0
    8.9426   -1.6470   24.4103 C   0  0  0  0  0  0  0  0  0  0  0  0
   10.8311   -3.3027   23.1959 C   0  0  0  0  0  0  0  0  0  0  0  0
    9.1538   -2.9373   24.8961 C   0  0  0  0  0  0  0  0  0  0  0  0
    8.9679   -6.9761   25.0821 C   0  0  0  0  0  0  0  0  0  0  0  0
    8.6495   -7.0715   22.3737 C   0  0  0  0  0  0  0  0  0  0  0  0
    8.0369   -8.0490   23.1413 C   0  0  0  0  0  0  0  0  0  0  0  0
    5.8300    0.9190   18.6970 C   0  0  0  0  0  0  0  0  0  0  0  0
    6.1790    0.5730   19.9990 C   0  0  0  0  0  0  0  0  0  0  0  0
    9.6756   -1.1844   23.3174 C   0  0  0  0  0  0  0  0  0  0  0  0
   10.0981   -3.7652   24.2888 C   0  0  0  0  0  0  0  0  0  0  0  0
    9.5390   -6.0469   24.2276 C   0  0  0  0  0  0  0  0  0  0  0  0
    9.0420    0.3700   21.5280 C   0  0  0  0  0  0  0  0  0  0  0  0
    9.5993    1.2539   23.7817 C   0  0  0  0  0  0  0  0  0  0  0  0
    8.1890   -0.7180   20.8700 C   0  0  0  0  0  0  0  0  0  0  0  0
    7.2260   -9.1243   22.5103 C   0  0  0  0  0  0  0  0  0  0  0  0
    9.3989   -6.0683   22.8831 N   0  0  0  0  0  0  0  0  0  0  0  0
    6.7580    0.3810   17.8350 N   0  0  0  0  0  0  0  0  0  0  0  0
    7.6390   -0.2680   18.5410 N   0  0  0  0  0  0  0  0  0  0  0  0
    7.3170   -0.1610   19.8550 N   0  0  0  0  0  0  0  0  0  0  0  0
    9.4560    0.1560   22.8130 N   0  0  0  0  0  0  0  0  0  0  0  0
    9.2690    1.4140   20.9380 O   0  0  0  0  0  0  0  0  0  0  0  0
   10.3043   -5.0243   24.7628 O   0  0  0  0  0  0  0  0  0  0  0  0
    6.6904  -10.0087   23.4055 F   0  0  0  0  0  0  0  0  0  0  0  0
    6.1586   -8.6600   21.7924 F   0  0  0  0  0  0  0  0  0  0  0  0
    7.9472   -9.8867   21.6352 F   0  0  0  0  0  0  0  0  0  0  0  0
    3.0136    2.6524   19.3909 H   0  0  0  0  0  0  0  0  0  0  0  0
    3.6477    2.0141   21.6817 H   0  0  0  0  0  0  0  0  0  0  0  0
    7.7432   -8.7373   25.1642 H   0  0  0  0  0  0  0  0  0  0  0  0
    4.4041    1.9739   17.4524 H   0  0  0  0  0  0  0  0  0  0  0  0
    5.7107    0.6909   22.1141 H   0  0  0  0  0  0  0  0  0  0  0  0
   11.1966   -1.6623   21.8578 H   0  0  0  0  0  0  0  0  0  0  0  0
    8.2042   -1.0106   24.8916 H   0  0  0  0  0  0  0  0  0  0  0  0
   11.5680   -3.9429   22.7186 H   0  0  0  0  0  0  0  0  0  0  0  0
    8.5799   -3.2920   25.7478 H   0  0  0  0  0  0  0  0  0  0  0  0
    9.1078   -6.9188   26.1560 H   0  0  0  0  0  0  0  0  0  0  0  0
    8.5545   -7.0637   21.2922 H   0  0  0  0  0  0  0  0  0  0  0  0
   10.6420    1.6042   23.7881 H   0  0  0  0  0  0  0  0  0  0  0  0
    8.9356    2.0834   23.4964 H   0  0  0  0  0  0  0  0  0  0  0  0
    9.3271    0.8951   24.7853 H   0  0  0  0  0  0  0  0  0  0  0  0
    8.8255   -1.4531   20.3835 H   0  0  0  0  0  0  0  0  0  0  0  0
    7.5533   -1.1948   21.6123 H   0  0  0  0  0  0  0  0  0  0  0  0
  1  2  1  0  0  0  0
  1  4  2  0  0  0  0
  2  5  2  0  0  0  0
  3 10  2  0  0  0  0
  3 12  1  0  0  0  0
  4 13  1  0  0  0  0
  5 14  1  0  0  0  0
  6  8  2  0  0  0  0
  6 15  1  0  0  0  0
  7  9  1  0  0  0  0
  7 15  2  0  0  0  0
  8 16  1  0  0  0  0
  9 16  2  0  0  0  0
 10 17  1  0  0  0  0
 11 12  2  0  0  0  0
 11 22  1  0  0  0  0
 12 21  1  0  0  0  0
 13 14  2  0  0  0  0
 13 23  1  0  0  0  0
 14 25  1  0  0  0  0
 15 26  1  0  0  0  0
 16 28  1  0  0  0  0
 17 22  2  0  0  0  0
 17 28  1  0  0  0  0
 18 20  1  0  0  0  0
 18 26  1  0  0  0  0
 18 27  2  0  0  0  0
 19 26  1  0  0  0  0
 20 25  1  0  0  0  0
 21 29  1  0  0  0  0
 21 30  1  0  0  0  0
 21 31  1  0  0  0  0
 23 24  2  0  0  0  0
 24 25  1  0  0  0  0
  1 32  1  0  0  0  0
  2 33  1  0  0  0  0
  3 34  1  0  0  0  0
  4 35  1  0  0  0  0
  5 36  1  0  0  0  0
  6 37  1  0  0  0  0
  7 38  1  0  0  0  0
  8 39  1  0  0  0  0
  9 40  1  0  0  0  0
 10 41  1  0  0  0  0
 11 42  1  0  0  0  0
 19 43  1  0  0  0  0
 19 44  1  0  0  0  0
 19 45  1  0  0  0  0
 20 46  1  0  0  0  0
 20 47  1  0  0  0  0
M  END
> <Protease Assay (Fluorescence) Dose-Response: IC50 (µM)>
37.8

> <clash_score>
4.330963904826449

> <docking_score>
3.4028234663852886e+38

> <overlap_score>
0.772883951663971

$$$$
ALP-POS-c0c213c9-13_1
  -OEChem-09012022313D

 61 65  0     1  0  0  0  0  0999 V2000
    3.9160    2.0630   19.5520 C   0  0  0  0  0  0  0  0  0  0  0  0
    4.2750    1.7050   20.8490 C   0  0  0  0  0  0  0  0  0  0  0  0
    9.1850   -3.3919   23.7934 C   0  0  0  0  0  0  0  0  0  0  0  0
    8.0821   -2.0261   25.4533 C   0  0  0  0  0  0  0  0  0  0  0  0
    4.6890    1.6810   18.4640 C   0  0  0  0  0  0  0  0  0  0  0  0
    5.4210    0.9600   21.0930 C   0  0  0  0  0  0  0  0  0  0  0  0
    9.5139   -2.2461   23.0691 C   0  0  0  0  0  0  0  0  0  0  0  0
    8.4110   -0.8803   24.7291 C   0  0  0  0  0  0  0  0  0  0  0  0
    8.4690   -3.2819   24.9855 C   0  0  0  0  0  0  0  0  0  0  0  0
    5.8300    0.9190   18.6970 C   0  0  0  0  0  0  0  0  0  0  0  0
    6.1790    0.5730   19.9990 C   0  0  0  0  0  0  0  0  0  0  0  0
    9.1269   -0.9903   23.5370 C   0  0  0  0  0  0  0  0  0  0  0  0
    9.0420    0.3700   21.5280 C   0  0  0  0  0  0  0  0  0  0  0  0
    8.7653   -4.5462   27.1662 C   0  0  0  0  0  0  0  0  0  0  0  0
    6.5900   -4.7366   25.8774 C   0  0  0  0  0  0  0  0  0  0  0  0
   12.4566    0.4237   22.6392 C   0  0  0  0  0  0  0  0  0  0  0  0
    8.4007   -5.8074   27.9361 C   0  0  0  0  0  0  0  0  0  0  0  0
    6.2533   -5.9955   26.6638 C   0  0  0  0  0  0  0  0  0  0  0  0
   13.7562    1.1407   22.3387 C   0  0  0  0  0  0  0  0  0  0  0  0
   12.3534    2.6129   23.4756 C   0  0  0  0  0  0  0  0  0  0  0  0
    8.1122   -4.5251   25.7710 C   0  0  0  0  0  0  0  0  0  0  0  0
   11.4910    1.5814   22.7690 C   0  0  2  0  0  0  0  0  0  0  0  0
    8.1890   -0.7180   20.8700 C   0  0  0  0  0  0  0  0  0  0  0  0
   10.2111    1.2437   23.5092 C   0  0  0  0  0  0  0  0  0  0  0  0
    6.7580    0.3810   17.8350 N   0  0  0  0  0  0  0  0  0  0  0  0
    7.6390   -0.2680   18.5410 N   0  0  0  0  0  0  0  0  0  0  0  0
    7.3170   -0.1610   19.8550 N   0  0  0  0  0  0  0  0  0  0  0  0
    9.4560    0.1560   22.8130 N   0  0  0  0  0  0  0  0  0  0  0  0
    6.9144   -5.9322   28.0008 N   0  3  0  0  0  0  0  0  0  0  0  0
    9.2690    1.4140   20.9380 O   0  0  0  0  0  0  0  0  0  0  0  0
   13.6963    2.4075   23.0107 O   0  0  0  0  0  0  0  0  0  0  0  0
    3.0136    2.6524   19.3909 H   0  0  0  0  0  0  0  0  0  0  0  0
    3.6477    2.0141   21.6817 H   0  0  0  0  0  0  0  0  0  0  0  0
    9.4887   -4.3665   23.4202 H   0  0  0  0  0  0  0  0  0  0  0  0
    7.5234   -1.9313   26.3808 H   0  0  0  0  0  0  0  0  0  0  0  0
    4.4041    1.9739   17.4524 H   0  0  0  0  0  0  0  0  0  0  0  0
    5.7107    0.6909   22.1141 H   0  0  0  0  0  0  0  0  0  0  0  0
   10.0725   -2.3435   22.1416 H   0  0  0  0  0  0  0  0  0  0  0  0
    8.1035    0.0934   25.1023 H   0  0  0  0  0  0  0  0  0  0  0  0
    8.4540   -3.6649   27.7433 H   0  0  0  0  0  0  0  0  0  0  0  0
    9.8562   -4.4820   27.0695 H   0  0  0  0  0  0  0  0  0  0  0  0
    6.1511   -4.8062   24.8744 H   0  0  0  0  0  0  0  0  0  0  0  0
    6.1200   -3.8691   26.3607 H   0  0  0  0  0  0  0  0  0  0  0  0
   12.1811   -0.2937   21.8612 H   0  0  0  0  0  0  0  0  0  0  0  0
   12.5407   -0.1179   23.5894 H   0  0  0  0  0  0  0  0  0  0  0  0
    8.7844   -6.7115   27.4522 H   0  0  0  0  0  0  0  0  0  0  0  0
    8.7640   -5.7661   28.9672 H   0  0  0  0  0  0  0  0  0  0  0  0
    5.1773   -6.0804   26.8419 H   0  0  0  0  0  0  0  0  0  0  0  0
    6.6109   -6.9019   26.1642 H   0  0  0  0  0  0  0  0  0  0  0  0
   14.6324    0.5829   22.6804 H   0  0  0  0  0  0  0  0  0  0  0  0
   13.8625    1.3368   21.2663 H   0  0  0  0  0  0  0  0  0  0  0  0
   12.0448    3.6388   23.2539 H   0  0  0  0  0  0  0  0  0  0  0  0
   12.3542    2.4769   24.5628 H   0  0  0  0  0  0  0  0  0  0  0  0
    8.5328   -5.3903   25.1889 H   0  0  0  0  0  0  0  0  0  0  0  0
   11.2346    1.9468   21.7683 H   0  0  0  0  0  0  0  0  0  0  0  0
    8.8326   -1.4554   20.3912 H   0  0  0  0  0  0  0  0  0  0  0  0
    7.5604   -1.1971   21.6201 H   0  0  0  0  0  0  0  0  0  0  0  0
   10.4621    0.9116   24.5273 H   0  0  0  0  0  0  0  0  0  0  0  0
    9.5791    2.1424   23.5620 H   0  0  0  0  0  0  0  0  0  0  0  0
    6.6723   -6.7782   28.5347 H   0  0  0  0  0  0  0  0  0  0  0  0
    6.5266   -5.1447   28.5390 H   0  0  0  0  0  0  0  0  0  0  0  0
  1  2  1  0  0  0  0
  1  5  2  0  0  0  0
  2  6  2  0  0  0  0
  3  7  2  0  0  0  0
  3  9  1  0  0  0  0
  4  8  1  0  0  0  0
  4  9  2  0  0  0  0
  5 10  1  0  0  0  0
  6 11  1  0  0  0  0
  7 12  1  0  0  0  0
  8 12  2  0  0  0  0
  9 21  1  0  0  0  0
 10 11  2  0  0  0  0
 10 25  1  0  0  0  0
 11 27  1  0  0  0  0
 12 28  1  0  0  0  0
 13 23  1  0  0  0  0
 13 28  1  0  0  0  0
 13 30  2  0  0  0  0
 14 17  1  0  0  0  0
 14 21  1  0  0  0  0
 15 18  1  0  0  0  0
 15 21  1  0  0  0  0
 16 19  1  0  0  0  0
 16 22  1  0  0  0  0
 17 29  1  0  0  0  0
 18 29  1  0  0  0  0
 19 31  1  0  0  0  0
 20 22  1  0  0  0  0
 20 31  1  0  0  0  0
 22 24  1  1  0  0  0
 23 27  1  0  0  0  0
 24 28  1  0  0  0  0
 25 26  2  0  0  0  0
 26 27  1  0  0  0  0
  1 32  1  0  0  0  0
  2 33  1  0  0  0  0
  3 34  1  0  0  0  0
  4 35  1  0  0  0  0
  5 36  1  0  0  0  0
  6 37  1  0  0  0  0
  7 38  1  0  0  0  0
  8 39  1  0  0  0  0
 14 40  1  0  0  0  0
 14 41  1  0  0  0  0
 15 42  1  0  0  0  0
 15 43  1  0  0  0  0
 16 44  1  0  0  0  0
 16 45  1  0  0  0  0
 17 46  1  0  0  0  0
 17 47  1  0  0  0  0
 18 48  1  0  0  0  0
 18 49  1  0  0  0  0
 19 50  1  0  0  0  0
 19 51  1  0  0  0  0
 20 52  1  0  0  0  0
 20 53  1  0  0  0  0
 21 54  1  0  0  0  0
 22 55  1  0  0  0  0
 23 56  1  0  0  0  0
 23 57  1  0  0  0  0
 24 58  1  0  0  0  0
 24 59  1  0  0  0  0
 29 60  1  0  0  0  0
 29 61  1  0  0  0  0
M  CHG  1  29   1
M  END
> <Protease Assay (Fluorescence) Dose-Response: IC50 (µM)>
> 99.5

> <clash_score>
0

> <docking_score>
-10.998071670532227

> <overlap_score>
0.9247957468032837

$$$$
ALP-POS-c0c213c9-13_2
  -OEChem-09012022313D

 61 65  0     1  0  0  0  0  0999 V2000
    3.9160    2.0630   19.5520 C   0  0  0  0  0  0  0  0  0  0  0  0
    4.2750    1.7050   20.8490 C   0  0  0  0  0  0  0  0  0  0  0  0
    9.1850   -3.3919   23.7934 C   0  0  0  0  0  0  0  0  0  0  0  0
    8.0821   -2.0261   25.4533 C   0  0  0  0  0  0  0  0  0  0  0  0
    4.6890    1.6810   18.4640 C   0  0  0  0  0  0  0  0  0  0  0  0
    5.4210    0.9600   21.0930 C   0  0  0  0  0  0  0  0  0  0  0  0
    9.5139   -2.2461   23.0691 C   0  0  0  0  0  0  0  0  0  0  0  0
    8.4110   -0.8803   24.7291 C   0  0  0  0  0  0  0  0  0  0  0  0
    8.4690   -3.2819   24.9855 C   0  0  0  0  0  0  0  0  0  0  0  0
    5.8300    0.9190   18.6970 C   0  0  0  0  0  0  0  0  0  0  0  0
    6.1790    0.5730   19.9990 C   0  0  0  0  0  0  0  0  0  0  0  0
    9.1269   -0.9903   23.5370 C   0  0  0  0  0  0  0  0  0  0  0  0
    9.0420    0.3700   21.5280 C   0  0  0  0  0  0  0  0  0  0  0  0
    8.7653   -4.5462   27.1662 C   0  0  0  0  0  0  0  0  0  0  0  0
    6.5901   -4.7366   25.8775 C   0  0  0  0  0  0  0  0  0  0  0  0
   12.3080    2.6809   23.4122 C   0  0  0  0  0  0  0  0  0  0  0  0
    8.4007   -5.8074   27.9361 C   0  0  0  0  0  0  0  0  0  0  0  0
    6.2533   -5.9955   26.6638 C   0  0  0  0  0  0  0  0  0  0  0  0
   13.6698    2.4556   22.7890 C   0  0  0  0  0  0  0  0  0  0  0  0
   12.4965    0.4436   22.7333 C   0  0  0  0  0  0  0  0  0  0  0  0
    8.1122   -4.5251   25.7711 C   0  0  0  0  0  0  0  0  0  0  0  0
   11.4910    1.5814   22.7690 C   0  0  1  0  0  0  0  0  0  0  0  0
    8.1890   -0.7180   20.8700 C   0  0  0  0  0  0  0  0  0  0  0  0
   10.2111    1.2437   23.5091 C   0  0  0  0  0  0  0  0  0  0  0  0
    6.7580    0.3810   17.8350 N   0  0  0  0  0  0  0  0  0  0  0  0
    7.6390   -0.2680   18.5410 N   0  0  0  0  0  0  0  0  0  0  0  0
    7.3170   -0.1610   19.8550 N   0  0  0  0  0  0  0  0  0  0  0  0
    9.4560    0.1560   22.8130 N   0  0  0  0  0  0  0  0  0  0  0  0
    6.9144   -5.9322   28.0008 N   0  3  0  0  0  0  0  0  0  0  0  0
    9.2690    1.4140   20.9380 O   0  0  0  0  0  0  0  0  0  0  0  0
   13.7858    1.0465   22.5423 O   0  0  0  0  0  0  0  0  0  0  0  0
    3.0136    2.6524   19.3909 H   0  0  0  0  0  0  0  0  0  0  0  0
    3.6477    2.0141   21.6817 H   0  0  0  0  0  0  0  0  0  0  0  0
    9.4887   -4.3665   23.4202 H   0  0  0  0  0  0  0  0  0  0  0  0
    7.5234   -1.9313   26.3808 H   0  0  0  0  0  0  0  0  0  0  0  0
    4.4041    1.9739   17.4524 H   0  0  0  0  0  0  0  0  0  0  0  0
    5.7107    0.6909   22.1141 H   0  0  0  0  0  0  0  0  0  0  0  0
   10.0725   -2.3435   22.1416 H   0  0  0  0  0  0  0  0  0  0  0  0
    8.1035    0.0934   25.1023 H   0  0  0  0  0  0  0  0  0  0  0  0
    8.4540   -3.6649   27.7433 H   0  0  0  0  0  0  0  0  0  0  0  0
    9.8562   -4.4820   27.0695 H   0  0  0  0  0  0  0  0  0  0  0  0
    6.1511   -4.8062   24.8744 H   0  0  0  0  0  0  0  0  0  0  0  0
    6.1200   -3.8691   26.3607 H   0  0  0  0  0  0  0  0  0  0  0  0
   12.3662    2.5349   24.4977 H   0  0  0  0  0  0  0  0  0  0  0  0
   11.9189    3.6854   23.2238 H   0  0  0  0  0  0  0  0  0  0  0  0
    8.7844   -6.7115   27.4522 H   0  0  0  0  0  0  0  0  0  0  0  0
    8.7641   -5.7661   28.9672 H   0  0  0  0  0  0  0  0  0  0  0  0
    5.1773   -6.0804   26.8419 H   0  0  0  0  0  0  0  0  0  0  0  0
    6.6109   -6.9020   26.1642 H   0  0  0  0  0  0  0  0  0  0  0  0
   13.7559    2.9708   21.8264 H   0  0  0  0  0  0  0  0  0  0  0  0
   14.4875    2.7853   23.4359 H   0  0  0  0  0  0  0  0  0  0  0  0
   12.5265   -0.1122   23.6770 H   0  0  0  0  0  0  0  0  0  0  0  0
   12.3011   -0.2619   21.9204 H   0  0  0  0  0  0  0  0  0  0  0  0
    8.5328   -5.3903   25.1889 H   0  0  0  0  0  0  0  0  0  0  0  0
   11.2393    1.8759   21.7441 H   0  0  0  0  0  0  0  0  0  0  0  0
    8.8326   -1.4554   20.3912 H   0  0  0  0  0  0  0  0  0  0  0  0
    7.5604   -1.1971   21.6201 H   0  0  0  0  0  0  0  0  0  0  0  0
   10.4621    0.9116   24.5273 H   0  0  0  0  0  0  0  0  0  0  0  0
    9.5791    2.1424   23.5620 H   0  0  0  0  0  0  0  0  0  0  0  0
    6.6723   -6.7783   28.5347 H   0  0  0  0  0  0  0  0  0  0  0  0
    6.5266   -5.1447   28.5390 H   0  0  0  0  0  0  0  0  0  0  0  0
  1  2  1  0  0  0  0
  1  5  2  0  0  0  0
  2  6  2  0  0  0  0
  3  7  2  0  0  0  0
  3  9  1  0  0  0  0
  4  8  1  0  0  0  0
  4  9  2  0  0  0  0
  5 10  1  0  0  0  0
  6 11  1  0  0  0  0
  7 12  1  0  0  0  0
  8 12  2  0  0  0  0
  9 21  1  0  0  0  0
 10 11  2  0  0  0  0
 10 25  1  0  0  0  0
 11 27  1  0  0  0  0
 12 28  1  0  0  0  0
 13 23  1  0  0  0  0
 13 28  1  0  0  0  0
 13 30  2  0  0  0  0
 14 17  1  0  0  0  0
 14 21  1  0  0  0  0
 15 18  1  0  0  0  0
 15 21  1  0  0  0  0
 16 19  1  0  0  0  0
 16 22  1  0  0  0  0
 17 29  1  0  0  0  0
 18 29  1  0  0  0  0
 19 31  1  0  0  0  0
 20 22  1  0  0  0  0
 20 31  1  0  0  0  0
 22 24  1  6  0  0  0
 23 27  1  0  0  0  0
 24 28  1  0  0  0  0
 25 26  2  0  0  0  0
 26 27  1  0  0  0  0
  1 32  1  0  0  0  0
  2 33  1  0  0  0  0
  3 34  1  0  0  0  0
  4 35  1  0  0  0  0
  5 36  1  0  0  0  0
  6 37  1  0  0  0  0
  7 38  1  0  0  0  0
  8 39  1  0  0  0  0
 14 40  1  0  0  0  0
 14 41  1  0  0  0  0
 15 42  1  0  0  0  0
 15 43  1  0  0  0  0
 16 44  1  0  0  0  0
 16 45  1  0  0  0  0
 17 46  1  0  0  0  0
 17 47  1  0  0  0  0
 18 48  1  0  0  0  0
 18 49  1  0  0  0  0
 19 50  1  0  0  0  0
 19 51  1  0  0  0  0
 20 52  1  0  0  0  0
 20 53  1  0  0  0  0
 21 54  1  0  0  0  0
 22 55  1  0  0  0  0
 23 56  1  0  0  0  0
 23 57  1  0  0  0  0
 24 58  1  0  0  0  0
 24 59  1  0  0  0  0
 29 60  1  0  0  0  0
 29 61  1  0  0  0  0
M  CHG  1  29   1
M  END
> <Protease Assay (Fluorescence) Dose-Response: IC50 (µM)>
> 99.5

> <clash_score>
0

> <docking_score>
-10.630887985229492

> <overlap_score>
0.9272714853286743

$$$$
RUT-UNI-630c5802-20_1
  -OEChem-09012022313D

 52 54  0     0  0  0  0  0  0999 V2000
    3.9160    2.0630   19.5520 C   0  0  0  0  0  0  0  0  0  0  0  0
    4.2750    1.7050   20.8490 C   0  0  0  0  0  0  0  0  0  0  0  0
    4.6890    1.6810   18.4640 C   0  0  0  0  0  0  0  0  0  0  0  0
    5.4210    0.9600   21.0930 C   0  0  0  0  0  0  0  0  0  0  0  0
   12.1193    1.2650   23.3094 C   0  0  0  0  0  0  0  0  0  0  0  0
   13.2152    2.0994   23.2885 C   0  0  0  0  0  0  0  0  0  0  0  0
   11.1403    3.3126   23.8108 C   0  0  0  0  0  0  0  0  0  0  0  0
   10.9173    1.9677   23.6119 C   0  0  0  0  0  0  0  0  0  0  0  0
    5.8300    0.9190   18.6970 C   0  0  0  0  0  0  0  0  0  0  0  0
    6.1790    0.5730   19.9990 C   0  0  0  0  0  0  0  0  0  0  0  0
    9.0420    0.3700   21.5280 C   0  0  0  0  0  0  0  0  0  0  0  0
    8.4006   -4.5920   22.5635 C   0  0  0  0  0  0  0  0  0  0  0  0
    7.5216   -3.6793   25.3316 C   0  0  0  0  0  0  0  0  0  0  0  0
    9.8481   -2.9446   25.8314 C   0  0  0  0  0  0  0  0  0  0  0  0
    9.5674    1.3168   23.7035 C   0  0  0  0  0  0  0  0  0  0  0  0
    8.1890   -0.7180   20.8700 C   0  0  0  0  0  0  0  0  0  0  0  0
    9.3444   -4.2327   23.7048 C   0  0  0  0  0  0  0  0  0  0  0  0
    8.5716   -1.7794   24.0176 C   0  0  0  0  0  0  0  0  0  0  0  0
    9.7969   -1.1167   23.3908 C   0  0  0  0  0  0  0  0  0  0  0  0
    8.8256   -3.1543   24.6942 C   0  0  0  0  0  0  0  0  0  0  0  0
    6.7580    0.3810   17.8350 N   0  0  0  0  0  0  0  0  0  0  0  0
    7.6390   -0.2680   18.5410 N   0  0  0  0  0  0  0  0  0  0  0  0
    7.3170   -0.1610   19.8550 N   0  0  0  0  0  0  0  0  0  0  0  0
    9.4560    0.1560   22.8130 N   0  0  0  0  0  0  0  0  0  0  0  0
    9.2690    1.4140   20.9380 O   0  0  0  0  0  0  0  0  0  0  0  0
   12.7932    3.7230   23.6326 S   0  0  0  0  0  0  0  0  0  0  0  0
    3.0136    2.6524   19.3909 H   0  0  0  0  0  0  0  0  0  0  0  0
    3.6477    2.0141   21.6817 H   0  0  0  0  0  0  0  0  0  0  0  0
    4.4041    1.9739   17.4524 H   0  0  0  0  0  0  0  0  0  0  0  0
    5.7107    0.6909   22.1141 H   0  0  0  0  0  0  0  0  0  0  0  0
   12.1816    0.2014   23.1167 H   0  0  0  0  0  0  0  0  0  0  0  0
   14.2434    1.8333   23.0883 H   0  0  0  0  0  0  0  0  0  0  0  0
   10.4149    4.0767   24.0536 H   0  0  0  0  0  0  0  0  0  0  0  0
    8.1200   -3.7123   21.9781 H   0  0  0  0  0  0  0  0  0  0  0  0
    8.8943   -5.2946   21.8834 H   0  0  0  0  0  0  0  0  0  0  0  0
    7.4895   -5.0747   22.9276 H   0  0  0  0  0  0  0  0  0  0  0  0
    6.7517   -3.8488   24.5697 H   0  0  0  0  0  0  0  0  0  0  0  0
    7.6884   -4.6300   25.8506 H   0  0  0  0  0  0  0  0  0  0  0  0
    7.1092   -2.9693   26.0561 H   0  0  0  0  0  0  0  0  0  0  0  0
   10.8049   -2.5705   25.4529 H   0  0  0  0  0  0  0  0  0  0  0  0
   10.0420   -3.8798   26.3684 H   0  0  0  0  0  0  0  0  0  0  0  0
    9.4805   -2.2141   26.5613 H   0  0  0  0  0  0  0  0  0  0  0  0
    9.3711    0.9773   24.7264 H   0  0  0  0  0  0  0  0  0  0  0  0
    8.7726    2.0212   23.4364 H   0  0  0  0  0  0  0  0  0  0  0  0
    8.8361   -1.4528   20.3928 H   0  0  0  0  0  0  0  0  0  0  0  0
    7.5658   -1.2009   21.6215 H   0  0  0  0  0  0  0  0  0  0  0  0
    9.5876   -5.1522   24.2513 H   0  0  0  0  0  0  0  0  0  0  0  0
   10.2909   -3.8909   23.2652 H   0  0  0  0  0  0  0  0  0  0  0  0
    7.8063   -1.9009   23.2378 H   0  0  0  0  0  0  0  0  0  0  0  0
    8.1289   -1.0860   24.7452 H   0  0  0  0  0  0  0  0  0  0  0  0
   10.5781   -0.9280   24.1317 H   0  0  0  0  0  0  0  0  0  0  0  0
   10.2177   -1.7265   22.5870 H   0  0  0  0  0  0  0  0  0  0  0  0
  1  2  1  0  0  0  0
  1  3  2  0  0  0  0
  2  4  2  0  0  0  0
  3  9  1  0  0  0  0
  4 10  1  0  0  0  0
  5  6  2  0  0  0  0
  5  8  1  0  0  0  0
  6 26  1  0  0  0  0
  7  8  2  0  0  0  0
  7 26  1  0  0  0  0
  8 15  1  0  0  0  0
  9 10  2  0  0  0  0
  9 21  1  0  0  0  0
 10 23  1  0  0  0  0
 11 16  1  0  0  0  0
 11 24  1  0  0  0  0
 11 25  2  0  0  0  0
 12 17  1  0  0  0  0
 13 20  1  0  0  0  0
 14 20  1  0  0  0  0
 15 24  1  0  0  0  0
 16 23  1  0  0  0  0
 17 20  1  0  0  0  0
 18 19  1  0  0  0  0
 18 20  1  0  0  0  0
 19 24  1  0  0  0  0
 21 22  2  0  0  0  0
 22 23  1  0  0  0  0
  1 27  1  0  0  0  0
  2 28  1  0  0  0  0
  3 29  1  0  0  0  0
  4 30  1  0  0  0  0
  5 31  1  0  0  0  0
  6 32  1  0  0  0  0
  7 33  1  0  0  0  0
 12 34  1  0  0  0  0
 12 35  1  0  0  0  0
 12 36  1  0  0  0  0
 13 37  1  0  0  0  0
 13 38  1  0  0  0  0
 13 39  1  0  0  0  0
 14 40  1  0  0  0  0
 14 41  1  0  0  0  0
 14 42  1  0  0  0  0
 15 43  1  0  0  0  0
 15 44  1  0  0  0  0
 16 45  1  0  0  0  0
 16 46  1  0  0  0  0
 17 47  1  0  0  0  0
 17 48  1  0  0  0  0
 18 49  1  0  0  0  0
 18 50  1  0  0  0  0
 19 51  1  0  0  0  0
 19 52  1  0  0  0  0
M  END
> <Protease Assay (Fluorescence) Dose-Response: IC50 (µM)>
78.5

> <clash_score>
0

> <docking_score>
-8.400633811950684

> <overlap_score>
0.8553160429000854

$$$$
ALP-POS-c0c213c9-3_1
  -OEChem-09012022313D

 61 65  0     0  0  0  0  0  0999 V2000
    7.1016   -7.0321   26.6765 C   0  0  0  0  0  0  0  0  0  0  0  0
    7.3156   -5.8754   27.4261 C   0  0  0  0  0  0  0  0  0  0  0  0
    7.2749   -7.0084   25.2926 C   0  0  0  0  0  0  0  0  0  0  0  0
    3.9160    2.0630   19.5520 C   0  0  0  0  0  0  0  0  0  0  0  0
    4.2750    1.7050   20.8490 C   0  0  0  0  0  0  0  0  0  0  0  0
    7.7028   -4.6950   26.7918 C   0  0  0  0  0  0  0  0  0  0  0  0
    7.6621   -5.8280   24.6583 C   0  0  0  0  0  0  0  0  0  0  0  0
    9.0343   -3.4993   23.5795 C   0  0  0  0  0  0  0  0  0  0  0  0
    7.9075   -2.2134   25.2866 C   0  0  0  0  0  0  0  0  0  0  0  0
    4.6890    1.6810   18.4640 C   0  0  0  0  0  0  0  0  0  0  0  0
    5.4210    0.9600   21.0930 C   0  0  0  0  0  0  0  0  0  0  0  0
    9.4202   -2.3186   22.9449 C   0  0  0  0  0  0  0  0  0  0  0  0
    8.2935   -1.0328   24.6520 C   0  0  0  0  0  0  0  0  0  0  0  0
    7.8760   -4.6713   25.4079 C   0  0  0  0  0  0  0  0  0  0  0  0
    8.2779   -3.4467   24.7503 C   0  0  0  0  0  0  0  0  0  0  0  0
    5.8300    0.9190   18.6970 C   0  0  0  0  0  0  0  0  0  0  0  0
    6.1790    0.5730   19.9990 C   0  0  0  0  0  0  0  0  0  0  0  0
    9.0499   -1.0854   23.4812 C   0  0  0  0  0  0  0  0  0  0  0  0
   11.6499    0.8727   23.3245 C   0  0  0  0  0  0  0  0  0  0  0  0
    9.0420    0.3700   21.5280 C   0  0  0  0  0  0  0  0  0  0  0  0
   12.1591    3.0947   24.2885 C   0  0  0  0  0  0  0  0  0  0  0  0
   13.7735    2.1228   22.6909 C   0  0  0  0  0  0  0  0  0  0  0  0
   12.1993    4.4206   23.5454 C   0  0  0  0  0  0  0  0  0  0  0  0
   13.8331    3.4409   21.9327 C   0  0  0  0  0  0  0  0  0  0  0  0
   10.1846    1.1214   23.5786 C   0  0  0  0  0  0  0  0  0  0  0  0
    8.1890   -0.7180   20.8700 C   0  0  0  0  0  0  0  0  0  0  0  0
    6.7580    0.3810   17.8350 N   0  0  0  0  0  0  0  0  0  0  0  0
    7.6390   -0.2680   18.5410 N   0  0  0  0  0  0  0  0  0  0  0  0
    7.3170   -0.1610   19.8550 N   0  0  0  0  0  0  0  0  0  0  0  0
   12.4931    1.9808   23.3972 N   0  0  0  0  0  0  0  0  0  0  0  0
    9.4560    0.1560   22.8130 N   0  0  0  0  0  0  0  0  0  0  0  0
   13.5300    4.5604   22.8771 N   0  3  0  0  0  0  0  0  0  0  0  0
   12.0321   -0.2728   23.0719 O   0  0  0  0  0  0  0  0  0  0  0  0
    9.2690    1.4140   20.9380 O   0  0  0  0  0  0  0  0  0  0  0  0
    6.8018   -7.9515   27.1708 H   0  0  0  0  0  0  0  0  0  0  0  0
    7.1824   -5.8941   28.5038 H   0  0  0  0  0  0  0  0  0  0  0  0
    7.1098   -7.9091   24.7085 H   0  0  0  0  0  0  0  0  0  0  0  0
    3.0136    2.6524   19.3909 H   0  0  0  0  0  0  0  0  0  0  0  0
    3.6477    2.0141   21.6817 H   0  0  0  0  0  0  0  0  0  0  0  0
    7.8660   -3.8017   27.3901 H   0  0  0  0  0  0  0  0  0  0  0  0
    7.7938   -5.8249   23.5789 H   0  0  0  0  0  0  0  0  0  0  0  0
    9.3299   -4.4533   23.1491 H   0  0  0  0  0  0  0  0  0  0  0  0
    7.3172   -2.1556   26.1979 H   0  0  0  0  0  0  0  0  0  0  0  0
    4.4041    1.9739   17.4524 H   0  0  0  0  0  0  0  0  0  0  0  0
    5.7107    0.6909   22.1141 H   0  0  0  0  0  0  0  0  0  0  0  0
   10.0076   -2.3717   22.0317 H   0  0  0  0  0  0  0  0  0  0  0  0
    7.9979   -0.0770   25.0775 H   0  0  0  0  0  0  0  0  0  0  0  0
   12.8872    3.0870   25.1086 H   0  0  0  0  0  0  0  0  0  0  0  0
   11.1693    2.9516   24.7331 H   0  0  0  0  0  0  0  0  0  0  0  0
   13.9478    1.3010   21.9943 H   0  0  0  0  0  0  0  0  0  0  0  0
   14.5666    2.0775   23.4471 H   0  0  0  0  0  0  0  0  0  0  0  0
   11.4311    4.4850   22.7676 H   0  0  0  0  0  0  0  0  0  0  0  0
   12.0962    5.2682   24.2290 H   0  0  0  0  0  0  0  0  0  0  0  0
   14.8330    3.6275   21.5303 H   0  0  0  0  0  0  0  0  0  0  0  0
   13.0995    3.4864   21.1211 H   0  0  0  0  0  0  0  0  0  0  0  0
    9.9523    2.1333   23.2601 H   0  0  0  0  0  0  0  0  0  0  0  0
    9.9998    1.0017   24.6421 H   0  0  0  0  0  0  0  0  0  0  0  0
    8.8326   -1.4554   20.3912 H   0  0  0  0  0  0  0  0  0  0  0  0
    7.5604   -1.1971   21.6201 H   0  0  0  0  0  0  0  0  0  0  0  0
   13.5628    5.4540   22.3676 H   0  0  0  0  0  0  0  0  0  0  0  0
   14.2697    4.6185   23.5911 H   0  0  0  0  0  0  0  0  0  0  0  0
  1  2  1  0  0  0  0
  1  3  2  0  0  0  0
  2  6  2  0  0  0  0
  3  7  1  0  0  0  0
  4  5  1  0  0  0  0
  4 10  2  0  0  0  0
  5 11  2  0  0  0  0
  6 14  1  0  0  0  0
  7 14  2  0  0  0  0
  8 12  2  0  0  0  0
  8 15  1  0  0  0  0
  9 13  1  0  0  0  0
  9 15  2  0  0  0  0
 10 16  1  0  0  0  0
 11 17  1  0  0  0  0
 12 18  1  0  0  0  0
 13 18  2  0  0  0  0
 14 15  1  0  0  0  0
 16 17  2  0  0  0  0
 16 27  1  0  0  0  0
 17 29  1  0  0  0  0
 18 31  1  0  0  0  0
 19 25  1  0  0  0  0
 19 30  1  0  0  0  0
 19 33  2  0  0  0  0
 20 26  1  0  0  0  0
 20 31  1  0  0  0  0
 20 34  2  0  0  0  0
 21 23  1  0  0  0  0
 21 30  1  0  0  0  0
 22 24  1  0  0  0  0
 22 30  1  0  0  0  0
 23 32  1  0  0  0  0
 24 32  1  0  0  0  0
 25 31  1  0  0  0  0
 26 29  1  0  0  0  0
 27 28  2  0  0  0  0
 28 29  1  0  0  0  0
  1 35  1  0  0  0  0
  2 36  1  0  0  0  0
  3 37  1  0  0  0  0
  4 38  1  0  0  0  0
  5 39  1  0  0  0  0
  6 40  1  0  0  0  0
  7 41  1  0  0  0  0
  8 42  1  0  0  0  0
  9 43  1  0  0  0  0
 10 44  1  0  0  0  0
 11 45  1  0  0  0  0
 12 46  1  0  0  0  0
 13 47  1  0  0  0  0
 21 48  1  0  0  0  0
 21 49  1  0  0  0  0
 22 50  1  0  0  0  0
 22 51  1  0  0  0  0
 23 52  1  0  0  0  0
 23 53  1  0  0  0  0
 24 54  1  0  0  0  0
 24 55  1  0  0  0  0
 25 56  1  0  0  0  0
 25 57  1  0  0  0  0
 26 58  1  0  0  0  0
 26 59  1  0  0  0  0
 32 60  1  0  0  0  0
 32 61  1  0  0  0  0
M  CHG  1  32   1
M  END
> <Protease Assay (Fluorescence) Dose-Response: IC50 (µM)>
> 99.5

> <clash_score>
0

> <docking_score>
-7.238603591918945

> <overlap_score>
0.9187352061271667

$$$$
