ALP-POS-c59291d4-2
  -OEChem-08232013513D

 51 54  0     0  0  0  0  0  0999 V2000
    8.0200   -4.4440   25.9270 N   0  0  0  0  0  0  0  0  0  0  0  0
    6.7870   -5.8860   28.7460 C   0  0  0  0  0  0  0  0  0  0  0  0
    8.9790   -3.8150   27.8980 O   0  0  0  0  0  0  0  0  0  0  0  0
    7.9350   -5.9760   27.7610 C   0  0  0  0  0  0  0  0  0  0  0  0
    9.5820   -0.1080   22.7000 N   0  0  0  0  0  0  0  0  0  0  0  0
    9.2950    1.3000   20.9480 O   0  0  0  0  0  0  0  0  0  0  0  0
    8.3630   -4.6360   27.2220 C   0  0  0  0  0  0  0  0  0  0  0  0
    7.2710   -0.1460   19.8310 N   0  0  0  0  0  0  0  0  0  0  0  0
    8.3450   -3.3440   25.0980 C   0  0  0  0  0  0  0  0  0  0  0  0
    7.5840   -0.2700   18.5160 N   0  0  0  0  0  0  0  0  0  0  0  0
    9.1890   -3.5540   24.0140 C   0  0  0  0  0  0  0  0  0  0  0  0
    6.7100    0.3850   17.8100 N   0  0  0  0  0  0  0  0  0  0  0  0
    9.5890   -2.4950   23.2210 C   0  0  0  0  0  0  0  0  0  0  0  0
    9.1280   -1.2090   23.4870 C   0  0  0  0  0  0  0  0  0  0  0  0
    8.2550   -1.0010   24.5520 C   0  0  0  0  0  0  0  0  0  0  0  0
    7.8700   -2.0610   25.3550 C   0  0  0  0  0  0  0  0  0  0  0  0
   10.7220    0.6590   23.1850 C   0  0  0  0  0  0  0  0  0  0  0  0
   12.0010   -0.1370   23.1560 C   0  0  0  0  0  0  0  0  0  0  0  0
   12.4650   -0.9240   22.0610 C   0  0  0  0  0  0  0  0  0  0  0  0
   13.5940   -1.6420   22.3430 C   0  0  0  0  0  0  0  0  0  0  0  0
   12.8090   -0.2700   24.2450 C   0  0  0  0  0  0  0  0  0  0  0  0
    9.0430    0.2380   21.4940 C   0  0  0  0  0  0  0  0  0  0  0  0
    8.0950   -0.7700   20.8440 C   0  0  0  0  0  0  0  0  0  0  0  0
    5.7970    0.9500   18.6730 C   0  0  0  0  0  0  0  0  0  0  0  0
    4.6610    1.7170   18.4380 C   0  0  0  0  0  0  0  0  0  0  0  0
    3.8860    2.1050   19.5250 C   0  0  0  0  0  0  0  0  0  0  0  0
    4.2460    1.7520   20.8250 C   0  0  0  0  0  0  0  0  0  0  0  0
    5.3890    1.0010   21.0690 C   0  0  0  0  0  0  0  0  0  0  0  0
    6.1460    0.6070   19.9750 C   0  0  0  0  0  0  0  0  0  0  0  0
   14.0980   -1.3460   23.9570 S   0  0  0  0  0  0  0  0  0  0  0  0
    7.4712   -5.1658   25.5054 H   0  0  0  0  0  0  0  0  0  0  0  0
    6.5259   -6.8947   29.0987 H   0  0  0  0  0  0  0  0  0  0  0  0
    7.0868   -5.2644   29.6025 H   0  0  0  0  0  0  0  0  0  0  0  0
    5.9147   -5.4333   28.2519 H   0  0  0  0  0  0  0  0  0  0  0  0
    8.7944   -6.4394   28.2676 H   0  0  0  0  0  0  0  0  0  0  0  0
    7.6223   -6.6083   26.9170 H   0  0  0  0  0  0  0  0  0  0  0  0
    9.5349   -4.5522   23.7896 H   0  0  0  0  0  0  0  0  0  0  0  0
   10.2609   -2.6658   22.3929 H   0  0  0  0  0  0  0  0  0  0  0  0
    7.8770   -0.0093   24.7522 H   0  0  0  0  0  0  0  0  0  0  0  0
    7.1986   -1.8919   26.1839 H   0  0  0  0  0  0  0  0  0  0  0  0
   10.8450    1.5492   22.5507 H   0  0  0  0  0  0  0  0  0  0  0  0
   10.5232    0.9714   24.2208 H   0  0  0  0  0  0  0  0  0  0  0  0
   11.9717   -0.9504   21.1006 H   0  0  0  0  0  0  0  0  0  0  0  0
   14.0964   -2.3006   21.6500 H   0  0  0  0  0  0  0  0  0  0  0  0
   12.6509    0.2459   25.1805 H   0  0  0  0  0  0  0  0  0  0  0  0
    7.4440   -1.1999   21.6194 H   0  0  0  0  0  0  0  0  0  0  0  0
    8.6888   -1.5705   20.3786 H   0  0  0  0  0  0  0  0  0  0  0  0
    4.3870    2.0047   17.4337 H   0  0  0  0  0  0  0  0  0  0  0  0
    2.9921    2.6883   19.3601 H   0  0  0  0  0  0  0  0  0  0  0  0
    3.6282    2.0665   21.6531 H   0  0  0  0  0  0  0  0  0  0  0  0
    5.6781    0.7333   22.0746 H   0  0  0  0  0  0  0  0  0  0  0  0
  1  7  1  0  0  0  0
  1  9  1  0  0  0  0
  2  4  1  0  0  0  0
  3  7  2  0  0  0  0
  4  7  1  0  0  0  0
  5 14  1  0  0  0  0
  5 17  1  0  0  0  0
  5 22  1  0  0  0  0
  6 22  2  0  0  0  0
  8 10  1  0  0  0  0
  8 23  1  0  0  0  0
  8 29  1  0  0  0  0
  9 11  2  0  0  0  0
  9 16  1  0  0  0  0
 10 12  2  0  0  0  0
 11 13  1  0  0  0  0
 12 24  1  0  0  0  0
 13 14  2  0  0  0  0
 14 15  1  0  0  0  0
 15 16  2  0  0  0  0
 17 18  1  0  0  0  0
 18 19  1  0  0  0  0
 18 21  2  0  0  0  0
 19 20  2  0  0  0  0
 20 30  1  0  0  0  0
 21 30  1  0  0  0  0
 22 23  1  0  0  0  0
 24 25  2  0  0  0  0
 24 29  1  0  0  0  0
 25 26  1  0  0  0  0
 26 27  2  0  0  0  0
 27 28  1  0  0  0  0
 28 29  2  0  0  0  0
  1 31  1  0  0  0  0
  2 32  1  0  0  0  0
  2 33  1  0  0  0  0
  2 34  1  0  0  0  0
  4 35  1  0  0  0  0
  4 36  1  0  0  0  0
 11 37  1  0  0  0  0
 13 38  1  0  0  0  0
 15 39  1  0  0  0  0
 16 40  1  0  0  0  0
 17 41  1  0  0  0  0
 17 42  1  0  0  0  0
 19 43  1  0  0  0  0
 20 44  1  0  0  0  0
 21 45  1  0  0  0  0
 23 46  1  0  0  0  0
 23 47  1  0  0  0  0
 25 48  1  0  0  0  0
 26 49  1  0  0  0  0
 27 50  1  0  0  0  0
 28 51  1  0  0  0  0
M  END
> <canonical_CID>
ALP-POS-c59291d4-2

> <r_inhibition_at_20_uM>

> <r_inhibition_at_50_uM>
78.12914402174

> <r_avg_IC50>
12.5622562146219

> <f_inhibition_at_20_uM>
79.65146

> <f_inhibition_at_50_uM>
89.29024

> <f_avg_IC50>
1.62763709078255

> <f_avg_pIC50>
5.78844242195303

> <relative_solubility_at_20_uM>
0.95

> <relative_solubility_at_100_uM>
0.9

> <trypsin_IC50>
99.0

> <NMR_std_ratio>

> <acrylamide>
False

> <chloroacetamide>
False

> <series>
3-aminopyridine-like

> <clash_score>
0.0

$$$$
BENZO_1_1
  -OEChem-08232013513D

 51 54  0     0  0  0  0  0  0999 V2000
   14.2863   -1.6540   23.7128 C   0  0  0  0  0  0  0  0  0  0  0  0
   14.0462   -0.5833   24.5740 C   0  0  0  0  0  0  0  0  0  0  0  0
   13.3708   -1.9574   22.7051 C   0  0  0  0  0  0  0  0  0  0  0  0
    3.8860    2.1050   19.5250 C   0  0  0  0  0  0  0  0  0  0  0  0
    4.2460    1.7520   20.8250 C   0  0  0  0  0  0  0  0  0  0  0  0
   12.8905    0.1838   24.4276 C   0  0  0  0  0  0  0  0  0  0  0  0
   12.2151   -1.1902   22.5587 C   0  0  0  0  0  0  0  0  0  0  0  0
    4.6610    1.7170   18.4380 C   0  0  0  0  0  0  0  0  0  0  0  0
    5.3890    1.0010   21.0690 C   0  0  0  0  0  0  0  0  0  0  0  0
    9.5890   -2.4950   23.2210 C   0  0  0  0  0  0  0  0  0  0  0  0
    8.2550   -1.0010   24.5520 C   0  0  0  0  0  0  0  0  0  0  0  0
    9.1890   -3.5540   24.0140 C   0  0  0  0  0  0  0  0  0  0  0  0
    7.8700   -2.0610   25.3550 C   0  0  0  0  0  0  0  0  0  0  0  0
   11.9749   -0.1196   23.4200 C   0  0  0  0  0  0  0  0  0  0  0  0
    5.7970    0.9500   18.6730 C   0  0  0  0  0  0  0  0  0  0  0  0
    6.1460    0.6070   19.9750 C   0  0  0  0  0  0  0  0  0  0  0  0
    9.1280   -1.2090   23.4870 C   0  0  0  0  0  0  0  0  0  0  0  0
    8.3450   -3.3440   25.0980 C   0  0  0  0  0  0  0  0  0  0  0  0
    9.0430    0.2380   21.4940 C   0  0  0  0  0  0  0  0  0  0  0  0
    7.2639   -5.5576   25.3810 C   0  0  0  0  0  0  0  0  0  0  0  0
    8.3072   -4.4047   27.3383 C   0  0  0  0  0  0  0  0  0  0  0  0
   10.7306    0.7056   23.2620 C   0  0  0  0  0  0  0  0  0  0  0  0
    6.7100    0.3850   17.8100 N   0  0  0  0  0  0  0  0  0  0  0  0
    7.5840   -0.2700   18.5160 N   0  0  0  0  0  0  0  0  0  0  0  0
    7.2710   -0.1460   19.8310 N   0  0  0  0  0  0  0  0  0  0  0  0
    8.0950   -0.7700   20.8440 N   0  0  0  0  0  0  0  0  0  0  0  0
    9.5820   -0.1080   22.7000 N   0  0  0  0  0  0  0  0  0  0  0  0
    7.9731   -4.4180   25.9279 N   0  0  0  0  0  0  0  0  0  0  0  0
    9.2950    1.3000   20.9480 O   0  0  0  0  0  0  0  0  0  0  0  0
   15.1869   -2.2504   23.8261 H   0  0  0  0  0  0  0  0  0  0  0  0
   14.7595   -0.3463   25.3580 H   0  0  0  0  0  0  0  0  0  0  0  0
   13.5579   -2.7902   22.0338 H   0  0  0  0  0  0  0  0  0  0  0  0
    2.9846    2.6932   19.3610 H   0  0  0  0  0  0  0  0  0  0  0  0
    3.6235    2.0692   21.6570 H   0  0  0  0  0  0  0  0  0  0  0  0
   12.7116    1.0161   25.1034 H   0  0  0  0  0  0  0  0  0  0  0  0
   11.5073   -1.4341   21.7709 H   0  0  0  0  0  0  0  0  0  0  0  0
    4.3785    2.0113   17.4257 H   0  0  0  0  0  0  0  0  0  0  0  0
    5.6763    0.7332   22.0915 H   0  0  0  0  0  0  0  0  0  0  0  0
   10.2682   -2.6746   22.3864 H   0  0  0  0  0  0  0  0  0  0  0  0
    7.8692   -0.0022   24.7600 H   0  0  0  0  0  0  0  0  0  0  0  0
    9.5433   -4.5619   23.7809 H   0  0  0  0  0  0  0  0  0  0  0  0
    7.1923   -1.8829   26.1908 H   0  0  0  0  0  0  0  0  0  0  0  0
    7.0648   -6.2850   26.1817 H   0  0  0  0  0  0  0  0  0  0  0  0
    6.3111   -5.2219   24.9456 H   0  0  0  0  0  0  0  0  0  0  0  0
    7.8773   -6.0308   24.6001 H   0  0  0  0  0  0  0  0  0  0  0  0
    7.9341   -5.3244   27.8127 H   0  0  0  0  0  0  0  0  0  0  0  0
    9.3994   -4.3488   27.4557 H   0  0  0  0  0  0  0  0  0  0  0  0
    7.8417   -3.5305   27.8170 H   0  0  0  0  0  0  0  0  0  0  0  0
   10.4193    1.1232   24.2257 H   0  0  0  0  0  0  0  0  0  0  0  0
   10.9010    1.5474   22.5826 H   0  0  0  0  0  0  0  0  0  0  0  0
    8.0593   -1.6239   21.0632 H   0  0  0  0  0  0  0  0  0  0  0  0
  1  2  1  0  0  0  0
  1  3  2  0  0  0  0
  2  6  2  0  0  0  0
  3  7  1  0  0  0  0
  4  5  1  0  0  0  0
  4  8  2  0  0  0  0
  5  9  2  0  0  0  0
  6 14  1  0  0  0  0
  7 14  2  0  0  0  0
  8 15  1  0  0  0  0
  9 16  1  0  0  0  0
 10 12  2  0  0  0  0
 10 17  1  0  0  0  0
 11 13  1  0  0  0  0
 11 17  2  0  0  0  0
 12 18  1  0  0  0  0
 13 18  2  0  0  0  0
 14 22  1  0  0  0  0
 15 16  2  0  0  0  0
 15 23  1  0  0  0  0
 16 25  1  0  0  0  0
 17 27  1  0  0  0  0
 18 28  1  0  0  0  0
 19 26  1  0  0  0  0
 19 27  1  0  0  0  0
 19 29  2  0  0  0  0
 20 28  1  0  0  0  0
 21 28  1  0  0  0  0
 22 27  1  0  0  0  0
 23 24  2  0  0  0  0
 24 25  1  0  0  0  0
 25 26  1  0  0  0  0
  1 30  1  0  0  0  0
  2 31  1  0  0  0  0
  3 32  1  0  0  0  0
  4 33  1  0  0  0  0
  5 34  1  0  0  0  0
  6 35  1  0  0  0  0
  7 36  1  0  0  0  0
  8 37  1  0  0  0  0
  9 38  1  0  0  0  0
 10 39  1  0  0  0  0
 11 40  1  0  0  0  0
 12 41  1  0  0  0  0
 13 42  1  0  0  0  0
 20 43  1  0  0  0  0
 20 44  1  0  0  0  0
 20 45  1  0  0  0  0
 21 46  1  0  0  0  0
 21 47  1  0  0  0  0
 21 48  1  0  0  0  0
 22 49  1  0  0  0  0
 22 50  1  0  0  0  0
 26 51  1  0  0  0  0
M  END
> <clash_score>
0

> <docking_score>
-9.157000541687012

> <overlap_score>
0.9434516429901123

$$$$
BENZO_3_1
  -OEChem-08232013513D

 51 54  0     0  0  0  0  0  0999 V2000
    3.8860    2.1050   19.5250 C   0  0  0  0  0  0  0  0  0  0  0  0
    4.2460    1.7520   20.8250 C   0  0  0  0  0  0  0  0  0  0  0  0
    4.6610    1.7170   18.4380 C   0  0  0  0  0  0  0  0  0  0  0  0
    5.3890    1.0010   21.0690 C   0  0  0  0  0  0  0  0  0  0  0  0
    9.5890   -2.4950   23.2210 C   0  0  0  0  0  0  0  0  0  0  0  0
    8.2550   -1.0010   24.5520 C   0  0  0  0  0  0  0  0  0  0  0  0
    9.1890   -3.5540   24.0140 C   0  0  0  0  0  0  0  0  0  0  0  0
    7.8700   -2.0610   25.3550 C   0  0  0  0  0  0  0  0  0  0  0  0
   13.3046    0.3678   23.5627 C   0  0  0  0  0  0  0  0  0  0  0  0
   12.3307   -0.9513   22.0975 C   0  0  0  0  0  0  0  0  0  0  0  0
   12.0591    0.0651   22.9806 C   0  0  0  0  0  0  0  0  0  0  0  0
    5.7970    0.9500   18.6730 C   0  0  0  0  0  0  0  0  0  0  0  0
    6.1460    0.6070   19.9750 C   0  0  0  0  0  0  0  0  0  0  0  0
    9.1280   -1.2090   23.4870 C   0  0  0  0  0  0  0  0  0  0  0  0
    8.3450   -3.3440   25.0980 C   0  0  0  0  0  0  0  0  0  0  0  0
    9.0430    0.2380   21.4940 C   0  0  0  0  0  0  0  0  0  0  0  0
   14.4256   -2.1713   21.4640 C   0  0  0  0  0  0  0  0  0  0  0  0
    7.2639   -5.5576   25.3810 C   0  0  0  0  0  0  0  0  0  0  0  0
    8.3072   -4.4047   27.3383 C   0  0  0  0  0  0  0  0  0  0  0  0
   10.7306    0.7056   23.2620 C   0  0  0  0  0  0  0  0  0  0  0  0
   14.2938   -0.3947   23.0894 N   0  0  0  0  0  0  0  0  0  0  0  0
    6.7100    0.3850   17.8100 N   0  0  0  0  0  0  0  0  0  0  0  0
    7.5840   -0.2700   18.5160 N   0  0  0  0  0  0  0  0  0  0  0  0
   13.6701   -1.1866   22.2007 N   0  0  0  0  0  0  0  0  0  0  0  0
    7.2710   -0.1460   19.8310 N   0  0  0  0  0  0  0  0  0  0  0  0
    8.0950   -0.7700   20.8440 N   0  0  0  0  0  0  0  0  0  0  0  0
    9.5820   -0.1080   22.7000 N   0  0  0  0  0  0  0  0  0  0  0  0
    7.9731   -4.4180   25.9279 N   0  0  0  0  0  0  0  0  0  0  0  0
    9.2950    1.3000   20.9480 O   0  0  0  0  0  0  0  0  0  0  0  0
    2.9846    2.6932   19.3610 H   0  0  0  0  0  0  0  0  0  0  0  0
    3.6235    2.0692   21.6570 H   0  0  0  0  0  0  0  0  0  0  0  0
    4.3785    2.0113   17.4257 H   0  0  0  0  0  0  0  0  0  0  0  0
    5.6763    0.7332   22.0915 H   0  0  0  0  0  0  0  0  0  0  0  0
   10.2682   -2.6746   22.3864 H   0  0  0  0  0  0  0  0  0  0  0  0
    7.8692   -0.0022   24.7600 H   0  0  0  0  0  0  0  0  0  0  0  0
    9.5433   -4.5619   23.7809 H   0  0  0  0  0  0  0  0  0  0  0  0
    7.1923   -1.8829   26.1908 H   0  0  0  0  0  0  0  0  0  0  0  0
   13.5349    1.1111   24.3128 H   0  0  0  0  0  0  0  0  0  0  0  0
   11.7003   -1.5140   21.4223 H   0  0  0  0  0  0  0  0  0  0  0  0
   14.7826   -1.7027   20.5431 H   0  0  0  0  0  0  0  0  0  0  0  0
   15.2688   -2.5123   22.0712 H   0  0  0  0  0  0  0  0  0  0  0  0
   13.7809   -3.0244   21.2351 H   0  0  0  0  0  0  0  0  0  0  0  0
    7.0648   -6.2850   26.1817 H   0  0  0  0  0  0  0  0  0  0  0  0
    6.3111   -5.2219   24.9456 H   0  0  0  0  0  0  0  0  0  0  0  0
    7.8773   -6.0308   24.6001 H   0  0  0  0  0  0  0  0  0  0  0  0
    7.9341   -5.3244   27.8127 H   0  0  0  0  0  0  0  0  0  0  0  0
    9.3994   -4.3488   27.4557 H   0  0  0  0  0  0  0  0  0  0  0  0
    7.8417   -3.5305   27.8170 H   0  0  0  0  0  0  0  0  0  0  0  0
   10.5779    0.8199   24.3407 H   0  0  0  0  0  0  0  0  0  0  0  0
   10.6743    1.7050   22.8178 H   0  0  0  0  0  0  0  0  0  0  0  0
    8.0593   -1.6239   21.0632 H   0  0  0  0  0  0  0  0  0  0  0  0
  1  2  1  0  0  0  0
  1  3  2  0  0  0  0
  2  4  2  0  0  0  0
  3 12  1  0  0  0  0
  4 13  1  0  0  0  0
  5  7  2  0  0  0  0
  5 14  1  0  0  0  0
  6  8  1  0  0  0  0
  6 14  2  0  0  0  0
  7 15  1  0  0  0  0
  8 15  2  0  0  0  0
  9 11  1  0  0  0  0
  9 21  2  0  0  0  0
 10 11  2  0  0  0  0
 10 24  1  0  0  0  0
 11 20  1  0  0  0  0
 12 13  2  0  0  0  0
 12 22  1  0  0  0  0
 13 25  1  0  0  0  0
 14 27  1  0  0  0  0
 15 28  1  0  0  0  0
 16 26  1  0  0  0  0
 16 27  1  0  0  0  0
 16 29  2  0  0  0  0
 17 24  1  0  0  0  0
 18 28  1  0  0  0  0
 19 28  1  0  0  0  0
 20 27  1  0  0  0  0
 21 24  1  0  0  0  0
 22 23  2  0  0  0  0
 23 25  1  0  0  0  0
 25 26  1  0  0  0  0
  1 30  1  0  0  0  0
  2 31  1  0  0  0  0
  3 32  1  0  0  0  0
  4 33  1  0  0  0  0
  5 34  1  0  0  0  0
  6 35  1  0  0  0  0
  7 36  1  0  0  0  0
  8 37  1  0  0  0  0
  9 38  1  0  0  0  0
 10 39  1  0  0  0  0
 17 40  1  0  0  0  0
 17 41  1  0  0  0  0
 17 42  1  0  0  0  0
 18 43  1  0  0  0  0
 18 44  1  0  0  0  0
 18 45  1  0  0  0  0
 19 46  1  0  0  0  0
 19 47  1  0  0  0  0
 19 48  1  0  0  0  0
 20 49  1  0  0  0  0
 20 50  1  0  0  0  0
 26 51  1  0  0  0  0
M  END
> <clash_score>
0

> <docking_score>
-8.971341133117676

> <overlap_score>
0.9281789660453796

$$$$
BENZO_5_1
  -OEChem-08232013513D

 53 56  0     0  0  0  0  0  0999 V2000
   14.2863   -1.6540   23.7128 C   0  0  0  0  0  0  0  0  0  0  0  0
   14.0462   -0.5833   24.5740 C   0  0  0  0  0  0  0  0  0  0  0  0
   13.3708   -1.9574   22.7051 C   0  0  0  0  0  0  0  0  0  0  0  0
    3.8860    2.1050   19.5250 C   0  0  0  0  0  0  0  0  0  0  0  0
    4.2460    1.7520   20.8250 C   0  0  0  0  0  0  0  0  0  0  0  0
   12.8905    0.1838   24.4276 C   0  0  0  0  0  0  0  0  0  0  0  0
   12.2151   -1.1902   22.5587 C   0  0  0  0  0  0  0  0  0  0  0  0
    4.6610    1.7170   18.4380 C   0  0  0  0  0  0  0  0  0  0  0  0
    5.3890    1.0010   21.0690 C   0  0  0  0  0  0  0  0  0  0  0  0
    9.1890   -3.5540   24.0140 C   0  0  0  0  0  0  0  0  0  0  0  0
    7.8700   -2.0610   25.3550 C   0  0  0  0  0  0  0  0  0  0  0  0
    9.5890   -2.4950   23.2210 C   0  0  0  0  0  0  0  0  0  0  0  0
    8.2550   -1.0010   24.5520 C   0  0  0  0  0  0  0  0  0  0  0  0
   11.9749   -0.1196   23.4200 C   0  0  0  0  0  0  0  0  0  0  0  0
    5.7970    0.9500   18.6730 C   0  0  0  0  0  0  0  0  0  0  0  0
    6.1460    0.6070   19.9750 C   0  0  0  0  0  0  0  0  0  0  0  0
    8.3450   -3.3440   25.0980 C   0  0  0  0  0  0  0  0  0  0  0  0
    9.1280   -1.2090   23.4870 C   0  0  0  0  0  0  0  0  0  0  0  0
    7.6597   -4.3771   27.2873 C   0  0  0  0  0  0  0  0  0  0  0  0
    9.0430    0.2380   21.4940 C   0  0  0  0  0  0  0  0  0  0  0  0
    8.4367   -6.7653   27.6013 C   0  0  0  0  0  0  0  0  0  0  0  0
   10.7306    0.7056   23.2620 C   0  0  0  0  0  0  0  0  0  0  0  0
    7.3108   -5.7664   27.8000 C   0  0  0  0  0  0  0  0  0  0  0  0
    6.7100    0.3850   17.8100 N   0  0  0  0  0  0  0  0  0  0  0  0
    7.5840   -0.2700   18.5160 N   0  0  0  0  0  0  0  0  0  0  0  0
    7.2710   -0.1460   19.8310 N   0  0  0  0  0  0  0  0  0  0  0  0
    7.9771   -4.4058   25.9196 N   0  0  0  0  0  0  0  0  0  0  0  0
    8.0950   -0.7700   20.8440 N   0  0  0  0  0  0  0  0  0  0  0  0
    9.5820   -0.1080   22.7000 N   0  0  0  0  0  0  0  0  0  0  0  0
    7.6489   -3.3922   28.0183 O   0  0  0  0  0  0  0  0  0  0  0  0
    9.2950    1.3000   20.9480 O   0  0  0  0  0  0  0  0  0  0  0  0
   15.1869   -2.2504   23.8261 H   0  0  0  0  0  0  0  0  0  0  0  0
   14.7595   -0.3463   25.3580 H   0  0  0  0  0  0  0  0  0  0  0  0
   13.5579   -2.7902   22.0338 H   0  0  0  0  0  0  0  0  0  0  0  0
    2.9846    2.6932   19.3610 H   0  0  0  0  0  0  0  0  0  0  0  0
    3.6235    2.0692   21.6570 H   0  0  0  0  0  0  0  0  0  0  0  0
   12.7116    1.0161   25.1034 H   0  0  0  0  0  0  0  0  0  0  0  0
   11.5073   -1.4341   21.7709 H   0  0  0  0  0  0  0  0  0  0  0  0
    4.3785    2.0113   17.4257 H   0  0  0  0  0  0  0  0  0  0  0  0
    5.6763    0.7332   22.0915 H   0  0  0  0  0  0  0  0  0  0  0  0
    9.5436   -4.5614   23.7799 H   0  0  0  0  0  0  0  0  0  0  0  0
    7.1918   -1.8823   26.1906 H   0  0  0  0  0  0  0  0  0  0  0  0
   10.2676   -2.6754   22.3861 H   0  0  0  0  0  0  0  0  0  0  0  0
    7.8686   -0.0026   24.7598 H   0  0  0  0  0  0  0  0  0  0  0  0
    8.6969   -6.8589   26.5418 H   0  0  0  0  0  0  0  0  0  0  0  0
    8.1397   -7.7523   27.9689 H   0  0  0  0  0  0  0  0  0  0  0  0
    9.3370   -6.4555   28.1420 H   0  0  0  0  0  0  0  0  0  0  0  0
   10.4193    1.1232   24.2257 H   0  0  0  0  0  0  0  0  0  0  0  0
   10.9010    1.5474   22.5826 H   0  0  0  0  0  0  0  0  0  0  0  0
    7.0715   -5.6930   28.8672 H   0  0  0  0  0  0  0  0  0  0  0  0
    6.4148   -6.1160   27.2743 H   0  0  0  0  0  0  0  0  0  0  0  0
    7.9297   -5.3297   25.4744 H   0  0  0  0  0  0  0  0  0  0  0  0
    8.0593   -1.6239   21.0632 H   0  0  0  0  0  0  0  0  0  0  0  0
  1  2  1  0  0  0  0
  1  3  2  0  0  0  0
  2  6  2  0  0  0  0
  3  7  1  0  0  0  0
  4  5  1  0  0  0  0
  4  8  2  0  0  0  0
  5  9  2  0  0  0  0
  6 14  1  0  0  0  0
  7 14  2  0  0  0  0
  8 15  1  0  0  0  0
  9 16  1  0  0  0  0
 10 12  2  0  0  0  0
 10 17  1  0  0  0  0
 11 13  1  0  0  0  0
 11 17  2  0  0  0  0
 12 18  1  0  0  0  0
 13 18  2  0  0  0  0
 14 22  1  0  0  0  0
 15 16  2  0  0  0  0
 15 24  1  0  0  0  0
 16 26  1  0  0  0  0
 17 27  1  0  0  0  0
 18 29  1  0  0  0  0
 19 23  1  0  0  0  0
 19 27  1  0  0  0  0
 19 30  2  0  0  0  0
 20 28  1  0  0  0  0
 20 29  1  0  0  0  0
 20 31  2  0  0  0  0
 21 23  1  0  0  0  0
 22 29  1  0  0  0  0
 24 25  2  0  0  0  0
 25 26  1  0  0  0  0
 26 28  1  0  0  0  0
  1 32  1  0  0  0  0
  2 33  1  0  0  0  0
  3 34  1  0  0  0  0
  4 35  1  0  0  0  0
  5 36  1  0  0  0  0
  6 37  1  0  0  0  0
  7 38  1  0  0  0  0
  8 39  1  0  0  0  0
  9 40  1  0  0  0  0
 10 41  1  0  0  0  0
 11 42  1  0  0  0  0
 12 43  1  0  0  0  0
 13 44  1  0  0  0  0
 21 45  1  0  0  0  0
 21 46  1  0  0  0  0
 21 47  1  0  0  0  0
 22 48  1  0  0  0  0
 22 49  1  0  0  0  0
 23 50  1  0  0  0  0
 23 51  1  0  0  0  0
 27 52  1  0  0  0  0
 28 53  1  0  0  0  0
M  END
> <clash_score>
0

> <docking_score>
-8.923763275146484

> <overlap_score>
0.9825200438499451

$$$$
BENZO_0_1
  -OEChem-08232013513D

 48 51  0     0  0  0  0  0  0999 V2000
    3.8860    2.1050   19.5250 C   0  0  0  0  0  0  0  0  0  0  0  0
    4.2460    1.7520   20.8250 C   0  0  0  0  0  0  0  0  0  0  0  0
    4.6610    1.7170   18.4380 C   0  0  0  0  0  0  0  0  0  0  0  0
    5.3890    1.0010   21.0690 C   0  0  0  0  0  0  0  0  0  0  0  0
    9.5890   -2.4950   23.2210 C   0  0  0  0  0  0  0  0  0  0  0  0
    8.2550   -1.0010   24.5520 C   0  0  0  0  0  0  0  0  0  0  0  0
    9.1890   -3.5540   24.0140 C   0  0  0  0  0  0  0  0  0  0  0  0
    7.8700   -2.0610   25.3550 C   0  0  0  0  0  0  0  0  0  0  0  0
   12.6434   -0.3194   24.6623 C   0  0  0  0  0  0  0  0  0  0  0  0
   13.7588   -1.1164   24.5274 C   0  0  0  0  0  0  0  0  0  0  0  0
   12.6051   -0.7715   22.3827 C   0  0  0  0  0  0  0  0  0  0  0  0
   11.9749   -0.1196   23.4200 C   0  0  0  0  0  0  0  0  0  0  0  0
    5.7970    0.9500   18.6730 C   0  0  0  0  0  0  0  0  0  0  0  0
    6.1460    0.6070   19.9750 C   0  0  0  0  0  0  0  0  0  0  0  0
    9.1280   -1.2090   23.4870 C   0  0  0  0  0  0  0  0  0  0  0  0
    8.3450   -3.3440   25.0980 C   0  0  0  0  0  0  0  0  0  0  0  0
    9.0430    0.2380   21.4940 C   0  0  0  0  0  0  0  0  0  0  0  0
    7.2639   -5.5576   25.3810 C   0  0  0  0  0  0  0  0  0  0  0  0
    8.3072   -4.4047   27.3383 C   0  0  0  0  0  0  0  0  0  0  0  0
   10.7306    0.7056   23.2620 C   0  0  0  0  0  0  0  0  0  0  0  0
    6.7100    0.3850   17.8100 N   0  0  0  0  0  0  0  0  0  0  0  0
    7.5840   -0.2700   18.5160 N   0  0  0  0  0  0  0  0  0  0  0  0
    7.2710   -0.1460   19.8310 N   0  0  0  0  0  0  0  0  0  0  0  0
    8.0950   -0.7700   20.8440 N   0  0  0  0  0  0  0  0  0  0  0  0
    9.5820   -0.1080   22.7000 N   0  0  0  0  0  0  0  0  0  0  0  0
    7.9731   -4.4180   25.9279 N   0  0  0  0  0  0  0  0  0  0  0  0
    9.2950    1.3000   20.9480 O   0  0  0  0  0  0  0  0  0  0  0  0
   13.9965   -1.6202   22.9081 S   0  0  0  0  0  0  0  0  0  0  0  0
    2.9846    2.6932   19.3610 H   0  0  0  0  0  0  0  0  0  0  0  0
    3.6235    2.0692   21.6570 H   0  0  0  0  0  0  0  0  0  0  0  0
    4.3785    2.0113   17.4257 H   0  0  0  0  0  0  0  0  0  0  0  0
    5.6763    0.7332   22.0915 H   0  0  0  0  0  0  0  0  0  0  0  0
   10.2682   -2.6746   22.3864 H   0  0  0  0  0  0  0  0  0  0  0  0
    7.8692   -0.0022   24.7600 H   0  0  0  0  0  0  0  0  0  0  0  0
    9.5433   -4.5619   23.7809 H   0  0  0  0  0  0  0  0  0  0  0  0
    7.1923   -1.8829   26.1908 H   0  0  0  0  0  0  0  0  0  0  0  0
   12.3259    0.0988   25.6092 H   0  0  0  0  0  0  0  0  0  0  0  0
   14.4459   -1.4264   25.3020 H   0  0  0  0  0  0  0  0  0  0  0  0
   12.3190   -0.7916   21.3402 H   0  0  0  0  0  0  0  0  0  0  0  0
    7.0648   -6.2850   26.1817 H   0  0  0  0  0  0  0  0  0  0  0  0
    6.3111   -5.2219   24.9456 H   0  0  0  0  0  0  0  0  0  0  0  0
    7.8773   -6.0308   24.6001 H   0  0  0  0  0  0  0  0  0  0  0  0
    7.9341   -5.3244   27.8127 H   0  0  0  0  0  0  0  0  0  0  0  0
    9.3994   -4.3488   27.4557 H   0  0  0  0  0  0  0  0  0  0  0  0
    7.8417   -3.5305   27.8170 H   0  0  0  0  0  0  0  0  0  0  0  0
   10.4193    1.1232   24.2257 H   0  0  0  0  0  0  0  0  0  0  0  0
   10.9010    1.5474   22.5826 H   0  0  0  0  0  0  0  0  0  0  0  0
    8.0593   -1.6239   21.0632 H   0  0  0  0  0  0  0  0  0  0  0  0
  1  2  1  0  0  0  0
  1  3  2  0  0  0  0
  2  4  2  0  0  0  0
  3 13  1  0  0  0  0
  4 14  1  0  0  0  0
  5  7  2  0  0  0  0
  5 15  1  0  0  0  0
  6  8  1  0  0  0  0
  6 15  2  0  0  0  0
  7 16  1  0  0  0  0
  8 16  2  0  0  0  0
  9 10  2  0  0  0  0
  9 12  1  0  0  0  0
 10 28  1  0  0  0  0
 11 12  2  0  0  0  0
 11 28  1  0  0  0  0
 12 20  1  0  0  0  0
 13 14  2  0  0  0  0
 13 21  1  0  0  0  0
 14 23  1  0  0  0  0
 15 25  1  0  0  0  0
 16 26  1  0  0  0  0
 17 24  1  0  0  0  0
 17 25  1  0  0  0  0
 17 27  2  0  0  0  0
 18 26  1  0  0  0  0
 19 26  1  0  0  0  0
 20 25  1  0  0  0  0
 21 22  2  0  0  0  0
 22 23  1  0  0  0  0
 23 24  1  0  0  0  0
  1 29  1  0  0  0  0
  2 30  1  0  0  0  0
  3 31  1  0  0  0  0
  4 32  1  0  0  0  0
  5 33  1  0  0  0  0
  6 34  1  0  0  0  0
  7 35  1  0  0  0  0
  8 36  1  0  0  0  0
  9 37  1  0  0  0  0
 10 38  1  0  0  0  0
 11 39  1  0  0  0  0
 18 40  1  0  0  0  0
 18 41  1  0  0  0  0
 18 42  1  0  0  0  0
 19 43  1  0  0  0  0
 19 44  1  0  0  0  0
 19 45  1  0  0  0  0
 20 46  1  0  0  0  0
 20 47  1  0  0  0  0
 24 48  1  0  0  0  0
M  END
> <clash_score>
0

> <docking_score>
-8.746169090270996

> <overlap_score>
0.9289875626564026

$$$$
BENZO_2_1
  -OEChem-08232013513D

 51 54  0     0  0  0  0  0  0999 V2000
    3.8860    2.1050   19.5250 C   0  0  0  0  0  0  0  0  0  0  0  0
    4.2460    1.7520   20.8250 C   0  0  0  0  0  0  0  0  0  0  0  0
   13.7179   -1.0279   24.8248 C   0  0  0  0  0  0  0  0  0  0  0  0
   12.5626   -0.2605   24.6771 C   0  0  0  0  0  0  0  0  0  0  0  0
    4.6610    1.7170   18.4380 C   0  0  0  0  0  0  0  0  0  0  0  0
    5.3890    1.0010   21.0690 C   0  0  0  0  0  0  0  0  0  0  0  0
    9.5890   -2.4950   23.2210 C   0  0  0  0  0  0  0  0  0  0  0  0
    8.2550   -1.0010   24.5520 C   0  0  0  0  0  0  0  0  0  0  0  0
    9.1890   -3.5540   24.0140 C   0  0  0  0  0  0  0  0  0  0  0  0
    7.8700   -2.0610   25.3550 C   0  0  0  0  0  0  0  0  0  0  0  0
   14.2857   -1.6544   23.7153 C   0  0  0  0  0  0  0  0  0  0  0  0
   12.5426   -0.7461   22.3105 C   0  0  0  0  0  0  0  0  0  0  0  0
   11.9749   -0.1196   23.4200 C   0  0  0  0  0  0  0  0  0  0  0  0
    5.7970    0.9500   18.6730 C   0  0  0  0  0  0  0  0  0  0  0  0
    6.1460    0.6070   19.9750 C   0  0  0  0  0  0  0  0  0  0  0  0
    9.1280   -1.2090   23.4870 C   0  0  0  0  0  0  0  0  0  0  0  0
    8.3450   -3.3440   25.0980 C   0  0  0  0  0  0  0  0  0  0  0  0
   13.6980   -1.5135   22.4582 C   0  0  0  0  0  0  0  0  0  0  0  0
    9.0430    0.2380   21.4940 C   0  0  0  0  0  0  0  0  0  0  0  0
    7.2639   -5.5576   25.3810 C   0  0  0  0  0  0  0  0  0  0  0  0
    8.3072   -4.4047   27.3383 C   0  0  0  0  0  0  0  0  0  0  0  0
   10.7306    0.7056   23.2620 C   0  0  0  0  0  0  0  0  0  0  0  0
    6.7100    0.3850   17.8100 N   0  0  0  0  0  0  0  0  0  0  0  0
    7.5840   -0.2700   18.5160 N   0  0  0  0  0  0  0  0  0  0  0  0
    7.2710   -0.1460   19.8310 N   0  0  0  0  0  0  0  0  0  0  0  0
    8.0950   -0.7700   20.8440 N   0  0  0  0  0  0  0  0  0  0  0  0
    9.5820   -0.1080   22.7000 N   0  0  0  0  0  0  0  0  0  0  0  0
    7.9731   -4.4180   25.9279 N   0  0  0  0  0  0  0  0  0  0  0  0
    9.2950    1.3000   20.9480 O   0  0  0  0  0  0  0  0  0  0  0  0
   14.3982   -2.2876   21.0899 Cl  0  0  0  0  0  0  0  0  0  0  0  0
    2.9846    2.6932   19.3610 H   0  0  0  0  0  0  0  0  0  0  0  0
    3.6235    2.0692   21.6570 H   0  0  0  0  0  0  0  0  0  0  0  0
   14.1752   -1.1375   25.8039 H   0  0  0  0  0  0  0  0  0  0  0  0
   12.1270    0.2240   25.5471 H   0  0  0  0  0  0  0  0  0  0  0  0
    4.3785    2.0113   17.4257 H   0  0  0  0  0  0  0  0  0  0  0  0
    5.6763    0.7332   22.0915 H   0  0  0  0  0  0  0  0  0  0  0  0
   10.2682   -2.6746   22.3864 H   0  0  0  0  0  0  0  0  0  0  0  0
    7.8692   -0.0022   24.7600 H   0  0  0  0  0  0  0  0  0  0  0  0
    9.5433   -4.5619   23.7809 H   0  0  0  0  0  0  0  0  0  0  0  0
    7.1923   -1.8829   26.1908 H   0  0  0  0  0  0  0  0  0  0  0  0
   15.1861   -2.2497   23.8454 H   0  0  0  0  0  0  0  0  0  0  0  0
   12.0809   -0.6327   21.3323 H   0  0  0  0  0  0  0  0  0  0  0  0
    7.0648   -6.2850   26.1817 H   0  0  0  0  0  0  0  0  0  0  0  0
    6.3111   -5.2219   24.9456 H   0  0  0  0  0  0  0  0  0  0  0  0
    7.8773   -6.0308   24.6001 H   0  0  0  0  0  0  0  0  0  0  0  0
    7.9341   -5.3244   27.8127 H   0  0  0  0  0  0  0  0  0  0  0  0
    9.3994   -4.3488   27.4557 H   0  0  0  0  0  0  0  0  0  0  0  0
    7.8417   -3.5305   27.8170 H   0  0  0  0  0  0  0  0  0  0  0  0
   10.4193    1.1232   24.2257 H   0  0  0  0  0  0  0  0  0  0  0  0
   10.9010    1.5474   22.5826 H   0  0  0  0  0  0  0  0  0  0  0  0
    8.0593   -1.6239   21.0632 H   0  0  0  0  0  0  0  0  0  0  0  0
  1  2  1  0  0  0  0
  1  5  2  0  0  0  0
  2  6  2  0  0  0  0
  3  4  2  0  0  0  0
  3 11  1  0  0  0  0
  4 13  1  0  0  0  0
  5 14  1  0  0  0  0
  6 15  1  0  0  0  0
  7  9  2  0  0  0  0
  7 16  1  0  0  0  0
  8 10  1  0  0  0  0
  8 16  2  0  0  0  0
  9 17  1  0  0  0  0
 10 17  2  0  0  0  0
 11 18  2  0  0  0  0
 12 13  2  0  0  0  0
 12 18  1  0  0  0  0
 13 22  1  0  0  0  0
 14 15  2  0  0  0  0
 14 23  1  0  0  0  0
 15 25  1  0  0  0  0
 16 27  1  0  0  0  0
 17 28  1  0  0  0  0
 18 30  1  0  0  0  0
 19 26  1  0  0  0  0
 19 27  1  0  0  0  0
 19 29  2  0  0  0  0
 20 28  1  0  0  0  0
 21 28  1  0  0  0  0
 22 27  1  0  0  0  0
 23 24  2  0  0  0  0
 24 25  1  0  0  0  0
 25 26  1  0  0  0  0
  1 31  1  0  0  0  0
  2 32  1  0  0  0  0
  3 33  1  0  0  0  0
  4 34  1  0  0  0  0
  5 35  1  0  0  0  0
  6 36  1  0  0  0  0
  7 37  1  0  0  0  0
  8 38  1  0  0  0  0
  9 39  1  0  0  0  0
 10 40  1  0  0  0  0
 11 41  1  0  0  0  0
 12 42  1  0  0  0  0
 20 43  1  0  0  0  0
 20 44  1  0  0  0  0
 20 45  1  0  0  0  0
 21 46  1  0  0  0  0
 21 47  1  0  0  0  0
 21 48  1  0  0  0  0
 22 49  1  0  0  0  0
 22 50  1  0  0  0  0
 26 51  1  0  0  0  0
M  END
> <clash_score>
0

> <docking_score>
-8.22026252746582

> <overlap_score>
0.9519116878509521

$$$$
BENZO_7_1
  -OEChem-08232013513D

 53 56  0     0  0  0  0  0  0999 V2000
    3.8860    2.1050   19.5250 C   0  0  0  0  0  0  0  0  0  0  0  0
    4.2460    1.7520   20.8250 C   0  0  0  0  0  0  0  0  0  0  0  0
    4.6610    1.7170   18.4380 C   0  0  0  0  0  0  0  0  0  0  0  0
    5.3890    1.0010   21.0690 C   0  0  0  0  0  0  0  0  0  0  0  0
    9.1890   -3.5540   24.0140 C   0  0  0  0  0  0  0  0  0  0  0  0
    7.8700   -2.0610   25.3550 C   0  0  0  0  0  0  0  0  0  0  0  0
    9.5890   -2.4950   23.2210 C   0  0  0  0  0  0  0  0  0  0  0  0
    8.2550   -1.0010   24.5520 C   0  0  0  0  0  0  0  0  0  0  0  0
   13.3046    0.3678   23.5627 C   0  0  0  0  0  0  0  0  0  0  0  0
   12.3307   -0.9513   22.0975 C   0  0  0  0  0  0  0  0  0  0  0  0
   12.0591    0.0651   22.9806 C   0  0  0  0  0  0  0  0  0  0  0  0
    5.7970    0.9500   18.6730 C   0  0  0  0  0  0  0  0  0  0  0  0
    6.1460    0.6070   19.9750 C   0  0  0  0  0  0  0  0  0  0  0  0
    8.3450   -3.3440   25.0980 C   0  0  0  0  0  0  0  0  0  0  0  0
    9.1280   -1.2090   23.4870 C   0  0  0  0  0  0  0  0  0  0  0  0
    7.6597   -4.3771   27.2873 C   0  0  0  0  0  0  0  0  0  0  0  0
    9.0430    0.2380   21.4940 C   0  0  0  0  0  0  0  0  0  0  0  0
    8.4367   -6.7653   27.6013 C   0  0  0  0  0  0  0  0  0  0  0  0
   14.4256   -2.1713   21.4640 C   0  0  0  0  0  0  0  0  0  0  0  0
   10.7306    0.7056   23.2620 C   0  0  0  0  0  0  0  0  0  0  0  0
    7.3108   -5.7664   27.8000 C   0  0  0  0  0  0  0  0  0  0  0  0
   14.2938   -0.3947   23.0894 N   0  0  0  0  0  0  0  0  0  0  0  0
    6.7100    0.3850   17.8100 N   0  0  0  0  0  0  0  0  0  0  0  0
    7.5840   -0.2700   18.5160 N   0  0  0  0  0  0  0  0  0  0  0  0
   13.6701   -1.1866   22.2007 N   0  0  0  0  0  0  0  0  0  0  0  0
    7.2710   -0.1460   19.8310 N   0  0  0  0  0  0  0  0  0  0  0  0
    7.9771   -4.4058   25.9196 N   0  0  0  0  0  0  0  0  0  0  0  0
    8.0950   -0.7700   20.8440 N   0  0  0  0  0  0  0  0  0  0  0  0
    9.5820   -0.1080   22.7000 N   0  0  0  0  0  0  0  0  0  0  0  0
    7.6489   -3.3922   28.0183 O   0  0  0  0  0  0  0  0  0  0  0  0
    9.2950    1.3000   20.9480 O   0  0  0  0  0  0  0  0  0  0  0  0
    2.9846    2.6932   19.3610 H   0  0  0  0  0  0  0  0  0  0  0  0
    3.6235    2.0692   21.6570 H   0  0  0  0  0  0  0  0  0  0  0  0
    4.3785    2.0113   17.4257 H   0  0  0  0  0  0  0  0  0  0  0  0
    5.6763    0.7332   22.0915 H   0  0  0  0  0  0  0  0  0  0  0  0
    9.5436   -4.5614   23.7799 H   0  0  0  0  0  0  0  0  0  0  0  0
    7.1918   -1.8823   26.1906 H   0  0  0  0  0  0  0  0  0  0  0  0
   10.2676   -2.6754   22.3861 H   0  0  0  0  0  0  0  0  0  0  0  0
    7.8686   -0.0026   24.7598 H   0  0  0  0  0  0  0  0  0  0  0  0
   13.5349    1.1111   24.3128 H   0  0  0  0  0  0  0  0  0  0  0  0
   11.7003   -1.5140   21.4223 H   0  0  0  0  0  0  0  0  0  0  0  0
    8.6969   -6.8589   26.5418 H   0  0  0  0  0  0  0  0  0  0  0  0
    8.1397   -7.7523   27.9689 H   0  0  0  0  0  0  0  0  0  0  0  0
    9.3370   -6.4555   28.1420 H   0  0  0  0  0  0  0  0  0  0  0  0
   14.7826   -1.7027   20.5431 H   0  0  0  0  0  0  0  0  0  0  0  0
   15.2688   -2.5123   22.0712 H   0  0  0  0  0  0  0  0  0  0  0  0
   13.7809   -3.0244   21.2351 H   0  0  0  0  0  0  0  0  0  0  0  0
   10.5779    0.8199   24.3407 H   0  0  0  0  0  0  0  0  0  0  0  0
   10.6743    1.7050   22.8178 H   0  0  0  0  0  0  0  0  0  0  0  0
    7.0715   -5.6930   28.8672 H   0  0  0  0  0  0  0  0  0  0  0  0
    6.4148   -6.1160   27.2743 H   0  0  0  0  0  0  0  0  0  0  0  0
    7.9297   -5.3297   25.4744 H   0  0  0  0  0  0  0  0  0  0  0  0
    8.0593   -1.6239   21.0632 H   0  0  0  0  0  0  0  0  0  0  0  0
  1  2  1  0  0  0  0
  1  3  2  0  0  0  0
  2  4  2  0  0  0  0
  3 12  1  0  0  0  0
  4 13  1  0  0  0  0
  5  7  2  0  0  0  0
  5 14  1  0  0  0  0
  6  8  1  0  0  0  0
  6 14  2  0  0  0  0
  7 15  1  0  0  0  0
  8 15  2  0  0  0  0
  9 11  1  0  0  0  0
  9 22  2  0  0  0  0
 10 11  2  0  0  0  0
 10 25  1  0  0  0  0
 11 20  1  0  0  0  0
 12 13  2  0  0  0  0
 12 23  1  0  0  0  0
 13 26  1  0  0  0  0
 14 27  1  0  0  0  0
 15 29  1  0  0  0  0
 16 21  1  0  0  0  0
 16 27  1  0  0  0  0
 16 30  2  0  0  0  0
 17 28  1  0  0  0  0
 17 29  1  0  0  0  0
 17 31  2  0  0  0  0
 18 21  1  0  0  0  0
 19 25  1  0  0  0  0
 20 29  1  0  0  0  0
 22 25  1  0  0  0  0
 23 24  2  0  0  0  0
 24 26  1  0  0  0  0
 26 28  1  0  0  0  0
  1 32  1  0  0  0  0
  2 33  1  0  0  0  0
  3 34  1  0  0  0  0
  4 35  1  0  0  0  0
  5 36  1  0  0  0  0
  6 37  1  0  0  0  0
  7 38  1  0  0  0  0
  8 39  1  0  0  0  0
  9 40  1  0  0  0  0
 10 41  1  0  0  0  0
 18 42  1  0  0  0  0
 18 43  1  0  0  0  0
 18 44  1  0  0  0  0
 19 45  1  0  0  0  0
 19 46  1  0  0  0  0
 19 47  1  0  0  0  0
 20 48  1  0  0  0  0
 20 49  1  0  0  0  0
 21 50  1  0  0  0  0
 21 51  1  0  0  0  0
 27 52  1  0  0  0  0
 28 53  1  0  0  0  0
M  END
> <clash_score>
0

> <docking_score>
-8.738102912902832

> <overlap_score>
0.9672854542732239

$$$$
BENZO_4_1
  -OEChem-08232013513D

 50 53  0     0  0  0  0  0  0999 V2000
    3.8860    2.1050   19.5250 C   0  0  0  0  0  0  0  0  0  0  0  0
    4.2460    1.7520   20.8250 C   0  0  0  0  0  0  0  0  0  0  0  0
    4.6610    1.7170   18.4380 C   0  0  0  0  0  0  0  0  0  0  0  0
    5.3890    1.0010   21.0690 C   0  0  0  0  0  0  0  0  0  0  0  0
    9.1890   -3.5540   24.0140 C   0  0  0  0  0  0  0  0  0  0  0  0
    7.8700   -2.0610   25.3550 C   0  0  0  0  0  0  0  0  0  0  0  0
    9.5890   -2.4950   23.2210 C   0  0  0  0  0  0  0  0  0  0  0  0
    8.2550   -1.0010   24.5520 C   0  0  0  0  0  0  0  0  0  0  0  0
   12.6434   -0.3194   24.6623 C   0  0  0  0  0  0  0  0  0  0  0  0
   13.7588   -1.1164   24.5274 C   0  0  0  0  0  0  0  0  0  0  0  0
   12.6051   -0.7715   22.3827 C   0  0  0  0  0  0  0  0  0  0  0  0
   11.9749   -0.1196   23.4200 C   0  0  0  0  0  0  0  0  0  0  0  0
    5.7970    0.9500   18.6730 C   0  0  0  0  0  0  0  0  0  0  0  0
    6.1460    0.6070   19.9750 C   0  0  0  0  0  0  0  0  0  0  0  0
    8.3450   -3.3440   25.0980 C   0  0  0  0  0  0  0  0  0  0  0  0
    9.1280   -1.2090   23.4870 C   0  0  0  0  0  0  0  0  0  0  0  0
    8.2015   -4.5568   27.2976 C   0  0  0  0  0  0  0  0  0  0  0  0
    9.0430    0.2380   21.4940 C   0  0  0  0  0  0  0  0  0  0  0  0
    7.8869   -6.0889   29.2874 C   0  0  0  0  0  0  0  0  0  0  0  0
   10.7306    0.7056   23.2620 C   0  0  0  0  0  0  0  0  0  0  0  0
    7.6334   -5.8734   27.8062 C   0  0  0  0  0  0  0  0  0  0  0  0
    6.7100    0.3850   17.8100 N   0  0  0  0  0  0  0  0  0  0  0  0
    7.5840   -0.2700   18.5160 N   0  0  0  0  0  0  0  0  0  0  0  0
    7.2710   -0.1460   19.8310 N   0  0  0  0  0  0  0  0  0  0  0  0
    7.9771   -4.4058   25.9196 N   0  0  0  0  0  0  0  0  0  0  0  0
    8.0950   -0.7700   20.8440 N   0  0  0  0  0  0  0  0  0  0  0  0
    9.5820   -0.1080   22.7000 N   0  0  0  0  0  0  0  0  0  0  0  0
    8.7729   -3.7649   28.0399 O   0  0  0  0  0  0  0  0  0  0  0  0
    9.2950    1.3000   20.9480 O   0  0  0  0  0  0  0  0  0  0  0  0
   13.9965   -1.6202   22.9081 S   0  0  0  0  0  0  0  0  0  0  0  0
    2.9846    2.6932   19.3610 H   0  0  0  0  0  0  0  0  0  0  0  0
    3.6235    2.0692   21.6570 H   0  0  0  0  0  0  0  0  0  0  0  0
    4.3785    2.0113   17.4257 H   0  0  0  0  0  0  0  0  0  0  0  0
    5.6763    0.7332   22.0915 H   0  0  0  0  0  0  0  0  0  0  0  0
    9.5436   -4.5614   23.7799 H   0  0  0  0  0  0  0  0  0  0  0  0
    7.1918   -1.8823   26.1906 H   0  0  0  0  0  0  0  0  0  0  0  0
   10.2676   -2.6754   22.3861 H   0  0  0  0  0  0  0  0  0  0  0  0
    7.8686   -0.0026   24.7598 H   0  0  0  0  0  0  0  0  0  0  0  0
   12.3259    0.0988   25.6092 H   0  0  0  0  0  0  0  0  0  0  0  0
   14.4459   -1.4264   25.3020 H   0  0  0  0  0  0  0  0  0  0  0  0
   12.3190   -0.7916   21.3402 H   0  0  0  0  0  0  0  0  0  0  0  0
    8.9595   -6.0839   29.5077 H   0  0  0  0  0  0  0  0  0  0  0  0
    7.4764   -7.0513   29.6082 H   0  0  0  0  0  0  0  0  0  0  0  0
    7.4177   -5.3006   29.8853 H   0  0  0  0  0  0  0  0  0  0  0  0
   10.4193    1.1232   24.2257 H   0  0  0  0  0  0  0  0  0  0  0  0
   10.9010    1.5474   22.5826 H   0  0  0  0  0  0  0  0  0  0  0  0
    6.5542   -5.8831   27.6150 H   0  0  0  0  0  0  0  0  0  0  0  0
    8.0869   -6.6915   27.2348 H   0  0  0  0  0  0  0  0  0  0  0  0
    7.4775   -5.1795   25.4660 H   0  0  0  0  0  0  0  0  0  0  0  0
    8.0593   -1.6239   21.0632 H   0  0  0  0  0  0  0  0  0  0  0  0
  1  2  1  0  0  0  0
  1  3  2  0  0  0  0
  2  4  2  0  0  0  0
  3 13  1  0  0  0  0
  4 14  1  0  0  0  0
  5  7  2  0  0  0  0
  5 15  1  0  0  0  0
  6  8  1  0  0  0  0
  6 15  2  0  0  0  0
  7 16  1  0  0  0  0
  8 16  2  0  0  0  0
  9 10  2  0  0  0  0
  9 12  1  0  0  0  0
 10 30  1  0  0  0  0
 11 12  2  0  0  0  0
 11 30  1  0  0  0  0
 12 20  1  0  0  0  0
 13 14  2  0  0  0  0
 13 22  1  0  0  0  0
 14 24  1  0  0  0  0
 15 25  1  0  0  0  0
 16 27  1  0  0  0  0
 17 21  1  0  0  0  0
 17 25  1  0  0  0  0
 17 28  2  0  0  0  0
 18 26  1  0  0  0  0
 18 27  1  0  0  0  0
 18 29  2  0  0  0  0
 19 21  1  0  0  0  0
 20 27  1  0  0  0  0
 22 23  2  0  0  0  0
 23 24  1  0  0  0  0
 24 26  1  0  0  0  0
  1 31  1  0  0  0  0
  2 32  1  0  0  0  0
  3 33  1  0  0  0  0
  4 34  1  0  0  0  0
  5 35  1  0  0  0  0
  6 36  1  0  0  0  0
  7 37  1  0  0  0  0
  8 38  1  0  0  0  0
  9 39  1  0  0  0  0
 10 40  1  0  0  0  0
 11 41  1  0  0  0  0
 19 42  1  0  0  0  0
 19 43  1  0  0  0  0
 19 44  1  0  0  0  0
 20 45  1  0  0  0  0
 20 46  1  0  0  0  0
 21 47  1  0  0  0  0
 21 48  1  0  0  0  0
 25 49  1  0  0  0  0
 26 50  1  0  0  0  0
M  END
> <clash_score>
0

> <docking_score>
-9.025601387023926

> <overlap_score>
0.9854015707969666

$$$$
BENZO_6_1
  -OEChem-08232013513D

 53 56  0     0  0  0  0  0  0999 V2000
    3.8860    2.1050   19.5250 C   0  0  0  0  0  0  0  0  0  0  0  0
    4.2460    1.7520   20.8250 C   0  0  0  0  0  0  0  0  0  0  0  0
   13.7179   -1.0279   24.8248 C   0  0  0  0  0  0  0  0  0  0  0  0
   12.5626   -0.2605   24.6771 C   0  0  0  0  0  0  0  0  0  0  0  0
    4.6610    1.7170   18.4380 C   0  0  0  0  0  0  0  0  0  0  0  0
    5.3890    1.0010   21.0690 C   0  0  0  0  0  0  0  0  0  0  0  0
    9.1890   -3.5540   24.0140 C   0  0  0  0  0  0  0  0  0  0  0  0
    7.8700   -2.0610   25.3550 C   0  0  0  0  0  0  0  0  0  0  0  0
    9.5890   -2.4950   23.2210 C   0  0  0  0  0  0  0  0  0  0  0  0
    8.2550   -1.0010   24.5520 C   0  0  0  0  0  0  0  0  0  0  0  0
   14.2857   -1.6544   23.7153 C   0  0  0  0  0  0  0  0  0  0  0  0
   12.5426   -0.7461   22.3105 C   0  0  0  0  0  0  0  0  0  0  0  0
   11.9749   -0.1196   23.4200 C   0  0  0  0  0  0  0  0  0  0  0  0
    5.7970    0.9500   18.6730 C   0  0  0  0  0  0  0  0  0  0  0  0
    6.1460    0.6070   19.9750 C   0  0  0  0  0  0  0  0  0  0  0  0
    8.3450   -3.3440   25.0980 C   0  0  0  0  0  0  0  0  0  0  0  0
    9.1280   -1.2090   23.4870 C   0  0  0  0  0  0  0  0  0  0  0  0
   13.6980   -1.5135   22.4582 C   0  0  0  0  0  0  0  0  0  0  0  0
    8.2015   -4.5568   27.2976 C   0  0  0  0  0  0  0  0  0  0  0  0
    9.0430    0.2380   21.4940 C   0  0  0  0  0  0  0  0  0  0  0  0
    7.8869   -6.0889   29.2874 C   0  0  0  0  0  0  0  0  0  0  0  0
   10.7306    0.7056   23.2620 C   0  0  0  0  0  0  0  0  0  0  0  0
    7.6334   -5.8734   27.8062 C   0  0  0  0  0  0  0  0  0  0  0  0
    6.7100    0.3850   17.8100 N   0  0  0  0  0  0  0  0  0  0  0  0
    7.5840   -0.2700   18.5160 N   0  0  0  0  0  0  0  0  0  0  0  0
    7.2710   -0.1460   19.8310 N   0  0  0  0  0  0  0  0  0  0  0  0
    7.9771   -4.4058   25.9196 N   0  0  0  0  0  0  0  0  0  0  0  0
    8.0950   -0.7700   20.8440 N   0  0  0  0  0  0  0  0  0  0  0  0
    9.5820   -0.1080   22.7000 N   0  0  0  0  0  0  0  0  0  0  0  0
    8.7729   -3.7649   28.0399 O   0  0  0  0  0  0  0  0  0  0  0  0
    9.2950    1.3000   20.9480 O   0  0  0  0  0  0  0  0  0  0  0  0
   14.3982   -2.2876   21.0899 Cl  0  0  0  0  0  0  0  0  0  0  0  0
    2.9846    2.6932   19.3610 H   0  0  0  0  0  0  0  0  0  0  0  0
    3.6235    2.0692   21.6570 H   0  0  0  0  0  0  0  0  0  0  0  0
   14.1752   -1.1375   25.8039 H   0  0  0  0  0  0  0  0  0  0  0  0
   12.1270    0.2240   25.5471 H   0  0  0  0  0  0  0  0  0  0  0  0
    4.3785    2.0113   17.4257 H   0  0  0  0  0  0  0  0  0  0  0  0
    5.6763    0.7332   22.0915 H   0  0  0  0  0  0  0  0  0  0  0  0
    9.5436   -4.5614   23.7799 H   0  0  0  0  0  0  0  0  0  0  0  0
    7.1918   -1.8823   26.1906 H   0  0  0  0  0  0  0  0  0  0  0  0
   10.2676   -2.6754   22.3861 H   0  0  0  0  0  0  0  0  0  0  0  0
    7.8686   -0.0026   24.7598 H   0  0  0  0  0  0  0  0  0  0  0  0
   15.1861   -2.2497   23.8454 H   0  0  0  0  0  0  0  0  0  0  0  0
   12.0809   -0.6327   21.3323 H   0  0  0  0  0  0  0  0  0  0  0  0
    8.9595   -6.0839   29.5077 H   0  0  0  0  0  0  0  0  0  0  0  0
    7.4764   -7.0513   29.6082 H   0  0  0  0  0  0  0  0  0  0  0  0
    7.4177   -5.3006   29.8853 H   0  0  0  0  0  0  0  0  0  0  0  0
   10.4193    1.1232   24.2257 H   0  0  0  0  0  0  0  0  0  0  0  0
   10.9010    1.5474   22.5826 H   0  0  0  0  0  0  0  0  0  0  0  0
    6.5542   -5.8831   27.6150 H   0  0  0  0  0  0  0  0  0  0  0  0
    8.0869   -6.6915   27.2348 H   0  0  0  0  0  0  0  0  0  0  0  0
    7.4775   -5.1795   25.4660 H   0  0  0  0  0  0  0  0  0  0  0  0
    8.0593   -1.6239   21.0632 H   0  0  0  0  0  0  0  0  0  0  0  0
  1  2  1  0  0  0  0
  1  5  2  0  0  0  0
  2  6  2  0  0  0  0
  3  4  2  0  0  0  0
  3 11  1  0  0  0  0
  4 13  1  0  0  0  0
  5 14  1  0  0  0  0
  6 15  1  0  0  0  0
  7  9  2  0  0  0  0
  7 16  1  0  0  0  0
  8 10  1  0  0  0  0
  8 16  2  0  0  0  0
  9 17  1  0  0  0  0
 10 17  2  0  0  0  0
 11 18  2  0  0  0  0
 12 13  2  0  0  0  0
 12 18  1  0  0  0  0
 13 22  1  0  0  0  0
 14 15  2  0  0  0  0
 14 24  1  0  0  0  0
 15 26  1  0  0  0  0
 16 27  1  0  0  0  0
 17 29  1  0  0  0  0
 18 32  1  0  0  0  0
 19 23  1  0  0  0  0
 19 27  1  0  0  0  0
 19 30  2  0  0  0  0
 20 28  1  0  0  0  0
 20 29  1  0  0  0  0
 20 31  2  0  0  0  0
 21 23  1  0  0  0  0
 22 29  1  0  0  0  0
 24 25  2  0  0  0  0
 25 26  1  0  0  0  0
 26 28  1  0  0  0  0
  1 33  1  0  0  0  0
  2 34  1  0  0  0  0
  3 35  1  0  0  0  0
  4 36  1  0  0  0  0
  5 37  1  0  0  0  0
  6 38  1  0  0  0  0
  7 39  1  0  0  0  0
  8 40  1  0  0  0  0
  9 41  1  0  0  0  0
 10 42  1  0  0  0  0
 11 43  1  0  0  0  0
 12 44  1  0  0  0  0
 21 45  1  0  0  0  0
 21 46  1  0  0  0  0
 21 47  1  0  0  0  0
 22 48  1  0  0  0  0
 22 49  1  0  0  0  0
 23 50  1  0  0  0  0
 23 51  1  0  0  0  0
 27 52  1  0  0  0  0
 28 53  1  0  0  0  0
M  END
> <clash_score>
0

> <docking_score>
-8.499695777893066

> <overlap_score>
1.0080581903457642

$$$$
BENZO_8_1
  -OEChem-08232013513D

 55 59  0     0  0  0  0  0  0999 V2000
    3.8860    2.1050   19.5250 C   0  0  0  0  0  0  0  0  0  0  0  0
    4.2460    1.7520   20.8250 C   0  0  0  0  0  0  0  0  0  0  0  0
    4.6610    1.7170   18.4380 C   0  0  0  0  0  0  0  0  0  0  0  0
    5.3890    1.0010   21.0690 C   0  0  0  0  0  0  0  0  0  0  0  0
    9.1890   -3.5540   24.0140 C   0  0  0  0  0  0  0  0  0  0  0  0
    7.8700   -2.0610   25.3550 C   0  0  0  0  0  0  0  0  0  0  0  0
    9.5890   -2.4950   23.2210 C   0  0  0  0  0  0  0  0  0  0  0  0
    8.2550   -1.0010   24.5520 C   0  0  0  0  0  0  0  0  0  0  0  0
   12.6406   -0.3244   24.6350 C   0  0  0  0  0  0  0  0  0  0  0  0
   13.7394   -1.1436   24.4970 C   0  0  0  0  0  0  0  0  0  0  0  0
   12.5740   -0.7936   22.3595 C   0  0  0  0  0  0  0  0  0  0  0  0
   11.9653   -0.1217   23.3968 C   0  0  0  0  0  0  0  0  0  0  0  0
    5.7970    0.9500   18.6730 C   0  0  0  0  0  0  0  0  0  0  0  0
    6.1460    0.6070   19.9750 C   0  0  0  0  0  0  0  0  0  0  0  0
    8.3450   -3.3440   25.0980 C   0  0  0  0  0  0  0  0  0  0  0  0
    9.1280   -1.2090   23.4870 C   0  0  0  0  0  0  0  0  0  0  0  0
    9.0430    0.2380   21.4940 C   0  0  0  0  0  0  0  0  0  0  0  0
    7.5748   -4.8280   28.7278 C   0  0  0  0  0  0  0  0  0  0  0  0
    8.9776   -4.7555   28.1204 C   0  0  0  0  0  0  0  0  0  0  0  0
    6.5554   -4.0713   27.8732 C   0  0  0  0  0  0  0  0  0  0  0  0
    8.9620   -5.1961   26.6568 C   0  0  0  0  0  0  0  0  0  0  0  0
    6.6009   -4.5253   26.4110 C   0  0  0  0  0  0  0  0  0  0  0  0
   10.7356    0.7259   23.2427 C   0  0  0  0  0  0  0  0  0  0  0  0
    6.7100    0.3850   17.8100 N   0  0  0  0  0  0  0  0  0  0  0  0
    7.5840   -0.2700   18.5160 N   0  0  0  0  0  0  0  0  0  0  0  0
    7.2710   -0.1460   19.8310 N   0  0  0  0  0  0  0  0  0  0  0  0
    7.9770   -4.4029   25.9163 N   0  0  0  0  0  0  0  0  0  0  0  0
    8.0950   -0.7700   20.8440 N   0  0  0  0  0  0  0  0  0  0  0  0
    9.5820   -0.1080   22.7000 N   0  0  0  0  0  0  0  0  0  0  0  0
    9.2950    1.3000   20.9480 O   0  0  0  0  0  0  0  0  0  0  0  0
   13.9535   -1.6645   22.8799 S   0  0  0  0  0  0  0  0  0  0  0  0
    2.9846    2.6932   19.3610 H   0  0  0  0  0  0  0  0  0  0  0  0
    3.6235    2.0692   21.6570 H   0  0  0  0  0  0  0  0  0  0  0  0
    4.3785    2.0113   17.4257 H   0  0  0  0  0  0  0  0  0  0  0  0
    5.6763    0.7332   22.0915 H   0  0  0  0  0  0  0  0  0  0  0  0
    9.5426   -4.5618   23.7797 H   0  0  0  0  0  0  0  0  0  0  0  0
    7.1914   -1.8824   26.1903 H   0  0  0  0  0  0  0  0  0  0  0  0
   10.2669   -2.6745   22.3854 H   0  0  0  0  0  0  0  0  0  0  0  0
    7.8690   -0.0020   24.7587 H   0  0  0  0  0  0  0  0  0  0  0  0
   12.3393    0.1072   25.5811 H   0  0  0  0  0  0  0  0  0  0  0  0
   14.4271   -1.4605   25.2683 H   0  0  0  0  0  0  0  0  0  0  0  0
   12.2786   -0.8164   21.3197 H   0  0  0  0  0  0  0  0  0  0  0  0
    7.2681   -5.8808   28.8239 H   0  0  0  0  0  0  0  0  0  0  0  0
    7.5890   -4.4101   29.7448 H   0  0  0  0  0  0  0  0  0  0  0  0
    9.3554   -3.7320   28.1920 H   0  0  0  0  0  0  0  0  0  0  0  0
    9.6558   -5.3943   28.6900 H   0  0  0  0  0  0  0  0  0  0  0  0
    5.5496   -4.2322   28.2751 H   0  0  0  0  0  0  0  0  0  0  0  0
    6.7545   -2.9948   27.9293 H   0  0  0  0  0  0  0  0  0  0  0  0
    9.9612   -5.0560   26.2363 H   0  0  0  0  0  0  0  0  0  0  0  0
    8.7097   -6.2583   26.5922 H   0  0  0  0  0  0  0  0  0  0  0  0
    6.2649   -5.5600   26.3335 H   0  0  0  0  0  0  0  0  0  0  0  0
    5.9271   -3.8964   25.8283 H   0  0  0  0  0  0  0  0  0  0  0  0
   10.4406    1.1569   24.2057 H   0  0  0  0  0  0  0  0  0  0  0  0
   10.9160    1.5589   22.5552 H   0  0  0  0  0  0  0  0  0  0  0  0
    8.0897   -1.6082   21.0890 H   0  0  0  0  0  0  0  0  0  0  0  0
  1  2  1  0  0  0  0
  1  3  2  0  0  0  0
  2  4  2  0  0  0  0
  3 13  1  0  0  0  0
  4 14  1  0  0  0  0
  5  7  2  0  0  0  0
  5 15  1  0  0  0  0
  6  8  1  0  0  0  0
  6 15  2  0  0  0  0
  7 16  1  0  0  0  0
  8 16  2  0  0  0  0
  9 10  2  0  0  0  0
  9 12  1  0  0  0  0
 10 31  1  0  0  0  0
 11 12  2  0  0  0  0
 11 31  1  0  0  0  0
 12 23  1  0  0  0  0
 13 14  2  0  0  0  0
 13 24  1  0  0  0  0
 14 26  1  0  0  0  0
 15 27  1  0  0  0  0
 16 29  1  0  0  0  0
 17 28  1  0  0  0  0
 17 29  1  0  0  0  0
 17 30  2  0  0  0  0
 18 19  1  0  0  0  0
 18 20  1  0  0  0  0
 19 21  1  0  0  0  0
 20 22  1  0  0  0  0
 21 27  1  0  0  0  0
 22 27  1  0  0  0  0
 23 29  1  0  0  0  0
 24 25  2  0  0  0  0
 25 26  1  0  0  0  0
 26 28  1  0  0  0  0
  1 32  1  0  0  0  0
  2 33  1  0  0  0  0
  3 34  1  0  0  0  0
  4 35  1  0  0  0  0
  5 36  1  0  0  0  0
  6 37  1  0  0  0  0
  7 38  1  0  0  0  0
  8 39  1  0  0  0  0
  9 40  1  0  0  0  0
 10 41  1  0  0  0  0
 11 42  1  0  0  0  0
 18 43  1  0  0  0  0
 18 44  1  0  0  0  0
 19 45  1  0  0  0  0
 19 46  1  0  0  0  0
 20 47  1  0  0  0  0
 20 48  1  0  0  0  0
 21 49  1  0  0  0  0
 21 50  1  0  0  0  0
 22 51  1  0  0  0  0
 22 52  1  0  0  0  0
 23 53  1  0  0  0  0
 23 54  1  0  0  0  0
 28 55  1  0  0  0  0
M  END
> <clash_score>
0

> <docking_score>
-9.44031047821045

> <overlap_score>
0.9731746315956116

$$$$
BENZO_9_1
  -OEChem-08232013513D

 58 62  0     0  0  0  0  0  0999 V2000
   14.4833   -1.1878   22.4024 C   0  0  0  0  0  0  0  0  0  0  0  0
   14.3474   -0.3892   23.5379 C   0  0  0  0  0  0  0  0  0  0  0  0
   13.4012   -1.3641   21.5401 C   0  0  0  0  0  0  0  0  0  0  0  0
    3.8860    2.1050   19.5250 C   0  0  0  0  0  0  0  0  0  0  0  0
    4.2460    1.7520   20.8250 C   0  0  0  0  0  0  0  0  0  0  0  0
   13.1293    0.2330   23.8113 C   0  0  0  0  0  0  0  0  0  0  0  0
   12.1830   -0.7419   21.8135 C   0  0  0  0  0  0  0  0  0  0  0  0
    4.6610    1.7170   18.4380 C   0  0  0  0  0  0  0  0  0  0  0  0
    5.3890    1.0010   21.0690 C   0  0  0  0  0  0  0  0  0  0  0  0
    9.1890   -3.5540   24.0140 C   0  0  0  0  0  0  0  0  0  0  0  0
    7.8700   -2.0610   25.3550 C   0  0  0  0  0  0  0  0  0  0  0  0
    9.5890   -2.4950   23.2210 C   0  0  0  0  0  0  0  0  0  0  0  0
    8.2550   -1.0010   24.5520 C   0  0  0  0  0  0  0  0  0  0  0  0
   12.0471    0.0566   22.9490 C   0  0  0  0  0  0  0  0  0  0  0  0
    5.7970    0.9500   18.6730 C   0  0  0  0  0  0  0  0  0  0  0  0
    6.1460    0.6070   19.9750 C   0  0  0  0  0  0  0  0  0  0  0  0
    8.3450   -3.3440   25.0980 C   0  0  0  0  0  0  0  0  0  0  0  0
    9.1280   -1.2090   23.4870 C   0  0  0  0  0  0  0  0  0  0  0  0
    9.0430    0.2380   21.4940 C   0  0  0  0  0  0  0  0  0  0  0  0
    7.5748   -4.8280   28.7278 C   0  0  0  0  0  0  0  0  0  0  0  0
    8.9776   -4.7555   28.1204 C   0  0  0  0  0  0  0  0  0  0  0  0
    6.5554   -4.0713   27.8732 C   0  0  0  0  0  0  0  0  0  0  0  0
    8.9620   -5.1961   26.6568 C   0  0  0  0  0  0  0  0  0  0  0  0
    6.6009   -4.5253   26.4110 C   0  0  0  0  0  0  0  0  0  0  0  0
   10.7356    0.7259   23.2427 C   0  0  0  0  0  0  0  0  0  0  0  0
    6.7100    0.3850   17.8100 N   0  0  0  0  0  0  0  0  0  0  0  0
    7.5840   -0.2700   18.5160 N   0  0  0  0  0  0  0  0  0  0  0  0
    7.2710   -0.1460   19.8310 N   0  0  0  0  0  0  0  0  0  0  0  0
    7.9770   -4.4029   25.9163 N   0  0  0  0  0  0  0  0  0  0  0  0
    8.0950   -0.7700   20.8440 N   0  0  0  0  0  0  0  0  0  0  0  0
    9.5820   -0.1080   22.7000 N   0  0  0  0  0  0  0  0  0  0  0  0
    9.2950    1.3000   20.9480 O   0  0  0  0  0  0  0  0  0  0  0  0
   15.4323   -1.6711   22.1890 H   0  0  0  0  0  0  0  0  0  0  0  0
   15.1903   -0.2509   24.2088 H   0  0  0  0  0  0  0  0  0  0  0  0
   13.5069   -1.9849   20.6554 H   0  0  0  0  0  0  0  0  0  0  0  0
    2.9846    2.6932   19.3610 H   0  0  0  0  0  0  0  0  0  0  0  0
    3.6235    2.0692   21.6570 H   0  0  0  0  0  0  0  0  0  0  0  0
   13.0325    0.8533   24.6985 H   0  0  0  0  0  0  0  0  0  0  0  0
   11.3453   -0.8851   21.1361 H   0  0  0  0  0  0  0  0  0  0  0  0
    4.3785    2.0113   17.4257 H   0  0  0  0  0  0  0  0  0  0  0  0
    5.6763    0.7332   22.0915 H   0  0  0  0  0  0  0  0  0  0  0  0
    9.5426   -4.5618   23.7797 H   0  0  0  0  0  0  0  0  0  0  0  0
    7.1914   -1.8824   26.1903 H   0  0  0  0  0  0  0  0  0  0  0  0
   10.2669   -2.6745   22.3854 H   0  0  0  0  0  0  0  0  0  0  0  0
    7.8690   -0.0020   24.7587 H   0  0  0  0  0  0  0  0  0  0  0  0
    7.2681   -5.8808   28.8239 H   0  0  0  0  0  0  0  0  0  0  0  0
    7.5890   -4.4101   29.7448 H   0  0  0  0  0  0  0  0  0  0  0  0
    9.3554   -3.7320   28.1920 H   0  0  0  0  0  0  0  0  0  0  0  0
    9.6558   -5.3943   28.6900 H   0  0  0  0  0  0  0  0  0  0  0  0
    5.5496   -4.2322   28.2751 H   0  0  0  0  0  0  0  0  0  0  0  0
    6.7545   -2.9948   27.9293 H   0  0  0  0  0  0  0  0  0  0  0  0
    9.9612   -5.0560   26.2363 H   0  0  0  0  0  0  0  0  0  0  0  0
    8.7097   -6.2583   26.5922 H   0  0  0  0  0  0  0  0  0  0  0  0
    6.2649   -5.5600   26.3335 H   0  0  0  0  0  0  0  0  0  0  0  0
    5.9271   -3.8964   25.8283 H   0  0  0  0  0  0  0  0  0  0  0  0
   10.6024    0.8573   24.3221 H   0  0  0  0  0  0  0  0  0  0  0  0
   10.6908    1.7202   22.7861 H   0  0  0  0  0  0  0  0  0  0  0  0
    8.0897   -1.6082   21.0890 H   0  0  0  0  0  0  0  0  0  0  0  0
  1  2  1  0  0  0  0
  1  3  2  0  0  0  0
  2  6  2  0  0  0  0
  3  7  1  0  0  0  0
  4  5  1  0  0  0  0
  4  8  2  0  0  0  0
  5  9  2  0  0  0  0
  6 14  1  0  0  0  0
  7 14  2  0  0  0  0
  8 15  1  0  0  0  0
  9 16  1  0  0  0  0
 10 12  2  0  0  0  0
 10 17  1  0  0  0  0
 11 13  1  0  0  0  0
 11 17  2  0  0  0  0
 12 18  1  0  0  0  0
 13 18  2  0  0  0  0
 14 25  1  0  0  0  0
 15 16  2  0  0  0  0
 15 26  1  0  0  0  0
 16 28  1  0  0  0  0
 17 29  1  0  0  0  0
 18 31  1  0  0  0  0
 19 30  1  0  0  0  0
 19 31  1  0  0  0  0
 19 32  2  0  0  0  0
 20 21  1  0  0  0  0
 20 22  1  0  0  0  0
 21 23  1  0  0  0  0
 22 24  1  0  0  0  0
 23 29  1  0  0  0  0
 24 29  1  0  0  0  0
 25 31  1  0  0  0  0
 26 27  2  0  0  0  0
 27 28  1  0  0  0  0
 28 30  1  0  0  0  0
  1 33  1  0  0  0  0
  2 34  1  0  0  0  0
  3 35  1  0  0  0  0
  4 36  1  0  0  0  0
  5 37  1  0  0  0  0
  6 38  1  0  0  0  0
  7 39  1  0  0  0  0
  8 40  1  0  0  0  0
  9 41  1  0  0  0  0
 10 42  1  0  0  0  0
 11 43  1  0  0  0  0
 12 44  1  0  0  0  0
 13 45  1  0  0  0  0
 20 46  1  0  0  0  0
 20 47  1  0  0  0  0
 21 48  1  0  0  0  0
 21 49  1  0  0  0  0
 22 50  1  0  0  0  0
 22 51  1  0  0  0  0
 23 52  1  0  0  0  0
 23 53  1  0  0  0  0
 24 54  1  0  0  0  0
 24 55  1  0  0  0  0
 25 56  1  0  0  0  0
 25 57  1  0  0  0  0
 30 58  1  0  0  0  0
M  END
> <clash_score>
0

> <docking_score>
-9.042136192321777

> <overlap_score>
0.9736425280570984

$$$$
BENZO_13_1
  -OEChem-08232013513D

 46 49  0     0  0  0  0  0  0999 V2000
   14.2863   -1.6540   23.7128 C   0  0  0  0  0  0  0  0  0  0  0  0
   14.0462   -0.5833   24.5740 C   0  0  0  0  0  0  0  0  0  0  0  0
   13.3708   -1.9574   22.7051 C   0  0  0  0  0  0  0  0  0  0  0  0
    3.8860    2.1050   19.5250 C   0  0  0  0  0  0  0  0  0  0  0  0
    4.2460    1.7520   20.8250 C   0  0  0  0  0  0  0  0  0  0  0  0
   12.8905    0.1838   24.4276 C   0  0  0  0  0  0  0  0  0  0  0  0
   12.2151   -1.1902   22.5587 C   0  0  0  0  0  0  0  0  0  0  0  0
    9.1890   -3.5540   24.0140 C   0  0  0  0  0  0  0  0  0  0  0  0
    7.8700   -2.0610   25.3550 C   0  0  0  0  0  0  0  0  0  0  0  0
    4.6610    1.7170   18.4380 C   0  0  0  0  0  0  0  0  0  0  0  0
    5.3890    1.0010   21.0690 C   0  0  0  0  0  0  0  0  0  0  0  0
    9.5890   -2.4950   23.2210 C   0  0  0  0  0  0  0  0  0  0  0  0
    8.2550   -1.0010   24.5520 C   0  0  0  0  0  0  0  0  0  0  0  0
    8.3450   -3.3440   25.0980 C   0  0  0  0  0  0  0  0  0  0  0  0
   11.9749   -0.1196   23.4200 C   0  0  0  0  0  0  0  0  0  0  0  0
    5.7970    0.9500   18.6730 C   0  0  0  0  0  0  0  0  0  0  0  0
    6.1460    0.6070   19.9750 C   0  0  0  0  0  0  0  0  0  0  0  0
    9.1280   -1.2090   23.4870 C   0  0  0  0  0  0  0  0  0  0  0  0
    9.0430    0.2380   21.4940 C   0  0  0  0  0  0  0  0  0  0  0  0
    7.9522   -4.4794   25.9764 C   0  0  0  0  0  0  0  0  0  0  0  0
   10.7306    0.7056   23.2620 C   0  0  0  0  0  0  0  0  0  0  0  0
    6.7100    0.3850   17.8100 N   0  0  0  0  0  0  0  0  0  0  0  0
    7.5840   -0.2700   18.5160 N   0  0  0  0  0  0  0  0  0  0  0  0
    7.2710   -0.1460   19.8310 N   0  0  0  0  0  0  0  0  0  0  0  0
    8.0950   -0.7700   20.8440 N   0  0  0  0  0  0  0  0  0  0  0  0
    9.5820   -0.1080   22.7000 N   0  0  0  0  0  0  0  0  0  0  0  0
    9.2950    1.3000   20.9480 O   0  0  0  0  0  0  0  0  0  0  0  0
   15.1869   -2.2504   23.8261 H   0  0  0  0  0  0  0  0  0  0  0  0
   14.7595   -0.3463   25.3580 H   0  0  0  0  0  0  0  0  0  0  0  0
   13.5579   -2.7902   22.0338 H   0  0  0  0  0  0  0  0  0  0  0  0
    2.9846    2.6932   19.3610 H   0  0  0  0  0  0  0  0  0  0  0  0
    3.6235    2.0692   21.6570 H   0  0  0  0  0  0  0  0  0  0  0  0
   12.7116    1.0161   25.1034 H   0  0  0  0  0  0  0  0  0  0  0  0
   11.5073   -1.4341   21.7709 H   0  0  0  0  0  0  0  0  0  0  0  0
    9.5403   -4.5627   23.7809 H   0  0  0  0  0  0  0  0  0  0  0  0
    7.1911   -1.8848   26.1904 H   0  0  0  0  0  0  0  0  0  0  0  0
    4.3785    2.0113   17.4257 H   0  0  0  0  0  0  0  0  0  0  0  0
    5.6763    0.7332   22.0915 H   0  0  0  0  0  0  0  0  0  0  0  0
   10.2682   -2.6746   22.3865 H   0  0  0  0  0  0  0  0  0  0  0  0
    7.8684   -0.0022   24.7594 H   0  0  0  0  0  0  0  0  0  0  0  0
    8.6668   -4.5891   26.8013 H   0  0  0  0  0  0  0  0  0  0  0  0
    6.9513   -4.3276   26.4010 H   0  0  0  0  0  0  0  0  0  0  0  0
    7.9196   -5.4231   25.4163 H   0  0  0  0  0  0  0  0  0  0  0  0
   10.4193    1.1232   24.2257 H   0  0  0  0  0  0  0  0  0  0  0  0
   10.9010    1.5474   22.5826 H   0  0  0  0  0  0  0  0  0  0  0  0
    8.0593   -1.6239   21.0632 H   0  0  0  0  0  0  0  0  0  0  0  0
  1  2  1  0  0  0  0
  1  3  2  0  0  0  0
  2  6  2  0  0  0  0
  3  7  1  0  0  0  0
  4  5  1  0  0  0  0
  4 10  2  0  0  0  0
  5 11  2  0  0  0  0
  6 15  1  0  0  0  0
  7 15  2  0  0  0  0
  8 12  2  0  0  0  0
  8 14  1  0  0  0  0
  9 13  1  0  0  0  0
  9 14  2  0  0  0  0
 10 16  1  0  0  0  0
 11 17  1  0  0  0  0
 12 18  1  0  0  0  0
 13 18  2  0  0  0  0
 14 20  1  0  0  0  0
 15 21  1  0  0  0  0
 16 17  2  0  0  0  0
 16 22  1  0  0  0  0
 17 24  1  0  0  0  0
 18 26  1  0  0  0  0
 19 25  1  0  0  0  0
 19 26  1  0  0  0  0
 19 27  2  0  0  0  0
 21 26  1  0  0  0  0
 22 23  2  0  0  0  0
 23 24  1  0  0  0  0
 24 25  1  0  0  0  0
  1 28  1  0  0  0  0
  2 29  1  0  0  0  0
  3 30  1  0  0  0  0
  4 31  1  0  0  0  0
  5 32  1  0  0  0  0
  6 33  1  0  0  0  0
  7 34  1  0  0  0  0
  8 35  1  0  0  0  0
  9 36  1  0  0  0  0
 10 37  1  0  0  0  0
 11 38  1  0  0  0  0
 12 39  1  0  0  0  0
 13 40  1  0  0  0  0
 20 41  1  0  0  0  0
 20 42  1  0  0  0  0
 20 43  1  0  0  0  0
 21 44  1  0  0  0  0
 21 45  1  0  0  0  0
 25 46  1  0  0  0  0
M  END
> <clash_score>
0

> <docking_score>
-8.894648551940918

> <overlap_score>
0.8988577127456665

$$$$
BENZO_12_1
  -OEChem-08232013513D

 43 46  0     0  0  0  0  0  0999 V2000
    3.8860    2.1050   19.5250 C   0  0  0  0  0  0  0  0  0  0  0  0
    4.2460    1.7520   20.8250 C   0  0  0  0  0  0  0  0  0  0  0  0
    9.1890   -3.5540   24.0140 C   0  0  0  0  0  0  0  0  0  0  0  0
    7.8700   -2.0610   25.3550 C   0  0  0  0  0  0  0  0  0  0  0  0
    4.6610    1.7170   18.4380 C   0  0  0  0  0  0  0  0  0  0  0  0
    5.3890    1.0010   21.0690 C   0  0  0  0  0  0  0  0  0  0  0  0
    9.5890   -2.4950   23.2210 C   0  0  0  0  0  0  0  0  0  0  0  0
    8.2550   -1.0010   24.5520 C   0  0  0  0  0  0  0  0  0  0  0  0
   12.6434   -0.3194   24.6623 C   0  0  0  0  0  0  0  0  0  0  0  0
   13.7588   -1.1164   24.5274 C   0  0  0  0  0  0  0  0  0  0  0  0
   12.6051   -0.7715   22.3827 C   0  0  0  0  0  0  0  0  0  0  0  0
    8.3450   -3.3440   25.0980 C   0  0  0  0  0  0  0  0  0  0  0  0
   11.9749   -0.1196   23.4200 C   0  0  0  0  0  0  0  0  0  0  0  0
    5.7970    0.9500   18.6730 C   0  0  0  0  0  0  0  0  0  0  0  0
    6.1460    0.6070   19.9750 C   0  0  0  0  0  0  0  0  0  0  0  0
    9.1280   -1.2090   23.4870 C   0  0  0  0  0  0  0  0  0  0  0  0
    9.0430    0.2380   21.4940 C   0  0  0  0  0  0  0  0  0  0  0  0
    7.9522   -4.4794   25.9764 C   0  0  0  0  0  0  0  0  0  0  0  0
   10.7306    0.7056   23.2620 C   0  0  0  0  0  0  0  0  0  0  0  0
    6.7100    0.3850   17.8100 N   0  0  0  0  0  0  0  0  0  0  0  0
    7.5840   -0.2700   18.5160 N   0  0  0  0  0  0  0  0  0  0  0  0
    7.2710   -0.1460   19.8310 N   0  0  0  0  0  0  0  0  0  0  0  0
    8.0950   -0.7700   20.8440 N   0  0  0  0  0  0  0  0  0  0  0  0
    9.5820   -0.1080   22.7000 N   0  0  0  0  0  0  0  0  0  0  0  0
    9.2950    1.3000   20.9480 O   0  0  0  0  0  0  0  0  0  0  0  0
   13.9965   -1.6202   22.9081 S   0  0  0  0  0  0  0  0  0  0  0  0
    2.9846    2.6932   19.3610 H   0  0  0  0  0  0  0  0  0  0  0  0
    3.6235    2.0692   21.6570 H   0  0  0  0  0  0  0  0  0  0  0  0
    9.5403   -4.5627   23.7809 H   0  0  0  0  0  0  0  0  0  0  0  0
    7.1911   -1.8848   26.1904 H   0  0  0  0  0  0  0  0  0  0  0  0
    4.3785    2.0113   17.4257 H   0  0  0  0  0  0  0  0  0  0  0  0
    5.6763    0.7332   22.0915 H   0  0  0  0  0  0  0  0  0  0  0  0
   10.2682   -2.6746   22.3865 H   0  0  0  0  0  0  0  0  0  0  0  0
    7.8684   -0.0022   24.7594 H   0  0  0  0  0  0  0  0  0  0  0  0
   12.3259    0.0988   25.6092 H   0  0  0  0  0  0  0  0  0  0  0  0
   14.4459   -1.4264   25.3020 H   0  0  0  0  0  0  0  0  0  0  0  0
   12.3190   -0.7916   21.3402 H   0  0  0  0  0  0  0  0  0  0  0  0
    8.6668   -4.5891   26.8013 H   0  0  0  0  0  0  0  0  0  0  0  0
    6.9513   -4.3276   26.4010 H   0  0  0  0  0  0  0  0  0  0  0  0
    7.9196   -5.4231   25.4163 H   0  0  0  0  0  0  0  0  0  0  0  0
   10.4193    1.1232   24.2257 H   0  0  0  0  0  0  0  0  0  0  0  0
   10.9010    1.5474   22.5826 H   0  0  0  0  0  0  0  0  0  0  0  0
    8.0593   -1.6239   21.0632 H   0  0  0  0  0  0  0  0  0  0  0  0
  1  2  1  0  0  0  0
  1  5  2  0  0  0  0
  2  6  2  0  0  0  0
  3  7  2  0  0  0  0
  3 12  1  0  0  0  0
  4  8  1  0  0  0  0
  4 12  2  0  0  0  0
  5 14  1  0  0  0  0
  6 15  1  0  0  0  0
  7 16  1  0  0  0  0
  8 16  2  0  0  0  0
  9 10  2  0  0  0  0
  9 13  1  0  0  0  0
 10 26  1  0  0  0  0
 11 13  2  0  0  0  0
 11 26  1  0  0  0  0
 12 18  1  0  0  0  0
 13 19  1  0  0  0  0
 14 15  2  0  0  0  0
 14 20  1  0  0  0  0
 15 22  1  0  0  0  0
 16 24  1  0  0  0  0
 17 23  1  0  0  0  0
 17 24  1  0  0  0  0
 17 25  2  0  0  0  0
 19 24  1  0  0  0  0
 20 21  2  0  0  0  0
 21 22  1  0  0  0  0
 22 23  1  0  0  0  0
  1 27  1  0  0  0  0
  2 28  1  0  0  0  0
  3 29  1  0  0  0  0
  4 30  1  0  0  0  0
  5 31  1  0  0  0  0
  6 32  1  0  0  0  0
  7 33  1  0  0  0  0
  8 34  1  0  0  0  0
  9 35  1  0  0  0  0
 10 36  1  0  0  0  0
 11 37  1  0  0  0  0
 18 38  1  0  0  0  0
 18 39  1  0  0  0  0
 18 40  1  0  0  0  0
 19 41  1  0  0  0  0
 19 42  1  0  0  0  0
 23 43  1  0  0  0  0
M  END
> <clash_score>
0

> <docking_score>
-8.48381519317627

> <overlap_score>
0.8842465281486511

$$$$
BENZO_15_1
  -OEChem-08232013513D

 46 49  0     0  0  0  0  0  0999 V2000
    3.8860    2.1050   19.5250 C   0  0  0  0  0  0  0  0  0  0  0  0
    4.2460    1.7520   20.8250 C   0  0  0  0  0  0  0  0  0  0  0  0
    9.1890   -3.5540   24.0140 C   0  0  0  0  0  0  0  0  0  0  0  0
    7.8700   -2.0610   25.3550 C   0  0  0  0  0  0  0  0  0  0  0  0
    4.6610    1.7170   18.4380 C   0  0  0  0  0  0  0  0  0  0  0  0
    5.3890    1.0010   21.0690 C   0  0  0  0  0  0  0  0  0  0  0  0
    9.5890   -2.4950   23.2210 C   0  0  0  0  0  0  0  0  0  0  0  0
    8.2550   -1.0010   24.5520 C   0  0  0  0  0  0  0  0  0  0  0  0
   12.7002   -0.3717   24.5999 C   0  0  0  0  0  0  0  0  0  0  0  0
   12.6599   -0.8009   22.4437 C   0  0  0  0  0  0  0  0  0  0  0  0
    8.3450   -3.3440   25.0980 C   0  0  0  0  0  0  0  0  0  0  0  0
   11.9749   -0.1196   23.4200 C   0  0  0  0  0  0  0  0  0  0  0  0
    5.7970    0.9500   18.6730 C   0  0  0  0  0  0  0  0  0  0  0  0
    6.1460    0.6070   19.9750 C   0  0  0  0  0  0  0  0  0  0  0  0
    9.1280   -1.2090   23.4870 C   0  0  0  0  0  0  0  0  0  0  0  0
    9.0430    0.2380   21.4940 C   0  0  0  0  0  0  0  0  0  0  0  0
    7.9522   -4.4794   25.9764 C   0  0  0  0  0  0  0  0  0  0  0  0
   14.7209   -2.2259   22.4582 C   0  0  0  0  0  0  0  0  0  0  0  0
   10.7306    0.7056   23.2620 C   0  0  0  0  0  0  0  0  0  0  0  0
   13.7643   -1.1524   24.3942 N   0  0  0  0  0  0  0  0  0  0  0  0
    6.7100    0.3850   17.8100 N   0  0  0  0  0  0  0  0  0  0  0  0
    7.5840   -0.2700   18.5160 N   0  0  0  0  0  0  0  0  0  0  0  0
   13.7126   -1.3968   23.0737 N   0  0  0  0  0  0  0  0  0  0  0  0
    7.2710   -0.1460   19.8310 N   0  0  0  0  0  0  0  0  0  0  0  0
    8.0950   -0.7700   20.8440 N   0  0  0  0  0  0  0  0  0  0  0  0
    9.5820   -0.1080   22.7000 N   0  0  0  0  0  0  0  0  0  0  0  0
    9.2950    1.3000   20.9480 O   0  0  0  0  0  0  0  0  0  0  0  0
    2.9846    2.6932   19.3610 H   0  0  0  0  0  0  0  0  0  0  0  0
    3.6235    2.0692   21.6570 H   0  0  0  0  0  0  0  0  0  0  0  0
    9.5403   -4.5627   23.7809 H   0  0  0  0  0  0  0  0  0  0  0  0
    7.1911   -1.8848   26.1904 H   0  0  0  0  0  0  0  0  0  0  0  0
    4.3785    2.0113   17.4257 H   0  0  0  0  0  0  0  0  0  0  0  0
    5.6763    0.7332   22.0915 H   0  0  0  0  0  0  0  0  0  0  0  0
   10.2682   -2.6746   22.3865 H   0  0  0  0  0  0  0  0  0  0  0  0
    7.8684   -0.0022   24.7594 H   0  0  0  0  0  0  0  0  0  0  0  0
   12.4992   -0.0209   25.6023 H   0  0  0  0  0  0  0  0  0  0  0  0
   12.4913   -0.9109   21.3810 H   0  0  0  0  0  0  0  0  0  0  0  0
    8.6668   -4.5891   26.8013 H   0  0  0  0  0  0  0  0  0  0  0  0
    6.9513   -4.3276   26.4010 H   0  0  0  0  0  0  0  0  0  0  0  0
    7.9196   -5.4231   25.4163 H   0  0  0  0  0  0  0  0  0  0  0  0
   15.5400   -1.5776   22.1360 H   0  0  0  0  0  0  0  0  0  0  0  0
   15.0788   -2.9625   23.1830 H   0  0  0  0  0  0  0  0  0  0  0  0
   14.2858   -2.7484   21.6018 H   0  0  0  0  0  0  0  0  0  0  0  0
   10.4193    1.1232   24.2257 H   0  0  0  0  0  0  0  0  0  0  0  0
   10.9010    1.5474   22.5826 H   0  0  0  0  0  0  0  0  0  0  0  0
    8.0593   -1.6239   21.0632 H   0  0  0  0  0  0  0  0  0  0  0  0
  1  2  1  0  0  0  0
  1  5  2  0  0  0  0
  2  6  2  0  0  0  0
  3  7  2  0  0  0  0
  3 11  1  0  0  0  0
  4  8  1  0  0  0  0
  4 11  2  0  0  0  0
  5 13  1  0  0  0  0
  6 14  1  0  0  0  0
  7 15  1  0  0  0  0
  8 15  2  0  0  0  0
  9 12  1  0  0  0  0
  9 20  2  0  0  0  0
 10 12  2  0  0  0  0
 10 23  1  0  0  0  0
 11 17  1  0  0  0  0
 12 19  1  0  0  0  0
 13 14  2  0  0  0  0
 13 21  1  0  0  0  0
 14 24  1  0  0  0  0
 15 26  1  0  0  0  0
 16 25  1  0  0  0  0
 16 26  1  0  0  0  0
 16 27  2  0  0  0  0
 18 23  1  0  0  0  0
 19 26  1  0  0  0  0
 20 23  1  0  0  0  0
 21 22  2  0  0  0  0
 22 24  1  0  0  0  0
 24 25  1  0  0  0  0
  1 28  1  0  0  0  0
  2 29  1  0  0  0  0
  3 30  1  0  0  0  0
  4 31  1  0  0  0  0
  5 32  1  0  0  0  0
  6 33  1  0  0  0  0
  7 34  1  0  0  0  0
  8 35  1  0  0  0  0
  9 36  1  0  0  0  0
 10 37  1  0  0  0  0
 17 38  1  0  0  0  0
 17 39  1  0  0  0  0
 17 40  1  0  0  0  0
 18 41  1  0  0  0  0
 18 42  1  0  0  0  0
 18 43  1  0  0  0  0
 19 44  1  0  0  0  0
 19 45  1  0  0  0  0
 25 46  1  0  0  0  0
M  END
> <clash_score>
0

> <docking_score>
-7.439068794250488

> <overlap_score>
0.9019553065299988

$$$$
BENZO_14_1
  -OEChem-08232013513D

 46 49  0     0  0  0  0  0  0999 V2000
    3.8860    2.1050   19.5250 C   0  0  0  0  0  0  0  0  0  0  0  0
    4.2460    1.7520   20.8250 C   0  0  0  0  0  0  0  0  0  0  0  0
   13.7179   -1.0279   24.8248 C   0  0  0  0  0  0  0  0  0  0  0  0
   12.5626   -0.2605   24.6771 C   0  0  0  0  0  0  0  0  0  0  0  0
    9.1890   -3.5540   24.0140 C   0  0  0  0  0  0  0  0  0  0  0  0
    7.8700   -2.0610   25.3550 C   0  0  0  0  0  0  0  0  0  0  0  0
    4.6610    1.7170   18.4380 C   0  0  0  0  0  0  0  0  0  0  0  0
    5.3890    1.0010   21.0690 C   0  0  0  0  0  0  0  0  0  0  0  0
    9.5890   -2.4950   23.2210 C   0  0  0  0  0  0  0  0  0  0  0  0
    8.2550   -1.0010   24.5520 C   0  0  0  0  0  0  0  0  0  0  0  0
   14.2857   -1.6544   23.7153 C   0  0  0  0  0  0  0  0  0  0  0  0
   12.5426   -0.7461   22.3105 C   0  0  0  0  0  0  0  0  0  0  0  0
    8.3450   -3.3440   25.0980 C   0  0  0  0  0  0  0  0  0  0  0  0
   11.9749   -0.1196   23.4200 C   0  0  0  0  0  0  0  0  0  0  0  0
    5.7970    0.9500   18.6730 C   0  0  0  0  0  0  0  0  0  0  0  0
    6.1460    0.6070   19.9750 C   0  0  0  0  0  0  0  0  0  0  0  0
    9.1280   -1.2090   23.4870 C   0  0  0  0  0  0  0  0  0  0  0  0
   13.6980   -1.5135   22.4582 C   0  0  0  0  0  0  0  0  0  0  0  0
    9.0430    0.2380   21.4940 C   0  0  0  0  0  0  0  0  0  0  0  0
    7.9522   -4.4794   25.9764 C   0  0  0  0  0  0  0  0  0  0  0  0
   10.7306    0.7056   23.2620 C   0  0  0  0  0  0  0  0  0  0  0  0
    6.7100    0.3850   17.8100 N   0  0  0  0  0  0  0  0  0  0  0  0
    7.5840   -0.2700   18.5160 N   0  0  0  0  0  0  0  0  0  0  0  0
    7.2710   -0.1460   19.8310 N   0  0  0  0  0  0  0  0  0  0  0  0
    8.0950   -0.7700   20.8440 N   0  0  0  0  0  0  0  0  0  0  0  0
    9.5820   -0.1080   22.7000 N   0  0  0  0  0  0  0  0  0  0  0  0
    9.2950    1.3000   20.9480 O   0  0  0  0  0  0  0  0  0  0  0  0
   14.3982   -2.2876   21.0899 Cl  0  0  0  0  0  0  0  0  0  0  0  0
    2.9846    2.6932   19.3610 H   0  0  0  0  0  0  0  0  0  0  0  0
    3.6235    2.0692   21.6570 H   0  0  0  0  0  0  0  0  0  0  0  0
   14.1752   -1.1375   25.8039 H   0  0  0  0  0  0  0  0  0  0  0  0
   12.1270    0.2240   25.5471 H   0  0  0  0  0  0  0  0  0  0  0  0
    9.5403   -4.5627   23.7809 H   0  0  0  0  0  0  0  0  0  0  0  0
    7.1911   -1.8848   26.1904 H   0  0  0  0  0  0  0  0  0  0  0  0
    4.3785    2.0113   17.4257 H   0  0  0  0  0  0  0  0  0  0  0  0
    5.6763    0.7332   22.0915 H   0  0  0  0  0  0  0  0  0  0  0  0
   10.2682   -2.6746   22.3865 H   0  0  0  0  0  0  0  0  0  0  0  0
    7.8684   -0.0022   24.7594 H   0  0  0  0  0  0  0  0  0  0  0  0
   15.1861   -2.2497   23.8454 H   0  0  0  0  0  0  0  0  0  0  0  0
   12.0809   -0.6327   21.3323 H   0  0  0  0  0  0  0  0  0  0  0  0
    8.6668   -4.5891   26.8013 H   0  0  0  0  0  0  0  0  0  0  0  0
    6.9513   -4.3276   26.4010 H   0  0  0  0  0  0  0  0  0  0  0  0
    7.9196   -5.4231   25.4163 H   0  0  0  0  0  0  0  0  0  0  0  0
   10.4193    1.1232   24.2257 H   0  0  0  0  0  0  0  0  0  0  0  0
   10.9010    1.5474   22.5826 H   0  0  0  0  0  0  0  0  0  0  0  0
    8.0593   -1.6239   21.0632 H   0  0  0  0  0  0  0  0  0  0  0  0
  1  2  1  0  0  0  0
  1  7  2  0  0  0  0
  2  8  2  0  0  0  0
  3  4  2  0  0  0  0
  3 11  1  0  0  0  0
  4 14  1  0  0  0  0
  5  9  2  0  0  0  0
  5 13  1  0  0  0  0
  6 10  1  0  0  0  0
  6 13  2  0  0  0  0
  7 15  1  0  0  0  0
  8 16  1  0  0  0  0
  9 17  1  0  0  0  0
 10 17  2  0  0  0  0
 11 18  2  0  0  0  0
 12 14  2  0  0  0  0
 12 18  1  0  0  0  0
 13 20  1  0  0  0  0
 14 21  1  0  0  0  0
 15 16  2  0  0  0  0
 15 22  1  0  0  0  0
 16 24  1  0  0  0  0
 17 26  1  0  0  0  0
 18 28  1  0  0  0  0
 19 25  1  0  0  0  0
 19 26  1  0  0  0  0
 19 27  2  0  0  0  0
 21 26  1  0  0  0  0
 22 23  2  0  0  0  0
 23 24  1  0  0  0  0
 24 25  1  0  0  0  0
  1 29  1  0  0  0  0
  2 30  1  0  0  0  0
  3 31  1  0  0  0  0
  4 32  1  0  0  0  0
  5 33  1  0  0  0  0
  6 34  1  0  0  0  0
  7 35  1  0  0  0  0
  8 36  1  0  0  0  0
  9 37  1  0  0  0  0
 10 38  1  0  0  0  0
 11 39  1  0  0  0  0
 12 40  1  0  0  0  0
 20 41  1  0  0  0  0
 20 42  1  0  0  0  0
 20 43  1  0  0  0  0
 21 44  1  0  0  0  0
 21 45  1  0  0  0  0
 25 46  1  0  0  0  0
M  END
> <clash_score>
0

> <docking_score>
-7.957911968231201

> <overlap_score>
0.9074001312255859

$$$$
BENZO_11_1
  -OEChem-08232013513D

 58 62  0     0  0  0  0  0  0999 V2000
    3.8860    2.1050   19.5250 C   0  0  0  0  0  0  0  0  0  0  0  0
    4.2460    1.7520   20.8250 C   0  0  0  0  0  0  0  0  0  0  0  0
    4.6610    1.7170   18.4380 C   0  0  0  0  0  0  0  0  0  0  0  0
    5.3890    1.0010   21.0690 C   0  0  0  0  0  0  0  0  0  0  0  0
    9.1890   -3.5540   24.0140 C   0  0  0  0  0  0  0  0  0  0  0  0
    7.8700   -2.0610   25.3550 C   0  0  0  0  0  0  0  0  0  0  0  0
    9.5890   -2.4950   23.2210 C   0  0  0  0  0  0  0  0  0  0  0  0
    8.2550   -1.0010   24.5520 C   0  0  0  0  0  0  0  0  0  0  0  0
   13.3073    0.3433   23.5072 C   0  0  0  0  0  0  0  0  0  0  0  0
   12.2854   -0.9762   22.0756 C   0  0  0  0  0  0  0  0  0  0  0  0
   12.0471    0.0566   22.9490 C   0  0  0  0  0  0  0  0  0  0  0  0
    5.7970    0.9500   18.6730 C   0  0  0  0  0  0  0  0  0  0  0  0
    6.1460    0.6070   19.9750 C   0  0  0  0  0  0  0  0  0  0  0  0
    8.3450   -3.3440   25.0980 C   0  0  0  0  0  0  0  0  0  0  0  0
    9.1280   -1.2090   23.4870 C   0  0  0  0  0  0  0  0  0  0  0  0
    9.0430    0.2380   21.4940 C   0  0  0  0  0  0  0  0  0  0  0  0
    7.5748   -4.8280   28.7278 C   0  0  0  0  0  0  0  0  0  0  0  0
    8.9776   -4.7555   28.1204 C   0  0  0  0  0  0  0  0  0  0  0  0
    6.5554   -4.0713   27.8732 C   0  0  0  0  0  0  0  0  0  0  0  0
    8.9620   -5.1961   26.6568 C   0  0  0  0  0  0  0  0  0  0  0  0
    6.6009   -4.5253   26.4110 C   0  0  0  0  0  0  0  0  0  0  0  0
   14.3467   -2.2439   21.4255 C   0  0  0  0  0  0  0  0  0  0  0  0
   10.7356    0.7259   23.2427 C   0  0  0  0  0  0  0  0  0  0  0  0
   14.2743   -0.4439   23.0287 N   0  0  0  0  0  0  0  0  0  0  0  0
    6.7100    0.3850   17.8100 N   0  0  0  0  0  0  0  0  0  0  0  0
    7.5840   -0.2700   18.5160 N   0  0  0  0  0  0  0  0  0  0  0  0
   13.6217   -1.2356   22.1607 N   0  0  0  0  0  0  0  0  0  0  0  0
    7.2710   -0.1460   19.8310 N   0  0  0  0  0  0  0  0  0  0  0  0
    7.9770   -4.4029   25.9163 N   0  0  0  0  0  0  0  0  0  0  0  0
    8.0950   -0.7700   20.8440 N   0  0  0  0  0  0  0  0  0  0  0  0
    9.5820   -0.1080   22.7000 N   0  0  0  0  0  0  0  0  0  0  0  0
    9.2950    1.3000   20.9480 O   0  0  0  0  0  0  0  0  0  0  0  0
    2.9846    2.6932   19.3610 H   0  0  0  0  0  0  0  0  0  0  0  0
    3.6235    2.0692   21.6570 H   0  0  0  0  0  0  0  0  0  0  0  0
    4.3785    2.0113   17.4257 H   0  0  0  0  0  0  0  0  0  0  0  0
    5.6763    0.7332   22.0915 H   0  0  0  0  0  0  0  0  0  0  0  0
    9.5426   -4.5618   23.7797 H   0  0  0  0  0  0  0  0  0  0  0  0
    7.1914   -1.8824   26.1903 H   0  0  0  0  0  0  0  0  0  0  0  0
   10.2669   -2.6745   22.3854 H   0  0  0  0  0  0  0  0  0  0  0  0
    7.8690   -0.0020   24.7587 H   0  0  0  0  0  0  0  0  0  0  0  0
   13.5635    1.0920   24.2435 H   0  0  0  0  0  0  0  0  0  0  0  0
   11.6338   -1.5358   21.4181 H   0  0  0  0  0  0  0  0  0  0  0  0
    7.2681   -5.8808   28.8239 H   0  0  0  0  0  0  0  0  0  0  0  0
    7.5890   -4.4101   29.7448 H   0  0  0  0  0  0  0  0  0  0  0  0
    9.3554   -3.7320   28.1920 H   0  0  0  0  0  0  0  0  0  0  0  0
    9.6558   -5.3943   28.6900 H   0  0  0  0  0  0  0  0  0  0  0  0
    5.5496   -4.2322   28.2751 H   0  0  0  0  0  0  0  0  0  0  0  0
    6.7545   -2.9948   27.9293 H   0  0  0  0  0  0  0  0  0  0  0  0
    9.9612   -5.0560   26.2363 H   0  0  0  0  0  0  0  0  0  0  0  0
    8.7097   -6.2583   26.5922 H   0  0  0  0  0  0  0  0  0  0  0  0
    6.2649   -5.5600   26.3335 H   0  0  0  0  0  0  0  0  0  0  0  0
    5.9271   -3.8964   25.8283 H   0  0  0  0  0  0  0  0  0  0  0  0
   14.6975   -1.7944   20.4928 H   0  0  0  0  0  0  0  0  0  0  0  0
   15.1930   -2.5928   22.0237 H   0  0  0  0  0  0  0  0  0  0  0  0
   13.6825   -3.0877   21.2184 H   0  0  0  0  0  0  0  0  0  0  0  0
   10.6024    0.8573   24.3221 H   0  0  0  0  0  0  0  0  0  0  0  0
   10.6908    1.7202   22.7861 H   0  0  0  0  0  0  0  0  0  0  0  0
    8.0897   -1.6082   21.0890 H   0  0  0  0  0  0  0  0  0  0  0  0
  1  2  1  0  0  0  0
  1  3  2  0  0  0  0
  2  4  2  0  0  0  0
  3 12  1  0  0  0  0
  4 13  1  0  0  0  0
  5  7  2  0  0  0  0
  5 14  1  0  0  0  0
  6  8  1  0  0  0  0
  6 14  2  0  0  0  0
  7 15  1  0  0  0  0
  8 15  2  0  0  0  0
  9 11  1  0  0  0  0
  9 24  2  0  0  0  0
 10 11  2  0  0  0  0
 10 27  1  0  0  0  0
 11 23  1  0  0  0  0
 12 13  2  0  0  0  0
 12 25  1  0  0  0  0
 13 28  1  0  0  0  0
 14 29  1  0  0  0  0
 15 31  1  0  0  0  0
 16 30  1  0  0  0  0
 16 31  1  0  0  0  0
 16 32  2  0  0  0  0
 17 18  1  0  0  0  0
 17 19  1  0  0  0  0
 18 20  1  0  0  0  0
 19 21  1  0  0  0  0
 20 29  1  0  0  0  0
 21 29  1  0  0  0  0
 22 27  1  0  0  0  0
 23 31  1  0  0  0  0
 24 27  1  0  0  0  0
 25 26  2  0  0  0  0
 26 28  1  0  0  0  0
 28 30  1  0  0  0  0
  1 33  1  0  0  0  0
  2 34  1  0  0  0  0
  3 35  1  0  0  0  0
  4 36  1  0  0  0  0
  5 37  1  0  0  0  0
  6 38  1  0  0  0  0
  7 39  1  0  0  0  0
  8 40  1  0  0  0  0
  9 41  1  0  0  0  0
 10 42  1  0  0  0  0
 17 43  1  0  0  0  0
 17 44  1  0  0  0  0
 18 45  1  0  0  0  0
 18 46  1  0  0  0  0
 19 47  1  0  0  0  0
 19 48  1  0  0  0  0
 20 49  1  0  0  0  0
 20 50  1  0  0  0  0
 21 51  1  0  0  0  0
 21 52  1  0  0  0  0
 22 53  1  0  0  0  0
 22 54  1  0  0  0  0
 22 55  1  0  0  0  0
 23 56  1  0  0  0  0
 23 57  1  0  0  0  0
 30 58  1  0  0  0  0
M  END
> <clash_score>
0

> <docking_score>
-9.603043556213379

> <overlap_score>
0.9717989563941956

$$$$
BENZO_10_1
  -OEChem-08232013513D

 58 62  0     0  0  0  0  0  0999 V2000
    3.8860    2.1050   19.5250 C   0  0  0  0  0  0  0  0  0  0  0  0
    4.2460    1.7520   20.8250 C   0  0  0  0  0  0  0  0  0  0  0  0
   13.7028   -1.0520   24.7941 C   0  0  0  0  0  0  0  0  0  0  0  0
   12.5610   -0.2638   24.6500 C   0  0  0  0  0  0  0  0  0  0  0  0
    4.6610    1.7170   18.4380 C   0  0  0  0  0  0  0  0  0  0  0  0
    5.3890    1.0010   21.0690 C   0  0  0  0  0  0  0  0  0  0  0  0
    9.1890   -3.5540   24.0140 C   0  0  0  0  0  0  0  0  0  0  0  0
    7.8700   -2.0610   25.3550 C   0  0  0  0  0  0  0  0  0  0  0  0
    9.5890   -2.4950   23.2210 C   0  0  0  0  0  0  0  0  0  0  0  0
    8.2550   -1.0010   24.5520 C   0  0  0  0  0  0  0  0  0  0  0  0
   14.2490   -1.6979   23.6849 C   0  0  0  0  0  0  0  0  0  0  0  0
   12.5114   -0.7676   22.2876 C   0  0  0  0  0  0  0  0  0  0  0  0
   11.9653   -0.1217   23.3968 C   0  0  0  0  0  0  0  0  0  0  0  0
    5.7970    0.9500   18.6730 C   0  0  0  0  0  0  0  0  0  0  0  0
    6.1460    0.6070   19.9750 C   0  0  0  0  0  0  0  0  0  0  0  0
    8.3450   -3.3440   25.0980 C   0  0  0  0  0  0  0  0  0  0  0  0
    9.1280   -1.2090   23.4870 C   0  0  0  0  0  0  0  0  0  0  0  0
   13.6532   -1.5557   22.4317 C   0  0  0  0  0  0  0  0  0  0  0  0
    9.0430    0.2380   21.4940 C   0  0  0  0  0  0  0  0  0  0  0  0
    7.5748   -4.8280   28.7278 C   0  0  0  0  0  0  0  0  0  0  0  0
    8.9776   -4.7555   28.1204 C   0  0  0  0  0  0  0  0  0  0  0  0
    6.5554   -4.0713   27.8732 C   0  0  0  0  0  0  0  0  0  0  0  0
    8.9620   -5.1961   26.6568 C   0  0  0  0  0  0  0  0  0  0  0  0
    6.6009   -4.5253   26.4110 C   0  0  0  0  0  0  0  0  0  0  0  0
   10.7356    0.7259   23.2427 C   0  0  0  0  0  0  0  0  0  0  0  0
    6.7100    0.3850   17.8100 N   0  0  0  0  0  0  0  0  0  0  0  0
    7.5840   -0.2700   18.5160 N   0  0  0  0  0  0  0  0  0  0  0  0
    7.2710   -0.1460   19.8310 N   0  0  0  0  0  0  0  0  0  0  0  0
    7.9770   -4.4029   25.9163 N   0  0  0  0  0  0  0  0  0  0  0  0
    8.0950   -0.7700   20.8440 N   0  0  0  0  0  0  0  0  0  0  0  0
    9.5820   -0.1080   22.7000 N   0  0  0  0  0  0  0  0  0  0  0  0
    9.2950    1.3000   20.9480 O   0  0  0  0  0  0  0  0  0  0  0  0
   14.3268   -2.3537   21.0638 Cl  0  0  0  0  0  0  0  0  0  0  0  0
    2.9846    2.6932   19.3610 H   0  0  0  0  0  0  0  0  0  0  0  0
    3.6235    2.0692   21.6570 H   0  0  0  0  0  0  0  0  0  0  0  0
   14.1663   -1.1626   25.7701 H   0  0  0  0  0  0  0  0  0  0  0  0
   12.1423    0.2357   25.5198 H   0  0  0  0  0  0  0  0  0  0  0  0
    4.3785    2.0113   17.4257 H   0  0  0  0  0  0  0  0  0  0  0  0
    5.6763    0.7332   22.0915 H   0  0  0  0  0  0  0  0  0  0  0  0
    9.5426   -4.5618   23.7797 H   0  0  0  0  0  0  0  0  0  0  0  0
    7.1914   -1.8824   26.1903 H   0  0  0  0  0  0  0  0  0  0  0  0
   10.2669   -2.6745   22.3854 H   0  0  0  0  0  0  0  0  0  0  0  0
    7.8690   -0.0020   24.7587 H   0  0  0  0  0  0  0  0  0  0  0  0
   15.1390   -2.3092   23.8121 H   0  0  0  0  0  0  0  0  0  0  0  0
   12.0435   -0.6531   21.3125 H   0  0  0  0  0  0  0  0  0  0  0  0
    7.2681   -5.8808   28.8239 H   0  0  0  0  0  0  0  0  0  0  0  0
    7.5890   -4.4101   29.7448 H   0  0  0  0  0  0  0  0  0  0  0  0
    9.3554   -3.7320   28.1920 H   0  0  0  0  0  0  0  0  0  0  0  0
    9.6558   -5.3943   28.6900 H   0  0  0  0  0  0  0  0  0  0  0  0
    5.5496   -4.2322   28.2751 H   0  0  0  0  0  0  0  0  0  0  0  0
    6.7545   -2.9948   27.9293 H   0  0  0  0  0  0  0  0  0  0  0  0
    9.9612   -5.0560   26.2363 H   0  0  0  0  0  0  0  0  0  0  0  0
    8.7097   -6.2583   26.5922 H   0  0  0  0  0  0  0  0  0  0  0  0
    6.2649   -5.5600   26.3335 H   0  0  0  0  0  0  0  0  0  0  0  0
    5.9271   -3.8964   25.8283 H   0  0  0  0  0  0  0  0  0  0  0  0
   10.4406    1.1569   24.2057 H   0  0  0  0  0  0  0  0  0  0  0  0
   10.9160    1.5589   22.5552 H   0  0  0  0  0  0  0  0  0  0  0  0
    8.0897   -1.6082   21.0890 H   0  0  0  0  0  0  0  0  0  0  0  0
  1  2  1  0  0  0  0
  1  5  2  0  0  0  0
  2  6  2  0  0  0  0
  3  4  2  0  0  0  0
  3 11  1  0  0  0  0
  4 13  1  0  0  0  0
  5 14  1  0  0  0  0
  6 15  1  0  0  0  0
  7  9  2  0  0  0  0
  7 16  1  0  0  0  0
  8 10  1  0  0  0  0
  8 16  2  0  0  0  0
  9 17  1  0  0  0  0
 10 17  2  0  0  0  0
 11 18  2  0  0  0  0
 12 13  2  0  0  0  0
 12 18  1  0  0  0  0
 13 25  1  0  0  0  0
 14 15  2  0  0  0  0
 14 26  1  0  0  0  0
 15 28  1  0  0  0  0
 16 29  1  0  0  0  0
 17 31  1  0  0  0  0
 18 33  1  0  0  0  0
 19 30  1  0  0  0  0
 19 31  1  0  0  0  0
 19 32  2  0  0  0  0
 20 21  1  0  0  0  0
 20 22  1  0  0  0  0
 21 23  1  0  0  0  0
 22 24  1  0  0  0  0
 23 29  1  0  0  0  0
 24 29  1  0  0  0  0
 25 31  1  0  0  0  0
 26 27  2  0  0  0  0
 27 28  1  0  0  0  0
 28 30  1  0  0  0  0
  1 34  1  0  0  0  0
  2 35  1  0  0  0  0
  3 36  1  0  0  0  0
  4 37  1  0  0  0  0
  5 38  1  0  0  0  0
  6 39  1  0  0  0  0
  7 40  1  0  0  0  0
  8 41  1  0  0  0  0
  9 42  1  0  0  0  0
 10 43  1  0  0  0  0
 11 44  1  0  0  0  0
 12 45  1  0  0  0  0
 20 46  1  0  0  0  0
 20 47  1  0  0  0  0
 21 48  1  0  0  0  0
 21 49  1  0  0  0  0
 22 50  1  0  0  0  0
 22 51  1  0  0  0  0
 23 52  1  0  0  0  0
 23 53  1  0  0  0  0
 24 54  1  0  0  0  0
 24 55  1  0  0  0  0
 25 56  1  0  0  0  0
 25 57  1  0  0  0  0
 30 58  1  0  0  0  0
M  END
> <clash_score>
0

> <docking_score>
-8.907659530639648

> <overlap_score>
0.9957913756370544

$$$$
BENZO_17_1
  -OEChem-08232013513D

 47 50  0     0  0  0  0  0  0999 V2000
   14.2863   -1.6540   23.7128 C   0  0  0  0  0  0  0  0  0  0  0  0
   14.0462   -0.5833   24.5740 C   0  0  0  0  0  0  0  0  0  0  0  0
   13.3708   -1.9574   22.7051 C   0  0  0  0  0  0  0  0  0  0  0  0
    3.8860    2.1050   19.5250 C   0  0  0  0  0  0  0  0  0  0  0  0
    4.2460    1.7520   20.8250 C   0  0  0  0  0  0  0  0  0  0  0  0
   12.8905    0.1838   24.4276 C   0  0  0  0  0  0  0  0  0  0  0  0
   12.2151   -1.1902   22.5587 C   0  0  0  0  0  0  0  0  0  0  0  0
    4.6610    1.7170   18.4380 C   0  0  0  0  0  0  0  0  0  0  0  0
    5.3890    1.0010   21.0690 C   0  0  0  0  0  0  0  0  0  0  0  0
    9.5890   -2.4950   23.2210 C   0  0  0  0  0  0  0  0  0  0  0  0
    8.2550   -1.0010   24.5520 C   0  0  0  0  0  0  0  0  0  0  0  0
    9.1890   -3.5540   24.0140 C   0  0  0  0  0  0  0  0  0  0  0  0
    7.8700   -2.0610   25.3550 C   0  0  0  0  0  0  0  0  0  0  0  0
   11.9749   -0.1196   23.4200 C   0  0  0  0  0  0  0  0  0  0  0  0
    5.7970    0.9500   18.6730 C   0  0  0  0  0  0  0  0  0  0  0  0
    6.1460    0.6070   19.9750 C   0  0  0  0  0  0  0  0  0  0  0  0
    9.1280   -1.2090   23.4870 C   0  0  0  0  0  0  0  0  0  0  0  0
    8.3450   -3.3440   25.0980 C   0  0  0  0  0  0  0  0  0  0  0  0
    9.0430    0.2380   21.4940 C   0  0  0  0  0  0  0  0  0  0  0  0
    8.5123   -5.6657   25.5744 C   0  0  0  0  0  0  0  0  0  0  0  0
   10.7306    0.7056   23.2620 C   0  0  0  0  0  0  0  0  0  0  0  0
    6.7100    0.3850   17.8100 N   0  0  0  0  0  0  0  0  0  0  0  0
    7.5840   -0.2700   18.5160 N   0  0  0  0  0  0  0  0  0  0  0  0
    7.2710   -0.1460   19.8310 N   0  0  0  0  0  0  0  0  0  0  0  0
    8.0950   -0.7700   20.8440 N   0  0  0  0  0  0  0  0  0  0  0  0
    9.5820   -0.1080   22.7000 N   0  0  0  0  0  0  0  0  0  0  0  0
    9.2950    1.3000   20.9480 O   0  0  0  0  0  0  0  0  0  0  0  0
    7.9864   -4.3799   25.8996 O   0  0  0  0  0  0  0  0  0  0  0  0
   15.1869   -2.2504   23.8261 H   0  0  0  0  0  0  0  0  0  0  0  0
   14.7595   -0.3463   25.3580 H   0  0  0  0  0  0  0  0  0  0  0  0
   13.5579   -2.7902   22.0338 H   0  0  0  0  0  0  0  0  0  0  0  0
    2.9846    2.6932   19.3610 H   0  0  0  0  0  0  0  0  0  0  0  0
    3.6235    2.0692   21.6570 H   0  0  0  0  0  0  0  0  0  0  0  0
   12.7116    1.0161   25.1034 H   0  0  0  0  0  0  0  0  0  0  0  0
   11.5073   -1.4341   21.7709 H   0  0  0  0  0  0  0  0  0  0  0  0
    4.3785    2.0113   17.4257 H   0  0  0  0  0  0  0  0  0  0  0  0
    5.6763    0.7332   22.0915 H   0  0  0  0  0  0  0  0  0  0  0  0
   10.2678   -2.6746   22.3862 H   0  0  0  0  0  0  0  0  0  0  0  0
    7.8691   -0.0023   24.7606 H   0  0  0  0  0  0  0  0  0  0  0  0
    9.5404   -4.5633   23.7846 H   0  0  0  0  0  0  0  0  0  0  0  0
    7.1920   -1.8875   26.1914 H   0  0  0  0  0  0  0  0  0  0  0  0
    8.1469   -6.4023   26.2941 H   0  0  0  0  0  0  0  0  0  0  0  0
    9.6044   -5.6298   25.5962 H   0  0  0  0  0  0  0  0  0  0  0  0
    8.1788   -5.9429   24.5716 H   0  0  0  0  0  0  0  0  0  0  0  0
   10.4193    1.1232   24.2257 H   0  0  0  0  0  0  0  0  0  0  0  0
   10.9010    1.5474   22.5826 H   0  0  0  0  0  0  0  0  0  0  0  0
    8.0593   -1.6239   21.0632 H   0  0  0  0  0  0  0  0  0  0  0  0
  1  2  1  0  0  0  0
  1  3  2  0  0  0  0
  2  6  2  0  0  0  0
  3  7  1  0  0  0  0
  4  5  1  0  0  0  0
  4  8  2  0  0  0  0
  5  9  2  0  0  0  0
  6 14  1  0  0  0  0
  7 14  2  0  0  0  0
  8 15  1  0  0  0  0
  9 16  1  0  0  0  0
 10 12  2  0  0  0  0
 10 17  1  0  0  0  0
 11 13  1  0  0  0  0
 11 17  2  0  0  0  0
 12 18  1  0  0  0  0
 13 18  2  0  0  0  0
 14 21  1  0  0  0  0
 15 16  2  0  0  0  0
 15 22  1  0  0  0  0
 16 24  1  0  0  0  0
 17 26  1  0  0  0  0
 18 28  1  0  0  0  0
 19 25  1  0  0  0  0
 19 26  1  0  0  0  0
 19 27  2  0  0  0  0
 20 28  1  0  0  0  0
 21 26  1  0  0  0  0
 22 23  2  0  0  0  0
 23 24  1  0  0  0  0
 24 25  1  0  0  0  0
  1 29  1  0  0  0  0
  2 30  1  0  0  0  0
  3 31  1  0  0  0  0
  4 32  1  0  0  0  0
  5 33  1  0  0  0  0
  6 34  1  0  0  0  0
  7 35  1  0  0  0  0
  8 36  1  0  0  0  0
  9 37  1  0  0  0  0
 10 38  1  0  0  0  0
 11 39  1  0  0  0  0
 12 40  1  0  0  0  0
 13 41  1  0  0  0  0
 20 42  1  0  0  0  0
 20 43  1  0  0  0  0
 20 44  1  0  0  0  0
 21 45  1  0  0  0  0
 21 46  1  0  0  0  0
 25 47  1  0  0  0  0
M  END
> <clash_score>
0

> <docking_score>
-9.014824867248535

> <overlap_score>
0.9121313095092773

$$$$
BENZO_19_1
  -OEChem-08232013513D

 47 50  0     0  0  0  0  0  0999 V2000
    3.8860    2.1050   19.5250 C   0  0  0  0  0  0  0  0  0  0  0  0
    4.2460    1.7520   20.8250 C   0  0  0  0  0  0  0  0  0  0  0  0
    4.6610    1.7170   18.4380 C   0  0  0  0  0  0  0  0  0  0  0  0
    5.3890    1.0010   21.0690 C   0  0  0  0  0  0  0  0  0  0  0  0
    9.5890   -2.4950   23.2210 C   0  0  0  0  0  0  0  0  0  0  0  0
    8.2550   -1.0010   24.5520 C   0  0  0  0  0  0  0  0  0  0  0  0
    9.1890   -3.5540   24.0140 C   0  0  0  0  0  0  0  0  0  0  0  0
    7.8700   -2.0610   25.3550 C   0  0  0  0  0  0  0  0  0  0  0  0
   12.7002   -0.3717   24.5999 C   0  0  0  0  0  0  0  0  0  0  0  0
   12.6599   -0.8009   22.4437 C   0  0  0  0  0  0  0  0  0  0  0  0
   11.9749   -0.1196   23.4200 C   0  0  0  0  0  0  0  0  0  0  0  0
    5.7970    0.9500   18.6730 C   0  0  0  0  0  0  0  0  0  0  0  0
    6.1460    0.6070   19.9750 C   0  0  0  0  0  0  0  0  0  0  0  0
    9.1280   -1.2090   23.4870 C   0  0  0  0  0  0  0  0  0  0  0  0
    8.3450   -3.3440   25.0980 C   0  0  0  0  0  0  0  0  0  0  0  0
    9.0430    0.2380   21.4940 C   0  0  0  0  0  0  0  0  0  0  0  0
   14.7209   -2.2259   22.4582 C   0  0  0  0  0  0  0  0  0  0  0  0
    8.5123   -5.6657   25.5744 C   0  0  0  0  0  0  0  0  0  0  0  0
   10.7306    0.7056   23.2620 C   0  0  0  0  0  0  0  0  0  0  0  0
   13.7643   -1.1524   24.3942 N   0  0  0  0  0  0  0  0  0  0  0  0
    6.7100    0.3850   17.8100 N   0  0  0  0  0  0  0  0  0  0  0  0
    7.5840   -0.2700   18.5160 N   0  0  0  0  0  0  0  0  0  0  0  0
   13.7126   -1.3968   23.0737 N   0  0  0  0  0  0  0  0  0  0  0  0
    7.2710   -0.1460   19.8310 N   0  0  0  0  0  0  0  0  0  0  0  0
    8.0950   -0.7700   20.8440 N   0  0  0  0  0  0  0  0  0  0  0  0
    9.5820   -0.1080   22.7000 N   0  0  0  0  0  0  0  0  0  0  0  0
    9.2950    1.3000   20.9480 O   0  0  0  0  0  0  0  0  0  0  0  0
    7.9864   -4.3799   25.8996 O   0  0  0  0  0  0  0  0  0  0  0  0
    2.9846    2.6932   19.3610 H   0  0  0  0  0  0  0  0  0  0  0  0
    3.6235    2.0692   21.6570 H   0  0  0  0  0  0  0  0  0  0  0  0
    4.3785    2.0113   17.4257 H   0  0  0  0  0  0  0  0  0  0  0  0
    5.6763    0.7332   22.0915 H   0  0  0  0  0  0  0  0  0  0  0  0
   10.2678   -2.6746   22.3862 H   0  0  0  0  0  0  0  0  0  0  0  0
    7.8691   -0.0023   24.7606 H   0  0  0  0  0  0  0  0  0  0  0  0
    9.5404   -4.5633   23.7846 H   0  0  0  0  0  0  0  0  0  0  0  0
    7.1920   -1.8875   26.1914 H   0  0  0  0  0  0  0  0  0  0  0  0
   12.4992   -0.0209   25.6023 H   0  0  0  0  0  0  0  0  0  0  0  0
   12.4913   -0.9109   21.3810 H   0  0  0  0  0  0  0  0  0  0  0  0
   15.5400   -1.5776   22.1360 H   0  0  0  0  0  0  0  0  0  0  0  0
   15.0788   -2.9625   23.1830 H   0  0  0  0  0  0  0  0  0  0  0  0
   14.2858   -2.7484   21.6018 H   0  0  0  0  0  0  0  0  0  0  0  0
    8.1469   -6.4023   26.2941 H   0  0  0  0  0  0  0  0  0  0  0  0
    9.6044   -5.6298   25.5962 H   0  0  0  0  0  0  0  0  0  0  0  0
    8.1788   -5.9429   24.5716 H   0  0  0  0  0  0  0  0  0  0  0  0
   10.4193    1.1232   24.2257 H   0  0  0  0  0  0  0  0  0  0  0  0
   10.9010    1.5474   22.5826 H   0  0  0  0  0  0  0  0  0  0  0  0
    8.0593   -1.6239   21.0632 H   0  0  0  0  0  0  0  0  0  0  0  0
  1  2  1  0  0  0  0
  1  3  2  0  0  0  0
  2  4  2  0  0  0  0
  3 12  1  0  0  0  0
  4 13  1  0  0  0  0
  5  7  2  0  0  0  0
  5 14  1  0  0  0  0
  6  8  1  0  0  0  0
  6 14  2  0  0  0  0
  7 15  1  0  0  0  0
  8 15  2  0  0  0  0
  9 11  1  0  0  0  0
  9 20  2  0  0  0  0
 10 11  2  0  0  0  0
 10 23  1  0  0  0  0
 11 19  1  0  0  0  0
 12 13  2  0  0  0  0
 12 21  1  0  0  0  0
 13 24  1  0  0  0  0
 14 26  1  0  0  0  0
 15 28  1  0  0  0  0
 16 25  1  0  0  0  0
 16 26  1  0  0  0  0
 16 27  2  0  0  0  0
 17 23  1  0  0  0  0
 18 28  1  0  0  0  0
 19 26  1  0  0  0  0
 20 23  1  0  0  0  0
 21 22  2  0  0  0  0
 22 24  1  0  0  0  0
 24 25  1  0  0  0  0
  1 29  1  0  0  0  0
  2 30  1  0  0  0  0
  3 31  1  0  0  0  0
  4 32  1  0  0  0  0
  5 33  1  0  0  0  0
  6 34  1  0  0  0  0
  7 35  1  0  0  0  0
  8 36  1  0  0  0  0
  9 37  1  0  0  0  0
 10 38  1  0  0  0  0
 17 39  1  0  0  0  0
 17 40  1  0  0  0  0
 17 41  1  0  0  0  0
 18 42  1  0  0  0  0
 18 43  1  0  0  0  0
 18 44  1  0  0  0  0
 19 45  1  0  0  0  0
 19 46  1  0  0  0  0
 25 47  1  0  0  0  0
M  END
> <clash_score>
0

> <docking_score>
-7.559247016906738

> <overlap_score>
0.9152203798294067

$$$$
BENZO_16_1
  -OEChem-08232013513D

 44 47  0     0  0  0  0  0  0999 V2000
    3.8860    2.1050   19.5250 C   0  0  0  0  0  0  0  0  0  0  0  0
    4.2460    1.7520   20.8250 C   0  0  0  0  0  0  0  0  0  0  0  0
    4.6610    1.7170   18.4380 C   0  0  0  0  0  0  0  0  0  0  0  0
    5.3890    1.0010   21.0690 C   0  0  0  0  0  0  0  0  0  0  0  0
    9.5890   -2.4950   23.2210 C   0  0  0  0  0  0  0  0  0  0  0  0
    8.2550   -1.0010   24.5520 C   0  0  0  0  0  0  0  0  0  0  0  0
    9.1890   -3.5540   24.0140 C   0  0  0  0  0  0  0  0  0  0  0  0
    7.8700   -2.0610   25.3550 C   0  0  0  0  0  0  0  0  0  0  0  0
   12.6234   -0.7932   22.3449 C   0  0  0  0  0  0  0  0  0  0  0  0
   13.7428   -1.4783   22.7635 C   0  0  0  0  0  0  0  0  0  0  0  0
   12.6233   -0.3157   24.6196 C   0  0  0  0  0  0  0  0  0  0  0  0
   11.9749   -0.1196   23.4200 C   0  0  0  0  0  0  0  0  0  0  0  0
    5.7970    0.9500   18.6730 C   0  0  0  0  0  0  0  0  0  0  0  0
    6.1460    0.6070   19.9750 C   0  0  0  0  0  0  0  0  0  0  0  0
    9.1280   -1.2090   23.4870 C   0  0  0  0  0  0  0  0  0  0  0  0
    8.3450   -3.3440   25.0980 C   0  0  0  0  0  0  0  0  0  0  0  0
    9.0430    0.2380   21.4940 C   0  0  0  0  0  0  0  0  0  0  0  0
    8.5123   -5.6657   25.5744 C   0  0  0  0  0  0  0  0  0  0  0  0
   10.7306    0.7056   23.2620 C   0  0  0  0  0  0  0  0  0  0  0  0
    6.7100    0.3850   17.8100 N   0  0  0  0  0  0  0  0  0  0  0  0
    7.5840   -0.2700   18.5160 N   0  0  0  0  0  0  0  0  0  0  0  0
    7.2710   -0.1460   19.8310 N   0  0  0  0  0  0  0  0  0  0  0  0
    8.0950   -0.7700   20.8440 N   0  0  0  0  0  0  0  0  0  0  0  0
    9.5820   -0.1080   22.7000 N   0  0  0  0  0  0  0  0  0  0  0  0
    9.2950    1.3000   20.9480 O   0  0  0  0  0  0  0  0  0  0  0  0
    7.9864   -4.3799   25.8996 O   0  0  0  0  0  0  0  0  0  0  0  0
   14.0081   -1.3081   24.4467 S   0  0  0  0  0  0  0  0  0  0  0  0
    2.9846    2.6932   19.3610 H   0  0  0  0  0  0  0  0  0  0  0  0
    3.6235    2.0692   21.6570 H   0  0  0  0  0  0  0  0  0  0  0  0
    4.3785    2.0113   17.4257 H   0  0  0  0  0  0  0  0  0  0  0  0
    5.6763    0.7332   22.0915 H   0  0  0  0  0  0  0  0  0  0  0  0
   10.2678   -2.6746   22.3862 H   0  0  0  0  0  0  0  0  0  0  0  0
    7.8691   -0.0023   24.7606 H   0  0  0  0  0  0  0  0  0  0  0  0
    9.5404   -4.5633   23.7846 H   0  0  0  0  0  0  0  0  0  0  0  0
    7.1920   -1.8875   26.1914 H   0  0  0  0  0  0  0  0  0  0  0  0
   12.2889   -0.7791   21.3152 H   0  0  0  0  0  0  0  0  0  0  0  0
   14.4170   -2.0711   22.1618 H   0  0  0  0  0  0  0  0  0  0  0  0
   12.3529    0.0735   25.5914 H   0  0  0  0  0  0  0  0  0  0  0  0
    8.1469   -6.4023   26.2941 H   0  0  0  0  0  0  0  0  0  0  0  0
    9.6044   -5.6298   25.5962 H   0  0  0  0  0  0  0  0  0  0  0  0
    8.1788   -5.9429   24.5716 H   0  0  0  0  0  0  0  0  0  0  0  0
   10.4193    1.1232   24.2257 H   0  0  0  0  0  0  0  0  0  0  0  0
   10.9010    1.5474   22.5826 H   0  0  0  0  0  0  0  0  0  0  0  0
    8.0593   -1.6239   21.0632 H   0  0  0  0  0  0  0  0  0  0  0  0
  1  2  1  0  0  0  0
  1  3  2  0  0  0  0
  2  4  2  0  0  0  0
  3 13  1  0  0  0  0
  4 14  1  0  0  0  0
  5  7  2  0  0  0  0
  5 15  1  0  0  0  0
  6  8  1  0  0  0  0
  6 15  2  0  0  0  0
  7 16  1  0  0  0  0
  8 16  2  0  0  0  0
  9 10  2  0  0  0  0
  9 12  1  0  0  0  0
 10 27  1  0  0  0  0
 11 12  2  0  0  0  0
 11 27  1  0  0  0  0
 12 19  1  0  0  0  0
 13 14  2  0  0  0  0
 13 20  1  0  0  0  0
 14 22  1  0  0  0  0
 15 24  1  0  0  0  0
 16 26  1  0  0  0  0
 17 23  1  0  0  0  0
 17 24  1  0  0  0  0
 17 25  2  0  0  0  0
 18 26  1  0  0  0  0
 19 24  1  0  0  0  0
 20 21  2  0  0  0  0
 21 22  1  0  0  0  0
 22 23  1  0  0  0  0
  1 28  1  0  0  0  0
  2 29  1  0  0  0  0
  3 30  1  0  0  0  0
  4 31  1  0  0  0  0
  5 32  1  0  0  0  0
  6 33  1  0  0  0  0
  7 34  1  0  0  0  0
  8 35  1  0  0  0  0
  9 36  1  0  0  0  0
 10 37  1  0  0  0  0
 11 38  1  0  0  0  0
 18 39  1  0  0  0  0
 18 40  1  0  0  0  0
 18 41  1  0  0  0  0
 19 42  1  0  0  0  0
 19 43  1  0  0  0  0
 23 44  1  0  0  0  0
M  END
> <clash_score>
0

> <docking_score>
-8.554368019104004

> <overlap_score>
0.8998451232910156

$$$$
BENZO_18_1
  -OEChem-08232013513D

 47 50  0     0  0  0  0  0  0999 V2000
    3.8860    2.1050   19.5250 C   0  0  0  0  0  0  0  0  0  0  0  0
    4.2460    1.7520   20.8250 C   0  0  0  0  0  0  0  0  0  0  0  0
   13.7179   -1.0279   24.8248 C   0  0  0  0  0  0  0  0  0  0  0  0
   12.5626   -0.2605   24.6771 C   0  0  0  0  0  0  0  0  0  0  0  0
    4.6610    1.7170   18.4380 C   0  0  0  0  0  0  0  0  0  0  0  0
    5.3890    1.0010   21.0690 C   0  0  0  0  0  0  0  0  0  0  0  0
    9.5890   -2.4950   23.2210 C   0  0  0  0  0  0  0  0  0  0  0  0
    8.2550   -1.0010   24.5520 C   0  0  0  0  0  0  0  0  0  0  0  0
    9.1890   -3.5540   24.0140 C   0  0  0  0  0  0  0  0  0  0  0  0
    7.8700   -2.0610   25.3550 C   0  0  0  0  0  0  0  0  0  0  0  0
   14.2857   -1.6544   23.7153 C   0  0  0  0  0  0  0  0  0  0  0  0
   12.5426   -0.7461   22.3105 C   0  0  0  0  0  0  0  0  0  0  0  0
   11.9749   -0.1196   23.4200 C   0  0  0  0  0  0  0  0  0  0  0  0
    5.7970    0.9500   18.6730 C   0  0  0  0  0  0  0  0  0  0  0  0
    6.1460    0.6070   19.9750 C   0  0  0  0  0  0  0  0  0  0  0  0
    9.1280   -1.2090   23.4870 C   0  0  0  0  0  0  0  0  0  0  0  0
    8.3450   -3.3440   25.0980 C   0  0  0  0  0  0  0  0  0  0  0  0
   13.6980   -1.5135   22.4582 C   0  0  0  0  0  0  0  0  0  0  0  0
    9.0430    0.2380   21.4940 C   0  0  0  0  0  0  0  0  0  0  0  0
    8.5123   -5.6657   25.5744 C   0  0  0  0  0  0  0  0  0  0  0  0
   10.7306    0.7056   23.2620 C   0  0  0  0  0  0  0  0  0  0  0  0
    6.7100    0.3850   17.8100 N   0  0  0  0  0  0  0  0  0  0  0  0
    7.5840   -0.2700   18.5160 N   0  0  0  0  0  0  0  0  0  0  0  0
    7.2710   -0.1460   19.8310 N   0  0  0  0  0  0  0  0  0  0  0  0
    8.0950   -0.7700   20.8440 N   0  0  0  0  0  0  0  0  0  0  0  0
    9.5820   -0.1080   22.7000 N   0  0  0  0  0  0  0  0  0  0  0  0
    9.2950    1.3000   20.9480 O   0  0  0  0  0  0  0  0  0  0  0  0
    7.9864   -4.3799   25.8996 O   0  0  0  0  0  0  0  0  0  0  0  0
   14.3982   -2.2876   21.0899 Cl  0  0  0  0  0  0  0  0  0  0  0  0
    2.9846    2.6932   19.3610 H   0  0  0  0  0  0  0  0  0  0  0  0
    3.6235    2.0692   21.6570 H   0  0  0  0  0  0  0  0  0  0  0  0
   14.1752   -1.1375   25.8039 H   0  0  0  0  0  0  0  0  0  0  0  0
   12.1270    0.2240   25.5471 H   0  0  0  0  0  0  0  0  0  0  0  0
    4.3785    2.0113   17.4257 H   0  0  0  0  0  0  0  0  0  0  0  0
    5.6763    0.7332   22.0915 H   0  0  0  0  0  0  0  0  0  0  0  0
   10.2678   -2.6746   22.3862 H   0  0  0  0  0  0  0  0  0  0  0  0
    7.8691   -0.0023   24.7606 H   0  0  0  0  0  0  0  0  0  0  0  0
    9.5404   -4.5633   23.7846 H   0  0  0  0  0  0  0  0  0  0  0  0
    7.1920   -1.8875   26.1914 H   0  0  0  0  0  0  0  0  0  0  0  0
   15.1861   -2.2497   23.8454 H   0  0  0  0  0  0  0  0  0  0  0  0
   12.0809   -0.6327   21.3323 H   0  0  0  0  0  0  0  0  0  0  0  0
    8.1469   -6.4023   26.2941 H   0  0  0  0  0  0  0  0  0  0  0  0
    9.6044   -5.6298   25.5962 H   0  0  0  0  0  0  0  0  0  0  0  0
    8.1788   -5.9429   24.5716 H   0  0  0  0  0  0  0  0  0  0  0  0
   10.4193    1.1232   24.2257 H   0  0  0  0  0  0  0  0  0  0  0  0
   10.9010    1.5474   22.5826 H   0  0  0  0  0  0  0  0  0  0  0  0
    8.0593   -1.6239   21.0632 H   0  0  0  0  0  0  0  0  0  0  0  0
  1  2  1  0  0  0  0
  1  5  2  0  0  0  0
  2  6  2  0  0  0  0
  3  4  2  0  0  0  0
  3 11  1  0  0  0  0
  4 13  1  0  0  0  0
  5 14  1  0  0  0  0
  6 15  1  0  0  0  0
  7  9  2  0  0  0  0
  7 16  1  0  0  0  0
  8 10  1  0  0  0  0
  8 16  2  0  0  0  0
  9 17  1  0  0  0  0
 10 17  2  0  0  0  0
 11 18  2  0  0  0  0
 12 13  2  0  0  0  0
 12 18  1  0  0  0  0
 13 21  1  0  0  0  0
 14 15  2  0  0  0  0
 14 22  1  0  0  0  0
 15 24  1  0  0  0  0
 16 26  1  0  0  0  0
 17 28  1  0  0  0  0
 18 29  1  0  0  0  0
 19 25  1  0  0  0  0
 19 26  1  0  0  0  0
 19 27  2  0  0  0  0
 20 28  1  0  0  0  0
 21 26  1  0  0  0  0
 22 23  2  0  0  0  0
 23 24  1  0  0  0  0
 24 25  1  0  0  0  0
  1 30  1  0  0  0  0
  2 31  1  0  0  0  0
  3 32  1  0  0  0  0
  4 33  1  0  0  0  0
  5 34  1  0  0  0  0
  6 35  1  0  0  0  0
  7 36  1  0  0  0  0
  8 37  1  0  0  0  0
  9 38  1  0  0  0  0
 10 39  1  0  0  0  0
 11 40  1  0  0  0  0
 12 41  1  0  0  0  0
 20 42  1  0  0  0  0
 20 43  1  0  0  0  0
 20 44  1  0  0  0  0
 21 45  1  0  0  0  0
 21 46  1  0  0  0  0
 25 47  1  0  0  0  0
M  END
> <clash_score>
0

> <docking_score>
-8.078086853027344

> <overlap_score>
0.9206425547599792

$$$$
BENZO_21_1
  -OEChem-08232013513D

 57 61  0     0  0  0  0  0  0999 V2000
   14.2834   -1.6329   23.7557 C   0  0  0  0  0  0  0  0  0  0  0  0
   14.0471   -0.5389   24.5881 C   0  0  0  0  0  0  0  0  0  0  0  0
   13.3666   -1.9599   22.7566 C   0  0  0  0  0  0  0  0  0  0  0  0
    3.8860    2.1050   19.5250 C   0  0  0  0  0  0  0  0  0  0  0  0
    4.2460    1.7520   20.8250 C   0  0  0  0  0  0  0  0  0  0  0  0
   12.8940    0.2280   24.4215 C   0  0  0  0  0  0  0  0  0  0  0  0
   12.2135   -1.1930   22.5900 C   0  0  0  0  0  0  0  0  0  0  0  0
    4.6610    1.7170   18.4380 C   0  0  0  0  0  0  0  0  0  0  0  0
    5.3890    1.0010   21.0690 C   0  0  0  0  0  0  0  0  0  0  0  0
    9.1890   -3.5540   24.0140 C   0  0  0  0  0  0  0  0  0  0  0  0
    7.8700   -2.0610   25.3550 C   0  0  0  0  0  0  0  0  0  0  0  0
    9.5890   -2.4950   23.2210 C   0  0  0  0  0  0  0  0  0  0  0  0
    8.2550   -1.0010   24.5520 C   0  0  0  0  0  0  0  0  0  0  0  0
   11.9771   -0.0990   23.4225 C   0  0  0  0  0  0  0  0  0  0  0  0
    5.7970    0.9500   18.6730 C   0  0  0  0  0  0  0  0  0  0  0  0
    6.1460    0.6070   19.9750 C   0  0  0  0  0  0  0  0  0  0  0  0
    8.3450   -3.3440   25.0980 C   0  0  0  0  0  0  0  0  0  0  0  0
    9.1280   -1.2090   23.4870 C   0  0  0  0  0  0  0  0  0  0  0  0
    7.2752   -5.5548   25.4273 C   0  0  0  0  0  0  0  0  0  0  0  0
    9.0430    0.2380   21.4940 C   0  0  0  0  0  0  0  0  0  0  0  0
    7.1880   -6.7800   26.3209 C   0  0  0  0  0  0  0  0  0  0  0  0
    7.0916   -6.4753   27.7999 C   0  0  0  0  0  0  0  0  0  0  0  0
    8.2362   -5.5640   28.1841 C   0  0  0  0  0  0  0  0  0  0  0  0
    8.1240   -4.2655   27.4032 C   0  0  0  0  0  0  0  0  0  0  0  0
   10.7356    0.7258   23.2428 C   0  0  0  0  0  0  0  0  0  0  0  0
    6.7100    0.3850   17.8100 N   0  0  0  0  0  0  0  0  0  0  0  0
    7.5840   -0.2700   18.5160 N   0  0  0  0  0  0  0  0  0  0  0  0
    7.2710   -0.1460   19.8310 N   0  0  0  0  0  0  0  0  0  0  0  0
    7.9635   -4.4452   25.9501 N   0  0  0  0  0  0  0  0  0  0  0  0
    8.0950   -0.7700   20.8440 N   0  0  0  0  0  0  0  0  0  0  0  0
    9.5820   -0.1080   22.7000 N   0  0  0  0  0  0  0  0  0  0  0  0
    6.7947   -5.6299   24.2931 O   0  0  0  0  0  0  0  0  0  0  0  0
    9.2950    1.3000   20.9480 O   0  0  0  0  0  0  0  0  0  0  0  0
   15.1820   -2.2291   23.8847 H   0  0  0  0  0  0  0  0  0  0  0  0
   14.7614   -0.2834   25.3654 H   0  0  0  0  0  0  0  0  0  0  0  0
   13.5508   -2.8110   22.1076 H   0  0  0  0  0  0  0  0  0  0  0  0
    2.9846    2.6932   19.3610 H   0  0  0  0  0  0  0  0  0  0  0  0
    3.6235    2.0692   21.6570 H   0  0  0  0  0  0  0  0  0  0  0  0
   12.7180    1.0785   25.0749 H   0  0  0  0  0  0  0  0  0  0  0  0
   11.5047   -1.4554   21.8090 H   0  0  0  0  0  0  0  0  0  0  0  0
    4.3785    2.0113   17.4257 H   0  0  0  0  0  0  0  0  0  0  0  0
    5.6763    0.7332   22.0915 H   0  0  0  0  0  0  0  0  0  0  0  0
    9.5436   -4.5614   23.7799 H   0  0  0  0  0  0  0  0  0  0  0  0
    7.1918   -1.8823   26.1906 H   0  0  0  0  0  0  0  0  0  0  0  0
   10.2676   -2.6754   22.3861 H   0  0  0  0  0  0  0  0  0  0  0  0
    7.8686   -0.0026   24.7598 H   0  0  0  0  0  0  0  0  0  0  0  0
    6.3101   -7.3613   26.0164 H   0  0  0  0  0  0  0  0  0  0  0  0
    8.0752   -7.3922   26.1183 H   0  0  0  0  0  0  0  0  0  0  0  0
    6.1328   -5.9938   28.0269 H   0  0  0  0  0  0  0  0  0  0  0  0
    7.1363   -7.4051   28.3772 H   0  0  0  0  0  0  0  0  0  0  0  0
    8.2035   -5.3520   29.2586 H   0  0  0  0  0  0  0  0  0  0  0  0
    9.1990   -6.0474   27.9788 H   0  0  0  0  0  0  0  0  0  0  0  0
    7.2505   -3.6996   27.7511 H   0  0  0  0  0  0  0  0  0  0  0  0
    9.0155   -3.6525   27.5824 H   0  0  0  0  0  0  0  0  0  0  0  0
   10.4038    1.1382   24.2019 H   0  0  0  0  0  0  0  0  0  0  0  0
   10.9193    1.5713   22.5714 H   0  0  0  0  0  0  0  0  0  0  0  0
    8.0897   -1.6082   21.0890 H   0  0  0  0  0  0  0  0  0  0  0  0
  1  2  1  0  0  0  0
  1  3  2  0  0  0  0
  2  6  2  0  0  0  0
  3  7  1  0  0  0  0
  4  5  1  0  0  0  0
  4  8  2  0  0  0  0
  5  9  2  0  0  0  0
  6 14  1  0  0  0  0
  7 14  2  0  0  0  0
  8 15  1  0  0  0  0
  9 16  1  0  0  0  0
 10 12  2  0  0  0  0
 10 17  1  0  0  0  0
 11 13  1  0  0  0  0
 11 17  2  0  0  0  0
 12 18  1  0  0  0  0
 13 18  2  0  0  0  0
 14 25  1  0  0  0  0
 15 16  2  0  0  0  0
 15 26  1  0  0  0  0
 16 28  1  0  0  0  0
 17 29  1  0  0  0  0
 18 31  1  0  0  0  0
 19 21  1  0  0  0  0
 19 29  1  0  0  0  0
 19 32  2  0  0  0  0
 20 30  1  0  0  0  0
 20 31  1  0  0  0  0
 20 33  2  0  0  0  0
 21 22  1  0  0  0  0
 22 23  1  0  0  0  0
 23 24  1  0  0  0  0
 24 29  1  0  0  0  0
 25 31  1  0  0  0  0
 26 27  2  0  0  0  0
 27 28  1  0  0  0  0
 28 30  1  0  0  0  0
  1 34  1  0  0  0  0
  2 35  1  0  0  0  0
  3 36  1  0  0  0  0
  4 37  1  0  0  0  0
  5 38  1  0  0  0  0
  6 39  1  0  0  0  0
  7 40  1  0  0  0  0
  8 41  1  0  0  0  0
  9 42  1  0  0  0  0
 10 43  1  0  0  0  0
 11 44  1  0  0  0  0
 12 45  1  0  0  0  0
 13 46  1  0  0  0  0
 21 47  1  0  0  0  0
 21 48  1  0  0  0  0
 22 49  1  0  0  0  0
 22 50  1  0  0  0  0
 23 51  1  0  0  0  0
 23 52  1  0  0  0  0
 24 53  1  0  0  0  0
 24 54  1  0  0  0  0
 25 55  1  0  0  0  0
 25 56  1  0  0  0  0
 30 57  1  0  0  0  0
M  END
> <clash_score>
0

> <docking_score>
-8.693284034729004

> <overlap_score>
0.9920637011528015

$$$$
BENZO_20_1
  -OEChem-08232013513D

 54 58  0     0  0  0  0  0  0999 V2000
    3.8860    2.1050   19.5250 C   0  0  0  0  0  0  0  0  0  0  0  0
    4.2460    1.7520   20.8250 C   0  0  0  0  0  0  0  0  0  0  0  0
    4.6610    1.7170   18.4380 C   0  0  0  0  0  0  0  0  0  0  0  0
    5.3890    1.0010   21.0690 C   0  0  0  0  0  0  0  0  0  0  0  0
    9.1890   -3.5540   24.0140 C   0  0  0  0  0  0  0  0  0  0  0  0
    7.8700   -2.0610   25.3550 C   0  0  0  0  0  0  0  0  0  0  0  0
    9.5890   -2.4950   23.2210 C   0  0  0  0  0  0  0  0  0  0  0  0
    8.2550   -1.0010   24.5520 C   0  0  0  0  0  0  0  0  0  0  0  0
   12.6197   -0.3047   24.6774 C   0  0  0  0  0  0  0  0  0  0  0  0
   13.7385   -1.1000   24.5618 C   0  0  0  0  0  0  0  0  0  0  0  0
   12.6295   -0.7450   22.3953 C   0  0  0  0  0  0  0  0  0  0  0  0
   11.9771   -0.0990   23.4225 C   0  0  0  0  0  0  0  0  0  0  0  0
    5.7970    0.9500   18.6730 C   0  0  0  0  0  0  0  0  0  0  0  0
    6.1460    0.6070   19.9750 C   0  0  0  0  0  0  0  0  0  0  0  0
    8.3450   -3.3440   25.0980 C   0  0  0  0  0  0  0  0  0  0  0  0
    9.1280   -1.2090   23.4870 C   0  0  0  0  0  0  0  0  0  0  0  0
    7.2752   -5.5548   25.4273 C   0  0  0  0  0  0  0  0  0  0  0  0
    9.0430    0.2380   21.4940 C   0  0  0  0  0  0  0  0  0  0  0  0
    7.1880   -6.7800   26.3209 C   0  0  0  0  0  0  0  0  0  0  0  0
    7.0916   -6.4753   27.7999 C   0  0  0  0  0  0  0  0  0  0  0  0
    8.2362   -5.5640   28.1841 C   0  0  0  0  0  0  0  0  0  0  0  0
    8.1240   -4.2655   27.4032 C   0  0  0  0  0  0  0  0  0  0  0  0
   10.7356    0.7258   23.2428 C   0  0  0  0  0  0  0  0  0  0  0  0
    6.7100    0.3850   17.8100 N   0  0  0  0  0  0  0  0  0  0  0  0
    7.5840   -0.2700   18.5160 N   0  0  0  0  0  0  0  0  0  0  0  0
    7.2710   -0.1460   19.8310 N   0  0  0  0  0  0  0  0  0  0  0  0
    7.9635   -4.4452   25.9501 N   0  0  0  0  0  0  0  0  0  0  0  0
    8.0950   -0.7700   20.8440 N   0  0  0  0  0  0  0  0  0  0  0  0
    9.5820   -0.1080   22.7000 N   0  0  0  0  0  0  0  0  0  0  0  0
    6.7947   -5.6299   24.2931 O   0  0  0  0  0  0  0  0  0  0  0  0
    9.2950    1.3000   20.9480 O   0  0  0  0  0  0  0  0  0  0  0  0
   14.0104   -1.5951   22.9452 S   0  0  0  0  0  0  0  0  0  0  0  0
    2.9846    2.6932   19.3610 H   0  0  0  0  0  0  0  0  0  0  0  0
    3.6235    2.0692   21.6570 H   0  0  0  0  0  0  0  0  0  0  0  0
    4.3785    2.0113   17.4257 H   0  0  0  0  0  0  0  0  0  0  0  0
    5.6763    0.7332   22.0915 H   0  0  0  0  0  0  0  0  0  0  0  0
    9.5436   -4.5614   23.7799 H   0  0  0  0  0  0  0  0  0  0  0  0
    7.1918   -1.8823   26.1906 H   0  0  0  0  0  0  0  0  0  0  0  0
   10.2676   -2.6754   22.3861 H   0  0  0  0  0  0  0  0  0  0  0  0
    7.8686   -0.0026   24.7598 H   0  0  0  0  0  0  0  0  0  0  0  0
   12.2821    0.1083   25.6196 H   0  0  0  0  0  0  0  0  0  0  0  0
   14.4095   -1.4134   25.3490 H   0  0  0  0  0  0  0  0  0  0  0  0
   12.3653   -0.7599   21.3469 H   0  0  0  0  0  0  0  0  0  0  0  0
    6.3101   -7.3613   26.0164 H   0  0  0  0  0  0  0  0  0  0  0  0
    8.0752   -7.3922   26.1183 H   0  0  0  0  0  0  0  0  0  0  0  0
    6.1328   -5.9938   28.0269 H   0  0  0  0  0  0  0  0  0  0  0  0
    7.1363   -7.4051   28.3772 H   0  0  0  0  0  0  0  0  0  0  0  0
    8.2035   -5.3520   29.2586 H   0  0  0  0  0  0  0  0  0  0  0  0
    9.1990   -6.0474   27.9788 H   0  0  0  0  0  0  0  0  0  0  0  0
    7.2505   -3.6996   27.7511 H   0  0  0  0  0  0  0  0  0  0  0  0
    9.0155   -3.6525   27.5824 H   0  0  0  0  0  0  0  0  0  0  0  0
   10.4038    1.1382   24.2019 H   0  0  0  0  0  0  0  0  0  0  0  0
   10.9193    1.5713   22.5714 H   0  0  0  0  0  0  0  0  0  0  0  0
    8.0897   -1.6082   21.0890 H   0  0  0  0  0  0  0  0  0  0  0  0
  1  2  1  0  0  0  0
  1  3  2  0  0  0  0
  2  4  2  0  0  0  0
  3 13  1  0  0  0  0
  4 14  1  0  0  0  0
  5  7  2  0  0  0  0
  5 15  1  0  0  0  0
  6  8  1  0  0  0  0
  6 15  2  0  0  0  0
  7 16  1  0  0  0  0
  8 16  2  0  0  0  0
  9 10  2  0  0  0  0
  9 12  1  0  0  0  0
 10 32  1  0  0  0  0
 11 12  2  0  0  0  0
 11 32  1  0  0  0  0
 12 23  1  0  0  0  0
 13 14  2  0  0  0  0
 13 24  1  0  0  0  0
 14 26  1  0  0  0  0
 15 27  1  0  0  0  0
 16 29  1  0  0  0  0
 17 19  1  0  0  0  0
 17 27  1  0  0  0  0
 17 30  2  0  0  0  0
 18 28  1  0  0  0  0
 18 29  1  0  0  0  0
 18 31  2  0  0  0  0
 19 20  1  0  0  0  0
 20 21  1  0  0  0  0
 21 22  1  0  0  0  0
 22 27  1  0  0  0  0
 23 29  1  0  0  0  0
 24 25  2  0  0  0  0
 25 26  1  0  0  0  0
 26 28  1  0  0  0  0
  1 33  1  0  0  0  0
  2 34  1  0  0  0  0
  3 35  1  0  0  0  0
  4 36  1  0  0  0  0
  5 37  1  0  0  0  0
  6 38  1  0  0  0  0
  7 39  1  0  0  0  0
  8 40  1  0  0  0  0
  9 41  1  0  0  0  0
 10 42  1  0  0  0  0
 11 43  1  0  0  0  0
 19 44  1  0  0  0  0
 19 45  1  0  0  0  0
 20 46  1  0  0  0  0
 20 47  1  0  0  0  0
 21 48  1  0  0  0  0
 21 49  1  0  0  0  0
 22 50  1  0  0  0  0
 22 51  1  0  0  0  0
 23 52  1  0  0  0  0
 23 53  1  0  0  0  0
 28 54  1  0  0  0  0
M  END
> <clash_score>
0

> <docking_score>
-8.359341621398926

> <overlap_score>
0.9780871868133545

$$$$
BENZO_23_1
  -OEChem-08232013513D

 57 61  0     0  0  0  0  0  0999 V2000
    3.8860    2.1050   19.5250 C   0  0  0  0  0  0  0  0  0  0  0  0
    4.2460    1.7520   20.8250 C   0  0  0  0  0  0  0  0  0  0  0  0
    4.6610    1.7170   18.4380 C   0  0  0  0  0  0  0  0  0  0  0  0
    5.3890    1.0010   21.0690 C   0  0  0  0  0  0  0  0  0  0  0  0
    9.1890   -3.5540   24.0140 C   0  0  0  0  0  0  0  0  0  0  0  0
    7.8700   -2.0610   25.3550 C   0  0  0  0  0  0  0  0  0  0  0  0
    9.5890   -2.4950   23.2210 C   0  0  0  0  0  0  0  0  0  0  0  0
    8.2550   -1.0010   24.5520 C   0  0  0  0  0  0  0  0  0  0  0  0
   13.3011    0.3600   23.5803 C   0  0  0  0  0  0  0  0  0  0  0  0
   12.3365   -0.9398   22.0921 C   0  0  0  0  0  0  0  0  0  0  0  0
   12.0616    0.0737   22.9774 C   0  0  0  0  0  0  0  0  0  0  0  0
    5.7970    0.9500   18.6730 C   0  0  0  0  0  0  0  0  0  0  0  0
    6.1460    0.6070   19.9750 C   0  0  0  0  0  0  0  0  0  0  0  0
    8.3450   -3.3440   25.0980 C   0  0  0  0  0  0  0  0  0  0  0  0
    9.1280   -1.2090   23.4870 C   0  0  0  0  0  0  0  0  0  0  0  0
    8.7161   -4.7975   27.0830 C   0  0  0  0  0  0  0  0  0  0  0  0
    9.0430    0.2380   21.4940 C   0  0  0  0  0  0  0  0  0  0  0  0
    8.1364   -5.9760   27.8449 C   0  0  0  0  0  0  0  0  0  0  0  0
    6.6423   -5.8008   28.0518 C   0  0  0  0  0  0  0  0  0  0  0  0
    5.9022   -5.5526   26.7413 C   0  0  0  0  0  0  0  0  0  0  0  0
    6.8397   -5.2970   25.5620 C   0  0  0  0  0  0  0  0  0  0  0  0
   14.4285   -2.1769   21.4825 C   0  0  0  0  0  0  0  0  0  0  0  0
   10.7356    0.7258   23.2428 C   0  0  0  0  0  0  0  0  0  0  0  0
   14.2898   -0.4094   23.1173 N   0  0  0  0  0  0  0  0  0  0  0  0
    6.7100    0.3850   17.8100 N   0  0  0  0  0  0  0  0  0  0  0  0
    7.5840   -0.2700   18.5160 N   0  0  0  0  0  0  0  0  0  0  0  0
   13.6718   -1.1894   22.2140 N   0  0  0  0  0  0  0  0  0  0  0  0
    7.2710   -0.1460   19.8310 N   0  0  0  0  0  0  0  0  0  0  0  0
    7.9658   -4.4385   25.9449 N   0  0  0  0  0  0  0  0  0  0  0  0
    8.0950   -0.7700   20.8440 N   0  0  0  0  0  0  0  0  0  0  0  0
    9.5820   -0.1080   22.7000 N   0  0  0  0  0  0  0  0  0  0  0  0
    9.7829   -4.3044   27.4475 O   0  0  0  0  0  0  0  0  0  0  0  0
    9.2950    1.3000   20.9480 O   0  0  0  0  0  0  0  0  0  0  0  0
    2.9846    2.6932   19.3610 H   0  0  0  0  0  0  0  0  0  0  0  0
    3.6235    2.0692   21.6570 H   0  0  0  0  0  0  0  0  0  0  0  0
    4.3785    2.0113   17.4257 H   0  0  0  0  0  0  0  0  0  0  0  0
    5.6763    0.7332   22.0915 H   0  0  0  0  0  0  0  0  0  0  0  0
    9.5436   -4.5614   23.7799 H   0  0  0  0  0  0  0  0  0  0  0  0
    7.1918   -1.8823   26.1906 H   0  0  0  0  0  0  0  0  0  0  0  0
   10.2676   -2.6754   22.3861 H   0  0  0  0  0  0  0  0  0  0  0  0
    7.8686   -0.0026   24.7598 H   0  0  0  0  0  0  0  0  0  0  0  0
   13.5275    1.0962   24.3387 H   0  0  0  0  0  0  0  0  0  0  0  0
   11.7109   -1.4918   21.4037 H   0  0  0  0  0  0  0  0  0  0  0  0
    8.3160   -6.8753   27.2760 H   0  0  0  0  0  0  0  0  0  0  0  0
    8.6443   -6.0335   28.7960 H   0  0  0  0  0  0  0  0  0  0  0  0
    6.2215   -6.6983   28.5513 H   0  0  0  0  0  0  0  0  0  0  0  0
    6.4589   -4.9587   28.7491 H   0  0  0  0  0  0  0  0  0  0  0  0
    5.2548   -6.4248   26.5112 H   0  0  0  0  0  0  0  0  0  0  0  0
    5.2035   -4.6957   26.8575 H   0  0  0  0  0  0  0  0  0  0  0  0
    7.2534   -6.2390   25.2146 H   0  0  0  0  0  0  0  0  0  0  0  0
    6.2879   -4.8231   24.7574 H   0  0  0  0  0  0  0  0  0  0  0  0
   14.8042   -1.7062   20.5702 H   0  0  0  0  0  0  0  0  0  0  0  0
   15.2588   -2.5303   22.1002 H   0  0  0  0  0  0  0  0  0  0  0  0
   13.7788   -3.0220   21.2384 H   0  0  0  0  0  0  0  0  0  0  0  0
   10.5675    0.8349   24.3198 H   0  0  0  0  0  0  0  0  0  0  0  0
   10.6960    1.7285   22.8043 H   0  0  0  0  0  0  0  0  0  0  0  0
    8.0897   -1.6082   21.0890 H   0  0  0  0  0  0  0  0  0  0  0  0
  1  2  1  0  0  0  0
  1  3  2  0  0  0  0
  2  4  2  0  0  0  0
  3 12  1  0  0  0  0
  4 13  1  0  0  0  0
  5  7  2  0  0  0  0
  5 14  1  0  0  0  0
  6  8  1  0  0  0  0
  6 14  2  0  0  0  0
  7 15  1  0  0  0  0
  8 15  2  0  0  0  0
  9 11  1  0  0  0  0
  9 24  2  0  0  0  0
 10 11  2  0  0  0  0
 10 27  1  0  0  0  0
 11 23  1  0  0  0  0
 12 13  2  0  0  0  0
 12 25  1  0  0  0  0
 13 28  1  0  0  0  0
 14 29  1  0  0  0  0
 15 31  1  0  0  0  0
 16 18  1  0  0  0  0
 16 29  1  0  0  0  0
 16 32  2  0  0  0  0
 17 30  1  0  0  0  0
 17 31  1  0  0  0  0
 17 33  2  0  0  0  0
 18 19  1  0  0  0  0
 19 20  1  0  0  0  0
 20 21  1  0  0  0  0
 21 29  1  0  0  0  0
 22 27  1  0  0  0  0
 23 31  1  0  0  0  0
 24 27  1  0  0  0  0
 25 26  2  0  0  0  0
 26 28  1  0  0  0  0
 28 30  1  0  0  0  0
  1 34  1  0  0  0  0
  2 35  1  0  0  0  0
  3 36  1  0  0  0  0
  4 37  1  0  0  0  0
  5 38  1  0  0  0  0
  6 39  1  0  0  0  0
  7 40  1  0  0  0  0
  8 41  1  0  0  0  0
  9 42  1  0  0  0  0
 10 43  1  0  0  0  0
 18 44  1  0  0  0  0
 18 45  1  0  0  0  0
 19 46  1  0  0  0  0
 19 47  1  0  0  0  0
 20 48  1  0  0  0  0
 20 49  1  0  0  0  0
 21 50  1  0  0  0  0
 21 51  1  0  0  0  0
 22 52  1  0  0  0  0
 22 53  1  0  0  0  0
 22 54  1  0  0  0  0
 23 55  1  0  0  0  0
 23 56  1  0  0  0  0
 30 57  1  0  0  0  0
M  END
> <clash_score>
0

> <docking_score>
-8.562883377075195

> <overlap_score>
0.9922268390655518

$$$$
BENZO_22_1
  -OEChem-08232013513D

 57 61  0     0  0  0  0  0  0999 V2000
    3.8860    2.1050   19.5250 C   0  0  0  0  0  0  0  0  0  0  0  0
    4.2460    1.7520   20.8250 C   0  0  0  0  0  0  0  0  0  0  0  0
   13.6913   -1.0131   24.8587 C   0  0  0  0  0  0  0  0  0  0  0  0
   12.5385   -0.2459   24.6909 C   0  0  0  0  0  0  0  0  0  0  0  0
    4.6610    1.7170   18.4380 C   0  0  0  0  0  0  0  0  0  0  0  0
    5.3890    1.0010   21.0690 C   0  0  0  0  0  0  0  0  0  0  0  0
    9.1890   -3.5540   24.0140 C   0  0  0  0  0  0  0  0  0  0  0  0
    7.8700   -2.0610   25.3550 C   0  0  0  0  0  0  0  0  0  0  0  0
    9.5890   -2.4950   23.2210 C   0  0  0  0  0  0  0  0  0  0  0  0
    8.2550   -1.0010   24.5520 C   0  0  0  0  0  0  0  0  0  0  0  0
   14.2828   -1.6333   23.7581 C   0  0  0  0  0  0  0  0  0  0  0  0
   12.5685   -0.7193   22.3219 C   0  0  0  0  0  0  0  0  0  0  0  0
   11.9771   -0.0990   23.4225 C   0  0  0  0  0  0  0  0  0  0  0  0
    5.7970    0.9500   18.6730 C   0  0  0  0  0  0  0  0  0  0  0  0
    6.1460    0.6070   19.9750 C   0  0  0  0  0  0  0  0  0  0  0  0
    8.3450   -3.3440   25.0980 C   0  0  0  0  0  0  0  0  0  0  0  0
    9.1280   -1.2090   23.4870 C   0  0  0  0  0  0  0  0  0  0  0  0
   13.7213   -1.4864   22.4897 C   0  0  0  0  0  0  0  0  0  0  0  0
    7.2757   -5.5631   25.4492 C   0  0  0  0  0  0  0  0  0  0  0  0
    9.0430    0.2380   21.4940 C   0  0  0  0  0  0  0  0  0  0  0  0
    6.9626   -6.6001   26.5133 C   0  0  0  0  0  0  0  0  0  0  0  0
    6.3765   -5.9422   27.7501 C   0  0  0  0  0  0  0  0  0  0  0  0
    7.2660   -4.8258   28.2881 C   0  0  0  0  0  0  0  0  0  0  0  0
    8.4098   -4.4623   27.3426 C   0  0  0  0  0  0  0  0  0  0  0  0
   10.7356    0.7258   23.2428 C   0  0  0  0  0  0  0  0  0  0  0  0
    6.7100    0.3850   17.8100 N   0  0  0  0  0  0  0  0  0  0  0  0
    7.5840   -0.2700   18.5160 N   0  0  0  0  0  0  0  0  0  0  0  0
    7.2710   -0.1460   19.8310 N   0  0  0  0  0  0  0  0  0  0  0  0
    7.9658   -4.4384   25.9449 N   0  0  0  0  0  0  0  0  0  0  0  0
    8.0950   -0.7700   20.8440 N   0  0  0  0  0  0  0  0  0  0  0  0
    9.5820   -0.1080   22.7000 N   0  0  0  0  0  0  0  0  0  0  0  0
    6.9858   -5.7908   24.2753 O   0  0  0  0  0  0  0  0  0  0  0  0
    9.2950    1.3000   20.9480 O   0  0  0  0  0  0  0  0  0  0  0  0
   14.4508   -2.2528   21.1324 Cl  0  0  0  0  0  0  0  0  0  0  0  0
    2.9846    2.6932   19.3610 H   0  0  0  0  0  0  0  0  0  0  0  0
    3.6235    2.0692   21.6570 H   0  0  0  0  0  0  0  0  0  0  0  0
   14.1281   -1.1273   25.8466 H   0  0  0  0  0  0  0  0  0  0  0  0
   12.0844    0.2336   25.5541 H   0  0  0  0  0  0  0  0  0  0  0  0
    4.3785    2.0113   17.4257 H   0  0  0  0  0  0  0  0  0  0  0  0
    5.6763    0.7332   22.0915 H   0  0  0  0  0  0  0  0  0  0  0  0
    9.5436   -4.5614   23.7799 H   0  0  0  0  0  0  0  0  0  0  0  0
    7.1918   -1.8823   26.1906 H   0  0  0  0  0  0  0  0  0  0  0  0
   10.2676   -2.6754   22.3861 H   0  0  0  0  0  0  0  0  0  0  0  0
    7.8686   -0.0026   24.7598 H   0  0  0  0  0  0  0  0  0  0  0  0
   15.1809   -2.2284   23.9039 H   0  0  0  0  0  0  0  0  0  0  0  0
   12.1272   -0.6013   21.3349 H   0  0  0  0  0  0  0  0  0  0  0  0
    6.2500   -7.3027   26.1097 H   0  0  0  0  0  0  0  0  0  0  0  0
    7.8838   -7.1078   26.7574 H   0  0  0  0  0  0  0  0  0  0  0  0
    5.3690   -5.5364   27.5214 H   0  0  0  0  0  0  0  0  0  0  0  0
    6.2178   -6.7054   28.5384 H   0  0  0  0  0  0  0  0  0  0  0  0
    6.6498   -3.9225   28.4807 H   0  0  0  0  0  0  0  0  0  0  0  0
    7.6764   -5.1138   29.2803 H   0  0  0  0  0  0  0  0  0  0  0  0
    8.7796   -3.4700   27.5826 H   0  0  0  0  0  0  0  0  0  0  0  0
    9.2112   -5.1853   27.4497 H   0  0  0  0  0  0  0  0  0  0  0  0
   10.4038    1.1382   24.2019 H   0  0  0  0  0  0  0  0  0  0  0  0
   10.9193    1.5713   22.5714 H   0  0  0  0  0  0  0  0  0  0  0  0
    8.0897   -1.6082   21.0890 H   0  0  0  0  0  0  0  0  0  0  0  0
  1  2  1  0  0  0  0
  1  5  2  0  0  0  0
  2  6  2  0  0  0  0
  3  4  2  0  0  0  0
  3 11  1  0  0  0  0
  4 13  1  0  0  0  0
  5 14  1  0  0  0  0
  6 15  1  0  0  0  0
  7  9  2  0  0  0  0
  7 16  1  0  0  0  0
  8 10  1  0  0  0  0
  8 16  2  0  0  0  0
  9 17  1  0  0  0  0
 10 17  2  0  0  0  0
 11 18  2  0  0  0  0
 12 13  2  0  0  0  0
 12 18  1  0  0  0  0
 13 25  1  0  0  0  0
 14 15  2  0  0  0  0
 14 26  1  0  0  0  0
 15 28  1  0  0  0  0
 16 29  1  0  0  0  0
 17 31  1  0  0  0  0
 18 34  1  0  0  0  0
 19 21  1  0  0  0  0
 19 29  1  0  0  0  0
 19 32  2  0  0  0  0
 20 30  1  0  0  0  0
 20 31  1  0  0  0  0
 20 33  2  0  0  0  0
 21 22  1  0  0  0  0
 22 23  1  0  0  0  0
 23 24  1  0  0  0  0
 24 29  1  0  0  0  0
 25 31  1  0  0  0  0
 26 27  2  0  0  0  0
 27 28  1  0  0  0  0
 28 30  1  0  0  0  0
  1 35  1  0  0  0  0
  2 36  1  0  0  0  0
  3 37  1  0  0  0  0
  4 38  1  0  0  0  0
  5 39  1  0  0  0  0
  6 40  1  0  0  0  0
  7 41  1  0  0  0  0
  8 42  1  0  0  0  0
  9 43  1  0  0  0  0
 10 44  1  0  0  0  0
 11 45  1  0  0  0  0
 12 46  1  0  0  0  0
 21 47  1  0  0  0  0
 21 48  1  0  0  0  0
 22 49  1  0  0  0  0
 22 50  1  0  0  0  0
 23 51  1  0  0  0  0
 23 52  1  0  0  0  0
 24 53  1  0  0  0  0
 24 54  1  0  0  0  0
 25 55  1  0  0  0  0
 25 56  1  0  0  0  0
 30 57  1  0  0  0  0
M  END
> <clash_score>
0

> <docking_score>
-7.890653133392334

> <overlap_score>
0.9952887296676636

$$$$
BENZO_25_1
  -OEChem-08232013513D

 56 60  0     0  0  0  0  0  0999 V2000
   14.3190   -1.6016   23.6379 C   0  0  0  0  0  0  0  0  0  0  0  0
   14.0846   -0.5307   24.5003 C   0  0  0  0  0  0  0  0  0  0  0  0
   13.3887   -1.9157   22.6471 C   0  0  0  0  0  0  0  0  0  0  0  0
    3.8860    2.1050   19.5250 C   0  0  0  0  0  0  0  0  0  0  0  0
    4.2460    1.7520   20.8250 C   0  0  0  0  0  0  0  0  0  0  0  0
   12.9198    0.2260   24.3720 C   0  0  0  0  0  0  0  0  0  0  0  0
   12.2240   -1.1590   22.5188 C   0  0  0  0  0  0  0  0  0  0  0  0
    4.6610    1.7170   18.4380 C   0  0  0  0  0  0  0  0  0  0  0  0
    5.3890    1.0010   21.0690 C   0  0  0  0  0  0  0  0  0  0  0  0
    9.1890   -3.5540   24.0140 C   0  0  0  0  0  0  0  0  0  0  0  0
    7.8700   -2.0610   25.3550 C   0  0  0  0  0  0  0  0  0  0  0  0
    9.5890   -2.4950   23.2210 C   0  0  0  0  0  0  0  0  0  0  0  0
    8.2550   -1.0010   24.5520 C   0  0  0  0  0  0  0  0  0  0  0  0
   11.9896   -0.0881   23.3812 C   0  0  0  0  0  0  0  0  0  0  0  0
    5.7970    0.9500   18.6730 C   0  0  0  0  0  0  0  0  0  0  0  0
    6.1460    0.6070   19.9750 C   0  0  0  0  0  0  0  0  0  0  0  0
    8.3450   -3.3440   25.0980 C   0  0  0  0  0  0  0  0  0  0  0  0
    9.1280   -1.2090   23.4870 C   0  0  0  0  0  0  0  0  0  0  0  0
    9.0430    0.2380   21.4940 C   0  0  0  0  0  0  0  0  0  0  0  0
    8.9524   -5.2012   26.6600 C   0  0  0  0  0  0  0  0  0  0  0  0
    6.6112   -4.5068   26.4379 C   0  0  0  0  0  0  0  0  0  0  0  0
    8.9037   -4.7845   28.1261 C   0  0  0  0  0  0  0  0  0  0  0  0
    6.6374   -4.1243   27.9184 C   0  0  0  0  0  0  0  0  0  0  0  0
   10.7356    0.7258   23.2427 C   0  0  0  0  0  0  0  0  0  0  0  0
    6.7100    0.3850   17.8100 N   0  0  0  0  0  0  0  0  0  0  0  0
    7.5840   -0.2700   18.5160 N   0  0  0  0  0  0  0  0  0  0  0  0
    7.2710   -0.1460   19.8310 N   0  0  0  0  0  0  0  0  0  0  0  0
    7.9775   -4.4014   25.9151 N   0  0  0  0  0  0  0  0  0  0  0  0
    8.0950   -0.7700   20.8440 N   0  0  0  0  0  0  0  0  0  0  0  0
    9.5820   -0.1080   22.7000 N   0  0  0  0  0  0  0  0  0  0  0  0
    9.2950    1.3000   20.9480 O   0  0  0  0  0  0  0  0  0  0  0  0
    7.5729   -4.9391   28.6338 O   0  0  0  0  0  0  0  0  0  0  0  0
   15.2266   -2.1899   23.7370 H   0  0  0  0  0  0  0  0  0  0  0  0
   14.8093   -0.2853   25.2711 H   0  0  0  0  0  0  0  0  0  0  0  0
   13.5715   -2.7487   21.9747 H   0  0  0  0  0  0  0  0  0  0  0  0
    2.9846    2.6932   19.3610 H   0  0  0  0  0  0  0  0  0  0  0  0
    3.6235    2.0692   21.6570 H   0  0  0  0  0  0  0  0  0  0  0  0
   12.7455    1.0586   25.0486 H   0  0  0  0  0  0  0  0  0  0  0  0
   11.5048   -1.4112   21.7440 H   0  0  0  0  0  0  0  0  0  0  0  0
    4.3785    2.0113   17.4257 H   0  0  0  0  0  0  0  0  0  0  0  0
    5.6763    0.7332   22.0915 H   0  0  0  0  0  0  0  0  0  0  0  0
    9.5426   -4.5618   23.7797 H   0  0  0  0  0  0  0  0  0  0  0  0
    7.1914   -1.8824   26.1903 H   0  0  0  0  0  0  0  0  0  0  0  0
   10.2669   -2.6745   22.3854 H   0  0  0  0  0  0  0  0  0  0  0  0
    7.8690   -0.0020   24.7587 H   0  0  0  0  0  0  0  0  0  0  0  0
    9.9615   -5.0500   26.2711 H   0  0  0  0  0  0  0  0  0  0  0  0
    8.6935   -6.2597   26.5720 H   0  0  0  0  0  0  0  0  0  0  0  0
    6.2628   -5.5350   26.3330 H   0  0  0  0  0  0  0  0  0  0  0  0
    5.9347   -3.8423   25.9023 H   0  0  0  0  0  0  0  0  0  0  0  0
    9.5597   -5.4275   28.7166 H   0  0  0  0  0  0  0  0  0  0  0  0
    9.2344   -3.7511   28.2636 H   0  0  0  0  0  0  0  0  0  0  0  0
    6.8874   -3.0657   28.0553 H   0  0  0  0  0  0  0  0  0  0  0  0
    5.6495   -4.2893   28.3591 H   0  0  0  0  0  0  0  0  0  0  0  0
   10.4495    1.1613   24.2064 H   0  0  0  0  0  0  0  0  0  0  0  0
   10.8804    1.5545   22.5416 H   0  0  0  0  0  0  0  0  0  0  0  0
    8.0897   -1.6082   21.0890 H   0  0  0  0  0  0  0  0  0  0  0  0
  1  2  1  0  0  0  0
  1  3  2  0  0  0  0
  2  6  2  0  0  0  0
  3  7  1  0  0  0  0
  4  5  1  0  0  0  0
  4  8  2  0  0  0  0
  5  9  2  0  0  0  0
  6 14  1  0  0  0  0
  7 14  2  0  0  0  0
  8 15  1  0  0  0  0
  9 16  1  0  0  0  0
 10 12  2  0  0  0  0
 10 17  1  0  0  0  0
 11 13  1  0  0  0  0
 11 17  2  0  0  0  0
 12 18  1  0  0  0  0
 13 18  2  0  0  0  0
 14 24  1  0  0  0  0
 15 16  2  0  0  0  0
 15 25  1  0  0  0  0
 16 27  1  0  0  0  0
 17 28  1  0  0  0  0
 18 30  1  0  0  0  0
 19 29  1  0  0  0  0
 19 30  1  0  0  0  0
 19 31  2  0  0  0  0
 20 22  1  0  0  0  0
 20 28  1  0  0  0  0
 21 23  1  0  0  0  0
 21 28  1  0  0  0  0
 22 32  1  0  0  0  0
 23 32  1  0  0  0  0
 24 30  1  0  0  0  0
 25 26  2  0  0  0  0
 26 27  1  0  0  0  0
 27 29  1  0  0  0  0
  1 33  1  0  0  0  0
  2 34  1  0  0  0  0
  3 35  1  0  0  0  0
  4 36  1  0  0  0  0
  5 37  1  0  0  0  0
  6 38  1  0  0  0  0
  7 39  1  0  0  0  0
  8 40  1  0  0  0  0
  9 41  1  0  0  0  0
 10 42  1  0  0  0  0
 11 43  1  0  0  0  0
 12 44  1  0  0  0  0
 13 45  1  0  0  0  0
 20 46  1  0  0  0  0
 20 47  1  0  0  0  0
 21 48  1  0  0  0  0
 21 49  1  0  0  0  0
 22 50  1  0  0  0  0
 22 51  1  0  0  0  0
 23 52  1  0  0  0  0
 23 53  1  0  0  0  0
 24 54  1  0  0  0  0
 24 55  1  0  0  0  0
 29 56  1  0  0  0  0
M  END
> <clash_score>
0

> <docking_score>
-9.959807395935059

> <overlap_score>
0.9917935132980347

$$$$
BENZO_24_1
  -OEChem-08232013513D

 53 57  0     0  0  0  0  0  0999 V2000
    3.8860    2.1050   19.5250 C   0  0  0  0  0  0  0  0  0  0  0  0
    4.2460    1.7520   20.8250 C   0  0  0  0  0  0  0  0  0  0  0  0
    4.6610    1.7170   18.4380 C   0  0  0  0  0  0  0  0  0  0  0  0
    5.3890    1.0010   21.0690 C   0  0  0  0  0  0  0  0  0  0  0  0
    9.1890   -3.5540   24.0140 C   0  0  0  0  0  0  0  0  0  0  0  0
    7.8700   -2.0610   25.3550 C   0  0  0  0  0  0  0  0  0  0  0  0
    9.5890   -2.4950   23.2210 C   0  0  0  0  0  0  0  0  0  0  0  0
    8.2550   -1.0010   24.5520 C   0  0  0  0  0  0  0  0  0  0  0  0
   12.6952   -0.2580   24.6074 C   0  0  0  0  0  0  0  0  0  0  0  0
   13.8116   -1.0507   24.4563 C   0  0  0  0  0  0  0  0  0  0  0  0
   12.5938   -0.7573   22.3396 C   0  0  0  0  0  0  0  0  0  0  0  0
   11.9896   -0.0881   23.3812 C   0  0  0  0  0  0  0  0  0  0  0  0
    5.7970    0.9500   18.6730 C   0  0  0  0  0  0  0  0  0  0  0  0
    6.1460    0.6070   19.9750 C   0  0  0  0  0  0  0  0  0  0  0  0
    8.3450   -3.3440   25.0980 C   0  0  0  0  0  0  0  0  0  0  0  0
    9.1280   -1.2090   23.4870 C   0  0  0  0  0  0  0  0  0  0  0  0
    9.0430    0.2380   21.4940 C   0  0  0  0  0  0  0  0  0  0  0  0
    8.9524   -5.2012   26.6600 C   0  0  0  0  0  0  0  0  0  0  0  0
    6.6112   -4.5068   26.4379 C   0  0  0  0  0  0  0  0  0  0  0  0
    8.9037   -4.7845   28.1261 C   0  0  0  0  0  0  0  0  0  0  0  0
    6.6374   -4.1243   27.9184 C   0  0  0  0  0  0  0  0  0  0  0  0
   10.7356    0.7258   23.2427 C   0  0  0  0  0  0  0  0  0  0  0  0
    6.7100    0.3850   17.8100 N   0  0  0  0  0  0  0  0  0  0  0  0
    7.5840   -0.2700   18.5160 N   0  0  0  0  0  0  0  0  0  0  0  0
    7.2710   -0.1460   19.8310 N   0  0  0  0  0  0  0  0  0  0  0  0
    7.9775   -4.4014   25.9151 N   0  0  0  0  0  0  0  0  0  0  0  0
    8.0950   -0.7700   20.8440 N   0  0  0  0  0  0  0  0  0  0  0  0
    9.5820   -0.1080   22.7000 N   0  0  0  0  0  0  0  0  0  0  0  0
    9.2950    1.3000   20.9480 O   0  0  0  0  0  0  0  0  0  0  0  0
    7.5729   -4.9391   28.6338 O   0  0  0  0  0  0  0  0  0  0  0  0
   14.0057   -1.5862   22.8414 S   0  0  0  0  0  0  0  0  0  0  0  0
    2.9846    2.6932   19.3610 H   0  0  0  0  0  0  0  0  0  0  0  0
    3.6235    2.0692   21.6570 H   0  0  0  0  0  0  0  0  0  0  0  0
    4.3785    2.0113   17.4257 H   0  0  0  0  0  0  0  0  0  0  0  0
    5.6763    0.7332   22.0915 H   0  0  0  0  0  0  0  0  0  0  0  0
    9.5426   -4.5618   23.7797 H   0  0  0  0  0  0  0  0  0  0  0  0
    7.1914   -1.8824   26.1903 H   0  0  0  0  0  0  0  0  0  0  0  0
   10.2669   -2.6745   22.3854 H   0  0  0  0  0  0  0  0  0  0  0  0
    7.8690   -0.0020   24.7587 H   0  0  0  0  0  0  0  0  0  0  0  0
   12.4025    0.1776   25.5544 H   0  0  0  0  0  0  0  0  0  0  0  0
   14.5230   -1.3403   25.2168 H   0  0  0  0  0  0  0  0  0  0  0  0
   12.2778   -0.8007   21.3065 H   0  0  0  0  0  0  0  0  0  0  0  0
    9.9615   -5.0500   26.2711 H   0  0  0  0  0  0  0  0  0  0  0  0
    8.6935   -6.2597   26.5720 H   0  0  0  0  0  0  0  0  0  0  0  0
    6.2628   -5.5350   26.3330 H   0  0  0  0  0  0  0  0  0  0  0  0
    5.9347   -3.8423   25.9023 H   0  0  0  0  0  0  0  0  0  0  0  0
    9.5597   -5.4275   28.7166 H   0  0  0  0  0  0  0  0  0  0  0  0
    9.2344   -3.7511   28.2636 H   0  0  0  0  0  0  0  0  0  0  0  0
    6.8874   -3.0657   28.0553 H   0  0  0  0  0  0  0  0  0  0  0  0
    5.6495   -4.2893   28.3591 H   0  0  0  0  0  0  0  0  0  0  0  0
   10.4495    1.1613   24.2064 H   0  0  0  0  0  0  0  0  0  0  0  0
   10.8804    1.5545   22.5416 H   0  0  0  0  0  0  0  0  0  0  0  0
    8.0897   -1.6082   21.0890 H   0  0  0  0  0  0  0  0  0  0  0  0
  1  2  1  0  0  0  0
  1  3  2  0  0  0  0
  2  4  2  0  0  0  0
  3 13  1  0  0  0  0
  4 14  1  0  0  0  0
  5  7  2  0  0  0  0
  5 15  1  0  0  0  0
  6  8  1  0  0  0  0
  6 15  2  0  0  0  0
  7 16  1  0  0  0  0
  8 16  2  0  0  0  0
  9 10  2  0  0  0  0
  9 12  1  0  0  0  0
 10 31  1  0  0  0  0
 11 12  2  0  0  0  0
 11 31  1  0  0  0  0
 12 22  1  0  0  0  0
 13 14  2  0  0  0  0
 13 23  1  0  0  0  0
 14 25  1  0  0  0  0
 15 26  1  0  0  0  0
 16 28  1  0  0  0  0
 17 27  1  0  0  0  0
 17 28  1  0  0  0  0
 17 29  2  0  0  0  0
 18 20  1  0  0  0  0
 18 26  1  0  0  0  0
 19 21  1  0  0  0  0
 19 26  1  0  0  0  0
 20 30  1  0  0  0  0
 21 30  1  0  0  0  0
 22 28  1  0  0  0  0
 23 24  2  0  0  0  0
 24 25  1  0  0  0  0
 25 27  1  0  0  0  0
  1 32  1  0  0  0  0
  2 33  1  0  0  0  0
  3 34  1  0  0  0  0
  4 35  1  0  0  0  0
  5 36  1  0  0  0  0
  6 37  1  0  0  0  0
  7 38  1  0  0  0  0
  8 39  1  0  0  0  0
  9 40  1  0  0  0  0
 10 41  1  0  0  0  0
 11 42  1  0  0  0  0
 18 43  1  0  0  0  0
 18 44  1  0  0  0  0
 19 45  1  0  0  0  0
 19 46  1  0  0  0  0
 20 47  1  0  0  0  0
 20 48  1  0  0  0  0
 21 49  1  0  0  0  0
 21 50  1  0  0  0  0
 22 51  1  0  0  0  0
 22 52  1  0  0  0  0
 27 53  1  0  0  0  0
M  END
> <clash_score>
0

> <docking_score>
-9.68867301940918

> <overlap_score>
0.9774639010429382

$$$$
BENZO_29_1
  -OEChem-08232013513D

 52 55  0     0  0  0  0  0  0999 V2000
   14.3067   -1.6202   23.7268 C   0  0  0  0  0  0  0  0  0  0  0  0
   14.0548   -0.5497   24.5847 C   0  0  0  0  0  0  0  0  0  0  0  0
   13.3962   -1.9346   22.7178 C   0  0  0  0  0  0  0  0  0  0  0  0
    3.8860    2.1050   19.5250 C   0  0  0  0  0  0  0  0  0  0  0  0
    4.2460    1.7520   20.8250 C   0  0  0  0  0  0  0  0  0  0  0  0
   12.8925    0.2066   24.4338 C   0  0  0  0  0  0  0  0  0  0  0  0
   12.2339   -1.1783   22.5669 C   0  0  0  0  0  0  0  0  0  0  0  0
    4.6610    1.7170   18.4380 C   0  0  0  0  0  0  0  0  0  0  0  0
    5.3890    1.0010   21.0690 C   0  0  0  0  0  0  0  0  0  0  0  0
    9.5890   -2.4950   23.2210 C   0  0  0  0  0  0  0  0  0  0  0  0
    8.2550   -1.0010   24.5520 C   0  0  0  0  0  0  0  0  0  0  0  0
    9.1890   -3.5540   24.0140 C   0  0  0  0  0  0  0  0  0  0  0  0
    7.8700   -2.0610   25.3550 C   0  0  0  0  0  0  0  0  0  0  0  0
    7.5840   -0.2700   18.5160 C   0  0  0  0  0  0  0  0  0  0  0  0
   11.9820   -0.1078   23.4249 C   0  0  0  0  0  0  0  0  0  0  0  0
    5.7970    0.9500   18.6730 C   0  0  0  0  0  0  0  0  0  0  0  0
    6.1460    0.6070   19.9750 C   0  0  0  0  0  0  0  0  0  0  0  0
    9.1280   -1.2090   23.4870 C   0  0  0  0  0  0  0  0  0  0  0  0
    8.3450   -3.3440   25.0980 C   0  0  0  0  0  0  0  0  0  0  0  0
    9.0430    0.2380   21.4940 C   0  0  0  0  0  0  0  0  0  0  0  0
    7.2639   -5.5573   25.3804 C   0  0  0  0  0  0  0  0  0  0  0  0
    8.3059   -4.4049   27.3385 C   0  0  0  0  0  0  0  0  0  0  0  0
   10.7306    0.7056   23.2620 C   0  0  0  0  0  0  0  0  0  0  0  0
    6.7100    0.3850   17.8100 N   0  0  0  0  0  0  0  0  0  0  0  0
    7.2710   -0.1460   19.8310 N   0  0  0  0  0  0  0  0  0  0  0  0
    8.0950   -0.7700   20.8440 N   0  0  0  0  0  0  0  0  0  0  0  0
    9.5820   -0.1080   22.7000 N   0  0  0  0  0  0  0  0  0  0  0  0
    7.9731   -4.4180   25.9279 N   0  0  0  0  0  0  0  0  0  0  0  0
    9.2950    1.3000   20.9480 O   0  0  0  0  0  0  0  0  0  0  0  0
   15.2124   -2.2081   23.8436 H   0  0  0  0  0  0  0  0  0  0  0  0
   14.7642   -0.3041   25.3697 H   0  0  0  0  0  0  0  0  0  0  0  0
   13.5925   -2.7673   22.0490 H   0  0  0  0  0  0  0  0  0  0  0  0
    2.9844    2.6927   19.3613 H   0  0  0  0  0  0  0  0  0  0  0  0
    3.6214    2.0680   21.6561 H   0  0  0  0  0  0  0  0  0  0  0  0
   12.7045    1.0388   25.1070 H   0  0  0  0  0  0  0  0  0  0  0  0
   11.5302   -1.4307   21.7781 H   0  0  0  0  0  0  0  0  0  0  0  0
    4.3780    2.0103   17.4276 H   0  0  0  0  0  0  0  0  0  0  0  0
    5.6758    0.7336   22.0897 H   0  0  0  0  0  0  0  0  0  0  0  0
   10.2682   -2.6746   22.3864 H   0  0  0  0  0  0  0  0  0  0  0  0
    7.8692   -0.0022   24.7600 H   0  0  0  0  0  0  0  0  0  0  0  0
    9.5433   -4.5619   23.7809 H   0  0  0  0  0  0  0  0  0  0  0  0
    7.1923   -1.8829   26.1908 H   0  0  0  0  0  0  0  0  0  0  0  0
    8.4213   -0.8245   18.1548 H   0  0  0  0  0  0  0  0  0  0  0  0
    7.0638   -6.2846   26.1809 H   0  0  0  0  0  0  0  0  0  0  0  0
    6.3117   -5.2212   24.9441 H   0  0  0  0  0  0  0  0  0  0  0  0
    7.8778   -6.0307   24.6000 H   0  0  0  0  0  0  0  0  0  0  0  0
    7.9321   -5.3244   27.8126 H   0  0  0  0  0  0  0  0  0  0  0  0
    9.3982   -4.3494   27.4569 H   0  0  0  0  0  0  0  0  0  0  0  0
    7.8404   -3.5305   27.8169 H   0  0  0  0  0  0  0  0  0  0  0  0
   10.4108    1.1190   24.2247 H   0  0  0  0  0  0  0  0  0  0  0  0
   10.8961    1.5498   22.5844 H   0  0  0  0  0  0  0  0  0  0  0  0
    8.0545   -1.6267   21.0593 H   0  0  0  0  0  0  0  0  0  0  0  0
  1  2  1  0  0  0  0
  1  3  2  0  0  0  0
  2  6  2  0  0  0  0
  3  7  1  0  0  0  0
  4  5  1  0  0  0  0
  4  8  2  0  0  0  0
  5  9  2  0  0  0  0
  6 15  1  0  0  0  0
  7 15  2  0  0  0  0
  8 16  1  0  0  0  0
  9 17  1  0  0  0  0
 10 12  2  0  0  0  0
 10 18  1  0  0  0  0
 11 13  1  0  0  0  0
 11 18  2  0  0  0  0
 12 19  1  0  0  0  0
 13 19  2  0  0  0  0
 14 24  2  0  0  0  0
 14 25  1  0  0  0  0
 15 23  1  0  0  0  0
 16 17  2  0  0  0  0
 16 24  1  0  0  0  0
 17 25  1  0  0  0  0
 18 27  1  0  0  0  0
 19 28  1  0  0  0  0
 20 26  1  0  0  0  0
 20 27  1  0  0  0  0
 20 29  2  0  0  0  0
 21 28  1  0  0  0  0
 22 28  1  0  0  0  0
 23 27  1  0  0  0  0
 25 26  1  0  0  0  0
  1 30  1  0  0  0  0
  2 31  1  0  0  0  0
  3 32  1  0  0  0  0
  4 33  1  0  0  0  0
  5 34  1  0  0  0  0
  6 35  1  0  0  0  0
  7 36  1  0  0  0  0
  8 37  1  0  0  0  0
  9 38  1  0  0  0  0
 10 39  1  0  0  0  0
 11 40  1  0  0  0  0
 12 41  1  0  0  0  0
 13 42  1  0  0  0  0
 14 43  1  0  0  0  0
 21 44  1  0  0  0  0
 21 45  1  0  0  0  0
 21 46  1  0  0  0  0
 22 47  1  0  0  0  0
 22 48  1  0  0  0  0
 22 49  1  0  0  0  0
 23 50  1  0  0  0  0
 23 51  1  0  0  0  0
 26 52  1  0  0  0  0
M  END
> <clash_score>
0

> <docking_score>
-9.462455749511719

> <overlap_score>
0.9432796835899353

$$$$
BENZO_28_1
  -OEChem-08232013513D

 49 52  0     0  0  0  0  0  0999 V2000
    3.8860    2.1050   19.5250 C   0  0  0  0  0  0  0  0  0  0  0  0
    4.2460    1.7520   20.8250 C   0  0  0  0  0  0  0  0  0  0  0  0
    4.6610    1.7170   18.4380 C   0  0  0  0  0  0  0  0  0  0  0  0
    5.3890    1.0010   21.0690 C   0  0  0  0  0  0  0  0  0  0  0  0
    9.5890   -2.4950   23.2210 C   0  0  0  0  0  0  0  0  0  0  0  0
    8.2550   -1.0010   24.5520 C   0  0  0  0  0  0  0  0  0  0  0  0
    9.1890   -3.5540   24.0140 C   0  0  0  0  0  0  0  0  0  0  0  0
    7.8700   -2.0610   25.3550 C   0  0  0  0  0  0  0  0  0  0  0  0
   12.6465   -0.3027   24.6701 C   0  0  0  0  0  0  0  0  0  0  0  0
   13.7702   -1.0888   24.5395 C   0  0  0  0  0  0  0  0  0  0  0  0
   12.6233   -0.7523   22.3898 C   0  0  0  0  0  0  0  0  0  0  0  0
    7.5840   -0.2700   18.5160 C   0  0  0  0  0  0  0  0  0  0  0  0
   11.9820   -0.1078   23.4249 C   0  0  0  0  0  0  0  0  0  0  0  0
    5.7970    0.9500   18.6730 C   0  0  0  0  0  0  0  0  0  0  0  0
    6.1460    0.6070   19.9750 C   0  0  0  0  0  0  0  0  0  0  0  0
    9.1280   -1.2090   23.4870 C   0  0  0  0  0  0  0  0  0  0  0  0
    8.3450   -3.3440   25.0980 C   0  0  0  0  0  0  0  0  0  0  0  0
    9.0430    0.2380   21.4940 C   0  0  0  0  0  0  0  0  0  0  0  0
    7.2639   -5.5573   25.3804 C   0  0  0  0  0  0  0  0  0  0  0  0
    8.3059   -4.4049   27.3385 C   0  0  0  0  0  0  0  0  0  0  0  0
   10.7306    0.7056   23.2620 C   0  0  0  0  0  0  0  0  0  0  0  0
    6.7100    0.3850   17.8100 N   0  0  0  0  0  0  0  0  0  0  0  0
    7.2710   -0.1460   19.8310 N   0  0  0  0  0  0  0  0  0  0  0  0
    8.0950   -0.7700   20.8440 N   0  0  0  0  0  0  0  0  0  0  0  0
    9.5820   -0.1080   22.7000 N   0  0  0  0  0  0  0  0  0  0  0  0
    7.9731   -4.4180   25.9279 N   0  0  0  0  0  0  0  0  0  0  0  0
    9.2950    1.3000   20.9480 O   0  0  0  0  0  0  0  0  0  0  0  0
   14.0203   -1.5882   22.9208 S   0  0  0  0  0  0  0  0  0  0  0  0
    2.9844    2.6927   19.3613 H   0  0  0  0  0  0  0  0  0  0  0  0
    3.6214    2.0680   21.6561 H   0  0  0  0  0  0  0  0  0  0  0  0
    4.3780    2.0103   17.4276 H   0  0  0  0  0  0  0  0  0  0  0  0
    5.6758    0.7336   22.0897 H   0  0  0  0  0  0  0  0  0  0  0  0
   10.2682   -2.6746   22.3864 H   0  0  0  0  0  0  0  0  0  0  0  0
    7.8692   -0.0022   24.7600 H   0  0  0  0  0  0  0  0  0  0  0  0
    9.5433   -4.5619   23.7809 H   0  0  0  0  0  0  0  0  0  0  0  0
    7.1923   -1.8829   26.1908 H   0  0  0  0  0  0  0  0  0  0  0  0
   12.3206    0.1112   25.6160 H   0  0  0  0  0  0  0  0  0  0  0  0
   14.4565   -1.3932   25.3170 H   0  0  0  0  0  0  0  0  0  0  0  0
   12.3424   -0.7738   21.3459 H   0  0  0  0  0  0  0  0  0  0  0  0
    8.4213   -0.8245   18.1548 H   0  0  0  0  0  0  0  0  0  0  0  0
    7.0638   -6.2846   26.1809 H   0  0  0  0  0  0  0  0  0  0  0  0
    6.3117   -5.2212   24.9441 H   0  0  0  0  0  0  0  0  0  0  0  0
    7.8778   -6.0307   24.6000 H   0  0  0  0  0  0  0  0  0  0  0  0
    7.9321   -5.3244   27.8126 H   0  0  0  0  0  0  0  0  0  0  0  0
    9.3982   -4.3494   27.4569 H   0  0  0  0  0  0  0  0  0  0  0  0
    7.8404   -3.5305   27.8169 H   0  0  0  0  0  0  0  0  0  0  0  0
   10.4108    1.1190   24.2247 H   0  0  0  0  0  0  0  0  0  0  0  0
   10.8961    1.5498   22.5844 H   0  0  0  0  0  0  0  0  0  0  0  0
    8.0545   -1.6267   21.0593 H   0  0  0  0  0  0  0  0  0  0  0  0
  1  2  1  0  0  0  0
  1  3  2  0  0  0  0
  2  4  2  0  0  0  0
  3 14  1  0  0  0  0
  4 15  1  0  0  0  0
  5  7  2  0  0  0  0
  5 16  1  0  0  0  0
  6  8  1  0  0  0  0
  6 16  2  0  0  0  0
  7 17  1  0  0  0  0
  8 17  2  0  0  0  0
  9 10  2  0  0  0  0
  9 13  1  0  0  0  0
 10 28  1  0  0  0  0
 11 13  2  0  0  0  0
 11 28  1  0  0  0  0
 12 22  2  0  0  0  0
 12 23  1  0  0  0  0
 13 21  1  0  0  0  0
 14 15  2  0  0  0  0
 14 22  1  0  0  0  0
 15 23  1  0  0  0  0
 16 25  1  0  0  0  0
 17 26  1  0  0  0  0
 18 24  1  0  0  0  0
 18 25  1  0  0  0  0
 18 27  2  0  0  0  0
 19 26  1  0  0  0  0
 20 26  1  0  0  0  0
 21 25  1  0  0  0  0
 23 24  1  0  0  0  0
  1 29  1  0  0  0  0
  2 30  1  0  0  0  0
  3 31  1  0  0  0  0
  4 32  1  0  0  0  0
  5 33  1  0  0  0  0
  6 34  1  0  0  0  0
  7 35  1  0  0  0  0
  8 36  1  0  0  0  0
  9 37  1  0  0  0  0
 10 38  1  0  0  0  0
 11 39  1  0  0  0  0
 12 40  1  0  0  0  0
 19 41  1  0  0  0  0
 19 42  1  0  0  0  0
 19 43  1  0  0  0  0
 20 44  1  0  0  0  0
 20 45  1  0  0  0  0
 20 46  1  0  0  0  0
 21 47  1  0  0  0  0
 21 48  1  0  0  0  0
 24 49  1  0  0  0  0
M  END
> <clash_score>
0

> <docking_score>
-9.09948444366455

> <overlap_score>
0.9286566376686096

$$$$
BENZO_26_1
  -OEChem-08232013513D

 56 60  0     0  0  0  0  0  0999 V2000
    3.8860    2.1050   19.5250 C   0  0  0  0  0  0  0  0  0  0  0  0
    4.2460    1.7520   20.8250 C   0  0  0  0  0  0  0  0  0  0  0  0
   13.7788   -0.9563   24.7529 C   0  0  0  0  0  0  0  0  0  0  0  0
   12.6144   -0.1994   24.6233 C   0  0  0  0  0  0  0  0  0  0  0  0
    4.6610    1.7170   18.4380 C   0  0  0  0  0  0  0  0  0  0  0  0
    5.3890    1.0010   21.0690 C   0  0  0  0  0  0  0  0  0  0  0  0
    9.1890   -3.5540   24.0140 C   0  0  0  0  0  0  0  0  0  0  0  0
    7.8700   -2.0610   25.3550 C   0  0  0  0  0  0  0  0  0  0  0  0
    9.5890   -2.4950   23.2210 C   0  0  0  0  0  0  0  0  0  0  0  0
    8.2550   -1.0010   24.5520 C   0  0  0  0  0  0  0  0  0  0  0  0
   14.3184   -1.6020   23.6404 C   0  0  0  0  0  0  0  0  0  0  0  0
   12.5291   -0.7338   22.2687 C   0  0  0  0  0  0  0  0  0  0  0  0
   11.9896   -0.0881   23.3812 C   0  0  0  0  0  0  0  0  0  0  0  0
    5.7970    0.9500   18.6730 C   0  0  0  0  0  0  0  0  0  0  0  0
    6.1460    0.6070   19.9750 C   0  0  0  0  0  0  0  0  0  0  0  0
    8.3450   -3.3440   25.0980 C   0  0  0  0  0  0  0  0  0  0  0  0
    9.1280   -1.2090   23.4870 C   0  0  0  0  0  0  0  0  0  0  0  0
   13.6935   -1.4907   22.3983 C   0  0  0  0  0  0  0  0  0  0  0  0
    9.0430    0.2380   21.4940 C   0  0  0  0  0  0  0  0  0  0  0  0
    8.9524   -5.2012   26.6600 C   0  0  0  0  0  0  0  0  0  0  0  0
    6.6112   -4.5068   26.4379 C   0  0  0  0  0  0  0  0  0  0  0  0
    8.9037   -4.7845   28.1261 C   0  0  0  0  0  0  0  0  0  0  0  0
    6.6374   -4.1243   27.9184 C   0  0  0  0  0  0  0  0  0  0  0  0
   10.7356    0.7258   23.2427 C   0  0  0  0  0  0  0  0  0  0  0  0
    6.7100    0.3850   17.8100 N   0  0  0  0  0  0  0  0  0  0  0  0
    7.5840   -0.2700   18.5160 N   0  0  0  0  0  0  0  0  0  0  0  0
    7.2710   -0.1460   19.8310 N   0  0  0  0  0  0  0  0  0  0  0  0
    7.9775   -4.4014   25.9151 N   0  0  0  0  0  0  0  0  0  0  0  0
    8.0950   -0.7700   20.8440 N   0  0  0  0  0  0  0  0  0  0  0  0
    9.5820   -0.1080   22.7000 N   0  0  0  0  0  0  0  0  0  0  0  0
    9.2950    1.3000   20.9480 O   0  0  0  0  0  0  0  0  0  0  0  0
    7.5729   -4.9391   28.6338 O   0  0  0  0  0  0  0  0  0  0  0  0
   14.3591   -2.2885   21.0263 Cl  0  0  0  0  0  0  0  0  0  0  0  0
    2.9846    2.6932   19.3610 H   0  0  0  0  0  0  0  0  0  0  0  0
    3.6235    2.0692   21.6570 H   0  0  0  0  0  0  0  0  0  0  0  0
   14.2650   -1.0428   25.7204 H   0  0  0  0  0  0  0  0  0  0  0  0
   12.2010    0.3002   25.4956 H   0  0  0  0  0  0  0  0  0  0  0  0
    4.3785    2.0113   17.4257 H   0  0  0  0  0  0  0  0  0  0  0  0
    5.6763    0.7332   22.0915 H   0  0  0  0  0  0  0  0  0  0  0  0
    9.5426   -4.5618   23.7797 H   0  0  0  0  0  0  0  0  0  0  0  0
    7.1914   -1.8824   26.1903 H   0  0  0  0  0  0  0  0  0  0  0  0
   10.2669   -2.6745   22.3854 H   0  0  0  0  0  0  0  0  0  0  0  0
    7.8690   -0.0020   24.7587 H   0  0  0  0  0  0  0  0  0  0  0  0
   15.2263   -2.1888   23.7563 H   0  0  0  0  0  0  0  0  0  0  0  0
   12.0384   -0.6435   21.3023 H   0  0  0  0  0  0  0  0  0  0  0  0
    9.9615   -5.0500   26.2711 H   0  0  0  0  0  0  0  0  0  0  0  0
    8.6935   -6.2597   26.5720 H   0  0  0  0  0  0  0  0  0  0  0  0
    6.2628   -5.5350   26.3330 H   0  0  0  0  0  0  0  0  0  0  0  0
    5.9347   -3.8423   25.9023 H   0  0  0  0  0  0  0  0  0  0  0  0
    9.5597   -5.4275   28.7166 H   0  0  0  0  0  0  0  0  0  0  0  0
    9.2344   -3.7511   28.2636 H   0  0  0  0  0  0  0  0  0  0  0  0
    6.8874   -3.0657   28.0553 H   0  0  0  0  0  0  0  0  0  0  0  0
    5.6495   -4.2893   28.3591 H   0  0  0  0  0  0  0  0  0  0  0  0
   10.4495    1.1613   24.2064 H   0  0  0  0  0  0  0  0  0  0  0  0
   10.8804    1.5545   22.5416 H   0  0  0  0  0  0  0  0  0  0  0  0
    8.0897   -1.6082   21.0890 H   0  0  0  0  0  0  0  0  0  0  0  0
  1  2  1  0  0  0  0
  1  5  2  0  0  0  0
  2  6  2  0  0  0  0
  3  4  2  0  0  0  0
  3 11  1  0  0  0  0
  4 13  1  0  0  0  0
  5 14  1  0  0  0  0
  6 15  1  0  0  0  0
  7  9  2  0  0  0  0
  7 16  1  0  0  0  0
  8 10  1  0  0  0  0
  8 16  2  0  0  0  0
  9 17  1  0  0  0  0
 10 17  2  0  0  0  0
 11 18  2  0  0  0  0
 12 13  2  0  0  0  0
 12 18  1  0  0  0  0
 13 24  1  0  0  0  0
 14 15  2  0  0  0  0
 14 25  1  0  0  0  0
 15 27  1  0  0  0  0
 16 28  1  0  0  0  0
 17 30  1  0  0  0  0
 18 33  1  0  0  0  0
 19 29  1  0  0  0  0
 19 30  1  0  0  0  0
 19 31  2  0  0  0  0
 20 22  1  0  0  0  0
 20 28  1  0  0  0  0
 21 23  1  0  0  0  0
 21 28  1  0  0  0  0
 22 32  1  0  0  0  0
 23 32  1  0  0  0  0
 24 30  1  0  0  0  0
 25 26  2  0  0  0  0
 26 27  1  0  0  0  0
 27 29  1  0  0  0  0
  1 34  1  0  0  0  0
  2 35  1  0  0  0  0
  3 36  1  0  0  0  0
  4 37  1  0  0  0  0
  5 38  1  0  0  0  0
  6 39  1  0  0  0  0
  7 40  1  0  0  0  0
  8 41  1  0  0  0  0
  9 42  1  0  0  0  0
 10 43  1  0  0  0  0
 11 44  1  0  0  0  0
 12 45  1  0  0  0  0
 20 46  1  0  0  0  0
 20 47  1  0  0  0  0
 21 48  1  0  0  0  0
 21 49  1  0  0  0  0
 22 50  1  0  0  0  0
 22 51  1  0  0  0  0
 23 52  1  0  0  0  0
 23 53  1  0  0  0  0
 24 54  1  0  0  0  0
 24 55  1  0  0  0  0
 29 56  1  0  0  0  0
M  END
> <clash_score>
0

> <docking_score>
-9.111637115478516

> <overlap_score>
0.9999510049819946

$$$$
BENZO_27_1
  -OEChem-08232013513D

 56 60  0     0  0  0  0  0  0999 V2000
    3.8860    2.1050   19.5250 C   0  0  0  0  0  0  0  0  0  0  0  0
    4.2460    1.7520   20.8250 C   0  0  0  0  0  0  0  0  0  0  0  0
    4.6610    1.7170   18.4380 C   0  0  0  0  0  0  0  0  0  0  0  0
    5.3890    1.0010   21.0690 C   0  0  0  0  0  0  0  0  0  0  0  0
    9.1890   -3.5540   24.0140 C   0  0  0  0  0  0  0  0  0  0  0  0
    7.8700   -2.0610   25.3550 C   0  0  0  0  0  0  0  0  0  0  0  0
    9.5890   -2.4950   23.2210 C   0  0  0  0  0  0  0  0  0  0  0  0
    8.2550   -1.0010   24.5520 C   0  0  0  0  0  0  0  0  0  0  0  0
   13.3211    0.4279   23.4799 C   0  0  0  0  0  0  0  0  0  0  0  0
   12.3254   -0.9364   22.0719 C   0  0  0  0  0  0  0  0  0  0  0  0
   12.0643    0.0962   22.9392 C   0  0  0  0  0  0  0  0  0  0  0  0
    5.7970    0.9500   18.6730 C   0  0  0  0  0  0  0  0  0  0  0  0
    6.1460    0.6070   19.9750 C   0  0  0  0  0  0  0  0  0  0  0  0
    8.3450   -3.3440   25.0980 C   0  0  0  0  0  0  0  0  0  0  0  0
    9.1280   -1.2090   23.4870 C   0  0  0  0  0  0  0  0  0  0  0  0
    9.0430    0.2380   21.4940 C   0  0  0  0  0  0  0  0  0  0  0  0
    8.9524   -5.2012   26.6600 C   0  0  0  0  0  0  0  0  0  0  0  0
    6.6112   -4.5068   26.4379 C   0  0  0  0  0  0  0  0  0  0  0  0
    8.9037   -4.7845   28.1261 C   0  0  0  0  0  0  0  0  0  0  0  0
    6.6374   -4.1243   27.9184 C   0  0  0  0  0  0  0  0  0  0  0  0
   14.4185   -2.1435   21.4082 C   0  0  0  0  0  0  0  0  0  0  0  0
   10.7356    0.7258   23.2427 C   0  0  0  0  0  0  0  0  0  0  0  0
   14.3072   -0.3324   22.9967 N   0  0  0  0  0  0  0  0  0  0  0  0
    6.7100    0.3850   17.8100 N   0  0  0  0  0  0  0  0  0  0  0  0
    7.5840   -0.2700   18.5160 N   0  0  0  0  0  0  0  0  0  0  0  0
   13.6702   -1.1522   22.1433 N   0  0  0  0  0  0  0  0  0  0  0  0
    7.2710   -0.1460   19.8310 N   0  0  0  0  0  0  0  0  0  0  0  0
    7.9775   -4.4014   25.9151 N   0  0  0  0  0  0  0  0  0  0  0  0
    8.0950   -0.7700   20.8440 N   0  0  0  0  0  0  0  0  0  0  0  0
    9.5820   -0.1080   22.7000 N   0  0  0  0  0  0  0  0  0  0  0  0
    9.2950    1.3000   20.9480 O   0  0  0  0  0  0  0  0  0  0  0  0
    7.5729   -4.9391   28.6338 O   0  0  0  0  0  0  0  0  0  0  0  0
    2.9846    2.6932   19.3610 H   0  0  0  0  0  0  0  0  0  0  0  0
    3.6235    2.0692   21.6570 H   0  0  0  0  0  0  0  0  0  0  0  0
    4.3785    2.0113   17.4257 H   0  0  0  0  0  0  0  0  0  0  0  0
    5.6763    0.7332   22.0915 H   0  0  0  0  0  0  0  0  0  0  0  0
    9.5426   -4.5618   23.7797 H   0  0  0  0  0  0  0  0  0  0  0  0
    7.1914   -1.8824   26.1903 H   0  0  0  0  0  0  0  0  0  0  0  0
   10.2669   -2.6745   22.3854 H   0  0  0  0  0  0  0  0  0  0  0  0
    7.8690   -0.0020   24.7587 H   0  0  0  0  0  0  0  0  0  0  0  0
   13.5618    1.1909   24.2066 H   0  0  0  0  0  0  0  0  0  0  0  0
   11.6845   -1.5223   21.4271 H   0  0  0  0  0  0  0  0  0  0  0  0
    9.9615   -5.0500   26.2711 H   0  0  0  0  0  0  0  0  0  0  0  0
    8.6935   -6.2597   26.5720 H   0  0  0  0  0  0  0  0  0  0  0  0
    6.2628   -5.5350   26.3330 H   0  0  0  0  0  0  0  0  0  0  0  0
    5.9347   -3.8423   25.9023 H   0  0  0  0  0  0  0  0  0  0  0  0
    9.5597   -5.4275   28.7166 H   0  0  0  0  0  0  0  0  0  0  0  0
    9.2344   -3.7511   28.2636 H   0  0  0  0  0  0  0  0  0  0  0  0
    6.8874   -3.0657   28.0553 H   0  0  0  0  0  0  0  0  0  0  0  0
    5.6495   -4.2893   28.3591 H   0  0  0  0  0  0  0  0  0  0  0  0
   14.7439   -1.6914   20.4676 H   0  0  0  0  0  0  0  0  0  0  0  0
   15.2824   -2.4598   21.9994 H   0  0  0  0  0  0  0  0  0  0  0  0
   13.7793   -3.0098   21.2163 H   0  0  0  0  0  0  0  0  0  0  0  0
   10.6108    0.8626   24.3225 H   0  0  0  0  0  0  0  0  0  0  0  0
   10.6537    1.7141   22.7781 H   0  0  0  0  0  0  0  0  0  0  0  0
    8.0897   -1.6082   21.0890 H   0  0  0  0  0  0  0  0  0  0  0  0
  1  2  1  0  0  0  0
  1  3  2  0  0  0  0
  2  4  2  0  0  0  0
  3 12  1  0  0  0  0
  4 13  1  0  0  0  0
  5  7  2  0  0  0  0
  5 14  1  0  0  0  0
  6  8  1  0  0  0  0
  6 14  2  0  0  0  0
  7 15  1  0  0  0  0
  8 15  2  0  0  0  0
  9 11  1  0  0  0  0
  9 23  2  0  0  0  0
 10 11  2  0  0  0  0
 10 26  1  0  0  0  0
 11 22  1  0  0  0  0
 12 13  2  0  0  0  0
 12 24  1  0  0  0  0
 13 27  1  0  0  0  0
 14 28  1  0  0  0  0
 15 30  1  0  0  0  0
 16 29  1  0  0  0  0
 16 30  1  0  0  0  0
 16 31  2  0  0  0  0
 17 19  1  0  0  0  0
 17 28  1  0  0  0  0
 18 20  1  0  0  0  0
 18 28  1  0  0  0  0
 19 32  1  0  0  0  0
 20 32  1  0  0  0  0
 21 26  1  0  0  0  0
 22 30  1  0  0  0  0
 23 26  1  0  0  0  0
 24 25  2  0  0  0  0
 25 27  1  0  0  0  0
 27 29  1  0  0  0  0
  1 33  1  0  0  0  0
  2 34  1  0  0  0  0
  3 35  1  0  0  0  0
  4 36  1  0  0  0  0
  5 37  1  0  0  0  0
  6 38  1  0  0  0  0
  7 39  1  0  0  0  0
  8 40  1  0  0  0  0
  9 41  1  0  0  0  0
 10 42  1  0  0  0  0
 17 43  1  0  0  0  0
 17 44  1  0  0  0  0
 18 45  1  0  0  0  0
 18 46  1  0  0  0  0
 19 47  1  0  0  0  0
 19 48  1  0  0  0  0
 20 49  1  0  0  0  0
 20 50  1  0  0  0  0
 21 51  1  0  0  0  0
 21 52  1  0  0  0  0
 21 53  1  0  0  0  0
 22 54  1  0  0  0  0
 22 55  1  0  0  0  0
 29 56  1  0  0  0  0
M  END
> <clash_score>
0

> <docking_score>
-9.832634925842285

> <overlap_score>
0.971368670463562

$$$$
BENZO_31_1
  -OEChem-08232013513D

 52 55  0     0  0  0  0  0  0999 V2000
    3.8860    2.1050   19.5250 C   0  0  0  0  0  0  0  0  0  0  0  0
    4.2460    1.7520   20.8250 C   0  0  0  0  0  0  0  0  0  0  0  0
    4.6610    1.7170   18.4380 C   0  0  0  0  0  0  0  0  0  0  0  0
    5.3890    1.0010   21.0690 C   0  0  0  0  0  0  0  0  0  0  0  0
    9.5890   -2.4950   23.2210 C   0  0  0  0  0  0  0  0  0  0  0  0
    8.2550   -1.0010   24.5520 C   0  0  0  0  0  0  0  0  0  0  0  0
    9.1890   -3.5540   24.0140 C   0  0  0  0  0  0  0  0  0  0  0  0
    7.8700   -2.0610   25.3550 C   0  0  0  0  0  0  0  0  0  0  0  0
   13.3050    0.3863   23.5788 C   0  0  0  0  0  0  0  0  0  0  0  0
   12.3510   -0.9348   22.1024 C   0  0  0  0  0  0  0  0  0  0  0  0
    7.5840   -0.2700   18.5160 C   0  0  0  0  0  0  0  0  0  0  0  0
   12.0658    0.0763   22.9872 C   0  0  0  0  0  0  0  0  0  0  0  0
    5.7970    0.9500   18.6730 C   0  0  0  0  0  0  0  0  0  0  0  0
    6.1460    0.6070   19.9750 C   0  0  0  0  0  0  0  0  0  0  0  0
    9.1280   -1.2090   23.4870 C   0  0  0  0  0  0  0  0  0  0  0  0
    8.3450   -3.3440   25.0980 C   0  0  0  0  0  0  0  0  0  0  0  0
    9.0430    0.2380   21.4940 C   0  0  0  0  0  0  0  0  0  0  0  0
   14.4595   -2.1365   21.4786 C   0  0  0  0  0  0  0  0  0  0  0  0
    7.2639   -5.5573   25.3804 C   0  0  0  0  0  0  0  0  0  0  0  0
    8.3059   -4.4049   27.3385 C   0  0  0  0  0  0  0  0  0  0  0  0
   10.7306    0.7056   23.2620 C   0  0  0  0  0  0  0  0  0  0  0  0
   14.3032   -0.3669   23.1095 N   0  0  0  0  0  0  0  0  0  0  0  0
    6.7100    0.3850   17.8100 N   0  0  0  0  0  0  0  0  0  0  0  0
   13.6915   -1.1603   22.2137 N   0  0  0  0  0  0  0  0  0  0  0  0
    7.2710   -0.1460   19.8310 N   0  0  0  0  0  0  0  0  0  0  0  0
    8.0950   -0.7700   20.8440 N   0  0  0  0  0  0  0  0  0  0  0  0
    9.5820   -0.1080   22.7000 N   0  0  0  0  0  0  0  0  0  0  0  0
    7.9731   -4.4180   25.9279 N   0  0  0  0  0  0  0  0  0  0  0  0
    9.2950    1.3000   20.9480 O   0  0  0  0  0  0  0  0  0  0  0  0
    2.9844    2.6927   19.3613 H   0  0  0  0  0  0  0  0  0  0  0  0
    3.6214    2.0680   21.6561 H   0  0  0  0  0  0  0  0  0  0  0  0
    4.3780    2.0103   17.4276 H   0  0  0  0  0  0  0  0  0  0  0  0
    5.6758    0.7336   22.0897 H   0  0  0  0  0  0  0  0  0  0  0  0
   10.2682   -2.6746   22.3864 H   0  0  0  0  0  0  0  0  0  0  0  0
    7.8692   -0.0022   24.7600 H   0  0  0  0  0  0  0  0  0  0  0  0
    9.5433   -4.5619   23.7809 H   0  0  0  0  0  0  0  0  0  0  0  0
    7.1923   -1.8829   26.1908 H   0  0  0  0  0  0  0  0  0  0  0  0
   13.5246    1.1286   24.3331 H   0  0  0  0  0  0  0  0  0  0  0  0
   11.7296   -1.4998   21.4209 H   0  0  0  0  0  0  0  0  0  0  0  0
    8.4213   -0.8245   18.1548 H   0  0  0  0  0  0  0  0  0  0  0  0
   14.8191   -1.6619   20.5618 H   0  0  0  0  0  0  0  0  0  0  0  0
   15.3011   -2.4733   22.0902 H   0  0  0  0  0  0  0  0  0  0  0  0
   13.8229   -2.9937   21.2423 H   0  0  0  0  0  0  0  0  0  0  0  0
    7.0638   -6.2846   26.1809 H   0  0  0  0  0  0  0  0  0  0  0  0
    6.3117   -5.2212   24.9441 H   0  0  0  0  0  0  0  0  0  0  0  0
    7.8778   -6.0307   24.6000 H   0  0  0  0  0  0  0  0  0  0  0  0
    7.9321   -5.3244   27.8126 H   0  0  0  0  0  0  0  0  0  0  0  0
    9.3982   -4.3494   27.4569 H   0  0  0  0  0  0  0  0  0  0  0  0
    7.8404   -3.5305   27.8169 H   0  0  0  0  0  0  0  0  0  0  0  0
   10.5698    0.8148   24.3400 H   0  0  0  0  0  0  0  0  0  0  0  0
   10.6696    1.7061   22.8210 H   0  0  0  0  0  0  0  0  0  0  0  0
    8.0545   -1.6267   21.0593 H   0  0  0  0  0  0  0  0  0  0  0  0
  1  2  1  0  0  0  0
  1  3  2  0  0  0  0
  2  4  2  0  0  0  0
  3 13  1  0  0  0  0
  4 14  1  0  0  0  0
  5  7  2  0  0  0  0
  5 15  1  0  0  0  0
  6  8  1  0  0  0  0
  6 15  2  0  0  0  0
  7 16  1  0  0  0  0
  8 16  2  0  0  0  0
  9 12  1  0  0  0  0
  9 22  2  0  0  0  0
 10 12  2  0  0  0  0
 10 24  1  0  0  0  0
 11 23  2  0  0  0  0
 11 25  1  0  0  0  0
 12 21  1  0  0  0  0
 13 14  2  0  0  0  0
 13 23  1  0  0  0  0
 14 25  1  0  0  0  0
 15 27  1  0  0  0  0
 16 28  1  0  0  0  0
 17 26  1  0  0  0  0
 17 27  1  0  0  0  0
 17 29  2  0  0  0  0
 18 24  1  0  0  0  0
 19 28  1  0  0  0  0
 20 28  1  0  0  0  0
 21 27  1  0  0  0  0
 22 24  1  0  0  0  0
 25 26  1  0  0  0  0
  1 30  1  0  0  0  0
  2 31  1  0  0  0  0
  3 32  1  0  0  0  0
  4 33  1  0  0  0  0
  5 34  1  0  0  0  0
  6 35  1  0  0  0  0
  7 36  1  0  0  0  0
  8 37  1  0  0  0  0
  9 38  1  0  0  0  0
 10 39  1  0  0  0  0
 11 40  1  0  0  0  0
 18 41  1  0  0  0  0
 18 42  1  0  0  0  0
 18 43  1  0  0  0  0
 19 44  1  0  0  0  0
 19 45  1  0  0  0  0
 19 46  1  0  0  0  0
 20 47  1  0  0  0  0
 20 48  1  0  0  0  0
 20 49  1  0  0  0  0
 21 50  1  0  0  0  0
 21 51  1  0  0  0  0
 26 52  1  0  0  0  0
M  END
> <clash_score>
0

> <docking_score>
-9.336931228637695

> <overlap_score>
0.9275054931640625

$$$$
BENZO_30_1
  -OEChem-08232013513D

 52 55  0     0  0  0  0  0  0999 V2000
    3.8860    2.1050   19.5250 C   0  0  0  0  0  0  0  0  0  0  0  0
    4.2460    1.7520   20.8250 C   0  0  0  0  0  0  0  0  0  0  0  0
   13.7270   -1.0011   24.8368 C   0  0  0  0  0  0  0  0  0  0  0  0
   12.5651   -0.2446   24.6846 C   0  0  0  0  0  0  0  0  0  0  0  0
    4.6610    1.7170   18.4380 C   0  0  0  0  0  0  0  0  0  0  0  0
    5.3890    1.0010   21.0690 C   0  0  0  0  0  0  0  0  0  0  0  0
    9.5890   -2.4950   23.2210 C   0  0  0  0  0  0  0  0  0  0  0  0
    8.2550   -1.0010   24.5520 C   0  0  0  0  0  0  0  0  0  0  0  0
    9.1890   -3.5540   24.0140 C   0  0  0  0  0  0  0  0  0  0  0  0
    7.8700   -2.0610   25.3550 C   0  0  0  0  0  0  0  0  0  0  0  0
   14.3060   -1.6207   23.7293 C   0  0  0  0  0  0  0  0  0  0  0  0
   12.5610   -0.7274   22.3173 C   0  0  0  0  0  0  0  0  0  0  0  0
    7.5840   -0.2700   18.5160 C   0  0  0  0  0  0  0  0  0  0  0  0
   11.9820   -0.1078   23.4249 C   0  0  0  0  0  0  0  0  0  0  0  0
    5.7970    0.9500   18.6730 C   0  0  0  0  0  0  0  0  0  0  0  0
    6.1460    0.6070   19.9750 C   0  0  0  0  0  0  0  0  0  0  0  0
    9.1280   -1.2090   23.4870 C   0  0  0  0  0  0  0  0  0  0  0  0
    8.3450   -3.3440   25.0980 C   0  0  0  0  0  0  0  0  0  0  0  0
   13.7230   -1.4838   22.4696 C   0  0  0  0  0  0  0  0  0  0  0  0
    9.0430    0.2380   21.4940 C   0  0  0  0  0  0  0  0  0  0  0  0
    7.2639   -5.5573   25.3804 C   0  0  0  0  0  0  0  0  0  0  0  0
    8.3059   -4.4049   27.3385 C   0  0  0  0  0  0  0  0  0  0  0  0
   10.7306    0.7056   23.2620 C   0  0  0  0  0  0  0  0  0  0  0  0
    6.7100    0.3850   17.8100 N   0  0  0  0  0  0  0  0  0  0  0  0
    7.2710   -0.1460   19.8310 N   0  0  0  0  0  0  0  0  0  0  0  0
    8.0950   -0.7700   20.8440 N   0  0  0  0  0  0  0  0  0  0  0  0
    9.5820   -0.1080   22.7000 N   0  0  0  0  0  0  0  0  0  0  0  0
    7.9731   -4.4180   25.9279 N   0  0  0  0  0  0  0  0  0  0  0  0
    9.2950    1.3000   20.9480 O   0  0  0  0  0  0  0  0  0  0  0  0
   14.4371   -2.2494   21.1037 Cl  0  0  0  0  0  0  0  0  0  0  0  0
    2.9844    2.6927   19.3613 H   0  0  0  0  0  0  0  0  0  0  0  0
    3.6214    2.0680   21.6561 H   0  0  0  0  0  0  0  0  0  0  0  0
   14.1807   -1.1075   25.8180 H   0  0  0  0  0  0  0  0  0  0  0  0
   12.1208    0.2345   25.5531 H   0  0  0  0  0  0  0  0  0  0  0  0
    4.3780    2.0103   17.4276 H   0  0  0  0  0  0  0  0  0  0  0  0
    5.6758    0.7336   22.0897 H   0  0  0  0  0  0  0  0  0  0  0  0
   10.2682   -2.6746   22.3864 H   0  0  0  0  0  0  0  0  0  0  0  0
    7.8692   -0.0022   24.7600 H   0  0  0  0  0  0  0  0  0  0  0  0
    9.5433   -4.5619   23.7809 H   0  0  0  0  0  0  0  0  0  0  0  0
    7.1923   -1.8829   26.1908 H   0  0  0  0  0  0  0  0  0  0  0  0
   15.2115   -2.2074   23.8629 H   0  0  0  0  0  0  0  0  0  0  0  0
   12.1028   -0.6172   21.3371 H   0  0  0  0  0  0  0  0  0  0  0  0
    8.4213   -0.8245   18.1548 H   0  0  0  0  0  0  0  0  0  0  0  0
    7.0638   -6.2846   26.1809 H   0  0  0  0  0  0  0  0  0  0  0  0
    6.3117   -5.2212   24.9441 H   0  0  0  0  0  0  0  0  0  0  0  0
    7.8778   -6.0307   24.6000 H   0  0  0  0  0  0  0  0  0  0  0  0
    7.9321   -5.3244   27.8126 H   0  0  0  0  0  0  0  0  0  0  0  0
    9.3982   -4.3494   27.4569 H   0  0  0  0  0  0  0  0  0  0  0  0
    7.8404   -3.5305   27.8169 H   0  0  0  0  0  0  0  0  0  0  0  0
   10.4108    1.1190   24.2247 H   0  0  0  0  0  0  0  0  0  0  0  0
   10.8961    1.5498   22.5844 H   0  0  0  0  0  0  0  0  0  0  0  0
    8.0545   -1.6267   21.0593 H   0  0  0  0  0  0  0  0  0  0  0  0
  1  2  1  0  0  0  0
  1  5  2  0  0  0  0
  2  6  2  0  0  0  0
  3  4  2  0  0  0  0
  3 11  1  0  0  0  0
  4 14  1  0  0  0  0
  5 15  1  0  0  0  0
  6 16  1  0  0  0  0
  7  9  2  0  0  0  0
  7 17  1  0  0  0  0
  8 10  1  0  0  0  0
  8 17  2  0  0  0  0
  9 18  1  0  0  0  0
 10 18  2  0  0  0  0
 11 19  2  0  0  0  0
 12 14  2  0  0  0  0
 12 19  1  0  0  0  0
 13 24  2  0  0  0  0
 13 25  1  0  0  0  0
 14 23  1  0  0  0  0
 15 16  2  0  0  0  0
 15 24  1  0  0  0  0
 16 25  1  0  0  0  0
 17 27  1  0  0  0  0
 18 28  1  0  0  0  0
 19 30  1  0  0  0  0
 20 26  1  0  0  0  0
 20 27  1  0  0  0  0
 20 29  2  0  0  0  0
 21 28  1  0  0  0  0
 22 28  1  0  0  0  0
 23 27  1  0  0  0  0
 25 26  1  0  0  0  0
  1 31  1  0  0  0  0
  2 32  1  0  0  0  0
  3 33  1  0  0  0  0
  4 34  1  0  0  0  0
  5 35  1  0  0  0  0
  6 36  1  0  0  0  0
  7 37  1  0  0  0  0
  8 38  1  0  0  0  0
  9 39  1  0  0  0  0
 10 40  1  0  0  0  0
 11 41  1  0  0  0  0
 12 42  1  0  0  0  0
 13 43  1  0  0  0  0
 21 44  1  0  0  0  0
 21 45  1  0  0  0  0
 21 46  1  0  0  0  0
 22 47  1  0  0  0  0
 22 48  1  0  0  0  0
 22 49  1  0  0  0  0
 23 50  1  0  0  0  0
 23 51  1  0  0  0  0
 26 52  1  0  0  0  0
M  END
> <clash_score>
0

> <docking_score>
-8.564693450927734

> <overlap_score>
0.9516026973724365

$$$$
BENZO_33_1
  -OEChem-08232013513D

 54 57  0     0  0  0  0  0  0999 V2000
   14.3067   -1.6202   23.7268 C   0  0  0  0  0  0  0  0  0  0  0  0
   14.0548   -0.5497   24.5847 C   0  0  0  0  0  0  0  0  0  0  0  0
   13.3962   -1.9346   22.7178 C   0  0  0  0  0  0  0  0  0  0  0  0
    3.8860    2.1050   19.5250 C   0  0  0  0  0  0  0  0  0  0  0  0
    4.2460    1.7520   20.8250 C   0  0  0  0  0  0  0  0  0  0  0  0
   12.8925    0.2066   24.4338 C   0  0  0  0  0  0  0  0  0  0  0  0
   12.2339   -1.1783   22.5669 C   0  0  0  0  0  0  0  0  0  0  0  0
    4.6610    1.7170   18.4380 C   0  0  0  0  0  0  0  0  0  0  0  0
    5.3890    1.0010   21.0690 C   0  0  0  0  0  0  0  0  0  0  0  0
    9.1890   -3.5540   24.0140 C   0  0  0  0  0  0  0  0  0  0  0  0
    7.8700   -2.0610   25.3550 C   0  0  0  0  0  0  0  0  0  0  0  0
    9.5890   -2.4950   23.2210 C   0  0  0  0  0  0  0  0  0  0  0  0
    8.2550   -1.0010   24.5520 C   0  0  0  0  0  0  0  0  0  0  0  0
    7.5840   -0.2700   18.5160 C   0  0  0  0  0  0  0  0  0  0  0  0
   11.9820   -0.1078   23.4249 C   0  0  0  0  0  0  0  0  0  0  0  0
    5.7970    0.9500   18.6730 C   0  0  0  0  0  0  0  0  0  0  0  0
    6.1460    0.6070   19.9750 C   0  0  0  0  0  0  0  0  0  0  0  0
    8.3450   -3.3440   25.0980 C   0  0  0  0  0  0  0  0  0  0  0  0
    9.1280   -1.2090   23.4870 C   0  0  0  0  0  0  0  0  0  0  0  0
    7.6600   -4.3755   27.2873 C   0  0  0  0  0  0  0  0  0  0  0  0
    9.0430    0.2380   21.4940 C   0  0  0  0  0  0  0  0  0  0  0  0
    8.4364   -6.7636   27.6038 C   0  0  0  0  0  0  0  0  0  0  0  0
   10.7306    0.7056   23.2620 C   0  0  0  0  0  0  0  0  0  0  0  0
    7.3108   -5.7642   27.8016 C   0  0  0  0  0  0  0  0  0  0  0  0
    6.7100    0.3850   17.8100 N   0  0  0  0  0  0  0  0  0  0  0  0
    7.2710   -0.1460   19.8310 N   0  0  0  0  0  0  0  0  0  0  0  0
    7.9771   -4.4058   25.9196 N   0  0  0  0  0  0  0  0  0  0  0  0
    8.0950   -0.7700   20.8440 N   0  0  0  0  0  0  0  0  0  0  0  0
    9.5820   -0.1080   22.7000 N   0  0  0  0  0  0  0  0  0  0  0  0
    7.6495   -3.3899   28.0173 O   0  0  0  0  0  0  0  0  0  0  0  0
    9.2950    1.3000   20.9480 O   0  0  0  0  0  0  0  0  0  0  0  0
   15.2124   -2.2081   23.8436 H   0  0  0  0  0  0  0  0  0  0  0  0
   14.7642   -0.3041   25.3697 H   0  0  0  0  0  0  0  0  0  0  0  0
   13.5925   -2.7673   22.0490 H   0  0  0  0  0  0  0  0  0  0  0  0
    2.9844    2.6927   19.3613 H   0  0  0  0  0  0  0  0  0  0  0  0
    3.6214    2.0680   21.6561 H   0  0  0  0  0  0  0  0  0  0  0  0
   12.7045    1.0388   25.1070 H   0  0  0  0  0  0  0  0  0  0  0  0
   11.5302   -1.4307   21.7781 H   0  0  0  0  0  0  0  0  0  0  0  0
    4.3780    2.0103   17.4276 H   0  0  0  0  0  0  0  0  0  0  0  0
    5.6758    0.7336   22.0897 H   0  0  0  0  0  0  0  0  0  0  0  0
    9.5436   -4.5614   23.7799 H   0  0  0  0  0  0  0  0  0  0  0  0
    7.1918   -1.8823   26.1906 H   0  0  0  0  0  0  0  0  0  0  0  0
   10.2676   -2.6754   22.3861 H   0  0  0  0  0  0  0  0  0  0  0  0
    7.8686   -0.0026   24.7598 H   0  0  0  0  0  0  0  0  0  0  0  0
    8.4213   -0.8245   18.1548 H   0  0  0  0  0  0  0  0  0  0  0  0
    8.6964   -6.8584   26.5443 H   0  0  0  0  0  0  0  0  0  0  0  0
    8.1392   -7.7502   27.9725 H   0  0  0  0  0  0  0  0  0  0  0  0
    9.3369   -6.4535   28.1440 H   0  0  0  0  0  0  0  0  0  0  0  0
   10.4108    1.1190   24.2247 H   0  0  0  0  0  0  0  0  0  0  0  0
   10.8961    1.5498   22.5844 H   0  0  0  0  0  0  0  0  0  0  0  0
    7.0717   -5.6896   28.8687 H   0  0  0  0  0  0  0  0  0  0  0  0
    6.4146   -6.1142   27.2764 H   0  0  0  0  0  0  0  0  0  0  0  0
    7.9294   -5.3302   25.4754 H   0  0  0  0  0  0  0  0  0  0  0  0
    8.0545   -1.6267   21.0593 H   0  0  0  0  0  0  0  0  0  0  0  0
  1  2  1  0  0  0  0
  1  3  2  0  0  0  0
  2  6  2  0  0  0  0
  3  7  1  0  0  0  0
  4  5  1  0  0  0  0
  4  8  2  0  0  0  0
  5  9  2  0  0  0  0
  6 15  1  0  0  0  0
  7 15  2  0  0  0  0
  8 16  1  0  0  0  0
  9 17  1  0  0  0  0
 10 12  2  0  0  0  0
 10 18  1  0  0  0  0
 11 13  1  0  0  0  0
 11 18  2  0  0  0  0
 12 19  1  0  0  0  0
 13 19  2  0  0  0  0
 14 25  2  0  0  0  0
 14 26  1  0  0  0  0
 15 23  1  0  0  0  0
 16 17  2  0  0  0  0
 16 25  1  0  0  0  0
 17 26  1  0  0  0  0
 18 27  1  0  0  0  0
 19 29  1  0  0  0  0
 20 24  1  0  0  0  0
 20 27  1  0  0  0  0
 20 30  2  0  0  0  0
 21 28  1  0  0  0  0
 21 29  1  0  0  0  0
 21 31  2  0  0  0  0
 22 24  1  0  0  0  0
 23 29  1  0  0  0  0
 26 28  1  0  0  0  0
  1 32  1  0  0  0  0
  2 33  1  0  0  0  0
  3 34  1  0  0  0  0
  4 35  1  0  0  0  0
  5 36  1  0  0  0  0
  6 37  1  0  0  0  0
  7 38  1  0  0  0  0
  8 39  1  0  0  0  0
  9 40  1  0  0  0  0
 10 41  1  0  0  0  0
 11 42  1  0  0  0  0
 12 43  1  0  0  0  0
 13 44  1  0  0  0  0
 14 45  1  0  0  0  0
 22 46  1  0  0  0  0
 22 47  1  0  0  0  0
 22 48  1  0  0  0  0
 23 49  1  0  0  0  0
 23 50  1  0  0  0  0
 24 51  1  0  0  0  0
 24 52  1  0  0  0  0
 27 53  1  0  0  0  0
 28 54  1  0  0  0  0
M  END
> <clash_score>
0

> <docking_score>
-9.231433868408203

> <overlap_score>
0.9823762774467468

$$$$
BENZO_32_1
  -OEChem-08232013513D

 51 54  0     0  0  0  0  0  0999 V2000
    3.8860    2.1050   19.5250 C   0  0  0  0  0  0  0  0  0  0  0  0
    4.2460    1.7520   20.8250 C   0  0  0  0  0  0  0  0  0  0  0  0
    4.6610    1.7170   18.4380 C   0  0  0  0  0  0  0  0  0  0  0  0
    5.3890    1.0010   21.0690 C   0  0  0  0  0  0  0  0  0  0  0  0
    9.1890   -3.5540   24.0140 C   0  0  0  0  0  0  0  0  0  0  0  0
    7.8700   -2.0610   25.3550 C   0  0  0  0  0  0  0  0  0  0  0  0
    9.5890   -2.4950   23.2210 C   0  0  0  0  0  0  0  0  0  0  0  0
    8.2550   -1.0010   24.5520 C   0  0  0  0  0  0  0  0  0  0  0  0
   12.6465   -0.3027   24.6701 C   0  0  0  0  0  0  0  0  0  0  0  0
   13.7702   -1.0888   24.5395 C   0  0  0  0  0  0  0  0  0  0  0  0
   12.6233   -0.7523   22.3898 C   0  0  0  0  0  0  0  0  0  0  0  0
    7.5840   -0.2700   18.5160 C   0  0  0  0  0  0  0  0  0  0  0  0
   11.9820   -0.1078   23.4249 C   0  0  0  0  0  0  0  0  0  0  0  0
    5.7970    0.9500   18.6730 C   0  0  0  0  0  0  0  0  0  0  0  0
    6.1460    0.6070   19.9750 C   0  0  0  0  0  0  0  0  0  0  0  0
    8.3450   -3.3440   25.0980 C   0  0  0  0  0  0  0  0  0  0  0  0
    9.1280   -1.2090   23.4870 C   0  0  0  0  0  0  0  0  0  0  0  0
    8.2023   -4.5554   27.2977 C   0  0  0  0  0  0  0  0  0  0  0  0
    9.0430    0.2380   21.4940 C   0  0  0  0  0  0  0  0  0  0  0  0
    7.8889   -6.0857   29.2891 C   0  0  0  0  0  0  0  0  0  0  0  0
   10.7306    0.7056   23.2620 C   0  0  0  0  0  0  0  0  0  0  0  0
    7.6346   -5.8716   27.8078 C   0  0  0  0  0  0  0  0  0  0  0  0
    6.7100    0.3850   17.8100 N   0  0  0  0  0  0  0  0  0  0  0  0
    7.2710   -0.1460   19.8310 N   0  0  0  0  0  0  0  0  0  0  0  0
    7.9771   -4.4058   25.9196 N   0  0  0  0  0  0  0  0  0  0  0  0
    8.0950   -0.7700   20.8440 N   0  0  0  0  0  0  0  0  0  0  0  0
    9.5820   -0.1080   22.7000 N   0  0  0  0  0  0  0  0  0  0  0  0
    8.7738   -3.7627   28.0389 O   0  0  0  0  0  0  0  0  0  0  0  0
    9.2950    1.3000   20.9480 O   0  0  0  0  0  0  0  0  0  0  0  0
   14.0203   -1.5882   22.9208 S   0  0  0  0  0  0  0  0  0  0  0  0
    2.9844    2.6927   19.3613 H   0  0  0  0  0  0  0  0  0  0  0  0
    3.6214    2.0680   21.6561 H   0  0  0  0  0  0  0  0  0  0  0  0
    4.3780    2.0103   17.4276 H   0  0  0  0  0  0  0  0  0  0  0  0
    5.6758    0.7336   22.0897 H   0  0  0  0  0  0  0  0  0  0  0  0
    9.5436   -4.5614   23.7799 H   0  0  0  0  0  0  0  0  0  0  0  0
    7.1918   -1.8823   26.1906 H   0  0  0  0  0  0  0  0  0  0  0  0
   10.2676   -2.6754   22.3861 H   0  0  0  0  0  0  0  0  0  0  0  0
    7.8686   -0.0026   24.7598 H   0  0  0  0  0  0  0  0  0  0  0  0
   12.3206    0.1112   25.6160 H   0  0  0  0  0  0  0  0  0  0  0  0
   14.4565   -1.3932   25.3170 H   0  0  0  0  0  0  0  0  0  0  0  0
   12.3424   -0.7738   21.3459 H   0  0  0  0  0  0  0  0  0  0  0  0
    8.4213   -0.8245   18.1548 H   0  0  0  0  0  0  0  0  0  0  0  0
    8.9616   -6.0802   29.5088 H   0  0  0  0  0  0  0  0  0  0  0  0
    7.4788   -7.0478   29.6110 H   0  0  0  0  0  0  0  0  0  0  0  0
    7.4199   -5.2969   29.8865 H   0  0  0  0  0  0  0  0  0  0  0  0
   10.4108    1.1190   24.2247 H   0  0  0  0  0  0  0  0  0  0  0  0
   10.8961    1.5498   22.5844 H   0  0  0  0  0  0  0  0  0  0  0  0
    6.5553   -5.8817   27.6171 H   0  0  0  0  0  0  0  0  0  0  0  0
    8.0880   -6.6902   27.2370 H   0  0  0  0  0  0  0  0  0  0  0  0
    7.4775   -5.1801   25.4670 H   0  0  0  0  0  0  0  0  0  0  0  0
    8.0545   -1.6267   21.0593 H   0  0  0  0  0  0  0  0  0  0  0  0
  1  2  1  0  0  0  0
  1  3  2  0  0  0  0
  2  4  2  0  0  0  0
  3 14  1  0  0  0  0
  4 15  1  0  0  0  0
  5  7  2  0  0  0  0
  5 16  1  0  0  0  0
  6  8  1  0  0  0  0
  6 16  2  0  0  0  0
  7 17  1  0  0  0  0
  8 17  2  0  0  0  0
  9 10  2  0  0  0  0
  9 13  1  0  0  0  0
 10 30  1  0  0  0  0
 11 13  2  0  0  0  0
 11 30  1  0  0  0  0
 12 23  2  0  0  0  0
 12 24  1  0  0  0  0
 13 21  1  0  0  0  0
 14 15  2  0  0  0  0
 14 23  1  0  0  0  0
 15 24  1  0  0  0  0
 16 25  1  0  0  0  0
 17 27  1  0  0  0  0
 18 22  1  0  0  0  0
 18 25  1  0  0  0  0
 18 28  2  0  0  0  0
 19 26  1  0  0  0  0
 19 27  1  0  0  0  0
 19 29  2  0  0  0  0
 20 22  1  0  0  0  0
 21 27  1  0  0  0  0
 24 26  1  0  0  0  0
  1 31  1  0  0  0  0
  2 32  1  0  0  0  0
  3 33  1  0  0  0  0
  4 34  1  0  0  0  0
  5 35  1  0  0  0  0
  6 36  1  0  0  0  0
  7 37  1  0  0  0  0
  8 38  1  0  0  0  0
  9 39  1  0  0  0  0
 10 40  1  0  0  0  0
 11 41  1  0  0  0  0
 12 42  1  0  0  0  0
 20 43  1  0  0  0  0
 20 44  1  0  0  0  0
 20 45  1  0  0  0  0
 21 46  1  0  0  0  0
 21 47  1  0  0  0  0
 22 48  1  0  0  0  0
 22 49  1  0  0  0  0
 25 50  1  0  0  0  0
 26 51  1  0  0  0  0
M  END
> <clash_score>
0

> <docking_score>
-9.374861717224121

> <overlap_score>
0.9850606918334961

$$$$
BENZO_35_1
  -OEChem-08232013513D

 54 57  0     0  0  0  0  0  0999 V2000
    3.8860    2.1050   19.5250 C   0  0  0  0  0  0  0  0  0  0  0  0
    4.2460    1.7520   20.8250 C   0  0  0  0  0  0  0  0  0  0  0  0
    4.6610    1.7170   18.4380 C   0  0  0  0  0  0  0  0  0  0  0  0
    5.3890    1.0010   21.0690 C   0  0  0  0  0  0  0  0  0  0  0  0
    9.1890   -3.5540   24.0140 C   0  0  0  0  0  0  0  0  0  0  0  0
    7.8700   -2.0610   25.3550 C   0  0  0  0  0  0  0  0  0  0  0  0
    9.5890   -2.4950   23.2210 C   0  0  0  0  0  0  0  0  0  0  0  0
    8.2550   -1.0010   24.5520 C   0  0  0  0  0  0  0  0  0  0  0  0
   13.3050    0.3863   23.5788 C   0  0  0  0  0  0  0  0  0  0  0  0
   12.3510   -0.9348   22.1024 C   0  0  0  0  0  0  0  0  0  0  0  0
    7.5840   -0.2700   18.5160 C   0  0  0  0  0  0  0  0  0  0  0  0
   12.0658    0.0763   22.9872 C   0  0  0  0  0  0  0  0  0  0  0  0
    5.7970    0.9500   18.6730 C   0  0  0  0  0  0  0  0  0  0  0  0
    6.1460    0.6070   19.9750 C   0  0  0  0  0  0  0  0  0  0  0  0
    8.3450   -3.3440   25.0980 C   0  0  0  0  0  0  0  0  0  0  0  0
    9.1280   -1.2090   23.4870 C   0  0  0  0  0  0  0  0  0  0  0  0
    7.6600   -4.3755   27.2873 C   0  0  0  0  0  0  0  0  0  0  0  0
    9.0430    0.2380   21.4940 C   0  0  0  0  0  0  0  0  0  0  0  0
    8.4364   -6.7636   27.6038 C   0  0  0  0  0  0  0  0  0  0  0  0
   14.4595   -2.1365   21.4786 C   0  0  0  0  0  0  0  0  0  0  0  0
   10.7306    0.7056   23.2620 C   0  0  0  0  0  0  0  0  0  0  0  0
    7.3108   -5.7642   27.8016 C   0  0  0  0  0  0  0  0  0  0  0  0
   14.3032   -0.3669   23.1095 N   0  0  0  0  0  0  0  0  0  0  0  0
    6.7100    0.3850   17.8100 N   0  0  0  0  0  0  0  0  0  0  0  0
   13.6915   -1.1603   22.2137 N   0  0  0  0  0  0  0  0  0  0  0  0
    7.2710   -0.1460   19.8310 N   0  0  0  0  0  0  0  0  0  0  0  0
    7.9771   -4.4058   25.9196 N   0  0  0  0  0  0  0  0  0  0  0  0
    8.0950   -0.7700   20.8440 N   0  0  0  0  0  0  0  0  0  0  0  0
    9.5820   -0.1080   22.7000 N   0  0  0  0  0  0  0  0  0  0  0  0
    7.6495   -3.3899   28.0173 O   0  0  0  0  0  0  0  0  0  0  0  0
    9.2950    1.3000   20.9480 O   0  0  0  0  0  0  0  0  0  0  0  0
    2.9844    2.6927   19.3613 H   0  0  0  0  0  0  0  0  0  0  0  0
    3.6214    2.0680   21.6561 H   0  0  0  0  0  0  0  0  0  0  0  0
    4.3780    2.0103   17.4276 H   0  0  0  0  0  0  0  0  0  0  0  0
    5.6758    0.7336   22.0897 H   0  0  0  0  0  0  0  0  0  0  0  0
    9.5436   -4.5614   23.7799 H   0  0  0  0  0  0  0  0  0  0  0  0
    7.1918   -1.8823   26.1906 H   0  0  0  0  0  0  0  0  0  0  0  0
   10.2676   -2.6754   22.3861 H   0  0  0  0  0  0  0  0  0  0  0  0
    7.8686   -0.0026   24.7598 H   0  0  0  0  0  0  0  0  0  0  0  0
   13.5246    1.1286   24.3331 H   0  0  0  0  0  0  0  0  0  0  0  0
   11.7296   -1.4998   21.4209 H   0  0  0  0  0  0  0  0  0  0  0  0
    8.4213   -0.8245   18.1548 H   0  0  0  0  0  0  0  0  0  0  0  0
    8.6964   -6.8584   26.5443 H   0  0  0  0  0  0  0  0  0  0  0  0
    8.1392   -7.7502   27.9725 H   0  0  0  0  0  0  0  0  0  0  0  0
    9.3369   -6.4535   28.1440 H   0  0  0  0  0  0  0  0  0  0  0  0
   14.8191   -1.6619   20.5618 H   0  0  0  0  0  0  0  0  0  0  0  0
   15.3011   -2.4733   22.0902 H   0  0  0  0  0  0  0  0  0  0  0  0
   13.8229   -2.9937   21.2423 H   0  0  0  0  0  0  0  0  0  0  0  0
   10.5698    0.8148   24.3400 H   0  0  0  0  0  0  0  0  0  0  0  0
   10.6696    1.7061   22.8210 H   0  0  0  0  0  0  0  0  0  0  0  0
    7.0717   -5.6896   28.8687 H   0  0  0  0  0  0  0  0  0  0  0  0
    6.4146   -6.1142   27.2764 H   0  0  0  0  0  0  0  0  0  0  0  0
    7.9294   -5.3302   25.4754 H   0  0  0  0  0  0  0  0  0  0  0  0
    8.0545   -1.6267   21.0593 H   0  0  0  0  0  0  0  0  0  0  0  0
  1  2  1  0  0  0  0
  1  3  2  0  0  0  0
  2  4  2  0  0  0  0
  3 13  1  0  0  0  0
  4 14  1  0  0  0  0
  5  7  2  0  0  0  0
  5 15  1  0  0  0  0
  6  8  1  0  0  0  0
  6 15  2  0  0  0  0
  7 16  1  0  0  0  0
  8 16  2  0  0  0  0
  9 12  1  0  0  0  0
  9 23  2  0  0  0  0
 10 12  2  0  0  0  0
 10 25  1  0  0  0  0
 11 24  2  0  0  0  0
 11 26  1  0  0  0  0
 12 21  1  0  0  0  0
 13 14  2  0  0  0  0
 13 24  1  0  0  0  0
 14 26  1  0  0  0  0
 15 27  1  0  0  0  0
 16 29  1  0  0  0  0
 17 22  1  0  0  0  0
 17 27  1  0  0  0  0
 17 30  2  0  0  0  0
 18 28  1  0  0  0  0
 18 29  1  0  0  0  0
 18 31  2  0  0  0  0
 19 22  1  0  0  0  0
 20 25  1  0  0  0  0
 21 29  1  0  0  0  0
 23 25  1  0  0  0  0
 26 28  1  0  0  0  0
  1 32  1  0  0  0  0
  2 33  1  0  0  0  0
  3 34  1  0  0  0  0
  4 35  1  0  0  0  0
  5 36  1  0  0  0  0
  6 37  1  0  0  0  0
  7 38  1  0  0  0  0
  8 39  1  0  0  0  0
  9 40  1  0  0  0  0
 10 41  1  0  0  0  0
 11 42  1  0  0  0  0
 19 43  1  0  0  0  0
 19 44  1  0  0  0  0
 19 45  1  0  0  0  0
 20 46  1  0  0  0  0
 20 47  1  0  0  0  0
 20 48  1  0  0  0  0
 21 49  1  0  0  0  0
 21 50  1  0  0  0  0
 22 51  1  0  0  0  0
 22 52  1  0  0  0  0
 27 53  1  0  0  0  0
 28 54  1  0  0  0  0
M  END
> <clash_score>
0

> <docking_score>
-9.105911254882812

> <overlap_score>
0.9666417837142944

$$$$
BENZO_34_1
  -OEChem-08232013513D

 54 57  0     0  0  0  0  0  0999 V2000
    3.8860    2.1050   19.5250 C   0  0  0  0  0  0  0  0  0  0  0  0
    4.2460    1.7520   20.8250 C   0  0  0  0  0  0  0  0  0  0  0  0
   13.7270   -1.0011   24.8368 C   0  0  0  0  0  0  0  0  0  0  0  0
   12.5651   -0.2446   24.6846 C   0  0  0  0  0  0  0  0  0  0  0  0
    4.6610    1.7170   18.4380 C   0  0  0  0  0  0  0  0  0  0  0  0
    5.3890    1.0010   21.0690 C   0  0  0  0  0  0  0  0  0  0  0  0
    9.1890   -3.5540   24.0140 C   0  0  0  0  0  0  0  0  0  0  0  0
    7.8700   -2.0610   25.3550 C   0  0  0  0  0  0  0  0  0  0  0  0
    9.5890   -2.4950   23.2210 C   0  0  0  0  0  0  0  0  0  0  0  0
    8.2550   -1.0010   24.5520 C   0  0  0  0  0  0  0  0  0  0  0  0
   14.3060   -1.6207   23.7293 C   0  0  0  0  0  0  0  0  0  0  0  0
   12.5610   -0.7274   22.3173 C   0  0  0  0  0  0  0  0  0  0  0  0
    7.5840   -0.2700   18.5160 C   0  0  0  0  0  0  0  0  0  0  0  0
   11.9820   -0.1078   23.4249 C   0  0  0  0  0  0  0  0  0  0  0  0
    5.7970    0.9500   18.6730 C   0  0  0  0  0  0  0  0  0  0  0  0
    6.1460    0.6070   19.9750 C   0  0  0  0  0  0  0  0  0  0  0  0
    8.3450   -3.3440   25.0980 C   0  0  0  0  0  0  0  0  0  0  0  0
    9.1280   -1.2090   23.4870 C   0  0  0  0  0  0  0  0  0  0  0  0
   13.7230   -1.4838   22.4696 C   0  0  0  0  0  0  0  0  0  0  0  0
    8.2023   -4.5554   27.2977 C   0  0  0  0  0  0  0  0  0  0  0  0
    9.0430    0.2380   21.4940 C   0  0  0  0  0  0  0  0  0  0  0  0
    7.8889   -6.0857   29.2891 C   0  0  0  0  0  0  0  0  0  0  0  0
   10.7306    0.7056   23.2620 C   0  0  0  0  0  0  0  0  0  0  0  0
    7.6346   -5.8716   27.8078 C   0  0  0  0  0  0  0  0  0  0  0  0
    6.7100    0.3850   17.8100 N   0  0  0  0  0  0  0  0  0  0  0  0
    7.2710   -0.1460   19.8310 N   0  0  0  0  0  0  0  0  0  0  0  0
    7.9771   -4.4058   25.9196 N   0  0  0  0  0  0  0  0  0  0  0  0
    8.0950   -0.7700   20.8440 N   0  0  0  0  0  0  0  0  0  0  0  0
    9.5820   -0.1080   22.7000 N   0  0  0  0  0  0  0  0  0  0  0  0
    8.7738   -3.7627   28.0389 O   0  0  0  0  0  0  0  0  0  0  0  0
    9.2950    1.3000   20.9480 O   0  0  0  0  0  0  0  0  0  0  0  0
   14.4371   -2.2494   21.1037 Cl  0  0  0  0  0  0  0  0  0  0  0  0
    2.9844    2.6927   19.3613 H   0  0  0  0  0  0  0  0  0  0  0  0
    3.6214    2.0680   21.6561 H   0  0  0  0  0  0  0  0  0  0  0  0
   14.1807   -1.1075   25.8180 H   0  0  0  0  0  0  0  0  0  0  0  0
   12.1208    0.2345   25.5531 H   0  0  0  0  0  0  0  0  0  0  0  0
    4.3780    2.0103   17.4276 H   0  0  0  0  0  0  0  0  0  0  0  0
    5.6758    0.7336   22.0897 H   0  0  0  0  0  0  0  0  0  0  0  0
    9.5436   -4.5614   23.7799 H   0  0  0  0  0  0  0  0  0  0  0  0
    7.1918   -1.8823   26.1906 H   0  0  0  0  0  0  0  0  0  0  0  0
   10.2676   -2.6754   22.3861 H   0  0  0  0  0  0  0  0  0  0  0  0
    7.8686   -0.0026   24.7598 H   0  0  0  0  0  0  0  0  0  0  0  0
   15.2115   -2.2074   23.8629 H   0  0  0  0  0  0  0  0  0  0  0  0
   12.1028   -0.6172   21.3371 H   0  0  0  0  0  0  0  0  0  0  0  0
    8.4213   -0.8245   18.1548 H   0  0  0  0  0  0  0  0  0  0  0  0
    8.9616   -6.0802   29.5088 H   0  0  0  0  0  0  0  0  0  0  0  0
    7.4788   -7.0478   29.6110 H   0  0  0  0  0  0  0  0  0  0  0  0
    7.4199   -5.2969   29.8865 H   0  0  0  0  0  0  0  0  0  0  0  0
   10.4108    1.1190   24.2247 H   0  0  0  0  0  0  0  0  0  0  0  0
   10.8961    1.5498   22.5844 H   0  0  0  0  0  0  0  0  0  0  0  0
    6.5553   -5.8817   27.6171 H   0  0  0  0  0  0  0  0  0  0  0  0
    8.0880   -6.6902   27.2370 H   0  0  0  0  0  0  0  0  0  0  0  0
    7.4775   -5.1801   25.4670 H   0  0  0  0  0  0  0  0  0  0  0  0
    8.0545   -1.6267   21.0593 H   0  0  0  0  0  0  0  0  0  0  0  0
  1  2  1  0  0  0  0
  1  5  2  0  0  0  0
  2  6  2  0  0  0  0
  3  4  2  0  0  0  0
  3 11  1  0  0  0  0
  4 14  1  0  0  0  0
  5 15  1  0  0  0  0
  6 16  1  0  0  0  0
  7  9  2  0  0  0  0
  7 17  1  0  0  0  0
  8 10  1  0  0  0  0
  8 17  2  0  0  0  0
  9 18  1  0  0  0  0
 10 18  2  0  0  0  0
 11 19  2  0  0  0  0
 12 14  2  0  0  0  0
 12 19  1  0  0  0  0
 13 25  2  0  0  0  0
 13 26  1  0  0  0  0
 14 23  1  0  0  0  0
 15 16  2  0  0  0  0
 15 25  1  0  0  0  0
 16 26  1  0  0  0  0
 17 27  1  0  0  0  0
 18 29  1  0  0  0  0
 19 32  1  0  0  0  0
 20 24  1  0  0  0  0
 20 27  1  0  0  0  0
 20 30  2  0  0  0  0
 21 28  1  0  0  0  0
 21 29  1  0  0  0  0
 21 31  2  0  0  0  0
 22 24  1  0  0  0  0
 23 29  1  0  0  0  0
 26 28  1  0  0  0  0
  1 33  1  0  0  0  0
  2 34  1  0  0  0  0
  3 35  1  0  0  0  0
  4 36  1  0  0  0  0
  5 37  1  0  0  0  0
  6 38  1  0  0  0  0
  7 39  1  0  0  0  0
  8 40  1  0  0  0  0
  9 41  1  0  0  0  0
 10 42  1  0  0  0  0
 11 43  1  0  0  0  0
 12 44  1  0  0  0  0
 13 45  1  0  0  0  0
 22 46  1  0  0  0  0
 22 47  1  0  0  0  0
 22 48  1  0  0  0  0
 23 49  1  0  0  0  0
 23 50  1  0  0  0  0
 24 51  1  0  0  0  0
 24 52  1  0  0  0  0
 27 53  1  0  0  0  0
 28 54  1  0  0  0  0
M  END
> <clash_score>
0

> <docking_score>
-8.840070724487305

> <overlap_score>
1.0077393054962158

$$$$
BENZO_37_1
  -OEChem-08232013513D

 59 63  0     0  0  0  0  0  0999 V2000
   14.4833   -1.1878   22.4024 C   0  0  0  0  0  0  0  0  0  0  0  0
   14.3474   -0.3892   23.5379 C   0  0  0  0  0  0  0  0  0  0  0  0
   13.4012   -1.3641   21.5401 C   0  0  0  0  0  0  0  0  0  0  0  0
    3.8860    2.1050   19.5250 C   0  0  0  0  0  0  0  0  0  0  0  0
    4.2460    1.7520   20.8250 C   0  0  0  0  0  0  0  0  0  0  0  0
   13.1293    0.2330   23.8113 C   0  0  0  0  0  0  0  0  0  0  0  0
   12.1830   -0.7419   21.8135 C   0  0  0  0  0  0  0  0  0  0  0  0
    4.6610    1.7170   18.4380 C   0  0  0  0  0  0  0  0  0  0  0  0
    5.3890    1.0010   21.0690 C   0  0  0  0  0  0  0  0  0  0  0  0
    9.1890   -3.5540   24.0140 C   0  0  0  0  0  0  0  0  0  0  0  0
    7.8700   -2.0610   25.3550 C   0  0  0  0  0  0  0  0  0  0  0  0
    9.5890   -2.4950   23.2210 C   0  0  0  0  0  0  0  0  0  0  0  0
    8.2550   -1.0010   24.5520 C   0  0  0  0  0  0  0  0  0  0  0  0
    7.5840   -0.2700   18.5160 C   0  0  0  0  0  0  0  0  0  0  0  0
   12.0471    0.0566   22.9490 C   0  0  0  0  0  0  0  0  0  0  0  0
    5.7970    0.9500   18.6730 C   0  0  0  0  0  0  0  0  0  0  0  0
    6.1460    0.6070   19.9750 C   0  0  0  0  0  0  0  0  0  0  0  0
    8.3450   -3.3440   25.0980 C   0  0  0  0  0  0  0  0  0  0  0  0
    9.1280   -1.2090   23.4870 C   0  0  0  0  0  0  0  0  0  0  0  0
    9.0430    0.2380   21.4940 C   0  0  0  0  0  0  0  0  0  0  0  0
    7.5748   -4.8280   28.7278 C   0  0  0  0  0  0  0  0  0  0  0  0
    8.9776   -4.7555   28.1204 C   0  0  0  0  0  0  0  0  0  0  0  0
    6.5554   -4.0713   27.8732 C   0  0  0  0  0  0  0  0  0  0  0  0
    8.9620   -5.1961   26.6568 C   0  0  0  0  0  0  0  0  0  0  0  0
    6.6009   -4.5253   26.4110 C   0  0  0  0  0  0  0  0  0  0  0  0
   10.7356    0.7259   23.2427 C   0  0  0  0  0  0  0  0  0  0  0  0
    6.7100    0.3850   17.8100 N   0  0  0  0  0  0  0  0  0  0  0  0
    7.2710   -0.1460   19.8310 N   0  0  0  0  0  0  0  0  0  0  0  0
    7.9770   -4.4029   25.9163 N   0  0  0  0  0  0  0  0  0  0  0  0
    8.0950   -0.7700   20.8440 N   0  0  0  0  0  0  0  0  0  0  0  0
    9.5820   -0.1080   22.7000 N   0  0  0  0  0  0  0  0  0  0  0  0
    9.2950    1.3000   20.9480 O   0  0  0  0  0  0  0  0  0  0  0  0
   15.4323   -1.6711   22.1890 H   0  0  0  0  0  0  0  0  0  0  0  0
   15.1903   -0.2509   24.2088 H   0  0  0  0  0  0  0  0  0  0  0  0
   13.5069   -1.9849   20.6554 H   0  0  0  0  0  0  0  0  0  0  0  0
    2.9844    2.6927   19.3613 H   0  0  0  0  0  0  0  0  0  0  0  0
    3.6214    2.0680   21.6561 H   0  0  0  0  0  0  0  0  0  0  0  0
   13.0325    0.8533   24.6985 H   0  0  0  0  0  0  0  0  0  0  0  0
   11.3453   -0.8851   21.1361 H   0  0  0  0  0  0  0  0  0  0  0  0
    4.3780    2.0103   17.4276 H   0  0  0  0  0  0  0  0  0  0  0  0
    5.6758    0.7336   22.0897 H   0  0  0  0  0  0  0  0  0  0  0  0
    9.5426   -4.5618   23.7797 H   0  0  0  0  0  0  0  0  0  0  0  0
    7.1914   -1.8824   26.1903 H   0  0  0  0  0  0  0  0  0  0  0  0
   10.2669   -2.6745   22.3854 H   0  0  0  0  0  0  0  0  0  0  0  0
    7.8690   -0.0020   24.7587 H   0  0  0  0  0  0  0  0  0  0  0  0
    8.4213   -0.8245   18.1548 H   0  0  0  0  0  0  0  0  0  0  0  0
    7.2681   -5.8808   28.8239 H   0  0  0  0  0  0  0  0  0  0  0  0
    7.5890   -4.4101   29.7448 H   0  0  0  0  0  0  0  0  0  0  0  0
    9.3554   -3.7320   28.1920 H   0  0  0  0  0  0  0  0  0  0  0  0
    9.6558   -5.3943   28.6900 H   0  0  0  0  0  0  0  0  0  0  0  0
    5.5496   -4.2322   28.2751 H   0  0  0  0  0  0  0  0  0  0  0  0
    6.7545   -2.9948   27.9293 H   0  0  0  0  0  0  0  0  0  0  0  0
    9.9612   -5.0560   26.2363 H   0  0  0  0  0  0  0  0  0  0  0  0
    8.7097   -6.2583   26.5922 H   0  0  0  0  0  0  0  0  0  0  0  0
    6.2649   -5.5600   26.3335 H   0  0  0  0  0  0  0  0  0  0  0  0
    5.9271   -3.8964   25.8283 H   0  0  0  0  0  0  0  0  0  0  0  0
   10.6024    0.8573   24.3221 H   0  0  0  0  0  0  0  0  0  0  0  0
   10.6908    1.7202   22.7861 H   0  0  0  0  0  0  0  0  0  0  0  0
    8.0897   -1.6082   21.0890 H   0  0  0  0  0  0  0  0  0  0  0  0
  1  2  1  0  0  0  0
  1  3  2  0  0  0  0
  2  6  2  0  0  0  0
  3  7  1  0  0  0  0
  4  5  1  0  0  0  0
  4  8  2  0  0  0  0
  5  9  2  0  0  0  0
  6 15  1  0  0  0  0
  7 15  2  0  0  0  0
  8 16  1  0  0  0  0
  9 17  1  0  0  0  0
 10 12  2  0  0  0  0
 10 18  1  0  0  0  0
 11 13  1  0  0  0  0
 11 18  2  0  0  0  0
 12 19  1  0  0  0  0
 13 19  2  0  0  0  0
 14 27  2  0  0  0  0
 14 28  1  0  0  0  0
 15 26  1  0  0  0  0
 16 17  2  0  0  0  0
 16 27  1  0  0  0  0
 17 28  1  0  0  0  0
 18 29  1  0  0  0  0
 19 31  1  0  0  0  0
 20 30  1  0  0  0  0
 20 31  1  0  0  0  0
 20 32  2  0  0  0  0
 21 22  1  0  0  0  0
 21 23  1  0  0  0  0
 22 24  1  0  0  0  0
 23 25  1  0  0  0  0
 24 29  1  0  0  0  0
 25 29  1  0  0  0  0
 26 31  1  0  0  0  0
 28 30  1  0  0  0  0
  1 33  1  0  0  0  0
  2 34  1  0  0  0  0
  3 35  1  0  0  0  0
  4 36  1  0  0  0  0
  5 37  1  0  0  0  0
  6 38  1  0  0  0  0
  7 39  1  0  0  0  0
  8 40  1  0  0  0  0
  9 41  1  0  0  0  0
 10 42  1  0  0  0  0
 11 43  1  0  0  0  0
 12 44  1  0  0  0  0
 13 45  1  0  0  0  0
 14 46  1  0  0  0  0
 21 47  1  0  0  0  0
 21 48  1  0  0  0  0
 22 49  1  0  0  0  0
 22 50  1  0  0  0  0
 23 51  1  0  0  0  0
 23 52  1  0  0  0  0
 24 53  1  0  0  0  0
 24 54  1  0  0  0  0
 25 55  1  0  0  0  0
 25 56  1  0  0  0  0
 26 57  1  0  0  0  0
 26 58  1  0  0  0  0
 30 59  1  0  0  0  0
M  END
> <clash_score>
0

> <docking_score>
-9.408589363098145

> <overlap_score>
0.9736425280570984

$$$$
BENZO_36_1
  -OEChem-08232013513D

 56 60  0     0  0  0  0  0  0999 V2000
    3.8860    2.1050   19.5250 C   0  0  0  0  0  0  0  0  0  0  0  0
    4.2460    1.7520   20.8250 C   0  0  0  0  0  0  0  0  0  0  0  0
    4.6610    1.7170   18.4380 C   0  0  0  0  0  0  0  0  0  0  0  0
    5.3890    1.0010   21.0690 C   0  0  0  0  0  0  0  0  0  0  0  0
    9.1890   -3.5540   24.0140 C   0  0  0  0  0  0  0  0  0  0  0  0
    7.8700   -2.0610   25.3550 C   0  0  0  0  0  0  0  0  0  0  0  0
    9.5890   -2.4950   23.2210 C   0  0  0  0  0  0  0  0  0  0  0  0
    8.2550   -1.0010   24.5520 C   0  0  0  0  0  0  0  0  0  0  0  0
   12.6406   -0.3244   24.6350 C   0  0  0  0  0  0  0  0  0  0  0  0
   13.7394   -1.1436   24.4970 C   0  0  0  0  0  0  0  0  0  0  0  0
   12.5740   -0.7936   22.3595 C   0  0  0  0  0  0  0  0  0  0  0  0
    7.5840   -0.2700   18.5160 C   0  0  0  0  0  0  0  0  0  0  0  0
   11.9653   -0.1217   23.3968 C   0  0  0  0  0  0  0  0  0  0  0  0
    5.7970    0.9500   18.6730 C   0  0  0  0  0  0  0  0  0  0  0  0
    6.1460    0.6070   19.9750 C   0  0  0  0  0  0  0  0  0  0  0  0
    8.3450   -3.3440   25.0980 C   0  0  0  0  0  0  0  0  0  0  0  0
    9.1280   -1.2090   23.4870 C   0  0  0  0  0  0  0  0  0  0  0  0
    9.0430    0.2380   21.4940 C   0  0  0  0  0  0  0  0  0  0  0  0
    7.5748   -4.8280   28.7278 C   0  0  0  0  0  0  0  0  0  0  0  0
    8.9776   -4.7555   28.1204 C   0  0  0  0  0  0  0  0  0  0  0  0
    6.5554   -4.0713   27.8732 C   0  0  0  0  0  0  0  0  0  0  0  0
    8.9620   -5.1961   26.6568 C   0  0  0  0  0  0  0  0  0  0  0  0
    6.6009   -4.5253   26.4110 C   0  0  0  0  0  0  0  0  0  0  0  0
   10.7356    0.7259   23.2427 C   0  0  0  0  0  0  0  0  0  0  0  0
    6.7100    0.3850   17.8100 N   0  0  0  0  0  0  0  0  0  0  0  0
    7.2710   -0.1460   19.8310 N   0  0  0  0  0  0  0  0  0  0  0  0
    7.9770   -4.4029   25.9163 N   0  0  0  0  0  0  0  0  0  0  0  0
    8.0950   -0.7700   20.8440 N   0  0  0  0  0  0  0  0  0  0  0  0
    9.5820   -0.1080   22.7000 N   0  0  0  0  0  0  0  0  0  0  0  0
    9.2950    1.3000   20.9480 O   0  0  0  0  0  0  0  0  0  0  0  0
   13.9535   -1.6645   22.8799 S   0  0  0  0  0  0  0  0  0  0  0  0
    2.9844    2.6927   19.3613 H   0  0  0  0  0  0  0  0  0  0  0  0
    3.6214    2.0680   21.6561 H   0  0  0  0  0  0  0  0  0  0  0  0
    4.3780    2.0103   17.4276 H   0  0  0  0  0  0  0  0  0  0  0  0
    5.6758    0.7336   22.0897 H   0  0  0  0  0  0  0  0  0  0  0  0
    9.5426   -4.5618   23.7797 H   0  0  0  0  0  0  0  0  0  0  0  0
    7.1914   -1.8824   26.1903 H   0  0  0  0  0  0  0  0  0  0  0  0
   10.2669   -2.6745   22.3854 H   0  0  0  0  0  0  0  0  0  0  0  0
    7.8690   -0.0020   24.7587 H   0  0  0  0  0  0  0  0  0  0  0  0
   12.3393    0.1072   25.5811 H   0  0  0  0  0  0  0  0  0  0  0  0
   14.4271   -1.4605   25.2683 H   0  0  0  0  0  0  0  0  0  0  0  0
   12.2786   -0.8164   21.3197 H   0  0  0  0  0  0  0  0  0  0  0  0
    8.4213   -0.8245   18.1548 H   0  0  0  0  0  0  0  0  0  0  0  0
    7.2681   -5.8808   28.8239 H   0  0  0  0  0  0  0  0  0  0  0  0
    7.5890   -4.4101   29.7448 H   0  0  0  0  0  0  0  0  0  0  0  0
    9.3554   -3.7320   28.1920 H   0  0  0  0  0  0  0  0  0  0  0  0
    9.6558   -5.3943   28.6900 H   0  0  0  0  0  0  0  0  0  0  0  0
    5.5496   -4.2322   28.2751 H   0  0  0  0  0  0  0  0  0  0  0  0
    6.7545   -2.9948   27.9293 H   0  0  0  0  0  0  0  0  0  0  0  0
    9.9612   -5.0560   26.2363 H   0  0  0  0  0  0  0  0  0  0  0  0
    8.7097   -6.2583   26.5922 H   0  0  0  0  0  0  0  0  0  0  0  0
    6.2649   -5.5600   26.3335 H   0  0  0  0  0  0  0  0  0  0  0  0
    5.9271   -3.8964   25.8283 H   0  0  0  0  0  0  0  0  0  0  0  0
   10.4406    1.1569   24.2057 H   0  0  0  0  0  0  0  0  0  0  0  0
   10.9160    1.5589   22.5552 H   0  0  0  0  0  0  0  0  0  0  0  0
    8.0897   -1.6082   21.0890 H   0  0  0  0  0  0  0  0  0  0  0  0
  1  2  1  0  0  0  0
  1  3  2  0  0  0  0
  2  4  2  0  0  0  0
  3 14  1  0  0  0  0
  4 15  1  0  0  0  0
  5  7  2  0  0  0  0
  5 16  1  0  0  0  0
  6  8  1  0  0  0  0
  6 16  2  0  0  0  0
  7 17  1  0  0  0  0
  8 17  2  0  0  0  0
  9 10  2  0  0  0  0
  9 13  1  0  0  0  0
 10 31  1  0  0  0  0
 11 13  2  0  0  0  0
 11 31  1  0  0  0  0
 12 25  2  0  0  0  0
 12 26  1  0  0  0  0
 13 24  1  0  0  0  0
 14 15  2  0  0  0  0
 14 25  1  0  0  0  0
 15 26  1  0  0  0  0
 16 27  1  0  0  0  0
 17 29  1  0  0  0  0
 18 28  1  0  0  0  0
 18 29  1  0  0  0  0
 18 30  2  0  0  0  0
 19 20  1  0  0  0  0
 19 21  1  0  0  0  0
 20 22  1  0  0  0  0
 21 23  1  0  0  0  0
 22 27  1  0  0  0  0
 23 27  1  0  0  0  0
 24 29  1  0  0  0  0
 26 28  1  0  0  0  0
  1 32  1  0  0  0  0
  2 33  1  0  0  0  0
  3 34  1  0  0  0  0
  4 35  1  0  0  0  0
  5 36  1  0  0  0  0
  6 37  1  0  0  0  0
  7 38  1  0  0  0  0
  8 39  1  0  0  0  0
  9 40  1  0  0  0  0
 10 41  1  0  0  0  0
 11 42  1  0  0  0  0
 12 43  1  0  0  0  0
 19 44  1  0  0  0  0
 19 45  1  0  0  0  0
 20 46  1  0  0  0  0
 20 47  1  0  0  0  0
 21 48  1  0  0  0  0
 21 49  1  0  0  0  0
 22 50  1  0  0  0  0
 22 51  1  0  0  0  0
 23 52  1  0  0  0  0
 23 53  1  0  0  0  0
 24 54  1  0  0  0  0
 24 55  1  0  0  0  0
 28 56  1  0  0  0  0
M  END
> <clash_score>
0

> <docking_score>
-9.806764602661133

> <overlap_score>
0.9731746315956116

$$$$
BENZO_39_1
  -OEChem-08232013513D

 59 63  0     0  0  0  0  0  0999 V2000
    3.8860    2.1050   19.5250 C   0  0  0  0  0  0  0  0  0  0  0  0
    4.2460    1.7520   20.8250 C   0  0  0  0  0  0  0  0  0  0  0  0
    4.6610    1.7170   18.4380 C   0  0  0  0  0  0  0  0  0  0  0  0
    5.3890    1.0010   21.0690 C   0  0  0  0  0  0  0  0  0  0  0  0
    9.1890   -3.5540   24.0140 C   0  0  0  0  0  0  0  0  0  0  0  0
    7.8700   -2.0610   25.3550 C   0  0  0  0  0  0  0  0  0  0  0  0
    9.5890   -2.4950   23.2210 C   0  0  0  0  0  0  0  0  0  0  0  0
    8.2550   -1.0010   24.5520 C   0  0  0  0  0  0  0  0  0  0  0  0
   13.3073    0.3433   23.5072 C   0  0  0  0  0  0  0  0  0  0  0  0
   12.2854   -0.9762   22.0756 C   0  0  0  0  0  0  0  0  0  0  0  0
    7.5840   -0.2700   18.5160 C   0  0  0  0  0  0  0  0  0  0  0  0
   12.0471    0.0566   22.9490 C   0  0  0  0  0  0  0  0  0  0  0  0
    5.7970    0.9500   18.6730 C   0  0  0  0  0  0  0  0  0  0  0  0
    6.1460    0.6070   19.9750 C   0  0  0  0  0  0  0  0  0  0  0  0
    8.3450   -3.3440   25.0980 C   0  0  0  0  0  0  0  0  0  0  0  0
    9.1280   -1.2090   23.4870 C   0  0  0  0  0  0  0  0  0  0  0  0
    9.0430    0.2380   21.4940 C   0  0  0  0  0  0  0  0  0  0  0  0
    7.5748   -4.8280   28.7278 C   0  0  0  0  0  0  0  0  0  0  0  0
    8.9776   -4.7555   28.1204 C   0  0  0  0  0  0  0  0  0  0  0  0
    6.5554   -4.0713   27.8732 C   0  0  0  0  0  0  0  0  0  0  0  0
    8.9620   -5.1961   26.6568 C   0  0  0  0  0  0  0  0  0  0  0  0
    6.6009   -4.5253   26.4110 C   0  0  0  0  0  0  0  0  0  0  0  0
   14.3467   -2.2439   21.4255 C   0  0  0  0  0  0  0  0  0  0  0  0
   10.7356    0.7259   23.2427 C   0  0  0  0  0  0  0  0  0  0  0  0
   14.2743   -0.4439   23.0287 N   0  0  0  0  0  0  0  0  0  0  0  0
    6.7100    0.3850   17.8100 N   0  0  0  0  0  0  0  0  0  0  0  0
   13.6217   -1.2356   22.1607 N   0  0  0  0  0  0  0  0  0  0  0  0
    7.2710   -0.1460   19.8310 N   0  0  0  0  0  0  0  0  0  0  0  0
    7.9770   -4.4029   25.9163 N   0  0  0  0  0  0  0  0  0  0  0  0
    8.0950   -0.7700   20.8440 N   0  0  0  0  0  0  0  0  0  0  0  0
    9.5820   -0.1080   22.7000 N   0  0  0  0  0  0  0  0  0  0  0  0
    9.2950    1.3000   20.9480 O   0  0  0  0  0  0  0  0  0  0  0  0
    2.9844    2.6927   19.3613 H   0  0  0  0  0  0  0  0  0  0  0  0
    3.6214    2.0680   21.6561 H   0  0  0  0  0  0  0  0  0  0  0  0
    4.3780    2.0103   17.4276 H   0  0  0  0  0  0  0  0  0  0  0  0
    5.6758    0.7336   22.0897 H   0  0  0  0  0  0  0  0  0  0  0  0
    9.5426   -4.5618   23.7797 H   0  0  0  0  0  0  0  0  0  0  0  0
    7.1914   -1.8824   26.1903 H   0  0  0  0  0  0  0  0  0  0  0  0
   10.2669   -2.6745   22.3854 H   0  0  0  0  0  0  0  0  0  0  0  0
    7.8690   -0.0020   24.7587 H   0  0  0  0  0  0  0  0  0  0  0  0
   13.5635    1.0920   24.2435 H   0  0  0  0  0  0  0  0  0  0  0  0
   11.6338   -1.5358   21.4181 H   0  0  0  0  0  0  0  0  0  0  0  0
    8.4213   -0.8245   18.1548 H   0  0  0  0  0  0  0  0  0  0  0  0
    7.2681   -5.8808   28.8239 H   0  0  0  0  0  0  0  0  0  0  0  0
    7.5890   -4.4101   29.7448 H   0  0  0  0  0  0  0  0  0  0  0  0
    9.3554   -3.7320   28.1920 H   0  0  0  0  0  0  0  0  0  0  0  0
    9.6558   -5.3943   28.6900 H   0  0  0  0  0  0  0  0  0  0  0  0
    5.5496   -4.2322   28.2751 H   0  0  0  0  0  0  0  0  0  0  0  0
    6.7545   -2.9948   27.9293 H   0  0  0  0  0  0  0  0  0  0  0  0
    9.9612   -5.0560   26.2363 H   0  0  0  0  0  0  0  0  0  0  0  0
    8.7097   -6.2583   26.5922 H   0  0  0  0  0  0  0  0  0  0  0  0
    6.2649   -5.5600   26.3335 H   0  0  0  0  0  0  0  0  0  0  0  0
    5.9271   -3.8964   25.8283 H   0  0  0  0  0  0  0  0  0  0  0  0
   14.6975   -1.7944   20.4928 H   0  0  0  0  0  0  0  0  0  0  0  0
   15.1930   -2.5928   22.0237 H   0  0  0  0  0  0  0  0  0  0  0  0
   13.6825   -3.0877   21.2184 H   0  0  0  0  0  0  0  0  0  0  0  0
   10.6024    0.8573   24.3221 H   0  0  0  0  0  0  0  0  0  0  0  0
   10.6908    1.7202   22.7861 H   0  0  0  0  0  0  0  0  0  0  0  0
    8.0897   -1.6082   21.0890 H   0  0  0  0  0  0  0  0  0  0  0  0
  1  2  1  0  0  0  0
  1  3  2  0  0  0  0
  2  4  2  0  0  0  0
  3 13  1  0  0  0  0
  4 14  1  0  0  0  0
  5  7  2  0  0  0  0
  5 15  1  0  0  0  0
  6  8  1  0  0  0  0
  6 15  2  0  0  0  0
  7 16  1  0  0  0  0
  8 16  2  0  0  0  0
  9 12  1  0  0  0  0
  9 25  2  0  0  0  0
 10 12  2  0  0  0  0
 10 27  1  0  0  0  0
 11 26  2  0  0  0  0
 11 28  1  0  0  0  0
 12 24  1  0  0  0  0
 13 14  2  0  0  0  0
 13 26  1  0  0  0  0
 14 28  1  0  0  0  0
 15 29  1  0  0  0  0
 16 31  1  0  0  0  0
 17 30  1  0  0  0  0
 17 31  1  0  0  0  0
 17 32  2  0  0  0  0
 18 19  1  0  0  0  0
 18 20  1  0  0  0  0
 19 21  1  0  0  0  0
 20 22  1  0  0  0  0
 21 29  1  0  0  0  0
 22 29  1  0  0  0  0
 23 27  1  0  0  0  0
 24 31  1  0  0  0  0
 25 27  1  0  0  0  0
 28 30  1  0  0  0  0
  1 33  1  0  0  0  0
  2 34  1  0  0  0  0
  3 35  1  0  0  0  0
  4 36  1  0  0  0  0
  5 37  1  0  0  0  0
  6 38  1  0  0  0  0
  7 39  1  0  0  0  0
  8 40  1  0  0  0  0
  9 41  1  0  0  0  0
 10 42  1  0  0  0  0
 11 43  1  0  0  0  0
 18 44  1  0  0  0  0
 18 45  1  0  0  0  0
 19 46  1  0  0  0  0
 19 47  1  0  0  0  0
 20 48  1  0  0  0  0
 20 49  1  0  0  0  0
 21 50  1  0  0  0  0
 21 51  1  0  0  0  0
 22 52  1  0  0  0  0
 22 53  1  0  0  0  0
 23 54  1  0  0  0  0
 23 55  1  0  0  0  0
 23 56  1  0  0  0  0
 24 57  1  0  0  0  0
 24 58  1  0  0  0  0
 30 59  1  0  0  0  0
M  END
> <clash_score>
0

> <docking_score>
-9.969497680664062

> <overlap_score>
0.9717989563941956

$$$$
BENZO_38_1
  -OEChem-08232013513D

 59 63  0     0  0  0  0  0  0999 V2000
    3.8860    2.1050   19.5250 C   0  0  0  0  0  0  0  0  0  0  0  0
    4.2460    1.7520   20.8250 C   0  0  0  0  0  0  0  0  0  0  0  0
   13.7028   -1.0520   24.7941 C   0  0  0  0  0  0  0  0  0  0  0  0
   12.5610   -0.2638   24.6500 C   0  0  0  0  0  0  0  0  0  0  0  0
    4.6610    1.7170   18.4380 C   0  0  0  0  0  0  0  0  0  0  0  0
    5.3890    1.0010   21.0690 C   0  0  0  0  0  0  0  0  0  0  0  0
    9.1890   -3.5540   24.0140 C   0  0  0  0  0  0  0  0  0  0  0  0
    7.8700   -2.0610   25.3550 C   0  0  0  0  0  0  0  0  0  0  0  0
    9.5890   -2.4950   23.2210 C   0  0  0  0  0  0  0  0  0  0  0  0
    8.2550   -1.0010   24.5520 C   0  0  0  0  0  0  0  0  0  0  0  0
   14.2490   -1.6979   23.6849 C   0  0  0  0  0  0  0  0  0  0  0  0
   12.5114   -0.7676   22.2876 C   0  0  0  0  0  0  0  0  0  0  0  0
    7.5840   -0.2700   18.5160 C   0  0  0  0  0  0  0  0  0  0  0  0
   11.9653   -0.1217   23.3968 C   0  0  0  0  0  0  0  0  0  0  0  0
    5.7970    0.9500   18.6730 C   0  0  0  0  0  0  0  0  0  0  0  0
    6.1460    0.6070   19.9750 C   0  0  0  0  0  0  0  0  0  0  0  0
    8.3450   -3.3440   25.0980 C   0  0  0  0  0  0  0  0  0  0  0  0
    9.1280   -1.2090   23.4870 C   0  0  0  0  0  0  0  0  0  0  0  0
   13.6532   -1.5557   22.4317 C   0  0  0  0  0  0  0  0  0  0  0  0
    9.0430    0.2380   21.4940 C   0  0  0  0  0  0  0  0  0  0  0  0
    7.5748   -4.8280   28.7278 C   0  0  0  0  0  0  0  0  0  0  0  0
    8.9776   -4.7555   28.1204 C   0  0  0  0  0  0  0  0  0  0  0  0
    6.5554   -4.0713   27.8732 C   0  0  0  0  0  0  0  0  0  0  0  0
    8.9620   -5.1961   26.6568 C   0  0  0  0  0  0  0  0  0  0  0  0
    6.6009   -4.5253   26.4110 C   0  0  0  0  0  0  0  0  0  0  0  0
   10.7356    0.7259   23.2427 C   0  0  0  0  0  0  0  0  0  0  0  0
    6.7100    0.3850   17.8100 N   0  0  0  0  0  0  0  0  0  0  0  0
    7.2710   -0.1460   19.8310 N   0  0  0  0  0  0  0  0  0  0  0  0
    7.9770   -4.4029   25.9163 N   0  0  0  0  0  0  0  0  0  0  0  0
    8.0950   -0.7700   20.8440 N   0  0  0  0  0  0  0  0  0  0  0  0
    9.5820   -0.1080   22.7000 N   0  0  0  0  0  0  0  0  0  0  0  0
    9.2950    1.3000   20.9480 O   0  0  0  0  0  0  0  0  0  0  0  0
   14.3268   -2.3537   21.0638 Cl  0  0  0  0  0  0  0  0  0  0  0  0
    2.9844    2.6927   19.3613 H   0  0  0  0  0  0  0  0  0  0  0  0
    3.6214    2.0680   21.6561 H   0  0  0  0  0  0  0  0  0  0  0  0
   14.1663   -1.1626   25.7701 H   0  0  0  0  0  0  0  0  0  0  0  0
   12.1423    0.2357   25.5198 H   0  0  0  0  0  0  0  0  0  0  0  0
    4.3780    2.0103   17.4276 H   0  0  0  0  0  0  0  0  0  0  0  0
    5.6758    0.7336   22.0897 H   0  0  0  0  0  0  0  0  0  0  0  0
    9.5426   -4.5618   23.7797 H   0  0  0  0  0  0  0  0  0  0  0  0
    7.1914   -1.8824   26.1903 H   0  0  0  0  0  0  0  0  0  0  0  0
   10.2669   -2.6745   22.3854 H   0  0  0  0  0  0  0  0  0  0  0  0
    7.8690   -0.0020   24.7587 H   0  0  0  0  0  0  0  0  0  0  0  0
   15.1390   -2.3092   23.8121 H   0  0  0  0  0  0  0  0  0  0  0  0
   12.0435   -0.6531   21.3125 H   0  0  0  0  0  0  0  0  0  0  0  0
    8.4213   -0.8245   18.1548 H   0  0  0  0  0  0  0  0  0  0  0  0
    7.2681   -5.8808   28.8239 H   0  0  0  0  0  0  0  0  0  0  0  0
    7.5890   -4.4101   29.7448 H   0  0  0  0  0  0  0  0  0  0  0  0
    9.3554   -3.7320   28.1920 H   0  0  0  0  0  0  0  0  0  0  0  0
    9.6558   -5.3943   28.6900 H   0  0  0  0  0  0  0  0  0  0  0  0
    5.5496   -4.2322   28.2751 H   0  0  0  0  0  0  0  0  0  0  0  0
    6.7545   -2.9948   27.9293 H   0  0  0  0  0  0  0  0  0  0  0  0
    9.9612   -5.0560   26.2363 H   0  0  0  0  0  0  0  0  0  0  0  0
    8.7097   -6.2583   26.5922 H   0  0  0  0  0  0  0  0  0  0  0  0
    6.2649   -5.5600   26.3335 H   0  0  0  0  0  0  0  0  0  0  0  0
    5.9271   -3.8964   25.8283 H   0  0  0  0  0  0  0  0  0  0  0  0
   10.4406    1.1569   24.2057 H   0  0  0  0  0  0  0  0  0  0  0  0
   10.9160    1.5589   22.5552 H   0  0  0  0  0  0  0  0  0  0  0  0
    8.0897   -1.6082   21.0890 H   0  0  0  0  0  0  0  0  0  0  0  0
  1  2  1  0  0  0  0
  1  5  2  0  0  0  0
  2  6  2  0  0  0  0
  3  4  2  0  0  0  0
  3 11  1  0  0  0  0
  4 14  1  0  0  0  0
  5 15  1  0  0  0  0
  6 16  1  0  0  0  0
  7  9  2  0  0  0  0
  7 17  1  0  0  0  0
  8 10  1  0  0  0  0
  8 17  2  0  0  0  0
  9 18  1  0  0  0  0
 10 18  2  0  0  0  0
 11 19  2  0  0  0  0
 12 14  2  0  0  0  0
 12 19  1  0  0  0  0
 13 27  2  0  0  0  0
 13 28  1  0  0  0  0
 14 26  1  0  0  0  0
 15 16  2  0  0  0  0
 15 27  1  0  0  0  0
 16 28  1  0  0  0  0
 17 29  1  0  0  0  0
 18 31  1  0  0  0  0
 19 33  1  0  0  0  0
 20 30  1  0  0  0  0
 20 31  1  0  0  0  0
 20 32  2  0  0  0  0
 21 22  1  0  0  0  0
 21 23  1  0  0  0  0
 22 24  1  0  0  0  0
 23 25  1  0  0  0  0
 24 29  1  0  0  0  0
 25 29  1  0  0  0  0
 26 31  1  0  0  0  0
 28 30  1  0  0  0  0
  1 34  1  0  0  0  0
  2 35  1  0  0  0  0
  3 36  1  0  0  0  0
  4 37  1  0  0  0  0
  5 38  1  0  0  0  0
  6 39  1  0  0  0  0
  7 40  1  0  0  0  0
  8 41  1  0  0  0  0
  9 42  1  0  0  0  0
 10 43  1  0  0  0  0
 11 44  1  0  0  0  0
 12 45  1  0  0  0  0
 13 46  1  0  0  0  0
 21 47  1  0  0  0  0
 21 48  1  0  0  0  0
 22 49  1  0  0  0  0
 22 50  1  0  0  0  0
 23 51  1  0  0  0  0
 23 52  1  0  0  0  0
 24 53  1  0  0  0  0
 24 54  1  0  0  0  0
 25 55  1  0  0  0  0
 25 56  1  0  0  0  0
 26 57  1  0  0  0  0
 26 58  1  0  0  0  0
 30 59  1  0  0  0  0
M  END
> <clash_score>
0

> <docking_score>
-9.274110794067383

> <overlap_score>
0.9957913756370544

$$$$
BENZO_41_1
  -OEChem-08232013513D

 47 50  0     0  0  0  0  0  0999 V2000
   14.3067   -1.6202   23.7268 C   0  0  0  0  0  0  0  0  0  0  0  0
   14.0548   -0.5497   24.5847 C   0  0  0  0  0  0  0  0  0  0  0  0
   13.3962   -1.9346   22.7178 C   0  0  0  0  0  0  0  0  0  0  0  0
    3.8860    2.1050   19.5250 C   0  0  0  0  0  0  0  0  0  0  0  0
    4.2460    1.7520   20.8250 C   0  0  0  0  0  0  0  0  0  0  0  0
   12.8925    0.2066   24.4338 C   0  0  0  0  0  0  0  0  0  0  0  0
   12.2339   -1.1783   22.5669 C   0  0  0  0  0  0  0  0  0  0  0  0
    9.1890   -3.5540   24.0140 C   0  0  0  0  0  0  0  0  0  0  0  0
    7.8700   -2.0610   25.3550 C   0  0  0  0  0  0  0  0  0  0  0  0
    4.6610    1.7170   18.4380 C   0  0  0  0  0  0  0  0  0  0  0  0
    5.3890    1.0010   21.0690 C   0  0  0  0  0  0  0  0  0  0  0  0
    9.5890   -2.4950   23.2210 C   0  0  0  0  0  0  0  0  0  0  0  0
    8.2550   -1.0010   24.5520 C   0  0  0  0  0  0  0  0  0  0  0  0
    7.5840   -0.2700   18.5160 C   0  0  0  0  0  0  0  0  0  0  0  0
    8.3450   -3.3440   25.0980 C   0  0  0  0  0  0  0  0  0  0  0  0
   11.9820   -0.1078   23.4249 C   0  0  0  0  0  0  0  0  0  0  0  0
    5.7970    0.9500   18.6730 C   0  0  0  0  0  0  0  0  0  0  0  0
    6.1460    0.6070   19.9750 C   0  0  0  0  0  0  0  0  0  0  0  0
    9.1280   -1.2090   23.4870 C   0  0  0  0  0  0  0  0  0  0  0  0
    9.0430    0.2380   21.4940 C   0  0  0  0  0  0  0  0  0  0  0  0
    7.9522   -4.4794   25.9764 C   0  0  0  0  0  0  0  0  0  0  0  0
   10.7306    0.7056   23.2620 C   0  0  0  0  0  0  0  0  0  0  0  0
    6.7100    0.3850   17.8100 N   0  0  0  0  0  0  0  0  0  0  0  0
    7.2710   -0.1460   19.8310 N   0  0  0  0  0  0  0  0  0  0  0  0
    8.0950   -0.7700   20.8440 N   0  0  0  0  0  0  0  0  0  0  0  0
    9.5820   -0.1080   22.7000 N   0  0  0  0  0  0  0  0  0  0  0  0
    9.2950    1.3000   20.9480 O   0  0  0  0  0  0  0  0  0  0  0  0
   15.2124   -2.2081   23.8436 H   0  0  0  0  0  0  0  0  0  0  0  0
   14.7642   -0.3041   25.3697 H   0  0  0  0  0  0  0  0  0  0  0  0
   13.5925   -2.7673   22.0490 H   0  0  0  0  0  0  0  0  0  0  0  0
    2.9844    2.6927   19.3613 H   0  0  0  0  0  0  0  0  0  0  0  0
    3.6214    2.0680   21.6561 H   0  0  0  0  0  0  0  0  0  0  0  0
   12.7045    1.0388   25.1070 H   0  0  0  0  0  0  0  0  0  0  0  0
   11.5302   -1.4307   21.7781 H   0  0  0  0  0  0  0  0  0  0  0  0
    9.5403   -4.5627   23.7809 H   0  0  0  0  0  0  0  0  0  0  0  0
    7.1911   -1.8848   26.1904 H   0  0  0  0  0  0  0  0  0  0  0  0
    4.3780    2.0103   17.4276 H   0  0  0  0  0  0  0  0  0  0  0  0
    5.6758    0.7336   22.0897 H   0  0  0  0  0  0  0  0  0  0  0  0
   10.2682   -2.6746   22.3865 H   0  0  0  0  0  0  0  0  0  0  0  0
    7.8684   -0.0022   24.7594 H   0  0  0  0  0  0  0  0  0  0  0  0
    8.4213   -0.8245   18.1548 H   0  0  0  0  0  0  0  0  0  0  0  0
    8.6668   -4.5891   26.8013 H   0  0  0  0  0  0  0  0  0  0  0  0
    6.9513   -4.3276   26.4010 H   0  0  0  0  0  0  0  0  0  0  0  0
    7.9196   -5.4231   25.4163 H   0  0  0  0  0  0  0  0  0  0  0  0
   10.4108    1.1190   24.2247 H   0  0  0  0  0  0  0  0  0  0  0  0
   10.8961    1.5498   22.5844 H   0  0  0  0  0  0  0  0  0  0  0  0
    8.0545   -1.6267   21.0593 H   0  0  0  0  0  0  0  0  0  0  0  0
  1  2  1  0  0  0  0
  1  3  2  0  0  0  0
  2  6  2  0  0  0  0
  3  7  1  0  0  0  0
  4  5  1  0  0  0  0
  4 10  2  0  0  0  0
  5 11  2  0  0  0  0
  6 16  1  0  0  0  0
  7 16  2  0  0  0  0
  8 12  2  0  0  0  0
  8 15  1  0  0  0  0
  9 13  1  0  0  0  0
  9 15  2  0  0  0  0
 10 17  1  0  0  0  0
 11 18  1  0  0  0  0
 12 19  1  0  0  0  0
 13 19  2  0  0  0  0
 14 23  2  0  0  0  0
 14 24  1  0  0  0  0
 15 21  1  0  0  0  0
 16 22  1  0  0  0  0
 17 18  2  0  0  0  0
 17 23  1  0  0  0  0
 18 24  1  0  0  0  0
 19 26  1  0  0  0  0
 20 25  1  0  0  0  0
 20 26  1  0  0  0  0
 20 27  2  0  0  0  0
 22 26  1  0  0  0  0
 24 25  1  0  0  0  0
  1 28  1  0  0  0  0
  2 29  1  0  0  0  0
  3 30  1  0  0  0  0
  4 31  1  0  0  0  0
  5 32  1  0  0  0  0
  6 33  1  0  0  0  0
  7 34  1  0  0  0  0
  8 35  1  0  0  0  0
  9 36  1  0  0  0  0
 10 37  1  0  0  0  0
 11 38  1  0  0  0  0
 12 39  1  0  0  0  0
 13 40  1  0  0  0  0
 14 41  1  0  0  0  0
 21 42  1  0  0  0  0
 21 43  1  0  0  0  0
 21 44  1  0  0  0  0
 22 45  1  0  0  0  0
 22 46  1  0  0  0  0
 25 47  1  0  0  0  0
M  END
> <clash_score>
0

> <docking_score>
-9.200462341308594

> <overlap_score>
0.8986888527870178

$$$$
BENZO_40_1
  -OEChem-08232013513D

 44 47  0     0  0  0  0  0  0999 V2000
    3.8860    2.1050   19.5250 C   0  0  0  0  0  0  0  0  0  0  0  0
    4.2460    1.7520   20.8250 C   0  0  0  0  0  0  0  0  0  0  0  0
    9.1890   -3.5540   24.0140 C   0  0  0  0  0  0  0  0  0  0  0  0
    7.8700   -2.0610   25.3550 C   0  0  0  0  0  0  0  0  0  0  0  0
    4.6610    1.7170   18.4380 C   0  0  0  0  0  0  0  0  0  0  0  0
    5.3890    1.0010   21.0690 C   0  0  0  0  0  0  0  0  0  0  0  0
    9.5890   -2.4950   23.2210 C   0  0  0  0  0  0  0  0  0  0  0  0
    8.2550   -1.0010   24.5520 C   0  0  0  0  0  0  0  0  0  0  0  0
   12.6465   -0.3027   24.6701 C   0  0  0  0  0  0  0  0  0  0  0  0
   13.7702   -1.0888   24.5395 C   0  0  0  0  0  0  0  0  0  0  0  0
   12.6233   -0.7523   22.3898 C   0  0  0  0  0  0  0  0  0  0  0  0
    7.5840   -0.2700   18.5160 C   0  0  0  0  0  0  0  0  0  0  0  0
    8.3450   -3.3440   25.0980 C   0  0  0  0  0  0  0  0  0  0  0  0
   11.9820   -0.1078   23.4249 C   0  0  0  0  0  0  0  0  0  0  0  0
    5.7970    0.9500   18.6730 C   0  0  0  0  0  0  0  0  0  0  0  0
    6.1460    0.6070   19.9750 C   0  0  0  0  0  0  0  0  0  0  0  0
    9.1280   -1.2090   23.4870 C   0  0  0  0  0  0  0  0  0  0  0  0
    9.0430    0.2380   21.4940 C   0  0  0  0  0  0  0  0  0  0  0  0
    7.9522   -4.4794   25.9764 C   0  0  0  0  0  0  0  0  0  0  0  0
   10.7306    0.7056   23.2620 C   0  0  0  0  0  0  0  0  0  0  0  0
    6.7100    0.3850   17.8100 N   0  0  0  0  0  0  0  0  0  0  0  0
    7.2710   -0.1460   19.8310 N   0  0  0  0  0  0  0  0  0  0  0  0
    8.0950   -0.7700   20.8440 N   0  0  0  0  0  0  0  0  0  0  0  0
    9.5820   -0.1080   22.7000 N   0  0  0  0  0  0  0  0  0  0  0  0
    9.2950    1.3000   20.9480 O   0  0  0  0  0  0  0  0  0  0  0  0
   14.0203   -1.5882   22.9208 S   0  0  0  0  0  0  0  0  0  0  0  0
    2.9844    2.6927   19.3613 H   0  0  0  0  0  0  0  0  0  0  0  0
    3.6214    2.0680   21.6561 H   0  0  0  0  0  0  0  0  0  0  0  0
    9.5403   -4.5627   23.7809 H   0  0  0  0  0  0  0  0  0  0  0  0
    7.1911   -1.8848   26.1904 H   0  0  0  0  0  0  0  0  0  0  0  0
    4.3780    2.0103   17.4276 H   0  0  0  0  0  0  0  0  0  0  0  0
    5.6758    0.7336   22.0897 H   0  0  0  0  0  0  0  0  0  0  0  0
   10.2682   -2.6746   22.3865 H   0  0  0  0  0  0  0  0  0  0  0  0
    7.8684   -0.0022   24.7594 H   0  0  0  0  0  0  0  0  0  0  0  0
   12.3206    0.1112   25.6160 H   0  0  0  0  0  0  0  0  0  0  0  0
   14.4565   -1.3932   25.3170 H   0  0  0  0  0  0  0  0  0  0  0  0
   12.3424   -0.7738   21.3459 H   0  0  0  0  0  0  0  0  0  0  0  0
    8.4213   -0.8245   18.1548 H   0  0  0  0  0  0  0  0  0  0  0  0
    8.6668   -4.5891   26.8013 H   0  0  0  0  0  0  0  0  0  0  0  0
    6.9513   -4.3276   26.4010 H   0  0  0  0  0  0  0  0  0  0  0  0
    7.9196   -5.4231   25.4163 H   0  0  0  0  0  0  0  0  0  0  0  0
   10.4108    1.1190   24.2247 H   0  0  0  0  0  0  0  0  0  0  0  0
   10.8961    1.5498   22.5844 H   0  0  0  0  0  0  0  0  0  0  0  0
    8.0545   -1.6267   21.0593 H   0  0  0  0  0  0  0  0  0  0  0  0
  1  2  1  0  0  0  0
  1  5  2  0  0  0  0
  2  6  2  0  0  0  0
  3  7  2  0  0  0  0
  3 13  1  0  0  0  0
  4  8  1  0  0  0  0
  4 13  2  0  0  0  0
  5 15  1  0  0  0  0
  6 16  1  0  0  0  0
  7 17  1  0  0  0  0
  8 17  2  0  0  0  0
  9 10  2  0  0  0  0
  9 14  1  0  0  0  0
 10 26  1  0  0  0  0
 11 14  2  0  0  0  0
 11 26  1  0  0  0  0
 12 21  2  0  0  0  0
 12 22  1  0  0  0  0
 13 19  1  0  0  0  0
 14 20  1  0  0  0  0
 15 16  2  0  0  0  0
 15 21  1  0  0  0  0
 16 22  1  0  0  0  0
 17 24  1  0  0  0  0
 18 23  1  0  0  0  0
 18 24  1  0  0  0  0
 18 25  2  0  0  0  0
 20 24  1  0  0  0  0
 22 23  1  0  0  0  0
  1 27  1  0  0  0  0
  2 28  1  0  0  0  0
  3 29  1  0  0  0  0
  4 30  1  0  0  0  0
  5 31  1  0  0  0  0
  6 32  1  0  0  0  0
  7 33  1  0  0  0  0
  8 34  1  0  0  0  0
  9 35  1  0  0  0  0
 10 36  1  0  0  0  0
 11 37  1  0  0  0  0
 12 38  1  0  0  0  0
 19 39  1  0  0  0  0
 19 40  1  0  0  0  0
 19 41  1  0  0  0  0
 20 42  1  0  0  0  0
 20 43  1  0  0  0  0
 23 44  1  0  0  0  0
M  END
> <clash_score>
0

> <docking_score>
-8.837491035461426

> <overlap_score>
0.8839185237884521

$$$$
BENZO_43_1
  -OEChem-08232013513D

 47 50  0     0  0  0  0  0  0999 V2000
    3.8860    2.1050   19.5250 C   0  0  0  0  0  0  0  0  0  0  0  0
    4.2460    1.7520   20.8250 C   0  0  0  0  0  0  0  0  0  0  0  0
    9.1890   -3.5540   24.0140 C   0  0  0  0  0  0  0  0  0  0  0  0
    7.8700   -2.0610   25.3550 C   0  0  0  0  0  0  0  0  0  0  0  0
    4.6610    1.7170   18.4380 C   0  0  0  0  0  0  0  0  0  0  0  0
    5.3890    1.0010   21.0690 C   0  0  0  0  0  0  0  0  0  0  0  0
    9.5890   -2.4950   23.2210 C   0  0  0  0  0  0  0  0  0  0  0  0
    8.2550   -1.0010   24.5520 C   0  0  0  0  0  0  0  0  0  0  0  0
   12.7041   -0.3544   24.6079 C   0  0  0  0  0  0  0  0  0  0  0  0
   12.6781   -0.7813   22.4510 C   0  0  0  0  0  0  0  0  0  0  0  0
    7.5840   -0.2700   18.5160 C   0  0  0  0  0  0  0  0  0  0  0  0
    8.3450   -3.3440   25.0980 C   0  0  0  0  0  0  0  0  0  0  0  0
   11.9820   -0.1078   23.4249 C   0  0  0  0  0  0  0  0  0  0  0  0
    5.7970    0.9500   18.6730 C   0  0  0  0  0  0  0  0  0  0  0  0
    6.1460    0.6070   19.9750 C   0  0  0  0  0  0  0  0  0  0  0  0
    9.1280   -1.2090   23.4870 C   0  0  0  0  0  0  0  0  0  0  0  0
    9.0430    0.2380   21.4940 C   0  0  0  0  0  0  0  0  0  0  0  0
    7.9522   -4.4794   25.9764 C   0  0  0  0  0  0  0  0  0  0  0  0
   14.7527   -2.1863   22.4736 C   0  0  0  0  0  0  0  0  0  0  0  0
   10.7306    0.7056   23.2620 C   0  0  0  0  0  0  0  0  0  0  0  0
   13.7766   -1.1245   24.4063 N   0  0  0  0  0  0  0  0  0  0  0  0
    6.7100    0.3850   17.8100 N   0  0  0  0  0  0  0  0  0  0  0  0
   13.7335   -1.3678   23.0853 N   0  0  0  0  0  0  0  0  0  0  0  0
    7.2710   -0.1460   19.8310 N   0  0  0  0  0  0  0  0  0  0  0  0
    8.0950   -0.7700   20.8440 N   0  0  0  0  0  0  0  0  0  0  0  0
    9.5820   -0.1080   22.7000 N   0  0  0  0  0  0  0  0  0  0  0  0
    9.2950    1.3000   20.9480 O   0  0  0  0  0  0  0  0  0  0  0  0
    2.9844    2.6927   19.3613 H   0  0  0  0  0  0  0  0  0  0  0  0
    3.6214    2.0680   21.6561 H   0  0  0  0  0  0  0  0  0  0  0  0
    9.5403   -4.5627   23.7809 H   0  0  0  0  0  0  0  0  0  0  0  0
    7.1911   -1.8848   26.1904 H   0  0  0  0  0  0  0  0  0  0  0  0
    4.3780    2.0103   17.4276 H   0  0  0  0  0  0  0  0  0  0  0  0
    5.6758    0.7336   22.0897 H   0  0  0  0  0  0  0  0  0  0  0  0
   10.2682   -2.6746   22.3865 H   0  0  0  0  0  0  0  0  0  0  0  0
    7.8684   -0.0022   24.7594 H   0  0  0  0  0  0  0  0  0  0  0  0
   12.4950   -0.0068   25.6098 H   0  0  0  0  0  0  0  0  0  0  0  0
   12.5156   -0.8915   21.3874 H   0  0  0  0  0  0  0  0  0  0  0  0
    8.4213   -0.8245   18.1548 H   0  0  0  0  0  0  0  0  0  0  0  0
    8.6668   -4.5891   26.8013 H   0  0  0  0  0  0  0  0  0  0  0  0
    6.9513   -4.3276   26.4010 H   0  0  0  0  0  0  0  0  0  0  0  0
    7.9196   -5.4231   25.4163 H   0  0  0  0  0  0  0  0  0  0  0  0
   15.5670   -1.5298   22.1560 H   0  0  0  0  0  0  0  0  0  0  0  0
   15.1143   -2.9203   23.1991 H   0  0  0  0  0  0  0  0  0  0  0  0
   14.3267   -2.7119   21.6144 H   0  0  0  0  0  0  0  0  0  0  0  0
   10.4108    1.1190   24.2247 H   0  0  0  0  0  0  0  0  0  0  0  0
   10.8961    1.5498   22.5844 H   0  0  0  0  0  0  0  0  0  0  0  0
    8.0545   -1.6267   21.0593 H   0  0  0  0  0  0  0  0  0  0  0  0
  1  2  1  0  0  0  0
  1  5  2  0  0  0  0
  2  6  2  0  0  0  0
  3  7  2  0  0  0  0
  3 12  1  0  0  0  0
  4  8  1  0  0  0  0
  4 12  2  0  0  0  0
  5 14  1  0  0  0  0
  6 15  1  0  0  0  0
  7 16  1  0  0  0  0
  8 16  2  0  0  0  0
  9 13  1  0  0  0  0
  9 21  2  0  0  0  0
 10 13  2  0  0  0  0
 10 23  1  0  0  0  0
 11 22  2  0  0  0  0
 11 24  1  0  0  0  0
 12 18  1  0  0  0  0
 13 20  1  0  0  0  0
 14 15  2  0  0  0  0
 14 22  1  0  0  0  0
 15 24  1  0  0  0  0
 16 26  1  0  0  0  0
 17 25  1  0  0  0  0
 17 26  1  0  0  0  0
 17 27  2  0  0  0  0
 19 23  1  0  0  0  0
 20 26  1  0  0  0  0
 21 23  1  0  0  0  0
 24 25  1  0  0  0  0
  1 28  1  0  0  0  0
  2 29  1  0  0  0  0
  3 30  1  0  0  0  0
  4 31  1  0  0  0  0
  5 32  1  0  0  0  0
  6 33  1  0  0  0  0
  7 34  1  0  0  0  0
  8 35  1  0  0  0  0
  9 36  1  0  0  0  0
 10 37  1  0  0  0  0
 11 38  1  0  0  0  0
 18 39  1  0  0  0  0
 18 40  1  0  0  0  0
 18 41  1  0  0  0  0
 19 42  1  0  0  0  0
 19 43  1  0  0  0  0
 19 44  1  0  0  0  0
 20 45  1  0  0  0  0
 20 46  1  0  0  0  0
 25 47  1  0  0  0  0
M  END
> <clash_score>
0

> <docking_score>
-7.805582523345947

> <overlap_score>
0.9016358256340027

$$$$
BENZO_42_1
  -OEChem-08232013513D

 47 50  0     0  0  0  0  0  0999 V2000
    3.8860    2.1050   19.5250 C   0  0  0  0  0  0  0  0  0  0  0  0
    4.2460    1.7520   20.8250 C   0  0  0  0  0  0  0  0  0  0  0  0
   13.7270   -1.0011   24.8368 C   0  0  0  0  0  0  0  0  0  0  0  0
   12.5651   -0.2446   24.6846 C   0  0  0  0  0  0  0  0  0  0  0  0
    9.1890   -3.5540   24.0140 C   0  0  0  0  0  0  0  0  0  0  0  0
    7.8700   -2.0610   25.3550 C   0  0  0  0  0  0  0  0  0  0  0  0
    4.6610    1.7170   18.4380 C   0  0  0  0  0  0  0  0  0  0  0  0
    5.3890    1.0010   21.0690 C   0  0  0  0  0  0  0  0  0  0  0  0
    9.5890   -2.4950   23.2210 C   0  0  0  0  0  0  0  0  0  0  0  0
    8.2550   -1.0010   24.5520 C   0  0  0  0  0  0  0  0  0  0  0  0
   14.3060   -1.6207   23.7293 C   0  0  0  0  0  0  0  0  0  0  0  0
   12.5610   -0.7274   22.3173 C   0  0  0  0  0  0  0  0  0  0  0  0
    7.5840   -0.2700   18.5160 C   0  0  0  0  0  0  0  0  0  0  0  0
    8.3450   -3.3440   25.0980 C   0  0  0  0  0  0  0  0  0  0  0  0
   11.9820   -0.1078   23.4249 C   0  0  0  0  0  0  0  0  0  0  0  0
    5.7970    0.9500   18.6730 C   0  0  0  0  0  0  0  0  0  0  0  0
    6.1460    0.6070   19.9750 C   0  0  0  0  0  0  0  0  0  0  0  0
    9.1280   -1.2090   23.4870 C   0  0  0  0  0  0  0  0  0  0  0  0
   13.7230   -1.4838   22.4696 C   0  0  0  0  0  0  0  0  0  0  0  0
    9.0430    0.2380   21.4940 C   0  0  0  0  0  0  0  0  0  0  0  0
    7.9522   -4.4794   25.9764 C   0  0  0  0  0  0  0  0  0  0  0  0
   10.7306    0.7056   23.2620 C   0  0  0  0  0  0  0  0  0  0  0  0
    6.7100    0.3850   17.8100 N   0  0  0  0  0  0  0  0  0  0  0  0
    7.2710   -0.1460   19.8310 N   0  0  0  0  0  0  0  0  0  0  0  0
    8.0950   -0.7700   20.8440 N   0  0  0  0  0  0  0  0  0  0  0  0
    9.5820   -0.1080   22.7000 N   0  0  0  0  0  0  0  0  0  0  0  0
    9.2950    1.3000   20.9480 O   0  0  0  0  0  0  0  0  0  0  0  0
   14.4371   -2.2494   21.1037 Cl  0  0  0  0  0  0  0  0  0  0  0  0
    2.9844    2.6927   19.3613 H   0  0  0  0  0  0  0  0  0  0  0  0
    3.6214    2.0680   21.6561 H   0  0  0  0  0  0  0  0  0  0  0  0
   14.1807   -1.1075   25.8180 H   0  0  0  0  0  0  0  0  0  0  0  0
   12.1208    0.2345   25.5531 H   0  0  0  0  0  0  0  0  0  0  0  0
    9.5403   -4.5627   23.7809 H   0  0  0  0  0  0  0  0  0  0  0  0
    7.1911   -1.8848   26.1904 H   0  0  0  0  0  0  0  0  0  0  0  0
    4.3780    2.0103   17.4276 H   0  0  0  0  0  0  0  0  0  0  0  0
    5.6758    0.7336   22.0897 H   0  0  0  0  0  0  0  0  0  0  0  0
   10.2682   -2.6746   22.3865 H   0  0  0  0  0  0  0  0  0  0  0  0
    7.8684   -0.0022   24.7594 H   0  0  0  0  0  0  0  0  0  0  0  0
   15.2115   -2.2074   23.8629 H   0  0  0  0  0  0  0  0  0  0  0  0
   12.1028   -0.6172   21.3371 H   0  0  0  0  0  0  0  0  0  0  0  0
    8.4213   -0.8245   18.1548 H   0  0  0  0  0  0  0  0  0  0  0  0
    8.6668   -4.5891   26.8013 H   0  0  0  0  0  0  0  0  0  0  0  0
    6.9513   -4.3276   26.4010 H   0  0  0  0  0  0  0  0  0  0  0  0
    7.9196   -5.4231   25.4163 H   0  0  0  0  0  0  0  0  0  0  0  0
   10.4108    1.1190   24.2247 H   0  0  0  0  0  0  0  0  0  0  0  0
   10.8961    1.5498   22.5844 H   0  0  0  0  0  0  0  0  0  0  0  0
    8.0545   -1.6267   21.0593 H   0  0  0  0  0  0  0  0  0  0  0  0
  1  2  1  0  0  0  0
  1  7  2  0  0  0  0
  2  8  2  0  0  0  0
  3  4  2  0  0  0  0
  3 11  1  0  0  0  0
  4 15  1  0  0  0  0
  5  9  2  0  0  0  0
  5 14  1  0  0  0  0
  6 10  1  0  0  0  0
  6 14  2  0  0  0  0
  7 16  1  0  0  0  0
  8 17  1  0  0  0  0
  9 18  1  0  0  0  0
 10 18  2  0  0  0  0
 11 19  2  0  0  0  0
 12 15  2  0  0  0  0
 12 19  1  0  0  0  0
 13 23  2  0  0  0  0
 13 24  1  0  0  0  0
 14 21  1  0  0  0  0
 15 22  1  0  0  0  0
 16 17  2  0  0  0  0
 16 23  1  0  0  0  0
 17 24  1  0  0  0  0
 18 26  1  0  0  0  0
 19 28  1  0  0  0  0
 20 25  1  0  0  0  0
 20 26  1  0  0  0  0
 20 27  2  0  0  0  0
 22 26  1  0  0  0  0
 24 25  1  0  0  0  0
  1 29  1  0  0  0  0
  2 30  1  0  0  0  0
  3 31  1  0  0  0  0
  4 32  1  0  0  0  0
  5 33  1  0  0  0  0
  6 34  1  0  0  0  0
  7 35  1  0  0  0  0
  8 36  1  0  0  0  0
  9 37  1  0  0  0  0
 10 38  1  0  0  0  0
 11 39  1  0  0  0  0
 12 40  1  0  0  0  0
 13 41  1  0  0  0  0
 21 42  1  0  0  0  0
 21 43  1  0  0  0  0
 21 44  1  0  0  0  0
 22 45  1  0  0  0  0
 22 46  1  0  0  0  0
 25 47  1  0  0  0  0
M  END
> <clash_score>
0

> <docking_score>
-8.302700996398926

> <overlap_score>
0.9070941209793091

$$$$
BENZO_45_1
  -OEChem-08232013513D

 48 51  0     0  0  0  0  0  0999 V2000
   14.3067   -1.6202   23.7268 C   0  0  0  0  0  0  0  0  0  0  0  0
   14.0548   -0.5497   24.5847 C   0  0  0  0  0  0  0  0  0  0  0  0
   13.3962   -1.9346   22.7178 C   0  0  0  0  0  0  0  0  0  0  0  0
    3.8860    2.1050   19.5250 C   0  0  0  0  0  0  0  0  0  0  0  0
    4.2460    1.7520   20.8250 C   0  0  0  0  0  0  0  0  0  0  0  0
   12.8925    0.2066   24.4338 C   0  0  0  0  0  0  0  0  0  0  0  0
   12.2339   -1.1783   22.5669 C   0  0  0  0  0  0  0  0  0  0  0  0
    4.6610    1.7170   18.4380 C   0  0  0  0  0  0  0  0  0  0  0  0
    5.3890    1.0010   21.0690 C   0  0  0  0  0  0  0  0  0  0  0  0
    9.5890   -2.4950   23.2210 C   0  0  0  0  0  0  0  0  0  0  0  0
    8.2550   -1.0010   24.5520 C   0  0  0  0  0  0  0  0  0  0  0  0
    9.1890   -3.5540   24.0140 C   0  0  0  0  0  0  0  0  0  0  0  0
    7.8700   -2.0610   25.3550 C   0  0  0  0  0  0  0  0  0  0  0  0
    7.5840   -0.2700   18.5160 C   0  0  0  0  0  0  0  0  0  0  0  0
   11.9820   -0.1078   23.4249 C   0  0  0  0  0  0  0  0  0  0  0  0
    5.7970    0.9500   18.6730 C   0  0  0  0  0  0  0  0  0  0  0  0
    6.1460    0.6070   19.9750 C   0  0  0  0  0  0  0  0  0  0  0  0
    9.1280   -1.2090   23.4870 C   0  0  0  0  0  0  0  0  0  0  0  0
    8.3450   -3.3440   25.0980 C   0  0  0  0  0  0  0  0  0  0  0  0
    9.0430    0.2380   21.4940 C   0  0  0  0  0  0  0  0  0  0  0  0
    8.5124   -5.6656   25.5743 C   0  0  0  0  0  0  0  0  0  0  0  0
   10.7306    0.7056   23.2620 C   0  0  0  0  0  0  0  0  0  0  0  0
    6.7100    0.3850   17.8100 N   0  0  0  0  0  0  0  0  0  0  0  0
    7.2710   -0.1460   19.8310 N   0  0  0  0  0  0  0  0  0  0  0  0
    8.0950   -0.7700   20.8440 N   0  0  0  0  0  0  0  0  0  0  0  0
    9.5820   -0.1080   22.7000 N   0  0  0  0  0  0  0  0  0  0  0  0
    9.2950    1.3000   20.9480 O   0  0  0  0  0  0  0  0  0  0  0  0
    7.9864   -4.3799   25.8996 O   0  0  0  0  0  0  0  0  0  0  0  0
   15.2124   -2.2081   23.8436 H   0  0  0  0  0  0  0  0  0  0  0  0
   14.7642   -0.3041   25.3697 H   0  0  0  0  0  0  0  0  0  0  0  0
   13.5925   -2.7673   22.0490 H   0  0  0  0  0  0  0  0  0  0  0  0
    2.9844    2.6927   19.3613 H   0  0  0  0  0  0  0  0  0  0  0  0
    3.6214    2.0680   21.6561 H   0  0  0  0  0  0  0  0  0  0  0  0
   12.7045    1.0388   25.1070 H   0  0  0  0  0  0  0  0  0  0  0  0
   11.5302   -1.4307   21.7781 H   0  0  0  0  0  0  0  0  0  0  0  0
    4.3780    2.0103   17.4276 H   0  0  0  0  0  0  0  0  0  0  0  0
    5.6758    0.7336   22.0897 H   0  0  0  0  0  0  0  0  0  0  0  0
   10.2678   -2.6746   22.3862 H   0  0  0  0  0  0  0  0  0  0  0  0
    7.8691   -0.0023   24.7606 H   0  0  0  0  0  0  0  0  0  0  0  0
    9.5404   -4.5633   23.7846 H   0  0  0  0  0  0  0  0  0  0  0  0
    7.1920   -1.8875   26.1914 H   0  0  0  0  0  0  0  0  0  0  0  0
    8.4213   -0.8245   18.1548 H   0  0  0  0  0  0  0  0  0  0  0  0
    8.1469   -6.4024   26.2939 H   0  0  0  0  0  0  0  0  0  0  0  0
    9.6045   -5.6298   25.5962 H   0  0  0  0  0  0  0  0  0  0  0  0
    8.1790   -5.9427   24.5714 H   0  0  0  0  0  0  0  0  0  0  0  0
   10.4108    1.1190   24.2247 H   0  0  0  0  0  0  0  0  0  0  0  0
   10.8961    1.5498   22.5844 H   0  0  0  0  0  0  0  0  0  0  0  0
    8.0545   -1.6267   21.0593 H   0  0  0  0  0  0  0  0  0  0  0  0
  1  2  1  0  0  0  0
  1  3  2  0  0  0  0
  2  6  2  0  0  0  0
  3  7  1  0  0  0  0
  4  5  1  0  0  0  0
  4  8  2  0  0  0  0
  5  9  2  0  0  0  0
  6 15  1  0  0  0  0
  7 15  2  0  0  0  0
  8 16  1  0  0  0  0
  9 17  1  0  0  0  0
 10 12  2  0  0  0  0
 10 18  1  0  0  0  0
 11 13  1  0  0  0  0
 11 18  2  0  0  0  0
 12 19  1  0  0  0  0
 13 19  2  0  0  0  0
 14 23  2  0  0  0  0
 14 24  1  0  0  0  0
 15 22  1  0  0  0  0
 16 17  2  0  0  0  0
 16 23  1  0  0  0  0
 17 24  1  0  0  0  0
 18 26  1  0  0  0  0
 19 28  1  0  0  0  0
 20 25  1  0  0  0  0
 20 26  1  0  0  0  0
 20 27  2  0  0  0  0
 21 28  1  0  0  0  0
 22 26  1  0  0  0  0
 24 25  1  0  0  0  0
  1 29  1  0  0  0  0
  2 30  1  0  0  0  0
  3 31  1  0  0  0  0
  4 32  1  0  0  0  0
  5 33  1  0  0  0  0
  6 34  1  0  0  0  0
  7 35  1  0  0  0  0
  8 36  1  0  0  0  0
  9 37  1  0  0  0  0
 10 38  1  0  0  0  0
 11 39  1  0  0  0  0
 12 40  1  0  0  0  0
 13 41  1  0  0  0  0
 14 42  1  0  0  0  0
 21 43  1  0  0  0  0
 21 44  1  0  0  0  0
 21 45  1  0  0  0  0
 22 46  1  0  0  0  0
 22 47  1  0  0  0  0
 25 48  1  0  0  0  0
M  END
> <clash_score>
0

> <docking_score>
-9.320667266845703

> <overlap_score>
0.9119625091552734

$$$$
BENZO_44_1
  -OEChem-08232013513D

 45 48  0     0  0  0  0  0  0999 V2000
    3.8860    2.1050   19.5250 C   0  0  0  0  0  0  0  0  0  0  0  0
    4.2460    1.7520   20.8250 C   0  0  0  0  0  0  0  0  0  0  0  0
    4.6610    1.7170   18.4380 C   0  0  0  0  0  0  0  0  0  0  0  0
    5.3890    1.0010   21.0690 C   0  0  0  0  0  0  0  0  0  0  0  0
    9.5890   -2.4950   23.2210 C   0  0  0  0  0  0  0  0  0  0  0  0
    8.2550   -1.0010   24.5520 C   0  0  0  0  0  0  0  0  0  0  0  0
    9.1890   -3.5540   24.0140 C   0  0  0  0  0  0  0  0  0  0  0  0
    7.8700   -2.0610   25.3550 C   0  0  0  0  0  0  0  0  0  0  0  0
   12.6465   -0.3027   24.6701 C   0  0  0  0  0  0  0  0  0  0  0  0
   13.7702   -1.0888   24.5395 C   0  0  0  0  0  0  0  0  0  0  0  0
   12.6233   -0.7523   22.3898 C   0  0  0  0  0  0  0  0  0  0  0  0
    7.5840   -0.2700   18.5160 C   0  0  0  0  0  0  0  0  0  0  0  0
   11.9820   -0.1078   23.4249 C   0  0  0  0  0  0  0  0  0  0  0  0
    5.7970    0.9500   18.6730 C   0  0  0  0  0  0  0  0  0  0  0  0
    6.1460    0.6070   19.9750 C   0  0  0  0  0  0  0  0  0  0  0  0
    9.1280   -1.2090   23.4870 C   0  0  0  0  0  0  0  0  0  0  0  0
    8.3450   -3.3440   25.0980 C   0  0  0  0  0  0  0  0  0  0  0  0
    9.0430    0.2380   21.4940 C   0  0  0  0  0  0  0  0  0  0  0  0
    8.5124   -5.6656   25.5743 C   0  0  0  0  0  0  0  0  0  0  0  0
   10.7306    0.7056   23.2620 C   0  0  0  0  0  0  0  0  0  0  0  0
    6.7100    0.3850   17.8100 N   0  0  0  0  0  0  0  0  0  0  0  0
    7.2710   -0.1460   19.8310 N   0  0  0  0  0  0  0  0  0  0  0  0
    8.0950   -0.7700   20.8440 N   0  0  0  0  0  0  0  0  0  0  0  0
    9.5820   -0.1080   22.7000 N   0  0  0  0  0  0  0  0  0  0  0  0
    9.2950    1.3000   20.9480 O   0  0  0  0  0  0  0  0  0  0  0  0
    7.9864   -4.3799   25.8996 O   0  0  0  0  0  0  0  0  0  0  0  0
   14.0203   -1.5882   22.9208 S   0  0  0  0  0  0  0  0  0  0  0  0
    2.9844    2.6927   19.3613 H   0  0  0  0  0  0  0  0  0  0  0  0
    3.6214    2.0680   21.6561 H   0  0  0  0  0  0  0  0  0  0  0  0
    4.3780    2.0103   17.4276 H   0  0  0  0  0  0  0  0  0  0  0  0
    5.6758    0.7336   22.0897 H   0  0  0  0  0  0  0  0  0  0  0  0
   10.2678   -2.6746   22.3862 H   0  0  0  0  0  0  0  0  0  0  0  0
    7.8691   -0.0023   24.7606 H   0  0  0  0  0  0  0  0  0  0  0  0
    9.5404   -4.5633   23.7846 H   0  0  0  0  0  0  0  0  0  0  0  0
    7.1920   -1.8875   26.1914 H   0  0  0  0  0  0  0  0  0  0  0  0
   12.3206    0.1112   25.6160 H   0  0  0  0  0  0  0  0  0  0  0  0
   14.4565   -1.3932   25.3170 H   0  0  0  0  0  0  0  0  0  0  0  0
   12.3424   -0.7738   21.3459 H   0  0  0  0  0  0  0  0  0  0  0  0
    8.4213   -0.8245   18.1548 H   0  0  0  0  0  0  0  0  0  0  0  0
    8.1469   -6.4024   26.2939 H   0  0  0  0  0  0  0  0  0  0  0  0
    9.6045   -5.6298   25.5962 H   0  0  0  0  0  0  0  0  0  0  0  0
    8.1790   -5.9427   24.5714 H   0  0  0  0  0  0  0  0  0  0  0  0
   10.4108    1.1190   24.2247 H   0  0  0  0  0  0  0  0  0  0  0  0
   10.8961    1.5498   22.5844 H   0  0  0  0  0  0  0  0  0  0  0  0
    8.0545   -1.6267   21.0593 H   0  0  0  0  0  0  0  0  0  0  0  0
  1  2  1  0  0  0  0
  1  3  2  0  0  0  0
  2  4  2  0  0  0  0
  3 14  1  0  0  0  0
  4 15  1  0  0  0  0
  5  7  2  0  0  0  0
  5 16  1  0  0  0  0
  6  8  1  0  0  0  0
  6 16  2  0  0  0  0
  7 17  1  0  0  0  0
  8 17  2  0  0  0  0
  9 10  2  0  0  0  0
  9 13  1  0  0  0  0
 10 27  1  0  0  0  0
 11 13  2  0  0  0  0
 11 27  1  0  0  0  0
 12 21  2  0  0  0  0
 12 22  1  0  0  0  0
 13 20  1  0  0  0  0
 14 15  2  0  0  0  0
 14 21  1  0  0  0  0
 15 22  1  0  0  0  0
 16 24  1  0  0  0  0
 17 26  1  0  0  0  0
 18 23  1  0  0  0  0
 18 24  1  0  0  0  0
 18 25  2  0  0  0  0
 19 26  1  0  0  0  0
 20 24  1  0  0  0  0
 22 23  1  0  0  0  0
  1 28  1  0  0  0  0
  2 29  1  0  0  0  0
  3 30  1  0  0  0  0
  4 31  1  0  0  0  0
  5 32  1  0  0  0  0
  6 33  1  0  0  0  0
  7 34  1  0  0  0  0
  8 35  1  0  0  0  0
  9 36  1  0  0  0  0
 10 37  1  0  0  0  0
 11 38  1  0  0  0  0
 12 39  1  0  0  0  0
 19 40  1  0  0  0  0
 19 41  1  0  0  0  0
 19 42  1  0  0  0  0
 20 43  1  0  0  0  0
 20 44  1  0  0  0  0
 23 45  1  0  0  0  0
M  END
> <clash_score>
0

> <docking_score>
-8.957696914672852

> <overlap_score>
0.8972476720809937

$$$$
BENZO_47_1
  -OEChem-08232013523D

 48 51  0     0  0  0  0  0  0999 V2000
    3.8860    2.1050   19.5250 C   0  0  0  0  0  0  0  0  0  0  0  0
    4.2460    1.7520   20.8250 C   0  0  0  0  0  0  0  0  0  0  0  0
    4.6610    1.7170   18.4380 C   0  0  0  0  0  0  0  0  0  0  0  0
    5.3890    1.0010   21.0690 C   0  0  0  0  0  0  0  0  0  0  0  0
    9.5890   -2.4950   23.2210 C   0  0  0  0  0  0  0  0  0  0  0  0
    8.2550   -1.0010   24.5520 C   0  0  0  0  0  0  0  0  0  0  0  0
    9.1890   -3.5540   24.0140 C   0  0  0  0  0  0  0  0  0  0  0  0
    7.8700   -2.0610   25.3550 C   0  0  0  0  0  0  0  0  0  0  0  0
   13.3050    0.3863   23.5788 C   0  0  0  0  0  0  0  0  0  0  0  0
   12.3510   -0.9348   22.1024 C   0  0  0  0  0  0  0  0  0  0  0  0
    7.5840   -0.2700   18.5160 C   0  0  0  0  0  0  0  0  0  0  0  0
   12.0658    0.0763   22.9872 C   0  0  0  0  0  0  0  0  0  0  0  0
    5.7970    0.9500   18.6730 C   0  0  0  0  0  0  0  0  0  0  0  0
    6.1460    0.6070   19.9750 C   0  0  0  0  0  0  0  0  0  0  0  0
    9.1280   -1.2090   23.4870 C   0  0  0  0  0  0  0  0  0  0  0  0
    8.3450   -3.3440   25.0980 C   0  0  0  0  0  0  0  0  0  0  0  0
    9.0430    0.2380   21.4940 C   0  0  0  0  0  0  0  0  0  0  0  0
   14.4595   -2.1365   21.4786 C   0  0  0  0  0  0  0  0  0  0  0  0
    7.1173   -4.0854   26.9922 C   0  0  0  0  0  0  0  0  0  0  0  0
   10.7306    0.7056   23.2620 C   0  0  0  0  0  0  0  0  0  0  0  0
   14.3032   -0.3669   23.1095 N   0  0  0  0  0  0  0  0  0  0  0  0
    6.7100    0.3850   17.8100 N   0  0  0  0  0  0  0  0  0  0  0  0
   13.6915   -1.1603   22.2137 N   0  0  0  0  0  0  0  0  0  0  0  0
    7.2710   -0.1460   19.8310 N   0  0  0  0  0  0  0  0  0  0  0  0
    8.0950   -0.7700   20.8440 N   0  0  0  0  0  0  0  0  0  0  0  0
    9.5820   -0.1080   22.7000 N   0  0  0  0  0  0  0  0  0  0  0  0
    9.2950    1.3000   20.9480 O   0  0  0  0  0  0  0  0  0  0  0  0
    7.9864   -4.3799   25.8996 O   0  0  0  0  0  0  0  0  0  0  0  0
    2.9844    2.6927   19.3613 H   0  0  0  0  0  0  0  0  0  0  0  0
    3.6214    2.0680   21.6561 H   0  0  0  0  0  0  0  0  0  0  0  0
    4.3780    2.0103   17.4276 H   0  0  0  0  0  0  0  0  0  0  0  0
    5.6758    0.7336   22.0897 H   0  0  0  0  0  0  0  0  0  0  0  0
   10.2678   -2.6746   22.3862 H   0  0  0  0  0  0  0  0  0  0  0  0
    7.8691   -0.0023   24.7606 H   0  0  0  0  0  0  0  0  0  0  0  0
    9.5404   -4.5633   23.7846 H   0  0  0  0  0  0  0  0  0  0  0  0
    7.1920   -1.8875   26.1914 H   0  0  0  0  0  0  0  0  0  0  0  0
   13.5246    1.1286   24.3331 H   0  0  0  0  0  0  0  0  0  0  0  0
   11.7296   -1.4998   21.4209 H   0  0  0  0  0  0  0  0  0  0  0  0
    8.4213   -0.8245   18.1548 H   0  0  0  0  0  0  0  0  0  0  0  0
   14.8191   -1.6619   20.5618 H   0  0  0  0  0  0  0  0  0  0  0  0
   15.3011   -2.4733   22.0902 H   0  0  0  0  0  0  0  0  0  0  0  0
   13.8229   -2.9937   21.2423 H   0  0  0  0  0  0  0  0  0  0  0  0
    6.9108   -5.0012   27.5515 H   0  0  0  0  0  0  0  0  0  0  0  0
    6.1851   -3.6594   26.6128 H   0  0  0  0  0  0  0  0  0  0  0  0
    7.6053   -3.3619   27.6496 H   0  0  0  0  0  0  0  0  0  0  0  0
   10.5698    0.8148   24.3400 H   0  0  0  0  0  0  0  0  0  0  0  0
   10.6696    1.7061   22.8210 H   0  0  0  0  0  0  0  0  0  0  0  0
    8.0545   -1.6267   21.0593 H   0  0  0  0  0  0  0  0  0  0  0  0
  1  2  1  0  0  0  0
  1  3  2  0  0  0  0
  2  4  2  0  0  0  0
  3 13  1  0  0  0  0
  4 14  1  0  0  0  0
  5  7  2  0  0  0  0
  5 15  1  0  0  0  0
  6  8  1  0  0  0  0
  6 15  2  0  0  0  0
  7 16  1  0  0  0  0
  8 16  2  0  0  0  0
  9 12  1  0  0  0  0
  9 21  2  0  0  0  0
 10 12  2  0  0  0  0
 10 23  1  0  0  0  0
 11 22  2  0  0  0  0
 11 24  1  0  0  0  0
 12 20  1  0  0  0  0
 13 14  2  0  0  0  0
 13 22  1  0  0  0  0
 14 24  1  0  0  0  0
 15 26  1  0  0  0  0
 16 28  1  0  0  0  0
 17 25  1  0  0  0  0
 17 26  1  0  0  0  0
 17 27  2  0  0  0  0
 18 23  1  0  0  0  0
 19 28  1  0  0  0  0
 20 26  1  0  0  0  0
 21 23  1  0  0  0  0
 24 25  1  0  0  0  0
  1 29  1  0  0  0  0
  2 30  1  0  0  0  0
  3 31  1  0  0  0  0
  4 32  1  0  0  0  0
  5 33  1  0  0  0  0
  6 34  1  0  0  0  0
  7 35  1  0  0  0  0
  8 36  1  0  0  0  0
  9 37  1  0  0  0  0
 10 38  1  0  0  0  0
 11 39  1  0  0  0  0
 18 40  1  0  0  0  0
 18 41  1  0  0  0  0
 18 42  1  0  0  0  0
 19 43  1  0  0  0  0
 19 44  1  0  0  0  0
 19 45  1  0  0  0  0
 20 46  1  0  0  0  0
 20 47  1  0  0  0  0
 25 48  1  0  0  0  0
M  END
> <clash_score>
0

> <docking_score>
-8.612652778625488

> <overlap_score>
0.9025135636329651

$$$$
BENZO_49_1
  -OEChem-08232013523D

 58 62  0     0  0  0  0  0  0999 V2000
   14.2834   -1.6329   23.7557 C   0  0  0  0  0  0  0  0  0  0  0  0
   14.0471   -0.5389   24.5881 C   0  0  0  0  0  0  0  0  0  0  0  0
   13.3666   -1.9599   22.7566 C   0  0  0  0  0  0  0  0  0  0  0  0
    3.8860    2.1050   19.5250 C   0  0  0  0  0  0  0  0  0  0  0  0
    4.2460    1.7520   20.8250 C   0  0  0  0  0  0  0  0  0  0  0  0
   12.8940    0.2280   24.4215 C   0  0  0  0  0  0  0  0  0  0  0  0
   12.2135   -1.1930   22.5900 C   0  0  0  0  0  0  0  0  0  0  0  0
    4.6610    1.7170   18.4380 C   0  0  0  0  0  0  0  0  0  0  0  0
    5.3890    1.0010   21.0690 C   0  0  0  0  0  0  0  0  0  0  0  0
    9.1890   -3.5540   24.0140 C   0  0  0  0  0  0  0  0  0  0  0  0
    7.8700   -2.0610   25.3550 C   0  0  0  0  0  0  0  0  0  0  0  0
    9.5890   -2.4950   23.2210 C   0  0  0  0  0  0  0  0  0  0  0  0
    8.2550   -1.0010   24.5520 C   0  0  0  0  0  0  0  0  0  0  0  0
    7.5840   -0.2700   18.5160 C   0  0  0  0  0  0  0  0  0  0  0  0
   11.9771   -0.0990   23.4225 C   0  0  0  0  0  0  0  0  0  0  0  0
    5.7970    0.9500   18.6730 C   0  0  0  0  0  0  0  0  0  0  0  0
    6.1460    0.6070   19.9750 C   0  0  0  0  0  0  0  0  0  0  0  0
    8.3450   -3.3440   25.0980 C   0  0  0  0  0  0  0  0  0  0  0  0
    9.1280   -1.2090   23.4870 C   0  0  0  0  0  0  0  0  0  0  0  0
    7.2752   -5.5548   25.4273 C   0  0  0  0  0  0  0  0  0  0  0  0
    9.0430    0.2380   21.4940 C   0  0  0  0  0  0  0  0  0  0  0  0
    7.1880   -6.7800   26.3209 C   0  0  0  0  0  0  0  0  0  0  0  0
    7.0916   -6.4753   27.7999 C   0  0  0  0  0  0  0  0  0  0  0  0
    8.2362   -5.5640   28.1841 C   0  0  0  0  0  0  0  0  0  0  0  0
    8.1240   -4.2655   27.4032 C   0  0  0  0  0  0  0  0  0  0  0  0
   10.7356    0.7258   23.2428 C   0  0  0  0  0  0  0  0  0  0  0  0
    6.7100    0.3850   17.8100 N   0  0  0  0  0  0  0  0  0  0  0  0
    7.2710   -0.1460   19.8310 N   0  0  0  0  0  0  0  0  0  0  0  0
    7.9635   -4.4452   25.9501 N   0  0  0  0  0  0  0  0  0  0  0  0
    8.0950   -0.7700   20.8440 N   0  0  0  0  0  0  0  0  0  0  0  0
    9.5820   -0.1080   22.7000 N   0  0  0  0  0  0  0  0  0  0  0  0
    6.7947   -5.6299   24.2931 O   0  0  0  0  0  0  0  0  0  0  0  0
    9.2950    1.3000   20.9480 O   0  0  0  0  0  0  0  0  0  0  0  0
   15.1820   -2.2291   23.8847 H   0  0  0  0  0  0  0  0  0  0  0  0
   14.7614   -0.2834   25.3654 H   0  0  0  0  0  0  0  0  0  0  0  0
   13.5508   -2.8110   22.1076 H   0  0  0  0  0  0  0  0  0  0  0  0
    2.9844    2.6927   19.3613 H   0  0  0  0  0  0  0  0  0  0  0  0
    3.6214    2.0680   21.6561 H   0  0  0  0  0  0  0  0  0  0  0  0
   12.7180    1.0785   25.0749 H   0  0  0  0  0  0  0  0  0  0  0  0
   11.5047   -1.4554   21.8090 H   0  0  0  0  0  0  0  0  0  0  0  0
    4.3780    2.0103   17.4276 H   0  0  0  0  0  0  0  0  0  0  0  0
    5.6758    0.7336   22.0897 H   0  0  0  0  0  0  0  0  0  0  0  0
    9.5436   -4.5614   23.7799 H   0  0  0  0  0  0  0  0  0  0  0  0
    7.1918   -1.8823   26.1906 H   0  0  0  0  0  0  0  0  0  0  0  0
   10.2676   -2.6754   22.3861 H   0  0  0  0  0  0  0  0  0  0  0  0
    7.8686   -0.0026   24.7598 H   0  0  0  0  0  0  0  0  0  0  0  0
    8.4213   -0.8245   18.1548 H   0  0  0  0  0  0  0  0  0  0  0  0
    6.3101   -7.3613   26.0164 H   0  0  0  0  0  0  0  0  0  0  0  0
    8.0752   -7.3922   26.1183 H   0  0  0  0  0  0  0  0  0  0  0  0
    6.1328   -5.9938   28.0269 H   0  0  0  0  0  0  0  0  0  0  0  0
    7.1363   -7.4051   28.3772 H   0  0  0  0  0  0  0  0  0  0  0  0
    8.2035   -5.3520   29.2586 H   0  0  0  0  0  0  0  0  0  0  0  0
    9.1990   -6.0474   27.9788 H   0  0  0  0  0  0  0  0  0  0  0  0
    7.2505   -3.6996   27.7511 H   0  0  0  0  0  0  0  0  0  0  0  0
    9.0155   -3.6525   27.5824 H   0  0  0  0  0  0  0  0  0  0  0  0
   10.4038    1.1382   24.2019 H   0  0  0  0  0  0  0  0  0  0  0  0
   10.9193    1.5713   22.5714 H   0  0  0  0  0  0  0  0  0  0  0  0
    8.0897   -1.6082   21.0890 H   0  0  0  0  0  0  0  0  0  0  0  0
  1  2  1  0  0  0  0
  1  3  2  0  0  0  0
  2  6  2  0  0  0  0
  3  7  1  0  0  0  0
  4  5  1  0  0  0  0
  4  8  2  0  0  0  0
  5  9  2  0  0  0  0
  6 15  1  0  0  0  0
  7 15  2  0  0  0  0
  8 16  1  0  0  0  0
  9 17  1  0  0  0  0
 10 12  2  0  0  0  0
 10 18  1  0  0  0  0
 11 13  1  0  0  0  0
 11 18  2  0  0  0  0
 12 19  1  0  0  0  0
 13 19  2  0  0  0  0
 14 27  2  0  0  0  0
 14 28  1  0  0  0  0
 15 26  1  0  0  0  0
 16 17  2  0  0  0  0
 16 27  1  0  0  0  0
 17 28  1  0  0  0  0
 18 29  1  0  0  0  0
 19 31  1  0  0  0  0
 20 22  1  0  0  0  0
 20 29  1  0  0  0  0
 20 32  2  0  0  0  0
 21 30  1  0  0  0  0
 21 31  1  0  0  0  0
 21 33  2  0  0  0  0
 22 23  1  0  0  0  0
 23 24  1  0  0  0  0
 24 25  1  0  0  0  0
 25 29  1  0  0  0  0
 26 31  1  0  0  0  0
 28 30  1  0  0  0  0
  1 34  1  0  0  0  0
  2 35  1  0  0  0  0
  3 36  1  0  0  0  0
  4 37  1  0  0  0  0
  5 38  1  0  0  0  0
  6 39  1  0  0  0  0
  7 40  1  0  0  0  0
  8 41  1  0  0  0  0
  9 42  1  0  0  0  0
 10 43  1  0  0  0  0
 11 44  1  0  0  0  0
 12 45  1  0  0  0  0
 13 46  1  0  0  0  0
 14 47  1  0  0  0  0
 22 48  1  0  0  0  0
 22 49  1  0  0  0  0
 23 50  1  0  0  0  0
 23 51  1  0  0  0  0
 24 52  1  0  0  0  0
 24 53  1  0  0  0  0
 25 54  1  0  0  0  0
 25 55  1  0  0  0  0
 26 56  1  0  0  0  0
 26 57  1  0  0  0  0
 30 58  1  0  0  0  0
M  END
> <clash_score>
0

> <docking_score>
-9.059737205505371

> <overlap_score>
0.9920637011528015

$$$$
BENZO_46_1
  -OEChem-08232013523D

 48 51  0     0  0  0  0  0  0999 V2000
    3.8860    2.1050   19.5250 C   0  0  0  0  0  0  0  0  0  0  0  0
    4.2460    1.7520   20.8250 C   0  0  0  0  0  0  0  0  0  0  0  0
   13.7270   -1.0011   24.8368 C   0  0  0  0  0  0  0  0  0  0  0  0
   12.5651   -0.2446   24.6846 C   0  0  0  0  0  0  0  0  0  0  0  0
    4.6610    1.7170   18.4380 C   0  0  0  0  0  0  0  0  0  0  0  0
    5.3890    1.0010   21.0690 C   0  0  0  0  0  0  0  0  0  0  0  0
    9.5890   -2.4950   23.2210 C   0  0  0  0  0  0  0  0  0  0  0  0
    8.2550   -1.0010   24.5520 C   0  0  0  0  0  0  0  0  0  0  0  0
    9.1890   -3.5540   24.0140 C   0  0  0  0  0  0  0  0  0  0  0  0
    7.8700   -2.0610   25.3550 C   0  0  0  0  0  0  0  0  0  0  0  0
   14.3060   -1.6207   23.7293 C   0  0  0  0  0  0  0  0  0  0  0  0
   12.5610   -0.7274   22.3173 C   0  0  0  0  0  0  0  0  0  0  0  0
    7.5840   -0.2700   18.5160 C   0  0  0  0  0  0  0  0  0  0  0  0
   11.9820   -0.1078   23.4249 C   0  0  0  0  0  0  0  0  0  0  0  0
    5.7970    0.9500   18.6730 C   0  0  0  0  0  0  0  0  0  0  0  0
    6.1460    0.6070   19.9750 C   0  0  0  0  0  0  0  0  0  0  0  0
    9.1280   -1.2090   23.4870 C   0  0  0  0  0  0  0  0  0  0  0  0
    8.3450   -3.3440   25.0980 C   0  0  0  0  0  0  0  0  0  0  0  0
   13.7230   -1.4838   22.4696 C   0  0  0  0  0  0  0  0  0  0  0  0
    9.0430    0.2380   21.4940 C   0  0  0  0  0  0  0  0  0  0  0  0
    8.5124   -5.6656   25.5743 C   0  0  0  0  0  0  0  0  0  0  0  0
   10.7306    0.7056   23.2620 C   0  0  0  0  0  0  0  0  0  0  0  0
    6.7100    0.3850   17.8100 N   0  0  0  0  0  0  0  0  0  0  0  0
    7.2710   -0.1460   19.8310 N   0  0  0  0  0  0  0  0  0  0  0  0
    8.0950   -0.7700   20.8440 N   0  0  0  0  0  0  0  0  0  0  0  0
    9.5820   -0.1080   22.7000 N   0  0  0  0  0  0  0  0  0  0  0  0
    9.2950    1.3000   20.9480 O   0  0  0  0  0  0  0  0  0  0  0  0
    7.9864   -4.3799   25.8996 O   0  0  0  0  0  0  0  0  0  0  0  0
   14.4371   -2.2494   21.1037 Cl  0  0  0  0  0  0  0  0  0  0  0  0
    2.9844    2.6927   19.3613 H   0  0  0  0  0  0  0  0  0  0  0  0
    3.6214    2.0680   21.6561 H   0  0  0  0  0  0  0  0  0  0  0  0
   14.1807   -1.1075   25.8180 H   0  0  0  0  0  0  0  0  0  0  0  0
   12.1208    0.2345   25.5531 H   0  0  0  0  0  0  0  0  0  0  0  0
    4.3780    2.0103   17.4276 H   0  0  0  0  0  0  0  0  0  0  0  0
    5.6758    0.7336   22.0897 H   0  0  0  0  0  0  0  0  0  0  0  0
   10.2678   -2.6746   22.3862 H   0  0  0  0  0  0  0  0  0  0  0  0
    7.8691   -0.0023   24.7606 H   0  0  0  0  0  0  0  0  0  0  0  0
    9.5404   -4.5633   23.7846 H   0  0  0  0  0  0  0  0  0  0  0  0
    7.1920   -1.8875   26.1914 H   0  0  0  0  0  0  0  0  0  0  0  0
   15.2115   -2.2074   23.8629 H   0  0  0  0  0  0  0  0  0  0  0  0
   12.1028   -0.6172   21.3371 H   0  0  0  0  0  0  0  0  0  0  0  0
    8.4213   -0.8245   18.1548 H   0  0  0  0  0  0  0  0  0  0  0  0
    8.1469   -6.4024   26.2939 H   0  0  0  0  0  0  0  0  0  0  0  0
    9.6045   -5.6298   25.5962 H   0  0  0  0  0  0  0  0  0  0  0  0
    8.1790   -5.9427   24.5714 H   0  0  0  0  0  0  0  0  0  0  0  0
   10.4108    1.1190   24.2247 H   0  0  0  0  0  0  0  0  0  0  0  0
   10.8961    1.5498   22.5844 H   0  0  0  0  0  0  0  0  0  0  0  0
    8.0545   -1.6267   21.0593 H   0  0  0  0  0  0  0  0  0  0  0  0
  1  2  1  0  0  0  0
  1  5  2  0  0  0  0
  2  6  2  0  0  0  0
  3  4  2  0  0  0  0
  3 11  1  0  0  0  0
  4 14  1  0  0  0  0
  5 15  1  0  0  0  0
  6 16  1  0  0  0  0
  7  9  2  0  0  0  0
  7 17  1  0  0  0  0
  8 10  1  0  0  0  0
  8 17  2  0  0  0  0
  9 18  1  0  0  0  0
 10 18  2  0  0  0  0
 11 19  2  0  0  0  0
 12 14  2  0  0  0  0
 12 19  1  0  0  0  0
 13 23  2  0  0  0  0
 13 24  1  0  0  0  0
 14 22  1  0  0  0  0
 15 16  2  0  0  0  0
 15 23  1  0  0  0  0
 16 24  1  0  0  0  0
 17 26  1  0  0  0  0
 18 28  1  0  0  0  0
 19 29  1  0  0  0  0
 20 25  1  0  0  0  0
 20 26  1  0  0  0  0
 20 27  2  0  0  0  0
 21 28  1  0  0  0  0
 22 26  1  0  0  0  0
 24 25  1  0  0  0  0
  1 30  1  0  0  0  0
  2 31  1  0  0  0  0
  3 32  1  0  0  0  0
  4 33  1  0  0  0  0
  5 34  1  0  0  0  0
  6 35  1  0  0  0  0
  7 36  1  0  0  0  0
  8 37  1  0  0  0  0
  9 38  1  0  0  0  0
 10 39  1  0  0  0  0
 11 40  1  0  0  0  0
 12 41  1  0  0  0  0
 13 42  1  0  0  0  0
 21 43  1  0  0  0  0
 21 44  1  0  0  0  0
 21 45  1  0  0  0  0
 22 46  1  0  0  0  0
 22 47  1  0  0  0  0
 25 48  1  0  0  0  0
M  END
> <clash_score>
0

> <docking_score>
-8.422906875610352

> <overlap_score>
0.9203366041183472

$$$$
BENZO_48_1
  -OEChem-08232013523D

 55 59  0     0  0  0  0  0  0999 V2000
    3.8860    2.1050   19.5250 C   0  0  0  0  0  0  0  0  0  0  0  0
    4.2460    1.7520   20.8250 C   0  0  0  0  0  0  0  0  0  0  0  0
    4.6610    1.7170   18.4380 C   0  0  0  0  0  0  0  0  0  0  0  0
    5.3890    1.0010   21.0690 C   0  0  0  0  0  0  0  0  0  0  0  0
    9.1890   -3.5540   24.0140 C   0  0  0  0  0  0  0  0  0  0  0  0
    7.8700   -2.0610   25.3550 C   0  0  0  0  0  0  0  0  0  0  0  0
    9.5890   -2.4950   23.2210 C   0  0  0  0  0  0  0  0  0  0  0  0
    8.2550   -1.0010   24.5520 C   0  0  0  0  0  0  0  0  0  0  0  0
   12.6197   -0.3047   24.6774 C   0  0  0  0  0  0  0  0  0  0  0  0
   13.7385   -1.1000   24.5618 C   0  0  0  0  0  0  0  0  0  0  0  0
   12.6295   -0.7450   22.3953 C   0  0  0  0  0  0  0  0  0  0  0  0
    7.5840   -0.2700   18.5160 C   0  0  0  0  0  0  0  0  0  0  0  0
   11.9771   -0.0990   23.4225 C   0  0  0  0  0  0  0  0  0  0  0  0
    5.7970    0.9500   18.6730 C   0  0  0  0  0  0  0  0  0  0  0  0
    6.1460    0.6070   19.9750 C   0  0  0  0  0  0  0  0  0  0  0  0
    8.3450   -3.3440   25.0980 C   0  0  0  0  0  0  0  0  0  0  0  0
    9.1280   -1.2090   23.4870 C   0  0  0  0  0  0  0  0  0  0  0  0
    7.2752   -5.5548   25.4273 C   0  0  0  0  0  0  0  0  0  0  0  0
    9.0430    0.2380   21.4940 C   0  0  0  0  0  0  0  0  0  0  0  0
    7.1880   -6.7800   26.3209 C   0  0  0  0  0  0  0  0  0  0  0  0
    7.0916   -6.4753   27.7999 C   0  0  0  0  0  0  0  0  0  0  0  0
    8.2362   -5.5640   28.1841 C   0  0  0  0  0  0  0  0  0  0  0  0
    8.1240   -4.2655   27.4032 C   0  0  0  0  0  0  0  0  0  0  0  0
   10.7356    0.7258   23.2428 C   0  0  0  0  0  0  0  0  0  0  0  0
    6.7100    0.3850   17.8100 N   0  0  0  0  0  0  0  0  0  0  0  0
    7.2710   -0.1460   19.8310 N   0  0  0  0  0  0  0  0  0  0  0  0
    7.9635   -4.4452   25.9501 N   0  0  0  0  0  0  0  0  0  0  0  0
    8.0950   -0.7700   20.8440 N   0  0  0  0  0  0  0  0  0  0  0  0
    9.5820   -0.1080   22.7000 N   0  0  0  0  0  0  0  0  0  0  0  0
    6.7947   -5.6299   24.2931 O   0  0  0  0  0  0  0  0  0  0  0  0
    9.2950    1.3000   20.9480 O   0  0  0  0  0  0  0  0  0  0  0  0
   14.0104   -1.5951   22.9452 S   0  0  0  0  0  0  0  0  0  0  0  0
    2.9844    2.6927   19.3613 H   0  0  0  0  0  0  0  0  0  0  0  0
    3.6214    2.0680   21.6561 H   0  0  0  0  0  0  0  0  0  0  0  0
    4.3780    2.0103   17.4276 H   0  0  0  0  0  0  0  0  0  0  0  0
    5.6758    0.7336   22.0897 H   0  0  0  0  0  0  0  0  0  0  0  0
    9.5436   -4.5614   23.7799 H   0  0  0  0  0  0  0  0  0  0  0  0
    7.1918   -1.8823   26.1906 H   0  0  0  0  0  0  0  0  0  0  0  0
   10.2676   -2.6754   22.3861 H   0  0  0  0  0  0  0  0  0  0  0  0
    7.8686   -0.0026   24.7598 H   0  0  0  0  0  0  0  0  0  0  0  0
   12.2821    0.1083   25.6196 H   0  0  0  0  0  0  0  0  0  0  0  0
   14.4095   -1.4134   25.3490 H   0  0  0  0  0  0  0  0  0  0  0  0
   12.3653   -0.7599   21.3469 H   0  0  0  0  0  0  0  0  0  0  0  0
    8.4213   -0.8245   18.1548 H   0  0  0  0  0  0  0  0  0  0  0  0
    6.3101   -7.3613   26.0164 H   0  0  0  0  0  0  0  0  0  0  0  0
    8.0752   -7.3922   26.1183 H   0  0  0  0  0  0  0  0  0  0  0  0
    6.1328   -5.9938   28.0269 H   0  0  0  0  0  0  0  0  0  0  0  0
    7.1363   -7.4051   28.3772 H   0  0  0  0  0  0  0  0  0  0  0  0
    8.2035   -5.3520   29.2586 H   0  0  0  0  0  0  0  0  0  0  0  0
    9.1990   -6.0474   27.9788 H   0  0  0  0  0  0  0  0  0  0  0  0
    7.2505   -3.6996   27.7511 H   0  0  0  0  0  0  0  0  0  0  0  0
    9.0155   -3.6525   27.5824 H   0  0  0  0  0  0  0  0  0  0  0  0
   10.4038    1.1382   24.2019 H   0  0  0  0  0  0  0  0  0  0  0  0
   10.9193    1.5713   22.5714 H   0  0  0  0  0  0  0  0  0  0  0  0
    8.0897   -1.6082   21.0890 H   0  0  0  0  0  0  0  0  0  0  0  0
  1  2  1  0  0  0  0
  1  3  2  0  0  0  0
  2  4  2  0  0  0  0
  3 14  1  0  0  0  0
  4 15  1  0  0  0  0
  5  7  2  0  0  0  0
  5 16  1  0  0  0  0
  6  8  1  0  0  0  0
  6 16  2  0  0  0  0
  7 17  1  0  0  0  0
  8 17  2  0  0  0  0
  9 10  2  0  0  0  0
  9 13  1  0  0  0  0
 10 32  1  0  0  0  0
 11 13  2  0  0  0  0
 11 32  1  0  0  0  0
 12 25  2  0  0  0  0
 12 26  1  0  0  0  0
 13 24  1  0  0  0  0
 14 15  2  0  0  0  0
 14 25  1  0  0  0  0
 15 26  1  0  0  0  0
 16 27  1  0  0  0  0
 17 29  1  0  0  0  0
 18 20  1  0  0  0  0
 18 27  1  0  0  0  0
 18 30  2  0  0  0  0
 19 28  1  0  0  0  0
 19 29  1  0  0  0  0
 19 31  2  0  0  0  0
 20 21  1  0  0  0  0
 21 22  1  0  0  0  0
 22 23  1  0  0  0  0
 23 27  1  0  0  0  0
 24 29  1  0  0  0  0
 26 28  1  0  0  0  0
  1 33  1  0  0  0  0
  2 34  1  0  0  0  0
  3 35  1  0  0  0  0
  4 36  1  0  0  0  0
  5 37  1  0  0  0  0
  6 38  1  0  0  0  0
  7 39  1  0  0  0  0
  8 40  1  0  0  0  0
  9 41  1  0  0  0  0
 10 42  1  0  0  0  0
 11 43  1  0  0  0  0
 12 44  1  0  0  0  0
 20 45  1  0  0  0  0
 20 46  1  0  0  0  0
 21 47  1  0  0  0  0
 21 48  1  0  0  0  0
 22 49  1  0  0  0  0
 22 50  1  0  0  0  0
 23 51  1  0  0  0  0
 23 52  1  0  0  0  0
 24 53  1  0  0  0  0
 24 54  1  0  0  0  0
 28 55  1  0  0  0  0
M  END
> <clash_score>
0

> <docking_score>
-8.72579574584961

> <overlap_score>
0.9780871868133545

$$$$
BENZO_51_1
  -OEChem-08232013523D

 58 62  0     0  0  0  0  0  0999 V2000
    3.8860    2.1050   19.5250 C   0  0  0  0  0  0  0  0  0  0  0  0
    4.2460    1.7520   20.8250 C   0  0  0  0  0  0  0  0  0  0  0  0
    4.6610    1.7170   18.4380 C   0  0  0  0  0  0  0  0  0  0  0  0
    5.3890    1.0010   21.0690 C   0  0  0  0  0  0  0  0  0  0  0  0
    9.1890   -3.5540   24.0140 C   0  0  0  0  0  0  0  0  0  0  0  0
    7.8700   -2.0610   25.3550 C   0  0  0  0  0  0  0  0  0  0  0  0
    9.5890   -2.4950   23.2210 C   0  0  0  0  0  0  0  0  0  0  0  0
    8.2550   -1.0010   24.5520 C   0  0  0  0  0  0  0  0  0  0  0  0
   13.3011    0.3600   23.5803 C   0  0  0  0  0  0  0  0  0  0  0  0
   12.3365   -0.9398   22.0921 C   0  0  0  0  0  0  0  0  0  0  0  0
    7.5840   -0.2700   18.5160 C   0  0  0  0  0  0  0  0  0  0  0  0
   12.0616    0.0737   22.9774 C   0  0  0  0  0  0  0  0  0  0  0  0
    5.7970    0.9500   18.6730 C   0  0  0  0  0  0  0  0  0  0  0  0
    6.1460    0.6070   19.9750 C   0  0  0  0  0  0  0  0  0  0  0  0
    8.3450   -3.3440   25.0980 C   0  0  0  0  0  0  0  0  0  0  0  0
    9.1280   -1.2090   23.4870 C   0  0  0  0  0  0  0  0  0  0  0  0
    8.7161   -4.7975   27.0830 C   0  0  0  0  0  0  0  0  0  0  0  0
    9.0430    0.2380   21.4940 C   0  0  0  0  0  0  0  0  0  0  0  0
    8.1364   -5.9760   27.8449 C   0  0  0  0  0  0  0  0  0  0  0  0
    6.6423   -5.8008   28.0518 C   0  0  0  0  0  0  0  0  0  0  0  0
    5.9022   -5.5526   26.7413 C   0  0  0  0  0  0  0  0  0  0  0  0
    6.8397   -5.2970   25.5620 C   0  0  0  0  0  0  0  0  0  0  0  0
   14.4285   -2.1769   21.4825 C   0  0  0  0  0  0  0  0  0  0  0  0
   10.7356    0.7258   23.2428 C   0  0  0  0  0  0  0  0  0  0  0  0
   14.2898   -0.4094   23.1173 N   0  0  0  0  0  0  0  0  0  0  0  0
    6.7100    0.3850   17.8100 N   0  0  0  0  0  0  0  0  0  0  0  0
   13.6718   -1.1894   22.2140 N   0  0  0  0  0  0  0  0  0  0  0  0
    7.2710   -0.1460   19.8310 N   0  0  0  0  0  0  0  0  0  0  0  0
    7.9658   -4.4385   25.9449 N   0  0  0  0  0  0  0  0  0  0  0  0
    8.0950   -0.7700   20.8440 N   0  0  0  0  0  0  0  0  0  0  0  0
    9.5820   -0.1080   22.7000 N   0  0  0  0  0  0  0  0  0  0  0  0
    9.7829   -4.3044   27.4475 O   0  0  0  0  0  0  0  0  0  0  0  0
    9.2950    1.3000   20.9480 O   0  0  0  0  0  0  0  0  0  0  0  0
    2.9844    2.6927   19.3613 H   0  0  0  0  0  0  0  0  0  0  0  0
    3.6214    2.0680   21.6561 H   0  0  0  0  0  0  0  0  0  0  0  0
    4.3780    2.0103   17.4276 H   0  0  0  0  0  0  0  0  0  0  0  0
    5.6758    0.7336   22.0897 H   0  0  0  0  0  0  0  0  0  0  0  0
    9.5436   -4.5614   23.7799 H   0  0  0  0  0  0  0  0  0  0  0  0
    7.1918   -1.8823   26.1906 H   0  0  0  0  0  0  0  0  0  0  0  0
   10.2676   -2.6754   22.3861 H   0  0  0  0  0  0  0  0  0  0  0  0
    7.8686   -0.0026   24.7598 H   0  0  0  0  0  0  0  0  0  0  0  0
   13.5275    1.0962   24.3387 H   0  0  0  0  0  0  0  0  0  0  0  0
   11.7109   -1.4918   21.4037 H   0  0  0  0  0  0  0  0  0  0  0  0
    8.4213   -0.8245   18.1548 H   0  0  0  0  0  0  0  0  0  0  0  0
    8.3160   -6.8753   27.2760 H   0  0  0  0  0  0  0  0  0  0  0  0
    8.6443   -6.0335   28.7960 H   0  0  0  0  0  0  0  0  0  0  0  0
    6.2215   -6.6983   28.5513 H   0  0  0  0  0  0  0  0  0  0  0  0
    6.4589   -4.9587   28.7491 H   0  0  0  0  0  0  0  0  0  0  0  0
    5.2548   -6.4248   26.5112 H   0  0  0  0  0  0  0  0  0  0  0  0
    5.2035   -4.6957   26.8575 H   0  0  0  0  0  0  0  0  0  0  0  0
    7.2534   -6.2390   25.2146 H   0  0  0  0  0  0  0  0  0  0  0  0
    6.2879   -4.8231   24.7574 H   0  0  0  0  0  0  0  0  0  0  0  0
   14.8042   -1.7062   20.5702 H   0  0  0  0  0  0  0  0  0  0  0  0
   15.2588   -2.5303   22.1002 H   0  0  0  0  0  0  0  0  0  0  0  0
   13.7788   -3.0220   21.2384 H   0  0  0  0  0  0  0  0  0  0  0  0
   10.5675    0.8349   24.3198 H   0  0  0  0  0  0  0  0  0  0  0  0
   10.6960    1.7285   22.8043 H   0  0  0  0  0  0  0  0  0  0  0  0
    8.0897   -1.6082   21.0890 H   0  0  0  0  0  0  0  0  0  0  0  0
  1  2  1  0  0  0  0
  1  3  2  0  0  0  0
  2  4  2  0  0  0  0
  3 13  1  0  0  0  0
  4 14  1  0  0  0  0
  5  7  2  0  0  0  0
  5 15  1  0  0  0  0
  6  8  1  0  0  0  0
  6 15  2  0  0  0  0
  7 16  1  0  0  0  0
  8 16  2  0  0  0  0
  9 12  1  0  0  0  0
  9 25  2  0  0  0  0
 10 12  2  0  0  0  0
 10 27  1  0  0  0  0
 11 26  2  0  0  0  0
 11 28  1  0  0  0  0
 12 24  1  0  0  0  0
 13 14  2  0  0  0  0
 13 26  1  0  0  0  0
 14 28  1  0  0  0  0
 15 29  1  0  0  0  0
 16 31  1  0  0  0  0
 17 19  1  0  0  0  0
 17 29  1  0  0  0  0
 17 32  2  0  0  0  0
 18 30  1  0  0  0  0
 18 31  1  0  0  0  0
 18 33  2  0  0  0  0
 19 20  1  0  0  0  0
 20 21  1  0  0  0  0
 21 22  1  0  0  0  0
 22 29  1  0  0  0  0
 23 27  1  0  0  0  0
 24 31  1  0  0  0  0
 25 27  1  0  0  0  0
 28 30  1  0  0  0  0
  1 34  1  0  0  0  0
  2 35  1  0  0  0  0
  3 36  1  0  0  0  0
  4 37  1  0  0  0  0
  5 38  1  0  0  0  0
  6 39  1  0  0  0  0
  7 40  1  0  0  0  0
  8 41  1  0  0  0  0
  9 42  1  0  0  0  0
 10 43  1  0  0  0  0
 11 44  1  0  0  0  0
 19 45  1  0  0  0  0
 19 46  1  0  0  0  0
 20 47  1  0  0  0  0
 20 48  1  0  0  0  0
 21 49  1  0  0  0  0
 21 50  1  0  0  0  0
 22 51  1  0  0  0  0
 22 52  1  0  0  0  0
 23 53  1  0  0  0  0
 23 54  1  0  0  0  0
 23 55  1  0  0  0  0
 24 56  1  0  0  0  0
 24 57  1  0  0  0  0
 30 58  1  0  0  0  0
M  END
> <clash_score>
0

> <docking_score>
-8.929337501525879

> <overlap_score>
0.9922268390655518

$$$$
BENZO_53_1
  -OEChem-08232013523D

 57 61  0     0  0  0  0  0  0999 V2000
   14.3190   -1.6016   23.6379 C   0  0  0  0  0  0  0  0  0  0  0  0
   14.0846   -0.5307   24.5003 C   0  0  0  0  0  0  0  0  0  0  0  0
   13.3887   -1.9157   22.6471 C   0  0  0  0  0  0  0  0  0  0  0  0
    3.8860    2.1050   19.5250 C   0  0  0  0  0  0  0  0  0  0  0  0
    4.2460    1.7520   20.8250 C   0  0  0  0  0  0  0  0  0  0  0  0
   12.9198    0.2260   24.3720 C   0  0  0  0  0  0  0  0  0  0  0  0
   12.2240   -1.1590   22.5188 C   0  0  0  0  0  0  0  0  0  0  0  0
    4.6610    1.7170   18.4380 C   0  0  0  0  0  0  0  0  0  0  0  0
    5.3890    1.0010   21.0690 C   0  0  0  0  0  0  0  0  0  0  0  0
    9.1890   -3.5540   24.0140 C   0  0  0  0  0  0  0  0  0  0  0  0
    7.8700   -2.0610   25.3550 C   0  0  0  0  0  0  0  0  0  0  0  0
    9.5890   -2.4950   23.2210 C   0  0  0  0  0  0  0  0  0  0  0  0
    8.2550   -1.0010   24.5520 C   0  0  0  0  0  0  0  0  0  0  0  0
    7.5840   -0.2700   18.5160 C   0  0  0  0  0  0  0  0  0  0  0  0
   11.9896   -0.0881   23.3812 C   0  0  0  0  0  0  0  0  0  0  0  0
    5.7970    0.9500   18.6730 C   0  0  0  0  0  0  0  0  0  0  0  0
    6.1460    0.6070   19.9750 C   0  0  0  0  0  0  0  0  0  0  0  0
    8.3450   -3.3440   25.0980 C   0  0  0  0  0  0  0  0  0  0  0  0
    9.1280   -1.2090   23.4870 C   0  0  0  0  0  0  0  0  0  0  0  0
    9.0430    0.2380   21.4940 C   0  0  0  0  0  0  0  0  0  0  0  0
    8.9524   -5.2012   26.6600 C   0  0  0  0  0  0  0  0  0  0  0  0
    6.6112   -4.5068   26.4379 C   0  0  0  0  0  0  0  0  0  0  0  0
    8.9037   -4.7845   28.1261 C   0  0  0  0  0  0  0  0  0  0  0  0
    6.6374   -4.1243   27.9184 C   0  0  0  0  0  0  0  0  0  0  0  0
   10.7356    0.7258   23.2427 C   0  0  0  0  0  0  0  0  0  0  0  0
    6.7100    0.3850   17.8100 N   0  0  0  0  0  0  0  0  0  0  0  0
    7.2710   -0.1460   19.8310 N   0  0  0  0  0  0  0  0  0  0  0  0
    7.9775   -4.4014   25.9151 N   0  0  0  0  0  0  0  0  0  0  0  0
    8.0950   -0.7700   20.8440 N   0  0  0  0  0  0  0  0  0  0  0  0
    9.5820   -0.1080   22.7000 N   0  0  0  0  0  0  0  0  0  0  0  0
    9.2950    1.3000   20.9480 O   0  0  0  0  0  0  0  0  0  0  0  0
    7.5729   -4.9391   28.6338 O   0  0  0  0  0  0  0  0  0  0  0  0
   15.2266   -2.1899   23.7370 H   0  0  0  0  0  0  0  0  0  0  0  0
   14.8093   -0.2853   25.2711 H   0  0  0  0  0  0  0  0  0  0  0  0
   13.5715   -2.7487   21.9747 H   0  0  0  0  0  0  0  0  0  0  0  0
    2.9844    2.6927   19.3613 H   0  0  0  0  0  0  0  0  0  0  0  0
    3.6214    2.0680   21.6561 H   0  0  0  0  0  0  0  0  0  0  0  0
   12.7455    1.0586   25.0486 H   0  0  0  0  0  0  0  0  0  0  0  0
   11.5048   -1.4112   21.7440 H   0  0  0  0  0  0  0  0  0  0  0  0
    4.3780    2.0103   17.4276 H   0  0  0  0  0  0  0  0  0  0  0  0
    5.6758    0.7336   22.0897 H   0  0  0  0  0  0  0  0  0  0  0  0
    9.5426   -4.5618   23.7797 H   0  0  0  0  0  0  0  0  0  0  0  0
    7.1914   -1.8824   26.1903 H   0  0  0  0  0  0  0  0  0  0  0  0
   10.2669   -2.6745   22.3854 H   0  0  0  0  0  0  0  0  0  0  0  0
    7.8690   -0.0020   24.7587 H   0  0  0  0  0  0  0  0  0  0  0  0
    8.4213   -0.8245   18.1548 H   0  0  0  0  0  0  0  0  0  0  0  0
    9.9615   -5.0500   26.2711 H   0  0  0  0  0  0  0  0  0  0  0  0
    8.6935   -6.2597   26.5720 H   0  0  0  0  0  0  0  0  0  0  0  0
    6.2628   -5.5350   26.3330 H   0  0  0  0  0  0  0  0  0  0  0  0
    5.9347   -3.8423   25.9023 H   0  0  0  0  0  0  0  0  0  0  0  0
    9.5597   -5.4275   28.7166 H   0  0  0  0  0  0  0  0  0  0  0  0
    9.2344   -3.7511   28.2636 H   0  0  0  0  0  0  0  0  0  0  0  0
    6.8874   -3.0657   28.0553 H   0  0  0  0  0  0  0  0  0  0  0  0
    5.6495   -4.2893   28.3591 H   0  0  0  0  0  0  0  0  0  0  0  0
   10.4495    1.1613   24.2064 H   0  0  0  0  0  0  0  0  0  0  0  0
   10.8804    1.5545   22.5416 H   0  0  0  0  0  0  0  0  0  0  0  0
    8.0897   -1.6082   21.0890 H   0  0  0  0  0  0  0  0  0  0  0  0
  1  2  1  0  0  0  0
  1  3  2  0  0  0  0
  2  6  2  0  0  0  0
  3  7  1  0  0  0  0
  4  5  1  0  0  0  0
  4  8  2  0  0  0  0
  5  9  2  0  0  0  0
  6 15  1  0  0  0  0
  7 15  2  0  0  0  0
  8 16  1  0  0  0  0
  9 17  1  0  0  0  0
 10 12  2  0  0  0  0
 10 18  1  0  0  0  0
 11 13  1  0  0  0  0
 11 18  2  0  0  0  0
 12 19  1  0  0  0  0
 13 19  2  0  0  0  0
 14 26  2  0  0  0  0
 14 27  1  0  0  0  0
 15 25  1  0  0  0  0
 16 17  2  0  0  0  0
 16 26  1  0  0  0  0
 17 27  1  0  0  0  0
 18 28  1  0  0  0  0
 19 30  1  0  0  0  0
 20 29  1  0  0  0  0
 20 30  1  0  0  0  0
 20 31  2  0  0  0  0
 21 23  1  0  0  0  0
 21 28  1  0  0  0  0
 22 24  1  0  0  0  0
 22 28  1  0  0  0  0
 23 32  1  0  0  0  0
 24 32  1  0  0  0  0
 25 30  1  0  0  0  0
 27 29  1  0  0  0  0
  1 33  1  0  0  0  0
  2 34  1  0  0  0  0
  3 35  1  0  0  0  0
  4 36  1  0  0  0  0
  5 37  1  0  0  0  0
  6 38  1  0  0  0  0
  7 39  1  0  0  0  0
  8 40  1  0  0  0  0
  9 41  1  0  0  0  0
 10 42  1  0  0  0  0
 11 43  1  0  0  0  0
 12 44  1  0  0  0  0
 13 45  1  0  0  0  0
 14 46  1  0  0  0  0
 21 47  1  0  0  0  0
 21 48  1  0  0  0  0
 22 49  1  0  0  0  0
 22 50  1  0  0  0  0
 23 51  1  0  0  0  0
 23 52  1  0  0  0  0
 24 53  1  0  0  0  0
 24 54  1  0  0  0  0
 25 55  1  0  0  0  0
 25 56  1  0  0  0  0
 29 57  1  0  0  0  0
M  END
> <clash_score>
0

> <docking_score>
-10.326261520385742

> <overlap_score>
0.9917935132980347

$$$$
BENZO_50_1
  -OEChem-08232013523D

 58 62  0     0  0  0  0  0  0999 V2000
    3.8860    2.1050   19.5250 C   0  0  0  0  0  0  0  0  0  0  0  0
    4.2460    1.7520   20.8250 C   0  0  0  0  0  0  0  0  0  0  0  0
   13.6913   -1.0131   24.8587 C   0  0  0  0  0  0  0  0  0  0  0  0
   12.5385   -0.2459   24.6909 C   0  0  0  0  0  0  0  0  0  0  0  0
    4.6610    1.7170   18.4380 C   0  0  0  0  0  0  0  0  0  0  0  0
    5.3890    1.0010   21.0690 C   0  0  0  0  0  0  0  0  0  0  0  0
    9.1890   -3.5540   24.0140 C   0  0  0  0  0  0  0  0  0  0  0  0
    7.8700   -2.0610   25.3550 C   0  0  0  0  0  0  0  0  0  0  0  0
    9.5890   -2.4950   23.2210 C   0  0  0  0  0  0  0  0  0  0  0  0
    8.2550   -1.0010   24.5520 C   0  0  0  0  0  0  0  0  0  0  0  0
   14.2828   -1.6333   23.7581 C   0  0  0  0  0  0  0  0  0  0  0  0
   12.5685   -0.7193   22.3219 C   0  0  0  0  0  0  0  0  0  0  0  0
    7.5840   -0.2700   18.5160 C   0  0  0  0  0  0  0  0  0  0  0  0
   11.9771   -0.0990   23.4225 C   0  0  0  0  0  0  0  0  0  0  0  0
    5.7970    0.9500   18.6730 C   0  0  0  0  0  0  0  0  0  0  0  0
    6.1460    0.6070   19.9750 C   0  0  0  0  0  0  0  0  0  0  0  0
    8.3450   -3.3440   25.0980 C   0  0  0  0  0  0  0  0  0  0  0  0
    9.1280   -1.2090   23.4870 C   0  0  0  0  0  0  0  0  0  0  0  0
   13.7213   -1.4864   22.4897 C   0  0  0  0  0  0  0  0  0  0  0  0
    7.2757   -5.5631   25.4492 C   0  0  0  0  0  0  0  0  0  0  0  0
    9.0430    0.2380   21.4940 C   0  0  0  0  0  0  0  0  0  0  0  0
    6.9626   -6.6001   26.5133 C   0  0  0  0  0  0  0  0  0  0  0  0
    6.3765   -5.9422   27.7501 C   0  0  0  0  0  0  0  0  0  0  0  0
    7.2660   -4.8258   28.2881 C   0  0  0  0  0  0  0  0  0  0  0  0
    8.4098   -4.4623   27.3426 C   0  0  0  0  0  0  0  0  0  0  0  0
   10.7356    0.7258   23.2428 C   0  0  0  0  0  0  0  0  0  0  0  0
    6.7100    0.3850   17.8100 N   0  0  0  0  0  0  0  0  0  0  0  0
    7.2710   -0.1460   19.8310 N   0  0  0  0  0  0  0  0  0  0  0  0
    7.9658   -4.4384   25.9449 N   0  0  0  0  0  0  0  0  0  0  0  0
    8.0950   -0.7700   20.8440 N   0  0  0  0  0  0  0  0  0  0  0  0
    9.5820   -0.1080   22.7000 N   0  0  0  0  0  0  0  0  0  0  0  0
    6.9858   -5.7908   24.2753 O   0  0  0  0  0  0  0  0  0  0  0  0
    9.2950    1.3000   20.9480 O   0  0  0  0  0  0  0  0  0  0  0  0
   14.4508   -2.2528   21.1324 Cl  0  0  0  0  0  0  0  0  0  0  0  0
    2.9844    2.6927   19.3613 H   0  0  0  0  0  0  0  0  0  0  0  0
    3.6214    2.0680   21.6561 H   0  0  0  0  0  0  0  0  0  0  0  0
   14.1281   -1.1273   25.8466 H   0  0  0  0  0  0  0  0  0  0  0  0
   12.0844    0.2336   25.5541 H   0  0  0  0  0  0  0  0  0  0  0  0
    4.3780    2.0103   17.4276 H   0  0  0  0  0  0  0  0  0  0  0  0
    5.6758    0.7335   22.0897 H   0  0  0  0  0  0  0  0  0  0  0  0
    9.5436   -4.5614   23.7799 H   0  0  0  0  0  0  0  0  0  0  0  0
    7.1918   -1.8823   26.1906 H   0  0  0  0  0  0  0  0  0  0  0  0
   10.2676   -2.6754   22.3861 H   0  0  0  0  0  0  0  0  0  0  0  0
    7.8686   -0.0026   24.7598 H   0  0  0  0  0  0  0  0  0  0  0  0
   15.1809   -2.2284   23.9039 H   0  0  0  0  0  0  0  0  0  0  0  0
   12.1272   -0.6013   21.3349 H   0  0  0  0  0  0  0  0  0  0  0  0
    8.4213   -0.8245   18.1548 H   0  0  0  0  0  0  0  0  0  0  0  0
    6.2500   -7.3027   26.1097 H   0  0  0  0  0  0  0  0  0  0  0  0
    7.8838   -7.1078   26.7574 H   0  0  0  0  0  0  0  0  0  0  0  0
    5.3690   -5.5364   27.5214 H   0  0  0  0  0  0  0  0  0  0  0  0
    6.2178   -6.7054   28.5384 H   0  0  0  0  0  0  0  0  0  0  0  0
    6.6498   -3.9225   28.4807 H   0  0  0  0  0  0  0  0  0  0  0  0
    7.6764   -5.1138   29.2803 H   0  0  0  0  0  0  0  0  0  0  0  0
    8.7796   -3.4700   27.5826 H   0  0  0  0  0  0  0  0  0  0  0  0
    9.2112   -5.1853   27.4497 H   0  0  0  0  0  0  0  0  0  0  0  0
   10.4038    1.1382   24.2019 H   0  0  0  0  0  0  0  0  0  0  0  0
   10.9193    1.5713   22.5714 H   0  0  0  0  0  0  0  0  0  0  0  0
    8.0897   -1.6082   21.0890 H   0  0  0  0  0  0  0  0  0  0  0  0
  1  2  1  0  0  0  0
  1  5  2  0  0  0  0
  2  6  2  0  0  0  0
  3  4  2  0  0  0  0
  3 11  1  0  0  0  0
  4 14  1  0  0  0  0
  5 15  1  0  0  0  0
  6 16  1  0  0  0  0
  7  9  2  0  0  0  0
  7 17  1  0  0  0  0
  8 10  1  0  0  0  0
  8 17  2  0  0  0  0
  9 18  1  0  0  0  0
 10 18  2  0  0  0  0
 11 19  2  0  0  0  0
 12 14  2  0  0  0  0
 12 19  1  0  0  0  0
 13 27  2  0  0  0  0
 13 28  1  0  0  0  0
 14 26  1  0  0  0  0
 15 16  2  0  0  0  0
 15 27  1  0  0  0  0
 16 28  1  0  0  0  0
 17 29  1  0  0  0  0
 18 31  1  0  0  0  0
 19 34  1  0  0  0  0
 20 22  1  0  0  0  0
 20 29  1  0  0  0  0
 20 32  2  0  0  0  0
 21 30  1  0  0  0  0
 21 31  1  0  0  0  0
 21 33  2  0  0  0  0
 22 23  1  0  0  0  0
 23 24  1  0  0  0  0
 24 25  1  0  0  0  0
 25 29  1  0  0  0  0
 26 31  1  0  0  0  0
 28 30  1  0  0  0  0
  1 35  1  0  0  0  0
  2 36  1  0  0  0  0
  3 37  1  0  0  0  0
  4 38  1  0  0  0  0
  5 39  1  0  0  0  0
  6 40  1  0  0  0  0
  7 41  1  0  0  0  0
  8 42  1  0  0  0  0
  9 43  1  0  0  0  0
 10 44  1  0  0  0  0
 11 45  1  0  0  0  0
 12 46  1  0  0  0  0
 13 47  1  0  0  0  0
 22 48  1  0  0  0  0
 22 49  1  0  0  0  0
 23 50  1  0  0  0  0
 23 51  1  0  0  0  0
 24 52  1  0  0  0  0
 24 53  1  0  0  0  0
 25 54  1  0  0  0  0
 25 55  1  0  0  0  0
 26 56  1  0  0  0  0
 26 57  1  0  0  0  0
 30 58  1  0  0  0  0
M  END
> <clash_score>
0

> <docking_score>
-8.25710678100586

> <overlap_score>
0.9952887296676636

$$$$
BENZO_52_1
  -OEChem-08232013523D

 54 58  0     0  0  0  0  0  0999 V2000
    3.8860    2.1050   19.5250 C   0  0  0  0  0  0  0  0  0  0  0  0
    4.2460    1.7520   20.8250 C   0  0  0  0  0  0  0  0  0  0  0  0
    4.6610    1.7170   18.4380 C   0  0  0  0  0  0  0  0  0  0  0  0
    5.3890    1.0010   21.0690 C   0  0  0  0  0  0  0  0  0  0  0  0
    9.1890   -3.5540   24.0140 C   0  0  0  0  0  0  0  0  0  0  0  0
    7.8700   -2.0610   25.3550 C   0  0  0  0  0  0  0  0  0  0  0  0
    9.5890   -2.4950   23.2210 C   0  0  0  0  0  0  0  0  0  0  0  0
    8.2550   -1.0010   24.5520 C   0  0  0  0  0  0  0  0  0  0  0  0
   12.6952   -0.2580   24.6074 C   0  0  0  0  0  0  0  0  0  0  0  0
   13.8116   -1.0507   24.4563 C   0  0  0  0  0  0  0  0  0  0  0  0
   12.5938   -0.7573   22.3396 C   0  0  0  0  0  0  0  0  0  0  0  0
    7.5840   -0.2700   18.5160 C   0  0  0  0  0  0  0  0  0  0  0  0
   11.9896   -0.0881   23.3812 C   0  0  0  0  0  0  0  0  0  0  0  0
    5.7970    0.9500   18.6730 C   0  0  0  0  0  0  0  0  0  0  0  0
    6.1460    0.6070   19.9750 C   0  0  0  0  0  0  0  0  0  0  0  0
    8.3450   -3.3440   25.0980 C   0  0  0  0  0  0  0  0  0  0  0  0
    9.1280   -1.2090   23.4870 C   0  0  0  0  0  0  0  0  0  0  0  0
    9.0430    0.2380   21.4940 C   0  0  0  0  0  0  0  0  0  0  0  0
    8.9524   -5.2012   26.6600 C   0  0  0  0  0  0  0  0  0  0  0  0
    6.6112   -4.5068   26.4379 C   0  0  0  0  0  0  0  0  0  0  0  0
    8.9037   -4.7845   28.1261 C   0  0  0  0  0  0  0  0  0  0  0  0
    6.6374   -4.1243   27.9184 C   0  0  0  0  0  0  0  0  0  0  0  0
   10.7356    0.7258   23.2427 C   0  0  0  0  0  0  0  0  0  0  0  0
    6.7100    0.3850   17.8100 N   0  0  0  0  0  0  0  0  0  0  0  0
    7.2710   -0.1460   19.8310 N   0  0  0  0  0  0  0  0  0  0  0  0
    7.9775   -4.4014   25.9151 N   0  0  0  0  0  0  0  0  0  0  0  0
    8.0950   -0.7700   20.8440 N   0  0  0  0  0  0  0  0  0  0  0  0
    9.5820   -0.1080   22.7000 N   0  0  0  0  0  0  0  0  0  0  0  0
    9.2950    1.3000   20.9480 O   0  0  0  0  0  0  0  0  0  0  0  0
    7.5729   -4.9391   28.6338 O   0  0  0  0  0  0  0  0  0  0  0  0
   14.0057   -1.5862   22.8414 S   0  0  0  0  0  0  0  0  0  0  0  0
    2.9844    2.6927   19.3613 H   0  0  0  0  0  0  0  0  0  0  0  0
    3.6214    2.0680   21.6561 H   0  0  0  0  0  0  0  0  0  0  0  0
    4.3780    2.0103   17.4276 H   0  0  0  0  0  0  0  0  0  0  0  0
    5.6758    0.7336   22.0897 H   0  0  0  0  0  0  0  0  0  0  0  0
    9.5426   -4.5618   23.7797 H   0  0  0  0  0  0  0  0  0  0  0  0
    7.1914   -1.8824   26.1903 H   0  0  0  0  0  0  0  0  0  0  0  0
   10.2669   -2.6745   22.3854 H   0  0  0  0  0  0  0  0  0  0  0  0
    7.8690   -0.0020   24.7587 H   0  0  0  0  0  0  0  0  0  0  0  0
   12.4025    0.1776   25.5544 H   0  0  0  0  0  0  0  0  0  0  0  0
   14.5230   -1.3403   25.2168 H   0  0  0  0  0  0  0  0  0  0  0  0
   12.2778   -0.8007   21.3065 H   0  0  0  0  0  0  0  0  0  0  0  0
    8.4213   -0.8245   18.1548 H   0  0  0  0  0  0  0  0  0  0  0  0
    9.9615   -5.0500   26.2711 H   0  0  0  0  0  0  0  0  0  0  0  0
    8.6935   -6.2597   26.5720 H   0  0  0  0  0  0  0  0  0  0  0  0
    6.2628   -5.5350   26.3330 H   0  0  0  0  0  0  0  0  0  0  0  0
    5.9347   -3.8423   25.9023 H   0  0  0  0  0  0  0  0  0  0  0  0
    9.5597   -5.4275   28.7166 H   0  0  0  0  0  0  0  0  0  0  0  0
    9.2344   -3.7511   28.2636 H   0  0  0  0  0  0  0  0  0  0  0  0
    6.8874   -3.0657   28.0553 H   0  0  0  0  0  0  0  0  0  0  0  0
    5.6495   -4.2893   28.3591 H   0  0  0  0  0  0  0  0  0  0  0  0
   10.4495    1.1613   24.2064 H   0  0  0  0  0  0  0  0  0  0  0  0
   10.8804    1.5545   22.5416 H   0  0  0  0  0  0  0  0  0  0  0  0
    8.0897   -1.6082   21.0890 H   0  0  0  0  0  0  0  0  0  0  0  0
  1  2  1  0  0  0  0
  1  3  2  0  0  0  0
  2  4  2  0  0  0  0
  3 14  1  0  0  0  0
  4 15  1  0  0  0  0
  5  7  2  0  0  0  0
  5 16  1  0  0  0  0
  6  8  1  0  0  0  0
  6 16  2  0  0  0  0
  7 17  1  0  0  0  0
  8 17  2  0  0  0  0
  9 10  2  0  0  0  0
  9 13  1  0  0  0  0
 10 31  1  0  0  0  0
 11 13  2  0  0  0  0
 11 31  1  0  0  0  0
 12 24  2  0  0  0  0
 12 25  1  0  0  0  0
 13 23  1  0  0  0  0
 14 15  2  0  0  0  0
 14 24  1  0  0  0  0
 15 25  1  0  0  0  0
 16 26  1  0  0  0  0
 17 28  1  0  0  0  0
 18 27  1  0  0  0  0
 18 28  1  0  0  0  0
 18 29  2  0  0  0  0
 19 21  1  0  0  0  0
 19 26  1  0  0  0  0
 20 22  1  0  0  0  0
 20 26  1  0  0  0  0
 21 30  1  0  0  0  0
 22 30  1  0  0  0  0
 23 28  1  0  0  0  0
 25 27  1  0  0  0  0
  1 32  1  0  0  0  0
  2 33  1  0  0  0  0
  3 34  1  0  0  0  0
  4 35  1  0  0  0  0
  5 36  1  0  0  0  0
  6 37  1  0  0  0  0
  7 38  1  0  0  0  0
  8 39  1  0  0  0  0
  9 40  1  0  0  0  0
 10 41  1  0  0  0  0
 11 42  1  0  0  0  0
 12 43  1  0  0  0  0
 19 44  1  0  0  0  0
 19 45  1  0  0  0  0
 20 46  1  0  0  0  0
 20 47  1  0  0  0  0
 21 48  1  0  0  0  0
 21 49  1  0  0  0  0
 22 50  1  0  0  0  0
 22 51  1  0  0  0  0
 23 52  1  0  0  0  0
 23 53  1  0  0  0  0
 27 54  1  0  0  0  0
M  END
> <clash_score>
0

> <docking_score>
-10.055126190185547

> <overlap_score>
0.9774639010429382

$$$$
BENZO_56_1
  -OEChem-08232013523D

 49 52  0     0  0  0  0  0  0999 V2000
    4.2460    1.7520   20.8250 C   0  0  0  0  0  0  0  0  0  0  0  0
    3.8860    2.1050   19.5250 C   0  0  0  0  0  0  0  0  0  0  0  0
    5.3890    1.0010   21.0690 C   0  0  0  0  0  0  0  0  0  0  0  0
    4.6610    1.7170   18.4380 C   0  0  0  0  0  0  0  0  0  0  0  0
    9.5890   -2.4950   23.2210 C   0  0  0  0  0  0  0  0  0  0  0  0
    8.2550   -1.0010   24.5520 C   0  0  0  0  0  0  0  0  0  0  0  0
    9.1890   -3.5540   24.0140 C   0  0  0  0  0  0  0  0  0  0  0  0
    7.8700   -2.0610   25.3550 C   0  0  0  0  0  0  0  0  0  0  0  0
   12.4944   -0.2233   24.8652 C   0  0  0  0  0  0  0  0  0  0  0  0
   13.6434   -0.9817   24.8184 C   0  0  0  0  0  0  0  0  0  0  0  0
   12.6457   -0.6780   22.5908 C   0  0  0  0  0  0  0  0  0  0  0  0
    6.1460    0.6070   19.9750 C   0  0  0  0  0  0  0  0  0  0  0  0
   11.9163   -0.0475   23.5748 C   0  0  0  0  0  0  0  0  0  0  0  0
    5.7970    0.9500   18.6730 C   0  0  0  0  0  0  0  0  0  0  0  0
    9.1280   -1.2090   23.4870 C   0  0  0  0  0  0  0  0  0  0  0  0
    8.3450   -3.3440   25.0980 C   0  0  0  0  0  0  0  0  0  0  0  0
    7.2710   -0.1460   19.8310 C   0  0  0  0  0  0  0  0  0  0  0  0
    9.0430    0.2380   21.4940 C   0  0  0  0  0  0  0  0  0  0  0  0
    7.2639   -5.5576   25.3810 C   0  0  0  0  0  0  0  0  0  0  0  0
    8.3071   -4.4046   27.3383 C   0  0  0  0  0  0  0  0  0  0  0  0
   10.6602    0.7344   23.3196 C   0  0  0  0  0  0  0  0  0  0  0  0
    7.5840   -0.2700   18.5160 N   0  0  0  0  0  0  0  0  0  0  0  0
    6.7100    0.3850   17.8100 N   0  0  0  0  0  0  0  0  0  0  0  0
    8.0950   -0.7700   20.8440 N   0  0  0  0  0  0  0  0  0  0  0  0
    9.5820   -0.1080   22.7000 N   0  0  0  0  0  0  0  0  0  0  0  0
    7.9731   -4.4180   25.9279 N   0  0  0  0  0  0  0  0  0  0  0  0
    9.2950    1.3000   20.9480 O   0  0  0  0  0  0  0  0  0  0  0  0
   14.0211   -1.4780   23.2236 S   0  0  0  0  0  0  0  0  0  0  0  0
    3.6223    2.0725   21.6574 H   0  0  0  0  0  0  0  0  0  0  0  0
    2.9864    2.6933   19.3609 H   0  0  0  0  0  0  0  0  0  0  0  0
    5.6689    0.7392   22.0836 H   0  0  0  0  0  0  0  0  0  0  0  0
    4.3807    2.0116   17.4186 H   0  0  0  0  0  0  0  0  0  0  0  0
   10.2682   -2.6746   22.3864 H   0  0  0  0  0  0  0  0  0  0  0  0
    7.8692   -0.0022   24.7600 H   0  0  0  0  0  0  0  0  0  0  0  0
    9.5433   -4.5619   23.7809 H   0  0  0  0  0  0  0  0  0  0  0  0
    7.1923   -1.8829   26.1908 H   0  0  0  0  0  0  0  0  0  0  0  0
   12.0914    0.1843   25.7837 H   0  0  0  0  0  0  0  0  0  0  0  0
   14.2795   -1.2674   25.6442 H   0  0  0  0  0  0  0  0  0  0  0  0
   12.4410   -0.7086   21.5296 H   0  0  0  0  0  0  0  0  0  0  0  0
    7.0647   -6.2850   26.1818 H   0  0  0  0  0  0  0  0  0  0  0  0
    6.3112   -5.2219   24.9455 H   0  0  0  0  0  0  0  0  0  0  0  0
    7.8774   -6.0309   24.6002 H   0  0  0  0  0  0  0  0  0  0  0  0
    7.9340   -5.3242   27.8127 H   0  0  0  0  0  0  0  0  0  0  0  0
    9.3994   -4.3487   27.4557 H   0  0  0  0  0  0  0  0  0  0  0  0
    7.8416   -3.5304   27.8169 H   0  0  0  0  0  0  0  0  0  0  0  0
   10.2621    1.1417   24.2554 H   0  0  0  0  0  0  0  0  0  0  0  0
   10.8530    1.5810   22.6524 H   0  0  0  0  0  0  0  0  0  0  0  0
    6.7486    0.4313   16.8331 H   0  0  0  0  0  0  0  0  0  0  0  0
    8.0733   -1.6163   21.0749 H   0  0  0  0  0  0  0  0  0  0  0  0
  1  2  1  0  0  0  0
  1  3  2  0  0  0  0
  2  4  2  0  0  0  0
  3 12  1  0  0  0  0
  4 14  1  0  0  0  0
  5  7  2  0  0  0  0
  5 15  1  0  0  0  0
  6  8  1  0  0  0  0
  6 15  2  0  0  0  0
  7 16  1  0  0  0  0
  8 16  2  0  0  0  0
  9 10  2  0  0  0  0
  9 13  1  0  0  0  0
 10 28  1  0  0  0  0
 11 13  2  0  0  0  0
 11 28  1  0  0  0  0
 12 14  2  0  0  0  0
 12 17  1  0  0  0  0
 13 21  1  0  0  0  0
 14 23  1  0  0  0  0
 15 25  1  0  0  0  0
 16 26  1  0  0  0  0
 17 22  2  0  0  0  0
 17 24  1  0  0  0  0
 18 24  1  0  0  0  0
 18 25  1  0  0  0  0
 18 27  2  0  0  0  0
 19 26  1  0  0  0  0
 20 26  1  0  0  0  0
 21 25  1  0  0  0  0
 22 23  1  0  0  0  0
  1 29  1  0  0  0  0
  2 30  1  0  0  0  0
  3 31  1  0  0  0  0
  4 32  1  0  0  0  0
  5 33  1  0  0  0  0
  6 34  1  0  0  0  0
  7 35  1  0  0  0  0
  8 36  1  0  0  0  0
  9 37  1  0  0  0  0
 10 38  1  0  0  0  0
 11 39  1  0  0  0  0
 19 40  1  0  0  0  0
 19 41  1  0  0  0  0
 19 42  1  0  0  0  0
 20 43  1  0  0  0  0
 20 44  1  0  0  0  0
 20 45  1  0  0  0  0
 21 46  1  0  0  0  0
 21 47  1  0  0  0  0
 23 48  1  0  0  0  0
 24 49  1  0  0  0  0
M  END
> <clash_score>
0

> <docking_score>
-7.625360488891602

> <overlap_score>
0.9222311973571777

$$$$
BENZO_57_1
  -OEChem-08232013523D

 52 55  0     0  0  0  0  0  0999 V2000
   14.2497   -1.5013   24.0483 C   0  0  0  0  0  0  0  0  0  0  0  0
    4.2460    1.7520   20.8250 C   0  0  0  0  0  0  0  0  0  0  0  0
   13.9177   -0.4271   24.8737 C   0  0  0  0  0  0  0  0  0  0  0  0
   13.4150   -1.8486   22.9860 C   0  0  0  0  0  0  0  0  0  0  0  0
    3.8860    2.1050   19.5250 C   0  0  0  0  0  0  0  0  0  0  0  0
    5.3890    1.0010   21.0690 C   0  0  0  0  0  0  0  0  0  0  0  0
   12.7510    0.2998   24.6370 C   0  0  0  0  0  0  0  0  0  0  0  0
   12.2483   -1.1217   22.7493 C   0  0  0  0  0  0  0  0  0  0  0  0
    4.6610    1.7170   18.4380 C   0  0  0  0  0  0  0  0  0  0  0  0
    9.5890   -2.4950   23.2210 C   0  0  0  0  0  0  0  0  0  0  0  0
    8.2550   -1.0010   24.5520 C   0  0  0  0  0  0  0  0  0  0  0  0
    9.1890   -3.5540   24.0140 C   0  0  0  0  0  0  0  0  0  0  0  0
    7.8700   -2.0610   25.3550 C   0  0  0  0  0  0  0  0  0  0  0  0
    6.1460    0.6070   19.9750 C   0  0  0  0  0  0  0  0  0  0  0  0
   11.9163   -0.0475   23.5748 C   0  0  0  0  0  0  0  0  0  0  0  0
    5.7970    0.9500   18.6730 C   0  0  0  0  0  0  0  0  0  0  0  0
    9.1280   -1.2090   23.4870 C   0  0  0  0  0  0  0  0  0  0  0  0
    8.3450   -3.3440   25.0980 C   0  0  0  0  0  0  0  0  0  0  0  0
    7.2710   -0.1460   19.8310 C   0  0  0  0  0  0  0  0  0  0  0  0
    9.0430    0.2380   21.4940 C   0  0  0  0  0  0  0  0  0  0  0  0
    7.2639   -5.5576   25.3810 C   0  0  0  0  0  0  0  0  0  0  0  0
    8.3071   -4.4046   27.3383 C   0  0  0  0  0  0  0  0  0  0  0  0
   10.6602    0.7344   23.3196 C   0  0  0  0  0  0  0  0  0  0  0  0
    7.5840   -0.2700   18.5160 N   0  0  0  0  0  0  0  0  0  0  0  0
    6.7100    0.3850   17.8100 N   0  0  0  0  0  0  0  0  0  0  0  0
    8.0950   -0.7700   20.8440 N   0  0  0  0  0  0  0  0  0  0  0  0
    9.5820   -0.1080   22.7000 N   0  0  0  0  0  0  0  0  0  0  0  0
    7.9731   -4.4180   25.9279 N   0  0  0  0  0  0  0  0  0  0  0  0
    9.2950    1.3000   20.9480 O   0  0  0  0  0  0  0  0  0  0  0  0
   15.1589   -2.0664   24.2319 H   0  0  0  0  0  0  0  0  0  0  0  0
    3.6223    2.0725   21.6574 H   0  0  0  0  0  0  0  0  0  0  0  0
   14.5681   -0.1559   25.7002 H   0  0  0  0  0  0  0  0  0  0  0  0
   13.6737   -2.6842   22.3425 H   0  0  0  0  0  0  0  0  0  0  0  0
    2.9864    2.6933   19.3609 H   0  0  0  0  0  0  0  0  0  0  0  0
    5.6689    0.7392   22.0836 H   0  0  0  0  0  0  0  0  0  0  0  0
   12.5003    1.1352   25.2855 H   0  0  0  0  0  0  0  0  0  0  0  0
   11.6039   -1.3996   21.9194 H   0  0  0  0  0  0  0  0  0  0  0  0
    4.3807    2.0116   17.4186 H   0  0  0  0  0  0  0  0  0  0  0  0
   10.2682   -2.6746   22.3864 H   0  0  0  0  0  0  0  0  0  0  0  0
    7.8692   -0.0022   24.7600 H   0  0  0  0  0  0  0  0  0  0  0  0
    9.5433   -4.5619   23.7809 H   0  0  0  0  0  0  0  0  0  0  0  0
    7.1923   -1.8829   26.1908 H   0  0  0  0  0  0  0  0  0  0  0  0
    7.0647   -6.2850   26.1818 H   0  0  0  0  0  0  0  0  0  0  0  0
    6.3112   -5.2219   24.9455 H   0  0  0  0  0  0  0  0  0  0  0  0
    7.8774   -6.0309   24.6002 H   0  0  0  0  0  0  0  0  0  0  0  0
    7.9340   -5.3242   27.8127 H   0  0  0  0  0  0  0  0  0  0  0  0
    9.3994   -4.3487   27.4557 H   0  0  0  0  0  0  0  0  0  0  0  0
    7.8416   -3.5304   27.8169 H   0  0  0  0  0  0  0  0  0  0  0  0
   10.2621    1.1417   24.2554 H   0  0  0  0  0  0  0  0  0  0  0  0
   10.8530    1.5810   22.6524 H   0  0  0  0  0  0  0  0  0  0  0  0
    6.7486    0.4313   16.8331 H   0  0  0  0  0  0  0  0  0  0  0  0
    8.0733   -1.6163   21.0749 H   0  0  0  0  0  0  0  0  0  0  0  0
  1  3  1  0  0  0  0
  1  4  2  0  0  0  0
  2  5  1  0  0  0  0
  2  6  2  0  0  0  0
  3  7  2  0  0  0  0
  4  8  1  0  0  0  0
  5  9  2  0  0  0  0
  6 14  1  0  0  0  0
  7 15  1  0  0  0  0
  8 15  2  0  0  0  0
  9 16  1  0  0  0  0
 10 12  2  0  0  0  0
 10 17  1  0  0  0  0
 11 13  1  0  0  0  0
 11 17  2  0  0  0  0
 12 18  1  0  0  0  0
 13 18  2  0  0  0  0
 14 16  2  0  0  0  0
 14 19  1  0  0  0  0
 15 23  1  0  0  0  0
 16 25  1  0  0  0  0
 17 27  1  0  0  0  0
 18 28  1  0  0  0  0
 19 24  2  0  0  0  0
 19 26  1  0  0  0  0
 20 26  1  0  0  0  0
 20 27  1  0  0  0  0
 20 29  2  0  0  0  0
 21 28  1  0  0  0  0
 22 28  1  0  0  0  0
 23 27  1  0  0  0  0
 24 25  1  0  0  0  0
  1 30  1  0  0  0  0
  2 31  1  0  0  0  0
  3 32  1  0  0  0  0
  4 33  1  0  0  0  0
  5 34  1  0  0  0  0
  6 35  1  0  0  0  0
  7 36  1  0  0  0  0
  8 37  1  0  0  0  0
  9 38  1  0  0  0  0
 10 39  1  0  0  0  0
 11 40  1  0  0  0  0
 12 41  1  0  0  0  0
 13 42  1  0  0  0  0
 21 43  1  0  0  0  0
 21 44  1  0  0  0  0
 21 45  1  0  0  0  0
 22 46  1  0  0  0  0
 22 47  1  0  0  0  0
 22 48  1  0  0  0  0
 23 49  1  0  0  0  0
 23 50  1  0  0  0  0
 25 51  1  0  0  0  0
 26 52  1  0  0  0  0
M  END
> <clash_score>
0

> <docking_score>
-7.797369003295898

> <overlap_score>
0.9372555017471313

$$$$
BENZO_54_1
  -OEChem-08232013523D

 57 61  0     0  0  0  0  0  0999 V2000
    3.8860    2.1050   19.5250 C   0  0  0  0  0  0  0  0  0  0  0  0
    4.2460    1.7520   20.8250 C   0  0  0  0  0  0  0  0  0  0  0  0
   13.7788   -0.9563   24.7529 C   0  0  0  0  0  0  0  0  0  0  0  0
   12.6144   -0.1994   24.6233 C   0  0  0  0  0  0  0  0  0  0  0  0
    4.6610    1.7170   18.4380 C   0  0  0  0  0  0  0  0  0  0  0  0
    5.3890    1.0010   21.0690 C   0  0  0  0  0  0  0  0  0  0  0  0
    9.1890   -3.5540   24.0140 C   0  0  0  0  0  0  0  0  0  0  0  0
    7.8700   -2.0610   25.3550 C   0  0  0  0  0  0  0  0  0  0  0  0
    9.5890   -2.4950   23.2210 C   0  0  0  0  0  0  0  0  0  0  0  0
    8.2550   -1.0010   24.5520 C   0  0  0  0  0  0  0  0  0  0  0  0
   14.3184   -1.6020   23.6404 C   0  0  0  0  0  0  0  0  0  0  0  0
   12.5291   -0.7338   22.2687 C   0  0  0  0  0  0  0  0  0  0  0  0
    7.5840   -0.2700   18.5160 C   0  0  0  0  0  0  0  0  0  0  0  0
   11.9896   -0.0881   23.3812 C   0  0  0  0  0  0  0  0  0  0  0  0
    5.7970    0.9500   18.6730 C   0  0  0  0  0  0  0  0  0  0  0  0
    6.1460    0.6070   19.9750 C   0  0  0  0  0  0  0  0  0  0  0  0
    8.3450   -3.3440   25.0980 C   0  0  0  0  0  0  0  0  0  0  0  0
    9.1280   -1.2090   23.4870 C   0  0  0  0  0  0  0  0  0  0  0  0
   13.6935   -1.4907   22.3983 C   0  0  0  0  0  0  0  0  0  0  0  0
    9.0430    0.2380   21.4940 C   0  0  0  0  0  0  0  0  0  0  0  0
    8.9524   -5.2012   26.6600 C   0  0  0  0  0  0  0  0  0  0  0  0
    6.6112   -4.5068   26.4379 C   0  0  0  0  0  0  0  0  0  0  0  0
    8.9037   -4.7845   28.1261 C   0  0  0  0  0  0  0  0  0  0  0  0
    6.6374   -4.1243   27.9184 C   0  0  0  0  0  0  0  0  0  0  0  0
   10.7356    0.7258   23.2427 C   0  0  0  0  0  0  0  0  0  0  0  0
    6.7100    0.3850   17.8100 N   0  0  0  0  0  0  0  0  0  0  0  0
    7.2710   -0.1460   19.8310 N   0  0  0  0  0  0  0  0  0  0  0  0
    7.9775   -4.4014   25.9151 N   0  0  0  0  0  0  0  0  0  0  0  0
    8.0950   -0.7700   20.8440 N   0  0  0  0  0  0  0  0  0  0  0  0
    9.5820   -0.1080   22.7000 N   0  0  0  0  0  0  0  0  0  0  0  0
    9.2950    1.3000   20.9480 O   0  0  0  0  0  0  0  0  0  0  0  0
    7.5729   -4.9391   28.6338 O   0  0  0  0  0  0  0  0  0  0  0  0
   14.3591   -2.2885   21.0263 Cl  0  0  0  0  0  0  0  0  0  0  0  0
    2.9844    2.6927   19.3613 H   0  0  0  0  0  0  0  0  0  0  0  0
    3.6214    2.0680   21.6561 H   0  0  0  0  0  0  0  0  0  0  0  0
   14.2650   -1.0428   25.7204 H   0  0  0  0  0  0  0  0  0  0  0  0
   12.2010    0.3002   25.4956 H   0  0  0  0  0  0  0  0  0  0  0  0
    4.3780    2.0103   17.4276 H   0  0  0  0  0  0  0  0  0  0  0  0
    5.6758    0.7336   22.0897 H   0  0  0  0  0  0  0  0  0  0  0  0
    9.5426   -4.5618   23.7797 H   0  0  0  0  0  0  0  0  0  0  0  0
    7.1914   -1.8824   26.1903 H   0  0  0  0  0  0  0  0  0  0  0  0
   10.2669   -2.6745   22.3854 H   0  0  0  0  0  0  0  0  0  0  0  0
    7.8690   -0.0020   24.7587 H   0  0  0  0  0  0  0  0  0  0  0  0
   15.2263   -2.1888   23.7563 H   0  0  0  0  0  0  0  0  0  0  0  0
   12.0384   -0.6435   21.3023 H   0  0  0  0  0  0  0  0  0  0  0  0
    8.4213   -0.8245   18.1548 H   0  0  0  0  0  0  0  0  0  0  0  0
    9.9615   -5.0500   26.2711 H   0  0  0  0  0  0  0  0  0  0  0  0
    8.6935   -6.2597   26.5720 H   0  0  0  0  0  0  0  0  0  0  0  0
    6.2628   -5.5350   26.3330 H   0  0  0  0  0  0  0  0  0  0  0  0
    5.9347   -3.8423   25.9023 H   0  0  0  0  0  0  0  0  0  0  0  0
    9.5597   -5.4275   28.7166 H   0  0  0  0  0  0  0  0  0  0  0  0
    9.2344   -3.7511   28.2636 H   0  0  0  0  0  0  0  0  0  0  0  0
    6.8874   -3.0657   28.0553 H   0  0  0  0  0  0  0  0  0  0  0  0
    5.6495   -4.2893   28.3591 H   0  0  0  0  0  0  0  0  0  0  0  0
   10.4495    1.1613   24.2064 H   0  0  0  0  0  0  0  0  0  0  0  0
   10.8804    1.5545   22.5416 H   0  0  0  0  0  0  0  0  0  0  0  0
    8.0897   -1.6082   21.0890 H   0  0  0  0  0  0  0  0  0  0  0  0
  1  2  1  0  0  0  0
  1  5  2  0  0  0  0
  2  6  2  0  0  0  0
  3  4  2  0  0  0  0
  3 11  1  0  0  0  0
  4 14  1  0  0  0  0
  5 15  1  0  0  0  0
  6 16  1  0  0  0  0
  7  9  2  0  0  0  0
  7 17  1  0  0  0  0
  8 10  1  0  0  0  0
  8 17  2  0  0  0  0
  9 18  1  0  0  0  0
 10 18  2  0  0  0  0
 11 19  2  0  0  0  0
 12 14  2  0  0  0  0
 12 19  1  0  0  0  0
 13 26  2  0  0  0  0
 13 27  1  0  0  0  0
 14 25  1  0  0  0  0
 15 16  2  0  0  0  0
 15 26  1  0  0  0  0
 16 27  1  0  0  0  0
 17 28  1  0  0  0  0
 18 30  1  0  0  0  0
 19 33  1  0  0  0  0
 20 29  1  0  0  0  0
 20 30  1  0  0  0  0
 20 31  2  0  0  0  0
 21 23  1  0  0  0  0
 21 28  1  0  0  0  0
 22 24  1  0  0  0  0
 22 28  1  0  0  0  0
 23 32  1  0  0  0  0
 24 32  1  0  0  0  0
 25 30  1  0  0  0  0
 27 29  1  0  0  0  0
  1 34  1  0  0  0  0
  2 35  1  0  0  0  0
  3 36  1  0  0  0  0
  4 37  1  0  0  0  0
  5 38  1  0  0  0  0
  6 39  1  0  0  0  0
  7 40  1  0  0  0  0
  8 41  1  0  0  0  0
  9 42  1  0  0  0  0
 10 43  1  0  0  0  0
 11 44  1  0  0  0  0
 12 45  1  0  0  0  0
 13 46  1  0  0  0  0
 21 47  1  0  0  0  0
 21 48  1  0  0  0  0
 22 49  1  0  0  0  0
 22 50  1  0  0  0  0
 23 51  1  0  0  0  0
 23 52  1  0  0  0  0
 24 53  1  0  0  0  0
 24 54  1  0  0  0  0
 25 55  1  0  0  0  0
 25 56  1  0  0  0  0
 29 57  1  0  0  0  0
M  END
> <clash_score>
0

> <docking_score>
-9.478090286254883

> <overlap_score>
0.9999510049819946

$$$$
BENZO_55_1
  -OEChem-08232013523D

 57 61  0     0  0  0  0  0  0999 V2000
    3.8860    2.1050   19.5250 C   0  0  0  0  0  0  0  0  0  0  0  0
    4.2460    1.7520   20.8250 C   0  0  0  0  0  0  0  0  0  0  0  0
    4.6610    1.7170   18.4380 C   0  0  0  0  0  0  0  0  0  0  0  0
    5.3890    1.0010   21.0690 C   0  0  0  0  0  0  0  0  0  0  0  0
    9.1890   -3.5540   24.0140 C   0  0  0  0  0  0  0  0  0  0  0  0
    7.8700   -2.0610   25.3550 C   0  0  0  0  0  0  0  0  0  0  0  0
    9.5890   -2.4950   23.2210 C   0  0  0  0  0  0  0  0  0  0  0  0
    8.2550   -1.0010   24.5520 C   0  0  0  0  0  0  0  0  0  0  0  0
   13.3211    0.4279   23.4799 C   0  0  0  0  0  0  0  0  0  0  0  0
   12.3254   -0.9364   22.0719 C   0  0  0  0  0  0  0  0  0  0  0  0
    7.5840   -0.2700   18.5160 C   0  0  0  0  0  0  0  0  0  0  0  0
   12.0643    0.0962   22.9392 C   0  0  0  0  0  0  0  0  0  0  0  0
    5.7970    0.9500   18.6730 C   0  0  0  0  0  0  0  0  0  0  0  0
    6.1460    0.6070   19.9750 C   0  0  0  0  0  0  0  0  0  0  0  0
    8.3450   -3.3440   25.0980 C   0  0  0  0  0  0  0  0  0  0  0  0
    9.1280   -1.2090   23.4870 C   0  0  0  0  0  0  0  0  0  0  0  0
    9.0430    0.2380   21.4940 C   0  0  0  0  0  0  0  0  0  0  0  0
    8.9524   -5.2012   26.6600 C   0  0  0  0  0  0  0  0  0  0  0  0
    6.6112   -4.5068   26.4379 C   0  0  0  0  0  0  0  0  0  0  0  0
    8.9037   -4.7845   28.1261 C   0  0  0  0  0  0  0  0  0  0  0  0
    6.6374   -4.1243   27.9184 C   0  0  0  0  0  0  0  0  0  0  0  0
   14.4185   -2.1435   21.4082 C   0  0  0  0  0  0  0  0  0  0  0  0
   10.7356    0.7258   23.2427 C   0  0  0  0  0  0  0  0  0  0  0  0
   14.3072   -0.3324   22.9967 N   0  0  0  0  0  0  0  0  0  0  0  0
    6.7100    0.3850   17.8100 N   0  0  0  0  0  0  0  0  0  0  0  0
   13.6702   -1.1522   22.1433 N   0  0  0  0  0  0  0  0  0  0  0  0
    7.2710   -0.1460   19.8310 N   0  0  0  0  0  0  0  0  0  0  0  0
    7.9775   -4.4014   25.9151 N   0  0  0  0  0  0  0  0  0  0  0  0
    8.0950   -0.7700   20.8440 N   0  0  0  0  0  0  0  0  0  0  0  0
    9.5820   -0.1080   22.7000 N   0  0  0  0  0  0  0  0  0  0  0  0
    9.2950    1.3000   20.9480 O   0  0  0  0  0  0  0  0  0  0  0  0
    7.5729   -4.9391   28.6338 O   0  0  0  0  0  0  0  0  0  0  0  0
    2.9844    2.6927   19.3613 H   0  0  0  0  0  0  0  0  0  0  0  0
    3.6214    2.0680   21.6561 H   0  0  0  0  0  0  0  0  0  0  0  0
    4.3780    2.0103   17.4276 H   0  0  0  0  0  0  0  0  0  0  0  0
    5.6758    0.7336   22.0897 H   0  0  0  0  0  0  0  0  0  0  0  0
    9.5426   -4.5618   23.7797 H   0  0  0  0  0  0  0  0  0  0  0  0
    7.1914   -1.8824   26.1903 H   0  0  0  0  0  0  0  0  0  0  0  0
   10.2669   -2.6745   22.3854 H   0  0  0  0  0  0  0  0  0  0  0  0
    7.8690   -0.0020   24.7587 H   0  0  0  0  0  0  0  0  0  0  0  0
   13.5618    1.1909   24.2066 H   0  0  0  0  0  0  0  0  0  0  0  0
   11.6845   -1.5223   21.4271 H   0  0  0  0  0  0  0  0  0  0  0  0
    8.4213   -0.8245   18.1548 H   0  0  0  0  0  0  0  0  0  0  0  0
    9.9615   -5.0500   26.2711 H   0  0  0  0  0  0  0  0  0  0  0  0
    8.6935   -6.2597   26.5720 H   0  0  0  0  0  0  0  0  0  0  0  0
    6.2628   -5.5350   26.3330 H   0  0  0  0  0  0  0  0  0  0  0  0
    5.9347   -3.8423   25.9023 H   0  0  0  0  0  0  0  0  0  0  0  0
    9.5597   -5.4275   28.7166 H   0  0  0  0  0  0  0  0  0  0  0  0
    9.2344   -3.7511   28.2636 H   0  0  0  0  0  0  0  0  0  0  0  0
    6.8874   -3.0657   28.0553 H   0  0  0  0  0  0  0  0  0  0  0  0
    5.6495   -4.2893   28.3591 H   0  0  0  0  0  0  0  0  0  0  0  0
   14.7439   -1.6914   20.4676 H   0  0  0  0  0  0  0  0  0  0  0  0
   15.2824   -2.4598   21.9994 H   0  0  0  0  0  0  0  0  0  0  0  0
   13.7793   -3.0098   21.2163 H   0  0  0  0  0  0  0  0  0  0  0  0
   10.6108    0.8626   24.3225 H   0  0  0  0  0  0  0  0  0  0  0  0
   10.6537    1.7141   22.7781 H   0  0  0  0  0  0  0  0  0  0  0  0
    8.0897   -1.6082   21.0890 H   0  0  0  0  0  0  0  0  0  0  0  0
  1  2  1  0  0  0  0
  1  3  2  0  0  0  0
  2  4  2  0  0  0  0
  3 13  1  0  0  0  0
  4 14  1  0  0  0  0
  5  7  2  0  0  0  0
  5 15  1  0  0  0  0
  6  8  1  0  0  0  0
  6 15  2  0  0  0  0
  7 16  1  0  0  0  0
  8 16  2  0  0  0  0
  9 12  1  0  0  0  0
  9 24  2  0  0  0  0
 10 12  2  0  0  0  0
 10 26  1  0  0  0  0
 11 25  2  0  0  0  0
 11 27  1  0  0  0  0
 12 23  1  0  0  0  0
 13 14  2  0  0  0  0
 13 25  1  0  0  0  0
 14 27  1  0  0  0  0
 15 28  1  0  0  0  0
 16 30  1  0  0  0  0
 17 29  1  0  0  0  0
 17 30  1  0  0  0  0
 17 31  2  0  0  0  0
 18 20  1  0  0  0  0
 18 28  1  0  0  0  0
 19 21  1  0  0  0  0
 19 28  1  0  0  0  0
 20 32  1  0  0  0  0
 21 32  1  0  0  0  0
 22 26  1  0  0  0  0
 23 30  1  0  0  0  0
 24 26  1  0  0  0  0
 27 29  1  0  0  0  0
  1 33  1  0  0  0  0
  2 34  1  0  0  0  0
  3 35  1  0  0  0  0
  4 36  1  0  0  0  0
  5 37  1  0  0  0  0
  6 38  1  0  0  0  0
  7 39  1  0  0  0  0
  8 40  1  0  0  0  0
  9 41  1  0  0  0  0
 10 42  1  0  0  0  0
 11 43  1  0  0  0  0
 18 44  1  0  0  0  0
 18 45  1  0  0  0  0
 19 46  1  0  0  0  0
 19 47  1  0  0  0  0
 20 48  1  0  0  0  0
 20 49  1  0  0  0  0
 21 50  1  0  0  0  0
 21 51  1  0  0  0  0
 22 52  1  0  0  0  0
 22 53  1  0  0  0  0
 22 54  1  0  0  0  0
 23 55  1  0  0  0  0
 23 56  1  0  0  0  0
 29 57  1  0  0  0  0
M  END
> <clash_score>
0

> <docking_score>
-10.199087142944336

> <overlap_score>
0.971368670463562

$$$$
BENZO_59_1
  -OEChem-08232013523D

 52 55  0     0  0  0  0  0  0999 V2000
    4.2460    1.7520   20.8250 C   0  0  0  0  0  0  0  0  0  0  0  0
    3.8860    2.1050   19.5250 C   0  0  0  0  0  0  0  0  0  0  0  0
    5.3890    1.0010   21.0690 C   0  0  0  0  0  0  0  0  0  0  0  0
    4.6610    1.7170   18.4380 C   0  0  0  0  0  0  0  0  0  0  0  0
    9.5890   -2.4950   23.2210 C   0  0  0  0  0  0  0  0  0  0  0  0
    8.2550   -1.0010   24.5520 C   0  0  0  0  0  0  0  0  0  0  0  0
    9.1890   -3.5540   24.0140 C   0  0  0  0  0  0  0  0  0  0  0  0
    7.8700   -2.0610   25.3550 C   0  0  0  0  0  0  0  0  0  0  0  0
   13.2125    0.4715   23.8159 C   0  0  0  0  0  0  0  0  0  0  0  0
   12.3922   -0.8730   22.2815 C   0  0  0  0  0  0  0  0  0  0  0  0
    6.1460    0.6070   19.9750 C   0  0  0  0  0  0  0  0  0  0  0  0
   12.0244    0.1335   23.1407 C   0  0  0  0  0  0  0  0  0  0  0  0
    5.7970    0.9500   18.6730 C   0  0  0  0  0  0  0  0  0  0  0  0
    9.1280   -1.2090   23.4870 C   0  0  0  0  0  0  0  0  0  0  0  0
    8.3450   -3.3440   25.0980 C   0  0  0  0  0  0  0  0  0  0  0  0
    7.2710   -0.1460   19.8310 C   0  0  0  0  0  0  0  0  0  0  0  0
    9.0430    0.2380   21.4940 C   0  0  0  0  0  0  0  0  0  0  0  0
   14.5642   -2.0301   21.8101 C   0  0  0  0  0  0  0  0  0  0  0  0
    7.2639   -5.5576   25.3810 C   0  0  0  0  0  0  0  0  0  0  0  0
    8.3071   -4.4046   27.3383 C   0  0  0  0  0  0  0  0  0  0  0  0
   10.6602    0.7344   23.3196 C   0  0  0  0  0  0  0  0  0  0  0  0
   14.2569   -0.2609   23.4199 N   0  0  0  0  0  0  0  0  0  0  0  0
    7.5840   -0.2700   18.5160 N   0  0  0  0  0  0  0  0  0  0  0  0
    6.7100    0.3850   17.8100 N   0  0  0  0  0  0  0  0  0  0  0  0
   13.7262   -1.0692   22.4865 N   0  0  0  0  0  0  0  0  0  0  0  0
    8.0950   -0.7700   20.8440 N   0  0  0  0  0  0  0  0  0  0  0  0
    9.5820   -0.1080   22.7000 N   0  0  0  0  0  0  0  0  0  0  0  0
    7.9731   -4.4180   25.9279 N   0  0  0  0  0  0  0  0  0  0  0  0
    9.2950    1.3000   20.9480 O   0  0  0  0  0  0  0  0  0  0  0  0
    3.6223    2.0725   21.6574 H   0  0  0  0  0  0  0  0  0  0  0  0
    2.9864    2.6933   19.3609 H   0  0  0  0  0  0  0  0  0  0  0  0
    5.6689    0.7392   22.0836 H   0  0  0  0  0  0  0  0  0  0  0  0
    4.3807    2.0116   17.4186 H   0  0  0  0  0  0  0  0  0  0  0  0
   10.2682   -2.6746   22.3864 H   0  0  0  0  0  0  0  0  0  0  0  0
    7.8692   -0.0022   24.7600 H   0  0  0  0  0  0  0  0  0  0  0  0
    9.5433   -4.5619   23.7809 H   0  0  0  0  0  0  0  0  0  0  0  0
    7.1923   -1.8829   26.1908 H   0  0  0  0  0  0  0  0  0  0  0  0
   13.3631    1.2199   24.5810 H   0  0  0  0  0  0  0  0  0  0  0  0
   11.8319   -1.4527   21.5604 H   0  0  0  0  0  0  0  0  0  0  0  0
   14.9765   -1.5497   20.9189 H   0  0  0  0  0  0  0  0  0  0  0  0
   15.3682   -2.3473   22.4800 H   0  0  0  0  0  0  0  0  0  0  0  0
   13.9641   -2.9013   21.5332 H   0  0  0  0  0  0  0  0  0  0  0  0
    7.0647   -6.2850   26.1818 H   0  0  0  0  0  0  0  0  0  0  0  0
    6.3112   -5.2219   24.9455 H   0  0  0  0  0  0  0  0  0  0  0  0
    7.8774   -6.0309   24.6002 H   0  0  0  0  0  0  0  0  0  0  0  0
    7.9340   -5.3242   27.8127 H   0  0  0  0  0  0  0  0  0  0  0  0
    9.3994   -4.3487   27.4557 H   0  0  0  0  0  0  0  0  0  0  0  0
    7.8416   -3.5304   27.8169 H   0  0  0  0  0  0  0  0  0  0  0  0
   10.4223    0.8423   24.3835 H   0  0  0  0  0  0  0  0  0  0  0  0
   10.6086    1.7324   22.8720 H   0  0  0  0  0  0  0  0  0  0  0  0
    6.7486    0.4313   16.8331 H   0  0  0  0  0  0  0  0  0  0  0  0
    8.0733   -1.6163   21.0749 H   0  0  0  0  0  0  0  0  0  0  0  0
  1  2  1  0  0  0  0
  1  3  2  0  0  0  0
  2  4  2  0  0  0  0
  3 11  1  0  0  0  0
  4 13  1  0  0  0  0
  5  7  2  0  0  0  0
  5 14  1  0  0  0  0
  6  8  1  0  0  0  0
  6 14  2  0  0  0  0
  7 15  1  0  0  0  0
  8 15  2  0  0  0  0
  9 12  1  0  0  0  0
  9 22  2  0  0  0  0
 10 12  2  0  0  0  0
 10 25  1  0  0  0  0
 11 13  2  0  0  0  0
 11 16  1  0  0  0  0
 12 21  1  0  0  0  0
 13 24  1  0  0  0  0
 14 27  1  0  0  0  0
 15 28  1  0  0  0  0
 16 23  2  0  0  0  0
 16 26  1  0  0  0  0
 17 26  1  0  0  0  0
 17 27  1  0  0  0  0
 17 29  2  0  0  0  0
 18 25  1  0  0  0  0
 19 28  1  0  0  0  0
 20 28  1  0  0  0  0
 21 27  1  0  0  0  0
 22 25  1  0  0  0  0
 23 24  1  0  0  0  0
  1 30  1  0  0  0  0
  2 31  1  0  0  0  0
  3 32  1  0  0  0  0
  4 33  1  0  0  0  0
  5 34  1  0  0  0  0
  6 35  1  0  0  0  0
  7 36  1  0  0  0  0
  8 37  1  0  0  0  0
  9 38  1  0  0  0  0
 10 39  1  0  0  0  0
 18 40  1  0  0  0  0
 18 41  1  0  0  0  0
 18 42  1  0  0  0  0
 19 43  1  0  0  0  0
 19 44  1  0  0  0  0
 19 45  1  0  0  0  0
 20 46  1  0  0  0  0
 20 47  1  0  0  0  0
 20 48  1  0  0  0  0
 21 49  1  0  0  0  0
 21 50  1  0  0  0  0
 24 51  1  0  0  0  0
 26 52  1  0  0  0  0
M  END
> <clash_score>
0

> <docking_score>
-8.043173789978027

> <overlap_score>
0.9321770071983337

$$$$
BENZO_58_1
  -OEChem-08232013523D

 52 55  0     0  0  0  0  0  0999 V2000
    4.2460    1.7520   20.8250 C   0  0  0  0  0  0  0  0  0  0  0  0
    3.8860    2.1050   19.5250 C   0  0  0  0  0  0  0  0  0  0  0  0
   13.5770   -0.8944   25.1115 C   0  0  0  0  0  0  0  0  0  0  0  0
    5.3890    1.0010   21.0690 C   0  0  0  0  0  0  0  0  0  0  0  0
   12.4107   -0.1673   24.8736 C   0  0  0  0  0  0  0  0  0  0  0  0
    4.6610    1.7170   18.4380 C   0  0  0  0  0  0  0  0  0  0  0  0
    9.5890   -2.4950   23.2210 C   0  0  0  0  0  0  0  0  0  0  0  0
    8.2550   -1.0010   24.5520 C   0  0  0  0  0  0  0  0  0  0  0  0
    9.1890   -3.5540   24.0140 C   0  0  0  0  0  0  0  0  0  0  0  0
    7.8700   -2.0610   25.3550 C   0  0  0  0  0  0  0  0  0  0  0  0
   14.2489   -1.5018   24.0507 C   0  0  0  0  0  0  0  0  0  0  0  0
   12.5881   -0.6548   22.5139 C   0  0  0  0  0  0  0  0  0  0  0  0
    6.1460    0.6070   19.9750 C   0  0  0  0  0  0  0  0  0  0  0  0
   11.9163   -0.0475   23.5748 C   0  0  0  0  0  0  0  0  0  0  0  0
    5.7970    0.9500   18.6730 C   0  0  0  0  0  0  0  0  0  0  0  0
    9.1280   -1.2090   23.4870 C   0  0  0  0  0  0  0  0  0  0  0  0
    8.3450   -3.3440   25.0980 C   0  0  0  0  0  0  0  0  0  0  0  0
   13.7544   -1.3820   22.7519 C   0  0  0  0  0  0  0  0  0  0  0  0
    7.2710   -0.1460   19.8310 C   0  0  0  0  0  0  0  0  0  0  0  0
    9.0430    0.2380   21.4940 C   0  0  0  0  0  0  0  0  0  0  0  0
    7.2639   -5.5576   25.3810 C   0  0  0  0  0  0  0  0  0  0  0  0
    8.3071   -4.4046   27.3383 C   0  0  0  0  0  0  0  0  0  0  0  0
   10.6602    0.7344   23.3196 C   0  0  0  0  0  0  0  0  0  0  0  0
    7.5840   -0.2700   18.5160 N   0  0  0  0  0  0  0  0  0  0  0  0
    6.7100    0.3850   17.8100 N   0  0  0  0  0  0  0  0  0  0  0  0
    8.0950   -0.7700   20.8440 N   0  0  0  0  0  0  0  0  0  0  0  0
    9.5820   -0.1080   22.7000 N   0  0  0  0  0  0  0  0  0  0  0  0
    7.9731   -4.4180   25.9279 N   0  0  0  0  0  0  0  0  0  0  0  0
    9.2950    1.3000   20.9480 O   0  0  0  0  0  0  0  0  0  0  0  0
   14.5832   -2.1325   21.4436 Cl  0  0  0  0  0  0  0  0  0  0  0  0
    3.6223    2.0725   21.6574 H   0  0  0  0  0  0  0  0  0  0  0  0
    2.9864    2.6933   19.3609 H   0  0  0  0  0  0  0  0  0  0  0  0
   13.9616   -0.9876   26.1231 H   0  0  0  0  0  0  0  0  0  0  0  0
    5.6689    0.7392   22.0836 H   0  0  0  0  0  0  0  0  0  0  0  0
   11.8937    0.3025   25.7062 H   0  0  0  0  0  0  0  0  0  0  0  0
    4.3807    2.0116   17.4186 H   0  0  0  0  0  0  0  0  0  0  0  0
   10.2682   -2.6746   22.3864 H   0  0  0  0  0  0  0  0  0  0  0  0
    7.8692   -0.0022   24.7600 H   0  0  0  0  0  0  0  0  0  0  0  0
    9.5433   -4.5619   23.7809 H   0  0  0  0  0  0  0  0  0  0  0  0
    7.1923   -1.8829   26.1908 H   0  0  0  0  0  0  0  0  0  0  0  0
   15.1566   -2.0657   24.2510 H   0  0  0  0  0  0  0  0  0  0  0  0
   12.1988   -0.5581   21.5031 H   0  0  0  0  0  0  0  0  0  0  0  0
    7.0647   -6.2850   26.1818 H   0  0  0  0  0  0  0  0  0  0  0  0
    6.3112   -5.2219   24.9455 H   0  0  0  0  0  0  0  0  0  0  0  0
    7.8774   -6.0309   24.6002 H   0  0  0  0  0  0  0  0  0  0  0  0
    7.9340   -5.3242   27.8127 H   0  0  0  0  0  0  0  0  0  0  0  0
    9.3994   -4.3487   27.4557 H   0  0  0  0  0  0  0  0  0  0  0  0
    7.8416   -3.5304   27.8169 H   0  0  0  0  0  0  0  0  0  0  0  0
   10.2621    1.1417   24.2554 H   0  0  0  0  0  0  0  0  0  0  0  0
   10.8530    1.5810   22.6524 H   0  0  0  0  0  0  0  0  0  0  0  0
    6.7486    0.4313   16.8331 H   0  0  0  0  0  0  0  0  0  0  0  0
    8.0733   -1.6163   21.0749 H   0  0  0  0  0  0  0  0  0  0  0  0
  1  2  1  0  0  0  0
  1  4  2  0  0  0  0
  2  6  2  0  0  0  0
  3  5  2  0  0  0  0
  3 11  1  0  0  0  0
  4 13  1  0  0  0  0
  5 14  1  0  0  0  0
  6 15  1  0  0  0  0
  7  9  2  0  0  0  0
  7 16  1  0  0  0  0
  8 10  1  0  0  0  0
  8 16  2  0  0  0  0
  9 17  1  0  0  0  0
 10 17  2  0  0  0  0
 11 18  2  0  0  0  0
 12 14  2  0  0  0  0
 12 18  1  0  0  0  0
 13 15  2  0  0  0  0
 13 19  1  0  0  0  0
 14 23  1  0  0  0  0
 15 25  1  0  0  0  0
 16 27  1  0  0  0  0
 17 28  1  0  0  0  0
 18 30  1  0  0  0  0
 19 24  2  0  0  0  0
 19 26  1  0  0  0  0
 20 26  1  0  0  0  0
 20 27  1  0  0  0  0
 20 29  2  0  0  0  0
 21 28  1  0  0  0  0
 22 28  1  0  0  0  0
 23 27  1  0  0  0  0
 24 25  1  0  0  0  0
  1 31  1  0  0  0  0
  2 32  1  0  0  0  0
  3 33  1  0  0  0  0
  4 34  1  0  0  0  0
  5 35  1  0  0  0  0
  6 36  1  0  0  0  0
  7 37  1  0  0  0  0
  8 38  1  0  0  0  0
  9 39  1  0  0  0  0
 10 40  1  0  0  0  0
 11 41  1  0  0  0  0
 12 42  1  0  0  0  0
 21 43  1  0  0  0  0
 21 44  1  0  0  0  0
 21 45  1  0  0  0  0
 22 46  1  0  0  0  0
 22 47  1  0  0  0  0
 22 48  1  0  0  0  0
 23 49  1  0  0  0  0
 23 50  1  0  0  0  0
 25 51  1  0  0  0  0
 26 52  1  0  0  0  0
M  END
> <clash_score>
0

> <docking_score>
-7.037546157836914

> <overlap_score>
0.9472070932388306

$$$$
BENZO_61_1
  -OEChem-08232013523D

 54 57  0     0  0  0  0  0  0999 V2000
   14.2497   -1.5013   24.0483 C   0  0  0  0  0  0  0  0  0  0  0  0
    4.2460    1.7520   20.8250 C   0  0  0  0  0  0  0  0  0  0  0  0
   13.9177   -0.4271   24.8737 C   0  0  0  0  0  0  0  0  0  0  0  0
   13.4150   -1.8486   22.9860 C   0  0  0  0  0  0  0  0  0  0  0  0
    3.8860    2.1050   19.5250 C   0  0  0  0  0  0  0  0  0  0  0  0
    5.3890    1.0010   21.0690 C   0  0  0  0  0  0  0  0  0  0  0  0
   12.7510    0.2998   24.6370 C   0  0  0  0  0  0  0  0  0  0  0  0
   12.2483   -1.1217   22.7493 C   0  0  0  0  0  0  0  0  0  0  0  0
    4.6610    1.7170   18.4380 C   0  0  0  0  0  0  0  0  0  0  0  0
    9.1890   -3.5540   24.0140 C   0  0  0  0  0  0  0  0  0  0  0  0
    7.8700   -2.0610   25.3550 C   0  0  0  0  0  0  0  0  0  0  0  0
    9.5890   -2.4950   23.2210 C   0  0  0  0  0  0  0  0  0  0  0  0
    8.2550   -1.0010   24.5520 C   0  0  0  0  0  0  0  0  0  0  0  0
    6.1460    0.6070   19.9750 C   0  0  0  0  0  0  0  0  0  0  0  0
   11.9163   -0.0475   23.5748 C   0  0  0  0  0  0  0  0  0  0  0  0
    5.7970    0.9500   18.6730 C   0  0  0  0  0  0  0  0  0  0  0  0
    8.3450   -3.3440   25.0980 C   0  0  0  0  0  0  0  0  0  0  0  0
    9.1280   -1.2090   23.4870 C   0  0  0  0  0  0  0  0  0  0  0  0
    7.2710   -0.1460   19.8310 C   0  0  0  0  0  0  0  0  0  0  0  0
    7.6593   -4.3766   27.2872 C   0  0  0  0  0  0  0  0  0  0  0  0
    9.0430    0.2380   21.4940 C   0  0  0  0  0  0  0  0  0  0  0  0
    8.4366   -6.7645   27.6024 C   0  0  0  0  0  0  0  0  0  0  0  0
   10.6602    0.7344   23.3196 C   0  0  0  0  0  0  0  0  0  0  0  0
    7.3105   -5.7658   27.8003 C   0  0  0  0  0  0  0  0  0  0  0  0
    7.5840   -0.2700   18.5160 N   0  0  0  0  0  0  0  0  0  0  0  0
    6.7100    0.3850   17.8100 N   0  0  0  0  0  0  0  0  0  0  0  0
    7.9771   -4.4058   25.9196 N   0  0  0  0  0  0  0  0  0  0  0  0
    8.0950   -0.7700   20.8440 N   0  0  0  0  0  0  0  0  0  0  0  0
    9.5820   -0.1080   22.7000 N   0  0  0  0  0  0  0  0  0  0  0  0
    7.6481   -3.3915   28.0178 O   0  0  0  0  0  0  0  0  0  0  0  0
    9.2950    1.3000   20.9480 O   0  0  0  0  0  0  0  0  0  0  0  0
   15.1589   -2.0664   24.2319 H   0  0  0  0  0  0  0  0  0  0  0  0
    3.6223    2.0725   21.6574 H   0  0  0  0  0  0  0  0  0  0  0  0
   14.5681   -0.1559   25.7002 H   0  0  0  0  0  0  0  0  0  0  0  0
   13.6737   -2.6842   22.3425 H   0  0  0  0  0  0  0  0  0  0  0  0
    2.9864    2.6933   19.3609 H   0  0  0  0  0  0  0  0  0  0  0  0
    5.6689    0.7392   22.0836 H   0  0  0  0  0  0  0  0  0  0  0  0
   12.5003    1.1352   25.2855 H   0  0  0  0  0  0  0  0  0  0  0  0
   11.6039   -1.3996   21.9194 H   0  0  0  0  0  0  0  0  0  0  0  0
    4.3807    2.0116   17.4186 H   0  0  0  0  0  0  0  0  0  0  0  0
    9.5436   -4.5614   23.7799 H   0  0  0  0  0  0  0  0  0  0  0  0
    7.1918   -1.8823   26.1906 H   0  0  0  0  0  0  0  0  0  0  0  0
   10.2676   -2.6754   22.3861 H   0  0  0  0  0  0  0  0  0  0  0  0
    7.8686   -0.0026   24.7598 H   0  0  0  0  0  0  0  0  0  0  0  0
    8.6973   -6.8585   26.5430 H   0  0  0  0  0  0  0  0  0  0  0  0
    8.1398   -7.7515   27.9703 H   0  0  0  0  0  0  0  0  0  0  0  0
    9.3368   -6.4544   28.1432 H   0  0  0  0  0  0  0  0  0  0  0  0
   10.2621    1.1417   24.2554 H   0  0  0  0  0  0  0  0  0  0  0  0
   10.8530    1.5810   22.6524 H   0  0  0  0  0  0  0  0  0  0  0  0
    7.0709   -5.6921   28.8674 H   0  0  0  0  0  0  0  0  0  0  0  0
    6.4147   -6.1158   27.2745 H   0  0  0  0  0  0  0  0  0  0  0  0
    6.7486    0.4313   16.8331 H   0  0  0  0  0  0  0  0  0  0  0  0
    7.9296   -5.3298   25.4747 H   0  0  0  0  0  0  0  0  0  0  0  0
    8.0733   -1.6163   21.0749 H   0  0  0  0  0  0  0  0  0  0  0  0
  1  3  1  0  0  0  0
  1  4  2  0  0  0  0
  2  5  1  0  0  0  0
  2  6  2  0  0  0  0
  3  7  2  0  0  0  0
  4  8  1  0  0  0  0
  5  9  2  0  0  0  0
  6 14  1  0  0  0  0
  7 15  1  0  0  0  0
  8 15  2  0  0  0  0
  9 16  1  0  0  0  0
 10 12  2  0  0  0  0
 10 17  1  0  0  0  0
 11 13  1  0  0  0  0
 11 17  2  0  0  0  0
 12 18  1  0  0  0  0
 13 18  2  0  0  0  0
 14 16  2  0  0  0  0
 14 19  1  0  0  0  0
 15 23  1  0  0  0  0
 16 26  1  0  0  0  0
 17 27  1  0  0  0  0
 18 29  1  0  0  0  0
 19 25  2  0  0  0  0
 19 28  1  0  0  0  0
 20 24  1  0  0  0  0
 20 27  1  0  0  0  0
 20 30  2  0  0  0  0
 21 28  1  0  0  0  0
 21 29  1  0  0  0  0
 21 31  2  0  0  0  0
 22 24  1  0  0  0  0
 23 29  1  0  0  0  0
 25 26  1  0  0  0  0
  1 32  1  0  0  0  0
  2 33  1  0  0  0  0
  3 34  1  0  0  0  0
  4 35  1  0  0  0  0
  5 36  1  0  0  0  0
  6 37  1  0  0  0  0
  7 38  1  0  0  0  0
  8 39  1  0  0  0  0
  9 40  1  0  0  0  0
 10 41  1  0  0  0  0
 11 42  1  0  0  0  0
 12 43  1  0  0  0  0
 13 44  1  0  0  0  0
 22 45  1  0  0  0  0
 22 46  1  0  0  0  0
 22 47  1  0  0  0  0
 23 48  1  0  0  0  0
 23 49  1  0  0  0  0
 24 50  1  0  0  0  0
 24 51  1  0  0  0  0
 26 52  1  0  0  0  0
 27 53  1  0  0  0  0
 28 54  1  0  0  0  0
M  END
> <clash_score>
0

> <docking_score>
-7.56373405456543

> <overlap_score>
0.9763336777687073

$$$$
BENZO_60_1
  -OEChem-08232013523D

 51 54  0     0  0  0  0  0  0999 V2000
    4.2460    1.7520   20.8250 C   0  0  0  0  0  0  0  0  0  0  0  0
    3.8860    2.1050   19.5250 C   0  0  0  0  0  0  0  0  0  0  0  0
    5.3890    1.0010   21.0690 C   0  0  0  0  0  0  0  0  0  0  0  0
    4.6610    1.7170   18.4380 C   0  0  0  0  0  0  0  0  0  0  0  0
    9.1890   -3.5540   24.0140 C   0  0  0  0  0  0  0  0  0  0  0  0
    7.8700   -2.0610   25.3550 C   0  0  0  0  0  0  0  0  0  0  0  0
    9.5890   -2.4950   23.2210 C   0  0  0  0  0  0  0  0  0  0  0  0
    8.2550   -1.0010   24.5520 C   0  0  0  0  0  0  0  0  0  0  0  0
   12.4944   -0.2233   24.8652 C   0  0  0  0  0  0  0  0  0  0  0  0
   13.6434   -0.9817   24.8184 C   0  0  0  0  0  0  0  0  0  0  0  0
   12.6457   -0.6780   22.5908 C   0  0  0  0  0  0  0  0  0  0  0  0
    6.1460    0.6070   19.9750 C   0  0  0  0  0  0  0  0  0  0  0  0
   11.9163   -0.0475   23.5748 C   0  0  0  0  0  0  0  0  0  0  0  0
    5.7970    0.9500   18.6730 C   0  0  0  0  0  0  0  0  0  0  0  0
    8.3450   -3.3440   25.0980 C   0  0  0  0  0  0  0  0  0  0  0  0
    9.1280   -1.2090   23.4870 C   0  0  0  0  0  0  0  0  0  0  0  0
    7.2710   -0.1460   19.8310 C   0  0  0  0  0  0  0  0  0  0  0  0
    8.2013   -4.5562   27.2977 C   0  0  0  0  0  0  0  0  0  0  0  0
    9.0430    0.2380   21.4940 C   0  0  0  0  0  0  0  0  0  0  0  0
    7.8866   -6.0877   29.2880 C   0  0  0  0  0  0  0  0  0  0  0  0
   10.6602    0.7344   23.3196 C   0  0  0  0  0  0  0  0  0  0  0  0
    7.6334   -5.8728   27.8066 C   0  0  0  0  0  0  0  0  0  0  0  0
    7.5840   -0.2700   18.5160 N   0  0  0  0  0  0  0  0  0  0  0  0
    6.7100    0.3850   17.8100 N   0  0  0  0  0  0  0  0  0  0  0  0
    7.9771   -4.4058   25.9196 N   0  0  0  0  0  0  0  0  0  0  0  0
    8.0950   -0.7700   20.8440 N   0  0  0  0  0  0  0  0  0  0  0  0
    9.5820   -0.1080   22.7000 N   0  0  0  0  0  0  0  0  0  0  0  0
    8.7722   -3.7639   28.0399 O   0  0  0  0  0  0  0  0  0  0  0  0
    9.2950    1.3000   20.9480 O   0  0  0  0  0  0  0  0  0  0  0  0
   14.0211   -1.4780   23.2236 S   0  0  0  0  0  0  0  0  0  0  0  0
    3.6223    2.0725   21.6574 H   0  0  0  0  0  0  0  0  0  0  0  0
    2.9864    2.6933   19.3609 H   0  0  0  0  0  0  0  0  0  0  0  0
    5.6689    0.7392   22.0836 H   0  0  0  0  0  0  0  0  0  0  0  0
    4.3807    2.0116   17.4186 H   0  0  0  0  0  0  0  0  0  0  0  0
    9.5436   -4.5614   23.7799 H   0  0  0  0  0  0  0  0  0  0  0  0
    7.1918   -1.8823   26.1906 H   0  0  0  0  0  0  0  0  0  0  0  0
   10.2676   -2.6754   22.3861 H   0  0  0  0  0  0  0  0  0  0  0  0
    7.8686   -0.0026   24.7598 H   0  0  0  0  0  0  0  0  0  0  0  0
   12.0914    0.1843   25.7837 H   0  0  0  0  0  0  0  0  0  0  0  0
   14.2795   -1.2674   25.6442 H   0  0  0  0  0  0  0  0  0  0  0  0
   12.4410   -0.7086   21.5296 H   0  0  0  0  0  0  0  0  0  0  0  0
    8.9592   -6.0823   29.5085 H   0  0  0  0  0  0  0  0  0  0  0  0
    7.4764   -7.0502   29.6091 H   0  0  0  0  0  0  0  0  0  0  0  0
    7.4171   -5.2994   29.8855 H   0  0  0  0  0  0  0  0  0  0  0  0
   10.2621    1.1417   24.2554 H   0  0  0  0  0  0  0  0  0  0  0  0
   10.8530    1.5810   22.6524 H   0  0  0  0  0  0  0  0  0  0  0  0
    6.5542   -5.8829   27.6152 H   0  0  0  0  0  0  0  0  0  0  0  0
    8.0873   -6.6910   27.2357 H   0  0  0  0  0  0  0  0  0  0  0  0
    6.7486    0.4313   16.8331 H   0  0  0  0  0  0  0  0  0  0  0  0
    7.4775   -5.1797   25.4662 H   0  0  0  0  0  0  0  0  0  0  0  0
    8.0733   -1.6163   21.0749 H   0  0  0  0  0  0  0  0  0  0  0  0
  1  2  1  0  0  0  0
  1  3  2  0  0  0  0
  2  4  2  0  0  0  0
  3 12  1  0  0  0  0
  4 14  1  0  0  0  0
  5  7  2  0  0  0  0
  5 15  1  0  0  0  0
  6  8  1  0  0  0  0
  6 15  2  0  0  0  0
  7 16  1  0  0  0  0
  8 16  2  0  0  0  0
  9 10  2  0  0  0  0
  9 13  1  0  0  0  0
 10 30  1  0  0  0  0
 11 13  2  0  0  0  0
 11 30  1  0  0  0  0
 12 14  2  0  0  0  0
 12 17  1  0  0  0  0
 13 21  1  0  0  0  0
 14 24  1  0  0  0  0
 15 25  1  0  0  0  0
 16 27  1  0  0  0  0
 17 23  2  0  0  0  0
 17 26  1  0  0  0  0
 18 22  1  0  0  0  0
 18 25  1  0  0  0  0
 18 28  2  0  0  0  0
 19 26  1  0  0  0  0
 19 27  1  0  0  0  0
 19 29  2  0  0  0  0
 20 22  1  0  0  0  0
 21 27  1  0  0  0  0
 23 24  1  0  0  0  0
  1 31  1  0  0  0  0
  2 32  1  0  0  0  0
  3 33  1  0  0  0  0
  4 34  1  0  0  0  0
  5 35  1  0  0  0  0
  6 36  1  0  0  0  0
  7 37  1  0  0  0  0
  8 38  1  0  0  0  0
  9 39  1  0  0  0  0
 10 40  1  0  0  0  0
 11 41  1  0  0  0  0
 20 42  1  0  0  0  0
 20 43  1  0  0  0  0
 20 44  1  0  0  0  0
 21 45  1  0  0  0  0
 21 46  1  0  0  0  0
 22 47  1  0  0  0  0
 22 48  1  0  0  0  0
 24 49  1  0  0  0  0
 25 50  1  0  0  0  0
 26 51  1  0  0  0  0
M  END
> <clash_score>
0

> <docking_score>
-7.904912948608398

> <overlap_score>
0.9786600470542908

$$$$
BENZO_63_1
  -OEChem-08232013523D

 54 57  0     0  0  0  0  0  0999 V2000
    4.2460    1.7520   20.8250 C   0  0  0  0  0  0  0  0  0  0  0  0
    3.8860    2.1050   19.5250 C   0  0  0  0  0  0  0  0  0  0  0  0
    5.3890    1.0010   21.0690 C   0  0  0  0  0  0  0  0  0  0  0  0
    4.6610    1.7170   18.4380 C   0  0  0  0  0  0  0  0  0  0  0  0
    9.1890   -3.5540   24.0140 C   0  0  0  0  0  0  0  0  0  0  0  0
    7.8700   -2.0610   25.3550 C   0  0  0  0  0  0  0  0  0  0  0  0
    9.5890   -2.4950   23.2210 C   0  0  0  0  0  0  0  0  0  0  0  0
    8.2550   -1.0010   24.5520 C   0  0  0  0  0  0  0  0  0  0  0  0
   13.2125    0.4715   23.8159 C   0  0  0  0  0  0  0  0  0  0  0  0
   12.3922   -0.8730   22.2815 C   0  0  0  0  0  0  0  0  0  0  0  0
    6.1460    0.6070   19.9750 C   0  0  0  0  0  0  0  0  0  0  0  0
   12.0244    0.1335   23.1407 C   0  0  0  0  0  0  0  0  0  0  0  0
    5.7970    0.9500   18.6730 C   0  0  0  0  0  0  0  0  0  0  0  0
    8.3450   -3.3440   25.0980 C   0  0  0  0  0  0  0  0  0  0  0  0
    9.1280   -1.2090   23.4870 C   0  0  0  0  0  0  0  0  0  0  0  0
    7.2710   -0.1460   19.8310 C   0  0  0  0  0  0  0  0  0  0  0  0
    7.6593   -4.3766   27.2872 C   0  0  0  0  0  0  0  0  0  0  0  0
    9.0430    0.2380   21.4940 C   0  0  0  0  0  0  0  0  0  0  0  0
    8.4366   -6.7645   27.6024 C   0  0  0  0  0  0  0  0  0  0  0  0
   14.5642   -2.0301   21.8101 C   0  0  0  0  0  0  0  0  0  0  0  0
   10.6602    0.7344   23.3196 C   0  0  0  0  0  0  0  0  0  0  0  0
    7.3105   -5.7658   27.8003 C   0  0  0  0  0  0  0  0  0  0  0  0
   14.2569   -0.2609   23.4199 N   0  0  0  0  0  0  0  0  0  0  0  0
    7.5840   -0.2700   18.5160 N   0  0  0  0  0  0  0  0  0  0  0  0
    6.7100    0.3850   17.8100 N   0  0  0  0  0  0  0  0  0  0  0  0
   13.7262   -1.0692   22.4865 N   0  0  0  0  0  0  0  0  0  0  0  0
    7.9771   -4.4058   25.9196 N   0  0  0  0  0  0  0  0  0  0  0  0
    8.0950   -0.7700   20.8440 N   0  0  0  0  0  0  0  0  0  0  0  0
    9.5820   -0.1080   22.7000 N   0  0  0  0  0  0  0  0  0  0  0  0
    7.6481   -3.3915   28.0178 O   0  0  0  0  0  0  0  0  0  0  0  0
    9.2950    1.3000   20.9480 O   0  0  0  0  0  0  0  0  0  0  0  0
    3.6223    2.0725   21.6574 H   0  0  0  0  0  0  0  0  0  0  0  0
    2.9864    2.6933   19.3609 H   0  0  0  0  0  0  0  0  0  0  0  0
    5.6689    0.7392   22.0836 H   0  0  0  0  0  0  0  0  0  0  0  0
    4.3807    2.0116   17.4186 H   0  0  0  0  0  0  0  0  0  0  0  0
    9.5436   -4.5614   23.7799 H   0  0  0  0  0  0  0  0  0  0  0  0
    7.1918   -1.8823   26.1906 H   0  0  0  0  0  0  0  0  0  0  0  0
   10.2676   -2.6754   22.3861 H   0  0  0  0  0  0  0  0  0  0  0  0
    7.8686   -0.0026   24.7598 H   0  0  0  0  0  0  0  0  0  0  0  0
   13.3631    1.2199   24.5810 H   0  0  0  0  0  0  0  0  0  0  0  0
   11.8319   -1.4527   21.5604 H   0  0  0  0  0  0  0  0  0  0  0  0
    8.6973   -6.8585   26.5430 H   0  0  0  0  0  0  0  0  0  0  0  0
    8.1398   -7.7515   27.9703 H   0  0  0  0  0  0  0  0  0  0  0  0
    9.3368   -6.4544   28.1432 H   0  0  0  0  0  0  0  0  0  0  0  0
   14.9765   -1.5497   20.9189 H   0  0  0  0  0  0  0  0  0  0  0  0
   15.3682   -2.3473   22.4800 H   0  0  0  0  0  0  0  0  0  0  0  0
   13.9641   -2.9013   21.5332 H   0  0  0  0  0  0  0  0  0  0  0  0
   10.4223    0.8423   24.3835 H   0  0  0  0  0  0  0  0  0  0  0  0
   10.6086    1.7324   22.8720 H   0  0  0  0  0  0  0  0  0  0  0  0
    7.0709   -5.6921   28.8674 H   0  0  0  0  0  0  0  0  0  0  0  0
    6.4147   -6.1158   27.2745 H   0  0  0  0  0  0  0  0  0  0  0  0
    6.7486    0.4313   16.8331 H   0  0  0  0  0  0  0  0  0  0  0  0
    7.9296   -5.3298   25.4747 H   0  0  0  0  0  0  0  0  0  0  0  0
    8.0733   -1.6163   21.0749 H   0  0  0  0  0  0  0  0  0  0  0  0
  1  2  1  0  0  0  0
  1  3  2  0  0  0  0
  2  4  2  0  0  0  0
  3 11  1  0  0  0  0
  4 13  1  0  0  0  0
  5  7  2  0  0  0  0
  5 14  1  0  0  0  0
  6  8  1  0  0  0  0
  6 14  2  0  0  0  0
  7 15  1  0  0  0  0
  8 15  2  0  0  0  0
  9 12  1  0  0  0  0
  9 23  2  0  0  0  0
 10 12  2  0  0  0  0
 10 26  1  0  0  0  0
 11 13  2  0  0  0  0
 11 16  1  0  0  0  0
 12 21  1  0  0  0  0
 13 25  1  0  0  0  0
 14 27  1  0  0  0  0
 15 29  1  0  0  0  0
 16 24  2  0  0  0  0
 16 28  1  0  0  0  0
 17 22  1  0  0  0  0
 17 27  1  0  0  0  0
 17 30  2  0  0  0  0
 18 28  1  0  0  0  0
 18 29  1  0  0  0  0
 18 31  2  0  0  0  0
 19 22  1  0  0  0  0
 20 26  1  0  0  0  0
 21 29  1  0  0  0  0
 23 26  1  0  0  0  0
 24 25  1  0  0  0  0
  1 32  1  0  0  0  0
  2 33  1  0  0  0  0
  3 34  1  0  0  0  0
  4 35  1  0  0  0  0
  5 36  1  0  0  0  0
  6 37  1  0  0  0  0
  7 38  1  0  0  0  0
  8 39  1  0  0  0  0
  9 40  1  0  0  0  0
 10 41  1  0  0  0  0
 19 42  1  0  0  0  0
 19 43  1  0  0  0  0
 19 44  1  0  0  0  0
 20 45  1  0  0  0  0
 20 46  1  0  0  0  0
 20 47  1  0  0  0  0
 21 48  1  0  0  0  0
 21 49  1  0  0  0  0
 22 50  1  0  0  0  0
 22 51  1  0  0  0  0
 25 52  1  0  0  0  0
 27 53  1  0  0  0  0
 28 54  1  0  0  0  0
M  END
> <clash_score>
0

> <docking_score>
-7.809539318084717

> <overlap_score>
0.9712613821029663

$$$$
BENZO_65_1
  -OEChem-08232013523D

 59 63  0     0  0  0  0  0  0999 V2000
   14.3362   -1.3623   23.9763 C   0  0  0  0  0  0  0  0  0  0  0  0
    4.2460    1.7520   20.8250 C   0  0  0  0  0  0  0  0  0  0  0  0
   13.9850   -0.2947   24.8024 C   0  0  0  0  0  0  0  0  0  0  0  0
   13.4946   -1.7412   22.9304 C   0  0  0  0  0  0  0  0  0  0  0  0
    3.8860    2.1050   19.5250 C   0  0  0  0  0  0  0  0  0  0  0  0
    5.3890    1.0010   21.0690 C   0  0  0  0  0  0  0  0  0  0  0  0
   12.7920    0.3940   24.5828 C   0  0  0  0  0  0  0  0  0  0  0  0
   12.3016   -1.0525   22.7108 C   0  0  0  0  0  0  0  0  0  0  0  0
    4.6610    1.7170   18.4380 C   0  0  0  0  0  0  0  0  0  0  0  0
    9.1890   -3.5540   24.0140 C   0  0  0  0  0  0  0  0  0  0  0  0
    7.8700   -2.0610   25.3550 C   0  0  0  0  0  0  0  0  0  0  0  0
    9.5890   -2.4950   23.2210 C   0  0  0  0  0  0  0  0  0  0  0  0
    8.2550   -1.0010   24.5520 C   0  0  0  0  0  0  0  0  0  0  0  0
    6.1460    0.6070   19.9750 C   0  0  0  0  0  0  0  0  0  0  0  0
   11.9503    0.0151   23.5370 C   0  0  0  0  0  0  0  0  0  0  0  0
    5.7970    0.9500   18.6730 C   0  0  0  0  0  0  0  0  0  0  0  0
    8.3450   -3.3440   25.0980 C   0  0  0  0  0  0  0  0  0  0  0  0
    9.1280   -1.2090   23.4870 C   0  0  0  0  0  0  0  0  0  0  0  0
    7.2710   -0.1460   19.8310 C   0  0  0  0  0  0  0  0  0  0  0  0
    9.0430    0.2380   21.4940 C   0  0  0  0  0  0  0  0  0  0  0  0
    7.5748   -4.8280   28.7278 C   0  0  0  0  0  0  0  0  0  0  0  0
    8.9776   -4.7555   28.1204 C   0  0  0  0  0  0  0  0  0  0  0  0
    6.5554   -4.0713   27.8732 C   0  0  0  0  0  0  0  0  0  0  0  0
    8.9620   -5.1961   26.6568 C   0  0  0  0  0  0  0  0  0  0  0  0
    6.6009   -4.5253   26.4110 C   0  0  0  0  0  0  0  0  0  0  0  0
   10.6659    0.7557   23.3001 C   0  0  0  0  0  0  0  0  0  0  0  0
    7.5840   -0.2700   18.5160 N   0  0  0  0  0  0  0  0  0  0  0  0
    6.7100    0.3850   17.8100 N   0  0  0  0  0  0  0  0  0  0  0  0
    7.9770   -4.4029   25.9162 N   0  0  0  0  0  0  0  0  0  0  0  0
    8.0950   -0.7700   20.8440 N   0  0  0  0  0  0  0  0  0  0  0  0
    9.5820   -0.1080   22.7000 N   0  0  0  0  0  0  0  0  0  0  0  0
    9.2950    1.3000   20.9480 O   0  0  0  0  0  0  0  0  0  0  0  0
   15.2658   -1.8975   24.1466 H   0  0  0  0  0  0  0  0  0  0  0  0
    3.6223    2.0725   21.6574 H   0  0  0  0  0  0  0  0  0  0  0  0
   14.6407    0.0012   25.6161 H   0  0  0  0  0  0  0  0  0  0  0  0
   13.7683   -2.5716   22.2864 H   0  0  0  0  0  0  0  0  0  0  0  0
    2.9864    2.6933   19.3609 H   0  0  0  0  0  0  0  0  0  0  0  0
    5.6689    0.7392   22.0836 H   0  0  0  0  0  0  0  0  0  0  0  0
   12.5263    1.2244   25.2316 H   0  0  0  0  0  0  0  0  0  0  0  0
   11.6520   -1.3548   21.8936 H   0  0  0  0  0  0  0  0  0  0  0  0
    4.3807    2.0116   17.4186 H   0  0  0  0  0  0  0  0  0  0  0  0
    9.5426   -4.5618   23.7797 H   0  0  0  0  0  0  0  0  0  0  0  0
    7.1914   -1.8824   26.1903 H   0  0  0  0  0  0  0  0  0  0  0  0
   10.2669   -2.6745   22.3854 H   0  0  0  0  0  0  0  0  0  0  0  0
    7.8690   -0.0020   24.7587 H   0  0  0  0  0  0  0  0  0  0  0  0
    7.2681   -5.8807   28.8239 H   0  0  0  0  0  0  0  0  0  0  0  0
    7.5891   -4.4101   29.7448 H   0  0  0  0  0  0  0  0  0  0  0  0
    9.3554   -3.7320   28.1920 H   0  0  0  0  0  0  0  0  0  0  0  0
    9.6558   -5.3943   28.6900 H   0  0  0  0  0  0  0  0  0  0  0  0
    5.5496   -4.2322   28.2751 H   0  0  0  0  0  0  0  0  0  0  0  0
    6.7545   -2.9948   27.9293 H   0  0  0  0  0  0  0  0  0  0  0  0
    9.9612   -5.0560   26.2363 H   0  0  0  0  0  0  0  0  0  0  0  0
    8.7097   -6.2583   26.5922 H   0  0  0  0  0  0  0  0  0  0  0  0
    6.2649   -5.5600   26.3335 H   0  0  0  0  0  0  0  0  0  0  0  0
    5.9271   -3.8964   25.8283 H   0  0  0  0  0  0  0  0  0  0  0  0
   10.2856    1.1781   24.2366 H   0  0  0  0  0  0  0  0  0  0  0  0
   10.8149    1.5883   22.6046 H   0  0  0  0  0  0  0  0  0  0  0  0
    6.7486    0.4313   16.8331 H   0  0  0  0  0  0  0  0  0  0  0  0
    8.0897   -1.6082   21.0890 H   0  0  0  0  0  0  0  0  0  0  0  0
  1  3  1  0  0  0  0
  1  4  2  0  0  0  0
  2  5  1  0  0  0  0
  2  6  2  0  0  0  0
  3  7  2  0  0  0  0
  4  8  1  0  0  0  0
  5  9  2  0  0  0  0
  6 14  1  0  0  0  0
  7 15  1  0  0  0  0
  8 15  2  0  0  0  0
  9 16  1  0  0  0  0
 10 12  2  0  0  0  0
 10 17  1  0  0  0  0
 11 13  1  0  0  0  0
 11 17  2  0  0  0  0
 12 18  1  0  0  0  0
 13 18  2  0  0  0  0
 14 16  2  0  0  0  0
 14 19  1  0  0  0  0
 15 26  1  0  0  0  0
 16 28  1  0  0  0  0
 17 29  1  0  0  0  0
 18 31  1  0  0  0  0
 19 27  2  0  0  0  0
 19 30  1  0  0  0  0
 20 30  1  0  0  0  0
 20 31  1  0  0  0  0
 20 32  2  0  0  0  0
 21 22  1  0  0  0  0
 21 23  1  0  0  0  0
 22 24  1  0  0  0  0
 23 25  1  0  0  0  0
 24 29  1  0  0  0  0
 25 29  1  0  0  0  0
 26 31  1  0  0  0  0
 27 28  1  0  0  0  0
  1 33  1  0  0  0  0
  2 34  1  0  0  0  0
  3 35  1  0  0  0  0
  4 36  1  0  0  0  0
  5 37  1  0  0  0  0
  6 38  1  0  0  0  0
  7 39  1  0  0  0  0
  8 40  1  0  0  0  0
  9 41  1  0  0  0  0
 10 42  1  0  0  0  0
 11 43  1  0  0  0  0
 12 44  1  0  0  0  0
 13 45  1  0  0  0  0
 21 46  1  0  0  0  0
 21 47  1  0  0  0  0
 22 48  1  0  0  0  0
 22 49  1  0  0  0  0
 23 50  1  0  0  0  0
 23 51  1  0  0  0  0
 24 52  1  0  0  0  0
 24 53  1  0  0  0  0
 25 54  1  0  0  0  0
 25 55  1  0  0  0  0
 26 56  1  0  0  0  0
 26 57  1  0  0  0  0
 28 58  1  0  0  0  0
 30 59  1  0  0  0  0
M  END
> <clash_score>
0

> <docking_score>
-8.403684616088867

> <overlap_score>
0.9820867776870728

$$$$
BENZO_62_1
  -OEChem-08232013523D

 54 57  0     0  0  0  0  0  0999 V2000
    4.2460    1.7520   20.8250 C   0  0  0  0  0  0  0  0  0  0  0  0
    3.8860    2.1050   19.5250 C   0  0  0  0  0  0  0  0  0  0  0  0
   13.5770   -0.8944   25.1115 C   0  0  0  0  0  0  0  0  0  0  0  0
    5.3890    1.0010   21.0690 C   0  0  0  0  0  0  0  0  0  0  0  0
   12.4107   -0.1673   24.8736 C   0  0  0  0  0  0  0  0  0  0  0  0
    4.6610    1.7170   18.4380 C   0  0  0  0  0  0  0  0  0  0  0  0
    9.1890   -3.5540   24.0140 C   0  0  0  0  0  0  0  0  0  0  0  0
    7.8700   -2.0610   25.3550 C   0  0  0  0  0  0  0  0  0  0  0  0
    9.5890   -2.4950   23.2210 C   0  0  0  0  0  0  0  0  0  0  0  0
    8.2550   -1.0010   24.5520 C   0  0  0  0  0  0  0  0  0  0  0  0
   14.2489   -1.5018   24.0507 C   0  0  0  0  0  0  0  0  0  0  0  0
   12.5881   -0.6548   22.5139 C   0  0  0  0  0  0  0  0  0  0  0  0
    6.1460    0.6070   19.9750 C   0  0  0  0  0  0  0  0  0  0  0  0
   11.9163   -0.0475   23.5748 C   0  0  0  0  0  0  0  0  0  0  0  0
    5.7970    0.9500   18.6730 C   0  0  0  0  0  0  0  0  0  0  0  0
    8.3450   -3.3440   25.0980 C   0  0  0  0  0  0  0  0  0  0  0  0
    9.1280   -1.2090   23.4870 C   0  0  0  0  0  0  0  0  0  0  0  0
   13.7544   -1.3820   22.7519 C   0  0  0  0  0  0  0  0  0  0  0  0
    7.2710   -0.1460   19.8310 C   0  0  0  0  0  0  0  0  0  0  0  0
    8.2013   -4.5562   27.2977 C   0  0  0  0  0  0  0  0  0  0  0  0
    9.0430    0.2380   21.4940 C   0  0  0  0  0  0  0  0  0  0  0  0
    7.8866   -6.0877   29.2880 C   0  0  0  0  0  0  0  0  0  0  0  0
   10.6602    0.7344   23.3196 C   0  0  0  0  0  0  0  0  0  0  0  0
    7.6334   -5.8728   27.8066 C   0  0  0  0  0  0  0  0  0  0  0  0
    7.5840   -0.2700   18.5160 N   0  0  0  0  0  0  0  0  0  0  0  0
    6.7100    0.3850   17.8100 N   0  0  0  0  0  0  0  0  0  0  0  0
    7.9771   -4.4058   25.9196 N   0  0  0  0  0  0  0  0  0  0  0  0
    8.0950   -0.7700   20.8440 N   0  0  0  0  0  0  0  0  0  0  0  0
    9.5820   -0.1080   22.7000 N   0  0  0  0  0  0  0  0  0  0  0  0
    8.7722   -3.7639   28.0399 O   0  0  0  0  0  0  0  0  0  0  0  0
    9.2950    1.3000   20.9480 O   0  0  0  0  0  0  0  0  0  0  0  0
   14.5832   -2.1325   21.4436 Cl  0  0  0  0  0  0  0  0  0  0  0  0
    3.6223    2.0725   21.6574 H   0  0  0  0  0  0  0  0  0  0  0  0
    2.9864    2.6933   19.3609 H   0  0  0  0  0  0  0  0  0  0  0  0
   13.9616   -0.9876   26.1231 H   0  0  0  0  0  0  0  0  0  0  0  0
    5.6689    0.7392   22.0836 H   0  0  0  0  0  0  0  0  0  0  0  0
   11.8937    0.3025   25.7062 H   0  0  0  0  0  0  0  0  0  0  0  0
    4.3807    2.0116   17.4186 H   0  0  0  0  0  0  0  0  0  0  0  0
    9.5436   -4.5614   23.7799 H   0  0  0  0  0  0  0  0  0  0  0  0
    7.1918   -1.8823   26.1906 H   0  0  0  0  0  0  0  0  0  0  0  0
   10.2676   -2.6754   22.3861 H   0  0  0  0  0  0  0  0  0  0  0  0
    7.8686   -0.0026   24.7598 H   0  0  0  0  0  0  0  0  0  0  0  0
   15.1566   -2.0657   24.2510 H   0  0  0  0  0  0  0  0  0  0  0  0
   12.1988   -0.5581   21.5031 H   0  0  0  0  0  0  0  0  0  0  0  0
    8.9592   -6.0823   29.5085 H   0  0  0  0  0  0  0  0  0  0  0  0
    7.4764   -7.0502   29.6091 H   0  0  0  0  0  0  0  0  0  0  0  0
    7.4171   -5.2994   29.8855 H   0  0  0  0  0  0  0  0  0  0  0  0
   10.2621    1.1417   24.2554 H   0  0  0  0  0  0  0  0  0  0  0  0
   10.8530    1.5810   22.6524 H   0  0  0  0  0  0  0  0  0  0  0  0
    6.5542   -5.8829   27.6152 H   0  0  0  0  0  0  0  0  0  0  0  0
    8.0873   -6.6910   27.2357 H   0  0  0  0  0  0  0  0  0  0  0  0
    6.7486    0.4313   16.8331 H   0  0  0  0  0  0  0  0  0  0  0  0
    7.4775   -5.1797   25.4662 H   0  0  0  0  0  0  0  0  0  0  0  0
    8.0733   -1.6163   21.0749 H   0  0  0  0  0  0  0  0  0  0  0  0
  1  2  1  0  0  0  0
  1  4  2  0  0  0  0
  2  6  2  0  0  0  0
  3  5  2  0  0  0  0
  3 11  1  0  0  0  0
  4 13  1  0  0  0  0
  5 14  1  0  0  0  0
  6 15  1  0  0  0  0
  7  9  2  0  0  0  0
  7 16  1  0  0  0  0
  8 10  1  0  0  0  0
  8 16  2  0  0  0  0
  9 17  1  0  0  0  0
 10 17  2  0  0  0  0
 11 18  2  0  0  0  0
 12 14  2  0  0  0  0
 12 18  1  0  0  0  0
 13 15  2  0  0  0  0
 13 19  1  0  0  0  0
 14 23  1  0  0  0  0
 15 26  1  0  0  0  0
 16 27  1  0  0  0  0
 17 29  1  0  0  0  0
 18 32  1  0  0  0  0
 19 25  2  0  0  0  0
 19 28  1  0  0  0  0
 20 24  1  0  0  0  0
 20 27  1  0  0  0  0
 20 30  2  0  0  0  0
 21 28  1  0  0  0  0
 21 29  1  0  0  0  0
 21 31  2  0  0  0  0
 22 24  1  0  0  0  0
 23 29  1  0  0  0  0
 25 26  1  0  0  0  0
  1 33  1  0  0  0  0
  2 34  1  0  0  0  0
  3 35  1  0  0  0  0
  4 36  1  0  0  0  0
  5 37  1  0  0  0  0
  6 38  1  0  0  0  0
  7 39  1  0  0  0  0
  8 40  1  0  0  0  0
  9 41  1  0  0  0  0
 10 42  1  0  0  0  0
 11 43  1  0  0  0  0
 12 44  1  0  0  0  0
 22 45  1  0  0  0  0
 22 46  1  0  0  0  0
 22 47  1  0  0  0  0
 23 48  1  0  0  0  0
 23 49  1  0  0  0  0
 24 50  1  0  0  0  0
 24 51  1  0  0  0  0
 26 52  1  0  0  0  0
 27 53  1  0  0  0  0
 28 54  1  0  0  0  0
M  END
> <clash_score>
0

> <docking_score>
-7.317098617553711

> <overlap_score>
1.0033615827560425

$$$$
BENZO_64_1
  -OEChem-08232013523D

 56 60  0     0  0  0  0  0  0999 V2000
    4.2460    1.7520   20.8250 C   0  0  0  0  0  0  0  0  0  0  0  0
    3.8860    2.1050   19.5250 C   0  0  0  0  0  0  0  0  0  0  0  0
    5.3890    1.0010   21.0690 C   0  0  0  0  0  0  0  0  0  0  0  0
    4.6610    1.7170   18.4380 C   0  0  0  0  0  0  0  0  0  0  0  0
    9.1890   -3.5540   24.0140 C   0  0  0  0  0  0  0  0  0  0  0  0
    7.8700   -2.0610   25.3550 C   0  0  0  0  0  0  0  0  0  0  0  0
    9.5890   -2.4950   23.2210 C   0  0  0  0  0  0  0  0  0  0  0  0
    8.2550   -1.0010   24.5520 C   0  0  0  0  0  0  0  0  0  0  0  0
   12.5722   -0.1093   24.8129 C   0  0  0  0  0  0  0  0  0  0  0  0
   13.7397   -0.8377   24.7507 C   0  0  0  0  0  0  0  0  0  0  0  0
   12.6665   -0.6230   22.5480 C   0  0  0  0  0  0  0  0  0  0  0  0
    6.1460    0.6070   19.9750 C   0  0  0  0  0  0  0  0  0  0  0  0
   11.9503    0.0151   23.5370 C   0  0  0  0  0  0  0  0  0  0  0  0
    5.7970    0.9500   18.6730 C   0  0  0  0  0  0  0  0  0  0  0  0
    8.3450   -3.3440   25.0980 C   0  0  0  0  0  0  0  0  0  0  0  0
    9.1280   -1.2090   23.4870 C   0  0  0  0  0  0  0  0  0  0  0  0
    7.2710   -0.1460   19.8310 C   0  0  0  0  0  0  0  0  0  0  0  0
    9.0430    0.2380   21.4940 C   0  0  0  0  0  0  0  0  0  0  0  0
    7.5748   -4.8280   28.7278 C   0  0  0  0  0  0  0  0  0  0  0  0
    8.9776   -4.7555   28.1204 C   0  0  0  0  0  0  0  0  0  0  0  0
    6.5554   -4.0713   27.8732 C   0  0  0  0  0  0  0  0  0  0  0  0
    8.9620   -5.1961   26.6568 C   0  0  0  0  0  0  0  0  0  0  0  0
    6.6009   -4.5253   26.4110 C   0  0  0  0  0  0  0  0  0  0  0  0
   10.6659    0.7557   23.3001 C   0  0  0  0  0  0  0  0  0  0  0  0
    7.5840   -0.2700   18.5160 N   0  0  0  0  0  0  0  0  0  0  0  0
    6.7100    0.3850   17.8100 N   0  0  0  0  0  0  0  0  0  0  0  0
    7.9770   -4.4029   25.9162 N   0  0  0  0  0  0  0  0  0  0  0  0
    8.0950   -0.7700   20.8440 N   0  0  0  0  0  0  0  0  0  0  0  0
    9.5820   -0.1080   22.7000 N   0  0  0  0  0  0  0  0  0  0  0  0
    9.2950    1.3000   20.9480 O   0  0  0  0  0  0  0  0  0  0  0  0
   14.0820   -1.3681   23.1589 S   0  0  0  0  0  0  0  0  0  0  0  0
    3.6223    2.0725   21.6574 H   0  0  0  0  0  0  0  0  0  0  0  0
    2.9864    2.6933   19.3609 H   0  0  0  0  0  0  0  0  0  0  0  0
    5.6689    0.7392   22.0836 H   0  0  0  0  0  0  0  0  0  0  0  0
    4.3807    2.0116   17.4186 H   0  0  0  0  0  0  0  0  0  0  0  0
    9.5426   -4.5618   23.7797 H   0  0  0  0  0  0  0  0  0  0  0  0
    7.1914   -1.8824   26.1903 H   0  0  0  0  0  0  0  0  0  0  0  0
   10.2669   -2.6745   22.3854 H   0  0  0  0  0  0  0  0  0  0  0  0
    7.8690   -0.0020   24.7587 H   0  0  0  0  0  0  0  0  0  0  0  0
   12.1863    0.3129   25.7322 H   0  0  0  0  0  0  0  0  0  0  0  0
   14.4083   -1.0832   25.5636 H   0  0  0  0  0  0  0  0  0  0  0  0
   12.4303   -0.6886   21.4949 H   0  0  0  0  0  0  0  0  0  0  0  0
    7.2681   -5.8807   28.8239 H   0  0  0  0  0  0  0  0  0  0  0  0
    7.5891   -4.4101   29.7448 H   0  0  0  0  0  0  0  0  0  0  0  0
    9.3554   -3.7320   28.1920 H   0  0  0  0  0  0  0  0  0  0  0  0
    9.6558   -5.3943   28.6900 H   0  0  0  0  0  0  0  0  0  0  0  0
    5.5496   -4.2322   28.2751 H   0  0  0  0  0  0  0  0  0  0  0  0
    6.7545   -2.9948   27.9293 H   0  0  0  0  0  0  0  0  0  0  0  0
    9.9612   -5.0560   26.2363 H   0  0  0  0  0  0  0  0  0  0  0  0
    8.7097   -6.2583   26.5922 H   0  0  0  0  0  0  0  0  0  0  0  0
    6.2649   -5.5600   26.3335 H   0  0  0  0  0  0  0  0  0  0  0  0
    5.9271   -3.8964   25.8283 H   0  0  0  0  0  0  0  0  0  0  0  0
   10.2856    1.1781   24.2366 H   0  0  0  0  0  0  0  0  0  0  0  0
   10.8149    1.5883   22.6046 H   0  0  0  0  0  0  0  0  0  0  0  0
    6.7486    0.4313   16.8331 H   0  0  0  0  0  0  0  0  0  0  0  0
    8.0897   -1.6082   21.0890 H   0  0  0  0  0  0  0  0  0  0  0  0
  1  2  1  0  0  0  0
  1  3  2  0  0  0  0
  2  4  2  0  0  0  0
  3 12  1  0  0  0  0
  4 14  1  0  0  0  0
  5  7  2  0  0  0  0
  5 15  1  0  0  0  0
  6  8  1  0  0  0  0
  6 15  2  0  0  0  0
  7 16  1  0  0  0  0
  8 16  2  0  0  0  0
  9 10  2  0  0  0  0
  9 13  1  0  0  0  0
 10 31  1  0  0  0  0
 11 13  2  0  0  0  0
 11 31  1  0  0  0  0
 12 14  2  0  0  0  0
 12 17  1  0  0  0  0
 13 24  1  0  0  0  0
 14 26  1  0  0  0  0
 15 27  1  0  0  0  0
 16 29  1  0  0  0  0
 17 25  2  0  0  0  0
 17 28  1  0  0  0  0
 18 28  1  0  0  0  0
 18 29  1  0  0  0  0
 18 30  2  0  0  0  0
 19 20  1  0  0  0  0
 19 21  1  0  0  0  0
 20 22  1  0  0  0  0
 21 23  1  0  0  0  0
 22 27  1  0  0  0  0
 23 27  1  0  0  0  0
 24 29  1  0  0  0  0
 25 26  1  0  0  0  0
  1 32  1  0  0  0  0
  2 33  1  0  0  0  0
  3 34  1  0  0  0  0
  4 35  1  0  0  0  0
  5 36  1  0  0  0  0
  6 37  1  0  0  0  0
  7 38  1  0  0  0  0
  8 39  1  0  0  0  0
  9 40  1  0  0  0  0
 10 41  1  0  0  0  0
 11 42  1  0  0  0  0
 19 43  1  0  0  0  0
 19 44  1  0  0  0  0
 20 45  1  0  0  0  0
 20 46  1  0  0  0  0
 21 47  1  0  0  0  0
 21 48  1  0  0  0  0
 22 49  1  0  0  0  0
 22 50  1  0  0  0  0
 23 51  1  0  0  0  0
 23 52  1  0  0  0  0
 24 53  1  0  0  0  0
 24 54  1  0  0  0  0
 26 55  1  0  0  0  0
 28 56  1  0  0  0  0
M  END
> <clash_score>
0

> <docking_score>
-8.28060531616211

> <overlap_score>
0.966229259967804

$$$$
BENZO_69_1
  -OEChem-08232013523D

 47 50  0     0  0  0  0  0  0999 V2000
   14.2497   -1.5013   24.0483 C   0  0  0  0  0  0  0  0  0  0  0  0
    4.2460    1.7520   20.8250 C   0  0  0  0  0  0  0  0  0  0  0  0
   13.9177   -0.4271   24.8737 C   0  0  0  0  0  0  0  0  0  0  0  0
   13.4150   -1.8486   22.9860 C   0  0  0  0  0  0  0  0  0  0  0  0
    3.8860    2.1050   19.5250 C   0  0  0  0  0  0  0  0  0  0  0  0
    5.3890    1.0010   21.0690 C   0  0  0  0  0  0  0  0  0  0  0  0
   12.7510    0.2998   24.6370 C   0  0  0  0  0  0  0  0  0  0  0  0
   12.2483   -1.1217   22.7493 C   0  0  0  0  0  0  0  0  0  0  0  0
    9.1890   -3.5540   24.0140 C   0  0  0  0  0  0  0  0  0  0  0  0
    7.8700   -2.0610   25.3550 C   0  0  0  0  0  0  0  0  0  0  0  0
    4.6610    1.7170   18.4380 C   0  0  0  0  0  0  0  0  0  0  0  0
    9.5890   -2.4950   23.2210 C   0  0  0  0  0  0  0  0  0  0  0  0
    8.2550   -1.0010   24.5520 C   0  0  0  0  0  0  0  0  0  0  0  0
    6.1460    0.6070   19.9750 C   0  0  0  0  0  0  0  0  0  0  0  0
    8.3450   -3.3440   25.0980 C   0  0  0  0  0  0  0  0  0  0  0  0
   11.9163   -0.0475   23.5748 C   0  0  0  0  0  0  0  0  0  0  0  0
    5.7970    0.9500   18.6730 C   0  0  0  0  0  0  0  0  0  0  0  0
    9.1280   -1.2090   23.4870 C   0  0  0  0  0  0  0  0  0  0  0  0
    7.2710   -0.1460   19.8310 C   0  0  0  0  0  0  0  0  0  0  0  0
    9.0430    0.2380   21.4940 C   0  0  0  0  0  0  0  0  0  0  0  0
    7.9522   -4.4794   25.9764 C   0  0  0  0  0  0  0  0  0  0  0  0
   10.6602    0.7344   23.3196 C   0  0  0  0  0  0  0  0  0  0  0  0
    7.5840   -0.2700   18.5160 N   0  0  0  0  0  0  0  0  0  0  0  0
    6.7100    0.3850   17.8100 N   0  0  0  0  0  0  0  0  0  0  0  0
    8.0950   -0.7700   20.8440 N   0  0  0  0  0  0  0  0  0  0  0  0
    9.5820   -0.1080   22.7000 N   0  0  0  0  0  0  0  0  0  0  0  0
    9.2950    1.3000   20.9480 O   0  0  0  0  0  0  0  0  0  0  0  0
   15.1589   -2.0664   24.2319 H   0  0  0  0  0  0  0  0  0  0  0  0
    3.6223    2.0725   21.6574 H   0  0  0  0  0  0  0  0  0  0  0  0
   14.5681   -0.1559   25.7002 H   0  0  0  0  0  0  0  0  0  0  0  0
   13.6737   -2.6842   22.3425 H   0  0  0  0  0  0  0  0  0  0  0  0
    2.9864    2.6933   19.3609 H   0  0  0  0  0  0  0  0  0  0  0  0
    5.6689    0.7392   22.0836 H   0  0  0  0  0  0  0  0  0  0  0  0
   12.5003    1.1352   25.2855 H   0  0  0  0  0  0  0  0  0  0  0  0
   11.6039   -1.3996   21.9194 H   0  0  0  0  0  0  0  0  0  0  0  0
    9.5403   -4.5627   23.7809 H   0  0  0  0  0  0  0  0  0  0  0  0
    7.1911   -1.8848   26.1904 H   0  0  0  0  0  0  0  0  0  0  0  0
    4.3807    2.0116   17.4186 H   0  0  0  0  0  0  0  0  0  0  0  0
   10.2682   -2.6746   22.3865 H   0  0  0  0  0  0  0  0  0  0  0  0
    7.8684   -0.0022   24.7594 H   0  0  0  0  0  0  0  0  0  0  0  0
    8.6668   -4.5891   26.8013 H   0  0  0  0  0  0  0  0  0  0  0  0
    6.9513   -4.3276   26.4010 H   0  0  0  0  0  0  0  0  0  0  0  0
    7.9196   -5.4231   25.4163 H   0  0  0  0  0  0  0  0  0  0  0  0
   10.2621    1.1417   24.2554 H   0  0  0  0  0  0  0  0  0  0  0  0
   10.8530    1.5810   22.6524 H   0  0  0  0  0  0  0  0  0  0  0  0
    6.7486    0.4313   16.8331 H   0  0  0  0  0  0  0  0  0  0  0  0
    8.0733   -1.6163   21.0749 H   0  0  0  0  0  0  0  0  0  0  0  0
  1  3  1  0  0  0  0
  1  4  2  0  0  0  0
  2  5  1  0  0  0  0
  2  6  2  0  0  0  0
  3  7  2  0  0  0  0
  4  8  1  0  0  0  0
  5 11  2  0  0  0  0
  6 14  1  0  0  0  0
  7 16  1  0  0  0  0
  8 16  2  0  0  0  0
  9 12  2  0  0  0  0
  9 15  1  0  0  0  0
 10 13  1  0  0  0  0
 10 15  2  0  0  0  0
 11 17  1  0  0  0  0
 12 18  1  0  0  0  0
 13 18  2  0  0  0  0
 14 17  2  0  0  0  0
 14 19  1  0  0  0  0
 15 21  1  0  0  0  0
 16 22  1  0  0  0  0
 17 24  1  0  0  0  0
 18 26  1  0  0  0  0
 19 23  2  0  0  0  0
 19 25  1  0  0  0  0
 20 25  1  0  0  0  0
 20 26  1  0  0  0  0
 20 27  2  0  0  0  0
 22 26  1  0  0  0  0
 23 24  1  0  0  0  0
  1 28  1  0  0  0  0
  2 29  1  0  0  0  0
  3 30  1  0  0  0  0
  4 31  1  0  0  0  0
  5 32  1  0  0  0  0
  6 33  1  0  0  0  0
  7 34  1  0  0  0  0
  8 35  1  0  0  0  0
  9 36  1  0  0  0  0
 10 37  1  0  0  0  0
 11 38  1  0  0  0  0
 12 39  1  0  0  0  0
 13 40  1  0  0  0  0
 21 41  1  0  0  0  0
 21 42  1  0  0  0  0
 21 43  1  0  0  0  0
 22 44  1  0  0  0  0
 22 45  1  0  0  0  0
 24 46  1  0  0  0  0
 25 47  1  0  0  0  0
M  END
> <clash_score>
0

> <docking_score>
-7.535046577453613

> <overlap_score>
0.8926427960395813

$$$$
BENZO_68_1
  -OEChem-08232013523D

 44 47  0     0  0  0  0  0  0999 V2000
    4.2460    1.7520   20.8250 C   0  0  0  0  0  0  0  0  0  0  0  0
    3.8860    2.1050   19.5250 C   0  0  0  0  0  0  0  0  0  0  0  0
    5.3890    1.0010   21.0690 C   0  0  0  0  0  0  0  0  0  0  0  0
    9.1890   -3.5540   24.0140 C   0  0  0  0  0  0  0  0  0  0  0  0
    7.8700   -2.0610   25.3550 C   0  0  0  0  0  0  0  0  0  0  0  0
    4.6610    1.7170   18.4380 C   0  0  0  0  0  0  0  0  0  0  0  0
    9.5890   -2.4950   23.2210 C   0  0  0  0  0  0  0  0  0  0  0  0
    8.2550   -1.0010   24.5520 C   0  0  0  0  0  0  0  0  0  0  0  0
   12.4944   -0.2233   24.8652 C   0  0  0  0  0  0  0  0  0  0  0  0
   13.6434   -0.9817   24.8184 C   0  0  0  0  0  0  0  0  0  0  0  0
   12.6457   -0.6780   22.5908 C   0  0  0  0  0  0  0  0  0  0  0  0
    6.1460    0.6070   19.9750 C   0  0  0  0  0  0  0  0  0  0  0  0
    8.3450   -3.3440   25.0980 C   0  0  0  0  0  0  0  0  0  0  0  0
   11.9163   -0.0475   23.5748 C   0  0  0  0  0  0  0  0  0  0  0  0
    5.7970    0.9500   18.6730 C   0  0  0  0  0  0  0  0  0  0  0  0
    9.1280   -1.2090   23.4870 C   0  0  0  0  0  0  0  0  0  0  0  0
    7.2710   -0.1460   19.8310 C   0  0  0  0  0  0  0  0  0  0  0  0
    9.0430    0.2380   21.4940 C   0  0  0  0  0  0  0  0  0  0  0  0
    7.9522   -4.4794   25.9764 C   0  0  0  0  0  0  0  0  0  0  0  0
   10.6602    0.7344   23.3196 C   0  0  0  0  0  0  0  0  0  0  0  0
    7.5840   -0.2700   18.5160 N   0  0  0  0  0  0  0  0  0  0  0  0
    6.7100    0.3850   17.8100 N   0  0  0  0  0  0  0  0  0  0  0  0
    8.0950   -0.7700   20.8440 N   0  0  0  0  0  0  0  0  0  0  0  0
    9.5820   -0.1080   22.7000 N   0  0  0  0  0  0  0  0  0  0  0  0
    9.2950    1.3000   20.9480 O   0  0  0  0  0  0  0  0  0  0  0  0
   14.0211   -1.4780   23.2236 S   0  0  0  0  0  0  0  0  0  0  0  0
    3.6223    2.0725   21.6574 H   0  0  0  0  0  0  0  0  0  0  0  0
    2.9864    2.6933   19.3609 H   0  0  0  0  0  0  0  0  0  0  0  0
    5.6689    0.7392   22.0836 H   0  0  0  0  0  0  0  0  0  0  0  0
    9.5403   -4.5627   23.7809 H   0  0  0  0  0  0  0  0  0  0  0  0
    7.1911   -1.8848   26.1904 H   0  0  0  0  0  0  0  0  0  0  0  0
    4.3807    2.0116   17.4186 H   0  0  0  0  0  0  0  0  0  0  0  0
   10.2682   -2.6746   22.3865 H   0  0  0  0  0  0  0  0  0  0  0  0
    7.8684   -0.0022   24.7594 H   0  0  0  0  0  0  0  0  0  0  0  0
   12.0914    0.1843   25.7837 H   0  0  0  0  0  0  0  0  0  0  0  0
   14.2795   -1.2674   25.6442 H   0  0  0  0  0  0  0  0  0  0  0  0
   12.4410   -0.7086   21.5296 H   0  0  0  0  0  0  0  0  0  0  0  0
    8.6668   -4.5891   26.8013 H   0  0  0  0  0  0  0  0  0  0  0  0
    6.9513   -4.3276   26.4010 H   0  0  0  0  0  0  0  0  0  0  0  0
    7.9196   -5.4231   25.4163 H   0  0  0  0  0  0  0  0  0  0  0  0
   10.2621    1.1417   24.2554 H   0  0  0  0  0  0  0  0  0  0  0  0
   10.8530    1.5810   22.6524 H   0  0  0  0  0  0  0  0  0  0  0  0
    6.7486    0.4313   16.8331 H   0  0  0  0  0  0  0  0  0  0  0  0
    8.0733   -1.6163   21.0749 H   0  0  0  0  0  0  0  0  0  0  0  0
  1  2  1  0  0  0  0
  1  3  2  0  0  0  0
  2  6  2  0  0  0  0
  3 12  1  0  0  0  0
  4  7  2  0  0  0  0
  4 13  1  0  0  0  0
  5  8  1  0  0  0  0
  5 13  2  0  0  0  0
  6 15  1  0  0  0  0
  7 16  1  0  0  0  0
  8 16  2  0  0  0  0
  9 10  2  0  0  0  0
  9 14  1  0  0  0  0
 10 26  1  0  0  0  0
 11 14  2  0  0  0  0
 11 26  1  0  0  0  0
 12 15  2  0  0  0  0
 12 17  1  0  0  0  0
 13 19  1  0  0  0  0
 14 20  1  0  0  0  0
 15 22  1  0  0  0  0
 16 24  1  0  0  0  0
 17 21  2  0  0  0  0
 17 23  1  0  0  0  0
 18 23  1  0  0  0  0
 18 24  1  0  0  0  0
 18 25  2  0  0  0  0
 20 24  1  0  0  0  0
 21 22  1  0  0  0  0
  1 27  1  0  0  0  0
  2 28  1  0  0  0  0
  3 29  1  0  0  0  0
  4 30  1  0  0  0  0
  5 31  1  0  0  0  0
  6 32  1  0  0  0  0
  7 33  1  0  0  0  0
  8 34  1  0  0  0  0
  9 35  1  0  0  0  0
 10 36  1  0  0  0  0
 11 37  1  0  0  0  0
 19 38  1  0  0  0  0
 19 39  1  0  0  0  0
 19 40  1  0  0  0  0
 20 41  1  0  0  0  0
 20 42  1  0  0  0  0
 22 43  1  0  0  0  0
 23 44  1  0  0  0  0
M  END
> <clash_score>
0

> <docking_score>
-7.363037109375

> <overlap_score>
0.8774699568748474

$$$$
BENZO_67_1
  -OEChem-08232013523D

 59 63  0     0  0  0  0  0  0999 V2000
    4.2460    1.7520   20.8250 C   0  0  0  0  0  0  0  0  0  0  0  0
    3.8860    2.1050   19.5250 C   0  0  0  0  0  0  0  0  0  0  0  0
    5.3890    1.0010   21.0690 C   0  0  0  0  0  0  0  0  0  0  0  0
    4.6610    1.7170   18.4380 C   0  0  0  0  0  0  0  0  0  0  0  0
    9.1890   -3.5540   24.0140 C   0  0  0  0  0  0  0  0  0  0  0  0
    7.8700   -2.0610   25.3550 C   0  0  0  0  0  0  0  0  0  0  0  0
    9.5890   -2.4950   23.2210 C   0  0  0  0  0  0  0  0  0  0  0  0
    8.2550   -1.0010   24.5520 C   0  0  0  0  0  0  0  0  0  0  0  0
   13.2516    0.9063   22.9519 C   0  0  0  0  0  0  0  0  0  0  0  0
   12.4136   -1.1249   23.0350 C   0  0  0  0  0  0  0  0  0  0  0  0
    6.1460    0.6070   19.9750 C   0  0  0  0  0  0  0  0  0  0  0  0
   12.0454    0.1966   23.1039 C   0  0  0  0  0  0  0  0  0  0  0  0
    5.7970    0.9500   18.6730 C   0  0  0  0  0  0  0  0  0  0  0  0
    8.3450   -3.3440   25.0980 C   0  0  0  0  0  0  0  0  0  0  0  0
    9.1280   -1.2090   23.4870 C   0  0  0  0  0  0  0  0  0  0  0  0
    7.2710   -0.1460   19.8310 C   0  0  0  0  0  0  0  0  0  0  0  0
    9.0430    0.2380   21.4940 C   0  0  0  0  0  0  0  0  0  0  0  0
    7.5748   -4.8280   28.7278 C   0  0  0  0  0  0  0  0  0  0  0  0
    8.9776   -4.7555   28.1204 C   0  0  0  0  0  0  0  0  0  0  0  0
    6.5554   -4.0713   27.8732 C   0  0  0  0  0  0  0  0  0  0  0  0
    8.9620   -5.1961   26.6568 C   0  0  0  0  0  0  0  0  0  0  0  0
    6.6009   -4.5253   26.4110 C   0  0  0  0  0  0  0  0  0  0  0  0
   14.6106   -2.2888   22.7229 C   0  0  0  0  0  0  0  0  0  0  0  0
   10.6659    0.7557   23.3001 C   0  0  0  0  0  0  0  0  0  0  0  0
   14.3071    0.1024   22.7982 N   0  0  0  0  0  0  0  0  0  0  0  0
    7.5840   -0.2700   18.5160 N   0  0  0  0  0  0  0  0  0  0  0  0
    6.7100    0.3850   17.8100 N   0  0  0  0  0  0  0  0  0  0  0  0
   13.7654   -1.1262   22.8534 N   0  0  0  0  0  0  0  0  0  0  0  0
    7.9770   -4.4029   25.9162 N   0  0  0  0  0  0  0  0  0  0  0  0
    8.0950   -0.7700   20.8440 N   0  0  0  0  0  0  0  0  0  0  0  0
    9.5820   -0.1080   22.7000 N   0  0  0  0  0  0  0  0  0  0  0  0
    9.2950    1.3000   20.9480 O   0  0  0  0  0  0  0  0  0  0  0  0
    3.6223    2.0725   21.6574 H   0  0  0  0  0  0  0  0  0  0  0  0
    2.9864    2.6933   19.3609 H   0  0  0  0  0  0  0  0  0  0  0  0
    5.6689    0.7392   22.0836 H   0  0  0  0  0  0  0  0  0  0  0  0
    4.3807    2.0116   17.4186 H   0  0  0  0  0  0  0  0  0  0  0  0
    9.5426   -4.5618   23.7797 H   0  0  0  0  0  0  0  0  0  0  0  0
    7.1914   -1.8824   26.1903 H   0  0  0  0  0  0  0  0  0  0  0  0
   10.2669   -2.6745   22.3854 H   0  0  0  0  0  0  0  0  0  0  0  0
    7.8690   -0.0020   24.7587 H   0  0  0  0  0  0  0  0  0  0  0  0
   13.4081    1.9758   22.9472 H   0  0  0  0  0  0  0  0  0  0  0  0
   11.8432   -2.0416   23.0995 H   0  0  0  0  0  0  0  0  0  0  0  0
    7.2681   -5.8807   28.8239 H   0  0  0  0  0  0  0  0  0  0  0  0
    7.5891   -4.4101   29.7448 H   0  0  0  0  0  0  0  0  0  0  0  0
    9.3554   -3.7320   28.1920 H   0  0  0  0  0  0  0  0  0  0  0  0
    9.6558   -5.3943   28.6900 H   0  0  0  0  0  0  0  0  0  0  0  0
    5.5496   -4.2322   28.2751 H   0  0  0  0  0  0  0  0  0  0  0  0
    6.7545   -2.9948   27.9293 H   0  0  0  0  0  0  0  0  0  0  0  0
    9.9612   -5.0560   26.2363 H   0  0  0  0  0  0  0  0  0  0  0  0
    8.7097   -6.2583   26.5922 H   0  0  0  0  0  0  0  0  0  0  0  0
    6.2649   -5.5600   26.3335 H   0  0  0  0  0  0  0  0  0  0  0  0
    5.9271   -3.8964   25.8283 H   0  0  0  0  0  0  0  0  0  0  0  0
   14.6697   -2.5454   21.6619 H   0  0  0  0  0  0  0  0  0  0  0  0
   15.6050   -2.0621   23.1174 H   0  0  0  0  0  0  0  0  0  0  0  0
   14.1787   -3.1155   23.2939 H   0  0  0  0  0  0  0  0  0  0  0  0
   10.4490    0.8829   24.3664 H   0  0  0  0  0  0  0  0  0  0  0  0
   10.5700    1.7396   22.8291 H   0  0  0  0  0  0  0  0  0  0  0  0
    6.7486    0.4313   16.8331 H   0  0  0  0  0  0  0  0  0  0  0  0
    8.0897   -1.6082   21.0890 H   0  0  0  0  0  0  0  0  0  0  0  0
  1  2  1  0  0  0  0
  1  3  2  0  0  0  0
  2  4  2  0  0  0  0
  3 11  1  0  0  0  0
  4 13  1  0  0  0  0
  5  7  2  0  0  0  0
  5 14  1  0  0  0  0
  6  8  1  0  0  0  0
  6 14  2  0  0  0  0
  7 15  1  0  0  0  0
  8 15  2  0  0  0  0
  9 12  1  0  0  0  0
  9 25  2  0  0  0  0
 10 12  2  0  0  0  0
 10 28  1  0  0  0  0
 11 13  2  0  0  0  0
 11 16  1  0  0  0  0
 12 24  1  0  0  0  0
 13 27  1  0  0  0  0
 14 29  1  0  0  0  0
 15 31  1  0  0  0  0
 16 26  2  0  0  0  0
 16 30  1  0  0  0  0
 17 30  1  0  0  0  0
 17 31  1  0  0  0  0
 17 32  2  0  0  0  0
 18 19  1  0  0  0  0
 18 20  1  0  0  0  0
 19 21  1  0  0  0  0
 20 22  1  0  0  0  0
 21 29  1  0  0  0  0
 22 29  1  0  0  0  0
 23 28  1  0  0  0  0
 24 31  1  0  0  0  0
 25 28  1  0  0  0  0
 26 27  1  0  0  0  0
  1 33  1  0  0  0  0
  2 34  1  0  0  0  0
  3 35  1  0  0  0  0
  4 36  1  0  0  0  0
  5 37  1  0  0  0  0
  6 38  1  0  0  0  0
  7 39  1  0  0  0  0
  8 40  1  0  0  0  0
  9 41  1  0  0  0  0
 10 42  1  0  0  0  0
 18 43  1  0  0  0  0
 18 44  1  0  0  0  0
 19 45  1  0  0  0  0
 19 46  1  0  0  0  0
 20 47  1  0  0  0  0
 20 48  1  0  0  0  0
 21 49  1  0  0  0  0
 21 50  1  0  0  0  0
 22 51  1  0  0  0  0
 22 52  1  0  0  0  0
 23 53  1  0  0  0  0
 23 54  1  0  0  0  0
 23 55  1  0  0  0  0
 24 56  1  0  0  0  0
 24 57  1  0  0  0  0
 27 58  1  0  0  0  0
 30 59  1  0  0  0  0
M  END
> <clash_score>
0

> <docking_score>
-8.923992156982422

> <overlap_score>
0.9646736979484558

$$$$
BENZO_66_1
  -OEChem-08232013523D

 59 63  0     0  0  0  0  0  0999 V2000
    4.2460    1.7520   20.8250 C   0  0  0  0  0  0  0  0  0  0  0  0
    3.8860    2.1050   19.5250 C   0  0  0  0  0  0  0  0  0  0  0  0
   13.6798   -0.7441   25.0433 C   0  0  0  0  0  0  0  0  0  0  0  0
    5.3890    1.0010   21.0690 C   0  0  0  0  0  0  0  0  0  0  0  0
   12.4873   -0.0553   24.8224 C   0  0  0  0  0  0  0  0  0  0  0  0
    4.6610    1.7170   18.4380 C   0  0  0  0  0  0  0  0  0  0  0  0
    9.1890   -3.5540   24.0140 C   0  0  0  0  0  0  0  0  0  0  0  0
    7.8700   -2.0610   25.3550 C   0  0  0  0  0  0  0  0  0  0  0  0
    9.5890   -2.4950   23.2210 C   0  0  0  0  0  0  0  0  0  0  0  0
    8.2550   -1.0010   24.5520 C   0  0  0  0  0  0  0  0  0  0  0  0
   14.3355   -1.3627   23.9787 C   0  0  0  0  0  0  0  0  0  0  0  0
   12.6059   -0.6035   22.4724 C   0  0  0  0  0  0  0  0  0  0  0  0
    6.1460    0.6070   19.9750 C   0  0  0  0  0  0  0  0  0  0  0  0
   11.9503    0.0151   23.5370 C   0  0  0  0  0  0  0  0  0  0  0  0
    5.7970    0.9500   18.6730 C   0  0  0  0  0  0  0  0  0  0  0  0
    8.3450   -3.3440   25.0980 C   0  0  0  0  0  0  0  0  0  0  0  0
    9.1280   -1.2090   23.4870 C   0  0  0  0  0  0  0  0  0  0  0  0
   13.7985   -1.2924   22.6933 C   0  0  0  0  0  0  0  0  0  0  0  0
    7.2710   -0.1460   19.8310 C   0  0  0  0  0  0  0  0  0  0  0  0
    9.0430    0.2380   21.4940 C   0  0  0  0  0  0  0  0  0  0  0  0
    7.5748   -4.8280   28.7278 C   0  0  0  0  0  0  0  0  0  0  0  0
    8.9776   -4.7555   28.1204 C   0  0  0  0  0  0  0  0  0  0  0  0
    6.5554   -4.0713   27.8732 C   0  0  0  0  0  0  0  0  0  0  0  0
    8.9620   -5.1961   26.6568 C   0  0  0  0  0  0  0  0  0  0  0  0
    6.6009   -4.5253   26.4110 C   0  0  0  0  0  0  0  0  0  0  0  0
   10.6659    0.7557   23.3001 C   0  0  0  0  0  0  0  0  0  0  0  0
    7.5840   -0.2700   18.5160 N   0  0  0  0  0  0  0  0  0  0  0  0
    6.7100    0.3850   17.8100 N   0  0  0  0  0  0  0  0  0  0  0  0
    7.9770   -4.4029   25.9162 N   0  0  0  0  0  0  0  0  0  0  0  0
    8.0950   -0.7700   20.8440 N   0  0  0  0  0  0  0  0  0  0  0  0
    9.5820   -0.1080   22.7000 N   0  0  0  0  0  0  0  0  0  0  0  0
    9.2950    1.3000   20.9480 O   0  0  0  0  0  0  0  0  0  0  0  0
   14.6073   -2.0567   21.3805 Cl  0  0  0  0  0  0  0  0  0  0  0  0
    3.6223    2.0725   21.6574 H   0  0  0  0  0  0  0  0  0  0  0  0
    2.9864    2.6933   19.3609 H   0  0  0  0  0  0  0  0  0  0  0  0
   14.0976   -0.7988   26.0445 H   0  0  0  0  0  0  0  0  0  0  0  0
    5.6689    0.7392   22.0836 H   0  0  0  0  0  0  0  0  0  0  0  0
   11.9832    0.4236   25.6578 H   0  0  0  0  0  0  0  0  0  0  0  0
    4.3807    2.0116   17.4186 H   0  0  0  0  0  0  0  0  0  0  0  0
    9.5426   -4.5618   23.7797 H   0  0  0  0  0  0  0  0  0  0  0  0
    7.1914   -1.8824   26.1903 H   0  0  0  0  0  0  0  0  0  0  0  0
   10.2669   -2.6745   22.3854 H   0  0  0  0  0  0  0  0  0  0  0  0
    7.8690   -0.0020   24.7587 H   0  0  0  0  0  0  0  0  0  0  0  0
   15.2641   -1.8964   24.1658 H   0  0  0  0  0  0  0  0  0  0  0  0
   12.1834   -0.5454   21.4719 H   0  0  0  0  0  0  0  0  0  0  0  0
    7.2681   -5.8807   28.8239 H   0  0  0  0  0  0  0  0  0  0  0  0
    7.5891   -4.4101   29.7448 H   0  0  0  0  0  0  0  0  0  0  0  0
    9.3554   -3.7320   28.1920 H   0  0  0  0  0  0  0  0  0  0  0  0
    9.6558   -5.3943   28.6900 H   0  0  0  0  0  0  0  0  0  0  0  0
    5.5496   -4.2322   28.2751 H   0  0  0  0  0  0  0  0  0  0  0  0
    6.7545   -2.9948   27.9293 H   0  0  0  0  0  0  0  0  0  0  0  0
    9.9612   -5.0560   26.2363 H   0  0  0  0  0  0  0  0  0  0  0  0
    8.7097   -6.2583   26.5922 H   0  0  0  0  0  0  0  0  0  0  0  0
    6.2649   -5.5600   26.3335 H   0  0  0  0  0  0  0  0  0  0  0  0
    5.9271   -3.8964   25.8283 H   0  0  0  0  0  0  0  0  0  0  0  0
   10.2856    1.1781   24.2366 H   0  0  0  0  0  0  0  0  0  0  0  0
   10.8149    1.5883   22.6046 H   0  0  0  0  0  0  0  0  0  0  0  0
    6.7486    0.4313   16.8331 H   0  0  0  0  0  0  0  0  0  0  0  0
    8.0897   -1.6082   21.0890 H   0  0  0  0  0  0  0  0  0  0  0  0
  1  2  1  0  0  0  0
  1  4  2  0  0  0  0
  2  6  2  0  0  0  0
  3  5  2  0  0  0  0
  3 11  1  0  0  0  0
  4 13  1  0  0  0  0
  5 14  1  0  0  0  0
  6 15  1  0  0  0  0
  7  9  2  0  0  0  0
  7 16  1  0  0  0  0
  8 10  1  0  0  0  0
  8 16  2  0  0  0  0
  9 17  1  0  0  0  0
 10 17  2  0  0  0  0
 11 18  2  0  0  0  0
 12 14  2  0  0  0  0
 12 18  1  0  0  0  0
 13 15  2  0  0  0  0
 13 19  1  0  0  0  0
 14 26  1  0  0  0  0
 15 28  1  0  0  0  0
 16 29  1  0  0  0  0
 17 31  1  0  0  0  0
 18 33  1  0  0  0  0
 19 27  2  0  0  0  0
 19 30  1  0  0  0  0
 20 30  1  0  0  0  0
 20 31  1  0  0  0  0
 20 32  2  0  0  0  0
 21 22  1  0  0  0  0
 21 23  1  0  0  0  0
 22 24  1  0  0  0  0
 23 25  1  0  0  0  0
 24 29  1  0  0  0  0
 25 29  1  0  0  0  0
 26 31  1  0  0  0  0
 27 28  1  0  0  0  0
  1 34  1  0  0  0  0
  2 35  1  0  0  0  0
  3 36  1  0  0  0  0
  4 37  1  0  0  0  0
  5 38  1  0  0  0  0
  6 39  1  0  0  0  0
  7 40  1  0  0  0  0
  8 41  1  0  0  0  0
  9 42  1  0  0  0  0
 10 43  1  0  0  0  0
 11 44  1  0  0  0  0
 12 45  1  0  0  0  0
 21 46  1  0  0  0  0
 21 47  1  0  0  0  0
 22 48  1  0  0  0  0
 22 49  1  0  0  0  0
 23 50  1  0  0  0  0
 23 51  1  0  0  0  0
 24 52  1  0  0  0  0
 24 53  1  0  0  0  0
 25 54  1  0  0  0  0
 25 55  1  0  0  0  0
 26 56  1  0  0  0  0
 26 57  1  0  0  0  0
 28 58  1  0  0  0  0
 30 59  1  0  0  0  0
M  END
> <clash_score>
0

> <docking_score>
-7.7293853759765625

> <overlap_score>
0.9905683398246765

$$$$
BENZO_71_1
  -OEChem-08232013523D

 47 50  0     0  0  0  0  0  0999 V2000
    4.2460    1.7520   20.8250 C   0  0  0  0  0  0  0  0  0  0  0  0
    3.8860    2.1050   19.5250 C   0  0  0  0  0  0  0  0  0  0  0  0
    5.3890    1.0010   21.0690 C   0  0  0  0  0  0  0  0  0  0  0  0
    9.1890   -3.5540   24.0140 C   0  0  0  0  0  0  0  0  0  0  0  0
    7.8700   -2.0610   25.3550 C   0  0  0  0  0  0  0  0  0  0  0  0
    4.6610    1.7170   18.4380 C   0  0  0  0  0  0  0  0  0  0  0  0
    9.5890   -2.4950   23.2210 C   0  0  0  0  0  0  0  0  0  0  0  0
    8.2550   -1.0010   24.5520 C   0  0  0  0  0  0  0  0  0  0  0  0
   13.2125    0.4715   23.8159 C   0  0  0  0  0  0  0  0  0  0  0  0
   12.3922   -0.8730   22.2815 C   0  0  0  0  0  0  0  0  0  0  0  0
    6.1460    0.6070   19.9750 C   0  0  0  0  0  0  0  0  0  0  0  0
    8.3450   -3.3440   25.0980 C   0  0  0  0  0  0  0  0  0  0  0  0
   12.0244    0.1335   23.1407 C   0  0  0  0  0  0  0  0  0  0  0  0
    5.7970    0.9500   18.6730 C   0  0  0  0  0  0  0  0  0  0  0  0
    9.1280   -1.2090   23.4870 C   0  0  0  0  0  0  0  0  0  0  0  0
    7.2710   -0.1460   19.8310 C   0  0  0  0  0  0  0  0  0  0  0  0
    9.0430    0.2380   21.4940 C   0  0  0  0  0  0  0  0  0  0  0  0
    7.9522   -4.4794   25.9764 C   0  0  0  0  0  0  0  0  0  0  0  0
   14.5642   -2.0301   21.8101 C   0  0  0  0  0  0  0  0  0  0  0  0
   10.6602    0.7344   23.3196 C   0  0  0  0  0  0  0  0  0  0  0  0
   14.2569   -0.2609   23.4199 N   0  0  0  0  0  0  0  0  0  0  0  0
    7.5840   -0.2700   18.5160 N   0  0  0  0  0  0  0  0  0  0  0  0
    6.7100    0.3850   17.8100 N   0  0  0  0  0  0  0  0  0  0  0  0
   13.7262   -1.0692   22.4865 N   0  0  0  0  0  0  0  0  0  0  0  0
    8.0950   -0.7700   20.8440 N   0  0  0  0  0  0  0  0  0  0  0  0
    9.5820   -0.1080   22.7000 N   0  0  0  0  0  0  0  0  0  0  0  0
    9.2950    1.3000   20.9480 O   0  0  0  0  0  0  0  0  0  0  0  0
    3.6223    2.0725   21.6574 H   0  0  0  0  0  0  0  0  0  0  0  0
    2.9864    2.6933   19.3609 H   0  0  0  0  0  0  0  0  0  0  0  0
    5.6689    0.7392   22.0836 H   0  0  0  0  0  0  0  0  0  0  0  0
    9.5403   -4.5627   23.7809 H   0  0  0  0  0  0  0  0  0  0  0  0
    7.1911   -1.8848   26.1904 H   0  0  0  0  0  0  0  0  0  0  0  0
    4.3807    2.0116   17.4186 H   0  0  0  0  0  0  0  0  0  0  0  0
   10.2682   -2.6746   22.3865 H   0  0  0  0  0  0  0  0  0  0  0  0
    7.8684   -0.0022   24.7594 H   0  0  0  0  0  0  0  0  0  0  0  0
   13.3631    1.2199   24.5810 H   0  0  0  0  0  0  0  0  0  0  0  0
   11.8319   -1.4527   21.5604 H   0  0  0  0  0  0  0  0  0  0  0  0
    8.6668   -4.5891   26.8013 H   0  0  0  0  0  0  0  0  0  0  0  0
    6.9513   -4.3276   26.4010 H   0  0  0  0  0  0  0  0  0  0  0  0
    7.9196   -5.4231   25.4163 H   0  0  0  0  0  0  0  0  0  0  0  0
   14.9765   -1.5497   20.9189 H   0  0  0  0  0  0  0  0  0  0  0  0
   15.3682   -2.3473   22.4800 H   0  0  0  0  0  0  0  0  0  0  0  0
   13.9641   -2.9013   21.5332 H   0  0  0  0  0  0  0  0  0  0  0  0
   10.4223    0.8423   24.3835 H   0  0  0  0  0  0  0  0  0  0  0  0
   10.6086    1.7324   22.8720 H   0  0  0  0  0  0  0  0  0  0  0  0
    6.7486    0.4313   16.8331 H   0  0  0  0  0  0  0  0  0  0  0  0
    8.0733   -1.6163   21.0749 H   0  0  0  0  0  0  0  0  0  0  0  0
  1  2  1  0  0  0  0
  1  3  2  0  0  0  0
  2  6  2  0  0  0  0
  3 11  1  0  0  0  0
  4  7  2  0  0  0  0
  4 12  1  0  0  0  0
  5  8  1  0  0  0  0
  5 12  2  0  0  0  0
  6 14  1  0  0  0  0
  7 15  1  0  0  0  0
  8 15  2  0  0  0  0
  9 13  1  0  0  0  0
  9 21  2  0  0  0  0
 10 13  2  0  0  0  0
 10 24  1  0  0  0  0
 11 14  2  0  0  0  0
 11 16  1  0  0  0  0
 12 18  1  0  0  0  0
 13 20  1  0  0  0  0
 14 23  1  0  0  0  0
 15 26  1  0  0  0  0
 16 22  2  0  0  0  0
 16 25  1  0  0  0  0
 17 25  1  0  0  0  0
 17 26  1  0  0  0  0
 17 27  2  0  0  0  0
 19 24  1  0  0  0  0
 20 26  1  0  0  0  0
 21 24  1  0  0  0  0
 22 23  1  0  0  0  0
  1 28  1  0  0  0  0
  2 29  1  0  0  0  0
  3 30  1  0  0  0  0
  4 31  1  0  0  0  0
  5 32  1  0  0  0  0
  6 33  1  0  0  0  0
  7 34  1  0  0  0  0
  8 35  1  0  0  0  0
  9 36  1  0  0  0  0
 10 37  1  0  0  0  0
 18 38  1  0  0  0  0
 18 39  1  0  0  0  0
 18 40  1  0  0  0  0
 19 41  1  0  0  0  0
 19 42  1  0  0  0  0
 19 43  1  0  0  0  0
 20 44  1  0  0  0  0
 20 45  1  0  0  0  0
 23 46  1  0  0  0  0
 25 47  1  0  0  0  0
M  END
> <clash_score>
0

> <docking_score>
-7.780852317810059

> <overlap_score>
0.8875596523284912

$$$$
BENZO_70_1
  -OEChem-08232013523D

 47 50  0     0  0  0  0  0  0999 V2000
    4.2460    1.7520   20.8250 C   0  0  0  0  0  0  0  0  0  0  0  0
    3.8860    2.1050   19.5250 C   0  0  0  0  0  0  0  0  0  0  0  0
   13.5770   -0.8944   25.1115 C   0  0  0  0  0  0  0  0  0  0  0  0
    5.3890    1.0010   21.0690 C   0  0  0  0  0  0  0  0  0  0  0  0
   12.4107   -0.1673   24.8736 C   0  0  0  0  0  0  0  0  0  0  0  0
    9.1890   -3.5540   24.0140 C   0  0  0  0  0  0  0  0  0  0  0  0
    7.8700   -2.0610   25.3550 C   0  0  0  0  0  0  0  0  0  0  0  0
    4.6610    1.7170   18.4380 C   0  0  0  0  0  0  0  0  0  0  0  0
    9.5890   -2.4950   23.2210 C   0  0  0  0  0  0  0  0  0  0  0  0
    8.2550   -1.0010   24.5520 C   0  0  0  0  0  0  0  0  0  0  0  0
   14.2489   -1.5018   24.0507 C   0  0  0  0  0  0  0  0  0  0  0  0
   12.5881   -0.6548   22.5139 C   0  0  0  0  0  0  0  0  0  0  0  0
    6.1460    0.6070   19.9750 C   0  0  0  0  0  0  0  0  0  0  0  0
    8.3450   -3.3440   25.0980 C   0  0  0  0  0  0  0  0  0  0  0  0
   11.9163   -0.0475   23.5748 C   0  0  0  0  0  0  0  0  0  0  0  0
    5.7970    0.9500   18.6730 C   0  0  0  0  0  0  0  0  0  0  0  0
    9.1280   -1.2090   23.4870 C   0  0  0  0  0  0  0  0  0  0  0  0
   13.7544   -1.3820   22.7519 C   0  0  0  0  0  0  0  0  0  0  0  0
    7.2710   -0.1460   19.8310 C   0  0  0  0  0  0  0  0  0  0  0  0
    9.0430    0.2380   21.4940 C   0  0  0  0  0  0  0  0  0  0  0  0
    7.9522   -4.4794   25.9764 C   0  0  0  0  0  0  0  0  0  0  0  0
   10.6602    0.7344   23.3196 C   0  0  0  0  0  0  0  0  0  0  0  0
    7.5840   -0.2700   18.5160 N   0  0  0  0  0  0  0  0  0  0  0  0
    6.7100    0.3850   17.8100 N   0  0  0  0  0  0  0  0  0  0  0  0
    8.0950   -0.7700   20.8440 N   0  0  0  0  0  0  0  0  0  0  0  0
    9.5820   -0.1080   22.7000 N   0  0  0  0  0  0  0  0  0  0  0  0
    9.2950    1.3000   20.9480 O   0  0  0  0  0  0  0  0  0  0  0  0
   14.5832   -2.1325   21.4436 Cl  0  0  0  0  0  0  0  0  0  0  0  0
    3.6223    2.0725   21.6574 H   0  0  0  0  0  0  0  0  0  0  0  0
    2.9864    2.6933   19.3609 H   0  0  0  0  0  0  0  0  0  0  0  0
   13.9616   -0.9876   26.1231 H   0  0  0  0  0  0  0  0  0  0  0  0
    5.6689    0.7392   22.0836 H   0  0  0  0  0  0  0  0  0  0  0  0
   11.8937    0.3025   25.7062 H   0  0  0  0  0  0  0  0  0  0  0  0
    9.5403   -4.5627   23.7809 H   0  0  0  0  0  0  0  0  0  0  0  0
    7.1911   -1.8848   26.1904 H   0  0  0  0  0  0  0  0  0  0  0  0
    4.3807    2.0116   17.4186 H   0  0  0  0  0  0  0  0  0  0  0  0
   10.2682   -2.6746   22.3865 H   0  0  0  0  0  0  0  0  0  0  0  0
    7.8684   -0.0022   24.7594 H   0  0  0  0  0  0  0  0  0  0  0  0
   15.1566   -2.0657   24.2510 H   0  0  0  0  0  0  0  0  0  0  0  0
   12.1988   -0.5581   21.5031 H   0  0  0  0  0  0  0  0  0  0  0  0
    8.6668   -4.5891   26.8013 H   0  0  0  0  0  0  0  0  0  0  0  0
    6.9513   -4.3276   26.4010 H   0  0  0  0  0  0  0  0  0  0  0  0
    7.9196   -5.4231   25.4163 H   0  0  0  0  0  0  0  0  0  0  0  0
   10.2621    1.1417   24.2554 H   0  0  0  0  0  0  0  0  0  0  0  0
   10.8530    1.5810   22.6524 H   0  0  0  0  0  0  0  0  0  0  0  0
    6.7486    0.4313   16.8331 H   0  0  0  0  0  0  0  0  0  0  0  0
    8.0733   -1.6163   21.0749 H   0  0  0  0  0  0  0  0  0  0  0  0
  1  2  1  0  0  0  0
  1  4  2  0  0  0  0
  2  8  2  0  0  0  0
  3  5  2  0  0  0  0
  3 11  1  0  0  0  0
  4 13  1  0  0  0  0
  5 15  1  0  0  0  0
  6  9  2  0  0  0  0
  6 14  1  0  0  0  0
  7 10  1  0  0  0  0
  7 14  2  0  0  0  0
  8 16  1  0  0  0  0
  9 17  1  0  0  0  0
 10 17  2  0  0  0  0
 11 18  2  0  0  0  0
 12 15  2  0  0  0  0
 12 18  1  0  0  0  0
 13 16  2  0  0  0  0
 13 19  1  0  0  0  0
 14 21  1  0  0  0  0
 15 22  1  0  0  0  0
 16 24  1  0  0  0  0
 17 26  1  0  0  0  0
 18 28  1  0  0  0  0
 19 23  2  0  0  0  0
 19 25  1  0  0  0  0
 20 25  1  0  0  0  0
 20 26  1  0  0  0  0
 20 27  2  0  0  0  0
 22 26  1  0  0  0  0
 23 24  1  0  0  0  0
  1 29  1  0  0  0  0
  2 30  1  0  0  0  0
  3 31  1  0  0  0  0
  4 32  1  0  0  0  0
  5 33  1  0  0  0  0
  6 34  1  0  0  0  0
  7 35  1  0  0  0  0
  8 36  1  0  0  0  0
  9 37  1  0  0  0  0
 10 38  1  0  0  0  0
 11 39  1  0  0  0  0
 12 40  1  0  0  0  0
 21 41  1  0  0  0  0
 21 42  1  0  0  0  0
 21 43  1  0  0  0  0
 22 44  1  0  0  0  0
 22 45  1  0  0  0  0
 24 46  1  0  0  0  0
 25 47  1  0  0  0  0
M  END
> <clash_score>
0

> <docking_score>
-6.7752227783203125

> <overlap_score>
0.9026817679405212

$$$$
BENZO_73_1
  -OEChem-08232013523D

 48 51  0     0  0  0  0  0  0999 V2000
   14.2497   -1.5013   24.0483 C   0  0  0  0  0  0  0  0  0  0  0  0
    4.2460    1.7520   20.8250 C   0  0  0  0  0  0  0  0  0  0  0  0
   13.9177   -0.4271   24.8737 C   0  0  0  0  0  0  0  0  0  0  0  0
   13.4150   -1.8486   22.9860 C   0  0  0  0  0  0  0  0  0  0  0  0
    3.8860    2.1050   19.5250 C   0  0  0  0  0  0  0  0  0  0  0  0
    5.3890    1.0010   21.0690 C   0  0  0  0  0  0  0  0  0  0  0  0
   12.7510    0.2998   24.6370 C   0  0  0  0  0  0  0  0  0  0  0  0
   12.2483   -1.1217   22.7493 C   0  0  0  0  0  0  0  0  0  0  0  0
    4.6610    1.7170   18.4380 C   0  0  0  0  0  0  0  0  0  0  0  0
    9.5890   -2.4950   23.2210 C   0  0  0  0  0  0  0  0  0  0  0  0
    8.2550   -1.0010   24.5520 C   0  0  0  0  0  0  0  0  0  0  0  0
    9.1890   -3.5540   24.0140 C   0  0  0  0  0  0  0  0  0  0  0  0
    7.8700   -2.0610   25.3550 C   0  0  0  0  0  0  0  0  0  0  0  0
    6.1460    0.6070   19.9750 C   0  0  0  0  0  0  0  0  0  0  0  0
   11.9163   -0.0475   23.5748 C   0  0  0  0  0  0  0  0  0  0  0  0
    5.7970    0.9500   18.6730 C   0  0  0  0  0  0  0  0  0  0  0  0
    9.1280   -1.2090   23.4870 C   0  0  0  0  0  0  0  0  0  0  0  0
    8.3450   -3.3440   25.0980 C   0  0  0  0  0  0  0  0  0  0  0  0
    7.2710   -0.1460   19.8310 C   0  0  0  0  0  0  0  0  0  0  0  0
    9.0430    0.2380   21.4940 C   0  0  0  0  0  0  0  0  0  0  0  0
    8.5123   -5.6657   25.5745 C   0  0  0  0  0  0  0  0  0  0  0  0
   10.6602    0.7344   23.3196 C   0  0  0  0  0  0  0  0  0  0  0  0
    7.5840   -0.2700   18.5160 N   0  0  0  0  0  0  0  0  0  0  0  0
    6.7100    0.3850   17.8100 N   0  0  0  0  0  0  0  0  0  0  0  0
    8.0950   -0.7700   20.8440 N   0  0  0  0  0  0  0  0  0  0  0  0
    9.5820   -0.1080   22.7000 N   0  0  0  0  0  0  0  0  0  0  0  0
    9.2950    1.3000   20.9480 O   0  0  0  0  0  0  0  0  0  0  0  0
    7.9864   -4.3799   25.8996 O   0  0  0  0  0  0  0  0  0  0  0  0
   15.1589   -2.0664   24.2319 H   0  0  0  0  0  0  0  0  0  0  0  0
    3.6223    2.0725   21.6574 H   0  0  0  0  0  0  0  0  0  0  0  0
   14.5681   -0.1559   25.7002 H   0  0  0  0  0  0  0  0  0  0  0  0
   13.6737   -2.6842   22.3425 H   0  0  0  0  0  0  0  0  0  0  0  0
    2.9864    2.6933   19.3609 H   0  0  0  0  0  0  0  0  0  0  0  0
    5.6689    0.7392   22.0836 H   0  0  0  0  0  0  0  0  0  0  0  0
   12.5003    1.1352   25.2855 H   0  0  0  0  0  0  0  0  0  0  0  0
   11.6039   -1.3996   21.9194 H   0  0  0  0  0  0  0  0  0  0  0  0
    4.3807    2.0116   17.4186 H   0  0  0  0  0  0  0  0  0  0  0  0
   10.2678   -2.6746   22.3862 H   0  0  0  0  0  0  0  0  0  0  0  0
    7.8691   -0.0023   24.7606 H   0  0  0  0  0  0  0  0  0  0  0  0
    9.5404   -4.5633   23.7846 H   0  0  0  0  0  0  0  0  0  0  0  0
    7.1920   -1.8875   26.1914 H   0  0  0  0  0  0  0  0  0  0  0  0
    8.1470   -6.4023   26.2943 H   0  0  0  0  0  0  0  0  0  0  0  0
    9.6044   -5.6298   25.5961 H   0  0  0  0  0  0  0  0  0  0  0  0
    8.1786   -5.9430   24.5718 H   0  0  0  0  0  0  0  0  0  0  0  0
   10.2621    1.1417   24.2554 H   0  0  0  0  0  0  0  0  0  0  0  0
   10.8530    1.5810   22.6524 H   0  0  0  0  0  0  0  0  0  0  0  0
    6.7486    0.4313   16.8331 H   0  0  0  0  0  0  0  0  0  0  0  0
    8.0733   -1.6163   21.0749 H   0  0  0  0  0  0  0  0  0  0  0  0
  1  3  1  0  0  0  0
  1  4  2  0  0  0  0
  2  5  1  0  0  0  0
  2  6  2  0  0  0  0
  3  7  2  0  0  0  0
  4  8  1  0  0  0  0
  5  9  2  0  0  0  0
  6 14  1  0  0  0  0
  7 15  1  0  0  0  0
  8 15  2  0  0  0  0
  9 16  1  0  0  0  0
 10 12  2  0  0  0  0
 10 17  1  0  0  0  0
 11 13  1  0  0  0  0
 11 17  2  0  0  0  0
 12 18  1  0  0  0  0
 13 18  2  0  0  0  0
 14 16  2  0  0  0  0
 14 19  1  0  0  0  0
 15 22  1  0  0  0  0
 16 24  1  0  0  0  0
 17 26  1  0  0  0  0
 18 28  1  0  0  0  0
 19 23  2  0  0  0  0
 19 25  1  0  0  0  0
 20 25  1  0  0  0  0
 20 26  1  0  0  0  0
 20 27  2  0  0  0  0
 21 28  1  0  0  0  0
 22 26  1  0  0  0  0
 23 24  1  0  0  0  0
  1 29  1  0  0  0  0
  2 30  1  0  0  0  0
  3 31  1  0  0  0  0
  4 32  1  0  0  0  0
  5 33  1  0  0  0  0
  6 34  1  0  0  0  0
  7 35  1  0  0  0  0
  8 36  1  0  0  0  0
  9 37  1  0  0  0  0
 10 38  1  0  0  0  0
 11 39  1  0  0  0  0
 12 40  1  0  0  0  0
 13 41  1  0  0  0  0
 21 42  1  0  0  0  0
 21 43  1  0  0  0  0
 21 44  1  0  0  0  0
 22 45  1  0  0  0  0
 22 46  1  0  0  0  0
 24 47  1  0  0  0  0
 25 48  1  0  0  0  0
M  END
> <clash_score>
0

> <docking_score>
-7.655206680297852

> <overlap_score>
0.9059272408485413

$$$$
BENZO_72_1
  -OEChem-08232013523D

 45 48  0     0  0  0  0  0  0999 V2000
    4.2460    1.7520   20.8250 C   0  0  0  0  0  0  0  0  0  0  0  0
    3.8860    2.1050   19.5250 C   0  0  0  0  0  0  0  0  0  0  0  0
    5.3890    1.0010   21.0690 C   0  0  0  0  0  0  0  0  0  0  0  0
    4.6610    1.7170   18.4380 C   0  0  0  0  0  0  0  0  0  0  0  0
    9.5890   -2.4950   23.2210 C   0  0  0  0  0  0  0  0  0  0  0  0
    8.2550   -1.0010   24.5520 C   0  0  0  0  0  0  0  0  0  0  0  0
    9.1890   -3.5540   24.0140 C   0  0  0  0  0  0  0  0  0  0  0  0
    7.8700   -2.0610   25.3550 C   0  0  0  0  0  0  0  0  0  0  0  0
   12.6676   -0.6992   22.5546 C   0  0  0  0  0  0  0  0  0  0  0  0
   13.7745   -1.3451   23.0596 C   0  0  0  0  0  0  0  0  0  0  0  0
   12.4775   -0.2204   24.8210 C   0  0  0  0  0  0  0  0  0  0  0  0
    6.1460    0.6070   19.9750 C   0  0  0  0  0  0  0  0  0  0  0  0
   11.9163   -0.0475   23.5748 C   0  0  0  0  0  0  0  0  0  0  0  0
    5.7970    0.9500   18.6730 C   0  0  0  0  0  0  0  0  0  0  0  0
    9.1280   -1.2090   23.4870 C   0  0  0  0  0  0  0  0  0  0  0  0
    8.3450   -3.3440   25.0980 C   0  0  0  0  0  0  0  0  0  0  0  0
    7.2710   -0.1460   19.8310 C   0  0  0  0  0  0  0  0  0  0  0  0
    9.0430    0.2380   21.4940 C   0  0  0  0  0  0  0  0  0  0  0  0
    8.5123   -5.6657   25.5745 C   0  0  0  0  0  0  0  0  0  0  0  0
   10.6602    0.7344   23.3196 C   0  0  0  0  0  0  0  0  0  0  0  0
    7.5840   -0.2700   18.5160 N   0  0  0  0  0  0  0  0  0  0  0  0
    6.7100    0.3850   17.8100 N   0  0  0  0  0  0  0  0  0  0  0  0
    8.0950   -0.7700   20.8440 N   0  0  0  0  0  0  0  0  0  0  0  0
    9.5820   -0.1080   22.7000 N   0  0  0  0  0  0  0  0  0  0  0  0
    9.2950    1.3000   20.9480 O   0  0  0  0  0  0  0  0  0  0  0  0
    7.9864   -4.3799   25.8996 O   0  0  0  0  0  0  0  0  0  0  0  0
   13.9045   -1.1647   24.7576 S   0  0  0  0  0  0  0  0  0  0  0  0
    3.6223    2.0725   21.6574 H   0  0  0  0  0  0  0  0  0  0  0  0
    2.9864    2.6933   19.3609 H   0  0  0  0  0  0  0  0  0  0  0  0
    5.6689    0.7392   22.0836 H   0  0  0  0  0  0  0  0  0  0  0  0
    4.3807    2.0116   17.4186 H   0  0  0  0  0  0  0  0  0  0  0  0
   10.2678   -2.6746   22.3862 H   0  0  0  0  0  0  0  0  0  0  0  0
    7.8691   -0.0023   24.7606 H   0  0  0  0  0  0  0  0  0  0  0  0
    9.5404   -4.5633   23.7846 H   0  0  0  0  0  0  0  0  0  0  0  0
    7.1920   -1.8875   26.1914 H   0  0  0  0  0  0  0  0  0  0  0  0
   12.4125   -0.6972   21.5023 H   0  0  0  0  0  0  0  0  0  0  0  0
   14.5127   -1.9148   22.5130 H   0  0  0  0  0  0  0  0  0  0  0  0
   12.1205    0.1599   25.7681 H   0  0  0  0  0  0  0  0  0  0  0  0
    8.1470   -6.4023   26.2943 H   0  0  0  0  0  0  0  0  0  0  0  0
    9.6044   -5.6298   25.5961 H   0  0  0  0  0  0  0  0  0  0  0  0
    8.1786   -5.9430   24.5718 H   0  0  0  0  0  0  0  0  0  0  0  0
   10.2621    1.1417   24.2554 H   0  0  0  0  0  0  0  0  0  0  0  0
   10.8530    1.5810   22.6524 H   0  0  0  0  0  0  0  0  0  0  0  0
    6.7486    0.4313   16.8331 H   0  0  0  0  0  0  0  0  0  0  0  0
    8.0733   -1.6163   21.0749 H   0  0  0  0  0  0  0  0  0  0  0  0
  1  2  1  0  0  0  0
  1  3  2  0  0  0  0
  2  4  2  0  0  0  0
  3 12  1  0  0  0  0
  4 14  1  0  0  0  0
  5  7  2  0  0  0  0
  5 15  1  0  0  0  0
  6  8  1  0  0  0  0
  6 15  2  0  0  0  0
  7 16  1  0  0  0  0
  8 16  2  0  0  0  0
  9 10  2  0  0  0  0
  9 13  1  0  0  0  0
 10 27  1  0  0  0  0
 11 13  2  0  0  0  0
 11 27  1  0  0  0  0
 12 14  2  0  0  0  0
 12 17  1  0  0  0  0
 13 20  1  0  0  0  0
 14 22  1  0  0  0  0
 15 24  1  0  0  0  0
 16 26  1  0  0  0  0
 17 21  2  0  0  0  0
 17 23  1  0  0  0  0
 18 23  1  0  0  0  0
 18 24  1  0  0  0  0
 18 25  2  0  0  0  0
 19 26  1  0  0  0  0
 20 24  1  0  0  0  0
 21 22  1  0  0  0  0
  1 28  1  0  0  0  0
  2 29  1  0  0  0  0
  3 30  1  0  0  0  0
  4 31  1  0  0  0  0
  5 32  1  0  0  0  0
  6 33  1  0  0  0  0
  7 34  1  0  0  0  0
  8 35  1  0  0  0  0
  9 36  1  0  0  0  0
 10 37  1  0  0  0  0
 11 38  1  0  0  0  0
 19 39  1  0  0  0  0
 19 40  1  0  0  0  0
 19 41  1  0  0  0  0
 20 42  1  0  0  0  0
 20 43  1  0  0  0  0
 22 44  1  0  0  0  0
 23 45  1  0  0  0  0
M  END
> <clash_score>
0

> <docking_score>
-7.4504289627075195

> <overlap_score>
0.8936448097229004

$$$$
BENZO_75_1
  -OEChem-08232013523D

 48 51  0     0  0  0  0  0  0999 V2000
    4.2460    1.7520   20.8250 C   0  0  0  0  0  0  0  0  0  0  0  0
    3.8860    2.1050   19.5250 C   0  0  0  0  0  0  0  0  0  0  0  0
    5.3890    1.0010   21.0690 C   0  0  0  0  0  0  0  0  0  0  0  0
    4.6610    1.7170   18.4380 C   0  0  0  0  0  0  0  0  0  0  0  0
    9.5890   -2.4950   23.2210 C   0  0  0  0  0  0  0  0  0  0  0  0
    8.2550   -1.0010   24.5520 C   0  0  0  0  0  0  0  0  0  0  0  0
    9.1890   -3.5540   24.0140 C   0  0  0  0  0  0  0  0  0  0  0  0
    7.8700   -2.0610   25.3550 C   0  0  0  0  0  0  0  0  0  0  0  0
   13.2125    0.4715   23.8159 C   0  0  0  0  0  0  0  0  0  0  0  0
   12.3922   -0.8730   22.2815 C   0  0  0  0  0  0  0  0  0  0  0  0
    6.1460    0.6070   19.9750 C   0  0  0  0  0  0  0  0  0  0  0  0
   12.0244    0.1335   23.1407 C   0  0  0  0  0  0  0  0  0  0  0  0
    5.7970    0.9500   18.6730 C   0  0  0  0  0  0  0  0  0  0  0  0
    9.1280   -1.2090   23.4870 C   0  0  0  0  0  0  0  0  0  0  0  0
    8.3450   -3.3440   25.0980 C   0  0  0  0  0  0  0  0  0  0  0  0
    7.2710   -0.1460   19.8310 C   0  0  0  0  0  0  0  0  0  0  0  0
    9.0430    0.2380   21.4940 C   0  0  0  0  0  0  0  0  0  0  0  0
   14.5642   -2.0301   21.8101 C   0  0  0  0  0  0  0  0  0  0  0  0
    7.1173   -4.0856   26.9923 C   0  0  0  0  0  0  0  0  0  0  0  0
   10.6602    0.7344   23.3196 C   0  0  0  0  0  0  0  0  0  0  0  0
   14.2569   -0.2609   23.4199 N   0  0  0  0  0  0  0  0  0  0  0  0
    7.5840   -0.2700   18.5160 N   0  0  0  0  0  0  0  0  0  0  0  0
    6.7100    0.3850   17.8100 N   0  0  0  0  0  0  0  0  0  0  0  0
   13.7262   -1.0692   22.4865 N   0  0  0  0  0  0  0  0  0  0  0  0
    8.0950   -0.7700   20.8440 N   0  0  0  0  0  0  0  0  0  0  0  0
    9.5820   -0.1080   22.7000 N   0  0  0  0  0  0  0  0  0  0  0  0
    9.2950    1.3000   20.9480 O   0  0  0  0  0  0  0  0  0  0  0  0
    7.9864   -4.3799   25.8996 O   0  0  0  0  0  0  0  0  0  0  0  0
    3.6223    2.0725   21.6574 H   0  0  0  0  0  0  0  0  0  0  0  0
    2.9864    2.6933   19.3609 H   0  0  0  0  0  0  0  0  0  0  0  0
    5.6689    0.7392   22.0836 H   0  0  0  0  0  0  0  0  0  0  0  0
    4.3807    2.0116   17.4186 H   0  0  0  0  0  0  0  0  0  0  0  0
   10.2678   -2.6746   22.3862 H   0  0  0  0  0  0  0  0  0  0  0  0
    7.8691   -0.0023   24.7606 H   0  0  0  0  0  0  0  0  0  0  0  0
    9.5404   -4.5633   23.7846 H   0  0  0  0  0  0  0  0  0  0  0  0
    7.1920   -1.8875   26.1914 H   0  0  0  0  0  0  0  0  0  0  0  0
   13.3631    1.2199   24.5810 H   0  0  0  0  0  0  0  0  0  0  0  0
   11.8319   -1.4527   21.5604 H   0  0  0  0  0  0  0  0  0  0  0  0
   14.9765   -1.5497   20.9189 H   0  0  0  0  0  0  0  0  0  0  0  0
   15.3682   -2.3473   22.4800 H   0  0  0  0  0  0  0  0  0  0  0  0
   13.9641   -2.9013   21.5332 H   0  0  0  0  0  0  0  0  0  0  0  0
    6.9106   -5.0016   27.5512 H   0  0  0  0  0  0  0  0  0  0  0  0
    6.1852   -3.6593   26.6130 H   0  0  0  0  0  0  0  0  0  0  0  0
    7.6054   -3.3625   27.6499 H   0  0  0  0  0  0  0  0  0  0  0  0
   10.4223    0.8423   24.3835 H   0  0  0  0  0  0  0  0  0  0  0  0
   10.6086    1.7324   22.8720 H   0  0  0  0  0  0  0  0  0  0  0  0
    6.7486    0.4313   16.8331 H   0  0  0  0  0  0  0  0  0  0  0  0
    8.0733   -1.6163   21.0749 H   0  0  0  0  0  0  0  0  0  0  0  0
  1  2  1  0  0  0  0
  1  3  2  0  0  0  0
  2  4  2  0  0  0  0
  3 11  1  0  0  0  0
  4 13  1  0  0  0  0
  5  7  2  0  0  0  0
  5 14  1  0  0  0  0
  6  8  1  0  0  0  0
  6 14  2  0  0  0  0
  7 15  1  0  0  0  0
  8 15  2  0  0  0  0
  9 12  1  0  0  0  0
  9 21  2  0  0  0  0
 10 12  2  0  0  0  0
 10 24  1  0  0  0  0
 11 13  2  0  0  0  0
 11 16  1  0  0  0  0
 12 20  1  0  0  0  0
 13 23  1  0  0  0  0
 14 26  1  0  0  0  0
 15 28  1  0  0  0  0
 16 22  2  0  0  0  0
 16 25  1  0  0  0  0
 17 25  1  0  0  0  0
 17 26  1  0  0  0  0
 17 27  2  0  0  0  0
 18 24  1  0  0  0  0
 19 28  1  0  0  0  0
 20 26  1  0  0  0  0
 21 24  1  0  0  0  0
 22 23  1  0  0  0  0
  1 29  1  0  0  0  0
  2 30  1  0  0  0  0
  3 31  1  0  0  0  0
  4 32  1  0  0  0  0
  5 33  1  0  0  0  0
  6 34  1  0  0  0  0
  7 35  1  0  0  0  0
  8 36  1  0  0  0  0
  9 37  1  0  0  0  0
 10 38  1  0  0  0  0
 18 39  1  0  0  0  0
 18 40  1  0  0  0  0
 18 41  1  0  0  0  0
 19 42  1  0  0  0  0
 19 43  1  0  0  0  0
 19 44  1  0  0  0  0
 20 45  1  0  0  0  0
 20 46  1  0  0  0  0
 23 47  1  0  0  0  0
 25 48  1  0  0  0  0
M  END
> <clash_score>
0

> <docking_score>
-7.318550109863281

> <overlap_score>
0.9071901440620422

$$$$
BENZO_74_1
  -OEChem-08232013523D

 48 51  0     0  0  0  0  0  0999 V2000
    4.2460    1.7520   20.8250 C   0  0  0  0  0  0  0  0  0  0  0  0
    3.8860    2.1050   19.5250 C   0  0  0  0  0  0  0  0  0  0  0  0
   13.5770   -0.8944   25.1115 C   0  0  0  0  0  0  0  0  0  0  0  0
    5.3890    1.0010   21.0690 C   0  0  0  0  0  0  0  0  0  0  0  0
   12.4107   -0.1673   24.8736 C   0  0  0  0  0  0  0  0  0  0  0  0
    4.6610    1.7170   18.4380 C   0  0  0  0  0  0  0  0  0  0  0  0
    9.5890   -2.4950   23.2210 C   0  0  0  0  0  0  0  0  0  0  0  0
    8.2550   -1.0010   24.5520 C   0  0  0  0  0  0  0  0  0  0  0  0
    9.1890   -3.5540   24.0140 C   0  0  0  0  0  0  0  0  0  0  0  0
    7.8700   -2.0610   25.3550 C   0  0  0  0  0  0  0  0  0  0  0  0
   14.2489   -1.5018   24.0507 C   0  0  0  0  0  0  0  0  0  0  0  0
   12.5881   -0.6548   22.5139 C   0  0  0  0  0  0  0  0  0  0  0  0
    6.1460    0.6070   19.9750 C   0  0  0  0  0  0  0  0  0  0  0  0
   11.9163   -0.0475   23.5748 C   0  0  0  0  0  0  0  0  0  0  0  0
    5.7970    0.9500   18.6730 C   0  0  0  0  0  0  0  0  0  0  0  0
    9.1280   -1.2090   23.4870 C   0  0  0  0  0  0  0  0  0  0  0  0
    8.3450   -3.3440   25.0980 C   0  0  0  0  0  0  0  0  0  0  0  0
   13.7544   -1.3820   22.7519 C   0  0  0  0  0  0  0  0  0  0  0  0
    7.2710   -0.1460   19.8310 C   0  0  0  0  0  0  0  0  0  0  0  0
    9.0430    0.2380   21.4940 C   0  0  0  0  0  0  0  0  0  0  0  0
    8.5123   -5.6657   25.5745 C   0  0  0  0  0  0  0  0  0  0  0  0
   10.6602    0.7344   23.3196 C   0  0  0  0  0  0  0  0  0  0  0  0
    7.5840   -0.2700   18.5160 N   0  0  0  0  0  0  0  0  0  0  0  0
    6.7100    0.3850   17.8100 N   0  0  0  0  0  0  0  0  0  0  0  0
    8.0950   -0.7700   20.8440 N   0  0  0  0  0  0  0  0  0  0  0  0
    9.5820   -0.1080   22.7000 N   0  0  0  0  0  0  0  0  0  0  0  0
    9.2950    1.3000   20.9480 O   0  0  0  0  0  0  0  0  0  0  0  0
    7.9864   -4.3799   25.8996 O   0  0  0  0  0  0  0  0  0  0  0  0
   14.5832   -2.1325   21.4436 Cl  0  0  0  0  0  0  0  0  0  0  0  0
    3.6223    2.0725   21.6574 H   0  0  0  0  0  0  0  0  0  0  0  0
    2.9864    2.6933   19.3609 H   0  0  0  0  0  0  0  0  0  0  0  0
   13.9616   -0.9876   26.1231 H   0  0  0  0  0  0  0  0  0  0  0  0
    5.6689    0.7392   22.0836 H   0  0  0  0  0  0  0  0  0  0  0  0
   11.8937    0.3025   25.7062 H   0  0  0  0  0  0  0  0  0  0  0  0
    4.3807    2.0116   17.4186 H   0  0  0  0  0  0  0  0  0  0  0  0
   10.2678   -2.6746   22.3862 H   0  0  0  0  0  0  0  0  0  0  0  0
    7.8691   -0.0023   24.7606 H   0  0  0  0  0  0  0  0  0  0  0  0
    9.5404   -4.5633   23.7846 H   0  0  0  0  0  0  0  0  0  0  0  0
    7.1920   -1.8875   26.1914 H   0  0  0  0  0  0  0  0  0  0  0  0
   15.1566   -2.0657   24.2510 H   0  0  0  0  0  0  0  0  0  0  0  0
   12.1988   -0.5581   21.5031 H   0  0  0  0  0  0  0  0  0  0  0  0
    8.1470   -6.4023   26.2943 H   0  0  0  0  0  0  0  0  0  0  0  0
    9.6044   -5.6298   25.5961 H   0  0  0  0  0  0  0  0  0  0  0  0
    8.1786   -5.9430   24.5718 H   0  0  0  0  0  0  0  0  0  0  0  0
   10.2621    1.1417   24.2554 H   0  0  0  0  0  0  0  0  0  0  0  0
   10.8530    1.5810   22.6524 H   0  0  0  0  0  0  0  0  0  0  0  0
    6.7486    0.4313   16.8331 H   0  0  0  0  0  0  0  0  0  0  0  0
    8.0733   -1.6163   21.0749 H   0  0  0  0  0  0  0  0  0  0  0  0
  1  2  1  0  0  0  0
  1  4  2  0  0  0  0
  2  6  2  0  0  0  0
  3  5  2  0  0  0  0
  3 11  1  0  0  0  0
  4 13  1  0  0  0  0
  5 14  1  0  0  0  0
  6 15  1  0  0  0  0
  7  9  2  0  0  0  0
  7 16  1  0  0  0  0
  8 10  1  0  0  0  0
  8 16  2  0  0  0  0
  9 17  1  0  0  0  0
 10 17  2  0  0  0  0
 11 18  2  0  0  0  0
 12 14  2  0  0  0  0
 12 18  1  0  0  0  0
 13 15  2  0  0  0  0
 13 19  1  0  0  0  0
 14 22  1  0  0  0  0
 15 24  1  0  0  0  0
 16 26  1  0  0  0  0
 17 28  1  0  0  0  0
 18 29  1  0  0  0  0
 19 23  2  0  0  0  0
 19 25  1  0  0  0  0
 20 25  1  0  0  0  0
 20 26  1  0  0  0  0
 20 27  2  0  0  0  0
 21 28  1  0  0  0  0
 22 26  1  0  0  0  0
 23 24  1  0  0  0  0
  1 30  1  0  0  0  0
  2 31  1  0  0  0  0
  3 32  1  0  0  0  0
  4 33  1  0  0  0  0
  5 34  1  0  0  0  0
  6 35  1  0  0  0  0
  7 36  1  0  0  0  0
  8 37  1  0  0  0  0
  9 38  1  0  0  0  0
 10 39  1  0  0  0  0
 11 40  1  0  0  0  0
 12 41  1  0  0  0  0
 21 42  1  0  0  0  0
 21 43  1  0  0  0  0
 21 44  1  0  0  0  0
 22 45  1  0  0  0  0
 22 46  1  0  0  0  0
 24 47  1  0  0  0  0
 25 48  1  0  0  0  0
M  END
> <clash_score>
0

> <docking_score>
-6.895383834838867

> <overlap_score>
0.9159323573112488

$$$$
BENZO_77_1
  -OEChem-08232013523D

 58 62  0     0  0  0  0  0  0999 V2000
   14.2457   -1.4860   24.0577 C   0  0  0  0  0  0  0  0  0  0  0  0
    4.2460    1.7520   20.8250 C   0  0  0  0  0  0  0  0  0  0  0  0
   13.9240   -0.3932   24.8625 C   0  0  0  0  0  0  0  0  0  0  0  0
   13.4039   -1.8500   23.0067 C   0  0  0  0  0  0  0  0  0  0  0  0
    3.8860    2.1050   19.5250 C   0  0  0  0  0  0  0  0  0  0  0  0
    5.3890    1.0010   21.0690 C   0  0  0  0  0  0  0  0  0  0  0  0
   12.7605    0.3357   24.6164 C   0  0  0  0  0  0  0  0  0  0  0  0
   12.2404   -1.1211   22.7606 C   0  0  0  0  0  0  0  0  0  0  0  0
    4.6610    1.7170   18.4380 C   0  0  0  0  0  0  0  0  0  0  0  0
    9.1890   -3.5540   24.0140 C   0  0  0  0  0  0  0  0  0  0  0  0
    7.8700   -2.0610   25.3550 C   0  0  0  0  0  0  0  0  0  0  0  0
    9.5890   -2.4950   23.2210 C   0  0  0  0  0  0  0  0  0  0  0  0
    8.2550   -1.0010   24.5520 C   0  0  0  0  0  0  0  0  0  0  0  0
    6.1460    0.6070   19.9750 C   0  0  0  0  0  0  0  0  0  0  0  0
   11.9186   -0.0282   23.5654 C   0  0  0  0  0  0  0  0  0  0  0  0
    5.7970    0.9500   18.6730 C   0  0  0  0  0  0  0  0  0  0  0  0
    8.3450   -3.3440   25.0980 C   0  0  0  0  0  0  0  0  0  0  0  0
    9.1280   -1.2090   23.4870 C   0  0  0  0  0  0  0  0  0  0  0  0
    7.2710   -0.1460   19.8310 C   0  0  0  0  0  0  0  0  0  0  0  0
    7.2752   -5.5548   25.4273 C   0  0  0  0  0  0  0  0  0  0  0  0
    9.0430    0.2380   21.4940 C   0  0  0  0  0  0  0  0  0  0  0  0
    7.1880   -6.7800   26.3209 C   0  0  0  0  0  0  0  0  0  0  0  0
    7.0916   -6.4753   27.7999 C   0  0  0  0  0  0  0  0  0  0  0  0
    8.2362   -5.5641   28.1841 C   0  0  0  0  0  0  0  0  0  0  0  0
    8.1241   -4.2655   27.4032 C   0  0  0  0  0  0  0  0  0  0  0  0
   10.6659    0.7557   23.3001 C   0  0  0  0  0  0  0  0  0  0  0  0
    7.5840   -0.2700   18.5160 N   0  0  0  0  0  0  0  0  0  0  0  0
    6.7100    0.3850   17.8100 N   0  0  0  0  0  0  0  0  0  0  0  0
    7.9635   -4.4452   25.9501 N   0  0  0  0  0  0  0  0  0  0  0  0
    8.0950   -0.7700   20.8440 N   0  0  0  0  0  0  0  0  0  0  0  0
    9.5820   -0.1080   22.7000 N   0  0  0  0  0  0  0  0  0  0  0  0
    6.7947   -5.6299   24.2931 O   0  0  0  0  0  0  0  0  0  0  0  0
    9.2950    1.3000   20.9480 O   0  0  0  0  0  0  0  0  0  0  0  0
   15.1524   -2.0526   24.2486 H   0  0  0  0  0  0  0  0  0  0  0  0
    3.6223    2.0725   21.6574 H   0  0  0  0  0  0  0  0  0  0  0  0
   14.5799   -0.1090   25.6803 H   0  0  0  0  0  0  0  0  0  0  0  0
   13.6546   -2.7001   22.3792 H   0  0  0  0  0  0  0  0  0  0  0  0
    2.9864    2.6933   19.3609 H   0  0  0  0  0  0  0  0  0  0  0  0
    5.6689    0.7392   22.0836 H   0  0  0  0  0  0  0  0  0  0  0  0
   12.5177    1.1856   25.2488 H   0  0  0  0  0  0  0  0  0  0  0  0
   11.5904   -1.4121   21.9396 H   0  0  0  0  0  0  0  0  0  0  0  0
    4.3807    2.0116   17.4186 H   0  0  0  0  0  0  0  0  0  0  0  0
    9.5436   -4.5614   23.7799 H   0  0  0  0  0  0  0  0  0  0  0  0
    7.1918   -1.8823   26.1906 H   0  0  0  0  0  0  0  0  0  0  0  0
   10.2676   -2.6754   22.3861 H   0  0  0  0  0  0  0  0  0  0  0  0
    7.8686   -0.0026   24.7598 H   0  0  0  0  0  0  0  0  0  0  0  0
    6.3101   -7.3613   26.0164 H   0  0  0  0  0  0  0  0  0  0  0  0
    8.0752   -7.3922   26.1183 H   0  0  0  0  0  0  0  0  0  0  0  0
    6.1328   -5.9938   28.0269 H   0  0  0  0  0  0  0  0  0  0  0  0
    7.1363   -7.4051   28.3772 H   0  0  0  0  0  0  0  0  0  0  0  0
    8.2035   -5.3520   29.2586 H   0  0  0  0  0  0  0  0  0  0  0  0
    9.1990   -6.0474   27.9788 H   0  0  0  0  0  0  0  0  0  0  0  0
    7.2505   -3.6996   27.7511 H   0  0  0  0  0  0  0  0  0  0  0  0
    9.0155   -3.6525   27.5824 H   0  0  0  0  0  0  0  0  0  0  0  0
   10.2619    1.1650   24.2325 H   0  0  0  0  0  0  0  0  0  0  0  0
   10.8653    1.6011   22.6333 H   0  0  0  0  0  0  0  0  0  0  0  0
    6.7486    0.4313   16.8331 H   0  0  0  0  0  0  0  0  0  0  0  0
    8.0897   -1.6082   21.0890 H   0  0  0  0  0  0  0  0  0  0  0  0
  1  3  1  0  0  0  0
  1  4  2  0  0  0  0
  2  5  1  0  0  0  0
  2  6  2  0  0  0  0
  3  7  2  0  0  0  0
  4  8  1  0  0  0  0
  5  9  2  0  0  0  0
  6 14  1  0  0  0  0
  7 15  1  0  0  0  0
  8 15  2  0  0  0  0
  9 16  1  0  0  0  0
 10 12  2  0  0  0  0
 10 17  1  0  0  0  0
 11 13  1  0  0  0  0
 11 17  2  0  0  0  0
 12 18  1  0  0  0  0
 13 18  2  0  0  0  0
 14 16  2  0  0  0  0
 14 19  1  0  0  0  0
 15 26  1  0  0  0  0
 16 28  1  0  0  0  0
 17 29  1  0  0  0  0
 18 31  1  0  0  0  0
 19 27  2  0  0  0  0
 19 30  1  0  0  0  0
 20 22  1  0  0  0  0
 20 29  1  0  0  0  0
 20 32  2  0  0  0  0
 21 30  1  0  0  0  0
 21 31  1  0  0  0  0
 21 33  2  0  0  0  0
 22 23  1  0  0  0  0
 23 24  1  0  0  0  0
 24 25  1  0  0  0  0
 25 29  1  0  0  0  0
 26 31  1  0  0  0  0
 27 28  1  0  0  0  0
  1 34  1  0  0  0  0
  2 35  1  0  0  0  0
  3 36  1  0  0  0  0
  4 37  1  0  0  0  0
  5 38  1  0  0  0  0
  6 39  1  0  0  0  0
  7 40  1  0  0  0  0
  8 41  1  0  0  0  0
  9 42  1  0  0  0  0
 10 43  1  0  0  0  0
 11 44  1  0  0  0  0
 12 45  1  0  0  0  0
 13 46  1  0  0  0  0
 22 47  1  0  0  0  0
 22 48  1  0  0  0  0
 23 49  1  0  0  0  0
 23 50  1  0  0  0  0
 24 51  1  0  0  0  0
 24 52  1  0  0  0  0
 25 53  1  0  0  0  0
 25 54  1  0  0  0  0
 26 55  1  0  0  0  0
 26 56  1  0  0  0  0
 28 57  1  0  0  0  0
 30 58  1  0  0  0  0
M  END
> <clash_score>
0

> <docking_score>
-7.4128899574279785

> <overlap_score>
0.9864965677261353

$$$$
BENZO_76_1
  -OEChem-08232013523D

 55 59  0     0  0  0  0  0  0999 V2000
    4.2460    1.7520   20.8250 C   0  0  0  0  0  0  0  0  0  0  0  0
    3.8860    2.1050   19.5250 C   0  0  0  0  0  0  0  0  0  0  0  0
    5.3890    1.0010   21.0690 C   0  0  0  0  0  0  0  0  0  0  0  0
    4.6610    1.7170   18.4380 C   0  0  0  0  0  0  0  0  0  0  0  0
    9.1890   -3.5540   24.0140 C   0  0  0  0  0  0  0  0  0  0  0  0
    7.8700   -2.0610   25.3550 C   0  0  0  0  0  0  0  0  0  0  0  0
    9.5890   -2.4950   23.2210 C   0  0  0  0  0  0  0  0  0  0  0  0
    8.2550   -1.0010   24.5520 C   0  0  0  0  0  0  0  0  0  0  0  0
   12.4870   -0.2035   24.8602 C   0  0  0  0  0  0  0  0  0  0  0  0
   13.6349   -0.9642   24.8227 C   0  0  0  0  0  0  0  0  0  0  0  0
   12.6540   -0.6615   22.5876 C   0  0  0  0  0  0  0  0  0  0  0  0
    6.1460    0.6070   19.9750 C   0  0  0  0  0  0  0  0  0  0  0  0
   11.9186   -0.0282   23.5654 C   0  0  0  0  0  0  0  0  0  0  0  0
    5.7970    0.9500   18.6730 C   0  0  0  0  0  0  0  0  0  0  0  0
    8.3450   -3.3440   25.0980 C   0  0  0  0  0  0  0  0  0  0  0  0
    9.1280   -1.2090   23.4870 C   0  0  0  0  0  0  0  0  0  0  0  0
    7.2710   -0.1460   19.8310 C   0  0  0  0  0  0  0  0  0  0  0  0
    7.2752   -5.5548   25.4273 C   0  0  0  0  0  0  0  0  0  0  0  0
    9.0430    0.2380   21.4940 C   0  0  0  0  0  0  0  0  0  0  0  0
    7.1880   -6.7800   26.3209 C   0  0  0  0  0  0  0  0  0  0  0  0
    7.0916   -6.4753   27.7999 C   0  0  0  0  0  0  0  0  0  0  0  0
    8.2362   -5.5641   28.1841 C   0  0  0  0  0  0  0  0  0  0  0  0
    8.1241   -4.2655   27.4032 C   0  0  0  0  0  0  0  0  0  0  0  0
   10.6659    0.7557   23.3001 C   0  0  0  0  0  0  0  0  0  0  0  0
    7.5840   -0.2700   18.5160 N   0  0  0  0  0  0  0  0  0  0  0  0
    6.7100    0.3850   17.8100 N   0  0  0  0  0  0  0  0  0  0  0  0
    7.9635   -4.4452   25.9501 N   0  0  0  0  0  0  0  0  0  0  0  0
    8.0950   -0.7700   20.8440 N   0  0  0  0  0  0  0  0  0  0  0  0
    9.5820   -0.1080   22.7000 N   0  0  0  0  0  0  0  0  0  0  0  0
    6.7947   -5.6299   24.2931 O   0  0  0  0  0  0  0  0  0  0  0  0
    9.2950    1.3000   20.9480 O   0  0  0  0  0  0  0  0  0  0  0  0
   14.0232   -1.4634   23.2314 S   0  0  0  0  0  0  0  0  0  0  0  0
    3.6223    2.0725   21.6574 H   0  0  0  0  0  0  0  0  0  0  0  0
    2.9864    2.6933   19.3609 H   0  0  0  0  0  0  0  0  0  0  0  0
    5.6689    0.7392   22.0836 H   0  0  0  0  0  0  0  0  0  0  0  0
    4.3807    2.0116   17.4186 H   0  0  0  0  0  0  0  0  0  0  0  0
    9.5436   -4.5614   23.7799 H   0  0  0  0  0  0  0  0  0  0  0  0
    7.1918   -1.8823   26.1906 H   0  0  0  0  0  0  0  0  0  0  0  0
   10.2676   -2.6754   22.3861 H   0  0  0  0  0  0  0  0  0  0  0  0
    7.8686   -0.0026   24.7598 H   0  0  0  0  0  0  0  0  0  0  0  0
   12.0782    0.2061   25.7752 H   0  0  0  0  0  0  0  0  0  0  0  0
   14.2645   -1.2500   25.6535 H   0  0  0  0  0  0  0  0  0  0  0  0
   12.4569   -0.6931   21.5249 H   0  0  0  0  0  0  0  0  0  0  0  0
    6.3101   -7.3613   26.0164 H   0  0  0  0  0  0  0  0  0  0  0  0
    8.0752   -7.3922   26.1183 H   0  0  0  0  0  0  0  0  0  0  0  0
    6.1328   -5.9938   28.0269 H   0  0  0  0  0  0  0  0  0  0  0  0
    7.1363   -7.4051   28.3772 H   0  0  0  0  0  0  0  0  0  0  0  0
    8.2035   -5.3520   29.2586 H   0  0  0  0  0  0  0  0  0  0  0  0
    9.1990   -6.0474   27.9788 H   0  0  0  0  0  0  0  0  0  0  0  0
    7.2505   -3.6996   27.7511 H   0  0  0  0  0  0  0  0  0  0  0  0
    9.0155   -3.6525   27.5824 H   0  0  0  0  0  0  0  0  0  0  0  0
   10.2619    1.1650   24.2325 H   0  0  0  0  0  0  0  0  0  0  0  0
   10.8653    1.6011   22.6333 H   0  0  0  0  0  0  0  0  0  0  0  0
    6.7486    0.4313   16.8331 H   0  0  0  0  0  0  0  0  0  0  0  0
    8.0897   -1.6082   21.0890 H   0  0  0  0  0  0  0  0  0  0  0  0
  1  2  1  0  0  0  0
  1  3  2  0  0  0  0
  2  4  2  0  0  0  0
  3 12  1  0  0  0  0
  4 14  1  0  0  0  0
  5  7  2  0  0  0  0
  5 15  1  0  0  0  0
  6  8  1  0  0  0  0
  6 15  2  0  0  0  0
  7 16  1  0  0  0  0
  8 16  2  0  0  0  0
  9 10  2  0  0  0  0
  9 13  1  0  0  0  0
 10 32  1  0  0  0  0
 11 13  2  0  0  0  0
 11 32  1  0  0  0  0
 12 14  2  0  0  0  0
 12 17  1  0  0  0  0
 13 24  1  0  0  0  0
 14 26  1  0  0  0  0
 15 27  1  0  0  0  0
 16 29  1  0  0  0  0
 17 25  2  0  0  0  0
 17 28  1  0  0  0  0
 18 20  1  0  0  0  0
 18 27  1  0  0  0  0
 18 30  2  0  0  0  0
 19 28  1  0  0  0  0
 19 29  1  0  0  0  0
 19 31  2  0  0  0  0
 20 21  1  0  0  0  0
 21 22  1  0  0  0  0
 22 23  1  0  0  0  0
 23 27  1  0  0  0  0
 24 29  1  0  0  0  0
 25 26  1  0  0  0  0
  1 33  1  0  0  0  0
  2 34  1  0  0  0  0
  3 35  1  0  0  0  0
  4 36  1  0  0  0  0
  5 37  1  0  0  0  0
  6 38  1  0  0  0  0
  7 39  1  0  0  0  0
  8 40  1  0  0  0  0
  9 41  1  0  0  0  0
 10 42  1  0  0  0  0
 11 43  1  0  0  0  0
 20 44  1  0  0  0  0
 20 45  1  0  0  0  0
 21 46  1  0  0  0  0
 21 47  1  0  0  0  0
 22 48  1  0  0  0  0
 22 49  1  0  0  0  0
 23 50  1  0  0  0  0
 23 51  1  0  0  0  0
 24 52  1  0  0  0  0
 24 53  1  0  0  0  0
 26 54  1  0  0  0  0
 28 55  1  0  0  0  0
M  END
> <clash_score>
0

> <docking_score>
-7.275116443634033

> <overlap_score>
0.9719064831733704

$$$$
BENZO_78_1
  -OEChem-08232013523D

 58 62  0     0  0  0  0  0  0999 V2000
    4.2460    1.7520   20.8250 C   0  0  0  0  0  0  0  0  0  0  0  0
    3.8860    2.1050   19.5250 C   0  0  0  0  0  0  0  0  0  0  0  0
   13.5665   -0.8764   25.1153 C   0  0  0  0  0  0  0  0  0  0  0  0
    5.3890    1.0010   21.0690 C   0  0  0  0  0  0  0  0  0  0  0  0
   12.4034   -0.1473   24.8679 C   0  0  0  0  0  0  0  0  0  0  0  0
    4.6610    1.7170   18.4380 C   0  0  0  0  0  0  0  0  0  0  0  0
    9.1890   -3.5540   24.0140 C   0  0  0  0  0  0  0  0  0  0  0  0
    7.8700   -2.0610   25.3550 C   0  0  0  0  0  0  0  0  0  0  0  0
    9.5890   -2.4950   23.2210 C   0  0  0  0  0  0  0  0  0  0  0  0
    8.2550   -1.0010   24.5520 C   0  0  0  0  0  0  0  0  0  0  0  0
   14.2449   -1.4864   24.0601 C   0  0  0  0  0  0  0  0  0  0  0  0
   12.5970   -0.6383   22.5103 C   0  0  0  0  0  0  0  0  0  0  0  0
    6.1460    0.6070   19.9750 C   0  0  0  0  0  0  0  0  0  0  0  0
   11.9186   -0.0282   23.5654 C   0  0  0  0  0  0  0  0  0  0  0  0
    5.7970    0.9500   18.6730 C   0  0  0  0  0  0  0  0  0  0  0  0
    8.3450   -3.3440   25.0980 C   0  0  0  0  0  0  0  0  0  0  0  0
    9.1280   -1.2090   23.4870 C   0  0  0  0  0  0  0  0  0  0  0  0
   13.7601   -1.3674   22.7576 C   0  0  0  0  0  0  0  0  0  0  0  0
    7.2710   -0.1460   19.8310 C   0  0  0  0  0  0  0  0  0  0  0  0
    7.2757   -5.5631   25.4492 C   0  0  0  0  0  0  0  0  0  0  0  0
    9.0430    0.2380   21.4940 C   0  0  0  0  0  0  0  0  0  0  0  0
    6.9626   -6.6001   26.5133 C   0  0  0  0  0  0  0  0  0  0  0  0
    6.3764   -5.9422   27.7501 C   0  0  0  0  0  0  0  0  0  0  0  0
    7.2660   -4.8258   28.2881 C   0  0  0  0  0  0  0  0  0  0  0  0
    8.4098   -4.4623   27.3426 C   0  0  0  0  0  0  0  0  0  0  0  0
   10.6659    0.7557   23.3001 C   0  0  0  0  0  0  0  0  0  0  0  0
    7.5840   -0.2700   18.5160 N   0  0  0  0  0  0  0  0  0  0  0  0
    6.7100    0.3850   17.8100 N   0  0  0  0  0  0  0  0  0  0  0  0
    7.9658   -4.4384   25.9449 N   0  0  0  0  0  0  0  0  0  0  0  0
    8.0950   -0.7700   20.8440 N   0  0  0  0  0  0  0  0  0  0  0  0
    9.5820   -0.1080   22.7000 N   0  0  0  0  0  0  0  0  0  0  0  0
    6.9858   -5.7908   24.2753 O   0  0  0  0  0  0  0  0  0  0  0  0
    9.2950    1.3000   20.9480 O   0  0  0  0  0  0  0  0  0  0  0  0
   14.5969   -2.1212   21.4563 Cl  0  0  0  0  0  0  0  0  0  0  0  0
    3.6223    2.0725   21.6574 H   0  0  0  0  0  0  0  0  0  0  0  0
    2.9864    2.6933   19.3609 H   0  0  0  0  0  0  0  0  0  0  0  0
   13.9436   -0.9690   26.1297 H   0  0  0  0  0  0  0  0  0  0  0  0
    5.6689    0.7392   22.0836 H   0  0  0  0  0  0  0  0  0  0  0  0
   11.8813    0.3246   25.6962 H   0  0  0  0  0  0  0  0  0  0  0  0
    4.3807    2.0116   17.4186 H   0  0  0  0  0  0  0  0  0  0  0  0
    9.5436   -4.5614   23.7799 H   0  0  0  0  0  0  0  0  0  0  0  0
    7.1918   -1.8823   26.1906 H   0  0  0  0  0  0  0  0  0  0  0  0
   10.2676   -2.6754   22.3861 H   0  0  0  0  0  0  0  0  0  0  0  0
    7.8686   -0.0026   24.7598 H   0  0  0  0  0  0  0  0  0  0  0  0
   15.1500   -2.0519   24.2677 H   0  0  0  0  0  0  0  0  0  0  0  0
   12.2152   -0.5421   21.4965 H   0  0  0  0  0  0  0  0  0  0  0  0
    6.2500   -7.3027   26.1097 H   0  0  0  0  0  0  0  0  0  0  0  0
    7.8838   -7.1078   26.7574 H   0  0  0  0  0  0  0  0  0  0  0  0
    5.3690   -5.5363   27.5214 H   0  0  0  0  0  0  0  0  0  0  0  0
    6.2178   -6.7054   28.5384 H   0  0  0  0  0  0  0  0  0  0  0  0
    6.6498   -3.9225   28.4807 H   0  0  0  0  0  0  0  0  0  0  0  0
    7.6764   -5.1138   29.2803 H   0  0  0  0  0  0  0  0  0  0  0  0
    8.7796   -3.4700   27.5826 H   0  0  0  0  0  0  0  0  0  0  0  0
    9.2112   -5.1853   27.4497 H   0  0  0  0  0  0  0  0  0  0  0  0
   10.2619    1.1650   24.2325 H   0  0  0  0  0  0  0  0  0  0  0  0
   10.8653    1.6011   22.6333 H   0  0  0  0  0  0  0  0  0  0  0  0
    6.7486    0.4313   16.8331 H   0  0  0  0  0  0  0  0  0  0  0  0
    8.0897   -1.6082   21.0890 H   0  0  0  0  0  0  0  0  0  0  0  0
  1  2  1  0  0  0  0
  1  4  2  0  0  0  0
  2  6  2  0  0  0  0
  3  5  2  0  0  0  0
  3 11  1  0  0  0  0
  4 13  1  0  0  0  0
  5 14  1  0  0  0  0
  6 15  1  0  0  0  0
  7  9  2  0  0  0  0
  7 16  1  0  0  0  0
  8 10  1  0  0  0  0
  8 16  2  0  0  0  0
  9 17  1  0  0  0  0
 10 17  2  0  0  0  0
 11 18  2  0  0  0  0
 12 14  2  0  0  0  0
 12 18  1  0  0  0  0
 13 15  2  0  0  0  0
 13 19  1  0  0  0  0
 14 26  1  0  0  0  0
 15 28  1  0  0  0  0
 16 29  1  0  0  0  0
 17 31  1  0  0  0  0
 18 34  1  0  0  0  0
 19 27  2  0  0  0  0
 19 30  1  0  0  0  0
 20 22  1  0  0  0  0
 20 29  1  0  0  0  0
 20 32  2  0  0  0  0
 21 30  1  0  0  0  0
 21 31  1  0  0  0  0
 21 33  2  0  0  0  0
 22 23  1  0  0  0  0
 23 24  1  0  0  0  0
 24 25  1  0  0  0  0
 25 29  1  0  0  0  0
 26 31  1  0  0  0  0
 27 28  1  0  0  0  0
  1 35  1  0  0  0  0
  2 36  1  0  0  0  0
  3 37  1  0  0  0  0
  4 38  1  0  0  0  0
  5 39  1  0  0  0  0
  6 40  1  0  0  0  0
  7 41  1  0  0  0  0
  8 42  1  0  0  0  0
  9 43  1  0  0  0  0
 10 44  1  0  0  0  0
 11 45  1  0  0  0  0
 12 46  1  0  0  0  0
 22 47  1  0  0  0  0
 22 48  1  0  0  0  0
 23 49  1  0  0  0  0
 23 50  1  0  0  0  0
 24 51  1  0  0  0  0
 24 52  1  0  0  0  0
 25 53  1  0  0  0  0
 25 54  1  0  0  0  0
 26 55  1  0  0  0  0
 26 56  1  0  0  0  0
 28 57  1  0  0  0  0
 30 58  1  0  0  0  0
M  END
> <clash_score>
0

> <docking_score>
-6.761340141296387

> <overlap_score>
0.9910287857055664

$$$$
BENZO_81_1
  -OEChem-08232013523D

 57 61  0     0  0  0  0  0  0999 V2000
   14.3362   -1.3623   23.9762 C   0  0  0  0  0  0  0  0  0  0  0  0
    4.2460    1.7520   20.8250 C   0  0  0  0  0  0  0  0  0  0  0  0
   13.9850   -0.2948   24.8023 C   0  0  0  0  0  0  0  0  0  0  0  0
   13.4945   -1.7412   22.9304 C   0  0  0  0  0  0  0  0  0  0  0  0
    3.8860    2.1050   19.5250 C   0  0  0  0  0  0  0  0  0  0  0  0
    5.3890    1.0010   21.0690 C   0  0  0  0  0  0  0  0  0  0  0  0
   12.7920    0.3939   24.5828 C   0  0  0  0  0  0  0  0  0  0  0  0
   12.3016   -1.0525   22.7108 C   0  0  0  0  0  0  0  0  0  0  0  0
    4.6610    1.7170   18.4380 C   0  0  0  0  0  0  0  0  0  0  0  0
    9.1890   -3.5540   24.0140 C   0  0  0  0  0  0  0  0  0  0  0  0
    7.8700   -2.0610   25.3550 C   0  0  0  0  0  0  0  0  0  0  0  0
    9.5890   -2.4950   23.2210 C   0  0  0  0  0  0  0  0  0  0  0  0
    8.2550   -1.0010   24.5520 C   0  0  0  0  0  0  0  0  0  0  0  0
    6.1460    0.6070   19.9750 C   0  0  0  0  0  0  0  0  0  0  0  0
   11.9503    0.0150   23.5369 C   0  0  0  0  0  0  0  0  0  0  0  0
    5.7970    0.9500   18.6730 C   0  0  0  0  0  0  0  0  0  0  0  0
    8.3450   -3.3440   25.0980 C   0  0  0  0  0  0  0  0  0  0  0  0
    9.1280   -1.2090   23.4870 C   0  0  0  0  0  0  0  0  0  0  0  0
    7.2710   -0.1460   19.8310 C   0  0  0  0  0  0  0  0  0  0  0  0
    9.0430    0.2380   21.4940 C   0  0  0  0  0  0  0  0  0  0  0  0
    8.9524   -5.2012   26.6600 C   0  0  0  0  0  0  0  0  0  0  0  0
    6.6112   -4.5068   26.4379 C   0  0  0  0  0  0  0  0  0  0  0  0
    8.9037   -4.7845   28.1261 C   0  0  0  0  0  0  0  0  0  0  0  0
    6.6374   -4.1243   27.9184 C   0  0  0  0  0  0  0  0  0  0  0  0
   10.6659    0.7557   23.3001 C   0  0  0  0  0  0  0  0  0  0  0  0
    7.5840   -0.2700   18.5160 N   0  0  0  0  0  0  0  0  0  0  0  0
    6.7100    0.3850   17.8100 N   0  0  0  0  0  0  0  0  0  0  0  0
    7.9775   -4.4014   25.9151 N   0  0  0  0  0  0  0  0  0  0  0  0
    8.0950   -0.7700   20.8440 N   0  0  0  0  0  0  0  0  0  0  0  0
    9.5820   -0.1080   22.7000 N   0  0  0  0  0  0  0  0  0  0  0  0
    9.2950    1.3000   20.9480 O   0  0  0  0  0  0  0  0  0  0  0  0
    7.5729   -4.9391   28.6338 O   0  0  0  0  0  0  0  0  0  0  0  0
   15.2658   -1.8976   24.1465 H   0  0  0  0  0  0  0  0  0  0  0  0
    3.6223    2.0725   21.6574 H   0  0  0  0  0  0  0  0  0  0  0  0
   14.6407    0.0011   25.6160 H   0  0  0  0  0  0  0  0  0  0  0  0
   13.7682   -2.5716   22.2863 H   0  0  0  0  0  0  0  0  0  0  0  0
    2.9864    2.6933   19.3609 H   0  0  0  0  0  0  0  0  0  0  0  0
    5.6689    0.7392   22.0836 H   0  0  0  0  0  0  0  0  0  0  0  0
   12.5263    1.2243   25.2316 H   0  0  0  0  0  0  0  0  0  0  0  0
   11.6519   -1.3548   21.8936 H   0  0  0  0  0  0  0  0  0  0  0  0
    4.3807    2.0116   17.4186 H   0  0  0  0  0  0  0  0  0  0  0  0
    9.5426   -4.5618   23.7797 H   0  0  0  0  0  0  0  0  0  0  0  0
    7.1914   -1.8824   26.1903 H   0  0  0  0  0  0  0  0  0  0  0  0
   10.2669   -2.6745   22.3854 H   0  0  0  0  0  0  0  0  0  0  0  0
    7.8690   -0.0020   24.7587 H   0  0  0  0  0  0  0  0  0  0  0  0
    9.9615   -5.0500   26.2711 H   0  0  0  0  0  0  0  0  0  0  0  0
    8.6935   -6.2597   26.5720 H   0  0  0  0  0  0  0  0  0  0  0  0
    6.2628   -5.5350   26.3330 H   0  0  0  0  0  0  0  0  0  0  0  0
    5.9347   -3.8423   25.9023 H   0  0  0  0  0  0  0  0  0  0  0  0
    9.5597   -5.4275   28.7166 H   0  0  0  0  0  0  0  0  0  0  0  0
    9.2344   -3.7511   28.2636 H   0  0  0  0  0  0  0  0  0  0  0  0
    6.8874   -3.0657   28.0553 H   0  0  0  0  0  0  0  0  0  0  0  0
    5.6495   -4.2893   28.3591 H   0  0  0  0  0  0  0  0  0  0  0  0
   10.2856    1.1782   24.2366 H   0  0  0  0  0  0  0  0  0  0  0  0
   10.8149    1.5883   22.6046 H   0  0  0  0  0  0  0  0  0  0  0  0
    6.7486    0.4313   16.8331 H   0  0  0  0  0  0  0  0  0  0  0  0
    8.0897   -1.6082   21.0890 H   0  0  0  0  0  0  0  0  0  0  0  0
  1  3  1  0  0  0  0
  1  4  2  0  0  0  0
  2  5  1  0  0  0  0
  2  6  2  0  0  0  0
  3  7  2  0  0  0  0
  4  8  1  0  0  0  0
  5  9  2  0  0  0  0
  6 14  1  0  0  0  0
  7 15  1  0  0  0  0
  8 15  2  0  0  0  0
  9 16  1  0  0  0  0
 10 12  2  0  0  0  0
 10 17  1  0  0  0  0
 11 13  1  0  0  0  0
 11 17  2  0  0  0  0
 12 18  1  0  0  0  0
 13 18  2  0  0  0  0
 14 16  2  0  0  0  0
 14 19  1  0  0  0  0
 15 25  1  0  0  0  0
 16 27  1  0  0  0  0
 17 28  1  0  0  0  0
 18 30  1  0  0  0  0
 19 26  2  0  0  0  0
 19 29  1  0  0  0  0
 20 29  1  0  0  0  0
 20 30  1  0  0  0  0
 20 31  2  0  0  0  0
 21 23  1  0  0  0  0
 21 28  1  0  0  0  0
 22 24  1  0  0  0  0
 22 28  1  0  0  0  0
 23 32  1  0  0  0  0
 24 32  1  0  0  0  0
 25 30  1  0  0  0  0
 26 27  1  0  0  0  0
  1 33  1  0  0  0  0
  2 34  1  0  0  0  0
  3 35  1  0  0  0  0
  4 36  1  0  0  0  0
  5 37  1  0  0  0  0
  6 38  1  0  0  0  0
  7 39  1  0  0  0  0
  8 40  1  0  0  0  0
  9 41  1  0  0  0  0
 10 42  1  0  0  0  0
 11 43  1  0  0  0  0
 12 44  1  0  0  0  0
 13 45  1  0  0  0  0
 21 46  1  0  0  0  0
 21 47  1  0  0  0  0
 22 48  1  0  0  0  0
 22 49  1  0  0  0  0
 23 50  1  0  0  0  0
 23 51  1  0  0  0  0
 24 52  1  0  0  0  0
 24 53  1  0  0  0  0
 25 54  1  0  0  0  0
 25 55  1  0  0  0  0
 27 56  1  0  0  0  0
 29 57  1  0  0  0  0
M  END
> <clash_score>
0

> <docking_score>
-8.553411483764648

> <overlap_score>
0.9859910011291504

$$$$
BENZO_79_1
  -OEChem-08232013523D

 58 62  0     0  0  0  0  0  0999 V2000
    4.2460    1.7520   20.8250 C   0  0  0  0  0  0  0  0  0  0  0  0
    3.8860    2.1050   19.5250 C   0  0  0  0  0  0  0  0  0  0  0  0
    5.3890    1.0010   21.0690 C   0  0  0  0  0  0  0  0  0  0  0  0
    4.6610    1.7170   18.4380 C   0  0  0  0  0  0  0  0  0  0  0  0
    9.1890   -3.5540   24.0140 C   0  0  0  0  0  0  0  0  0  0  0  0
    7.8700   -2.0610   25.3550 C   0  0  0  0  0  0  0  0  0  0  0  0
    9.5890   -2.4950   23.2210 C   0  0  0  0  0  0  0  0  0  0  0  0
    8.2550   -1.0010   24.5520 C   0  0  0  0  0  0  0  0  0  0  0  0
   13.2149    0.4727   23.8027 C   0  0  0  0  0  0  0  0  0  0  0  0
   12.3871   -0.8676   22.2687 C   0  0  0  0  0  0  0  0  0  0  0  0
    6.1460    0.6070   19.9750 C   0  0  0  0  0  0  0  0  0  0  0  0
   12.0256    0.1433   23.1253 C   0  0  0  0  0  0  0  0  0  0  0  0
    5.7970    0.9500   18.6730 C   0  0  0  0  0  0  0  0  0  0  0  0
    8.3450   -3.3440   25.0980 C   0  0  0  0  0  0  0  0  0  0  0  0
    9.1280   -1.2090   23.4870 C   0  0  0  0  0  0  0  0  0  0  0  0
    7.2710   -0.1460   19.8310 C   0  0  0  0  0  0  0  0  0  0  0  0
    8.7161   -4.7975   27.0830 C   0  0  0  0  0  0  0  0  0  0  0  0
    9.0430    0.2380   21.4940 C   0  0  0  0  0  0  0  0  0  0  0  0
    8.1364   -5.9760   27.8449 C   0  0  0  0  0  0  0  0  0  0  0  0
    6.6423   -5.8008   28.0518 C   0  0  0  0  0  0  0  0  0  0  0  0
    5.9022   -5.5526   26.7413 C   0  0  0  0  0  0  0  0  0  0  0  0
    6.8397   -5.2970   25.5620 C   0  0  0  0  0  0  0  0  0  0  0  0
   14.5506   -2.0433   21.8042 C   0  0  0  0  0  0  0  0  0  0  0  0
   10.6659    0.7557   23.3001 C   0  0  0  0  0  0  0  0  0  0  0  0
   14.2541   -0.2689   23.4103 N   0  0  0  0  0  0  0  0  0  0  0  0
    7.5840   -0.2700   18.5160 N   0  0  0  0  0  0  0  0  0  0  0  0
    6.7100    0.3850   17.8100 N   0  0  0  0  0  0  0  0  0  0  0  0
   13.7189   -1.0744   22.4771 N   0  0  0  0  0  0  0  0  0  0  0  0
    7.9658   -4.4385   25.9449 N   0  0  0  0  0  0  0  0  0  0  0  0
    8.0950   -0.7700   20.8440 N   0  0  0  0  0  0  0  0  0  0  0  0
    9.5820   -0.1080   22.7000 N   0  0  0  0  0  0  0  0  0  0  0  0
    9.7829   -4.3044   27.4475 O   0  0  0  0  0  0  0  0  0  0  0  0
    9.2950    1.3000   20.9480 O   0  0  0  0  0  0  0  0  0  0  0  0
    3.6223    2.0725   21.6574 H   0  0  0  0  0  0  0  0  0  0  0  0
    2.9864    2.6933   19.3609 H   0  0  0  0  0  0  0  0  0  0  0  0
    5.6689    0.7392   22.0836 H   0  0  0  0  0  0  0  0  0  0  0  0
    4.3807    2.0116   17.4186 H   0  0  0  0  0  0  0  0  0  0  0  0
    9.5436   -4.5614   23.7799 H   0  0  0  0  0  0  0  0  0  0  0  0
    7.1918   -1.8823   26.1906 H   0  0  0  0  0  0  0  0  0  0  0  0
   10.2676   -2.6754   22.3861 H   0  0  0  0  0  0  0  0  0  0  0  0
    7.8686   -0.0026   24.7598 H   0  0  0  0  0  0  0  0  0  0  0  0
   13.3699    1.2212   24.5669 H   0  0  0  0  0  0  0  0  0  0  0  0
   11.8237   -1.4439   21.5473 H   0  0  0  0  0  0  0  0  0  0  0  0
    8.3160   -6.8753   27.2760 H   0  0  0  0  0  0  0  0  0  0  0  0
    8.6443   -6.0335   28.7960 H   0  0  0  0  0  0  0  0  0  0  0  0
    6.2215   -6.6983   28.5513 H   0  0  0  0  0  0  0  0  0  0  0  0
    6.4589   -4.9587   28.7491 H   0  0  0  0  0  0  0  0  0  0  0  0
    5.2548   -6.4248   26.5112 H   0  0  0  0  0  0  0  0  0  0  0  0
    5.2035   -4.6957   26.8575 H   0  0  0  0  0  0  0  0  0  0  0  0
    7.2534   -6.2390   25.2146 H   0  0  0  0  0  0  0  0  0  0  0  0
    6.2879   -4.8231   24.7574 H   0  0  0  0  0  0  0  0  0  0  0  0
   14.9688   -1.5678   20.9131 H   0  0  0  0  0  0  0  0  0  0  0  0
   15.3505   -2.3660   22.4765 H   0  0  0  0  0  0  0  0  0  0  0  0
   13.9440   -2.9100   21.5274 H   0  0  0  0  0  0  0  0  0  0  0  0
   10.4266    0.8674   24.3633 H   0  0  0  0  0  0  0  0  0  0  0  0
   10.6236    1.7534   22.8507 H   0  0  0  0  0  0  0  0  0  0  0  0
    6.7486    0.4313   16.8331 H   0  0  0  0  0  0  0  0  0  0  0  0
    8.0897   -1.6082   21.0890 H   0  0  0  0  0  0  0  0  0  0  0  0
  1  2  1  0  0  0  0
  1  3  2  0  0  0  0
  2  4  2  0  0  0  0
  3 11  1  0  0  0  0
  4 13  1  0  0  0  0
  5  7  2  0  0  0  0
  5 14  1  0  0  0  0
  6  8  1  0  0  0  0
  6 14  2  0  0  0  0
  7 15  1  0  0  0  0
  8 15  2  0  0  0  0
  9 12  1  0  0  0  0
  9 25  2  0  0  0  0
 10 12  2  0  0  0  0
 10 28  1  0  0  0  0
 11 13  2  0  0  0  0
 11 16  1  0  0  0  0
 12 24  1  0  0  0  0
 13 27  1  0  0  0  0
 14 29  1  0  0  0  0
 15 31  1  0  0  0  0
 16 26  2  0  0  0  0
 16 30  1  0  0  0  0
 17 19  1  0  0  0  0
 17 29  1  0  0  0  0
 17 32  2  0  0  0  0
 18 30  1  0  0  0  0
 18 31  1  0  0  0  0
 18 33  2  0  0  0  0
 19 20  1  0  0  0  0
 20 21  1  0  0  0  0
 21 22  1  0  0  0  0
 22 29  1  0  0  0  0
 23 28  1  0  0  0  0
 24 31  1  0  0  0  0
 25 28  1  0  0  0  0
 26 27  1  0  0  0  0
  1 34  1  0  0  0  0
  2 35  1  0  0  0  0
  3 36  1  0  0  0  0
  4 37  1  0  0  0  0
  5 38  1  0  0  0  0
  6 39  1  0  0  0  0
  7 40  1  0  0  0  0
  8 41  1  0  0  0  0
  9 42  1  0  0  0  0
 10 43  1  0  0  0  0
 19 44  1  0  0  0  0
 19 45  1  0  0  0  0
 20 46  1  0  0  0  0
 20 47  1  0  0  0  0
 21 48  1  0  0  0  0
 21 49  1  0  0  0  0
 22 50  1  0  0  0  0
 22 51  1  0  0  0  0
 23 52  1  0  0  0  0
 23 53  1  0  0  0  0
 23 54  1  0  0  0  0
 24 55  1  0  0  0  0
 24 56  1  0  0  0  0
 27 57  1  0  0  0  0
 30 58  1  0  0  0  0
M  END
> <clash_score>
0

> <docking_score>
-7.696948051452637

> <overlap_score>
0.9955516457557678

$$$$
BENZO_80_1
  -OEChem-08232013523D

 54 58  0     0  0  0  0  0  0999 V2000
    4.2460    1.7520   20.8250 C   0  0  0  0  0  0  0  0  0  0  0  0
    3.8860    2.1050   19.5250 C   0  0  0  0  0  0  0  0  0  0  0  0
    5.3890    1.0010   21.0690 C   0  0  0  0  0  0  0  0  0  0  0  0
    4.6610    1.7170   18.4380 C   0  0  0  0  0  0  0  0  0  0  0  0
    9.1890   -3.5540   24.0140 C   0  0  0  0  0  0  0  0  0  0  0  0
    7.8700   -2.0610   25.3550 C   0  0  0  0  0  0  0  0  0  0  0  0
    9.5890   -2.4950   23.2210 C   0  0  0  0  0  0  0  0  0  0  0  0
    8.2550   -1.0010   24.5520 C   0  0  0  0  0  0  0  0  0  0  0  0
   12.5722   -0.1093   24.8128 C   0  0  0  0  0  0  0  0  0  0  0  0
   13.7397   -0.8377   24.7507 C   0  0  0  0  0  0  0  0  0  0  0  0
   12.6664   -0.6230   22.5480 C   0  0  0  0  0  0  0  0  0  0  0  0
    6.1460    0.6070   19.9750 C   0  0  0  0  0  0  0  0  0  0  0  0
   11.9503    0.0150   23.5369 C   0  0  0  0  0  0  0  0  0  0  0  0
    5.7970    0.9500   18.6730 C   0  0  0  0  0  0  0  0  0  0  0  0
    8.3450   -3.3440   25.0980 C   0  0  0  0  0  0  0  0  0  0  0  0
    9.1280   -1.2090   23.4870 C   0  0  0  0  0  0  0  0  0  0  0  0
    7.2710   -0.1460   19.8310 C   0  0  0  0  0  0  0  0  0  0  0  0
    9.0430    0.2380   21.4940 C   0  0  0  0  0  0  0  0  0  0  0  0
    8.9524   -5.2012   26.6600 C   0  0  0  0  0  0  0  0  0  0  0  0
    6.6112   -4.5068   26.4379 C   0  0  0  0  0  0  0  0  0  0  0  0
    8.9037   -4.7845   28.1261 C   0  0  0  0  0  0  0  0  0  0  0  0
    6.6374   -4.1243   27.9184 C   0  0  0  0  0  0  0  0  0  0  0  0
   10.6659    0.7557   23.3001 C   0  0  0  0  0  0  0  0  0  0  0  0
    7.5840   -0.2700   18.5160 N   0  0  0  0  0  0  0  0  0  0  0  0
    6.7100    0.3850   17.8100 N   0  0  0  0  0  0  0  0  0  0  0  0
    7.9775   -4.4014   25.9151 N   0  0  0  0  0  0  0  0  0  0  0  0
    8.0950   -0.7700   20.8440 N   0  0  0  0  0  0  0  0  0  0  0  0
    9.5820   -0.1080   22.7000 N   0  0  0  0  0  0  0  0  0  0  0  0
    9.2950    1.3000   20.9480 O   0  0  0  0  0  0  0  0  0  0  0  0
    7.5729   -4.9391   28.6338 O   0  0  0  0  0  0  0  0  0  0  0  0
   14.0820   -1.3681   23.1589 S   0  0  0  0  0  0  0  0  0  0  0  0
    3.6223    2.0725   21.6574 H   0  0  0  0  0  0  0  0  0  0  0  0
    2.9864    2.6933   19.3609 H   0  0  0  0  0  0  0  0  0  0  0  0
    5.6689    0.7392   22.0836 H   0  0  0  0  0  0  0  0  0  0  0  0
    4.3807    2.0116   17.4186 H   0  0  0  0  0  0  0  0  0  0  0  0
    9.5426   -4.5618   23.7797 H   0  0  0  0  0  0  0  0  0  0  0  0
    7.1914   -1.8824   26.1903 H   0  0  0  0  0  0  0  0  0  0  0  0
   10.2669   -2.6745   22.3854 H   0  0  0  0  0  0  0  0  0  0  0  0
    7.8690   -0.0020   24.7587 H   0  0  0  0  0  0  0  0  0  0  0  0
   12.1864    0.3129   25.7322 H   0  0  0  0  0  0  0  0  0  0  0  0
   14.4083   -1.0833   25.5636 H   0  0  0  0  0  0  0  0  0  0  0  0
   12.4303   -0.6887   21.4949 H   0  0  0  0  0  0  0  0  0  0  0  0
    9.9615   -5.0500   26.2711 H   0  0  0  0  0  0  0  0  0  0  0  0
    8.6935   -6.2597   26.5720 H   0  0  0  0  0  0  0  0  0  0  0  0
    6.2628   -5.5350   26.3330 H   0  0  0  0  0  0  0  0  0  0  0  0
    5.9347   -3.8423   25.9023 H   0  0  0  0  0  0  0  0  0  0  0  0
    9.5597   -5.4275   28.7166 H   0  0  0  0  0  0  0  0  0  0  0  0
    9.2344   -3.7511   28.2636 H   0  0  0  0  0  0  0  0  0  0  0  0
    6.8874   -3.0657   28.0553 H   0  0  0  0  0  0  0  0  0  0  0  0
    5.6495   -4.2893   28.3591 H   0  0  0  0  0  0  0  0  0  0  0  0
   10.2856    1.1782   24.2366 H   0  0  0  0  0  0  0  0  0  0  0  0
   10.8149    1.5883   22.6046 H   0  0  0  0  0  0  0  0  0  0  0  0
    6.7486    0.4313   16.8331 H   0  0  0  0  0  0  0  0  0  0  0  0
    8.0897   -1.6082   21.0890 H   0  0  0  0  0  0  0  0  0  0  0  0
  1  2  1  0  0  0  0
  1  3  2  0  0  0  0
  2  4  2  0  0  0  0
  3 12  1  0  0  0  0
  4 14  1  0  0  0  0
  5  7  2  0  0  0  0
  5 15  1  0  0  0  0
  6  8  1  0  0  0  0
  6 15  2  0  0  0  0
  7 16  1  0  0  0  0
  8 16  2  0  0  0  0
  9 10  2  0  0  0  0
  9 13  1  0  0  0  0
 10 31  1  0  0  0  0
 11 13  2  0  0  0  0
 11 31  1  0  0  0  0
 12 14  2  0  0  0  0
 12 17  1  0  0  0  0
 13 23  1  0  0  0  0
 14 25  1  0  0  0  0
 15 26  1  0  0  0  0
 16 28  1  0  0  0  0
 17 24  2  0  0  0  0
 17 27  1  0  0  0  0
 18 27  1  0  0  0  0
 18 28  1  0  0  0  0
 18 29  2  0  0  0  0
 19 21  1  0  0  0  0
 19 26  1  0  0  0  0
 20 22  1  0  0  0  0
 20 26  1  0  0  0  0
 21 30  1  0  0  0  0
 22 30  1  0  0  0  0
 23 28  1  0  0  0  0
 24 25  1  0  0  0  0
  1 32  1  0  0  0  0
  2 33  1  0  0  0  0
  3 34  1  0  0  0  0
  4 35  1  0  0  0  0
  5 36  1  0  0  0  0
  6 37  1  0  0  0  0
  7 38  1  0  0  0  0
  8 39  1  0  0  0  0
  9 40  1  0  0  0  0
 10 41  1  0  0  0  0
 11 42  1  0  0  0  0
 19 43  1  0  0  0  0
 19 44  1  0  0  0  0
 20 45  1  0  0  0  0
 20 46  1  0  0  0  0
 21 47  1  0  0  0  0
 21 48  1  0  0  0  0
 22 49  1  0  0  0  0
 22 50  1  0  0  0  0
 23 51  1  0  0  0  0
 23 52  1  0  0  0  0
 25 53  1  0  0  0  0
 27 54  1  0  0  0  0
M  END
> <clash_score>
0

> <docking_score>
-8.430364608764648

> <overlap_score>
0.9701467156410217

$$$$
BENZO_82_1
  -OEChem-08232013523D

 57 61  0     0  0  0  0  0  0999 V2000
    4.2460    1.7520   20.8250 C   0  0  0  0  0  0  0  0  0  0  0  0
    3.8860    2.1050   19.5250 C   0  0  0  0  0  0  0  0  0  0  0  0
   13.6798   -0.7442   25.0433 C   0  0  0  0  0  0  0  0  0  0  0  0
    5.3890    1.0010   21.0690 C   0  0  0  0  0  0  0  0  0  0  0  0
   12.4873   -0.0553   24.8224 C   0  0  0  0  0  0  0  0  0  0  0  0
    4.6610    1.7170   18.4380 C   0  0  0  0  0  0  0  0  0  0  0  0
    9.1890   -3.5540   24.0140 C   0  0  0  0  0  0  0  0  0  0  0  0
    7.8700   -2.0610   25.3550 C   0  0  0  0  0  0  0  0  0  0  0  0
    9.5890   -2.4950   23.2210 C   0  0  0  0  0  0  0  0  0  0  0  0
    8.2550   -1.0010   24.5520 C   0  0  0  0  0  0  0  0  0  0  0  0
   14.3355   -1.3627   23.9787 C   0  0  0  0  0  0  0  0  0  0  0  0
   12.6059   -0.6035   22.4724 C   0  0  0  0  0  0  0  0  0  0  0  0
    6.1460    0.6070   19.9750 C   0  0  0  0  0  0  0  0  0  0  0  0
   11.9503    0.0150   23.5369 C   0  0  0  0  0  0  0  0  0  0  0  0
    5.7970    0.9500   18.6730 C   0  0  0  0  0  0  0  0  0  0  0  0
    8.3450   -3.3440   25.0980 C   0  0  0  0  0  0  0  0  0  0  0  0
    9.1280   -1.2090   23.4870 C   0  0  0  0  0  0  0  0  0  0  0  0
   13.7985   -1.2924   22.6933 C   0  0  0  0  0  0  0  0  0  0  0  0
    7.2710   -0.1460   19.8310 C   0  0  0  0  0  0  0  0  0  0  0  0
    9.0430    0.2380   21.4940 C   0  0  0  0  0  0  0  0  0  0  0  0
    8.9524   -5.2012   26.6600 C   0  0  0  0  0  0  0  0  0  0  0  0
    6.6112   -4.5068   26.4379 C   0  0  0  0  0  0  0  0  0  0  0  0
    8.9037   -4.7845   28.1261 C   0  0  0  0  0  0  0  0  0  0  0  0
    6.6374   -4.1243   27.9184 C   0  0  0  0  0  0  0  0  0  0  0  0
   10.6659    0.7557   23.3001 C   0  0  0  0  0  0  0  0  0  0  0  0
    7.5840   -0.2700   18.5160 N   0  0  0  0  0  0  0  0  0  0  0  0
    6.7100    0.3850   17.8100 N   0  0  0  0  0  0  0  0  0  0  0  0
    7.9775   -4.4014   25.9151 N   0  0  0  0  0  0  0  0  0  0  0  0
    8.0950   -0.7700   20.8440 N   0  0  0  0  0  0  0  0  0  0  0  0
    9.5820   -0.1080   22.7000 N   0  0  0  0  0  0  0  0  0  0  0  0
    9.2950    1.3000   20.9480 O   0  0  0  0  0  0  0  0  0  0  0  0
    7.5729   -4.9391   28.6338 O   0  0  0  0  0  0  0  0  0  0  0  0
   14.6072   -2.0568   21.3804 Cl  0  0  0  0  0  0  0  0  0  0  0  0
    3.6223    2.0725   21.6574 H   0  0  0  0  0  0  0  0  0  0  0  0
    2.9864    2.6933   19.3609 H   0  0  0  0  0  0  0  0  0  0  0  0
   14.0976   -0.7988   26.0444 H   0  0  0  0  0  0  0  0  0  0  0  0
    5.6689    0.7392   22.0836 H   0  0  0  0  0  0  0  0  0  0  0  0
   11.9832    0.4236   25.6578 H   0  0  0  0  0  0  0  0  0  0  0  0
    4.3807    2.0116   17.4186 H   0  0  0  0  0  0  0  0  0  0  0  0
    9.5426   -4.5618   23.7797 H   0  0  0  0  0  0  0  0  0  0  0  0
    7.1914   -1.8824   26.1903 H   0  0  0  0  0  0  0  0  0  0  0  0
   10.2669   -2.6745   22.3854 H   0  0  0  0  0  0  0  0  0  0  0  0
    7.8690   -0.0020   24.7587 H   0  0  0  0  0  0  0  0  0  0  0  0
   15.2640   -1.8964   24.1657 H   0  0  0  0  0  0  0  0  0  0  0  0
   12.1833   -0.5454   21.4719 H   0  0  0  0  0  0  0  0  0  0  0  0
    9.9615   -5.0500   26.2711 H   0  0  0  0  0  0  0  0  0  0  0  0
    8.6935   -6.2597   26.5720 H   0  0  0  0  0  0  0  0  0  0  0  0
    6.2628   -5.5350   26.3330 H   0  0  0  0  0  0  0  0  0  0  0  0
    5.9347   -3.8423   25.9023 H   0  0  0  0  0  0  0  0  0  0  0  0
    9.5597   -5.4275   28.7166 H   0  0  0  0  0  0  0  0  0  0  0  0
    9.2344   -3.7511   28.2636 H   0  0  0  0  0  0  0  0  0  0  0  0
    6.8874   -3.0657   28.0553 H   0  0  0  0  0  0  0  0  0  0  0  0
    5.6495   -4.2893   28.3591 H   0  0  0  0  0  0  0  0  0  0  0  0
   10.2856    1.1782   24.2366 H   0  0  0  0  0  0  0  0  0  0  0  0
   10.8149    1.5883   22.6046 H   0  0  0  0  0  0  0  0  0  0  0  0
    6.7486    0.4313   16.8331 H   0  0  0  0  0  0  0  0  0  0  0  0
    8.0897   -1.6082   21.0890 H   0  0  0  0  0  0  0  0  0  0  0  0
  1  2  1  0  0  0  0
  1  4  2  0  0  0  0
  2  6  2  0  0  0  0
  3  5  2  0  0  0  0
  3 11  1  0  0  0  0
  4 13  1  0  0  0  0
  5 14  1  0  0  0  0
  6 15  1  0  0  0  0
  7  9  2  0  0  0  0
  7 16  1  0  0  0  0
  8 10  1  0  0  0  0
  8 16  2  0  0  0  0
  9 17  1  0  0  0  0
 10 17  2  0  0  0  0
 11 18  2  0  0  0  0
 12 14  2  0  0  0  0
 12 18  1  0  0  0  0
 13 15  2  0  0  0  0
 13 19  1  0  0  0  0
 14 25  1  0  0  0  0
 15 27  1  0  0  0  0
 16 28  1  0  0  0  0
 17 30  1  0  0  0  0
 18 33  1  0  0  0  0
 19 26  2  0  0  0  0
 19 29  1  0  0  0  0
 20 29  1  0  0  0  0
 20 30  1  0  0  0  0
 20 31  2  0  0  0  0
 21 23  1  0  0  0  0
 21 28  1  0  0  0  0
 22 24  1  0  0  0  0
 22 28  1  0  0  0  0
 23 32  1  0  0  0  0
 24 32  1  0  0  0  0
 25 30  1  0  0  0  0
 26 27  1  0  0  0  0
  1 34  1  0  0  0  0
  2 35  1  0  0  0  0
  3 36  1  0  0  0  0
  4 37  1  0  0  0  0
  5 38  1  0  0  0  0
  6 39  1  0  0  0  0
  7 40  1  0  0  0  0
  8 41  1  0  0  0  0
  9 42  1  0  0  0  0
 10 43  1  0  0  0  0
 11 44  1  0  0  0  0
 12 45  1  0  0  0  0
 21 46  1  0  0  0  0
 21 47  1  0  0  0  0
 22 48  1  0  0  0  0
 22 49  1  0  0  0  0
 23 50  1  0  0  0  0
 23 51  1  0  0  0  0
 24 52  1  0  0  0  0
 24 53  1  0  0  0  0
 25 54  1  0  0  0  0
 25 55  1  0  0  0  0
 27 56  1  0  0  0  0
 29 57  1  0  0  0  0
M  END
> <clash_score>
0

> <docking_score>
-7.879109859466553

> <overlap_score>
0.9944659471511841

$$$$
BENZO_85_1
  -OEChem-08232013523D

 51 54  0     0  0  0  0  0  0999 V2000
   14.2631   -1.4841   24.0344 C   0  0  0  0  0  0  0  0  0  0  0  0
   13.9273   -0.4139   24.8635 C   0  0  0  0  0  0  0  0  0  0  0  0
   13.4280   -1.8330   22.9730 C   0  0  0  0  0  0  0  0  0  0  0  0
   12.7562    0.3074   24.6313 C   0  0  0  0  0  0  0  0  0  0  0  0
   12.2569   -1.1117   22.7408 C   0  0  0  0  0  0  0  0  0  0  0  0
    9.5890   -2.4950   23.2210 C   0  0  0  0  0  0  0  0  0  0  0  0
    8.2550   -1.0010   24.5520 C   0  0  0  0  0  0  0  0  0  0  0  0
    9.1890   -3.5540   24.0140 C   0  0  0  0  0  0  0  0  0  0  0  0
    7.8700   -2.0610   25.3550 C   0  0  0  0  0  0  0  0  0  0  0  0
   11.9210   -0.0414   23.5700 C   0  0  0  0  0  0  0  0  0  0  0  0
    9.1280   -1.2090   23.4870 C   0  0  0  0  0  0  0  0  0  0  0  0
    8.3450   -3.3440   25.0980 C   0  0  0  0  0  0  0  0  0  0  0  0
    6.1460    0.6070   19.9750 C   0  0  0  0  0  0  0  0  0  0  0  0
    7.2710   -0.1460   19.8310 C   0  0  0  0  0  0  0  0  0  0  0  0
    5.3890    1.0010   21.0690 C   0  0  0  0  0  0  0  0  0  0  0  0
    4.2460    1.7520   20.8250 C   0  0  0  0  0  0  0  0  0  0  0  0
    3.8860    2.1050   19.5250 C   0  0  0  0  0  0  0  0  0  0  0  0
    4.6610    1.7170   18.4380 C   0  0  0  0  0  0  0  0  0  0  0  0
    9.0430    0.2380   21.4940 C   0  0  0  0  0  0  0  0  0  0  0  0
    7.2639   -5.5575   25.3809 C   0  0  0  0  0  0  0  0  0  0  0  0
    8.3065   -4.4045   27.3384 C   0  0  0  0  0  0  0  0  0  0  0  0
   10.6602    0.7344   23.3196 C   0  0  0  0  0  0  0  0  0  0  0  0
    7.5840   -0.2700   18.5160 N   0  0  0  0  0  0  0  0  0  0  0  0
    6.7100    0.3850   17.8100 N   0  0  0  0  0  0  0  0  0  0  0  0
    5.7970    0.9500   18.6730 N   0  0  0  0  0  0  0  0  0  0  0  0
    8.0950   -0.7700   20.8440 N   0  0  0  0  0  0  0  0  0  0  0  0
    9.5820   -0.1080   22.7000 N   0  0  0  0  0  0  0  0  0  0  0  0
    7.9731   -4.4180   25.9279 N   0  0  0  0  0  0  0  0  0  0  0  0
    9.2950    1.3000   20.9480 O   0  0  0  0  0  0  0  0  0  0  0  0
   15.1757   -2.0448   24.2145 H   0  0  0  0  0  0  0  0  0  0  0  0
   14.5780   -0.1414   25.6893 H   0  0  0  0  0  0  0  0  0  0  0  0
   13.6897   -2.6654   22.3267 H   0  0  0  0  0  0  0  0  0  0  0  0
   12.5024    1.1397   25.2826 H   0  0  0  0  0  0  0  0  0  0  0  0
   11.6122   -1.3907   21.9116 H   0  0  0  0  0  0  0  0  0  0  0  0
   10.2682   -2.6746   22.3864 H   0  0  0  0  0  0  0  0  0  0  0  0
    7.8692   -0.0022   24.7600 H   0  0  0  0  0  0  0  0  0  0  0  0
    9.5433   -4.5619   23.7809 H   0  0  0  0  0  0  0  0  0  0  0  0
    7.1923   -1.8829   26.1908 H   0  0  0  0  0  0  0  0  0  0  0  0
    5.6529    0.7487   22.0767 H   0  0  0  0  0  0  0  0  0  0  0  0
    3.6388    2.0586   21.6675 H   0  0  0  0  0  0  0  0  0  0  0  0
    2.9822    2.6968   19.3330 H   0  0  0  0  0  0  0  0  0  0  0  0
    4.4111    1.9893   17.4360 H   0  0  0  0  0  0  0  0  0  0  0  0
    7.0643   -6.2848   26.1817 H   0  0  0  0  0  0  0  0  0  0  0  0
    6.3114   -5.2217   24.9450 H   0  0  0  0  0  0  0  0  0  0  0  0
    7.8776   -6.0310   24.6004 H   0  0  0  0  0  0  0  0  0  0  0  0
    7.9331   -5.3240   27.8129 H   0  0  0  0  0  0  0  0  0  0  0  0
    9.3988   -4.3488   27.4563 H   0  0  0  0  0  0  0  0  0  0  0  0
    7.8411   -3.5301   27.8167 H   0  0  0  0  0  0  0  0  0  0  0  0
   10.2665    1.1441   24.2563 H   0  0  0  0  0  0  0  0  0  0  0  0
   10.8453    1.5790   22.6476 H   0  0  0  0  0  0  0  0  0  0  0  0
    8.0689   -1.6186   21.0712 H   0  0  0  0  0  0  0  0  0  0  0  0
  1  2  1  0  0  0  0
  1  3  2  0  0  0  0
  2  4  2  0  0  0  0
  3  5  1  0  0  0  0
  4 10  1  0  0  0  0
  5 10  2  0  0  0  0
  6  8  2  0  0  0  0
  6 11  1  0  0  0  0
  7  9  1  0  0  0  0
  7 11  2  0  0  0  0
  8 12  1  0  0  0  0
  9 12  2  0  0  0  0
 10 22  1  0  0  0  0
 11 27  1  0  0  0  0
 12 28  1  0  0  0  0
 13 14  2  0  0  0  0
 13 15  1  0  0  0  0
 13 25  1  0  0  0  0
 14 23  1  0  0  0  0
 14 26  1  0  0  0  0
 15 16  2  0  0  0  0
 16 17  1  0  0  0  0
 17 18  2  0  0  0  0
 18 25  1  0  0  0  0
 19 26  1  0  0  0  0
 19 27  1  0  0  0  0
 19 29  2  0  0  0  0
 20 28  1  0  0  0  0
 21 28  1  0  0  0  0
 22 27  1  0  0  0  0
 23 24  2  0  0  0  0
 24 25  1  0  0  0  0
  1 30  1  0  0  0  0
  2 31  1  0  0  0  0
  3 32  1  0  0  0  0
  4 33  1  0  0  0  0
  5 34  1  0  0  0  0
  6 35  1  0  0  0  0
  7 36  1  0  0  0  0
  8 37  1  0  0  0  0
  9 38  1  0  0  0  0
 15 39  1  0  0  0  0
 16 40  1  0  0  0  0
 17 41  1  0  0  0  0
 18 42  1  0  0  0  0
 20 43  1  0  0  0  0
 20 44  1  0  0  0  0
 20 45  1  0  0  0  0
 21 46  1  0  0  0  0
 21 47  1  0  0  0  0
 21 48  1  0  0  0  0
 22 49  1  0  0  0  0
 22 50  1  0  0  0  0
 26 51  1  0  0  0  0
M  END
> <clash_score>
0

> <docking_score>
-8.50100040435791

> <overlap_score>
0.9376773834228516

$$$$
BENZO_83_1
  -OEChem-08232013523D

 57 61  0     0  0  0  0  0  0999 V2000
    4.2460    1.7520   20.8250 C   0  0  0  0  0  0  0  0  0  0  0  0
    3.8860    2.1050   19.5250 C   0  0  0  0  0  0  0  0  0  0  0  0
    5.3890    1.0010   21.0690 C   0  0  0  0  0  0  0  0  0  0  0  0
    4.6610    1.7170   18.4380 C   0  0  0  0  0  0  0  0  0  0  0  0
    9.1890   -3.5540   24.0140 C   0  0  0  0  0  0  0  0  0  0  0  0
    7.8700   -2.0610   25.3550 C   0  0  0  0  0  0  0  0  0  0  0  0
    9.5890   -2.4950   23.2210 C   0  0  0  0  0  0  0  0  0  0  0  0
    8.2550   -1.0010   24.5520 C   0  0  0  0  0  0  0  0  0  0  0  0
   13.2516    0.9063   22.9518 C   0  0  0  0  0  0  0  0  0  0  0  0
   12.4136   -1.1249   23.0350 C   0  0  0  0  0  0  0  0  0  0  0  0
    6.1460    0.6070   19.9750 C   0  0  0  0  0  0  0  0  0  0  0  0
   12.0454    0.1966   23.1038 C   0  0  0  0  0  0  0  0  0  0  0  0
    5.7970    0.9500   18.6730 C   0  0  0  0  0  0  0  0  0  0  0  0
    8.3450   -3.3440   25.0980 C   0  0  0  0  0  0  0  0  0  0  0  0
    9.1280   -1.2090   23.4870 C   0  0  0  0  0  0  0  0  0  0  0  0
    7.2710   -0.1460   19.8310 C   0  0  0  0  0  0  0  0  0  0  0  0
    9.0430    0.2380   21.4940 C   0  0  0  0  0  0  0  0  0  0  0  0
    8.9524   -5.2012   26.6600 C   0  0  0  0  0  0  0  0  0  0  0  0
    6.6112   -4.5068   26.4379 C   0  0  0  0  0  0  0  0  0  0  0  0
    8.9037   -4.7845   28.1261 C   0  0  0  0  0  0  0  0  0  0  0  0
    6.6374   -4.1243   27.9184 C   0  0  0  0  0  0  0  0  0  0  0  0
   14.6105   -2.2888   22.7229 C   0  0  0  0  0  0  0  0  0  0  0  0
   10.6659    0.7557   23.3001 C   0  0  0  0  0  0  0  0  0  0  0  0
   14.3071    0.1024   22.7982 N   0  0  0  0  0  0  0  0  0  0  0  0
    7.5840   -0.2700   18.5160 N   0  0  0  0  0  0  0  0  0  0  0  0
    6.7100    0.3850   17.8100 N   0  0  0  0  0  0  0  0  0  0  0  0
   13.7653   -1.1262   22.8534 N   0  0  0  0  0  0  0  0  0  0  0  0
    7.9775   -4.4014   25.9151 N   0  0  0  0  0  0  0  0  0  0  0  0
    8.0950   -0.7700   20.8440 N   0  0  0  0  0  0  0  0  0  0  0  0
    9.5820   -0.1080   22.7000 N   0  0  0  0  0  0  0  0  0  0  0  0
    9.2950    1.3000   20.9480 O   0  0  0  0  0  0  0  0  0  0  0  0
    7.5729   -4.9391   28.6338 O   0  0  0  0  0  0  0  0  0  0  0  0
    3.6223    2.0725   21.6574 H   0  0  0  0  0  0  0  0  0  0  0  0
    2.9864    2.6933   19.3609 H   0  0  0  0  0  0  0  0  0  0  0  0
    5.6689    0.7392   22.0836 H   0  0  0  0  0  0  0  0  0  0  0  0
    4.3807    2.0116   17.4186 H   0  0  0  0  0  0  0  0  0  0  0  0
    9.5426   -4.5618   23.7797 H   0  0  0  0  0  0  0  0  0  0  0  0
    7.1914   -1.8824   26.1903 H   0  0  0  0  0  0  0  0  0  0  0  0
   10.2669   -2.6745   22.3854 H   0  0  0  0  0  0  0  0  0  0  0  0
    7.8690   -0.0020   24.7587 H   0  0  0  0  0  0  0  0  0  0  0  0
   13.4081    1.9758   22.9471 H   0  0  0  0  0  0  0  0  0  0  0  0
   11.8432   -2.0416   23.0995 H   0  0  0  0  0  0  0  0  0  0  0  0
    9.9615   -5.0500   26.2711 H   0  0  0  0  0  0  0  0  0  0  0  0
    8.6935   -6.2597   26.5720 H   0  0  0  0  0  0  0  0  0  0  0  0
    6.2628   -5.5350   26.3330 H   0  0  0  0  0  0  0  0  0  0  0  0
    5.9347   -3.8423   25.9023 H   0  0  0  0  0  0  0  0  0  0  0  0
    9.5597   -5.4275   28.7166 H   0  0  0  0  0  0  0  0  0  0  0  0
    9.2344   -3.7511   28.2636 H   0  0  0  0  0  0  0  0  0  0  0  0
    6.8874   -3.0657   28.0553 H   0  0  0  0  0  0  0  0  0  0  0  0
    5.6495   -4.2893   28.3591 H   0  0  0  0  0  0  0  0  0  0  0  0
   14.6696   -2.5455   21.6619 H   0  0  0  0  0  0  0  0  0  0  0  0
   15.6050   -2.0622   23.1173 H   0  0  0  0  0  0  0  0  0  0  0  0
   14.1787   -3.1155   23.2938 H   0  0  0  0  0  0  0  0  0  0  0  0
   10.4490    0.8829   24.3664 H   0  0  0  0  0  0  0  0  0  0  0  0
   10.5700    1.7396   22.8291 H   0  0  0  0  0  0  0  0  0  0  0  0
    6.7486    0.4313   16.8331 H   0  0  0  0  0  0  0  0  0  0  0  0
    8.0897   -1.6082   21.0890 H   0  0  0  0  0  0  0  0  0  0  0  0
  1  2  1  0  0  0  0
  1  3  2  0  0  0  0
  2  4  2  0  0  0  0
  3 11  1  0  0  0  0
  4 13  1  0  0  0  0
  5  7  2  0  0  0  0
  5 14  1  0  0  0  0
  6  8  1  0  0  0  0
  6 14  2  0  0  0  0
  7 15  1  0  0  0  0
  8 15  2  0  0  0  0
  9 12  1  0  0  0  0
  9 24  2  0  0  0  0
 10 12  2  0  0  0  0
 10 27  1  0  0  0  0
 11 13  2  0  0  0  0
 11 16  1  0  0  0  0
 12 23  1  0  0  0  0
 13 26  1  0  0  0  0
 14 28  1  0  0  0  0
 15 30  1  0  0  0  0
 16 25  2  0  0  0  0
 16 29  1  0  0  0  0
 17 29  1  0  0  0  0
 17 30  1  0  0  0  0
 17 31  2  0  0  0  0
 18 20  1  0  0  0  0
 18 28  1  0  0  0  0
 19 21  1  0  0  0  0
 19 28  1  0  0  0  0
 20 32  1  0  0  0  0
 21 32  1  0  0  0  0
 22 27  1  0  0  0  0
 23 30  1  0  0  0  0
 24 27  1  0  0  0  0
 25 26  1  0  0  0  0
  1 33  1  0  0  0  0
  2 34  1  0  0  0  0
  3 35  1  0  0  0  0
  4 36  1  0  0  0  0
  5 37  1  0  0  0  0
  6 38  1  0  0  0  0
  7 39  1  0  0  0  0
  8 40  1  0  0  0  0
  9 41  1  0  0  0  0
 10 42  1  0  0  0  0
 18 43  1  0  0  0  0
 18 44  1  0  0  0  0
 19 45  1  0  0  0  0
 19 46  1  0  0  0  0
 20 47  1  0  0  0  0
 20 48  1  0  0  0  0
 21 49  1  0  0  0  0
 21 50  1  0  0  0  0
 22 51  1  0  0  0  0
 22 52  1  0  0  0  0
 22 53  1  0  0  0  0
 23 54  1  0  0  0  0
 23 55  1  0  0  0  0
 26 56  1  0  0  0  0
 29 57  1  0  0  0  0
M  END
> <clash_score>
0

> <docking_score>
-9.073486328125

> <overlap_score>
0.968580424785614

$$$$
BENZO_84_1
  -OEChem-08232013523D

 48 51  0     0  0  0  0  0  0999 V2000
    9.5890   -2.4950   23.2210 C   0  0  0  0  0  0  0  0  0  0  0  0
    8.2550   -1.0010   24.5520 C   0  0  0  0  0  0  0  0  0  0  0  0
    9.1890   -3.5540   24.0140 C   0  0  0  0  0  0  0  0  0  0  0  0
    7.8700   -2.0610   25.3550 C   0  0  0  0  0  0  0  0  0  0  0  0
   12.5081   -0.2095   24.8573 C   0  0  0  0  0  0  0  0  0  0  0  0
   13.6598   -0.9635   24.8063 C   0  0  0  0  0  0  0  0  0  0  0  0
   12.6466   -0.6733   22.5839 C   0  0  0  0  0  0  0  0  0  0  0  0
   11.9210   -0.0414   23.5700 C   0  0  0  0  0  0  0  0  0  0  0  0
    9.1280   -1.2090   23.4870 C   0  0  0  0  0  0  0  0  0  0  0  0
    8.3450   -3.3440   25.0980 C   0  0  0  0  0  0  0  0  0  0  0  0
    6.1460    0.6070   19.9750 C   0  0  0  0  0  0  0  0  0  0  0  0
    7.2710   -0.1460   19.8310 C   0  0  0  0  0  0  0  0  0  0  0  0
    5.3890    1.0010   21.0690 C   0  0  0  0  0  0  0  0  0  0  0  0
    4.2460    1.7520   20.8250 C   0  0  0  0  0  0  0  0  0  0  0  0
    3.8860    2.1050   19.5250 C   0  0  0  0  0  0  0  0  0  0  0  0
    4.6610    1.7170   18.4380 C   0  0  0  0  0  0  0  0  0  0  0  0
    9.0430    0.2380   21.4940 C   0  0  0  0  0  0  0  0  0  0  0  0
    7.2639   -5.5575   25.3809 C   0  0  0  0  0  0  0  0  0  0  0  0
    8.3065   -4.4045   27.3384 C   0  0  0  0  0  0  0  0  0  0  0  0
   10.6602    0.7344   23.3196 C   0  0  0  0  0  0  0  0  0  0  0  0
    7.5840   -0.2700   18.5160 N   0  0  0  0  0  0  0  0  0  0  0  0
    6.7100    0.3850   17.8100 N   0  0  0  0  0  0  0  0  0  0  0  0
    5.7970    0.9500   18.6730 N   0  0  0  0  0  0  0  0  0  0  0  0
    8.0950   -0.7700   20.8440 N   0  0  0  0  0  0  0  0  0  0  0  0
    9.5820   -0.1080   22.7000 N   0  0  0  0  0  0  0  0  0  0  0  0
    7.9731   -4.4180   25.9279 N   0  0  0  0  0  0  0  0  0  0  0  0
    9.2950    1.3000   20.9480 O   0  0  0  0  0  0  0  0  0  0  0  0
   14.0292   -1.4652   23.2112 S   0  0  0  0  0  0  0  0  0  0  0  0
   10.2682   -2.6746   22.3864 H   0  0  0  0  0  0  0  0  0  0  0  0
    7.8692   -0.0022   24.7600 H   0  0  0  0  0  0  0  0  0  0  0  0
    9.5433   -4.5619   23.7809 H   0  0  0  0  0  0  0  0  0  0  0  0
    7.1923   -1.8829   26.1908 H   0  0  0  0  0  0  0  0  0  0  0  0
   12.1095    0.2005   25.7767 H   0  0  0  0  0  0  0  0  0  0  0  0
   14.3024   -1.2432   25.6291 H   0  0  0  0  0  0  0  0  0  0  0  0
   12.4351   -0.7092   21.5242 H   0  0  0  0  0  0  0  0  0  0  0  0
    5.6529    0.7487   22.0767 H   0  0  0  0  0  0  0  0  0  0  0  0
    3.6388    2.0586   21.6675 H   0  0  0  0  0  0  0  0  0  0  0  0
    2.9822    2.6968   19.3330 H   0  0  0  0  0  0  0  0  0  0  0  0
    4.4111    1.9893   17.4360 H   0  0  0  0  0  0  0  0  0  0  0  0
    7.0643   -6.2848   26.1817 H   0  0  0  0  0  0  0  0  0  0  0  0
    6.3114   -5.2217   24.9450 H   0  0  0  0  0  0  0  0  0  0  0  0
    7.8776   -6.0310   24.6004 H   0  0  0  0  0  0  0  0  0  0  0  0
    7.9331   -5.3240   27.8129 H   0  0  0  0  0  0  0  0  0  0  0  0
    9.3988   -4.3488   27.4563 H   0  0  0  0  0  0  0  0  0  0  0  0
    7.8411   -3.5301   27.8167 H   0  0  0  0  0  0  0  0  0  0  0  0
   10.2665    1.1441   24.2563 H   0  0  0  0  0  0  0  0  0  0  0  0
   10.8453    1.5790   22.6476 H   0  0  0  0  0  0  0  0  0  0  0  0
    8.0689   -1.6186   21.0712 H   0  0  0  0  0  0  0  0  0  0  0  0
  1  3  2  0  0  0  0
  1  9  1  0  0  0  0
  2  4  1  0  0  0  0
  2  9  2  0  0  0  0
  3 10  1  0  0  0  0
  4 10  2  0  0  0  0
  5  6  2  0  0  0  0
  5  8  1  0  0  0  0
  6 28  1  0  0  0  0
  7  8  2  0  0  0  0
  7 28  1  0  0  0  0
  8 20  1  0  0  0  0
  9 25  1  0  0  0  0
 10 26  1  0  0  0  0
 11 12  2  0  0  0  0
 11 13  1  0  0  0  0
 11 23  1  0  0  0  0
 12 21  1  0  0  0  0
 12 24  1  0  0  0  0
 13 14  2  0  0  0  0
 14 15  1  0  0  0  0
 15 16  2  0  0  0  0
 16 23  1  0  0  0  0
 17 24  1  0  0  0  0
 17 25  1  0  0  0  0
 17 27  2  0  0  0  0
 18 26  1  0  0  0  0
 19 26  1  0  0  0  0
 20 25  1  0  0  0  0
 21 22  2  0  0  0  0
 22 23  1  0  0  0  0
  1 29  1  0  0  0  0
  2 30  1  0  0  0  0
  3 31  1  0  0  0  0
  4 32  1  0  0  0  0
  5 33  1  0  0  0  0
  6 34  1  0  0  0  0
  7 35  1  0  0  0  0
 13 36  1  0  0  0  0
 14 37  1  0  0  0  0
 15 38  1  0  0  0  0
 16 39  1  0  0  0  0
 18 40  1  0  0  0  0
 18 41  1  0  0  0  0
 18 42  1  0  0  0  0
 19 43  1  0  0  0  0
 19 44  1  0  0  0  0
 19 45  1  0  0  0  0
 20 46  1  0  0  0  0
 20 47  1  0  0  0  0
 24 48  1  0  0  0  0
M  END
> <clash_score>
0

> <docking_score>
-8.335366249084473

> <overlap_score>
0.9224526882171631

$$$$
BENZO_87_1
  -OEChem-08232013523D

 51 54  0     0  0  0  0  0  0999 V2000
    9.5890   -2.4950   23.2210 C   0  0  0  0  0  0  0  0  0  0  0  0
    8.2550   -1.0010   24.5520 C   0  0  0  0  0  0  0  0  0  0  0  0
    9.1890   -3.5540   24.0140 C   0  0  0  0  0  0  0  0  0  0  0  0
    7.8700   -2.0610   25.3550 C   0  0  0  0  0  0  0  0  0  0  0  0
   13.2163    0.4892   23.8052 C   0  0  0  0  0  0  0  0  0  0  0  0
   12.3973   -0.8665   22.2800 C   0  0  0  0  0  0  0  0  0  0  0  0
   12.0272    0.1412   23.1368 C   0  0  0  0  0  0  0  0  0  0  0  0
    9.1280   -1.2090   23.4870 C   0  0  0  0  0  0  0  0  0  0  0  0
    8.3450   -3.3440   25.0980 C   0  0  0  0  0  0  0  0  0  0  0  0
    6.1460    0.6070   19.9750 C   0  0  0  0  0  0  0  0  0  0  0  0
    7.2710   -0.1460   19.8310 C   0  0  0  0  0  0  0  0  0  0  0  0
    5.3890    1.0010   21.0690 C   0  0  0  0  0  0  0  0  0  0  0  0
    4.2460    1.7520   20.8250 C   0  0  0  0  0  0  0  0  0  0  0  0
    3.8860    2.1050   19.5250 C   0  0  0  0  0  0  0  0  0  0  0  0
    4.6610    1.7170   18.4380 C   0  0  0  0  0  0  0  0  0  0  0  0
    9.0430    0.2380   21.4940 C   0  0  0  0  0  0  0  0  0  0  0  0
   14.5742   -2.0121   21.8033 C   0  0  0  0  0  0  0  0  0  0  0  0
    7.2639   -5.5575   25.3809 C   0  0  0  0  0  0  0  0  0  0  0  0
    8.3065   -4.4045   27.3384 C   0  0  0  0  0  0  0  0  0  0  0  0
   10.6602    0.7344   23.3196 C   0  0  0  0  0  0  0  0  0  0  0  0
   14.2634   -0.2384   23.4073 N   0  0  0  0  0  0  0  0  0  0  0  0
    7.5840   -0.2700   18.5160 N   0  0  0  0  0  0  0  0  0  0  0  0
    6.7100    0.3850   17.8100 N   0  0  0  0  0  0  0  0  0  0  0  0
   13.7334   -1.0537   22.4797 N   0  0  0  0  0  0  0  0  0  0  0  0
    5.7970    0.9500   18.6730 N   0  0  0  0  0  0  0  0  0  0  0  0
    8.0950   -0.7700   20.8440 N   0  0  0  0  0  0  0  0  0  0  0  0
    9.5820   -0.1080   22.7000 N   0  0  0  0  0  0  0  0  0  0  0  0
    7.9731   -4.4180   25.9279 N   0  0  0  0  0  0  0  0  0  0  0  0
    9.2950    1.3000   20.9480 O   0  0  0  0  0  0  0  0  0  0  0  0
   10.2682   -2.6746   22.3864 H   0  0  0  0  0  0  0  0  0  0  0  0
    7.8692   -0.0022   24.7600 H   0  0  0  0  0  0  0  0  0  0  0  0
    9.5433   -4.5619   23.7809 H   0  0  0  0  0  0  0  0  0  0  0  0
    7.1923   -1.8829   26.1908 H   0  0  0  0  0  0  0  0  0  0  0  0
   13.3658    1.2416   24.5666 H   0  0  0  0  0  0  0  0  0  0  0  0
   11.8373   -1.4526   21.5639 H   0  0  0  0  0  0  0  0  0  0  0  0
    5.6529    0.7487   22.0767 H   0  0  0  0  0  0  0  0  0  0  0  0
    3.6388    2.0586   21.6675 H   0  0  0  0  0  0  0  0  0  0  0  0
    2.9822    2.6968   19.3330 H   0  0  0  0  0  0  0  0  0  0  0  0
    4.4111    1.9893   17.4360 H   0  0  0  0  0  0  0  0  0  0  0  0
   14.9794   -1.5328   20.9083 H   0  0  0  0  0  0  0  0  0  0  0  0
   15.3833   -2.3217   22.4708 H   0  0  0  0  0  0  0  0  0  0  0  0
   13.9782   -2.8882   21.5327 H   0  0  0  0  0  0  0  0  0  0  0  0
    7.0643   -6.2848   26.1817 H   0  0  0  0  0  0  0  0  0  0  0  0
    6.3114   -5.2217   24.9450 H   0  0  0  0  0  0  0  0  0  0  0  0
    7.8776   -6.0310   24.6004 H   0  0  0  0  0  0  0  0  0  0  0  0
    7.9331   -5.3240   27.8129 H   0  0  0  0  0  0  0  0  0  0  0  0
    9.3988   -4.3488   27.4563 H   0  0  0  0  0  0  0  0  0  0  0  0
    7.8411   -3.5301   27.8167 H   0  0  0  0  0  0  0  0  0  0  0  0
   10.4266    0.8452   24.3842 H   0  0  0  0  0  0  0  0  0  0  0  0
   10.6004    1.7303   22.8682 H   0  0  0  0  0  0  0  0  0  0  0  0
    8.0689   -1.6186   21.0712 H   0  0  0  0  0  0  0  0  0  0  0  0
  1  3  2  0  0  0  0
  1  8  1  0  0  0  0
  2  4  1  0  0  0  0
  2  8  2  0  0  0  0
  3  9  1  0  0  0  0
  4  9  2  0  0  0  0
  5  7  1  0  0  0  0
  5 21  2  0  0  0  0
  6  7  2  0  0  0  0
  6 24  1  0  0  0  0
  7 20  1  0  0  0  0
  8 27  1  0  0  0  0
  9 28  1  0  0  0  0
 10 11  2  0  0  0  0
 10 12  1  0  0  0  0
 10 25  1  0  0  0  0
 11 22  1  0  0  0  0
 11 26  1  0  0  0  0
 12 13  2  0  0  0  0
 13 14  1  0  0  0  0
 14 15  2  0  0  0  0
 15 25  1  0  0  0  0
 16 26  1  0  0  0  0
 16 27  1  0  0  0  0
 16 29  2  0  0  0  0
 17 24  1  0  0  0  0
 18 28  1  0  0  0  0
 19 28  1  0  0  0  0
 20 27  1  0  0  0  0
 21 24  1  0  0  0  0
 22 23  2  0  0  0  0
 23 25  1  0  0  0  0
  1 30  1  0  0  0  0
  2 31  1  0  0  0  0
  3 32  1  0  0  0  0
  4 33  1  0  0  0  0
  5 34  1  0  0  0  0
  6 35  1  0  0  0  0
 12 36  1  0  0  0  0
 13 37  1  0  0  0  0
 14 38  1  0  0  0  0
 15 39  1  0  0  0  0
 17 40  1  0  0  0  0
 17 41  1  0  0  0  0
 17 42  1  0  0  0  0
 18 43  1  0  0  0  0
 18 44  1  0  0  0  0
 18 45  1  0  0  0  0
 19 46  1  0  0  0  0
 19 47  1  0  0  0  0
 19 48  1  0  0  0  0
 20 49  1  0  0  0  0
 20 50  1  0  0  0  0
 26 51  1  0  0  0  0
M  END
> <clash_score>
0

> <docking_score>
-8.739623069763184

> <overlap_score>
0.9312119483947754

$$$$
BENZO_86_1
  -OEChem-08232013523D

 51 54  0     0  0  0  0  0  0999 V2000
   13.5949   -0.8753   25.0995 C   0  0  0  0  0  0  0  0  0  0  0  0
   12.4243   -0.1538   24.8660 C   0  0  0  0  0  0  0  0  0  0  0  0
    9.5890   -2.4950   23.2210 C   0  0  0  0  0  0  0  0  0  0  0  0
    8.2550   -1.0010   24.5520 C   0  0  0  0  0  0  0  0  0  0  0  0
    9.1890   -3.5540   24.0140 C   0  0  0  0  0  0  0  0  0  0  0  0
    7.8700   -2.0610   25.3550 C   0  0  0  0  0  0  0  0  0  0  0  0
   14.2624   -1.4845   24.0368 C   0  0  0  0  0  0  0  0  0  0  0  0
   12.5883   -0.6507   22.5073 C   0  0  0  0  0  0  0  0  0  0  0  0
   11.9210   -0.0414   23.5700 C   0  0  0  0  0  0  0  0  0  0  0  0
    9.1280   -1.2090   23.4870 C   0  0  0  0  0  0  0  0  0  0  0  0
    8.3450   -3.3440   25.0980 C   0  0  0  0  0  0  0  0  0  0  0  0
   13.7590   -1.3722   22.7408 C   0  0  0  0  0  0  0  0  0  0  0  0
    6.1460    0.6070   19.9750 C   0  0  0  0  0  0  0  0  0  0  0  0
    7.2710   -0.1460   19.8310 C   0  0  0  0  0  0  0  0  0  0  0  0
    5.3890    1.0010   21.0690 C   0  0  0  0  0  0  0  0  0  0  0  0
    4.2460    1.7520   20.8250 C   0  0  0  0  0  0  0  0  0  0  0  0
    3.8860    2.1050   19.5250 C   0  0  0  0  0  0  0  0  0  0  0  0
    4.6610    1.7170   18.4380 C   0  0  0  0  0  0  0  0  0  0  0  0
    9.0430    0.2380   21.4940 C   0  0  0  0  0  0  0  0  0  0  0  0
    7.2639   -5.5575   25.3809 C   0  0  0  0  0  0  0  0  0  0  0  0
    8.3065   -4.4045   27.3384 C   0  0  0  0  0  0  0  0  0  0  0  0
   10.6602    0.7344   23.3196 C   0  0  0  0  0  0  0  0  0  0  0  0
    7.5840   -0.2700   18.5160 N   0  0  0  0  0  0  0  0  0  0  0  0
    6.7100    0.3850   17.8100 N   0  0  0  0  0  0  0  0  0  0  0  0
    5.7970    0.9500   18.6730 N   0  0  0  0  0  0  0  0  0  0  0  0
    8.0950   -0.7700   20.8440 N   0  0  0  0  0  0  0  0  0  0  0  0
    9.5820   -0.1080   22.7000 N   0  0  0  0  0  0  0  0  0  0  0  0
    7.9731   -4.4180   25.9279 N   0  0  0  0  0  0  0  0  0  0  0  0
    9.2950    1.3000   20.9480 O   0  0  0  0  0  0  0  0  0  0  0  0
   14.5823   -2.1250   21.4304 Cl  0  0  0  0  0  0  0  0  0  0  0  0
   13.9864   -0.9627   26.1089 H   0  0  0  0  0  0  0  0  0  0  0  0
   11.9108    0.3176   25.7000 H   0  0  0  0  0  0  0  0  0  0  0  0
   10.2682   -2.6746   22.3864 H   0  0  0  0  0  0  0  0  0  0  0  0
    7.8692   -0.0022   24.7600 H   0  0  0  0  0  0  0  0  0  0  0  0
    9.5433   -4.5619   23.7809 H   0  0  0  0  0  0  0  0  0  0  0  0
    7.1923   -1.8829   26.1908 H   0  0  0  0  0  0  0  0  0  0  0  0
   15.1736   -2.0440   24.2337 H   0  0  0  0  0  0  0  0  0  0  0  0
   12.1922   -0.5597   21.4986 H   0  0  0  0  0  0  0  0  0  0  0  0
    5.6529    0.7487   22.0767 H   0  0  0  0  0  0  0  0  0  0  0  0
    3.6388    2.0586   21.6675 H   0  0  0  0  0  0  0  0  0  0  0  0
    2.9822    2.6968   19.3330 H   0  0  0  0  0  0  0  0  0  0  0  0
    4.4111    1.9893   17.4360 H   0  0  0  0  0  0  0  0  0  0  0  0
    7.0643   -6.2848   26.1817 H   0  0  0  0  0  0  0  0  0  0  0  0
    6.3114   -5.2217   24.9450 H   0  0  0  0  0  0  0  0  0  0  0  0
    7.8776   -6.0310   24.6004 H   0  0  0  0  0  0  0  0  0  0  0  0
    7.9331   -5.3240   27.8129 H   0  0  0  0  0  0  0  0  0  0  0  0
    9.3988   -4.3488   27.4563 H   0  0  0  0  0  0  0  0  0  0  0  0
    7.8411   -3.5301   27.8167 H   0  0  0  0  0  0  0  0  0  0  0  0
   10.2665    1.1441   24.2563 H   0  0  0  0  0  0  0  0  0  0  0  0
   10.8453    1.5790   22.6476 H   0  0  0  0  0  0  0  0  0  0  0  0
    8.0689   -1.6186   21.0712 H   0  0  0  0  0  0  0  0  0  0  0  0
  1  2  2  0  0  0  0
  1  7  1  0  0  0  0
  2  9  1  0  0  0  0
  3  5  2  0  0  0  0
  3 10  1  0  0  0  0
  4  6  1  0  0  0  0
  4 10  2  0  0  0  0
  5 11  1  0  0  0  0
  6 11  2  0  0  0  0
  7 12  2  0  0  0  0
  8  9  2  0  0  0  0
  8 12  1  0  0  0  0
  9 22  1  0  0  0  0
 10 27  1  0  0  0  0
 11 28  1  0  0  0  0
 12 30  1  0  0  0  0
 13 14  2  0  0  0  0
 13 15  1  0  0  0  0
 13 25  1  0  0  0  0
 14 23  1  0  0  0  0
 14 26  1  0  0  0  0
 15 16  2  0  0  0  0
 16 17  1  0  0  0  0
 17 18  2  0  0  0  0
 18 25  1  0  0  0  0
 19 26  1  0  0  0  0
 19 27  1  0  0  0  0
 19 29  2  0  0  0  0
 20 28  1  0  0  0  0
 21 28  1  0  0  0  0
 22 27  1  0  0  0  0
 23 24  2  0  0  0  0
 24 25  1  0  0  0  0
  1 31  1  0  0  0  0
  2 32  1  0  0  0  0
  3 33  1  0  0  0  0
  4 34  1  0  0  0  0
  5 35  1  0  0  0  0
  6 36  1  0  0  0  0
  7 37  1  0  0  0  0
  8 38  1  0  0  0  0
 15 39  1  0  0  0  0
 16 40  1  0  0  0  0
 17 41  1  0  0  0  0
 18 42  1  0  0  0  0
 20 43  1  0  0  0  0
 20 44  1  0  0  0  0
 20 45  1  0  0  0  0
 21 46  1  0  0  0  0
 21 47  1  0  0  0  0
 21 48  1  0  0  0  0
 22 49  1  0  0  0  0
 22 50  1  0  0  0  0
 26 51  1  0  0  0  0
M  END
> <clash_score>
0

> <docking_score>
-7.748011589050293

> <overlap_score>
0.9473917484283447

$$$$
BENZO_89_1
  -OEChem-08232013523D

 53 56  0     0  0  0  0  0  0999 V2000
   14.2631   -1.4841   24.0344 C   0  0  0  0  0  0  0  0  0  0  0  0
   13.9273   -0.4139   24.8635 C   0  0  0  0  0  0  0  0  0  0  0  0
   13.4280   -1.8330   22.9730 C   0  0  0  0  0  0  0  0  0  0  0  0
   12.7562    0.3074   24.6313 C   0  0  0  0  0  0  0  0  0  0  0  0
   12.2569   -1.1117   22.7408 C   0  0  0  0  0  0  0  0  0  0  0  0
    9.1890   -3.5540   24.0140 C   0  0  0  0  0  0  0  0  0  0  0  0
    7.8700   -2.0610   25.3550 C   0  0  0  0  0  0  0  0  0  0  0  0
    9.5890   -2.4950   23.2210 C   0  0  0  0  0  0  0  0  0  0  0  0
    8.2550   -1.0010   24.5520 C   0  0  0  0  0  0  0  0  0  0  0  0
   11.9210   -0.0414   23.5700 C   0  0  0  0  0  0  0  0  0  0  0  0
    8.3450   -3.3440   25.0980 C   0  0  0  0  0  0  0  0  0  0  0  0
    9.1280   -1.2090   23.4870 C   0  0  0  0  0  0  0  0  0  0  0  0
    6.1460    0.6070   19.9750 C   0  0  0  0  0  0  0  0  0  0  0  0
    7.2710   -0.1460   19.8310 C   0  0  0  0  0  0  0  0  0  0  0  0
    5.3890    1.0010   21.0690 C   0  0  0  0  0  0  0  0  0  0  0  0
    4.2460    1.7520   20.8250 C   0  0  0  0  0  0  0  0  0  0  0  0
    3.8860    2.1050   19.5250 C   0  0  0  0  0  0  0  0  0  0  0  0
    4.6610    1.7170   18.4380 C   0  0  0  0  0  0  0  0  0  0  0  0
    7.6599   -4.3755   27.2873 C   0  0  0  0  0  0  0  0  0  0  0  0
    9.0430    0.2380   21.4940 C   0  0  0  0  0  0  0  0  0  0  0  0
    8.4364   -6.7636   27.6038 C   0  0  0  0  0  0  0  0  0  0  0  0
   10.6602    0.7344   23.3196 C   0  0  0  0  0  0  0  0  0  0  0  0
    7.3107   -5.7642   27.8016 C   0  0  0  0  0  0  0  0  0  0  0  0
    7.5840   -0.2700   18.5160 N   0  0  0  0  0  0  0  0  0  0  0  0
    6.7100    0.3850   17.8100 N   0  0  0  0  0  0  0  0  0  0  0  0
    5.7970    0.9500   18.6730 N   0  0  0  0  0  0  0  0  0  0  0  0
    7.9771   -4.4058   25.9196 N   0  0  0  0  0  0  0  0  0  0  0  0
    8.0950   -0.7700   20.8440 N   0  0  0  0  0  0  0  0  0  0  0  0
    9.5820   -0.1080   22.7000 N   0  0  0  0  0  0  0  0  0  0  0  0
    7.6494   -3.3899   28.0173 O   0  0  0  0  0  0  0  0  0  0  0  0
    9.2950    1.3000   20.9480 O   0  0  0  0  0  0  0  0  0  0  0  0
   15.1757   -2.0448   24.2145 H   0  0  0  0  0  0  0  0  0  0  0  0
   14.5780   -0.1414   25.6893 H   0  0  0  0  0  0  0  0  0  0  0  0
   13.6897   -2.6654   22.3267 H   0  0  0  0  0  0  0  0  0  0  0  0
   12.5024    1.1397   25.2826 H   0  0  0  0  0  0  0  0  0  0  0  0
   11.6122   -1.3907   21.9116 H   0  0  0  0  0  0  0  0  0  0  0  0
    9.5436   -4.5614   23.7799 H   0  0  0  0  0  0  0  0  0  0  0  0
    7.1918   -1.8823   26.1906 H   0  0  0  0  0  0  0  0  0  0  0  0
   10.2676   -2.6754   22.3861 H   0  0  0  0  0  0  0  0  0  0  0  0
    7.8686   -0.0026   24.7598 H   0  0  0  0  0  0  0  0  0  0  0  0
    5.6529    0.7487   22.0767 H   0  0  0  0  0  0  0  0  0  0  0  0
    3.6388    2.0586   21.6675 H   0  0  0  0  0  0  0  0  0  0  0  0
    2.9822    2.6968   19.3330 H   0  0  0  0  0  0  0  0  0  0  0  0
    4.4111    1.9893   17.4360 H   0  0  0  0  0  0  0  0  0  0  0  0
    8.6965   -6.8583   26.5444 H   0  0  0  0  0  0  0  0  0  0  0  0
    8.1392   -7.7501   27.9725 H   0  0  0  0  0  0  0  0  0  0  0  0
    9.3369   -6.4534   28.1441 H   0  0  0  0  0  0  0  0  0  0  0  0
   10.2665    1.1441   24.2563 H   0  0  0  0  0  0  0  0  0  0  0  0
   10.8453    1.5790   22.6476 H   0  0  0  0  0  0  0  0  0  0  0  0
    7.0716   -5.6896   28.8686 H   0  0  0  0  0  0  0  0  0  0  0  0
    6.4146   -6.1143   27.2764 H   0  0  0  0  0  0  0  0  0  0  0  0
    7.9294   -5.3301   25.4754 H   0  0  0  0  0  0  0  0  0  0  0  0
    8.0689   -1.6186   21.0712 H   0  0  0  0  0  0  0  0  0  0  0  0
  1  2  1  0  0  0  0
  1  3  2  0  0  0  0
  2  4  2  0  0  0  0
  3  5  1  0  0  0  0
  4 10  1  0  0  0  0
  5 10  2  0  0  0  0
  6  8  2  0  0  0  0
  6 11  1  0  0  0  0
  7  9  1  0  0  0  0
  7 11  2  0  0  0  0
  8 12  1  0  0  0  0
  9 12  2  0  0  0  0
 10 22  1  0  0  0  0
 11 27  1  0  0  0  0
 12 29  1  0  0  0  0
 13 14  2  0  0  0  0
 13 15  1  0  0  0  0
 13 26  1  0  0  0  0
 14 24  1  0  0  0  0
 14 28  1  0  0  0  0
 15 16  2  0  0  0  0
 16 17  1  0  0  0  0
 17 18  2  0  0  0  0
 18 26  1  0  0  0  0
 19 23  1  0  0  0  0
 19 27  1  0  0  0  0
 19 30  2  0  0  0  0
 20 28  1  0  0  0  0
 20 29  1  0  0  0  0
 20 31  2  0  0  0  0
 21 23  1  0  0  0  0
 22 29  1  0  0  0  0
 24 25  2  0  0  0  0
 25 26  1  0  0  0  0
  1 32  1  0  0  0  0
  2 33  1  0  0  0  0
  3 34  1  0  0  0  0
  4 35  1  0  0  0  0
  5 36  1  0  0  0  0
  6 37  1  0  0  0  0
  7 38  1  0  0  0  0
  8 39  1  0  0  0  0
  9 40  1  0  0  0  0
 15 41  1  0  0  0  0
 16 42  1  0  0  0  0
 17 43  1  0  0  0  0
 18 44  1  0  0  0  0
 21 45  1  0  0  0  0
 21 46  1  0  0  0  0
 21 47  1  0  0  0  0
 22 48  1  0  0  0  0
 22 49  1  0  0  0  0
 23 50  1  0  0  0  0
 23 51  1  0  0  0  0
 27 52  1  0  0  0  0
 28 53  1  0  0  0  0
M  END
> <clash_score>
0

> <docking_score>
-8.269668579101562

> <overlap_score>
0.9767869114875793

$$$$
BENZO_88_1
  -OEChem-08232013523D

 50 53  0     0  0  0  0  0  0999 V2000
    9.1890   -3.5540   24.0140 C   0  0  0  0  0  0  0  0  0  0  0  0
    7.8700   -2.0610   25.3550 C   0  0  0  0  0  0  0  0  0  0  0  0
    9.5890   -2.4950   23.2210 C   0  0  0  0  0  0  0  0  0  0  0  0
    8.2550   -1.0010   24.5520 C   0  0  0  0  0  0  0  0  0  0  0  0
   12.5081   -0.2095   24.8573 C   0  0  0  0  0  0  0  0  0  0  0  0
   13.6598   -0.9635   24.8063 C   0  0  0  0  0  0  0  0  0  0  0  0
   12.6466   -0.6733   22.5839 C   0  0  0  0  0  0  0  0  0  0  0  0
   11.9210   -0.0414   23.5700 C   0  0  0  0  0  0  0  0  0  0  0  0
    8.3450   -3.3440   25.0980 C   0  0  0  0  0  0  0  0  0  0  0  0
    9.1280   -1.2090   23.4870 C   0  0  0  0  0  0  0  0  0  0  0  0
    6.1460    0.6070   19.9750 C   0  0  0  0  0  0  0  0  0  0  0  0
    7.2710   -0.1460   19.8310 C   0  0  0  0  0  0  0  0  0  0  0  0
    5.3890    1.0010   21.0690 C   0  0  0  0  0  0  0  0  0  0  0  0
    4.2460    1.7520   20.8250 C   0  0  0  0  0  0  0  0  0  0  0  0
    3.8860    2.1050   19.5250 C   0  0  0  0  0  0  0  0  0  0  0  0
    4.6610    1.7170   18.4380 C   0  0  0  0  0  0  0  0  0  0  0  0
    8.2022   -4.5554   27.2977 C   0  0  0  0  0  0  0  0  0  0  0  0
    9.0430    0.2380   21.4940 C   0  0  0  0  0  0  0  0  0  0  0  0
    7.8888   -6.0857   29.2891 C   0  0  0  0  0  0  0  0  0  0  0  0
   10.6602    0.7344   23.3196 C   0  0  0  0  0  0  0  0  0  0  0  0
    7.6346   -5.8716   27.8078 C   0  0  0  0  0  0  0  0  0  0  0  0
    7.5840   -0.2700   18.5160 N   0  0  0  0  0  0  0  0  0  0  0  0
    6.7100    0.3850   17.8100 N   0  0  0  0  0  0  0  0  0  0  0  0
    5.7970    0.9500   18.6730 N   0  0  0  0  0  0  0  0  0  0  0  0
    7.9771   -4.4058   25.9196 N   0  0  0  0  0  0  0  0  0  0  0  0
    8.0950   -0.7700   20.8440 N   0  0  0  0  0  0  0  0  0  0  0  0
    9.5820   -0.1080   22.7000 N   0  0  0  0  0  0  0  0  0  0  0  0
    8.7736   -3.7626   28.0389 O   0  0  0  0  0  0  0  0  0  0  0  0
    9.2950    1.3000   20.9480 O   0  0  0  0  0  0  0  0  0  0  0  0
   14.0292   -1.4652   23.2112 S   0  0  0  0  0  0  0  0  0  0  0  0
    9.5436   -4.5614   23.7799 H   0  0  0  0  0  0  0  0  0  0  0  0
    7.1918   -1.8823   26.1906 H   0  0  0  0  0  0  0  0  0  0  0  0
   10.2676   -2.6754   22.3861 H   0  0  0  0  0  0  0  0  0  0  0  0
    7.8686   -0.0026   24.7598 H   0  0  0  0  0  0  0  0  0  0  0  0
   12.1095    0.2005   25.7767 H   0  0  0  0  0  0  0  0  0  0  0  0
   14.3024   -1.2432   25.6291 H   0  0  0  0  0  0  0  0  0  0  0  0
   12.4351   -0.7092   21.5242 H   0  0  0  0  0  0  0  0  0  0  0  0
    5.6529    0.7487   22.0767 H   0  0  0  0  0  0  0  0  0  0  0  0
    3.6388    2.0586   21.6675 H   0  0  0  0  0  0  0  0  0  0  0  0
    2.9822    2.6968   19.3330 H   0  0  0  0  0  0  0  0  0  0  0  0
    4.4111    1.9893   17.4360 H   0  0  0  0  0  0  0  0  0  0  0  0
    8.9615   -6.0801   29.5089 H   0  0  0  0  0  0  0  0  0  0  0  0
    7.4787   -7.0478   29.6110 H   0  0  0  0  0  0  0  0  0  0  0  0
    7.4197   -5.2969   29.8865 H   0  0  0  0  0  0  0  0  0  0  0  0
   10.2665    1.1441   24.2563 H   0  0  0  0  0  0  0  0  0  0  0  0
   10.8453    1.5790   22.6476 H   0  0  0  0  0  0  0  0  0  0  0  0
    6.5553   -5.8818   27.6170 H   0  0  0  0  0  0  0  0  0  0  0  0
    8.0880   -6.6902   27.2370 H   0  0  0  0  0  0  0  0  0  0  0  0
    7.4775   -5.1801   25.4670 H   0  0  0  0  0  0  0  0  0  0  0  0
    8.0689   -1.6186   21.0712 H   0  0  0  0  0  0  0  0  0  0  0  0
  1  3  2  0  0  0  0
  1  9  1  0  0  0  0
  2  4  1  0  0  0  0
  2  9  2  0  0  0  0
  3 10  1  0  0  0  0
  4 10  2  0  0  0  0
  5  6  2  0  0  0  0
  5  8  1  0  0  0  0
  6 30  1  0  0  0  0
  7  8  2  0  0  0  0
  7 30  1  0  0  0  0
  8 20  1  0  0  0  0
  9 25  1  0  0  0  0
 10 27  1  0  0  0  0
 11 12  2  0  0  0  0
 11 13  1  0  0  0  0
 11 24  1  0  0  0  0
 12 22  1  0  0  0  0
 12 26  1  0  0  0  0
 13 14  2  0  0  0  0
 14 15  1  0  0  0  0
 15 16  2  0  0  0  0
 16 24  1  0  0  0  0
 17 21  1  0  0  0  0
 17 25  1  0  0  0  0
 17 28  2  0  0  0  0
 18 26  1  0  0  0  0
 18 27  1  0  0  0  0
 18 29  2  0  0  0  0
 19 21  1  0  0  0  0
 20 27  1  0  0  0  0
 22 23  2  0  0  0  0
 23 24  1  0  0  0  0
  1 31  1  0  0  0  0
  2 32  1  0  0  0  0
  3 33  1  0  0  0  0
  4 34  1  0  0  0  0
  5 35  1  0  0  0  0
  6 36  1  0  0  0  0
  7 37  1  0  0  0  0
 13 38  1  0  0  0  0
 14 39  1  0  0  0  0
 15 40  1  0  0  0  0
 16 41  1  0  0  0  0
 19 42  1  0  0  0  0
 19 43  1  0  0  0  0
 19 44  1  0  0  0  0
 20 45  1  0  0  0  0
 20 46  1  0  0  0  0
 21 47  1  0  0  0  0
 21 48  1  0  0  0  0
 25 49  1  0  0  0  0
 26 50  1  0  0  0  0
M  END
> <clash_score>
0

> <docking_score>
-8.610811233520508

> <overlap_score>
0.9788735508918762

$$$$
BENZO_91_1
  -OEChem-08232013523D

 53 56  0     0  0  0  0  0  0999 V2000
    9.1890   -3.5540   24.0140 C   0  0  0  0  0  0  0  0  0  0  0  0
    7.8700   -2.0610   25.3550 C   0  0  0  0  0  0  0  0  0  0  0  0
    9.5890   -2.4950   23.2210 C   0  0  0  0  0  0  0  0  0  0  0  0
    8.2550   -1.0010   24.5520 C   0  0  0  0  0  0  0  0  0  0  0  0
   13.2163    0.4892   23.8052 C   0  0  0  0  0  0  0  0  0  0  0  0
   12.3973   -0.8665   22.2800 C   0  0  0  0  0  0  0  0  0  0  0  0
   12.0272    0.1412   23.1368 C   0  0  0  0  0  0  0  0  0  0  0  0
    8.3450   -3.3440   25.0980 C   0  0  0  0  0  0  0  0  0  0  0  0
    9.1280   -1.2090   23.4870 C   0  0  0  0  0  0  0  0  0  0  0  0
    6.1460    0.6070   19.9750 C   0  0  0  0  0  0  0  0  0  0  0  0
    7.2710   -0.1460   19.8310 C   0  0  0  0  0  0  0  0  0  0  0  0
    5.3890    1.0010   21.0690 C   0  0  0  0  0  0  0  0  0  0  0  0
    4.2460    1.7520   20.8250 C   0  0  0  0  0  0  0  0  0  0  0  0
    3.8860    2.1050   19.5250 C   0  0  0  0  0  0  0  0  0  0  0  0
    4.6610    1.7170   18.4380 C   0  0  0  0  0  0  0  0  0  0  0  0
    7.6599   -4.3755   27.2873 C   0  0  0  0  0  0  0  0  0  0  0  0
    9.0430    0.2380   21.4940 C   0  0  0  0  0  0  0  0  0  0  0  0
    8.4364   -6.7636   27.6038 C   0  0  0  0  0  0  0  0  0  0  0  0
   14.5742   -2.0121   21.8033 C   0  0  0  0  0  0  0  0  0  0  0  0
   10.6602    0.7344   23.3196 C   0  0  0  0  0  0  0  0  0  0  0  0
    7.3107   -5.7642   27.8016 C   0  0  0  0  0  0  0  0  0  0  0  0
   14.2634   -0.2384   23.4073 N   0  0  0  0  0  0  0  0  0  0  0  0
    7.5840   -0.2700   18.5160 N   0  0  0  0  0  0  0  0  0  0  0  0
    6.7100    0.3850   17.8100 N   0  0  0  0  0  0  0  0  0  0  0  0
   13.7334   -1.0537   22.4797 N   0  0  0  0  0  0  0  0  0  0  0  0
    5.7970    0.9500   18.6730 N   0  0  0  0  0  0  0  0  0  0  0  0
    7.9771   -4.4058   25.9196 N   0  0  0  0  0  0  0  0  0  0  0  0
    8.0950   -0.7700   20.8440 N   0  0  0  0  0  0  0  0  0  0  0  0
    9.5820   -0.1080   22.7000 N   0  0  0  0  0  0  0  0  0  0  0  0
    7.6494   -3.3899   28.0173 O   0  0  0  0  0  0  0  0  0  0  0  0
    9.2950    1.3000   20.9480 O   0  0  0  0  0  0  0  0  0  0  0  0
    9.5436   -4.5614   23.7799 H   0  0  0  0  0  0  0  0  0  0  0  0
    7.1918   -1.8823   26.1906 H   0  0  0  0  0  0  0  0  0  0  0  0
   10.2676   -2.6754   22.3861 H   0  0  0  0  0  0  0  0  0  0  0  0
    7.8686   -0.0026   24.7598 H   0  0  0  0  0  0  0  0  0  0  0  0
   13.3658    1.2416   24.5666 H   0  0  0  0  0  0  0  0  0  0  0  0
   11.8373   -1.4526   21.5639 H   0  0  0  0  0  0  0  0  0  0  0  0
    5.6529    0.7487   22.0767 H   0  0  0  0  0  0  0  0  0  0  0  0
    3.6388    2.0586   21.6675 H   0  0  0  0  0  0  0  0  0  0  0  0
    2.9822    2.6968   19.3330 H   0  0  0  0  0  0  0  0  0  0  0  0
    4.4111    1.9893   17.4360 H   0  0  0  0  0  0  0  0  0  0  0  0
    8.6965   -6.8583   26.5444 H   0  0  0  0  0  0  0  0  0  0  0  0
    8.1392   -7.7501   27.9725 H   0  0  0  0  0  0  0  0  0  0  0  0
    9.3369   -6.4534   28.1441 H   0  0  0  0  0  0  0  0  0  0  0  0
   14.9794   -1.5328   20.9083 H   0  0  0  0  0  0  0  0  0  0  0  0
   15.3833   -2.3217   22.4708 H   0  0  0  0  0  0  0  0  0  0  0  0
   13.9782   -2.8882   21.5327 H   0  0  0  0  0  0  0  0  0  0  0  0
   10.4266    0.8452   24.3842 H   0  0  0  0  0  0  0  0  0  0  0  0
   10.6004    1.7303   22.8682 H   0  0  0  0  0  0  0  0  0  0  0  0
    7.0716   -5.6896   28.8686 H   0  0  0  0  0  0  0  0  0  0  0  0
    6.4146   -6.1143   27.2764 H   0  0  0  0  0  0  0  0  0  0  0  0
    7.9294   -5.3301   25.4754 H   0  0  0  0  0  0  0  0  0  0  0  0
    8.0689   -1.6186   21.0712 H   0  0  0  0  0  0  0  0  0  0  0  0
  1  3  2  0  0  0  0
  1  8  1  0  0  0  0
  2  4  1  0  0  0  0
  2  8  2  0  0  0  0
  3  9  1  0  0  0  0
  4  9  2  0  0  0  0
  5  7  1  0  0  0  0
  5 22  2  0  0  0  0
  6  7  2  0  0  0  0
  6 25  1  0  0  0  0
  7 20  1  0  0  0  0
  8 27  1  0  0  0  0
  9 29  1  0  0  0  0
 10 11  2  0  0  0  0
 10 12  1  0  0  0  0
 10 26  1  0  0  0  0
 11 23  1  0  0  0  0
 11 28  1  0  0  0  0
 12 13  2  0  0  0  0
 13 14  1  0  0  0  0
 14 15  2  0  0  0  0
 15 26  1  0  0  0  0
 16 21  1  0  0  0  0
 16 27  1  0  0  0  0
 16 30  2  0  0  0  0
 17 28  1  0  0  0  0
 17 29  1  0  0  0  0
 17 31  2  0  0  0  0
 18 21  1  0  0  0  0
 19 25  1  0  0  0  0
 20 29  1  0  0  0  0
 22 25  1  0  0  0  0
 23 24  2  0  0  0  0
 24 26  1  0  0  0  0
  1 32  1  0  0  0  0
  2 33  1  0  0  0  0
  3 34  1  0  0  0  0
  4 35  1  0  0  0  0
  5 36  1  0  0  0  0
  6 37  1  0  0  0  0
 12 38  1  0  0  0  0
 13 39  1  0  0  0  0
 14 40  1  0  0  0  0
 15 41  1  0  0  0  0
 18 42  1  0  0  0  0
 18 43  1  0  0  0  0
 18 44  1  0  0  0  0
 19 45  1  0  0  0  0
 19 46  1  0  0  0  0
 19 47  1  0  0  0  0
 20 48  1  0  0  0  0
 20 49  1  0  0  0  0
 21 50  1  0  0  0  0
 21 51  1  0  0  0  0
 27 52  1  0  0  0  0
 28 53  1  0  0  0  0
M  END
> <clash_score>
0

> <docking_score>
-8.508289337158203

> <overlap_score>
0.9703317880630493

$$$$
BENZO_90_1
  -OEChem-08232013523D

 53 56  0     0  0  0  0  0  0999 V2000
   13.5949   -0.8753   25.0995 C   0  0  0  0  0  0  0  0  0  0  0  0
   12.4243   -0.1538   24.8660 C   0  0  0  0  0  0  0  0  0  0  0  0
    9.1890   -3.5540   24.0140 C   0  0  0  0  0  0  0  0  0  0  0  0
    7.8700   -2.0610   25.3550 C   0  0  0  0  0  0  0  0  0  0  0  0
    9.5890   -2.4950   23.2210 C   0  0  0  0  0  0  0  0  0  0  0  0
    8.2550   -1.0010   24.5520 C   0  0  0  0  0  0  0  0  0  0  0  0
   14.2624   -1.4845   24.0368 C   0  0  0  0  0  0  0  0  0  0  0  0
   12.5883   -0.6507   22.5073 C   0  0  0  0  0  0  0  0  0  0  0  0
   11.9210   -0.0414   23.5700 C   0  0  0  0  0  0  0  0  0  0  0  0
    8.3450   -3.3440   25.0980 C   0  0  0  0  0  0  0  0  0  0  0  0
    9.1280   -1.2090   23.4870 C   0  0  0  0  0  0  0  0  0  0  0  0
   13.7590   -1.3722   22.7408 C   0  0  0  0  0  0  0  0  0  0  0  0
    6.1460    0.6070   19.9750 C   0  0  0  0  0  0  0  0  0  0  0  0
    7.2710   -0.1460   19.8310 C   0  0  0  0  0  0  0  0  0  0  0  0
    5.3890    1.0010   21.0690 C   0  0  0  0  0  0  0  0  0  0  0  0
    4.2460    1.7520   20.8250 C   0  0  0  0  0  0  0  0  0  0  0  0
    3.8860    2.1050   19.5250 C   0  0  0  0  0  0  0  0  0  0  0  0
    4.6610    1.7170   18.4380 C   0  0  0  0  0  0  0  0  0  0  0  0
    8.2022   -4.5554   27.2977 C   0  0  0  0  0  0  0  0  0  0  0  0
    9.0430    0.2380   21.4940 C   0  0  0  0  0  0  0  0  0  0  0  0
    7.8888   -6.0857   29.2891 C   0  0  0  0  0  0  0  0  0  0  0  0
   10.6602    0.7344   23.3196 C   0  0  0  0  0  0  0  0  0  0  0  0
    7.6346   -5.8716   27.8078 C   0  0  0  0  0  0  0  0  0  0  0  0
    7.5840   -0.2700   18.5160 N   0  0  0  0  0  0  0  0  0  0  0  0
    6.7100    0.3850   17.8100 N   0  0  0  0  0  0  0  0  0  0  0  0
    5.7970    0.9500   18.6730 N   0  0  0  0  0  0  0  0  0  0  0  0
    7.9771   -4.4058   25.9196 N   0  0  0  0  0  0  0  0  0  0  0  0
    8.0950   -0.7700   20.8440 N   0  0  0  0  0  0  0  0  0  0  0  0
    9.5820   -0.1080   22.7000 N   0  0  0  0  0  0  0  0  0  0  0  0
    8.7736   -3.7626   28.0389 O   0  0  0  0  0  0  0  0  0  0  0  0
    9.2950    1.3000   20.9480 O   0  0  0  0  0  0  0  0  0  0  0  0
   14.5823   -2.1250   21.4304 Cl  0  0  0  0  0  0  0  0  0  0  0  0
   13.9864   -0.9627   26.1089 H   0  0  0  0  0  0  0  0  0  0  0  0
   11.9108    0.3176   25.7000 H   0  0  0  0  0  0  0  0  0  0  0  0
    9.5436   -4.5614   23.7799 H   0  0  0  0  0  0  0  0  0  0  0  0
    7.1918   -1.8823   26.1906 H   0  0  0  0  0  0  0  0  0  0  0  0
   10.2676   -2.6754   22.3861 H   0  0  0  0  0  0  0  0  0  0  0  0
    7.8686   -0.0026   24.7598 H   0  0  0  0  0  0  0  0  0  0  0  0
   15.1736   -2.0440   24.2337 H   0  0  0  0  0  0  0  0  0  0  0  0
   12.1922   -0.5597   21.4986 H   0  0  0  0  0  0  0  0  0  0  0  0
    5.6529    0.7487   22.0767 H   0  0  0  0  0  0  0  0  0  0  0  0
    3.6388    2.0586   21.6675 H   0  0  0  0  0  0  0  0  0  0  0  0
    2.9822    2.6968   19.3330 H   0  0  0  0  0  0  0  0  0  0  0  0
    4.4111    1.9893   17.4360 H   0  0  0  0  0  0  0  0  0  0  0  0
    8.9615   -6.0801   29.5089 H   0  0  0  0  0  0  0  0  0  0  0  0
    7.4787   -7.0478   29.6110 H   0  0  0  0  0  0  0  0  0  0  0  0
    7.4197   -5.2969   29.8865 H   0  0  0  0  0  0  0  0  0  0  0  0
   10.2665    1.1441   24.2563 H   0  0  0  0  0  0  0  0  0  0  0  0
   10.8453    1.5790   22.6476 H   0  0  0  0  0  0  0  0  0  0  0  0
    6.5553   -5.8818   27.6170 H   0  0  0  0  0  0  0  0  0  0  0  0
    8.0880   -6.6902   27.2370 H   0  0  0  0  0  0  0  0  0  0  0  0
    7.4775   -5.1801   25.4670 H   0  0  0  0  0  0  0  0  0  0  0  0
    8.0689   -1.6186   21.0712 H   0  0  0  0  0  0  0  0  0  0  0  0
  1  2  2  0  0  0  0
  1  7  1  0  0  0  0
  2  9  1  0  0  0  0
  3  5  2  0  0  0  0
  3 10  1  0  0  0  0
  4  6  1  0  0  0  0
  4 10  2  0  0  0  0
  5 11  1  0  0  0  0
  6 11  2  0  0  0  0
  7 12  2  0  0  0  0
  8  9  2  0  0  0  0
  8 12  1  0  0  0  0
  9 22  1  0  0  0  0
 10 27  1  0  0  0  0
 11 29  1  0  0  0  0
 12 32  1  0  0  0  0
 13 14  2  0  0  0  0
 13 15  1  0  0  0  0
 13 26  1  0  0  0  0
 14 24  1  0  0  0  0
 14 28  1  0  0  0  0
 15 16  2  0  0  0  0
 16 17  1  0  0  0  0
 17 18  2  0  0  0  0
 18 26  1  0  0  0  0
 19 23  1  0  0  0  0
 19 27  1  0  0  0  0
 19 30  2  0  0  0  0
 20 28  1  0  0  0  0
 20 29  1  0  0  0  0
 20 31  2  0  0  0  0
 21 23  1  0  0  0  0
 22 29  1  0  0  0  0
 24 25  2  0  0  0  0
 25 26  1  0  0  0  0
  1 33  1  0  0  0  0
  2 34  1  0  0  0  0
  3 35  1  0  0  0  0
  4 36  1  0  0  0  0
  5 37  1  0  0  0  0
  6 38  1  0  0  0  0
  7 39  1  0  0  0  0
  8 40  1  0  0  0  0
 15 41  1  0  0  0  0
 16 42  1  0  0  0  0
 17 43  1  0  0  0  0
 18 44  1  0  0  0  0
 21 45  1  0  0  0  0
 21 46  1  0  0  0  0
 21 47  1  0  0  0  0
 22 48  1  0  0  0  0
 22 49  1  0  0  0  0
 23 50  1  0  0  0  0
 23 51  1  0  0  0  0
 27 52  1  0  0  0  0
 28 53  1  0  0  0  0
M  END
> <clash_score>
0

> <docking_score>
-8.023458480834961

> <overlap_score>
1.003538727760315

$$$$
BENZO_93_1
  -OEChem-08232013523D

 58 62  0     0  0  0  0  0  0999 V2000
   14.3362   -1.3623   23.9763 C   0  0  0  0  0  0  0  0  0  0  0  0
   13.9850   -0.2947   24.8024 C   0  0  0  0  0  0  0  0  0  0  0  0
   13.4946   -1.7412   22.9304 C   0  0  0  0  0  0  0  0  0  0  0  0
   12.7920    0.3940   24.5828 C   0  0  0  0  0  0  0  0  0  0  0  0
   12.3016   -1.0525   22.7108 C   0  0  0  0  0  0  0  0  0  0  0  0
    9.1890   -3.5540   24.0140 C   0  0  0  0  0  0  0  0  0  0  0  0
    7.8700   -2.0610   25.3550 C   0  0  0  0  0  0  0  0  0  0  0  0
    9.5890   -2.4950   23.2210 C   0  0  0  0  0  0  0  0  0  0  0  0
    8.2550   -1.0010   24.5520 C   0  0  0  0  0  0  0  0  0  0  0  0
   11.9503    0.0151   23.5370 C   0  0  0  0  0  0  0  0  0  0  0  0
    8.3450   -3.3440   25.0980 C   0  0  0  0  0  0  0  0  0  0  0  0
    9.1280   -1.2090   23.4870 C   0  0  0  0  0  0  0  0  0  0  0  0
    6.1460    0.6070   19.9750 C   0  0  0  0  0  0  0  0  0  0  0  0
    7.2710   -0.1460   19.8310 C   0  0  0  0  0  0  0  0  0  0  0  0
    5.3890    1.0010   21.0690 C   0  0  0  0  0  0  0  0  0  0  0  0
    4.2460    1.7520   20.8250 C   0  0  0  0  0  0  0  0  0  0  0  0
    3.8860    2.1050   19.5250 C   0  0  0  0  0  0  0  0  0  0  0  0
    4.6610    1.7170   18.4380 C   0  0  0  0  0  0  0  0  0  0  0  0
    9.0430    0.2380   21.4940 C   0  0  0  0  0  0  0  0  0  0  0  0
    7.5748   -4.8280   28.7278 C   0  0  0  0  0  0  0  0  0  0  0  0
    8.9776   -4.7555   28.1204 C   0  0  0  0  0  0  0  0  0  0  0  0
    6.5554   -4.0713   27.8732 C   0  0  0  0  0  0  0  0  0  0  0  0
    8.9620   -5.1961   26.6568 C   0  0  0  0  0  0  0  0  0  0  0  0
    6.6009   -4.5253   26.4110 C   0  0  0  0  0  0  0  0  0  0  0  0
   10.6659    0.7557   23.3001 C   0  0  0  0  0  0  0  0  0  0  0  0
    7.5840   -0.2700   18.5160 N   0  0  0  0  0  0  0  0  0  0  0  0
    6.7100    0.3850   17.8100 N   0  0  0  0  0  0  0  0  0  0  0  0
    5.7970    0.9500   18.6730 N   0  0  0  0  0  0  0  0  0  0  0  0
    7.9770   -4.4029   25.9162 N   0  0  0  0  0  0  0  0  0  0  0  0
    8.0950   -0.7700   20.8440 N   0  0  0  0  0  0  0  0  0  0  0  0
    9.5820   -0.1080   22.7000 N   0  0  0  0  0  0  0  0  0  0  0  0
    9.2950    1.3000   20.9480 O   0  0  0  0  0  0  0  0  0  0  0  0
   15.2658   -1.8975   24.1466 H   0  0  0  0  0  0  0  0  0  0  0  0
   14.6407    0.0012   25.6161 H   0  0  0  0  0  0  0  0  0  0  0  0
   13.7683   -2.5716   22.2864 H   0  0  0  0  0  0  0  0  0  0  0  0
   12.5263    1.2244   25.2316 H   0  0  0  0  0  0  0  0  0  0  0  0
   11.6520   -1.3548   21.8936 H   0  0  0  0  0  0  0  0  0  0  0  0
    9.5426   -4.5618   23.7797 H   0  0  0  0  0  0  0  0  0  0  0  0
    7.1914   -1.8824   26.1903 H   0  0  0  0  0  0  0  0  0  0  0  0
   10.2669   -2.6745   22.3854 H   0  0  0  0  0  0  0  0  0  0  0  0
    7.8690   -0.0020   24.7587 H   0  0  0  0  0  0  0  0  0  0  0  0
    5.6529    0.7487   22.0767 H   0  0  0  0  0  0  0  0  0  0  0  0
    3.6388    2.0586   21.6675 H   0  0  0  0  0  0  0  0  0  0  0  0
    2.9822    2.6968   19.3330 H   0  0  0  0  0  0  0  0  0  0  0  0
    4.4111    1.9893   17.4360 H   0  0  0  0  0  0  0  0  0  0  0  0
    7.2681   -5.8807   28.8239 H   0  0  0  0  0  0  0  0  0  0  0  0
    7.5891   -4.4101   29.7448 H   0  0  0  0  0  0  0  0  0  0  0  0
    9.3554   -3.7320   28.1920 H   0  0  0  0  0  0  0  0  0  0  0  0
    9.6558   -5.3943   28.6900 H   0  0  0  0  0  0  0  0  0  0  0  0
    5.5496   -4.2322   28.2751 H   0  0  0  0  0  0  0  0  0  0  0  0
    6.7545   -2.9948   27.9293 H   0  0  0  0  0  0  0  0  0  0  0  0
    9.9612   -5.0560   26.2363 H   0  0  0  0  0  0  0  0  0  0  0  0
    8.7097   -6.2583   26.5922 H   0  0  0  0  0  0  0  0  0  0  0  0
    6.2649   -5.5600   26.3335 H   0  0  0  0  0  0  0  0  0  0  0  0
    5.9271   -3.8964   25.8283 H   0  0  0  0  0  0  0  0  0  0  0  0
   10.2856    1.1781   24.2366 H   0  0  0  0  0  0  0  0  0  0  0  0
   10.8149    1.5883   22.6046 H   0  0  0  0  0  0  0  0  0  0  0  0
    8.0897   -1.6082   21.0890 H   0  0  0  0  0  0  0  0  0  0  0  0
  1  2  1  0  0  0  0
  1  3  2  0  0  0  0
  2  4  2  0  0  0  0
  3  5  1  0  0  0  0
  4 10  1  0  0  0  0
  5 10  2  0  0  0  0
  6  8  2  0  0  0  0
  6 11  1  0  0  0  0
  7  9  1  0  0  0  0
  7 11  2  0  0  0  0
  8 12  1  0  0  0  0
  9 12  2  0  0  0  0
 10 25  1  0  0  0  0
 11 29  1  0  0  0  0
 12 31  1  0  0  0  0
 13 14  2  0  0  0  0
 13 15  1  0  0  0  0
 13 28  1  0  0  0  0
 14 26  1  0  0  0  0
 14 30  1  0  0  0  0
 15 16  2  0  0  0  0
 16 17  1  0  0  0  0
 17 18  2  0  0  0  0
 18 28  1  0  0  0  0
 19 30  1  0  0  0  0
 19 31  1  0  0  0  0
 19 32  2  0  0  0  0
 20 21  1  0  0  0  0
 20 22  1  0  0  0  0
 21 23  1  0  0  0  0
 22 24  1  0  0  0  0
 23 29  1  0  0  0  0
 24 29  1  0  0  0  0
 25 31  1  0  0  0  0
 26 27  2  0  0  0  0
 27 28  1  0  0  0  0
  1 33  1  0  0  0  0
  2 34  1  0  0  0  0
  3 35  1  0  0  0  0
  4 36  1  0  0  0  0
  5 37  1  0  0  0  0
  6 38  1  0  0  0  0
  7 39  1  0  0  0  0
  8 40  1  0  0  0  0
  9 41  1  0  0  0  0
 15 42  1  0  0  0  0
 16 43  1  0  0  0  0
 17 44  1  0  0  0  0
 18 45  1  0  0  0  0
 20 46  1  0  0  0  0
 20 47  1  0  0  0  0
 21 48  1  0  0  0  0
 21 49  1  0  0  0  0
 22 50  1  0  0  0  0
 22 51  1  0  0  0  0
 23 52  1  0  0  0  0
 23 53  1  0  0  0  0
 24 54  1  0  0  0  0
 24 55  1  0  0  0  0
 25 56  1  0  0  0  0
 25 57  1  0  0  0  0
 30 58  1  0  0  0  0
M  END
> <clash_score>
0

> <docking_score>
-9.094940185546875

> <overlap_score>
0.9820867776870728

$$$$
BENZO_92_1
  -OEChem-08232013523D

 55 59  0     0  0  0  0  0  0999 V2000
    9.1890   -3.5540   24.0140 C   0  0  0  0  0  0  0  0  0  0  0  0
    7.8700   -2.0610   25.3550 C   0  0  0  0  0  0  0  0  0  0  0  0
    9.5890   -2.4950   23.2210 C   0  0  0  0  0  0  0  0  0  0  0  0
    8.2550   -1.0010   24.5520 C   0  0  0  0  0  0  0  0  0  0  0  0
   12.5722   -0.1093   24.8129 C   0  0  0  0  0  0  0  0  0  0  0  0
   13.7397   -0.8377   24.7507 C   0  0  0  0  0  0  0  0  0  0  0  0
   12.6665   -0.6230   22.5480 C   0  0  0  0  0  0  0  0  0  0  0  0
   11.9503    0.0151   23.5370 C   0  0  0  0  0  0  0  0  0  0  0  0
    8.3450   -3.3440   25.0980 C   0  0  0  0  0  0  0  0  0  0  0  0
    9.1280   -1.2090   23.4870 C   0  0  0  0  0  0  0  0  0  0  0  0
    6.1460    0.6070   19.9750 C   0  0  0  0  0  0  0  0  0  0  0  0
    7.2710   -0.1460   19.8310 C   0  0  0  0  0  0  0  0  0  0  0  0
    5.3890    1.0010   21.0690 C   0  0  0  0  0  0  0  0  0  0  0  0
    4.2460    1.7520   20.8250 C   0  0  0  0  0  0  0  0  0  0  0  0
    3.8860    2.1050   19.5250 C   0  0  0  0  0  0  0  0  0  0  0  0
    4.6610    1.7170   18.4380 C   0  0  0  0  0  0  0  0  0  0  0  0
    9.0430    0.2380   21.4940 C   0  0  0  0  0  0  0  0  0  0  0  0
    7.5748   -4.8280   28.7278 C   0  0  0  0  0  0  0  0  0  0  0  0
    8.9776   -4.7555   28.1204 C   0  0  0  0  0  0  0  0  0  0  0  0
    6.5554   -4.0713   27.8732 C   0  0  0  0  0  0  0  0  0  0  0  0
    8.9620   -5.1961   26.6568 C   0  0  0  0  0  0  0  0  0  0  0  0
    6.6009   -4.5253   26.4110 C   0  0  0  0  0  0  0  0  0  0  0  0
   10.6659    0.7557   23.3001 C   0  0  0  0  0  0  0  0  0  0  0  0
    7.5840   -0.2700   18.5160 N   0  0  0  0  0  0  0  0  0  0  0  0
    6.7100    0.3850   17.8100 N   0  0  0  0  0  0  0  0  0  0  0  0
    5.7970    0.9500   18.6730 N   0  0  0  0  0  0  0  0  0  0  0  0
    7.9770   -4.4029   25.9162 N   0  0  0  0  0  0  0  0  0  0  0  0
    8.0950   -0.7700   20.8440 N   0  0  0  0  0  0  0  0  0  0  0  0
    9.5820   -0.1080   22.7000 N   0  0  0  0  0  0  0  0  0  0  0  0
    9.2950    1.3000   20.9480 O   0  0  0  0  0  0  0  0  0  0  0  0
   14.0820   -1.3681   23.1589 S   0  0  0  0  0  0  0  0  0  0  0  0
    9.5426   -4.5618   23.7797 H   0  0  0  0  0  0  0  0  0  0  0  0
    7.1914   -1.8824   26.1903 H   0  0  0  0  0  0  0  0  0  0  0  0
   10.2669   -2.6745   22.3854 H   0  0  0  0  0  0  0  0  0  0  0  0
    7.8690   -0.0020   24.7587 H   0  0  0  0  0  0  0  0  0  0  0  0
   12.1863    0.3129   25.7322 H   0  0  0  0  0  0  0  0  0  0  0  0
   14.4083   -1.0832   25.5636 H   0  0  0  0  0  0  0  0  0  0  0  0
   12.4303   -0.6886   21.4949 H   0  0  0  0  0  0  0  0  0  0  0  0
    5.6529    0.7487   22.0767 H   0  0  0  0  0  0  0  0  0  0  0  0
    3.6388    2.0586   21.6675 H   0  0  0  0  0  0  0  0  0  0  0  0
    2.9822    2.6968   19.3330 H   0  0  0  0  0  0  0  0  0  0  0  0
    4.4111    1.9893   17.4360 H   0  0  0  0  0  0  0  0  0  0  0  0
    7.2681   -5.8807   28.8239 H   0  0  0  0  0  0  0  0  0  0  0  0
    7.5891   -4.4101   29.7448 H   0  0  0  0  0  0  0  0  0  0  0  0
    9.3554   -3.7320   28.1920 H   0  0  0  0  0  0  0  0  0  0  0  0
    9.6558   -5.3943   28.6900 H   0  0  0  0  0  0  0  0  0  0  0  0
    5.5496   -4.2322   28.2751 H   0  0  0  0  0  0  0  0  0  0  0  0
    6.7545   -2.9948   27.9293 H   0  0  0  0  0  0  0  0  0  0  0  0
    9.9612   -5.0560   26.2363 H   0  0  0  0  0  0  0  0  0  0  0  0
    8.7097   -6.2583   26.5922 H   0  0  0  0  0  0  0  0  0  0  0  0
    6.2649   -5.5600   26.3335 H   0  0  0  0  0  0  0  0  0  0  0  0
    5.9271   -3.8964   25.8283 H   0  0  0  0  0  0  0  0  0  0  0  0
   10.2856    1.1781   24.2366 H   0  0  0  0  0  0  0  0  0  0  0  0
   10.8149    1.5883   22.6046 H   0  0  0  0  0  0  0  0  0  0  0  0
    8.0897   -1.6082   21.0890 H   0  0  0  0  0  0  0  0  0  0  0  0
  1  3  2  0  0  0  0
  1  9  1  0  0  0  0
  2  4  1  0  0  0  0
  2  9  2  0  0  0  0
  3 10  1  0  0  0  0
  4 10  2  0  0  0  0
  5  6  2  0  0  0  0
  5  8  1  0  0  0  0
  6 31  1  0  0  0  0
  7  8  2  0  0  0  0
  7 31  1  0  0  0  0
  8 23  1  0  0  0  0
  9 27  1  0  0  0  0
 10 29  1  0  0  0  0
 11 12  2  0  0  0  0
 11 13  1  0  0  0  0
 11 26  1  0  0  0  0
 12 24  1  0  0  0  0
 12 28  1  0  0  0  0
 13 14  2  0  0  0  0
 14 15  1  0  0  0  0
 15 16  2  0  0  0  0
 16 26  1  0  0  0  0
 17 28  1  0  0  0  0
 17 29  1  0  0  0  0
 17 30  2  0  0  0  0
 18 19  1  0  0  0  0
 18 20  1  0  0  0  0
 19 21  1  0  0  0  0
 20 22  1  0  0  0  0
 21 27  1  0  0  0  0
 22 27  1  0  0  0  0
 23 29  1  0  0  0  0
 24 25  2  0  0  0  0
 25 26  1  0  0  0  0
  1 32  1  0  0  0  0
  2 33  1  0  0  0  0
  3 34  1  0  0  0  0
  4 35  1  0  0  0  0
  5 36  1  0  0  0  0
  6 37  1  0  0  0  0
  7 38  1  0  0  0  0
 13 39  1  0  0  0  0
 14 40  1  0  0  0  0
 15 41  1  0  0  0  0
 16 42  1  0  0  0  0
 18 43  1  0  0  0  0
 18 44  1  0  0  0  0
 19 45  1  0  0  0  0
 19 46  1  0  0  0  0
 20 47  1  0  0  0  0
 20 48  1  0  0  0  0
 21 49  1  0  0  0  0
 21 50  1  0  0  0  0
 22 51  1  0  0  0  0
 22 52  1  0  0  0  0
 23 53  1  0  0  0  0
 23 54  1  0  0  0  0
 28 55  1  0  0  0  0
M  END
> <clash_score>
0

> <docking_score>
-8.971861839294434

> <overlap_score>
0.966229259967804

$$$$
BENZO_97_1
  -OEChem-08232013523D

 46 49  0     0  0  0  0  0  0999 V2000
   14.2631   -1.4841   24.0344 C   0  0  0  0  0  0  0  0  0  0  0  0
   13.9273   -0.4139   24.8635 C   0  0  0  0  0  0  0  0  0  0  0  0
   13.4280   -1.8330   22.9730 C   0  0  0  0  0  0  0  0  0  0  0  0
   12.7562    0.3074   24.6313 C   0  0  0  0  0  0  0  0  0  0  0  0
   12.2569   -1.1117   22.7408 C   0  0  0  0  0  0  0  0  0  0  0  0
    9.1890   -3.5540   24.0140 C   0  0  0  0  0  0  0  0  0  0  0  0
    7.8700   -2.0610   25.3550 C   0  0  0  0  0  0  0  0  0  0  0  0
    9.5890   -2.4950   23.2210 C   0  0  0  0  0  0  0  0  0  0  0  0
    8.2550   -1.0010   24.5520 C   0  0  0  0  0  0  0  0  0  0  0  0
    8.3450   -3.3440   25.0980 C   0  0  0  0  0  0  0  0  0  0  0  0
   11.9210   -0.0414   23.5700 C   0  0  0  0  0  0  0  0  0  0  0  0
    9.1280   -1.2090   23.4870 C   0  0  0  0  0  0  0  0  0  0  0  0
    6.1460    0.6070   19.9750 C   0  0  0  0  0  0  0  0  0  0  0  0
    7.2710   -0.1460   19.8310 C   0  0  0  0  0  0  0  0  0  0  0  0
    5.3890    1.0010   21.0690 C   0  0  0  0  0  0  0  0  0  0  0  0
    4.2460    1.7520   20.8250 C   0  0  0  0  0  0  0  0  0  0  0  0
    3.8860    2.1050   19.5250 C   0  0  0  0  0  0  0  0  0  0  0  0
    4.6610    1.7170   18.4380 C   0  0  0  0  0  0  0  0  0  0  0  0
    9.0430    0.2380   21.4940 C   0  0  0  0  0  0  0  0  0  0  0  0
    7.9522   -4.4794   25.9764 C   0  0  0  0  0  0  0  0  0  0  0  0
   10.6602    0.7344   23.3196 C   0  0  0  0  0  0  0  0  0  0  0  0
    7.5840   -0.2700   18.5160 N   0  0  0  0  0  0  0  0  0  0  0  0
    6.7100    0.3850   17.8100 N   0  0  0  0  0  0  0  0  0  0  0  0
    5.7970    0.9500   18.6730 N   0  0  0  0  0  0  0  0  0  0  0  0
    8.0950   -0.7700   20.8440 N   0  0  0  0  0  0  0  0  0  0  0  0
    9.5820   -0.1080   22.7000 N   0  0  0  0  0  0  0  0  0  0  0  0
    9.2950    1.3000   20.9480 O   0  0  0  0  0  0  0  0  0  0  0  0
   15.1757   -2.0448   24.2145 H   0  0  0  0  0  0  0  0  0  0  0  0
   14.5780   -0.1414   25.6893 H   0  0  0  0  0  0  0  0  0  0  0  0
   13.6897   -2.6654   22.3267 H   0  0  0  0  0  0  0  0  0  0  0  0
   12.5024    1.1397   25.2826 H   0  0  0  0  0  0  0  0  0  0  0  0
   11.6122   -1.3907   21.9116 H   0  0  0  0  0  0  0  0  0  0  0  0
    9.5403   -4.5627   23.7809 H   0  0  0  0  0  0  0  0  0  0  0  0
    7.1911   -1.8848   26.1904 H   0  0  0  0  0  0  0  0  0  0  0  0
   10.2682   -2.6746   22.3865 H   0  0  0  0  0  0  0  0  0  0  0  0
    7.8684   -0.0022   24.7594 H   0  0  0  0  0  0  0  0  0  0  0  0
    5.6529    0.7487   22.0767 H   0  0  0  0  0  0  0  0  0  0  0  0
    3.6388    2.0586   21.6675 H   0  0  0  0  0  0  0  0  0  0  0  0
    2.9822    2.6968   19.3330 H   0  0  0  0  0  0  0  0  0  0  0  0
    4.4111    1.9893   17.4360 H   0  0  0  0  0  0  0  0  0  0  0  0
    8.6668   -4.5891   26.8013 H   0  0  0  0  0  0  0  0  0  0  0  0
    6.9513   -4.3276   26.4010 H   0  0  0  0  0  0  0  0  0  0  0  0
    7.9196   -5.4231   25.4163 H   0  0  0  0  0  0  0  0  0  0  0  0
   10.2665    1.1441   24.2563 H   0  0  0  0  0  0  0  0  0  0  0  0
   10.8453    1.5790   22.6476 H   0  0  0  0  0  0  0  0  0  0  0  0
    8.0689   -1.6186   21.0712 H   0  0  0  0  0  0  0  0  0  0  0  0
  1  2  1  0  0  0  0
  1  3  2  0  0  0  0
  2  4  2  0  0  0  0
  3  5  1  0  0  0  0
  4 11  1  0  0  0  0
  5 11  2  0  0  0  0
  6  8  2  0  0  0  0
  6 10  1  0  0  0  0
  7  9  1  0  0  0  0
  7 10  2  0  0  0  0
  8 12  1  0  0  0  0
  9 12  2  0  0  0  0
 10 20  1  0  0  0  0
 11 21  1  0  0  0  0
 12 26  1  0  0  0  0
 13 14  2  0  0  0  0
 13 15  1  0  0  0  0
 13 24  1  0  0  0  0
 14 22  1  0  0  0  0
 14 25  1  0  0  0  0
 15 16  2  0  0  0  0
 16 17  1  0  0  0  0
 17 18  2  0  0  0  0
 18 24  1  0  0  0  0
 19 25  1  0  0  0  0
 19 26  1  0  0  0  0
 19 27  2  0  0  0  0
 21 26  1  0  0  0  0
 22 23  2  0  0  0  0
 23 24  1  0  0  0  0
  1 28  1  0  0  0  0
  2 29  1  0  0  0  0
  3 30  1  0  0  0  0
  4 31  1  0  0  0  0
  5 32  1  0  0  0  0
  6 33  1  0  0  0  0
  7 34  1  0  0  0  0
  8 35  1  0  0  0  0
  9 36  1  0  0  0  0
 15 37  1  0  0  0  0
 16 38  1  0  0  0  0
 17 39  1  0  0  0  0
 18 40  1  0  0  0  0
 20 41  1  0  0  0  0
 20 42  1  0  0  0  0
 20 43  1  0  0  0  0
 21 44  1  0  0  0  0
 21 45  1  0  0  0  0
 25 46  1  0  0  0  0
M  END
> <clash_score>
0

> <docking_score>
-8.238846778869629

> <overlap_score>
0.8930681347846985

$$$$
BENZO_96_1
  -OEChem-08232013523D

 43 46  0     0  0  0  0  0  0999 V2000
    9.1890   -3.5540   24.0140 C   0  0  0  0  0  0  0  0  0  0  0  0
    7.8700   -2.0610   25.3550 C   0  0  0  0  0  0  0  0  0  0  0  0
    9.5890   -2.4950   23.2210 C   0  0  0  0  0  0  0  0  0  0  0  0
    8.2550   -1.0010   24.5520 C   0  0  0  0  0  0  0  0  0  0  0  0
   12.5081   -0.2095   24.8573 C   0  0  0  0  0  0  0  0  0  0  0  0
   13.6598   -0.9635   24.8063 C   0  0  0  0  0  0  0  0  0  0  0  0
   12.6466   -0.6733   22.5839 C   0  0  0  0  0  0  0  0  0  0  0  0
    8.3450   -3.3440   25.0980 C   0  0  0  0  0  0  0  0  0  0  0  0
   11.9210   -0.0414   23.5700 C   0  0  0  0  0  0  0  0  0  0  0  0
    9.1280   -1.2090   23.4870 C   0  0  0  0  0  0  0  0  0  0  0  0
    6.1460    0.6070   19.9750 C   0  0  0  0  0  0  0  0  0  0  0  0
    7.2710   -0.1460   19.8310 C   0  0  0  0  0  0  0  0  0  0  0  0
    5.3890    1.0010   21.0690 C   0  0  0  0  0  0  0  0  0  0  0  0
    4.2460    1.7520   20.8250 C   0  0  0  0  0  0  0  0  0  0  0  0
    3.8860    2.1050   19.5250 C   0  0  0  0  0  0  0  0  0  0  0  0
    4.6610    1.7170   18.4380 C   0  0  0  0  0  0  0  0  0  0  0  0
    9.0430    0.2380   21.4940 C   0  0  0  0  0  0  0  0  0  0  0  0
    7.9522   -4.4794   25.9764 C   0  0  0  0  0  0  0  0  0  0  0  0
   10.6602    0.7344   23.3196 C   0  0  0  0  0  0  0  0  0  0  0  0
    7.5840   -0.2700   18.5160 N   0  0  0  0  0  0  0  0  0  0  0  0
    6.7100    0.3850   17.8100 N   0  0  0  0  0  0  0  0  0  0  0  0
    5.7970    0.9500   18.6730 N   0  0  0  0  0  0  0  0  0  0  0  0
    8.0950   -0.7700   20.8440 N   0  0  0  0  0  0  0  0  0  0  0  0
    9.5820   -0.1080   22.7000 N   0  0  0  0  0  0  0  0  0  0  0  0
    9.2950    1.3000   20.9480 O   0  0  0  0  0  0  0  0  0  0  0  0
   14.0292   -1.4652   23.2112 S   0  0  0  0  0  0  0  0  0  0  0  0
    9.5403   -4.5627   23.7809 H   0  0  0  0  0  0  0  0  0  0  0  0
    7.1911   -1.8848   26.1904 H   0  0  0  0  0  0  0  0  0  0  0  0
   10.2682   -2.6746   22.3865 H   0  0  0  0  0  0  0  0  0  0  0  0
    7.8684   -0.0022   24.7594 H   0  0  0  0  0  0  0  0  0  0  0  0
   12.1095    0.2005   25.7767 H   0  0  0  0  0  0  0  0  0  0  0  0
   14.3024   -1.2432   25.6291 H   0  0  0  0  0  0  0  0  0  0  0  0
   12.4351   -0.7092   21.5242 H   0  0  0  0  0  0  0  0  0  0  0  0
    5.6529    0.7487   22.0767 H   0  0  0  0  0  0  0  0  0  0  0  0
    3.6388    2.0586   21.6675 H   0  0  0  0  0  0  0  0  0  0  0  0
    2.9822    2.6968   19.3330 H   0  0  0  0  0  0  0  0  0  0  0  0
    4.4111    1.9893   17.4360 H   0  0  0  0  0  0  0  0  0  0  0  0
    8.6668   -4.5891   26.8013 H   0  0  0  0  0  0  0  0  0  0  0  0
    6.9513   -4.3276   26.4010 H   0  0  0  0  0  0  0  0  0  0  0  0
    7.9196   -5.4231   25.4163 H   0  0  0  0  0  0  0  0  0  0  0  0
   10.2665    1.1441   24.2563 H   0  0  0  0  0  0  0  0  0  0  0  0
   10.8453    1.5790   22.6476 H   0  0  0  0  0  0  0  0  0  0  0  0
    8.0689   -1.6186   21.0712 H   0  0  0  0  0  0  0  0  0  0  0  0
  1  3  2  0  0  0  0
  1  8  1  0  0  0  0
  2  4  1  0  0  0  0
  2  8  2  0  0  0  0
  3 10  1  0  0  0  0
  4 10  2  0  0  0  0
  5  6  2  0  0  0  0
  5  9  1  0  0  0  0
  6 26  1  0  0  0  0
  7  9  2  0  0  0  0
  7 26  1  0  0  0  0
  8 18  1  0  0  0  0
  9 19  1  0  0  0  0
 10 24  1  0  0  0  0
 11 12  2  0  0  0  0
 11 13  1  0  0  0  0
 11 22  1  0  0  0  0
 12 20  1  0  0  0  0
 12 23  1  0  0  0  0
 13 14  2  0  0  0  0
 14 15  1  0  0  0  0
 15 16  2  0  0  0  0
 16 22  1  0  0  0  0
 17 23  1  0  0  0  0
 17 24  1  0  0  0  0
 17 25  2  0  0  0  0
 19 24  1  0  0  0  0
 20 21  2  0  0  0  0
 21 22  1  0  0  0  0
  1 27  1  0  0  0  0
  2 28  1  0  0  0  0
  3 29  1  0  0  0  0
  4 30  1  0  0  0  0
  5 31  1  0  0  0  0
  6 32  1  0  0  0  0
  7 33  1  0  0  0  0
 13 34  1  0  0  0  0
 14 35  1  0  0  0  0
 15 36  1  0  0  0  0
 16 37  1  0  0  0  0
 18 38  1  0  0  0  0
 18 39  1  0  0  0  0
 18 40  1  0  0  0  0
 19 41  1  0  0  0  0
 19 42  1  0  0  0  0
 23 43  1  0  0  0  0
M  END
> <clash_score>
0

> <docking_score>
-8.073210716247559

> <overlap_score>
0.877694308757782

$$$$
BENZO_94_1
  -OEChem-08232013523D

 58 62  0     0  0  0  0  0  0999 V2000
   13.6798   -0.7441   25.0433 C   0  0  0  0  0  0  0  0  0  0  0  0
   12.4873   -0.0553   24.8224 C   0  0  0  0  0  0  0  0  0  0  0  0
    9.1890   -3.5540   24.0140 C   0  0  0  0  0  0  0  0  0  0  0  0
    7.8700   -2.0610   25.3550 C   0  0  0  0  0  0  0  0  0  0  0  0
    9.5890   -2.4950   23.2210 C   0  0  0  0  0  0  0  0  0  0  0  0
    8.2550   -1.0010   24.5520 C   0  0  0  0  0  0  0  0  0  0  0  0
   14.3355   -1.3627   23.9787 C   0  0  0  0  0  0  0  0  0  0  0  0
   12.6059   -0.6035   22.4724 C   0  0  0  0  0  0  0  0  0  0  0  0
   11.9503    0.0151   23.5370 C   0  0  0  0  0  0  0  0  0  0  0  0
    8.3450   -3.3440   25.0980 C   0  0  0  0  0  0  0  0  0  0  0  0
    9.1280   -1.2090   23.4870 C   0  0  0  0  0  0  0  0  0  0  0  0
   13.7985   -1.2924   22.6933 C   0  0  0  0  0  0  0  0  0  0  0  0
    6.1460    0.6070   19.9750 C   0  0  0  0  0  0  0  0  0  0  0  0
    7.2710   -0.1460   19.8310 C   0  0  0  0  0  0  0  0  0  0  0  0
    5.3890    1.0010   21.0690 C   0  0  0  0  0  0  0  0  0  0  0  0
    4.2460    1.7520   20.8250 C   0  0  0  0  0  0  0  0  0  0  0  0
    3.8860    2.1050   19.5250 C   0  0  0  0  0  0  0  0  0  0  0  0
    4.6610    1.7170   18.4380 C   0  0  0  0  0  0  0  0  0  0  0  0
    9.0430    0.2380   21.4940 C   0  0  0  0  0  0  0  0  0  0  0  0
    7.5748   -4.8280   28.7278 C   0  0  0  0  0  0  0  0  0  0  0  0
    8.9776   -4.7555   28.1204 C   0  0  0  0  0  0  0  0  0  0  0  0
    6.5554   -4.0713   27.8732 C   0  0  0  0  0  0  0  0  0  0  0  0
    8.9620   -5.1961   26.6568 C   0  0  0  0  0  0  0  0  0  0  0  0
    6.6009   -4.5253   26.4110 C   0  0  0  0  0  0  0  0  0  0  0  0
   10.6659    0.7557   23.3001 C   0  0  0  0  0  0  0  0  0  0  0  0
    7.5840   -0.2700   18.5160 N   0  0  0  0  0  0  0  0  0  0  0  0
    6.7100    0.3850   17.8100 N   0  0  0  0  0  0  0  0  0  0  0  0
    5.7970    0.9500   18.6730 N   0  0  0  0  0  0  0  0  0  0  0  0
    7.9770   -4.4029   25.9162 N   0  0  0  0  0  0  0  0  0  0  0  0
    8.0950   -0.7700   20.8440 N   0  0  0  0  0  0  0  0  0  0  0  0
    9.5820   -0.1080   22.7000 N   0  0  0  0  0  0  0  0  0  0  0  0
    9.2950    1.3000   20.9480 O   0  0  0  0  0  0  0  0  0  0  0  0
   14.6073   -2.0567   21.3805 Cl  0  0  0  0  0  0  0  0  0  0  0  0
   14.0976   -0.7988   26.0445 H   0  0  0  0  0  0  0  0  0  0  0  0
   11.9832    0.4236   25.6578 H   0  0  0  0  0  0  0  0  0  0  0  0
    9.5426   -4.5618   23.7797 H   0  0  0  0  0  0  0  0  0  0  0  0
    7.1914   -1.8824   26.1903 H   0  0  0  0  0  0  0  0  0  0  0  0
   10.2669   -2.6745   22.3854 H   0  0  0  0  0  0  0  0  0  0  0  0
    7.8690   -0.0020   24.7587 H   0  0  0  0  0  0  0  0  0  0  0  0
   15.2641   -1.8964   24.1658 H   0  0  0  0  0  0  0  0  0  0  0  0
   12.1834   -0.5454   21.4719 H   0  0  0  0  0  0  0  0  0  0  0  0
    5.6529    0.7487   22.0767 H   0  0  0  0  0  0  0  0  0  0  0  0
    3.6388    2.0586   21.6675 H   0  0  0  0  0  0  0  0  0  0  0  0
    2.9822    2.6968   19.3330 H   0  0  0  0  0  0  0  0  0  0  0  0
    4.4111    1.9893   17.4360 H   0  0  0  0  0  0  0  0  0  0  0  0
    7.2681   -5.8807   28.8239 H   0  0  0  0  0  0  0  0  0  0  0  0
    7.5891   -4.4101   29.7448 H   0  0  0  0  0  0  0  0  0  0  0  0
    9.3554   -3.7320   28.1920 H   0  0  0  0  0  0  0  0  0  0  0  0
    9.6558   -5.3943   28.6900 H   0  0  0  0  0  0  0  0  0  0  0  0
    5.5496   -4.2322   28.2751 H   0  0  0  0  0  0  0  0  0  0  0  0
    6.7545   -2.9948   27.9293 H   0  0  0  0  0  0  0  0  0  0  0  0
    9.9612   -5.0560   26.2363 H   0  0  0  0  0  0  0  0  0  0  0  0
    8.7097   -6.2583   26.5922 H   0  0  0  0  0  0  0  0  0  0  0  0
    6.2649   -5.5600   26.3335 H   0  0  0  0  0  0  0  0  0  0  0  0
    5.9271   -3.8964   25.8283 H   0  0  0  0  0  0  0  0  0  0  0  0
   10.2856    1.1781   24.2366 H   0  0  0  0  0  0  0  0  0  0  0  0
   10.8149    1.5883   22.6046 H   0  0  0  0  0  0  0  0  0  0  0  0
    8.0897   -1.6082   21.0890 H   0  0  0  0  0  0  0  0  0  0  0  0
  1  2  2  0  0  0  0
  1  7  1  0  0  0  0
  2  9  1  0  0  0  0
  3  5  2  0  0  0  0
  3 10  1  0  0  0  0
  4  6  1  0  0  0  0
  4 10  2  0  0  0  0
  5 11  1  0  0  0  0
  6 11  2  0  0  0  0
  7 12  2  0  0  0  0
  8  9  2  0  0  0  0
  8 12  1  0  0  0  0
  9 25  1  0  0  0  0
 10 29  1  0  0  0  0
 11 31  1  0  0  0  0
 12 33  1  0  0  0  0
 13 14  2  0  0  0  0
 13 15  1  0  0  0  0
 13 28  1  0  0  0  0
 14 26  1  0  0  0  0
 14 30  1  0  0  0  0
 15 16  2  0  0  0  0
 16 17  1  0  0  0  0
 17 18  2  0  0  0  0
 18 28  1  0  0  0  0
 19 30  1  0  0  0  0
 19 31  1  0  0  0  0
 19 32  2  0  0  0  0
 20 21  1  0  0  0  0
 20 22  1  0  0  0  0
 21 23  1  0  0  0  0
 22 24  1  0  0  0  0
 23 29  1  0  0  0  0
 24 29  1  0  0  0  0
 25 31  1  0  0  0  0
 26 27  2  0  0  0  0
 27 28  1  0  0  0  0
  1 34  1  0  0  0  0
  2 35  1  0  0  0  0
  3 36  1  0  0  0  0
  4 37  1  0  0  0  0
  5 38  1  0  0  0  0
  6 39  1  0  0  0  0
  7 40  1  0  0  0  0
  8 41  1  0  0  0  0
 15 42  1  0  0  0  0
 16 43  1  0  0  0  0
 17 44  1  0  0  0  0
 18 45  1  0  0  0  0
 20 46  1  0  0  0  0
 20 47  1  0  0  0  0
 21 48  1  0  0  0  0
 21 49  1  0  0  0  0
 22 50  1  0  0  0  0
 22 51  1  0  0  0  0
 23 52  1  0  0  0  0
 23 53  1  0  0  0  0
 24 54  1  0  0  0  0
 24 55  1  0  0  0  0
 25 56  1  0  0  0  0
 25 57  1  0  0  0  0
 30 58  1  0  0  0  0
M  END
> <clash_score>
0

> <docking_score>
-8.420641899108887

> <overlap_score>
0.9905683398246765

$$$$
BENZO_95_1
  -OEChem-08232013523D

 58 62  0     0  0  0  0  0  0999 V2000
    9.1890   -3.5540   24.0140 C   0  0  0  0  0  0  0  0  0  0  0  0
    7.8700   -2.0610   25.3550 C   0  0  0  0  0  0  0  0  0  0  0  0
    9.5890   -2.4950   23.2210 C   0  0  0  0  0  0  0  0  0  0  0  0
    8.2550   -1.0010   24.5520 C   0  0  0  0  0  0  0  0  0  0  0  0
   13.2516    0.9063   22.9519 C   0  0  0  0  0  0  0  0  0  0  0  0
   12.4136   -1.1249   23.0350 C   0  0  0  0  0  0  0  0  0  0  0  0
   12.0454    0.1966   23.1039 C   0  0  0  0  0  0  0  0  0  0  0  0
    8.3450   -3.3440   25.0980 C   0  0  0  0  0  0  0  0  0  0  0  0
    9.1280   -1.2090   23.4870 C   0  0  0  0  0  0  0  0  0  0  0  0
    6.1460    0.6070   19.9750 C   0  0  0  0  0  0  0  0  0  0  0  0
    7.2710   -0.1460   19.8310 C   0  0  0  0  0  0  0  0  0  0  0  0
    5.3890    1.0010   21.0690 C   0  0  0  0  0  0  0  0  0  0  0  0
    4.2460    1.7520   20.8250 C   0  0  0  0  0  0  0  0  0  0  0  0
    3.8860    2.1050   19.5250 C   0  0  0  0  0  0  0  0  0  0  0  0
    4.6610    1.7170   18.4380 C   0  0  0  0  0  0  0  0  0  0  0  0
    9.0430    0.2380   21.4940 C   0  0  0  0  0  0  0  0  0  0  0  0
    7.5748   -4.8280   28.7278 C   0  0  0  0  0  0  0  0  0  0  0  0
    8.9776   -4.7555   28.1204 C   0  0  0  0  0  0  0  0  0  0  0  0
    6.5554   -4.0713   27.8732 C   0  0  0  0  0  0  0  0  0  0  0  0
    8.9620   -5.1961   26.6568 C   0  0  0  0  0  0  0  0  0  0  0  0
    6.6009   -4.5253   26.4110 C   0  0  0  0  0  0  0  0  0  0  0  0
   14.6106   -2.2888   22.7229 C   0  0  0  0  0  0  0  0  0  0  0  0
   10.6659    0.7557   23.3001 C   0  0  0  0  0  0  0  0  0  0  0  0
   14.3071    0.1024   22.7982 N   0  0  0  0  0  0  0  0  0  0  0  0
    7.5840   -0.2700   18.5160 N   0  0  0  0  0  0  0  0  0  0  0  0
    6.7100    0.3850   17.8100 N   0  0  0  0  0  0  0  0  0  0  0  0
   13.7654   -1.1262   22.8534 N   0  0  0  0  0  0  0  0  0  0  0  0
    5.7970    0.9500   18.6730 N   0  0  0  0  0  0  0  0  0  0  0  0
    7.9770   -4.4029   25.9162 N   0  0  0  0  0  0  0  0  0  0  0  0
    8.0950   -0.7700   20.8440 N   0  0  0  0  0  0  0  0  0  0  0  0
    9.5820   -0.1080   22.7000 N   0  0  0  0  0  0  0  0  0  0  0  0
    9.2950    1.3000   20.9480 O   0  0  0  0  0  0  0  0  0  0  0  0
    9.5426   -4.5618   23.7797 H   0  0  0  0  0  0  0  0  0  0  0  0
    7.1914   -1.8824   26.1903 H   0  0  0  0  0  0  0  0  0  0  0  0
   10.2669   -2.6745   22.3854 H   0  0  0  0  0  0  0  0  0  0  0  0
    7.8690   -0.0020   24.7587 H   0  0  0  0  0  0  0  0  0  0  0  0
   13.4081    1.9758   22.9472 H   0  0  0  0  0  0  0  0  0  0  0  0
   11.8432   -2.0416   23.0995 H   0  0  0  0  0  0  0  0  0  0  0  0
    5.6529    0.7487   22.0767 H   0  0  0  0  0  0  0  0  0  0  0  0
    3.6388    2.0586   21.6675 H   0  0  0  0  0  0  0  0  0  0  0  0
    2.9822    2.6968   19.3330 H   0  0  0  0  0  0  0  0  0  0  0  0
    4.4111    1.9893   17.4360 H   0  0  0  0  0  0  0  0  0  0  0  0
    7.2681   -5.8807   28.8239 H   0  0  0  0  0  0  0  0  0  0  0  0
    7.5891   -4.4101   29.7448 H   0  0  0  0  0  0  0  0  0  0  0  0
    9.3554   -3.7320   28.1920 H   0  0  0  0  0  0  0  0  0  0  0  0
    9.6558   -5.3943   28.6900 H   0  0  0  0  0  0  0  0  0  0  0  0
    5.5496   -4.2322   28.2751 H   0  0  0  0  0  0  0  0  0  0  0  0
    6.7545   -2.9948   27.9293 H   0  0  0  0  0  0  0  0  0  0  0  0
    9.9612   -5.0560   26.2363 H   0  0  0  0  0  0  0  0  0  0  0  0
    8.7097   -6.2583   26.5922 H   0  0  0  0  0  0  0  0  0  0  0  0
    6.2649   -5.5600   26.3335 H   0  0  0  0  0  0  0  0  0  0  0  0
    5.9271   -3.8964   25.8283 H   0  0  0  0  0  0  0  0  0  0  0  0
   14.6697   -2.5454   21.6619 H   0  0  0  0  0  0  0  0  0  0  0  0
   15.6050   -2.0621   23.1174 H   0  0  0  0  0  0  0  0  0  0  0  0
   14.1787   -3.1155   23.2939 H   0  0  0  0  0  0  0  0  0  0  0  0
   10.4490    0.8829   24.3664 H   0  0  0  0  0  0  0  0  0  0  0  0
   10.5700    1.7396   22.8291 H   0  0  0  0  0  0  0  0  0  0  0  0
    8.0897   -1.6082   21.0890 H   0  0  0  0  0  0  0  0  0  0  0  0
  1  3  2  0  0  0  0
  1  8  1  0  0  0  0
  2  4  1  0  0  0  0
  2  8  2  0  0  0  0
  3  9  1  0  0  0  0
  4  9  2  0  0  0  0
  5  7  1  0  0  0  0
  5 24  2  0  0  0  0
  6  7  2  0  0  0  0
  6 27  1  0  0  0  0
  7 23  1  0  0  0  0
  8 29  1  0  0  0  0
  9 31  1  0  0  0  0
 10 11  2  0  0  0  0
 10 12  1  0  0  0  0
 10 28  1  0  0  0  0
 11 25  1  0  0  0  0
 11 30  1  0  0  0  0
 12 13  2  0  0  0  0
 13 14  1  0  0  0  0
 14 15  2  0  0  0  0
 15 28  1  0  0  0  0
 16 30  1  0  0  0  0
 16 31  1  0  0  0  0
 16 32  2  0  0  0  0
 17 18  1  0  0  0  0
 17 19  1  0  0  0  0
 18 20  1  0  0  0  0
 19 21  1  0  0  0  0
 20 29  1  0  0  0  0
 21 29  1  0  0  0  0
 22 27  1  0  0  0  0
 23 31  1  0  0  0  0
 24 27  1  0  0  0  0
 25 26  2  0  0  0  0
 26 28  1  0  0  0  0
  1 33  1  0  0  0  0
  2 34  1  0  0  0  0
  3 35  1  0  0  0  0
  4 36  1  0  0  0  0
  5 37  1  0  0  0  0
  6 38  1  0  0  0  0
 12 39  1  0  0  0  0
 13 40  1  0  0  0  0
 14 41  1  0  0  0  0
 15 42  1  0  0  0  0
 17 43  1  0  0  0  0
 17 44  1  0  0  0  0
 18 45  1  0  0  0  0
 18 46  1  0  0  0  0
 19 47  1  0  0  0  0
 19 48  1  0  0  0  0
 20 49  1  0  0  0  0
 20 50  1  0  0  0  0
 21 51  1  0  0  0  0
 21 52  1  0  0  0  0
 22 53  1  0  0  0  0
 22 54  1  0  0  0  0
 22 55  1  0  0  0  0
 23 56  1  0  0  0  0
 23 57  1  0  0  0  0
 30 58  1  0  0  0  0
M  END
> <clash_score>
0

> <docking_score>
-9.615249633789062

> <overlap_score>
0.9646736979484558

$$$$
BENZO_99_1
  -OEChem-08232013523D

 46 49  0     0  0  0  0  0  0999 V2000
    9.1890   -3.5540   24.0140 C   0  0  0  0  0  0  0  0  0  0  0  0
    7.8700   -2.0610   25.3550 C   0  0  0  0  0  0  0  0  0  0  0  0
    9.5890   -2.4950   23.2210 C   0  0  0  0  0  0  0  0  0  0  0  0
    8.2550   -1.0010   24.5520 C   0  0  0  0  0  0  0  0  0  0  0  0
   13.0166    0.3267   24.3737 C   0  0  0  0  0  0  0  0  0  0  0  0
   12.2626   -1.2730   23.0669 C   0  0  0  0  0  0  0  0  0  0  0  0
    8.3450   -3.3440   25.0980 C   0  0  0  0  0  0  0  0  0  0  0  0
   11.9210   -0.0414   23.5700 C   0  0  0  0  0  0  0  0  0  0  0  0
    9.1280   -1.2090   23.4870 C   0  0  0  0  0  0  0  0  0  0  0  0
    6.1460    0.6070   19.9750 C   0  0  0  0  0  0  0  0  0  0  0  0
    7.2710   -0.1460   19.8310 C   0  0  0  0  0  0  0  0  0  0  0  0
    5.3890    1.0010   21.0690 C   0  0  0  0  0  0  0  0  0  0  0  0
    4.2460    1.7520   20.8250 C   0  0  0  0  0  0  0  0  0  0  0  0
    3.8860    2.1050   19.5250 C   0  0  0  0  0  0  0  0  0  0  0  0
    4.6610    1.7170   18.4380 C   0  0  0  0  0  0  0  0  0  0  0  0
    9.0430    0.2380   21.4940 C   0  0  0  0  0  0  0  0  0  0  0  0
    7.9522   -4.4794   25.9764 C   0  0  0  0  0  0  0  0  0  0  0  0
   14.2694   -2.7492   23.3359 C   0  0  0  0  0  0  0  0  0  0  0  0
   10.6602    0.7344   23.3196 C   0  0  0  0  0  0  0  0  0  0  0  0
   13.9819   -0.5963   24.3837 N   0  0  0  0  0  0  0  0  0  0  0  0
    7.5840   -0.2700   18.5160 N   0  0  0  0  0  0  0  0  0  0  0  0
    6.7100    0.3850   17.8100 N   0  0  0  0  0  0  0  0  0  0  0  0
   13.4940   -1.5567   23.5802 N   0  0  0  0  0  0  0  0  0  0  0  0
    5.7970    0.9500   18.6730 N   0  0  0  0  0  0  0  0  0  0  0  0
    8.0950   -0.7700   20.8440 N   0  0  0  0  0  0  0  0  0  0  0  0
    9.5820   -0.1080   22.7000 N   0  0  0  0  0  0  0  0  0  0  0  0
    9.2950    1.3000   20.9480 O   0  0  0  0  0  0  0  0  0  0  0  0
    9.5403   -4.5627   23.7809 H   0  0  0  0  0  0  0  0  0  0  0  0
    7.1911   -1.8848   26.1904 H   0  0  0  0  0  0  0  0  0  0  0  0
   10.2682   -2.6746   22.3865 H   0  0  0  0  0  0  0  0  0  0  0  0
    7.8684   -0.0022   24.7594 H   0  0  0  0  0  0  0  0  0  0  0  0
   13.1537    1.2281   24.9541 H   0  0  0  0  0  0  0  0  0  0  0  0
   11.7467   -1.9552   22.4050 H   0  0  0  0  0  0  0  0  0  0  0  0
    5.6529    0.7487   22.0767 H   0  0  0  0  0  0  0  0  0  0  0  0
    3.6388    2.0586   21.6675 H   0  0  0  0  0  0  0  0  0  0  0  0
    2.9822    2.6968   19.3330 H   0  0  0  0  0  0  0  0  0  0  0  0
    4.4111    1.9893   17.4360 H   0  0  0  0  0  0  0  0  0  0  0  0
    8.6668   -4.5891   26.8013 H   0  0  0  0  0  0  0  0  0  0  0  0
    6.9513   -4.3276   26.4010 H   0  0  0  0  0  0  0  0  0  0  0  0
    7.9196   -5.4231   25.4163 H   0  0  0  0  0  0  0  0  0  0  0  0
   14.8977   -2.5694   22.4596 H   0  0  0  0  0  0  0  0  0  0  0  0
   14.8875   -2.9674   24.2112 H   0  0  0  0  0  0  0  0  0  0  0  0
   13.5930   -3.5897   23.1567 H   0  0  0  0  0  0  0  0  0  0  0  0
   10.2665    1.1441   24.2563 H   0  0  0  0  0  0  0  0  0  0  0  0
   10.8453    1.5790   22.6476 H   0  0  0  0  0  0  0  0  0  0  0  0
    8.0689   -1.6186   21.0712 H   0  0  0  0  0  0  0  0  0  0  0  0
  1  3  2  0  0  0  0
  1  7  1  0  0  0  0
  2  4  1  0  0  0  0
  2  7  2  0  0  0  0
  3  9  1  0  0  0  0
  4  9  2  0  0  0  0
  5  8  1  0  0  0  0
  5 20  2  0  0  0  0
  6  8  2  0  0  0  0
  6 23  1  0  0  0  0
  7 17  1  0  0  0  0
  8 19  1  0  0  0  0
  9 26  1  0  0  0  0
 10 11  2  0  0  0  0
 10 12  1  0  0  0  0
 10 24  1  0  0  0  0
 11 21  1  0  0  0  0
 11 25  1  0  0  0  0
 12 13  2  0  0  0  0
 13 14  1  0  0  0  0
 14 15  2  0  0  0  0
 15 24  1  0  0  0  0
 16 25  1  0  0  0  0
 16 26  1  0  0  0  0
 16 27  2  0  0  0  0
 18 23  1  0  0  0  0
 19 26  1  0  0  0  0
 20 23  1  0  0  0  0
 21 22  2  0  0  0  0
 22 24  1  0  0  0  0
  1 28  1  0  0  0  0
  2 29  1  0  0  0  0
  3 30  1  0  0  0  0
  4 31  1  0  0  0  0
  5 32  1  0  0  0  0
  6 33  1  0  0  0  0
 12 34  1  0  0  0  0
 13 35  1  0  0  0  0
 14 36  1  0  0  0  0
 15 37  1  0  0  0  0
 17 38  1  0  0  0  0
 17 39  1  0  0  0  0
 17 40  1  0  0  0  0
 18 41  1  0  0  0  0
 18 42  1  0  0  0  0
 18 43  1  0  0  0  0
 19 44  1  0  0  0  0
 19 45  1  0  0  0  0
 25 46  1  0  0  0  0
M  END
> <clash_score>
0

> <docking_score>
-7.543634414672852

> <overlap_score>
0.8882188200950623

$$$$
BENZO_101_1
  -OEChem-08232013523D

 47 50  0     0  0  0  0  0  0999 V2000
   14.2631   -1.4841   24.0344 C   0  0  0  0  0  0  0  0  0  0  0  0
   13.9273   -0.4139   24.8635 C   0  0  0  0  0  0  0  0  0  0  0  0
   13.4280   -1.8330   22.9730 C   0  0  0  0  0  0  0  0  0  0  0  0
   12.7562    0.3074   24.6313 C   0  0  0  0  0  0  0  0  0  0  0  0
   12.2569   -1.1117   22.7408 C   0  0  0  0  0  0  0  0  0  0  0  0
    9.5890   -2.4950   23.2210 C   0  0  0  0  0  0  0  0  0  0  0  0
    8.2550   -1.0010   24.5520 C   0  0  0  0  0  0  0  0  0  0  0  0
    9.1890   -3.5540   24.0140 C   0  0  0  0  0  0  0  0  0  0  0  0
    7.8700   -2.0610   25.3550 C   0  0  0  0  0  0  0  0  0  0  0  0
   11.9210   -0.0414   23.5700 C   0  0  0  0  0  0  0  0  0  0  0  0
    9.1280   -1.2090   23.4870 C   0  0  0  0  0  0  0  0  0  0  0  0
    8.3450   -3.3440   25.0980 C   0  0  0  0  0  0  0  0  0  0  0  0
    6.1460    0.6070   19.9750 C   0  0  0  0  0  0  0  0  0  0  0  0
    7.2710   -0.1460   19.8310 C   0  0  0  0  0  0  0  0  0  0  0  0
    5.3890    1.0010   21.0690 C   0  0  0  0  0  0  0  0  0  0  0  0
    4.2460    1.7520   20.8250 C   0  0  0  0  0  0  0  0  0  0  0  0
    3.8860    2.1050   19.5250 C   0  0  0  0  0  0  0  0  0  0  0  0
    4.6610    1.7170   18.4380 C   0  0  0  0  0  0  0  0  0  0  0  0
    9.0430    0.2380   21.4940 C   0  0  0  0  0  0  0  0  0  0  0  0
    8.5123   -5.6657   25.5744 C   0  0  0  0  0  0  0  0  0  0  0  0
   10.6602    0.7344   23.3196 C   0  0  0  0  0  0  0  0  0  0  0  0
    7.5840   -0.2700   18.5160 N   0  0  0  0  0  0  0  0  0  0  0  0
    6.7100    0.3850   17.8100 N   0  0  0  0  0  0  0  0  0  0  0  0
    5.7970    0.9500   18.6730 N   0  0  0  0  0  0  0  0  0  0  0  0
    8.0950   -0.7700   20.8440 N   0  0  0  0  0  0  0  0  0  0  0  0
    9.5820   -0.1080   22.7000 N   0  0  0  0  0  0  0  0  0  0  0  0
    9.2950    1.3000   20.9480 O   0  0  0  0  0  0  0  0  0  0  0  0
    7.9864   -4.3799   25.8996 O   0  0  0  0  0  0  0  0  0  0  0  0
   15.1757   -2.0448   24.2145 H   0  0  0  0  0  0  0  0  0  0  0  0
   14.5780   -0.1414   25.6893 H   0  0  0  0  0  0  0  0  0  0  0  0
   13.6897   -2.6654   22.3267 H   0  0  0  0  0  0  0  0  0  0  0  0
   12.5024    1.1397   25.2826 H   0  0  0  0  0  0  0  0  0  0  0  0
   11.6122   -1.3907   21.9116 H   0  0  0  0  0  0  0  0  0  0  0  0
   10.2678   -2.6746   22.3862 H   0  0  0  0  0  0  0  0  0  0  0  0
    7.8691   -0.0023   24.7606 H   0  0  0  0  0  0  0  0  0  0  0  0
    9.5404   -4.5633   23.7846 H   0  0  0  0  0  0  0  0  0  0  0  0
    7.1920   -1.8875   26.1914 H   0  0  0  0  0  0  0  0  0  0  0  0
    5.6529    0.7487   22.0767 H   0  0  0  0  0  0  0  0  0  0  0  0
    3.6388    2.0586   21.6675 H   0  0  0  0  0  0  0  0  0  0  0  0
    2.9822    2.6968   19.3330 H   0  0  0  0  0  0  0  0  0  0  0  0
    4.4111    1.9893   17.4360 H   0  0  0  0  0  0  0  0  0  0  0  0
    8.1469   -6.4023   26.2941 H   0  0  0  0  0  0  0  0  0  0  0  0
    9.6044   -5.6298   25.5962 H   0  0  0  0  0  0  0  0  0  0  0  0
    8.1788   -5.9429   24.5716 H   0  0  0  0  0  0  0  0  0  0  0  0
   10.2665    1.1441   24.2563 H   0  0  0  0  0  0  0  0  0  0  0  0
   10.8453    1.5790   22.6476 H   0  0  0  0  0  0  0  0  0  0  0  0
    8.0689   -1.6186   21.0712 H   0  0  0  0  0  0  0  0  0  0  0  0
  1  2  1  0  0  0  0
  1  3  2  0  0  0  0
  2  4  2  0  0  0  0
  3  5  1  0  0  0  0
  4 10  1  0  0  0  0
  5 10  2  0  0  0  0
  6  8  2  0  0  0  0
  6 11  1  0  0  0  0
  7  9  1  0  0  0  0
  7 11  2  0  0  0  0
  8 12  1  0  0  0  0
  9 12  2  0  0  0  0
 10 21  1  0  0  0  0
 11 26  1  0  0  0  0
 12 28  1  0  0  0  0
 13 14  2  0  0  0  0
 13 15  1  0  0  0  0
 13 24  1  0  0  0  0
 14 22  1  0  0  0  0
 14 25  1  0  0  0  0
 15 16  2  0  0  0  0
 16 17  1  0  0  0  0
 17 18  2  0  0  0  0
 18 24  1  0  0  0  0
 19 25  1  0  0  0  0
 19 26  1  0  0  0  0
 19 27  2  0  0  0  0
 20 28  1  0  0  0  0
 21 26  1  0  0  0  0
 22 23  2  0  0  0  0
 23 24  1  0  0  0  0
  1 29  1  0  0  0  0
  2 30  1  0  0  0  0
  3 31  1  0  0  0  0
  4 32  1  0  0  0  0
  5 33  1  0  0  0  0
  6 34  1  0  0  0  0
  7 35  1  0  0  0  0
  8 36  1  0  0  0  0
  9 37  1  0  0  0  0
 15 38  1  0  0  0  0
 16 39  1  0  0  0  0
 17 40  1  0  0  0  0
 18 41  1  0  0  0  0
 20 42  1  0  0  0  0
 20 43  1  0  0  0  0
 20 44  1  0  0  0  0
 21 45  1  0  0  0  0
 21 46  1  0  0  0  0
 25 47  1  0  0  0  0
M  END
> <clash_score>
0

> <docking_score>
-8.35901927947998

> <overlap_score>
0.9063516855239868

$$$$
BENZO_98_1
  -OEChem-08232013523D

 46 49  0     0  0  0  0  0  0999 V2000
   13.5949   -0.8753   25.0995 C   0  0  0  0  0  0  0  0  0  0  0  0
   12.4243   -0.1538   24.8660 C   0  0  0  0  0  0  0  0  0  0  0  0
    9.1890   -3.5540   24.0140 C   0  0  0  0  0  0  0  0  0  0  0  0
    7.8700   -2.0610   25.3550 C   0  0  0  0  0  0  0  0  0  0  0  0
    9.5890   -2.4950   23.2210 C   0  0  0  0  0  0  0  0  0  0  0  0
    8.2550   -1.0010   24.5520 C   0  0  0  0  0  0  0  0  0  0  0  0
   14.2624   -1.4845   24.0368 C   0  0  0  0  0  0  0  0  0  0  0  0
   12.5883   -0.6507   22.5073 C   0  0  0  0  0  0  0  0  0  0  0  0
    8.3450   -3.3440   25.0980 C   0  0  0  0  0  0  0  0  0  0  0  0
   11.9210   -0.0414   23.5700 C   0  0  0  0  0  0  0  0  0  0  0  0
    9.1280   -1.2090   23.4870 C   0  0  0  0  0  0  0  0  0  0  0  0
   13.7590   -1.3722   22.7408 C   0  0  0  0  0  0  0  0  0  0  0  0
    6.1460    0.6070   19.9750 C   0  0  0  0  0  0  0  0  0  0  0  0
    7.2710   -0.1460   19.8310 C   0  0  0  0  0  0  0  0  0  0  0  0
    5.3890    1.0010   21.0690 C   0  0  0  0  0  0  0  0  0  0  0  0
    4.2460    1.7520   20.8250 C   0  0  0  0  0  0  0  0  0  0  0  0
    3.8860    2.1050   19.5250 C   0  0  0  0  0  0  0  0  0  0  0  0
    4.6610    1.7170   18.4380 C   0  0  0  0  0  0  0  0  0  0  0  0
    9.0430    0.2380   21.4940 C   0  0  0  0  0  0  0  0  0  0  0  0
    7.9522   -4.4794   25.9764 C   0  0  0  0  0  0  0  0  0  0  0  0
   10.6602    0.7344   23.3196 C   0  0  0  0  0  0  0  0  0  0  0  0
    7.5840   -0.2700   18.5160 N   0  0  0  0  0  0  0  0  0  0  0  0
    6.7100    0.3850   17.8100 N   0  0  0  0  0  0  0  0  0  0  0  0
    5.7970    0.9500   18.6730 N   0  0  0  0  0  0  0  0  0  0  0  0
    8.0950   -0.7700   20.8440 N   0  0  0  0  0  0  0  0  0  0  0  0
    9.5820   -0.1080   22.7000 N   0  0  0  0  0  0  0  0  0  0  0  0
    9.2950    1.3000   20.9480 O   0  0  0  0  0  0  0  0  0  0  0  0
   14.5823   -2.1250   21.4304 Cl  0  0  0  0  0  0  0  0  0  0  0  0
   13.9864   -0.9627   26.1089 H   0  0  0  0  0  0  0  0  0  0  0  0
   11.9108    0.3176   25.7000 H   0  0  0  0  0  0  0  0  0  0  0  0
    9.5403   -4.5627   23.7809 H   0  0  0  0  0  0  0  0  0  0  0  0
    7.1911   -1.8848   26.1904 H   0  0  0  0  0  0  0  0  0  0  0  0
   10.2682   -2.6746   22.3865 H   0  0  0  0  0  0  0  0  0  0  0  0
    7.8684   -0.0022   24.7594 H   0  0  0  0  0  0  0  0  0  0  0  0
   15.1736   -2.0440   24.2337 H   0  0  0  0  0  0  0  0  0  0  0  0
   12.1922   -0.5597   21.4986 H   0  0  0  0  0  0  0  0  0  0  0  0
    5.6529    0.7487   22.0767 H   0  0  0  0  0  0  0  0  0  0  0  0
    3.6388    2.0586   21.6675 H   0  0  0  0  0  0  0  0  0  0  0  0
    2.9822    2.6968   19.3330 H   0  0  0  0  0  0  0  0  0  0  0  0
    4.4111    1.9893   17.4360 H   0  0  0  0  0  0  0  0  0  0  0  0
    8.6668   -4.5891   26.8013 H   0  0  0  0  0  0  0  0  0  0  0  0
    6.9513   -4.3276   26.4010 H   0  0  0  0  0  0  0  0  0  0  0  0
    7.9196   -5.4231   25.4163 H   0  0  0  0  0  0  0  0  0  0  0  0
   10.2665    1.1441   24.2563 H   0  0  0  0  0  0  0  0  0  0  0  0
   10.8453    1.5790   22.6476 H   0  0  0  0  0  0  0  0  0  0  0  0
    8.0689   -1.6186   21.0712 H   0  0  0  0  0  0  0  0  0  0  0  0
  1  2  2  0  0  0  0
  1  7  1  0  0  0  0
  2 10  1  0  0  0  0
  3  5  2  0  0  0  0
  3  9  1  0  0  0  0
  4  6  1  0  0  0  0
  4  9  2  0  0  0  0
  5 11  1  0  0  0  0
  6 11  2  0  0  0  0
  7 12  2  0  0  0  0
  8 10  2  0  0  0  0
  8 12  1  0  0  0  0
  9 20  1  0  0  0  0
 10 21  1  0  0  0  0
 11 26  1  0  0  0  0
 12 28  1  0  0  0  0
 13 14  2  0  0  0  0
 13 15  1  0  0  0  0
 13 24  1  0  0  0  0
 14 22  1  0  0  0  0
 14 25  1  0  0  0  0
 15 16  2  0  0  0  0
 16 17  1  0  0  0  0
 17 18  2  0  0  0  0
 18 24  1  0  0  0  0
 19 25  1  0  0  0  0
 19 26  1  0  0  0  0
 19 27  2  0  0  0  0
 21 26  1  0  0  0  0
 22 23  2  0  0  0  0
 23 24  1  0  0  0  0
  1 29  1  0  0  0  0
  2 30  1  0  0  0  0
  3 31  1  0  0  0  0
  4 32  1  0  0  0  0
  5 33  1  0  0  0  0
  6 34  1  0  0  0  0
  7 35  1  0  0  0  0
  8 36  1  0  0  0  0
 15 37  1  0  0  0  0
 16 38  1  0  0  0  0
 17 39  1  0  0  0  0
 18 40  1  0  0  0  0
 20 41  1  0  0  0  0
 20 42  1  0  0  0  0
 20 43  1  0  0  0  0
 21 44  1  0  0  0  0
 21 45  1  0  0  0  0
 25 46  1  0  0  0  0
M  END
> <clash_score>
0

> <docking_score>
-7.485857963562012

> <overlap_score>
0.9028692245483398

$$$$
BENZO_100_1
  -OEChem-08232013523D

 44 47  0     0  0  0  0  0  0999 V2000
    9.5890   -2.4950   23.2210 C   0  0  0  0  0  0  0  0  0  0  0  0
    8.2550   -1.0010   24.5520 C   0  0  0  0  0  0  0  0  0  0  0  0
    9.1890   -3.5540   24.0140 C   0  0  0  0  0  0  0  0  0  0  0  0
    7.8700   -2.0610   25.3550 C   0  0  0  0  0  0  0  0  0  0  0  0
   12.6683   -0.6945   22.5476 C   0  0  0  0  0  0  0  0  0  0  0  0
   13.7810   -1.3339   23.0483 C   0  0  0  0  0  0  0  0  0  0  0  0
   12.4909   -0.2068   24.8133 C   0  0  0  0  0  0  0  0  0  0  0  0
   11.9210   -0.0414   23.5700 C   0  0  0  0  0  0  0  0  0  0  0  0
    9.1280   -1.2090   23.4870 C   0  0  0  0  0  0  0  0  0  0  0  0
    8.3450   -3.3440   25.0980 C   0  0  0  0  0  0  0  0  0  0  0  0
    6.1460    0.6070   19.9750 C   0  0  0  0  0  0  0  0  0  0  0  0
    7.2710   -0.1460   19.8310 C   0  0  0  0  0  0  0  0  0  0  0  0
    5.3890    1.0010   21.0690 C   0  0  0  0  0  0  0  0  0  0  0  0
    4.2460    1.7520   20.8250 C   0  0  0  0  0  0  0  0  0  0  0  0
    3.8860    2.1050   19.5250 C   0  0  0  0  0  0  0  0  0  0  0  0
    4.6610    1.7170   18.4380 C   0  0  0  0  0  0  0  0  0  0  0  0
    9.0430    0.2380   21.4940 C   0  0  0  0  0  0  0  0  0  0  0  0
    8.5123   -5.6657   25.5744 C   0  0  0  0  0  0  0  0  0  0  0  0
   10.6602    0.7344   23.3196 C   0  0  0  0  0  0  0  0  0  0  0  0
    7.5840   -0.2700   18.5160 N   0  0  0  0  0  0  0  0  0  0  0  0
    6.7100    0.3850   17.8100 N   0  0  0  0  0  0  0  0  0  0  0  0
    5.7970    0.9500   18.6730 N   0  0  0  0  0  0  0  0  0  0  0  0
    8.0950   -0.7700   20.8440 N   0  0  0  0  0  0  0  0  0  0  0  0
    9.5820   -0.1080   22.7000 N   0  0  0  0  0  0  0  0  0  0  0  0
    9.2950    1.3000   20.9480 O   0  0  0  0  0  0  0  0  0  0  0  0
    7.9864   -4.3799   25.8996 O   0  0  0  0  0  0  0  0  0  0  0  0
   13.9213   -1.1458   24.7445 S   0  0  0  0  0  0  0  0  0  0  0  0
   10.2678   -2.6746   22.3862 H   0  0  0  0  0  0  0  0  0  0  0  0
    7.8691   -0.0023   24.7606 H   0  0  0  0  0  0  0  0  0  0  0  0
    9.5404   -4.5633   23.7846 H   0  0  0  0  0  0  0  0  0  0  0  0
    7.1920   -1.8875   26.1914 H   0  0  0  0  0  0  0  0  0  0  0  0
   12.4063   -0.6980   21.4971 H   0  0  0  0  0  0  0  0  0  0  0  0
   14.5178   -1.9030   22.4993 H   0  0  0  0  0  0  0  0  0  0  0  0
   12.1386    0.1761   25.7610 H   0  0  0  0  0  0  0  0  0  0  0  0
    5.6529    0.7487   22.0767 H   0  0  0  0  0  0  0  0  0  0  0  0
    3.6388    2.0586   21.6675 H   0  0  0  0  0  0  0  0  0  0  0  0
    2.9822    2.6968   19.3330 H   0  0  0  0  0  0  0  0  0  0  0  0
    4.4111    1.9893   17.4360 H   0  0  0  0  0  0  0  0  0  0  0  0
    8.1469   -6.4023   26.2941 H   0  0  0  0  0  0  0  0  0  0  0  0
    9.6044   -5.6298   25.5962 H   0  0  0  0  0  0  0  0  0  0  0  0
    8.1788   -5.9429   24.5716 H   0  0  0  0  0  0  0  0  0  0  0  0
   10.2665    1.1441   24.2563 H   0  0  0  0  0  0  0  0  0  0  0  0
   10.8453    1.5790   22.6476 H   0  0  0  0  0  0  0  0  0  0  0  0
    8.0689   -1.6186   21.0712 H   0  0  0  0  0  0  0  0  0  0  0  0
  1  3  2  0  0  0  0
  1  9  1  0  0  0  0
  2  4  1  0  0  0  0
  2  9  2  0  0  0  0
  3 10  1  0  0  0  0
  4 10  2  0  0  0  0
  5  6  2  0  0  0  0
  5  8  1  0  0  0  0
  6 27  1  0  0  0  0
  7  8  2  0  0  0  0
  7 27  1  0  0  0  0
  8 19  1  0  0  0  0
  9 24  1  0  0  0  0
 10 26  1  0  0  0  0
 11 12  2  0  0  0  0
 11 13  1  0  0  0  0
 11 22  1  0  0  0  0
 12 20  1  0  0  0  0
 12 23  1  0  0  0  0
 13 14  2  0  0  0  0
 14 15  1  0  0  0  0
 15 16  2  0  0  0  0
 16 22  1  0  0  0  0
 17 23  1  0  0  0  0
 17 24  1  0  0  0  0
 17 25  2  0  0  0  0
 18 26  1  0  0  0  0
 19 24  1  0  0  0  0
 20 21  2  0  0  0  0
 21 22  1  0  0  0  0
  1 28  1  0  0  0  0
  2 29  1  0  0  0  0
  3 30  1  0  0  0  0
  4 31  1  0  0  0  0
  5 32  1  0  0  0  0
  6 33  1  0  0  0  0
  7 34  1  0  0  0  0
 13 35  1  0  0  0  0
 14 36  1  0  0  0  0
 15 37  1  0  0  0  0
 16 38  1  0  0  0  0
 18 39  1  0  0  0  0
 18 40  1  0  0  0  0
 18 41  1  0  0  0  0
 19 42  1  0  0  0  0
 19 43  1  0  0  0  0
 23 44  1  0  0  0  0
M  END
> <clash_score>
0

> <docking_score>
-8.146459579467773

> <overlap_score>
0.8938446044921875

$$$$
BENZO_103_1
  -OEChem-08232013523D

 47 50  0     0  0  0  0  0  0999 V2000
    9.5890   -2.4950   23.2210 C   0  0  0  0  0  0  0  0  0  0  0  0
    8.2550   -1.0010   24.5520 C   0  0  0  0  0  0  0  0  0  0  0  0
    9.1890   -3.5540   24.0140 C   0  0  0  0  0  0  0  0  0  0  0  0
    7.8700   -2.0610   25.3550 C   0  0  0  0  0  0  0  0  0  0  0  0
   13.2163    0.4892   23.8052 C   0  0  0  0  0  0  0  0  0  0  0  0
   12.3973   -0.8665   22.2800 C   0  0  0  0  0  0  0  0  0  0  0  0
   12.0272    0.1412   23.1368 C   0  0  0  0  0  0  0  0  0  0  0  0
    9.1280   -1.2090   23.4870 C   0  0  0  0  0  0  0  0  0  0  0  0
    8.3450   -3.3440   25.0980 C   0  0  0  0  0  0  0  0  0  0  0  0
    6.1460    0.6070   19.9750 C   0  0  0  0  0  0  0  0  0  0  0  0
    7.2710   -0.1460   19.8310 C   0  0  0  0  0  0  0  0  0  0  0  0
    5.3890    1.0010   21.0690 C   0  0  0  0  0  0  0  0  0  0  0  0
    4.2460    1.7520   20.8250 C   0  0  0  0  0  0  0  0  0  0  0  0
    3.8860    2.1050   19.5250 C   0  0  0  0  0  0  0  0  0  0  0  0
    4.6610    1.7170   18.4380 C   0  0  0  0  0  0  0  0  0  0  0  0
    9.0430    0.2380   21.4940 C   0  0  0  0  0  0  0  0  0  0  0  0
   14.5742   -2.0121   21.8033 C   0  0  0  0  0  0  0  0  0  0  0  0
    7.1173   -4.0856   26.9922 C   0  0  0  0  0  0  0  0  0  0  0  0
   10.6602    0.7344   23.3196 C   0  0  0  0  0  0  0  0  0  0  0  0
   14.2634   -0.2384   23.4073 N   0  0  0  0  0  0  0  0  0  0  0  0
    7.5840   -0.2700   18.5160 N   0  0  0  0  0  0  0  0  0  0  0  0
    6.7100    0.3850   17.8100 N   0  0  0  0  0  0  0  0  0  0  0  0
   13.7334   -1.0537   22.4797 N   0  0  0  0  0  0  0  0  0  0  0  0
    5.7970    0.9500   18.6730 N   0  0  0  0  0  0  0  0  0  0  0  0
    8.0950   -0.7700   20.8440 N   0  0  0  0  0  0  0  0  0  0  0  0
    9.5820   -0.1080   22.7000 N   0  0  0  0  0  0  0  0  0  0  0  0
    9.2950    1.3000   20.9480 O   0  0  0  0  0  0  0  0  0  0  0  0
    7.9864   -4.3799   25.8996 O   0  0  0  0  0  0  0  0  0  0  0  0
   10.2678   -2.6746   22.3862 H   0  0  0  0  0  0  0  0  0  0  0  0
    7.8691   -0.0023   24.7606 H   0  0  0  0  0  0  0  0  0  0  0  0
    9.5404   -4.5633   23.7846 H   0  0  0  0  0  0  0  0  0  0  0  0
    7.1920   -1.8875   26.1914 H   0  0  0  0  0  0  0  0  0  0  0  0
   13.3658    1.2416   24.5666 H   0  0  0  0  0  0  0  0  0  0  0  0
   11.8373   -1.4526   21.5639 H   0  0  0  0  0  0  0  0  0  0  0  0
    5.6529    0.7487   22.0767 H   0  0  0  0  0  0  0  0  0  0  0  0
    3.6388    2.0586   21.6675 H   0  0  0  0  0  0  0  0  0  0  0  0
    2.9822    2.6968   19.3330 H   0  0  0  0  0  0  0  0  0  0  0  0
    4.4111    1.9893   17.4360 H   0  0  0  0  0  0  0  0  0  0  0  0
   14.9794   -1.5328   20.9083 H   0  0  0  0  0  0  0  0  0  0  0  0
   15.3833   -2.3217   22.4708 H   0  0  0  0  0  0  0  0  0  0  0  0
   13.9782   -2.8882   21.5327 H   0  0  0  0  0  0  0  0  0  0  0  0
    6.9107   -5.0014   27.5513 H   0  0  0  0  0  0  0  0  0  0  0  0
    6.1851   -3.6594   26.6129 H   0  0  0  0  0  0  0  0  0  0  0  0
    7.6053   -3.3622   27.6498 H   0  0  0  0  0  0  0  0  0  0  0  0
   10.4266    0.8452   24.3842 H   0  0  0  0  0  0  0  0  0  0  0  0
   10.6004    1.7303   22.8682 H   0  0  0  0  0  0  0  0  0  0  0  0
    8.0689   -1.6186   21.0712 H   0  0  0  0  0  0  0  0  0  0  0  0
  1  3  2  0  0  0  0
  1  8  1  0  0  0  0
  2  4  1  0  0  0  0
  2  8  2  0  0  0  0
  3  9  1  0  0  0  0
  4  9  2  0  0  0  0
  5  7  1  0  0  0  0
  5 20  2  0  0  0  0
  6  7  2  0  0  0  0
  6 23  1  0  0  0  0
  7 19  1  0  0  0  0
  8 26  1  0  0  0  0
  9 28  1  0  0  0  0
 10 11  2  0  0  0  0
 10 12  1  0  0  0  0
 10 24  1  0  0  0  0
 11 21  1  0  0  0  0
 11 25  1  0  0  0  0
 12 13  2  0  0  0  0
 13 14  1  0  0  0  0
 14 15  2  0  0  0  0
 15 24  1  0  0  0  0
 16 25  1  0  0  0  0
 16 26  1  0  0  0  0
 16 27  2  0  0  0  0
 17 23  1  0  0  0  0
 18 28  1  0  0  0  0
 19 26  1  0  0  0  0
 20 23  1  0  0  0  0
 21 22  2  0  0  0  0
 22 24  1  0  0  0  0
  1 29  1  0  0  0  0
  2 30  1  0  0  0  0
  3 31  1  0  0  0  0
  4 32  1  0  0  0  0
  5 33  1  0  0  0  0
  6 34  1  0  0  0  0
 12 35  1  0  0  0  0
 13 36  1  0  0  0  0
 14 37  1  0  0  0  0
 15 38  1  0  0  0  0
 17 39  1  0  0  0  0
 17 40  1  0  0  0  0
 17 41  1  0  0  0  0
 18 42  1  0  0  0  0
 18 43  1  0  0  0  0
 18 44  1  0  0  0  0
 19 45  1  0  0  0  0
 19 46  1  0  0  0  0
 25 47  1  0  0  0  0
M  END
> <clash_score>
0

> <docking_score>
-8.01517391204834

> <overlap_score>
0.9062252640724182

$$$$
BENZO_102_1
  -OEChem-08232013523D

 47 50  0     0  0  0  0  0  0999 V2000
   13.5949   -0.8753   25.0995 C   0  0  0  0  0  0  0  0  0  0  0  0
   12.4243   -0.1538   24.8660 C   0  0  0  0  0  0  0  0  0  0  0  0
    9.5890   -2.4950   23.2210 C   0  0  0  0  0  0  0  0  0  0  0  0
    8.2550   -1.0010   24.5520 C   0  0  0  0  0  0  0  0  0  0  0  0
    9.1890   -3.5540   24.0140 C   0  0  0  0  0  0  0  0  0  0  0  0
    7.8700   -2.0610   25.3550 C   0  0  0  0  0  0  0  0  0  0  0  0
   14.2624   -1.4845   24.0368 C   0  0  0  0  0  0  0  0  0  0  0  0
   12.5883   -0.6507   22.5073 C   0  0  0  0  0  0  0  0  0  0  0  0
   11.9210   -0.0414   23.5700 C   0  0  0  0  0  0  0  0  0  0  0  0
    9.1280   -1.2090   23.4870 C   0  0  0  0  0  0  0  0  0  0  0  0
    8.3450   -3.3440   25.0980 C   0  0  0  0  0  0  0  0  0  0  0  0
   13.7590   -1.3722   22.7408 C   0  0  0  0  0  0  0  0  0  0  0  0
    6.1460    0.6070   19.9750 C   0  0  0  0  0  0  0  0  0  0  0  0
    7.2710   -0.1460   19.8310 C   0  0  0  0  0  0  0  0  0  0  0  0
    5.3890    1.0010   21.0690 C   0  0  0  0  0  0  0  0  0  0  0  0
    4.2460    1.7520   20.8250 C   0  0  0  0  0  0  0  0  0  0  0  0
    3.8860    2.1050   19.5250 C   0  0  0  0  0  0  0  0  0  0  0  0
    4.6610    1.7170   18.4380 C   0  0  0  0  0  0  0  0  0  0  0  0
    9.0430    0.2380   21.4940 C   0  0  0  0  0  0  0  0  0  0  0  0
    8.5123   -5.6657   25.5744 C   0  0  0  0  0  0  0  0  0  0  0  0
   10.6602    0.7344   23.3196 C   0  0  0  0  0  0  0  0  0  0  0  0
    7.5840   -0.2700   18.5160 N   0  0  0  0  0  0  0  0  0  0  0  0
    6.7100    0.3850   17.8100 N   0  0  0  0  0  0  0  0  0  0  0  0
    5.7970    0.9500   18.6730 N   0  0  0  0  0  0  0  0  0  0  0  0
    8.0950   -0.7700   20.8440 N   0  0  0  0  0  0  0  0  0  0  0  0
    9.5820   -0.1080   22.7000 N   0  0  0  0  0  0  0  0  0  0  0  0
    9.2950    1.3000   20.9480 O   0  0  0  0  0  0  0  0  0  0  0  0
    7.9864   -4.3799   25.8996 O   0  0  0  0  0  0  0  0  0  0  0  0
   14.5823   -2.1250   21.4304 Cl  0  0  0  0  0  0  0  0  0  0  0  0
   13.9864   -0.9627   26.1089 H   0  0  0  0  0  0  0  0  0  0  0  0
   11.9108    0.3176   25.7000 H   0  0  0  0  0  0  0  0  0  0  0  0
   10.2678   -2.6746   22.3862 H   0  0  0  0  0  0  0  0  0  0  0  0
    7.8691   -0.0023   24.7606 H   0  0  0  0  0  0  0  0  0  0  0  0
    9.5404   -4.5633   23.7846 H   0  0  0  0  0  0  0  0  0  0  0  0
    7.1920   -1.8875   26.1914 H   0  0  0  0  0  0  0  0  0  0  0  0
   15.1736   -2.0440   24.2337 H   0  0  0  0  0  0  0  0  0  0  0  0
   12.1922   -0.5597   21.4986 H   0  0  0  0  0  0  0  0  0  0  0  0
    5.6529    0.7487   22.0767 H   0  0  0  0  0  0  0  0  0  0  0  0
    3.6388    2.0586   21.6675 H   0  0  0  0  0  0  0  0  0  0  0  0
    2.9822    2.6968   19.3330 H   0  0  0  0  0  0  0  0  0  0  0  0
    4.4111    1.9893   17.4360 H   0  0  0  0  0  0  0  0  0  0  0  0
    8.1469   -6.4023   26.2941 H   0  0  0  0  0  0  0  0  0  0  0  0
    9.6044   -5.6298   25.5962 H   0  0  0  0  0  0  0  0  0  0  0  0
    8.1788   -5.9429   24.5716 H   0  0  0  0  0  0  0  0  0  0  0  0
   10.2665    1.1441   24.2563 H   0  0  0  0  0  0  0  0  0  0  0  0
   10.8453    1.5790   22.6476 H   0  0  0  0  0  0  0  0  0  0  0  0
    8.0689   -1.6186   21.0712 H   0  0  0  0  0  0  0  0  0  0  0  0
  1  2  2  0  0  0  0
  1  7  1  0  0  0  0
  2  9  1  0  0  0  0
  3  5  2  0  0  0  0
  3 10  1  0  0  0  0
  4  6  1  0  0  0  0
  4 10  2  0  0  0  0
  5 11  1  0  0  0  0
  6 11  2  0  0  0  0
  7 12  2  0  0  0  0
  8  9  2  0  0  0  0
  8 12  1  0  0  0  0
  9 21  1  0  0  0  0
 10 26  1  0  0  0  0
 11 28  1  0  0  0  0
 12 29  1  0  0  0  0
 13 14  2  0  0  0  0
 13 15  1  0  0  0  0
 13 24  1  0  0  0  0
 14 22  1  0  0  0  0
 14 25  1  0  0  0  0
 15 16  2  0  0  0  0
 16 17  1  0  0  0  0
 17 18  2  0  0  0  0
 18 24  1  0  0  0  0
 19 25  1  0  0  0  0
 19 26  1  0  0  0  0
 19 27  2  0  0  0  0
 20 28  1  0  0  0  0
 21 26  1  0  0  0  0
 22 23  2  0  0  0  0
 23 24  1  0  0  0  0
  1 30  1  0  0  0  0
  2 31  1  0  0  0  0
  3 32  1  0  0  0  0
  4 33  1  0  0  0  0
  5 34  1  0  0  0  0
  6 35  1  0  0  0  0
  7 36  1  0  0  0  0
  8 37  1  0  0  0  0
 15 38  1  0  0  0  0
 16 39  1  0  0  0  0
 17 40  1  0  0  0  0
 18 41  1  0  0  0  0
 20 42  1  0  0  0  0
 20 43  1  0  0  0  0
 20 44  1  0  0  0  0
 21 45  1  0  0  0  0
 21 46  1  0  0  0  0
 25 47  1  0  0  0  0
M  END
> <clash_score>
0

> <docking_score>
-7.60603141784668

> <overlap_score>
0.9161193370819092

$$$$
BENZO_105_1
  -OEChem-08232013523D

 57 61  0     0  0  0  0  0  0999 V2000
   14.2457   -1.4860   24.0577 C   0  0  0  0  0  0  0  0  0  0  0  0
   13.9240   -0.3932   24.8625 C   0  0  0  0  0  0  0  0  0  0  0  0
   13.4039   -1.8500   23.0067 C   0  0  0  0  0  0  0  0  0  0  0  0
   12.7605    0.3357   24.6164 C   0  0  0  0  0  0  0  0  0  0  0  0
   12.2404   -1.1211   22.7606 C   0  0  0  0  0  0  0  0  0  0  0  0
    9.1890   -3.5540   24.0140 C   0  0  0  0  0  0  0  0  0  0  0  0
    7.8700   -2.0610   25.3550 C   0  0  0  0  0  0  0  0  0  0  0  0
    9.5890   -2.4950   23.2210 C   0  0  0  0  0  0  0  0  0  0  0  0
    8.2550   -1.0010   24.5520 C   0  0  0  0  0  0  0  0  0  0  0  0
   11.9186   -0.0282   23.5654 C   0  0  0  0  0  0  0  0  0  0  0  0
    8.3450   -3.3440   25.0980 C   0  0  0  0  0  0  0  0  0  0  0  0
    9.1280   -1.2090   23.4870 C   0  0  0  0  0  0  0  0  0  0  0  0
    6.1460    0.6070   19.9750 C   0  0  0  0  0  0  0  0  0  0  0  0
    7.2710   -0.1460   19.8310 C   0  0  0  0  0  0  0  0  0  0  0  0
    5.3890    1.0010   21.0690 C   0  0  0  0  0  0  0  0  0  0  0  0
    4.2460    1.7520   20.8250 C   0  0  0  0  0  0  0  0  0  0  0  0
    3.8860    2.1050   19.5250 C   0  0  0  0  0  0  0  0  0  0  0  0
    4.6610    1.7170   18.4380 C   0  0  0  0  0  0  0  0  0  0  0  0
    7.2752   -5.5548   25.4273 C   0  0  0  0  0  0  0  0  0  0  0  0
    9.0430    0.2380   21.4940 C   0  0  0  0  0  0  0  0  0  0  0  0
    7.1880   -6.7800   26.3209 C   0  0  0  0  0  0  0  0  0  0  0  0
    7.0916   -6.4753   27.7999 C   0  0  0  0  0  0  0  0  0  0  0  0
    8.2362   -5.5641   28.1841 C   0  0  0  0  0  0  0  0  0  0  0  0
    8.1241   -4.2655   27.4032 C   0  0  0  0  0  0  0  0  0  0  0  0
   10.6659    0.7557   23.3001 C   0  0  0  0  0  0  0  0  0  0  0  0
    7.5840   -0.2700   18.5160 N   0  0  0  0  0  0  0  0  0  0  0  0
    6.7100    0.3850   17.8100 N   0  0  0  0  0  0  0  0  0  0  0  0
    5.7970    0.9500   18.6730 N   0  0  0  0  0  0  0  0  0  0  0  0
    7.9635   -4.4452   25.9501 N   0  0  0  0  0  0  0  0  0  0  0  0
    8.0950   -0.7700   20.8440 N   0  0  0  0  0  0  0  0  0  0  0  0
    9.5820   -0.1080   22.7000 N   0  0  0  0  0  0  0  0  0  0  0  0
    6.7947   -5.6299   24.2931 O   0  0  0  0  0  0  0  0  0  0  0  0
    9.2950    1.3000   20.9480 O   0  0  0  0  0  0  0  0  0  0  0  0
   15.1524   -2.0526   24.2486 H   0  0  0  0  0  0  0  0  0  0  0  0
   14.5799   -0.1090   25.6803 H   0  0  0  0  0  0  0  0  0  0  0  0
   13.6546   -2.7001   22.3792 H   0  0  0  0  0  0  0  0  0  0  0  0
   12.5177    1.1856   25.2488 H   0  0  0  0  0  0  0  0  0  0  0  0
   11.5904   -1.4121   21.9396 H   0  0  0  0  0  0  0  0  0  0  0  0
    9.5436   -4.5614   23.7799 H   0  0  0  0  0  0  0  0  0  0  0  0
    7.1918   -1.8823   26.1906 H   0  0  0  0  0  0  0  0  0  0  0  0
   10.2676   -2.6754   22.3861 H   0  0  0  0  0  0  0  0  0  0  0  0
    7.8686   -0.0026   24.7598 H   0  0  0  0  0  0  0  0  0  0  0  0
    5.6529    0.7487   22.0767 H   0  0  0  0  0  0  0  0  0  0  0  0
    3.6388    2.0586   21.6675 H   0  0  0  0  0  0  0  0  0  0  0  0
    2.9822    2.6968   19.3330 H   0  0  0  0  0  0  0  0  0  0  0  0
    4.4111    1.9893   17.4360 H   0  0  0  0  0  0  0  0  0  0  0  0
    6.3101   -7.3613   26.0164 H   0  0  0  0  0  0  0  0  0  0  0  0
    8.0752   -7.3922   26.1183 H   0  0  0  0  0  0  0  0  0  0  0  0
    6.1328   -5.9938   28.0269 H   0  0  0  0  0  0  0  0  0  0  0  0
    7.1363   -7.4051   28.3772 H   0  0  0  0  0  0  0  0  0  0  0  0
    8.2035   -5.3520   29.2586 H   0  0  0  0  0  0  0  0  0  0  0  0
    9.1990   -6.0474   27.9788 H   0  0  0  0  0  0  0  0  0  0  0  0
    7.2505   -3.6996   27.7511 H   0  0  0  0  0  0  0  0  0  0  0  0
    9.0155   -3.6525   27.5824 H   0  0  0  0  0  0  0  0  0  0  0  0
   10.2619    1.1650   24.2325 H   0  0  0  0  0  0  0  0  0  0  0  0
   10.8653    1.6011   22.6333 H   0  0  0  0  0  0  0  0  0  0  0  0
    8.0897   -1.6082   21.0890 H   0  0  0  0  0  0  0  0  0  0  0  0
  1  2  1  0  0  0  0
  1  3  2  0  0  0  0
  2  4  2  0  0  0  0
  3  5  1  0  0  0  0
  4 10  1  0  0  0  0
  5 10  2  0  0  0  0
  6  8  2  0  0  0  0
  6 11  1  0  0  0  0
  7  9  1  0  0  0  0
  7 11  2  0  0  0  0
  8 12  1  0  0  0  0
  9 12  2  0  0  0  0
 10 25  1  0  0  0  0
 11 29  1  0  0  0  0
 12 31  1  0  0  0  0
 13 14  2  0  0  0  0
 13 15  1  0  0  0  0
 13 28  1  0  0  0  0
 14 26  1  0  0  0  0
 14 30  1  0  0  0  0
 15 16  2  0  0  0  0
 16 17  1  0  0  0  0
 17 18  2  0  0  0  0
 18 28  1  0  0  0  0
 19 21  1  0  0  0  0
 19 29  1  0  0  0  0
 19 32  2  0  0  0  0
 20 30  1  0  0  0  0
 20 31  1  0  0  0  0
 20 33  2  0  0  0  0
 21 22  1  0  0  0  0
 22 23  1  0  0  0  0
 23 24  1  0  0  0  0
 24 29  1  0  0  0  0
 25 31  1  0  0  0  0
 26 27  2  0  0  0  0
 27 28  1  0  0  0  0
  1 34  1  0  0  0  0
  2 35  1  0  0  0  0
  3 36  1  0  0  0  0
  4 37  1  0  0  0  0
  5 38  1  0  0  0  0
  6 39  1  0  0  0  0
  7 40  1  0  0  0  0
  8 41  1  0  0  0  0
  9 42  1  0  0  0  0
 15 43  1  0  0  0  0
 16 44  1  0  0  0  0
 17 45  1  0  0  0  0
 18 46  1  0  0  0  0
 21 47  1  0  0  0  0
 21 48  1  0  0  0  0
 22 49  1  0  0  0  0
 22 50  1  0  0  0  0
 23 51  1  0  0  0  0
 23 52  1  0  0  0  0
 24 53  1  0  0  0  0
 24 54  1  0  0  0  0
 25 55  1  0  0  0  0
 25 56  1  0  0  0  0
 30 57  1  0  0  0  0
M  END
> <clash_score>
0

> <docking_score>
-8.104146003723145

> <overlap_score>
0.9864965677261353

$$$$
BENZO_104_1
  -OEChem-08232013523D

 54 58  0     0  0  0  0  0  0999 V2000
    9.1890   -3.5540   24.0140 C   0  0  0  0  0  0  0  0  0  0  0  0
    7.8700   -2.0610   25.3550 C   0  0  0  0  0  0  0  0  0  0  0  0
    9.5890   -2.4950   23.2210 C   0  0  0  0  0  0  0  0  0  0  0  0
    8.2550   -1.0010   24.5520 C   0  0  0  0  0  0  0  0  0  0  0  0
   12.4870   -0.2035   24.8602 C   0  0  0  0  0  0  0  0  0  0  0  0
   13.6349   -0.9642   24.8227 C   0  0  0  0  0  0  0  0  0  0  0  0
   12.6540   -0.6615   22.5876 C   0  0  0  0  0  0  0  0  0  0  0  0
   11.9186   -0.0282   23.5654 C   0  0  0  0  0  0  0  0  0  0  0  0
    8.3450   -3.3440   25.0980 C   0  0  0  0  0  0  0  0  0  0  0  0
    9.1280   -1.2090   23.4870 C   0  0  0  0  0  0  0  0  0  0  0  0
    6.1460    0.6070   19.9750 C   0  0  0  0  0  0  0  0  0  0  0  0
    7.2710   -0.1460   19.8310 C   0  0  0  0  0  0  0  0  0  0  0  0
    5.3890    1.0010   21.0690 C   0  0  0  0  0  0  0  0  0  0  0  0
    4.2460    1.7520   20.8250 C   0  0  0  0  0  0  0  0  0  0  0  0
    3.8860    2.1050   19.5250 C   0  0  0  0  0  0  0  0  0  0  0  0
    4.6610    1.7170   18.4380 C   0  0  0  0  0  0  0  0  0  0  0  0
    7.2752   -5.5548   25.4273 C   0  0  0  0  0  0  0  0  0  0  0  0
    9.0430    0.2380   21.4940 C   0  0  0  0  0  0  0  0  0  0  0  0
    7.1880   -6.7800   26.3209 C   0  0  0  0  0  0  0  0  0  0  0  0
    7.0916   -6.4753   27.7999 C   0  0  0  0  0  0  0  0  0  0  0  0
    8.2362   -5.5641   28.1841 C   0  0  0  0  0  0  0  0  0  0  0  0
    8.1241   -4.2655   27.4032 C   0  0  0  0  0  0  0  0  0  0  0  0
   10.6659    0.7557   23.3001 C   0  0  0  0  0  0  0  0  0  0  0  0
    7.5840   -0.2700   18.5160 N   0  0  0  0  0  0  0  0  0  0  0  0
    6.7100    0.3850   17.8100 N   0  0  0  0  0  0  0  0  0  0  0  0
    5.7970    0.9500   18.6730 N   0  0  0  0  0  0  0  0  0  0  0  0
    7.9635   -4.4452   25.9501 N   0  0  0  0  0  0  0  0  0  0  0  0
    8.0950   -0.7700   20.8440 N   0  0  0  0  0  0  0  0  0  0  0  0
    9.5820   -0.1080   22.7000 N   0  0  0  0  0  0  0  0  0  0  0  0
    6.7947   -5.6299   24.2931 O   0  0  0  0  0  0  0  0  0  0  0  0
    9.2950    1.3000   20.9480 O   0  0  0  0  0  0  0  0  0  0  0  0
   14.0232   -1.4634   23.2314 S   0  0  0  0  0  0  0  0  0  0  0  0
    9.5436   -4.5614   23.7799 H   0  0  0  0  0  0  0  0  0  0  0  0
    7.1918   -1.8823   26.1906 H   0  0  0  0  0  0  0  0  0  0  0  0
   10.2676   -2.6754   22.3861 H   0  0  0  0  0  0  0  0  0  0  0  0
    7.8686   -0.0026   24.7598 H   0  0  0  0  0  0  0  0  0  0  0  0
   12.0782    0.2061   25.7752 H   0  0  0  0  0  0  0  0  0  0  0  0
   14.2645   -1.2500   25.6535 H   0  0  0  0  0  0  0  0  0  0  0  0
   12.4569   -0.6931   21.5249 H   0  0  0  0  0  0  0  0  0  0  0  0
    5.6529    0.7487   22.0767 H   0  0  0  0  0  0  0  0  0  0  0  0
    3.6388    2.0586   21.6675 H   0  0  0  0  0  0  0  0  0  0  0  0
    2.9822    2.6968   19.3330 H   0  0  0  0  0  0  0  0  0  0  0  0
    4.4111    1.9893   17.4360 H   0  0  0  0  0  0  0  0  0  0  0  0
    6.3101   -7.3613   26.0164 H   0  0  0  0  0  0  0  0  0  0  0  0
    8.0752   -7.3922   26.1183 H   0  0  0  0  0  0  0  0  0  0  0  0
    6.1328   -5.9938   28.0269 H   0  0  0  0  0  0  0  0  0  0  0  0
    7.1363   -7.4051   28.3772 H   0  0  0  0  0  0  0  0  0  0  0  0
    8.2035   -5.3520   29.2586 H   0  0  0  0  0  0  0  0  0  0  0  0
    9.1990   -6.0474   27.9788 H   0  0  0  0  0  0  0  0  0  0  0  0
    7.2505   -3.6996   27.7511 H   0  0  0  0  0  0  0  0  0  0  0  0
    9.0155   -3.6525   27.5824 H   0  0  0  0  0  0  0  0  0  0  0  0
   10.2619    1.1650   24.2325 H   0  0  0  0  0  0  0  0  0  0  0  0
   10.8653    1.6011   22.6333 H   0  0  0  0  0  0  0  0  0  0  0  0
    8.0897   -1.6082   21.0890 H   0  0  0  0  0  0  0  0  0  0  0  0
  1  3  2  0  0  0  0
  1  9  1  0  0  0  0
  2  4  1  0  0  0  0
  2  9  2  0  0  0  0
  3 10  1  0  0  0  0
  4 10  2  0  0  0  0
  5  6  2  0  0  0  0
  5  8  1  0  0  0  0
  6 32  1  0  0  0  0
  7  8  2  0  0  0  0
  7 32  1  0  0  0  0
  8 23  1  0  0  0  0
  9 27  1  0  0  0  0
 10 29  1  0  0  0  0
 11 12  2  0  0  0  0
 11 13  1  0  0  0  0
 11 26  1  0  0  0  0
 12 24  1  0  0  0  0
 12 28  1  0  0  0  0
 13 14  2  0  0  0  0
 14 15  1  0  0  0  0
 15 16  2  0  0  0  0
 16 26  1  0  0  0  0
 17 19  1  0  0  0  0
 17 27  1  0  0  0  0
 17 30  2  0  0  0  0
 18 28  1  0  0  0  0
 18 29  1  0  0  0  0
 18 31  2  0  0  0  0
 19 20  1  0  0  0  0
 20 21  1  0  0  0  0
 21 22  1  0  0  0  0
 22 27  1  0  0  0  0
 23 29  1  0  0  0  0
 24 25  2  0  0  0  0
 25 26  1  0  0  0  0
  1 33  1  0  0  0  0
  2 34  1  0  0  0  0
  3 35  1  0  0  0  0
  4 36  1  0  0  0  0
  5 37  1  0  0  0  0
  6 38  1  0  0  0  0
  7 39  1  0  0  0  0
 13 40  1  0  0  0  0
 14 41  1  0  0  0  0
 15 42  1  0  0  0  0
 16 43  1  0  0  0  0
 19 44  1  0  0  0  0
 19 45  1  0  0  0  0
 20 46  1  0  0  0  0
 20 47  1  0  0  0  0
 21 48  1  0  0  0  0
 21 49  1  0  0  0  0
 22 50  1  0  0  0  0
 22 51  1  0  0  0  0
 23 52  1  0  0  0  0
 23 53  1  0  0  0  0
 28 54  1  0  0  0  0
M  END
> <clash_score>
0

> <docking_score>
-7.966372489929199

> <overlap_score>
0.9719064831733704

$$$$
BENZO_107_1
  -OEChem-08232013523D

 57 61  0     0  0  0  0  0  0999 V2000
    9.1890   -3.5540   24.0140 C   0  0  0  0  0  0  0  0  0  0  0  0
    7.8700   -2.0610   25.3550 C   0  0  0  0  0  0  0  0  0  0  0  0
    9.5890   -2.4950   23.2210 C   0  0  0  0  0  0  0  0  0  0  0  0
    8.2550   -1.0010   24.5520 C   0  0  0  0  0  0  0  0  0  0  0  0
   13.2149    0.4727   23.8027 C   0  0  0  0  0  0  0  0  0  0  0  0
   12.3871   -0.8676   22.2687 C   0  0  0  0  0  0  0  0  0  0  0  0
   12.0256    0.1433   23.1253 C   0  0  0  0  0  0  0  0  0  0  0  0
    8.3450   -3.3440   25.0980 C   0  0  0  0  0  0  0  0  0  0  0  0
    9.1280   -1.2090   23.4870 C   0  0  0  0  0  0  0  0  0  0  0  0
    6.1460    0.6070   19.9750 C   0  0  0  0  0  0  0  0  0  0  0  0
    7.2710   -0.1460   19.8310 C   0  0  0  0  0  0  0  0  0  0  0  0
    5.3890    1.0010   21.0690 C   0  0  0  0  0  0  0  0  0  0  0  0
    4.2460    1.7520   20.8250 C   0  0  0  0  0  0  0  0  0  0  0  0
    3.8860    2.1050   19.5250 C   0  0  0  0  0  0  0  0  0  0  0  0
    4.6610    1.7170   18.4380 C   0  0  0  0  0  0  0  0  0  0  0  0
    8.7161   -4.7975   27.0830 C   0  0  0  0  0  0  0  0  0  0  0  0
    9.0430    0.2380   21.4940 C   0  0  0  0  0  0  0  0  0  0  0  0
    8.1364   -5.9760   27.8449 C   0  0  0  0  0  0  0  0  0  0  0  0
    6.6423   -5.8008   28.0518 C   0  0  0  0  0  0  0  0  0  0  0  0
    5.9022   -5.5526   26.7413 C   0  0  0  0  0  0  0  0  0  0  0  0
    6.8397   -5.2970   25.5620 C   0  0  0  0  0  0  0  0  0  0  0  0
   14.5506   -2.0433   21.8042 C   0  0  0  0  0  0  0  0  0  0  0  0
   10.6659    0.7557   23.3001 C   0  0  0  0  0  0  0  0  0  0  0  0
   14.2541   -0.2689   23.4103 N   0  0  0  0  0  0  0  0  0  0  0  0
    7.5840   -0.2700   18.5160 N   0  0  0  0  0  0  0  0  0  0  0  0
    6.7100    0.3850   17.8100 N   0  0  0  0  0  0  0  0  0  0  0  0
   13.7189   -1.0744   22.4771 N   0  0  0  0  0  0  0  0  0  0  0  0
    5.7970    0.9500   18.6730 N   0  0  0  0  0  0  0  0  0  0  0  0
    7.9658   -4.4385   25.9449 N   0  0  0  0  0  0  0  0  0  0  0  0
    8.0950   -0.7700   20.8440 N   0  0  0  0  0  0  0  0  0  0  0  0
    9.5820   -0.1080   22.7000 N   0  0  0  0  0  0  0  0  0  0  0  0
    9.7829   -4.3044   27.4475 O   0  0  0  0  0  0  0  0  0  0  0  0
    9.2950    1.3000   20.9480 O   0  0  0  0  0  0  0  0  0  0  0  0
    9.5436   -4.5614   23.7799 H   0  0  0  0  0  0  0  0  0  0  0  0
    7.1918   -1.8823   26.1906 H   0  0  0  0  0  0  0  0  0  0  0  0
   10.2676   -2.6754   22.3861 H   0  0  0  0  0  0  0  0  0  0  0  0
    7.8686   -0.0026   24.7598 H   0  0  0  0  0  0  0  0  0  0  0  0
   13.3699    1.2212   24.5669 H   0  0  0  0  0  0  0  0  0  0  0  0
   11.8237   -1.4439   21.5473 H   0  0  0  0  0  0  0  0  0  0  0  0
    5.6529    0.7487   22.0767 H   0  0  0  0  0  0  0  0  0  0  0  0
    3.6388    2.0586   21.6675 H   0  0  0  0  0  0  0  0  0  0  0  0
    2.9822    2.6968   19.3330 H   0  0  0  0  0  0  0  0  0  0  0  0
    4.4111    1.9893   17.4360 H   0  0  0  0  0  0  0  0  0  0  0  0
    8.3160   -6.8753   27.2760 H   0  0  0  0  0  0  0  0  0  0  0  0
    8.6443   -6.0335   28.7960 H   0  0  0  0  0  0  0  0  0  0  0  0
    6.2215   -6.6983   28.5513 H   0  0  0  0  0  0  0  0  0  0  0  0
    6.4589   -4.9587   28.7491 H   0  0  0  0  0  0  0  0  0  0  0  0
    5.2548   -6.4248   26.5112 H   0  0  0  0  0  0  0  0  0  0  0  0
    5.2035   -4.6957   26.8575 H   0  0  0  0  0  0  0  0  0  0  0  0
    7.2534   -6.2390   25.2146 H   0  0  0  0  0  0  0  0  0  0  0  0
    6.2879   -4.8231   24.7574 H   0  0  0  0  0  0  0  0  0  0  0  0
   14.9688   -1.5678   20.9131 H   0  0  0  0  0  0  0  0  0  0  0  0
   15.3505   -2.3660   22.4765 H   0  0  0  0  0  0  0  0  0  0  0  0
   13.9440   -2.9100   21.5274 H   0  0  0  0  0  0  0  0  0  0  0  0
   10.4266    0.8674   24.3633 H   0  0  0  0  0  0  0  0  0  0  0  0
   10.6236    1.7534   22.8507 H   0  0  0  0  0  0  0  0  0  0  0  0
    8.0897   -1.6082   21.0890 H   0  0  0  0  0  0  0  0  0  0  0  0
  1  3  2  0  0  0  0
  1  8  1  0  0  0  0
  2  4  1  0  0  0  0
  2  8  2  0  0  0  0
  3  9  1  0  0  0  0
  4  9  2  0  0  0  0
  5  7  1  0  0  0  0
  5 24  2  0  0  0  0
  6  7  2  0  0  0  0
  6 27  1  0  0  0  0
  7 23  1  0  0  0  0
  8 29  1  0  0  0  0
  9 31  1  0  0  0  0
 10 11  2  0  0  0  0
 10 12  1  0  0  0  0
 10 28  1  0  0  0  0
 11 25  1  0  0  0  0
 11 30  1  0  0  0  0
 12 13  2  0  0  0  0
 13 14  1  0  0  0  0
 14 15  2  0  0  0  0
 15 28  1  0  0  0  0
 16 18  1  0  0  0  0
 16 29  1  0  0  0  0
 16 32  2  0  0  0  0
 17 30  1  0  0  0  0
 17 31  1  0  0  0  0
 17 33  2  0  0  0  0
 18 19  1  0  0  0  0
 19 20  1  0  0  0  0
 20 21  1  0  0  0  0
 21 29  1  0  0  0  0
 22 27  1  0  0  0  0
 23 31  1  0  0  0  0
 24 27  1  0  0  0  0
 25 26  2  0  0  0  0
 26 28  1  0  0  0  0
  1 34  1  0  0  0  0
  2 35  1  0  0  0  0
  3 36  1  0  0  0  0
  4 37  1  0  0  0  0
  5 38  1  0  0  0  0
  6 39  1  0  0  0  0
 12 40  1  0  0  0  0
 13 41  1  0  0  0  0
 14 42  1  0  0  0  0
 15 43  1  0  0  0  0
 18 44  1  0  0  0  0
 18 45  1  0  0  0  0
 19 46  1  0  0  0  0
 19 47  1  0  0  0  0
 20 48  1  0  0  0  0
 20 49  1  0  0  0  0
 21 50  1  0  0  0  0
 21 51  1  0  0  0  0
 22 52  1  0  0  0  0
 22 53  1  0  0  0  0
 22 54  1  0  0  0  0
 23 55  1  0  0  0  0
 23 56  1  0  0  0  0
 30 57  1  0  0  0  0
M  END
> <clash_score>
0

> <docking_score>
-8.388204574584961

> <overlap_score>
0.9955516457557678

$$$$
BENZO_109_1
  -OEChem-08232013523D

 56 60  0     0  0  0  0  0  0999 V2000
   14.3362   -1.3623   23.9762 C   0  0  0  0  0  0  0  0  0  0  0  0
   13.9850   -0.2948   24.8023 C   0  0  0  0  0  0  0  0  0  0  0  0
   13.4945   -1.7412   22.9304 C   0  0  0  0  0  0  0  0  0  0  0  0
   12.7920    0.3939   24.5828 C   0  0  0  0  0  0  0  0  0  0  0  0
   12.3016   -1.0525   22.7108 C   0  0  0  0  0  0  0  0  0  0  0  0
    9.1890   -3.5540   24.0140 C   0  0  0  0  0  0  0  0  0  0  0  0
    7.8700   -2.0610   25.3550 C   0  0  0  0  0  0  0  0  0  0  0  0
    9.5890   -2.4950   23.2210 C   0  0  0  0  0  0  0  0  0  0  0  0
    8.2550   -1.0010   24.5520 C   0  0  0  0  0  0  0  0  0  0  0  0
   11.9503    0.0150   23.5369 C   0  0  0  0  0  0  0  0  0  0  0  0
    8.3450   -3.3440   25.0980 C   0  0  0  0  0  0  0  0  0  0  0  0
    9.1280   -1.2090   23.4870 C   0  0  0  0  0  0  0  0  0  0  0  0
    6.1460    0.6070   19.9750 C   0  0  0  0  0  0  0  0  0  0  0  0
    7.2710   -0.1460   19.8310 C   0  0  0  0  0  0  0  0  0  0  0  0
    5.3890    1.0010   21.0690 C   0  0  0  0  0  0  0  0  0  0  0  0
    4.2460    1.7520   20.8250 C   0  0  0  0  0  0  0  0  0  0  0  0
    3.8860    2.1050   19.5250 C   0  0  0  0  0  0  0  0  0  0  0  0
    4.6610    1.7170   18.4380 C   0  0  0  0  0  0  0  0  0  0  0  0
    9.0430    0.2380   21.4940 C   0  0  0  0  0  0  0  0  0  0  0  0
    8.9524   -5.2012   26.6600 C   0  0  0  0  0  0  0  0  0  0  0  0
    6.6112   -4.5068   26.4379 C   0  0  0  0  0  0  0  0  0  0  0  0
    8.9037   -4.7845   28.1261 C   0  0  0  0  0  0  0  0  0  0  0  0
    6.6374   -4.1243   27.9184 C   0  0  0  0  0  0  0  0  0  0  0  0
   10.6659    0.7557   23.3001 C   0  0  0  0  0  0  0  0  0  0  0  0
    7.5840   -0.2700   18.5160 N   0  0  0  0  0  0  0  0  0  0  0  0
    6.7100    0.3850   17.8100 N   0  0  0  0  0  0  0  0  0  0  0  0
    5.7970    0.9500   18.6730 N   0  0  0  0  0  0  0  0  0  0  0  0
    7.9775   -4.4014   25.9151 N   0  0  0  0  0  0  0  0  0  0  0  0
    8.0950   -0.7700   20.8440 N   0  0  0  0  0  0  0  0  0  0  0  0
    9.5820   -0.1080   22.7000 N   0  0  0  0  0  0  0  0  0  0  0  0
    9.2950    1.3000   20.9480 O   0  0  0  0  0  0  0  0  0  0  0  0
    7.5729   -4.9391   28.6338 O   0  0  0  0  0  0  0  0  0  0  0  0
   15.2658   -1.8976   24.1465 H   0  0  0  0  0  0  0  0  0  0  0  0
   14.6407    0.0011   25.6160 H   0  0  0  0  0  0  0  0  0  0  0  0
   13.7682   -2.5716   22.2863 H   0  0  0  0  0  0  0  0  0  0  0  0
   12.5263    1.2243   25.2316 H   0  0  0  0  0  0  0  0  0  0  0  0
   11.6519   -1.3548   21.8936 H   0  0  0  0  0  0  0  0  0  0  0  0
    9.5426   -4.5618   23.7797 H   0  0  0  0  0  0  0  0  0  0  0  0
    7.1914   -1.8824   26.1903 H   0  0  0  0  0  0  0  0  0  0  0  0
   10.2669   -2.6745   22.3854 H   0  0  0  0  0  0  0  0  0  0  0  0
    7.8690   -0.0020   24.7587 H   0  0  0  0  0  0  0  0  0  0  0  0
    5.6529    0.7487   22.0767 H   0  0  0  0  0  0  0  0  0  0  0  0
    3.6388    2.0586   21.6675 H   0  0  0  0  0  0  0  0  0  0  0  0
    2.9822    2.6968   19.3330 H   0  0  0  0  0  0  0  0  0  0  0  0
    4.4111    1.9893   17.4360 H   0  0  0  0  0  0  0  0  0  0  0  0
    9.9615   -5.0500   26.2711 H   0  0  0  0  0  0  0  0  0  0  0  0
    8.6935   -6.2597   26.5720 H   0  0  0  0  0  0  0  0  0  0  0  0
    6.2628   -5.5350   26.3330 H   0  0  0  0  0  0  0  0  0  0  0  0
    5.9347   -3.8423   25.9023 H   0  0  0  0  0  0  0  0  0  0  0  0
    9.5597   -5.4275   28.7166 H   0  0  0  0  0  0  0  0  0  0  0  0
    9.2344   -3.7511   28.2636 H   0  0  0  0  0  0  0  0  0  0  0  0
    6.8874   -3.0657   28.0553 H   0  0  0  0  0  0  0  0  0  0  0  0
    5.6495   -4.2893   28.3591 H   0  0  0  0  0  0  0  0  0  0  0  0
   10.2856    1.1782   24.2366 H   0  0  0  0  0  0  0  0  0  0  0  0
   10.8149    1.5883   22.6046 H   0  0  0  0  0  0  0  0  0  0  0  0
    8.0897   -1.6082   21.0890 H   0  0  0  0  0  0  0  0  0  0  0  0
  1  2  1  0  0  0  0
  1  3  2  0  0  0  0
  2  4  2  0  0  0  0
  3  5  1  0  0  0  0
  4 10  1  0  0  0  0
  5 10  2  0  0  0  0
  6  8  2  0  0  0  0
  6 11  1  0  0  0  0
  7  9  1  0  0  0  0
  7 11  2  0  0  0  0
  8 12  1  0  0  0  0
  9 12  2  0  0  0  0
 10 24  1  0  0  0  0
 11 28  1  0  0  0  0
 12 30  1  0  0  0  0
 13 14  2  0  0  0  0
 13 15  1  0  0  0  0
 13 27  1  0  0  0  0
 14 25  1  0  0  0  0
 14 29  1  0  0  0  0
 15 16  2  0  0  0  0
 16 17  1  0  0  0  0
 17 18  2  0  0  0  0
 18 27  1  0  0  0  0
 19 29  1  0  0  0  0
 19 30  1  0  0  0  0
 19 31  2  0  0  0  0
 20 22  1  0  0  0  0
 20 28  1  0  0  0  0
 21 23  1  0  0  0  0
 21 28  1  0  0  0  0
 22 32  1  0  0  0  0
 23 32  1  0  0  0  0
 24 30  1  0  0  0  0
 25 26  2  0  0  0  0
 26 27  1  0  0  0  0
  1 33  1  0  0  0  0
  2 34  1  0  0  0  0
  3 35  1  0  0  0  0
  4 36  1  0  0  0  0
  5 37  1  0  0  0  0
  6 38  1  0  0  0  0
  7 39  1  0  0  0  0
  8 40  1  0  0  0  0
  9 41  1  0  0  0  0
 15 42  1  0  0  0  0
 16 43  1  0  0  0  0
 17 44  1  0  0  0  0
 18 45  1  0  0  0  0
 20 46  1  0  0  0  0
 20 47  1  0  0  0  0
 21 48  1  0  0  0  0
 21 49  1  0  0  0  0
 22 50  1  0  0  0  0
 22 51  1  0  0  0  0
 23 52  1  0  0  0  0
 23 53  1  0  0  0  0
 24 54  1  0  0  0  0
 24 55  1  0  0  0  0
 29 56  1  0  0  0  0
M  END
> <clash_score>
0

> <docking_score>
-9.244668960571289

> <overlap_score>
0.9859910011291504

$$$$
BENZO_106_1
  -OEChem-08232013523D

 57 61  0     0  0  0  0  0  0999 V2000
   13.5665   -0.8764   25.1153 C   0  0  0  0  0  0  0  0  0  0  0  0
   12.4034   -0.1473   24.8679 C   0  0  0  0  0  0  0  0  0  0  0  0
    9.1890   -3.5540   24.0140 C   0  0  0  0  0  0  0  0  0  0  0  0
    7.8700   -2.0610   25.3550 C   0  0  0  0  0  0  0  0  0  0  0  0
    9.5890   -2.4950   23.2210 C   0  0  0  0  0  0  0  0  0  0  0  0
    8.2550   -1.0010   24.5520 C   0  0  0  0  0  0  0  0  0  0  0  0
   14.2449   -1.4864   24.0601 C   0  0  0  0  0  0  0  0  0  0  0  0
   12.5970   -0.6383   22.5103 C   0  0  0  0  0  0  0  0  0  0  0  0
   11.9186   -0.0282   23.5654 C   0  0  0  0  0  0  0  0  0  0  0  0
    8.3450   -3.3440   25.0980 C   0  0  0  0  0  0  0  0  0  0  0  0
    9.1280   -1.2090   23.4870 C   0  0  0  0  0  0  0  0  0  0  0  0
   13.7601   -1.3674   22.7576 C   0  0  0  0  0  0  0  0  0  0  0  0
    6.1460    0.6070   19.9750 C   0  0  0  0  0  0  0  0  0  0  0  0
    7.2710   -0.1460   19.8310 C   0  0  0  0  0  0  0  0  0  0  0  0
    5.3890    1.0010   21.0690 C   0  0  0  0  0  0  0  0  0  0  0  0
    4.2460    1.7520   20.8250 C   0  0  0  0  0  0  0  0  0  0  0  0
    3.8860    2.1050   19.5250 C   0  0  0  0  0  0  0  0  0  0  0  0
    4.6610    1.7170   18.4380 C   0  0  0  0  0  0  0  0  0  0  0  0
    7.2757   -5.5631   25.4492 C   0  0  0  0  0  0  0  0  0  0  0  0
    9.0430    0.2380   21.4940 C   0  0  0  0  0  0  0  0  0  0  0  0
    6.9626   -6.6001   26.5133 C   0  0  0  0  0  0  0  0  0  0  0  0
    6.3764   -5.9422   27.7501 C   0  0  0  0  0  0  0  0  0  0  0  0
    7.2660   -4.8258   28.2881 C   0  0  0  0  0  0  0  0  0  0  0  0
    8.4098   -4.4623   27.3426 C   0  0  0  0  0  0  0  0  0  0  0  0
   10.6659    0.7557   23.3001 C   0  0  0  0  0  0  0  0  0  0  0  0
    7.5840   -0.2700   18.5160 N   0  0  0  0  0  0  0  0  0  0  0  0
    6.7100    0.3850   17.8100 N   0  0  0  0  0  0  0  0  0  0  0  0
    5.7970    0.9500   18.6730 N   0  0  0  0  0  0  0  0  0  0  0  0
    7.9658   -4.4384   25.9449 N   0  0  0  0  0  0  0  0  0  0  0  0
    8.0950   -0.7700   20.8440 N   0  0  0  0  0  0  0  0  0  0  0  0
    9.5820   -0.1080   22.7000 N   0  0  0  0  0  0  0  0  0  0  0  0
    6.9858   -5.7908   24.2753 O   0  0  0  0  0  0  0  0  0  0  0  0
    9.2950    1.3000   20.9480 O   0  0  0  0  0  0  0  0  0  0  0  0
   14.5969   -2.1212   21.4563 Cl  0  0  0  0  0  0  0  0  0  0  0  0
   13.9436   -0.9690   26.1297 H   0  0  0  0  0  0  0  0  0  0  0  0
   11.8813    0.3246   25.6962 H   0  0  0  0  0  0  0  0  0  0  0  0
    9.5436   -4.5614   23.7799 H   0  0  0  0  0  0  0  0  0  0  0  0
    7.1918   -1.8823   26.1906 H   0  0  0  0  0  0  0  0  0  0  0  0
   10.2676   -2.6754   22.3861 H   0  0  0  0  0  0  0  0  0  0  0  0
    7.8686   -0.0026   24.7598 H   0  0  0  0  0  0  0  0  0  0  0  0
   15.1500   -2.0519   24.2677 H   0  0  0  0  0  0  0  0  0  0  0  0
   12.2152   -0.5421   21.4965 H   0  0  0  0  0  0  0  0  0  0  0  0
    5.6529    0.7487   22.0767 H   0  0  0  0  0  0  0  0  0  0  0  0
    3.6388    2.0586   21.6675 H   0  0  0  0  0  0  0  0  0  0  0  0
    2.9822    2.6968   19.3330 H   0  0  0  0  0  0  0  0  0  0  0  0
    4.4111    1.9893   17.4360 H   0  0  0  0  0  0  0  0  0  0  0  0
    6.2500   -7.3027   26.1097 H   0  0  0  0  0  0  0  0  0  0  0  0
    7.8838   -7.1078   26.7574 H   0  0  0  0  0  0  0  0  0  0  0  0
    5.3690   -5.5363   27.5214 H   0  0  0  0  0  0  0  0  0  0  0  0
    6.2178   -6.7054   28.5384 H   0  0  0  0  0  0  0  0  0  0  0  0
    6.6498   -3.9225   28.4807 H   0  0  0  0  0  0  0  0  0  0  0  0
    7.6764   -5.1138   29.2803 H   0  0  0  0  0  0  0  0  0  0  0  0
    8.7796   -3.4700   27.5826 H   0  0  0  0  0  0  0  0  0  0  0  0
    9.2112   -5.1853   27.4497 H   0  0  0  0  0  0  0  0  0  0  0  0
   10.2619    1.1650   24.2325 H   0  0  0  0  0  0  0  0  0  0  0  0
   10.8653    1.6011   22.6333 H   0  0  0  0  0  0  0  0  0  0  0  0
    8.0897   -1.6082   21.0890 H   0  0  0  0  0  0  0  0  0  0  0  0
  1  2  2  0  0  0  0
  1  7  1  0  0  0  0
  2  9  1  0  0  0  0
  3  5  2  0  0  0  0
  3 10  1  0  0  0  0
  4  6  1  0  0  0  0
  4 10  2  0  0  0  0
  5 11  1  0  0  0  0
  6 11  2  0  0  0  0
  7 12  2  0  0  0  0
  8  9  2  0  0  0  0
  8 12  1  0  0  0  0
  9 25  1  0  0  0  0
 10 29  1  0  0  0  0
 11 31  1  0  0  0  0
 12 34  1  0  0  0  0
 13 14  2  0  0  0  0
 13 15  1  0  0  0  0
 13 28  1  0  0  0  0
 14 26  1  0  0  0  0
 14 30  1  0  0  0  0
 15 16  2  0  0  0  0
 16 17  1  0  0  0  0
 17 18  2  0  0  0  0
 18 28  1  0  0  0  0
 19 21  1  0  0  0  0
 19 29  1  0  0  0  0
 19 32  2  0  0  0  0
 20 30  1  0  0  0  0
 20 31  1  0  0  0  0
 20 33  2  0  0  0  0
 21 22  1  0  0  0  0
 22 23  1  0  0  0  0
 23 24  1  0  0  0  0
 24 29  1  0  0  0  0
 25 31  1  0  0  0  0
 26 27  2  0  0  0  0
 27 28  1  0  0  0  0
  1 35  1  0  0  0  0
  2 36  1  0  0  0  0
  3 37  1  0  0  0  0
  4 38  1  0  0  0  0
  5 39  1  0  0  0  0
  6 40  1  0  0  0  0
  7 41  1  0  0  0  0
  8 42  1  0  0  0  0
 15 43  1  0  0  0  0
 16 44  1  0  0  0  0
 17 45  1  0  0  0  0
 18 46  1  0  0  0  0
 21 47  1  0  0  0  0
 21 48  1  0  0  0  0
 22 49  1  0  0  0  0
 22 50  1  0  0  0  0
 23 51  1  0  0  0  0
 23 52  1  0  0  0  0
 24 53  1  0  0  0  0
 24 54  1  0  0  0  0
 25 55  1  0  0  0  0
 25 56  1  0  0  0  0
 30 57  1  0  0  0  0
M  END
> <clash_score>
0

> <docking_score>
-7.4525957107543945

> <overlap_score>
0.9910287857055664

$$$$
BENZO_108_1
  -OEChem-08232013523D

 53 57  0     0  0  0  0  0  0999 V2000
    9.1890   -3.5540   24.0140 C   0  0  0  0  0  0  0  0  0  0  0  0
    7.8700   -2.0610   25.3550 C   0  0  0  0  0  0  0  0  0  0  0  0
    9.5890   -2.4950   23.2210 C   0  0  0  0  0  0  0  0  0  0  0  0
    8.2550   -1.0010   24.5520 C   0  0  0  0  0  0  0  0  0  0  0  0
   12.5722   -0.1093   24.8128 C   0  0  0  0  0  0  0  0  0  0  0  0
   13.7397   -0.8377   24.7507 C   0  0  0  0  0  0  0  0  0  0  0  0
   12.6664   -0.6230   22.5480 C   0  0  0  0  0  0  0  0  0  0  0  0
   11.9503    0.0150   23.5369 C   0  0  0  0  0  0  0  0  0  0  0  0
    8.3450   -3.3440   25.0980 C   0  0  0  0  0  0  0  0  0  0  0  0
    9.1280   -1.2090   23.4870 C   0  0  0  0  0  0  0  0  0  0  0  0
    6.1460    0.6070   19.9750 C   0  0  0  0  0  0  0  0  0  0  0  0
    7.2710   -0.1460   19.8310 C   0  0  0  0  0  0  0  0  0  0  0  0
    5.3890    1.0010   21.0690 C   0  0  0  0  0  0  0  0  0  0  0  0
    4.2460    1.7520   20.8250 C   0  0  0  0  0  0  0  0  0  0  0  0
    3.8860    2.1050   19.5250 C   0  0  0  0  0  0  0  0  0  0  0  0
    4.6610    1.7170   18.4380 C   0  0  0  0  0  0  0  0  0  0  0  0
    9.0430    0.2380   21.4940 C   0  0  0  0  0  0  0  0  0  0  0  0
    8.9524   -5.2012   26.6600 C   0  0  0  0  0  0  0  0  0  0  0  0
    6.6112   -4.5068   26.4379 C   0  0  0  0  0  0  0  0  0  0  0  0
    8.9037   -4.7845   28.1261 C   0  0  0  0  0  0  0  0  0  0  0  0
    6.6374   -4.1243   27.9184 C   0  0  0  0  0  0  0  0  0  0  0  0
   10.6659    0.7557   23.3001 C   0  0  0  0  0  0  0  0  0  0  0  0
    7.5840   -0.2700   18.5160 N   0  0  0  0  0  0  0  0  0  0  0  0
    6.7100    0.3850   17.8100 N   0  0  0  0  0  0  0  0  0  0  0  0
    5.7970    0.9500   18.6730 N   0  0  0  0  0  0  0  0  0  0  0  0
    7.9775   -4.4014   25.9151 N   0  0  0  0  0  0  0  0  0  0  0  0
    8.0950   -0.7700   20.8440 N   0  0  0  0  0  0  0  0  0  0  0  0
    9.5820   -0.1080   22.7000 N   0  0  0  0  0  0  0  0  0  0  0  0
    9.2950    1.3000   20.9480 O   0  0  0  0  0  0  0  0  0  0  0  0
    7.5729   -4.9391   28.6338 O   0  0  0  0  0  0  0  0  0  0  0  0
   14.0820   -1.3681   23.1589 S   0  0  0  0  0  0  0  0  0  0  0  0
    9.5426   -4.5618   23.7797 H   0  0  0  0  0  0  0  0  0  0  0  0
    7.1914   -1.8824   26.1903 H   0  0  0  0  0  0  0  0  0  0  0  0
   10.2669   -2.6745   22.3854 H   0  0  0  0  0  0  0  0  0  0  0  0
    7.8690   -0.0020   24.7587 H   0  0  0  0  0  0  0  0  0  0  0  0
   12.1864    0.3129   25.7322 H   0  0  0  0  0  0  0  0  0  0  0  0
   14.4083   -1.0833   25.5636 H   0  0  0  0  0  0  0  0  0  0  0  0
   12.4303   -0.6887   21.4949 H   0  0  0  0  0  0  0  0  0  0  0  0
    5.6529    0.7487   22.0767 H   0  0  0  0  0  0  0  0  0  0  0  0
    3.6388    2.0586   21.6675 H   0  0  0  0  0  0  0  0  0  0  0  0
    2.9822    2.6968   19.3330 H   0  0  0  0  0  0  0  0  0  0  0  0
    4.4111    1.9893   17.4360 H   0  0  0  0  0  0  0  0  0  0  0  0
    9.9615   -5.0500   26.2711 H   0  0  0  0  0  0  0  0  0  0  0  0
    8.6935   -6.2597   26.5720 H   0  0  0  0  0  0  0  0  0  0  0  0
    6.2628   -5.5350   26.3330 H   0  0  0  0  0  0  0  0  0  0  0  0
    5.9347   -3.8423   25.9023 H   0  0  0  0  0  0  0  0  0  0  0  0
    9.5597   -5.4275   28.7166 H   0  0  0  0  0  0  0  0  0  0  0  0
    9.2344   -3.7511   28.2636 H   0  0  0  0  0  0  0  0  0  0  0  0
    6.8874   -3.0657   28.0553 H   0  0  0  0  0  0  0  0  0  0  0  0
    5.6495   -4.2893   28.3591 H   0  0  0  0  0  0  0  0  0  0  0  0
   10.2856    1.1782   24.2366 H   0  0  0  0  0  0  0  0  0  0  0  0
   10.8149    1.5883   22.6046 H   0  0  0  0  0  0  0  0  0  0  0  0
    8.0897   -1.6082   21.0890 H   0  0  0  0  0  0  0  0  0  0  0  0
  1  3  2  0  0  0  0
  1  9  1  0  0  0  0
  2  4  1  0  0  0  0
  2  9  2  0  0  0  0
  3 10  1  0  0  0  0
  4 10  2  0  0  0  0
  5  6  2  0  0  0  0
  5  8  1  0  0  0  0
  6 31  1  0  0  0  0
  7  8  2  0  0  0  0
  7 31  1  0  0  0  0
  8 22  1  0  0  0  0
  9 26  1  0  0  0  0
 10 28  1  0  0  0  0
 11 12  2  0  0  0  0
 11 13  1  0  0  0  0
 11 25  1  0  0  0  0
 12 23  1  0  0  0  0
 12 27  1  0  0  0  0
 13 14  2  0  0  0  0
 14 15  1  0  0  0  0
 15 16  2  0  0  0  0
 16 25  1  0  0  0  0
 17 27  1  0  0  0  0
 17 28  1  0  0  0  0
 17 29  2  0  0  0  0
 18 20  1  0  0  0  0
 18 26  1  0  0  0  0
 19 21  1  0  0  0  0
 19 26  1  0  0  0  0
 20 30  1  0  0  0  0
 21 30  1  0  0  0  0
 22 28  1  0  0  0  0
 23 24  2  0  0  0  0
 24 25  1  0  0  0  0
  1 32  1  0  0  0  0
  2 33  1  0  0  0  0
  3 34  1  0  0  0  0
  4 35  1  0  0  0  0
  5 36  1  0  0  0  0
  6 37  1  0  0  0  0
  7 38  1  0  0  0  0
 13 39  1  0  0  0  0
 14 40  1  0  0  0  0
 15 41  1  0  0  0  0
 16 42  1  0  0  0  0
 18 43  1  0  0  0  0
 18 44  1  0  0  0  0
 19 45  1  0  0  0  0
 19 46  1  0  0  0  0
 20 47  1  0  0  0  0
 20 48  1  0  0  0  0
 21 49  1  0  0  0  0
 21 50  1  0  0  0  0
 22 51  1  0  0  0  0
 22 52  1  0  0  0  0
 27 53  1  0  0  0  0
M  END
> <clash_score>
0

> <docking_score>
-9.121618270874023

> <overlap_score>
0.9701467156410217

$$$$
BENZO_111_1
  -OEChem-08232013523D

 56 60  0     0  0  0  0  0  0999 V2000
    9.1890   -3.5540   24.0140 C   0  0  0  0  0  0  0  0  0  0  0  0
    7.8700   -2.0610   25.3550 C   0  0  0  0  0  0  0  0  0  0  0  0
    9.5890   -2.4950   23.2210 C   0  0  0  0  0  0  0  0  0  0  0  0
    8.2550   -1.0010   24.5520 C   0  0  0  0  0  0  0  0  0  0  0  0
   13.2516    0.9063   22.9518 C   0  0  0  0  0  0  0  0  0  0  0  0
   12.4136   -1.1249   23.0350 C   0  0  0  0  0  0  0  0  0  0  0  0
   12.0454    0.1966   23.1038 C   0  0  0  0  0  0  0  0  0  0  0  0
    8.3450   -3.3440   25.0980 C   0  0  0  0  0  0  0  0  0  0  0  0
    9.1280   -1.2090   23.4870 C   0  0  0  0  0  0  0  0  0  0  0  0
    6.1460    0.6070   19.9750 C   0  0  0  0  0  0  0  0  0  0  0  0
    7.2710   -0.1460   19.8310 C   0  0  0  0  0  0  0  0  0  0  0  0
    5.3890    1.0010   21.0690 C   0  0  0  0  0  0  0  0  0  0  0  0
    4.2460    1.7520   20.8250 C   0  0  0  0  0  0  0  0  0  0  0  0
    3.8860    2.1050   19.5250 C   0  0  0  0  0  0  0  0  0  0  0  0
    4.6610    1.7170   18.4380 C   0  0  0  0  0  0  0  0  0  0  0  0
    9.0430    0.2380   21.4940 C   0  0  0  0  0  0  0  0  0  0  0  0
    8.9524   -5.2012   26.6600 C   0  0  0  0  0  0  0  0  0  0  0  0
    6.6112   -4.5068   26.4379 C   0  0  0  0  0  0  0  0  0  0  0  0
    8.9037   -4.7845   28.1261 C   0  0  0  0  0  0  0  0  0  0  0  0
    6.6374   -4.1243   27.9184 C   0  0  0  0  0  0  0  0  0  0  0  0
   14.6105   -2.2888   22.7229 C   0  0  0  0  0  0  0  0  0  0  0  0
   10.6659    0.7557   23.3001 C   0  0  0  0  0  0  0  0  0  0  0  0
   14.3071    0.1024   22.7982 N   0  0  0  0  0  0  0  0  0  0  0  0
    7.5840   -0.2700   18.5160 N   0  0  0  0  0  0  0  0  0  0  0  0
    6.7100    0.3850   17.8100 N   0  0  0  0  0  0  0  0  0  0  0  0
   13.7653   -1.1262   22.8534 N   0  0  0  0  0  0  0  0  0  0  0  0
    5.7970    0.9500   18.6730 N   0  0  0  0  0  0  0  0  0  0  0  0
    7.9775   -4.4014   25.9151 N   0  0  0  0  0  0  0  0  0  0  0  0
    8.0950   -0.7700   20.8440 N   0  0  0  0  0  0  0  0  0  0  0  0
    9.5820   -0.1080   22.7000 N   0  0  0  0  0  0  0  0  0  0  0  0
    9.2950    1.3000   20.9480 O   0  0  0  0  0  0  0  0  0  0  0  0
    7.5729   -4.9391   28.6338 O   0  0  0  0  0  0  0  0  0  0  0  0
    9.5426   -4.5618   23.7797 H   0  0  0  0  0  0  0  0  0  0  0  0
    7.1914   -1.8824   26.1903 H   0  0  0  0  0  0  0  0  0  0  0  0
   10.2669   -2.6745   22.3854 H   0  0  0  0  0  0  0  0  0  0  0  0
    7.8690   -0.0020   24.7587 H   0  0  0  0  0  0  0  0  0  0  0  0
   13.4081    1.9758   22.9471 H   0  0  0  0  0  0  0  0  0  0  0  0
   11.8432   -2.0416   23.0995 H   0  0  0  0  0  0  0  0  0  0  0  0
    5.6529    0.7487   22.0767 H   0  0  0  0  0  0  0  0  0  0  0  0
    3.6388    2.0586   21.6675 H   0  0  0  0  0  0  0  0  0  0  0  0
    2.9822    2.6968   19.3330 H   0  0  0  0  0  0  0  0  0  0  0  0
    4.4111    1.9893   17.4360 H   0  0  0  0  0  0  0  0  0  0  0  0
    9.9615   -5.0500   26.2711 H   0  0  0  0  0  0  0  0  0  0  0  0
    8.6935   -6.2597   26.5720 H   0  0  0  0  0  0  0  0  0  0  0  0
    6.2628   -5.5350   26.3330 H   0  0  0  0  0  0  0  0  0  0  0  0
    5.9347   -3.8423   25.9023 H   0  0  0  0  0  0  0  0  0  0  0  0
    9.5597   -5.4275   28.7166 H   0  0  0  0  0  0  0  0  0  0  0  0
    9.2344   -3.7511   28.2636 H   0  0  0  0  0  0  0  0  0  0  0  0
    6.8874   -3.0657   28.0553 H   0  0  0  0  0  0  0  0  0  0  0  0
    5.6495   -4.2893   28.3591 H   0  0  0  0  0  0  0  0  0  0  0  0
   14.6696   -2.5455   21.6619 H   0  0  0  0  0  0  0  0  0  0  0  0
   15.6050   -2.0622   23.1173 H   0  0  0  0  0  0  0  0  0  0  0  0
   14.1787   -3.1155   23.2938 H   0  0  0  0  0  0  0  0  0  0  0  0
   10.4490    0.8829   24.3664 H   0  0  0  0  0  0  0  0  0  0  0  0
   10.5700    1.7396   22.8291 H   0  0  0  0  0  0  0  0  0  0  0  0
    8.0897   -1.6082   21.0890 H   0  0  0  0  0  0  0  0  0  0  0  0
  1  3  2  0  0  0  0
  1  8  1  0  0  0  0
  2  4  1  0  0  0  0
  2  8  2  0  0  0  0
  3  9  1  0  0  0  0
  4  9  2  0  0  0  0
  5  7  1  0  0  0  0
  5 23  2  0  0  0  0
  6  7  2  0  0  0  0
  6 26  1  0  0  0  0
  7 22  1  0  0  0  0
  8 28  1  0  0  0  0
  9 30  1  0  0  0  0
 10 11  2  0  0  0  0
 10 12  1  0  0  0  0
 10 27  1  0  0  0  0
 11 24  1  0  0  0  0
 11 29  1  0  0  0  0
 12 13  2  0  0  0  0
 13 14  1  0  0  0  0
 14 15  2  0  0  0  0
 15 27  1  0  0  0  0
 16 29  1  0  0  0  0
 16 30  1  0  0  0  0
 16 31  2  0  0  0  0
 17 19  1  0  0  0  0
 17 28  1  0  0  0  0
 18 20  1  0  0  0  0
 18 28  1  0  0  0  0
 19 32  1  0  0  0  0
 20 32  1  0  0  0  0
 21 26  1  0  0  0  0
 22 30  1  0  0  0  0
 23 26  1  0  0  0  0
 24 25  2  0  0  0  0
 25 27  1  0  0  0  0
  1 33  1  0  0  0  0
  2 34  1  0  0  0  0
  3 35  1  0  0  0  0
  4 36  1  0  0  0  0
  5 37  1  0  0  0  0
  6 38  1  0  0  0  0
 12 39  1  0  0  0  0
 13 40  1  0  0  0  0
 14 41  1  0  0  0  0
 15 42  1  0  0  0  0
 17 43  1  0  0  0  0
 17 44  1  0  0  0  0
 18 45  1  0  0  0  0
 18 46  1  0  0  0  0
 19 47  1  0  0  0  0
 19 48  1  0  0  0  0
 20 49  1  0  0  0  0
 20 50  1  0  0  0  0
 21 51  1  0  0  0  0
 21 52  1  0  0  0  0
 21 53  1  0  0  0  0
 22 54  1  0  0  0  0
 22 55  1  0  0  0  0
 29 56  1  0  0  0  0
M  END
> <clash_score>
0

> <docking_score>
-9.764741897583008

> <overlap_score>
0.968580424785614

$$$$
BENZO_110_1
  -OEChem-08232013523D

 56 60  0     0  0  0  0  0  0999 V2000
   13.6798   -0.7442   25.0433 C   0  0  0  0  0  0  0  0  0  0  0  0
   12.4873   -0.0553   24.8224 C   0  0  0  0  0  0  0  0  0  0  0  0
    9.1890   -3.5540   24.0140 C   0  0  0  0  0  0  0  0  0  0  0  0
    7.8700   -2.0610   25.3550 C   0  0  0  0  0  0  0  0  0  0  0  0
    9.5890   -2.4950   23.2210 C   0  0  0  0  0  0  0  0  0  0  0  0
    8.2550   -1.0010   24.5520 C   0  0  0  0  0  0  0  0  0  0  0  0
   14.3355   -1.3627   23.9787 C   0  0  0  0  0  0  0  0  0  0  0  0
   12.6059   -0.6035   22.4724 C   0  0  0  0  0  0  0  0  0  0  0  0
   11.9503    0.0150   23.5369 C   0  0  0  0  0  0  0  0  0  0  0  0
    8.3450   -3.3440   25.0980 C   0  0  0  0  0  0  0  0  0  0  0  0
    9.1280   -1.2090   23.4870 C   0  0  0  0  0  0  0  0  0  0  0  0
   13.7985   -1.2924   22.6933 C   0  0  0  0  0  0  0  0  0  0  0  0
    6.1460    0.6070   19.9750 C   0  0  0  0  0  0  0  0  0  0  0  0
    7.2710   -0.1460   19.8310 C   0  0  0  0  0  0  0  0  0  0  0  0
    5.3890    1.0010   21.0690 C   0  0  0  0  0  0  0  0  0  0  0  0
    4.2460    1.7520   20.8250 C   0  0  0  0  0  0  0  0  0  0  0  0
    3.8860    2.1050   19.5250 C   0  0  0  0  0  0  0  0  0  0  0  0
    4.6610    1.7170   18.4380 C   0  0  0  0  0  0  0  0  0  0  0  0
    9.0430    0.2380   21.4940 C   0  0  0  0  0  0  0  0  0  0  0  0
    8.9524   -5.2012   26.6600 C   0  0  0  0  0  0  0  0  0  0  0  0
    6.6112   -4.5068   26.4379 C   0  0  0  0  0  0  0  0  0  0  0  0
    8.9037   -4.7845   28.1261 C   0  0  0  0  0  0  0  0  0  0  0  0
    6.6374   -4.1243   27.9184 C   0  0  0  0  0  0  0  0  0  0  0  0
   10.6659    0.7557   23.3001 C   0  0  0  0  0  0  0  0  0  0  0  0
    7.5840   -0.2700   18.5160 N   0  0  0  0  0  0  0  0  0  0  0  0
    6.7100    0.3850   17.8100 N   0  0  0  0  0  0  0  0  0  0  0  0
    5.7970    0.9500   18.6730 N   0  0  0  0  0  0  0  0  0  0  0  0
    7.9775   -4.4014   25.9151 N   0  0  0  0  0  0  0  0  0  0  0  0
    8.0950   -0.7700   20.8440 N   0  0  0  0  0  0  0  0  0  0  0  0
    9.5820   -0.1080   22.7000 N   0  0  0  0  0  0  0  0  0  0  0  0
    9.2950    1.3000   20.9480 O   0  0  0  0  0  0  0  0  0  0  0  0
    7.5729   -4.9391   28.6338 O   0  0  0  0  0  0  0  0  0  0  0  0
   14.6072   -2.0568   21.3804 Cl  0  0  0  0  0  0  0  0  0  0  0  0
   14.0976   -0.7988   26.0444 H   0  0  0  0  0  0  0  0  0  0  0  0
   11.9832    0.4236   25.6578 H   0  0  0  0  0  0  0  0  0  0  0  0
    9.5426   -4.5618   23.7797 H   0  0  0  0  0  0  0  0  0  0  0  0
    7.1914   -1.8824   26.1903 H   0  0  0  0  0  0  0  0  0  0  0  0
   10.2669   -2.6745   22.3854 H   0  0  0  0  0  0  0  0  0  0  0  0
    7.8690   -0.0020   24.7587 H   0  0  0  0  0  0  0  0  0  0  0  0
   15.2640   -1.8964   24.1657 H   0  0  0  0  0  0  0  0  0  0  0  0
   12.1833   -0.5454   21.4719 H   0  0  0  0  0  0  0  0  0  0  0  0
    5.6529    0.7487   22.0767 H   0  0  0  0  0  0  0  0  0  0  0  0
    3.6388    2.0586   21.6675 H   0  0  0  0  0  0  0  0  0  0  0  0
    2.9822    2.6968   19.3330 H   0  0  0  0  0  0  0  0  0  0  0  0
    4.4111    1.9893   17.4360 H   0  0  0  0  0  0  0  0  0  0  0  0
    9.9615   -5.0500   26.2711 H   0  0  0  0  0  0  0  0  0  0  0  0
    8.6935   -6.2597   26.5720 H   0  0  0  0  0  0  0  0  0  0  0  0
    6.2628   -5.5350   26.3330 H   0  0  0  0  0  0  0  0  0  0  0  0
    5.9347   -3.8423   25.9023 H   0  0  0  0  0  0  0  0  0  0  0  0
    9.5597   -5.4275   28.7166 H   0  0  0  0  0  0  0  0  0  0  0  0
    9.2344   -3.7511   28.2636 H   0  0  0  0  0  0  0  0  0  0  0  0
    6.8874   -3.0657   28.0553 H   0  0  0  0  0  0  0  0  0  0  0  0
    5.6495   -4.2893   28.3591 H   0  0  0  0  0  0  0  0  0  0  0  0
   10.2856    1.1782   24.2366 H   0  0  0  0  0  0  0  0  0  0  0  0
   10.8149    1.5883   22.6046 H   0  0  0  0  0  0  0  0  0  0  0  0
    8.0897   -1.6082   21.0890 H   0  0  0  0  0  0  0  0  0  0  0  0
  1  2  2  0  0  0  0
  1  7  1  0  0  0  0
  2  9  1  0  0  0  0
  3  5  2  0  0  0  0
  3 10  1  0  0  0  0
  4  6  1  0  0  0  0
  4 10  2  0  0  0  0
  5 11  1  0  0  0  0
  6 11  2  0  0  0  0
  7 12  2  0  0  0  0
  8  9  2  0  0  0  0
  8 12  1  0  0  0  0
  9 24  1  0  0  0  0
 10 28  1  0  0  0  0
 11 30  1  0  0  0  0
 12 33  1  0  0  0  0
 13 14  2  0  0  0  0
 13 15  1  0  0  0  0
 13 27  1  0  0  0  0
 14 25  1  0  0  0  0
 14 29  1  0  0  0  0
 15 16  2  0  0  0  0
 16 17  1  0  0  0  0
 17 18  2  0  0  0  0
 18 27  1  0  0  0  0
 19 29  1  0  0  0  0
 19 30  1  0  0  0  0
 19 31  2  0  0  0  0
 20 22  1  0  0  0  0
 20 28  1  0  0  0  0
 21 23  1  0  0  0  0
 21 28  1  0  0  0  0
 22 32  1  0  0  0  0
 23 32  1  0  0  0  0
 24 30  1  0  0  0  0
 25 26  2  0  0  0  0
 26 27  1  0  0  0  0
  1 34  1  0  0  0  0
  2 35  1  0  0  0  0
  3 36  1  0  0  0  0
  4 37  1  0  0  0  0
  5 38  1  0  0  0  0
  6 39  1  0  0  0  0
  7 40  1  0  0  0  0
  8 41  1  0  0  0  0
 15 42  1  0  0  0  0
 16 43  1  0  0  0  0
 17 44  1  0  0  0  0
 18 45  1  0  0  0  0
 20 46  1  0  0  0  0
 20 47  1  0  0  0  0
 21 48  1  0  0  0  0
 21 49  1  0  0  0  0
 22 50  1  0  0  0  0
 22 51  1  0  0  0  0
 23 52  1  0  0  0  0
 23 53  1  0  0  0  0
 24 54  1  0  0  0  0
 24 55  1  0  0  0  0
 29 56  1  0  0  0  0
M  END
> <clash_score>
0

> <docking_score>
-8.570364952087402

> <overlap_score>
0.9944659471511841

$$$$
BENZO_113_1
  -OEChem-08232013523D

 53 56  0     0  0  0  0  0  0999 V2000
   14.2627   -1.4843   24.0360 C   0  0  0  0  0  0  0  0  0  0  0  0
    4.2460    1.7520   20.8250 C   0  0  0  0  0  0  0  0  0  0  0  0
   13.9267   -0.4138   24.8647 C   0  0  0  0  0  0  0  0  0  0  0  0
   13.4277   -1.8334   22.9745 C   0  0  0  0  0  0  0  0  0  0  0  0
    3.8860    2.1050   19.5250 C   0  0  0  0  0  0  0  0  0  0  0  0
    5.3890    1.0010   21.0690 C   0  0  0  0  0  0  0  0  0  0  0  0
   12.7558    0.3076   24.6320 C   0  0  0  0  0  0  0  0  0  0  0  0
   12.2568   -1.1120   22.7418 C   0  0  0  0  0  0  0  0  0  0  0  0
    4.6610    1.7170   18.4380 C   0  0  0  0  0  0  0  0  0  0  0  0
    9.5890   -2.4950   23.2210 C   0  0  0  0  0  0  0  0  0  0  0  0
    8.2550   -1.0010   24.5520 C   0  0  0  0  0  0  0  0  0  0  0  0
    9.1890   -3.5540   24.0140 C   0  0  0  0  0  0  0  0  0  0  0  0
    7.8700   -2.0610   25.3550 C   0  0  0  0  0  0  0  0  0  0  0  0
    7.5840   -0.2700   18.5160 C   0  0  0  0  0  0  0  0  0  0  0  0
    6.1460    0.6070   19.9750 C   0  0  0  0  0  0  0  0  0  0  0  0
   11.9208   -0.0415   23.5705 C   0  0  0  0  0  0  0  0  0  0  0  0
    5.7970    0.9500   18.6730 C   0  0  0  0  0  0  0  0  0  0  0  0
    9.1280   -1.2090   23.4870 C   0  0  0  0  0  0  0  0  0  0  0  0
    8.3450   -3.3440   25.0980 C   0  0  0  0  0  0  0  0  0  0  0  0
    7.2710   -0.1460   19.8310 C   0  0  0  0  0  0  0  0  0  0  0  0
    9.0430    0.2380   21.4940 C   0  0  0  0  0  0  0  0  0  0  0  0
    7.2639   -5.5571   25.3799 C   0  0  0  0  0  0  0  0  0  0  0  0
    8.3059   -4.4054   27.3386 C   0  0  0  0  0  0  0  0  0  0  0  0
   10.6602    0.7344   23.3196 C   0  0  0  0  0  0  0  0  0  0  0  0
    6.7100    0.3850   17.8100 N   0  0  0  0  0  0  0  0  0  0  0  0
    8.0950   -0.7700   20.8440 N   0  0  0  0  0  0  0  0  0  0  0  0
    9.5820   -0.1080   22.7000 N   0  0  0  0  0  0  0  0  0  0  0  0
    7.9731   -4.4180   25.9279 N   0  0  0  0  0  0  0  0  0  0  0  0
    9.2950    1.3000   20.9480 O   0  0  0  0  0  0  0  0  0  0  0  0
   15.1751   -2.0451   24.2165 H   0  0  0  0  0  0  0  0  0  0  0  0
    3.6208    2.0704   21.6579 H   0  0  0  0  0  0  0  0  0  0  0  0
   14.5773   -0.1411   25.6906 H   0  0  0  0  0  0  0  0  0  0  0  0
   13.6895   -2.6661   22.3285 H   0  0  0  0  0  0  0  0  0  0  0  0
    2.9857    2.6926   19.3615 H   0  0  0  0  0  0  0  0  0  0  0  0
    5.6664    0.7407   22.0807 H   0  0  0  0  0  0  0  0  0  0  0  0
   12.5019    1.1401   25.2829 H   0  0  0  0  0  0  0  0  0  0  0  0
   11.6123   -1.3913   21.9125 H   0  0  0  0  0  0  0  0  0  0  0  0
    4.3794    2.0106   17.4221 H   0  0  0  0  0  0  0  0  0  0  0  0
   10.2682   -2.6746   22.3864 H   0  0  0  0  0  0  0  0  0  0  0  0
    7.8692   -0.0022   24.7600 H   0  0  0  0  0  0  0  0  0  0  0  0
    9.5433   -4.5619   23.7809 H   0  0  0  0  0  0  0  0  0  0  0  0
    7.1923   -1.8829   26.1908 H   0  0  0  0  0  0  0  0  0  0  0  0
    8.4172   -0.8135   18.0384 H   0  0  0  0  0  0  0  0  0  0  0  0
    7.0637   -6.2847   26.1802 H   0  0  0  0  0  0  0  0  0  0  0  0
    6.3117   -5.2208   24.9437 H   0  0  0  0  0  0  0  0  0  0  0  0
    7.8779   -6.0303   24.5995 H   0  0  0  0  0  0  0  0  0  0  0  0
    7.9320   -5.3250   27.8123 H   0  0  0  0  0  0  0  0  0  0  0  0
    9.3981   -4.3499   27.4570 H   0  0  0  0  0  0  0  0  0  0  0  0
    7.8403   -3.5311   27.8172 H   0  0  0  0  0  0  0  0  0  0  0  0
   10.2659    1.1437   24.2561 H   0  0  0  0  0  0  0  0  0  0  0  0
   10.8458    1.5792   22.6481 H   0  0  0  0  0  0  0  0  0  0  0  0
    6.6715    0.4865   16.8044 H   0  0  0  0  0  0  0  0  0  0  0  0
    8.0705   -1.6178   21.0726 H   0  0  0  0  0  0  0  0  0  0  0  0
  1  3  1  0  0  0  0
  1  4  2  0  0  0  0
  2  5  1  0  0  0  0
  2  6  2  0  0  0  0
  3  7  2  0  0  0  0
  4  8  1  0  0  0  0
  5  9  2  0  0  0  0
  6 15  1  0  0  0  0
  7 16  1  0  0  0  0
  8 16  2  0  0  0  0
  9 17  1  0  0  0  0
 10 12  2  0  0  0  0
 10 18  1  0  0  0  0
 11 13  1  0  0  0  0
 11 18  2  0  0  0  0
 12 19  1  0  0  0  0
 13 19  2  0  0  0  0
 14 20  2  0  0  0  0
 14 25  1  0  0  0  0
 15 17  2  0  0  0  0
 15 20  1  0  0  0  0
 16 24  1  0  0  0  0
 17 25  1  0  0  0  0
 18 27  1  0  0  0  0
 19 28  1  0  0  0  0
 20 26  1  0  0  0  0
 21 26  1  0  0  0  0
 21 27  1  0  0  0  0
 21 29  2  0  0  0  0
 22 28  1  0  0  0  0
 23 28  1  0  0  0  0
 24 27  1  0  0  0  0
  1 30  1  0  0  0  0
  2 31  1  0  0  0  0
  3 32  1  0  0  0  0
  4 33  1  0  0  0  0
  5 34  1  0  0  0  0
  6 35  1  0  0  0  0
  7 36  1  0  0  0  0
  8 37  1  0  0  0  0
  9 38  1  0  0  0  0
 10 39  1  0  0  0  0
 11 40  1  0  0  0  0
 12 41  1  0  0  0  0
 13 42  1  0  0  0  0
 14 43  1  0  0  0  0
 22 44  1  0  0  0  0
 22 45  1  0  0  0  0
 22 46  1  0  0  0  0
 23 47  1  0  0  0  0
 23 48  1  0  0  0  0
 23 49  1  0  0  0  0
 24 50  1  0  0  0  0
 24 51  1  0  0  0  0
 25 52  1  0  0  0  0
 26 53  1  0  0  0  0
M  END
> <clash_score>
0

> <docking_score>
-8.17304801940918

> <overlap_score>
0.9376341104507446

$$$$
BENZO_112_1
  -OEChem-08232013523D

 50 53  0     0  0  0  0  0  0999 V2000
    4.2460    1.7520   20.8250 C   0  0  0  0  0  0  0  0  0  0  0  0
    3.8860    2.1050   19.5250 C   0  0  0  0  0  0  0  0  0  0  0  0
    5.3890    1.0010   21.0690 C   0  0  0  0  0  0  0  0  0  0  0  0
    4.6610    1.7170   18.4380 C   0  0  0  0  0  0  0  0  0  0  0  0
    9.5890   -2.4950   23.2210 C   0  0  0  0  0  0  0  0  0  0  0  0
    8.2550   -1.0010   24.5520 C   0  0  0  0  0  0  0  0  0  0  0  0
    9.1890   -3.5540   24.0140 C   0  0  0  0  0  0  0  0  0  0  0  0
    7.8700   -2.0610   25.3550 C   0  0  0  0  0  0  0  0  0  0  0  0
   12.5071   -0.2100   24.8582 C   0  0  0  0  0  0  0  0  0  0  0  0
    7.5840   -0.2700   18.5160 C   0  0  0  0  0  0  0  0  0  0  0  0
   13.6588   -0.9640   24.8077 C   0  0  0  0  0  0  0  0  0  0  0  0
   12.6470   -0.6730   22.5848 C   0  0  0  0  0  0  0  0  0  0  0  0
    6.1460    0.6070   19.9750 C   0  0  0  0  0  0  0  0  0  0  0  0
   11.9208   -0.0415   23.5705 C   0  0  0  0  0  0  0  0  0  0  0  0
    5.7970    0.9500   18.6730 C   0  0  0  0  0  0  0  0  0  0  0  0
    9.1280   -1.2090   23.4870 C   0  0  0  0  0  0  0  0  0  0  0  0
    8.3450   -3.3440   25.0980 C   0  0  0  0  0  0  0  0  0  0  0  0
    7.2710   -0.1460   19.8310 C   0  0  0  0  0  0  0  0  0  0  0  0
    9.0430    0.2380   21.4940 C   0  0  0  0  0  0  0  0  0  0  0  0
    7.2639   -5.5571   25.3799 C   0  0  0  0  0  0  0  0  0  0  0  0
    8.3059   -4.4054   27.3386 C   0  0  0  0  0  0  0  0  0  0  0  0
   10.6602    0.7344   23.3196 C   0  0  0  0  0  0  0  0  0  0  0  0
    6.7100    0.3850   17.8100 N   0  0  0  0  0  0  0  0  0  0  0  0
    8.0950   -0.7700   20.8440 N   0  0  0  0  0  0  0  0  0  0  0  0
    9.5820   -0.1080   22.7000 N   0  0  0  0  0  0  0  0  0  0  0  0
    7.9731   -4.4180   25.9279 N   0  0  0  0  0  0  0  0  0  0  0  0
    9.2950    1.3000   20.9480 O   0  0  0  0  0  0  0  0  0  0  0  0
   14.0293   -1.4651   23.2127 S   0  0  0  0  0  0  0  0  0  0  0  0
    3.6208    2.0704   21.6579 H   0  0  0  0  0  0  0  0  0  0  0  0
    2.9857    2.6926   19.3615 H   0  0  0  0  0  0  0  0  0  0  0  0
    5.6664    0.7407   22.0807 H   0  0  0  0  0  0  0  0  0  0  0  0
    4.3794    2.0106   17.4221 H   0  0  0  0  0  0  0  0  0  0  0  0
   10.2682   -2.6746   22.3864 H   0  0  0  0  0  0  0  0  0  0  0  0
    7.8692   -0.0022   24.7600 H   0  0  0  0  0  0  0  0  0  0  0  0
    9.5433   -4.5619   23.7809 H   0  0  0  0  0  0  0  0  0  0  0  0
    7.1923   -1.8829   26.1908 H   0  0  0  0  0  0  0  0  0  0  0  0
   12.1079    0.1996   25.7774 H   0  0  0  0  0  0  0  0  0  0  0  0
    8.4172   -0.8135   18.0384 H   0  0  0  0  0  0  0  0  0  0  0  0
   14.3009   -1.2440   25.6308 H   0  0  0  0  0  0  0  0  0  0  0  0
   12.4363   -0.7086   21.5249 H   0  0  0  0  0  0  0  0  0  0  0  0
    7.0637   -6.2847   26.1802 H   0  0  0  0  0  0  0  0  0  0  0  0
    6.3117   -5.2208   24.9437 H   0  0  0  0  0  0  0  0  0  0  0  0
    7.8779   -6.0303   24.5995 H   0  0  0  0  0  0  0  0  0  0  0  0
    7.9320   -5.3250   27.8123 H   0  0  0  0  0  0  0  0  0  0  0  0
    9.3981   -4.3499   27.4570 H   0  0  0  0  0  0  0  0  0  0  0  0
    7.8403   -3.5311   27.8172 H   0  0  0  0  0  0  0  0  0  0  0  0
   10.2659    1.1437   24.2561 H   0  0  0  0  0  0  0  0  0  0  0  0
   10.8458    1.5792   22.6481 H   0  0  0  0  0  0  0  0  0  0  0  0
    6.6715    0.4865   16.8044 H   0  0  0  0  0  0  0  0  0  0  0  0
    8.0705   -1.6178   21.0726 H   0  0  0  0  0  0  0  0  0  0  0  0
  1  2  1  0  0  0  0
  1  3  2  0  0  0  0
  2  4  2  0  0  0  0
  3 13  1  0  0  0  0
  4 15  1  0  0  0  0
  5  7  2  0  0  0  0
  5 16  1  0  0  0  0
  6  8  1  0  0  0  0
  6 16  2  0  0  0  0
  7 17  1  0  0  0  0
  8 17  2  0  0  0  0
  9 11  2  0  0  0  0
  9 14  1  0  0  0  0
 10 18  2  0  0  0  0
 10 23  1  0  0  0  0
 11 28  1  0  0  0  0
 12 14  2  0  0  0  0
 12 28  1  0  0  0  0
 13 15  2  0  0  0  0
 13 18  1  0  0  0  0
 14 22  1  0  0  0  0
 15 23  1  0  0  0  0
 16 25  1  0  0  0  0
 17 26  1  0  0  0  0
 18 24  1  0  0  0  0
 19 24  1  0  0  0  0
 19 25  1  0  0  0  0
 19 27  2  0  0  0  0
 20 26  1  0  0  0  0
 21 26  1  0  0  0  0
 22 25  1  0  0  0  0
  1 29  1  0  0  0  0
  2 30  1  0  0  0  0
  3 31  1  0  0  0  0
  4 32  1  0  0  0  0
  5 33  1  0  0  0  0
  6 34  1  0  0  0  0
  7 35  1  0  0  0  0
  8 36  1  0  0  0  0
  9 37  1  0  0  0  0
 10 38  1  0  0  0  0
 11 39  1  0  0  0  0
 12 40  1  0  0  0  0
 20 41  1  0  0  0  0
 20 42  1  0  0  0  0
 20 43  1  0  0  0  0
 21 44  1  0  0  0  0
 21 45  1  0  0  0  0
 21 46  1  0  0  0  0
 22 47  1  0  0  0  0
 22 48  1  0  0  0  0
 23 49  1  0  0  0  0
 24 50  1  0  0  0  0
M  END
> <clash_score>
0

> <docking_score>
-8.007708549499512

> <overlap_score>
0.922418475151062

$$$$
BENZO_115_1
  -OEChem-08232013523D

 53 56  0     0  0  0  0  0  0999 V2000
    4.2460    1.7520   20.8250 C   0  0  0  0  0  0  0  0  0  0  0  0
    3.8860    2.1050   19.5250 C   0  0  0  0  0  0  0  0  0  0  0  0
    5.3890    1.0010   21.0690 C   0  0  0  0  0  0  0  0  0  0  0  0
    4.6610    1.7170   18.4380 C   0  0  0  0  0  0  0  0  0  0  0  0
    9.5890   -2.4950   23.2210 C   0  0  0  0  0  0  0  0  0  0  0  0
    8.2550   -1.0010   24.5520 C   0  0  0  0  0  0  0  0  0  0  0  0
    9.1890   -3.5540   24.0140 C   0  0  0  0  0  0  0  0  0  0  0  0
    7.8700   -2.0610   25.3550 C   0  0  0  0  0  0  0  0  0  0  0  0
   13.2160    0.4884   23.8066 C   0  0  0  0  0  0  0  0  0  0  0  0
   12.3975   -0.8664   22.2803 C   0  0  0  0  0  0  0  0  0  0  0  0
    7.5840   -0.2700   18.5160 C   0  0  0  0  0  0  0  0  0  0  0  0
    6.1460    0.6070   19.9750 C   0  0  0  0  0  0  0  0  0  0  0  0
   12.0272    0.1409   23.1374 C   0  0  0  0  0  0  0  0  0  0  0  0
    5.7970    0.9500   18.6730 C   0  0  0  0  0  0  0  0  0  0  0  0
    9.1280   -1.2090   23.4870 C   0  0  0  0  0  0  0  0  0  0  0  0
    8.3450   -3.3440   25.0980 C   0  0  0  0  0  0  0  0  0  0  0  0
    7.2710   -0.1460   19.8310 C   0  0  0  0  0  0  0  0  0  0  0  0
    9.0430    0.2380   21.4940 C   0  0  0  0  0  0  0  0  0  0  0  0
   14.5745   -2.0123   21.8044 C   0  0  0  0  0  0  0  0  0  0  0  0
    7.2639   -5.5571   25.3799 C   0  0  0  0  0  0  0  0  0  0  0  0
    8.3059   -4.4054   27.3386 C   0  0  0  0  0  0  0  0  0  0  0  0
   10.6602    0.7344   23.3196 C   0  0  0  0  0  0  0  0  0  0  0  0
   14.2631   -0.2392   23.4090 N   0  0  0  0  0  0  0  0  0  0  0  0
    6.7100    0.3850   17.8100 N   0  0  0  0  0  0  0  0  0  0  0  0
   13.7335   -1.0540   22.4807 N   0  0  0  0  0  0  0  0  0  0  0  0
    8.0950   -0.7700   20.8440 N   0  0  0  0  0  0  0  0  0  0  0  0
    9.5820   -0.1080   22.7000 N   0  0  0  0  0  0  0  0  0  0  0  0
    7.9731   -4.4180   25.9279 N   0  0  0  0  0  0  0  0  0  0  0  0
    9.2950    1.3000   20.9480 O   0  0  0  0  0  0  0  0  0  0  0  0
    3.6208    2.0704   21.6579 H   0  0  0  0  0  0  0  0  0  0  0  0
    2.9857    2.6926   19.3615 H   0  0  0  0  0  0  0  0  0  0  0  0
    5.6664    0.7407   22.0807 H   0  0  0  0  0  0  0  0  0  0  0  0
    4.3794    2.0106   17.4221 H   0  0  0  0  0  0  0  0  0  0  0  0
   10.2682   -2.6746   22.3864 H   0  0  0  0  0  0  0  0  0  0  0  0
    7.8692   -0.0022   24.7600 H   0  0  0  0  0  0  0  0  0  0  0  0
    9.5433   -4.5619   23.7809 H   0  0  0  0  0  0  0  0  0  0  0  0
    7.1923   -1.8829   26.1908 H   0  0  0  0  0  0  0  0  0  0  0  0
   13.3652    1.2405   24.5684 H   0  0  0  0  0  0  0  0  0  0  0  0
   11.8378   -1.4521   21.5637 H   0  0  0  0  0  0  0  0  0  0  0  0
    8.4172   -0.8135   18.0384 H   0  0  0  0  0  0  0  0  0  0  0  0
   14.9803   -1.5328   20.9098 H   0  0  0  0  0  0  0  0  0  0  0  0
   15.3831   -2.3224   22.4722 H   0  0  0  0  0  0  0  0  0  0  0  0
   13.9785   -2.8882   21.5331 H   0  0  0  0  0  0  0  0  0  0  0  0
    7.0637   -6.2847   26.1802 H   0  0  0  0  0  0  0  0  0  0  0  0
    6.3117   -5.2208   24.9437 H   0  0  0  0  0  0  0  0  0  0  0  0
    7.8779   -6.0303   24.5995 H   0  0  0  0  0  0  0  0  0  0  0  0
    7.9320   -5.3250   27.8123 H   0  0  0  0  0  0  0  0  0  0  0  0
    9.3981   -4.3499   27.4570 H   0  0  0  0  0  0  0  0  0  0  0  0
    7.8403   -3.5311   27.8172 H   0  0  0  0  0  0  0  0  0  0  0  0
   10.4260    0.8448   24.3841 H   0  0  0  0  0  0  0  0  0  0  0  0
   10.6008    1.7305   22.8686 H   0  0  0  0  0  0  0  0  0  0  0  0
    6.6715    0.4865   16.8044 H   0  0  0  0  0  0  0  0  0  0  0  0
    8.0705   -1.6178   21.0726 H   0  0  0  0  0  0  0  0  0  0  0  0
  1  2  1  0  0  0  0
  1  3  2  0  0  0  0
  2  4  2  0  0  0  0
  3 12  1  0  0  0  0
  4 14  1  0  0  0  0
  5  7  2  0  0  0  0
  5 15  1  0  0  0  0
  6  8  1  0  0  0  0
  6 15  2  0  0  0  0
  7 16  1  0  0  0  0
  8 16  2  0  0  0  0
  9 13  1  0  0  0  0
  9 23  2  0  0  0  0
 10 13  2  0  0  0  0
 10 25  1  0  0  0  0
 11 17  2  0  0  0  0
 11 24  1  0  0  0  0
 12 14  2  0  0  0  0
 12 17  1  0  0  0  0
 13 22  1  0  0  0  0
 14 24  1  0  0  0  0
 15 27  1  0  0  0  0
 16 28  1  0  0  0  0
 17 26  1  0  0  0  0
 18 26  1  0  0  0  0
 18 27  1  0  0  0  0
 18 29  2  0  0  0  0
 19 25  1  0  0  0  0
 20 28  1  0  0  0  0
 21 28  1  0  0  0  0
 22 27  1  0  0  0  0
 23 25  1  0  0  0  0
  1 30  1  0  0  0  0
  2 31  1  0  0  0  0
  3 32  1  0  0  0  0
  4 33  1  0  0  0  0
  5 34  1  0  0  0  0
  6 35  1  0  0  0  0
  7 36  1  0  0  0  0
  8 37  1  0  0  0  0
  9 38  1  0  0  0  0
 10 39  1  0  0  0  0
 11 40  1  0  0  0  0
 19 41  1  0  0  0  0
 19 42  1  0  0  0  0
 19 43  1  0  0  0  0
 20 44  1  0  0  0  0
 20 45  1  0  0  0  0
 20 46  1  0  0  0  0
 21 47  1  0  0  0  0
 21 48  1  0  0  0  0
 21 49  1  0  0  0  0
 22 50  1  0  0  0  0
 22 51  1  0  0  0  0
 24 52  1  0  0  0  0
 26 53  1  0  0  0  0
M  END
> <clash_score>
0

> <docking_score>
-8.412025451660156

> <overlap_score>
0.9312571883201599

$$$$
BENZO_117_1
  -OEChem-08232013523D

 55 58  0     0  0  0  0  0  0999 V2000
   14.2627   -1.4843   24.0360 C   0  0  0  0  0  0  0  0  0  0  0  0
    4.2460    1.7520   20.8250 C   0  0  0  0  0  0  0  0  0  0  0  0
   13.9267   -0.4138   24.8647 C   0  0  0  0  0  0  0  0  0  0  0  0
   13.4277   -1.8334   22.9745 C   0  0  0  0  0  0  0  0  0  0  0  0
    3.8860    2.1050   19.5250 C   0  0  0  0  0  0  0  0  0  0  0  0
    5.3890    1.0010   21.0690 C   0  0  0  0  0  0  0  0  0  0  0  0
   12.7558    0.3076   24.6320 C   0  0  0  0  0  0  0  0  0  0  0  0
   12.2568   -1.1120   22.7418 C   0  0  0  0  0  0  0  0  0  0  0  0
    4.6610    1.7170   18.4380 C   0  0  0  0  0  0  0  0  0  0  0  0
    9.1890   -3.5540   24.0140 C   0  0  0  0  0  0  0  0  0  0  0  0
    7.8700   -2.0610   25.3550 C   0  0  0  0  0  0  0  0  0  0  0  0
    9.5890   -2.4950   23.2210 C   0  0  0  0  0  0  0  0  0  0  0  0
    8.2550   -1.0010   24.5520 C   0  0  0  0  0  0  0  0  0  0  0  0
    7.5840   -0.2700   18.5160 C   0  0  0  0  0  0  0  0  0  0  0  0
    6.1460    0.6070   19.9750 C   0  0  0  0  0  0  0  0  0  0  0  0
   11.9208   -0.0415   23.5705 C   0  0  0  0  0  0  0  0  0  0  0  0
    5.7970    0.9500   18.6730 C   0  0  0  0  0  0  0  0  0  0  0  0
    8.3450   -3.3440   25.0980 C   0  0  0  0  0  0  0  0  0  0  0  0
    9.1280   -1.2090   23.4870 C   0  0  0  0  0  0  0  0  0  0  0  0
    7.2710   -0.1460   19.8310 C   0  0  0  0  0  0  0  0  0  0  0  0
    7.6593   -4.3764   27.2872 C   0  0  0  0  0  0  0  0  0  0  0  0
    9.0430    0.2380   21.4940 C   0  0  0  0  0  0  0  0  0  0  0  0
    8.4366   -6.7642   27.6028 C   0  0  0  0  0  0  0  0  0  0  0  0
   10.6602    0.7344   23.3196 C   0  0  0  0  0  0  0  0  0  0  0  0
    7.3104   -5.7655   27.8005 C   0  0  0  0  0  0  0  0  0  0  0  0
    6.7100    0.3850   17.8100 N   0  0  0  0  0  0  0  0  0  0  0  0
    7.9771   -4.4058   25.9196 N   0  0  0  0  0  0  0  0  0  0  0  0
    8.0950   -0.7700   20.8440 N   0  0  0  0  0  0  0  0  0  0  0  0
    9.5820   -0.1080   22.7000 N   0  0  0  0  0  0  0  0  0  0  0  0
    7.6480   -3.3911   28.0176 O   0  0  0  0  0  0  0  0  0  0  0  0
    9.2950    1.3000   20.9480 O   0  0  0  0  0  0  0  0  0  0  0  0
   15.1751   -2.0451   24.2165 H   0  0  0  0  0  0  0  0  0  0  0  0
    3.6208    2.0704   21.6579 H   0  0  0  0  0  0  0  0  0  0  0  0
   14.5773   -0.1411   25.6906 H   0  0  0  0  0  0  0  0  0  0  0  0
   13.6895   -2.6661   22.3285 H   0  0  0  0  0  0  0  0  0  0  0  0
    2.9857    2.6926   19.3615 H   0  0  0  0  0  0  0  0  0  0  0  0
    5.6664    0.7407   22.0807 H   0  0  0  0  0  0  0  0  0  0  0  0
   12.5019    1.1401   25.2829 H   0  0  0  0  0  0  0  0  0  0  0  0
   11.6123   -1.3913   21.9125 H   0  0  0  0  0  0  0  0  0  0  0  0
    4.3794    2.0106   17.4221 H   0  0  0  0  0  0  0  0  0  0  0  0
    9.5436   -4.5614   23.7799 H   0  0  0  0  0  0  0  0  0  0  0  0
    7.1918   -1.8823   26.1906 H   0  0  0  0  0  0  0  0  0  0  0  0
   10.2676   -2.6754   22.3861 H   0  0  0  0  0  0  0  0  0  0  0  0
    7.8686   -0.0026   24.7598 H   0  0  0  0  0  0  0  0  0  0  0  0
    8.4172   -0.8135   18.0384 H   0  0  0  0  0  0  0  0  0  0  0  0
    8.6973   -6.8584   26.5435 H   0  0  0  0  0  0  0  0  0  0  0  0
    8.1397   -7.7511   27.9709 H   0  0  0  0  0  0  0  0  0  0  0  0
    9.3367   -6.4540   28.1437 H   0  0  0  0  0  0  0  0  0  0  0  0
   10.2659    1.1437   24.2561 H   0  0  0  0  0  0  0  0  0  0  0  0
   10.8458    1.5792   22.6481 H   0  0  0  0  0  0  0  0  0  0  0  0
    7.0708   -5.6916   28.8676 H   0  0  0  0  0  0  0  0  0  0  0  0
    6.4147   -6.1156   27.2748 H   0  0  0  0  0  0  0  0  0  0  0  0
    6.6715    0.4865   16.8044 H   0  0  0  0  0  0  0  0  0  0  0  0
    7.9296   -5.3299   25.4748 H   0  0  0  0  0  0  0  0  0  0  0  0
    8.0705   -1.6178   21.0726 H   0  0  0  0  0  0  0  0  0  0  0  0
  1  3  1  0  0  0  0
  1  4  2  0  0  0  0
  2  5  1  0  0  0  0
  2  6  2  0  0  0  0
  3  7  2  0  0  0  0
  4  8  1  0  0  0  0
  5  9  2  0  0  0  0
  6 15  1  0  0  0  0
  7 16  1  0  0  0  0
  8 16  2  0  0  0  0
  9 17  1  0  0  0  0
 10 12  2  0  0  0  0
 10 18  1  0  0  0  0
 11 13  1  0  0  0  0
 11 18  2  0  0  0  0
 12 19  1  0  0  0  0
 13 19  2  0  0  0  0
 14 20  2  0  0  0  0
 14 26  1  0  0  0  0
 15 17  2  0  0  0  0
 15 20  1  0  0  0  0
 16 24  1  0  0  0  0
 17 26  1  0  0  0  0
 18 27  1  0  0  0  0
 19 29  1  0  0  0  0
 20 28  1  0  0  0  0
 21 25  1  0  0  0  0
 21 27  1  0  0  0  0
 21 30  2  0  0  0  0
 22 28  1  0  0  0  0
 22 29  1  0  0  0  0
 22 31  2  0  0  0  0
 23 25  1  0  0  0  0
 24 29  1  0  0  0  0
  1 32  1  0  0  0  0
  2 33  1  0  0  0  0
  3 34  1  0  0  0  0
  4 35  1  0  0  0  0
  5 36  1  0  0  0  0
  6 37  1  0  0  0  0
  7 38  1  0  0  0  0
  8 39  1  0  0  0  0
  9 40  1  0  0  0  0
 10 41  1  0  0  0  0
 11 42  1  0  0  0  0
 12 43  1  0  0  0  0
 13 44  1  0  0  0  0
 14 45  1  0  0  0  0
 23 46  1  0  0  0  0
 23 47  1  0  0  0  0
 23 48  1  0  0  0  0
 24 49  1  0  0  0  0
 24 50  1  0  0  0  0
 25 51  1  0  0  0  0
 25 52  1  0  0  0  0
 26 53  1  0  0  0  0
 27 54  1  0  0  0  0
 28 55  1  0  0  0  0
M  END
> <clash_score>
0

> <docking_score>
-7.939852714538574

> <overlap_score>
0.9767153263092041

$$$$
BENZO_114_1
  -OEChem-08232013523D

 53 56  0     0  0  0  0  0  0999 V2000
    4.2460    1.7520   20.8250 C   0  0  0  0  0  0  0  0  0  0  0  0
    3.8860    2.1050   19.5250 C   0  0  0  0  0  0  0  0  0  0  0  0
   13.5938   -0.8759   25.1008 C   0  0  0  0  0  0  0  0  0  0  0  0
    5.3890    1.0010   21.0690 C   0  0  0  0  0  0  0  0  0  0  0  0
   12.4233   -0.1543   24.8669 C   0  0  0  0  0  0  0  0  0  0  0  0
    4.6610    1.7170   18.4380 C   0  0  0  0  0  0  0  0  0  0  0  0
    9.5890   -2.4950   23.2210 C   0  0  0  0  0  0  0  0  0  0  0  0
    8.2550   -1.0010   24.5520 C   0  0  0  0  0  0  0  0  0  0  0  0
    9.1890   -3.5540   24.0140 C   0  0  0  0  0  0  0  0  0  0  0  0
    7.8700   -2.0610   25.3550 C   0  0  0  0  0  0  0  0  0  0  0  0
   14.2619   -1.4847   24.0384 C   0  0  0  0  0  0  0  0  0  0  0  0
   12.5889   -0.6504   22.5081 C   0  0  0  0  0  0  0  0  0  0  0  0
    7.5840   -0.2700   18.5160 C   0  0  0  0  0  0  0  0  0  0  0  0
    6.1460    0.6070   19.9750 C   0  0  0  0  0  0  0  0  0  0  0  0
   11.9208   -0.0415   23.5705 C   0  0  0  0  0  0  0  0  0  0  0  0
    5.7970    0.9500   18.6730 C   0  0  0  0  0  0  0  0  0  0  0  0
    9.1280   -1.2090   23.4870 C   0  0  0  0  0  0  0  0  0  0  0  0
    8.3450   -3.3440   25.0980 C   0  0  0  0  0  0  0  0  0  0  0  0
    7.2710   -0.1460   19.8310 C   0  0  0  0  0  0  0  0  0  0  0  0
   13.7594   -1.3720   22.7421 C   0  0  0  0  0  0  0  0  0  0  0  0
    9.0430    0.2380   21.4940 C   0  0  0  0  0  0  0  0  0  0  0  0
    7.2639   -5.5571   25.3799 C   0  0  0  0  0  0  0  0  0  0  0  0
    8.3059   -4.4054   27.3386 C   0  0  0  0  0  0  0  0  0  0  0  0
   10.6602    0.7344   23.3196 C   0  0  0  0  0  0  0  0  0  0  0  0
    6.7100    0.3850   17.8100 N   0  0  0  0  0  0  0  0  0  0  0  0
    8.0950   -0.7700   20.8440 N   0  0  0  0  0  0  0  0  0  0  0  0
    9.5820   -0.1080   22.7000 N   0  0  0  0  0  0  0  0  0  0  0  0
    7.9731   -4.4180   25.9279 N   0  0  0  0  0  0  0  0  0  0  0  0
    9.2950    1.3000   20.9480 O   0  0  0  0  0  0  0  0  0  0  0  0
   14.5836   -2.1243   21.4319 Cl  0  0  0  0  0  0  0  0  0  0  0  0
    3.6208    2.0704   21.6579 H   0  0  0  0  0  0  0  0  0  0  0  0
    2.9857    2.6926   19.3615 H   0  0  0  0  0  0  0  0  0  0  0  0
   13.9846   -0.9636   26.1104 H   0  0  0  0  0  0  0  0  0  0  0  0
    5.6664    0.7407   22.0807 H   0  0  0  0  0  0  0  0  0  0  0  0
   11.9092    0.3167   25.7007 H   0  0  0  0  0  0  0  0  0  0  0  0
    4.3794    2.0106   17.4221 H   0  0  0  0  0  0  0  0  0  0  0  0
   10.2682   -2.6746   22.3864 H   0  0  0  0  0  0  0  0  0  0  0  0
    7.8692   -0.0022   24.7600 H   0  0  0  0  0  0  0  0  0  0  0  0
    9.5433   -4.5619   23.7809 H   0  0  0  0  0  0  0  0  0  0  0  0
    7.1923   -1.8829   26.1908 H   0  0  0  0  0  0  0  0  0  0  0  0
   15.1730   -2.0443   24.2357 H   0  0  0  0  0  0  0  0  0  0  0  0
   12.1934   -0.5591   21.4992 H   0  0  0  0  0  0  0  0  0  0  0  0
    8.4172   -0.8135   18.0384 H   0  0  0  0  0  0  0  0  0  0  0  0
    7.0637   -6.2847   26.1802 H   0  0  0  0  0  0  0  0  0  0  0  0
    6.3117   -5.2208   24.9437 H   0  0  0  0  0  0  0  0  0  0  0  0
    7.8779   -6.0303   24.5995 H   0  0  0  0  0  0  0  0  0  0  0  0
    7.9320   -5.3250   27.8123 H   0  0  0  0  0  0  0  0  0  0  0  0
    9.3981   -4.3499   27.4570 H   0  0  0  0  0  0  0  0  0  0  0  0
    7.8403   -3.5311   27.8172 H   0  0  0  0  0  0  0  0  0  0  0  0
   10.2659    1.1437   24.2561 H   0  0  0  0  0  0  0  0  0  0  0  0
   10.8458    1.5792   22.6481 H   0  0  0  0  0  0  0  0  0  0  0  0
    6.6715    0.4865   16.8044 H   0  0  0  0  0  0  0  0  0  0  0  0
    8.0705   -1.6178   21.0726 H   0  0  0  0  0  0  0  0  0  0  0  0
  1  2  1  0  0  0  0
  1  4  2  0  0  0  0
  2  6  2  0  0  0  0
  3  5  2  0  0  0  0
  3 11  1  0  0  0  0
  4 14  1  0  0  0  0
  5 15  1  0  0  0  0
  6 16  1  0  0  0  0
  7  9  2  0  0  0  0
  7 17  1  0  0  0  0
  8 10  1  0  0  0  0
  8 17  2  0  0  0  0
  9 18  1  0  0  0  0
 10 18  2  0  0  0  0
 11 20  2  0  0  0  0
 12 15  2  0  0  0  0
 12 20  1  0  0  0  0
 13 19  2  0  0  0  0
 13 25  1  0  0  0  0
 14 16  2  0  0  0  0
 14 19  1  0  0  0  0
 15 24  1  0  0  0  0
 16 25  1  0  0  0  0
 17 27  1  0  0  0  0
 18 28  1  0  0  0  0
 19 26  1  0  0  0  0
 20 30  1  0  0  0  0
 21 26  1  0  0  0  0
 21 27  1  0  0  0  0
 21 29  2  0  0  0  0
 22 28  1  0  0  0  0
 23 28  1  0  0  0  0
 24 27  1  0  0  0  0
  1 31  1  0  0  0  0
  2 32  1  0  0  0  0
  3 33  1  0  0  0  0
  4 34  1  0  0  0  0
  5 35  1  0  0  0  0
  6 36  1  0  0  0  0
  7 37  1  0  0  0  0
  8 38  1  0  0  0  0
  9 39  1  0  0  0  0
 10 40  1  0  0  0  0
 11 41  1  0  0  0  0
 12 42  1  0  0  0  0
 13 43  1  0  0  0  0
 22 44  1  0  0  0  0
 22 45  1  0  0  0  0
 22 46  1  0  0  0  0
 23 47  1  0  0  0  0
 23 48  1  0  0  0  0
 23 49  1  0  0  0  0
 24 50  1  0  0  0  0
 24 51  1  0  0  0  0
 25 52  1  0  0  0  0
 26 53  1  0  0  0  0
M  END
> <clash_score>
0

> <docking_score>
-7.419853210449219

> <overlap_score>
0.9473578929901123

$$$$
BENZO_116_1
  -OEChem-08232013523D

 52 55  0     0  0  0  0  0  0999 V2000
    4.2460    1.7520   20.8250 C   0  0  0  0  0  0  0  0  0  0  0  0
    3.8860    2.1050   19.5250 C   0  0  0  0  0  0  0  0  0  0  0  0
    5.3890    1.0010   21.0690 C   0  0  0  0  0  0  0  0  0  0  0  0
    4.6610    1.7170   18.4380 C   0  0  0  0  0  0  0  0  0  0  0  0
    9.1890   -3.5540   24.0140 C   0  0  0  0  0  0  0  0  0  0  0  0
    7.8700   -2.0610   25.3550 C   0  0  0  0  0  0  0  0  0  0  0  0
    9.5890   -2.4950   23.2210 C   0  0  0  0  0  0  0  0  0  0  0  0
    8.2550   -1.0010   24.5520 C   0  0  0  0  0  0  0  0  0  0  0  0
   12.5071   -0.2100   24.8582 C   0  0  0  0  0  0  0  0  0  0  0  0
    7.5840   -0.2700   18.5160 C   0  0  0  0  0  0  0  0  0  0  0  0
   13.6588   -0.9640   24.8077 C   0  0  0  0  0  0  0  0  0  0  0  0
   12.6470   -0.6730   22.5848 C   0  0  0  0  0  0  0  0  0  0  0  0
    6.1460    0.6070   19.9750 C   0  0  0  0  0  0  0  0  0  0  0  0
   11.9208   -0.0415   23.5705 C   0  0  0  0  0  0  0  0  0  0  0  0
    5.7970    0.9500   18.6730 C   0  0  0  0  0  0  0  0  0  0  0  0
    8.3450   -3.3440   25.0980 C   0  0  0  0  0  0  0  0  0  0  0  0
    9.1280   -1.2090   23.4870 C   0  0  0  0  0  0  0  0  0  0  0  0
    7.2710   -0.1460   19.8310 C   0  0  0  0  0  0  0  0  0  0  0  0
    8.2013   -4.5560   27.2978 C   0  0  0  0  0  0  0  0  0  0  0  0
    9.0430    0.2380   21.4940 C   0  0  0  0  0  0  0  0  0  0  0  0
    7.8868   -6.0872   29.2883 C   0  0  0  0  0  0  0  0  0  0  0  0
   10.6602    0.7344   23.3196 C   0  0  0  0  0  0  0  0  0  0  0  0
    7.6336   -5.8726   27.8069 C   0  0  0  0  0  0  0  0  0  0  0  0
    6.7100    0.3850   17.8100 N   0  0  0  0  0  0  0  0  0  0  0  0
    7.9771   -4.4058   25.9196 N   0  0  0  0  0  0  0  0  0  0  0  0
    8.0950   -0.7700   20.8440 N   0  0  0  0  0  0  0  0  0  0  0  0
    9.5820   -0.1080   22.7000 N   0  0  0  0  0  0  0  0  0  0  0  0
    8.7721   -3.7635   28.0398 O   0  0  0  0  0  0  0  0  0  0  0  0
    9.2950    1.3000   20.9480 O   0  0  0  0  0  0  0  0  0  0  0  0
   14.0293   -1.4651   23.2127 S   0  0  0  0  0  0  0  0  0  0  0  0
    3.6208    2.0704   21.6579 H   0  0  0  0  0  0  0  0  0  0  0  0
    2.9857    2.6926   19.3615 H   0  0  0  0  0  0  0  0  0  0  0  0
    5.6664    0.7407   22.0807 H   0  0  0  0  0  0  0  0  0  0  0  0
    4.3794    2.0106   17.4221 H   0  0  0  0  0  0  0  0  0  0  0  0
    9.5436   -4.5614   23.7799 H   0  0  0  0  0  0  0  0  0  0  0  0
    7.1918   -1.8823   26.1906 H   0  0  0  0  0  0  0  0  0  0  0  0
   10.2676   -2.6754   22.3861 H   0  0  0  0  0  0  0  0  0  0  0  0
    7.8686   -0.0026   24.7598 H   0  0  0  0  0  0  0  0  0  0  0  0
   12.1079    0.1996   25.7774 H   0  0  0  0  0  0  0  0  0  0  0  0
    8.4172   -0.8135   18.0384 H   0  0  0  0  0  0  0  0  0  0  0  0
   14.3009   -1.2440   25.6308 H   0  0  0  0  0  0  0  0  0  0  0  0
   12.4363   -0.7086   21.5249 H   0  0  0  0  0  0  0  0  0  0  0  0
    8.9593   -6.0816   29.5088 H   0  0  0  0  0  0  0  0  0  0  0  0
    7.4767   -7.0496   29.6095 H   0  0  0  0  0  0  0  0  0  0  0  0
    7.4172   -5.2988   29.8857 H   0  0  0  0  0  0  0  0  0  0  0  0
   10.2659    1.1437   24.2561 H   0  0  0  0  0  0  0  0  0  0  0  0
   10.8458    1.5792   22.6481 H   0  0  0  0  0  0  0  0  0  0  0  0
    6.5544   -5.8828   27.6154 H   0  0  0  0  0  0  0  0  0  0  0  0
    8.0875   -6.6908   27.2360 H   0  0  0  0  0  0  0  0  0  0  0  0
    6.6715    0.4865   16.8044 H   0  0  0  0  0  0  0  0  0  0  0  0
    7.4775   -5.1797   25.4664 H   0  0  0  0  0  0  0  0  0  0  0  0
    8.0705   -1.6178   21.0726 H   0  0  0  0  0  0  0  0  0  0  0  0
  1  2  1  0  0  0  0
  1  3  2  0  0  0  0
  2  4  2  0  0  0  0
  3 13  1  0  0  0  0
  4 15  1  0  0  0  0
  5  7  2  0  0  0  0
  5 16  1  0  0  0  0
  6  8  1  0  0  0  0
  6 16  2  0  0  0  0
  7 17  1  0  0  0  0
  8 17  2  0  0  0  0
  9 11  2  0  0  0  0
  9 14  1  0  0  0  0
 10 18  2  0  0  0  0
 10 24  1  0  0  0  0
 11 30  1  0  0  0  0
 12 14  2  0  0  0  0
 12 30  1  0  0  0  0
 13 15  2  0  0  0  0
 13 18  1  0  0  0  0
 14 22  1  0  0  0  0
 15 24  1  0  0  0  0
 16 25  1  0  0  0  0
 17 27  1  0  0  0  0
 18 26  1  0  0  0  0
 19 23  1  0  0  0  0
 19 25  1  0  0  0  0
 19 28  2  0  0  0  0
 20 26  1  0  0  0  0
 20 27  1  0  0  0  0
 20 29  2  0  0  0  0
 21 23  1  0  0  0  0
 22 27  1  0  0  0  0
  1 31  1  0  0  0  0
  2 32  1  0  0  0  0
  3 33  1  0  0  0  0
  4 34  1  0  0  0  0
  5 35  1  0  0  0  0
  6 36  1  0  0  0  0
  7 37  1  0  0  0  0
  8 38  1  0  0  0  0
  9 39  1  0  0  0  0
 10 40  1  0  0  0  0
 11 41  1  0  0  0  0
 12 42  1  0  0  0  0
 21 43  1  0  0  0  0
 21 44  1  0  0  0  0
 21 45  1  0  0  0  0
 22 46  1  0  0  0  0
 22 47  1  0  0  0  0
 23 48  1  0  0  0  0
 23 49  1  0  0  0  0
 24 50  1  0  0  0  0
 25 51  1  0  0  0  0
 26 52  1  0  0  0  0
M  END
> <clash_score>
0

> <docking_score>
-8.287175178527832

> <overlap_score>
0.978847324848175

$$$$
BENZO_121_1
  -OEChem-08232013523D

 60 64  0     0  0  0  0  0  0999 V2000
   14.3362   -1.3623   23.9763 C   0  0  0  0  0  0  0  0  0  0  0  0
    4.2460    1.7520   20.8250 C   0  0  0  0  0  0  0  0  0  0  0  0
   13.9850   -0.2947   24.8024 C   0  0  0  0  0  0  0  0  0  0  0  0
   13.4946   -1.7412   22.9304 C   0  0  0  0  0  0  0  0  0  0  0  0
    3.8860    2.1050   19.5250 C   0  0  0  0  0  0  0  0  0  0  0  0
    5.3890    1.0010   21.0690 C   0  0  0  0  0  0  0  0  0  0  0  0
   12.7920    0.3940   24.5828 C   0  0  0  0  0  0  0  0  0  0  0  0
   12.3016   -1.0525   22.7108 C   0  0  0  0  0  0  0  0  0  0  0  0
    4.6610    1.7170   18.4380 C   0  0  0  0  0  0  0  0  0  0  0  0
    9.1890   -3.5540   24.0140 C   0  0  0  0  0  0  0  0  0  0  0  0
    7.8700   -2.0610   25.3550 C   0  0  0  0  0  0  0  0  0  0  0  0
    9.5890   -2.4950   23.2210 C   0  0  0  0  0  0  0  0  0  0  0  0
    8.2550   -1.0010   24.5520 C   0  0  0  0  0  0  0  0  0  0  0  0
    7.5840   -0.2700   18.5160 C   0  0  0  0  0  0  0  0  0  0  0  0
    6.1460    0.6070   19.9750 C   0  0  0  0  0  0  0  0  0  0  0  0
   11.9503    0.0151   23.5370 C   0  0  0  0  0  0  0  0  0  0  0  0
    5.7970    0.9500   18.6730 C   0  0  0  0  0  0  0  0  0  0  0  0
    8.3450   -3.3440   25.0980 C   0  0  0  0  0  0  0  0  0  0  0  0
    9.1280   -1.2090   23.4870 C   0  0  0  0  0  0  0  0  0  0  0  0
    7.2710   -0.1460   19.8310 C   0  0  0  0  0  0  0  0  0  0  0  0
    9.0430    0.2380   21.4940 C   0  0  0  0  0  0  0  0  0  0  0  0
    7.5748   -4.8280   28.7278 C   0  0  0  0  0  0  0  0  0  0  0  0
    8.9776   -4.7555   28.1204 C   0  0  0  0  0  0  0  0  0  0  0  0
    6.5554   -4.0713   27.8732 C   0  0  0  0  0  0  0  0  0  0  0  0
    8.9620   -5.1961   26.6568 C   0  0  0  0  0  0  0  0  0  0  0  0
    6.6009   -4.5253   26.4110 C   0  0  0  0  0  0  0  0  0  0  0  0
   10.6659    0.7557   23.3001 C   0  0  0  0  0  0  0  0  0  0  0  0
    6.7100    0.3850   17.8100 N   0  0  0  0  0  0  0  0  0  0  0  0
    7.9770   -4.4029   25.9162 N   0  0  0  0  0  0  0  0  0  0  0  0
    8.0950   -0.7700   20.8440 N   0  0  0  0  0  0  0  0  0  0  0  0
    9.5820   -0.1080   22.7000 N   0  0  0  0  0  0  0  0  0  0  0  0
    9.2950    1.3000   20.9480 O   0  0  0  0  0  0  0  0  0  0  0  0
   15.2658   -1.8975   24.1466 H   0  0  0  0  0  0  0  0  0  0  0  0
    3.6208    2.0704   21.6579 H   0  0  0  0  0  0  0  0  0  0  0  0
   14.6407    0.0012   25.6161 H   0  0  0  0  0  0  0  0  0  0  0  0
   13.7683   -2.5716   22.2864 H   0  0  0  0  0  0  0  0  0  0  0  0
    2.9857    2.6926   19.3615 H   0  0  0  0  0  0  0  0  0  0  0  0
    5.6664    0.7407   22.0807 H   0  0  0  0  0  0  0  0  0  0  0  0
   12.5263    1.2244   25.2316 H   0  0  0  0  0  0  0  0  0  0  0  0
   11.6520   -1.3548   21.8936 H   0  0  0  0  0  0  0  0  0  0  0  0
    4.3794    2.0106   17.4221 H   0  0  0  0  0  0  0  0  0  0  0  0
    9.5426   -4.5618   23.7797 H   0  0  0  0  0  0  0  0  0  0  0  0
    7.1914   -1.8824   26.1903 H   0  0  0  0  0  0  0  0  0  0  0  0
   10.2669   -2.6745   22.3854 H   0  0  0  0  0  0  0  0  0  0  0  0
    7.8690   -0.0020   24.7587 H   0  0  0  0  0  0  0  0  0  0  0  0
    8.4172   -0.8135   18.0384 H   0  0  0  0  0  0  0  0  0  0  0  0
    7.2681   -5.8807   28.8239 H   0  0  0  0  0  0  0  0  0  0  0  0
    7.5891   -4.4101   29.7448 H   0  0  0  0  0  0  0  0  0  0  0  0
    9.3554   -3.7320   28.1920 H   0  0  0  0  0  0  0  0  0  0  0  0
    9.6558   -5.3943   28.6900 H   0  0  0  0  0  0  0  0  0  0  0  0
    5.5496   -4.2322   28.2751 H   0  0  0  0  0  0  0  0  0  0  0  0
    6.7545   -2.9948   27.9293 H   0  0  0  0  0  0  0  0  0  0  0  0
    9.9612   -5.0560   26.2363 H   0  0  0  0  0  0  0  0  0  0  0  0
    8.7097   -6.2583   26.5922 H   0  0  0  0  0  0  0  0  0  0  0  0
    6.2649   -5.5600   26.3335 H   0  0  0  0  0  0  0  0  0  0  0  0
    5.9271   -3.8964   25.8283 H   0  0  0  0  0  0  0  0  0  0  0  0
   10.2856    1.1781   24.2366 H   0  0  0  0  0  0  0  0  0  0  0  0
   10.8149    1.5883   22.6046 H   0  0  0  0  0  0  0  0  0  0  0  0
    6.6715    0.4865   16.8044 H   0  0  0  0  0  0  0  0  0  0  0  0
    8.0897   -1.6082   21.0890 H   0  0  0  0  0  0  0  0  0  0  0  0
  1  3  1  0  0  0  0
  1  4  2  0  0  0  0
  2  5  1  0  0  0  0
  2  6  2  0  0  0  0
  3  7  2  0  0  0  0
  4  8  1  0  0  0  0
  5  9  2  0  0  0  0
  6 15  1  0  0  0  0
  7 16  1  0  0  0  0
  8 16  2  0  0  0  0
  9 17  1  0  0  0  0
 10 12  2  0  0  0  0
 10 18  1  0  0  0  0
 11 13  1  0  0  0  0
 11 18  2  0  0  0  0
 12 19  1  0  0  0  0
 13 19  2  0  0  0  0
 14 20  2  0  0  0  0
 14 28  1  0  0  0  0
 15 17  2  0  0  0  0
 15 20  1  0  0  0  0
 16 27  1  0  0  0  0
 17 28  1  0  0  0  0
 18 29  1  0  0  0  0
 19 31  1  0  0  0  0
 20 30  1  0  0  0  0
 21 30  1  0  0  0  0
 21 31  1  0  0  0  0
 21 32  2  0  0  0  0
 22 23  1  0  0  0  0
 22 24  1  0  0  0  0
 23 25  1  0  0  0  0
 24 26  1  0  0  0  0
 25 29  1  0  0  0  0
 26 29  1  0  0  0  0
 27 31  1  0  0  0  0
  1 33  1  0  0  0  0
  2 34  1  0  0  0  0
  3 35  1  0  0  0  0
  4 36  1  0  0  0  0
  5 37  1  0  0  0  0
  6 38  1  0  0  0  0
  7 39  1  0  0  0  0
  8 40  1  0  0  0  0
  9 41  1  0  0  0  0
 10 42  1  0  0  0  0
 11 43  1  0  0  0  0
 12 44  1  0  0  0  0
 13 45  1  0  0  0  0
 14 46  1  0  0  0  0
 22 47  1  0  0  0  0
 22 48  1  0  0  0  0
 23 49  1  0  0  0  0
 23 50  1  0  0  0  0
 24 51  1  0  0  0  0
 24 52  1  0  0  0  0
 25 53  1  0  0  0  0
 25 54  1  0  0  0  0
 26 55  1  0  0  0  0
 26 56  1  0  0  0  0
 27 57  1  0  0  0  0
 27 58  1  0  0  0  0
 28 59  1  0  0  0  0
 30 60  1  0  0  0  0
M  END
> <clash_score>
0

> <docking_score>
-8.7701416015625

> <overlap_score>
0.9820867776870728

$$$$
BENZO_120_1
  -OEChem-08232013523D

 57 61  0     0  0  0  0  0  0999 V2000
    4.2460    1.7520   20.8250 C   0  0  0  0  0  0  0  0  0  0  0  0
    3.8860    2.1050   19.5250 C   0  0  0  0  0  0  0  0  0  0  0  0
    5.3890    1.0010   21.0690 C   0  0  0  0  0  0  0  0  0  0  0  0
    4.6610    1.7170   18.4380 C   0  0  0  0  0  0  0  0  0  0  0  0
    9.1890   -3.5540   24.0140 C   0  0  0  0  0  0  0  0  0  0  0  0
    7.8700   -2.0610   25.3550 C   0  0  0  0  0  0  0  0  0  0  0  0
    9.5890   -2.4950   23.2210 C   0  0  0  0  0  0  0  0  0  0  0  0
    8.2550   -1.0010   24.5520 C   0  0  0  0  0  0  0  0  0  0  0  0
   12.5722   -0.1093   24.8129 C   0  0  0  0  0  0  0  0  0  0  0  0
    7.5840   -0.2700   18.5160 C   0  0  0  0  0  0  0  0  0  0  0  0
   13.7397   -0.8377   24.7507 C   0  0  0  0  0  0  0  0  0  0  0  0
   12.6665   -0.6230   22.5480 C   0  0  0  0  0  0  0  0  0  0  0  0
    6.1460    0.6070   19.9750 C   0  0  0  0  0  0  0  0  0  0  0  0
   11.9503    0.0151   23.5370 C   0  0  0  0  0  0  0  0  0  0  0  0
    5.7970    0.9500   18.6730 C   0  0  0  0  0  0  0  0  0  0  0  0
    8.3450   -3.3440   25.0980 C   0  0  0  0  0  0  0  0  0  0  0  0
    9.1280   -1.2090   23.4870 C   0  0  0  0  0  0  0  0  0  0  0  0
    7.2710   -0.1460   19.8310 C   0  0  0  0  0  0  0  0  0  0  0  0
    9.0430    0.2380   21.4940 C   0  0  0  0  0  0  0  0  0  0  0  0
    7.5748   -4.8280   28.7278 C   0  0  0  0  0  0  0  0  0  0  0  0
    8.9776   -4.7555   28.1204 C   0  0  0  0  0  0  0  0  0  0  0  0
    6.5554   -4.0713   27.8732 C   0  0  0  0  0  0  0  0  0  0  0  0
    8.9620   -5.1961   26.6568 C   0  0  0  0  0  0  0  0  0  0  0  0
    6.6009   -4.5253   26.4110 C   0  0  0  0  0  0  0  0  0  0  0  0
   10.6659    0.7557   23.3001 C   0  0  0  0  0  0  0  0  0  0  0  0
    6.7100    0.3850   17.8100 N   0  0  0  0  0  0  0  0  0  0  0  0
    7.9770   -4.4029   25.9162 N   0  0  0  0  0  0  0  0  0  0  0  0
    8.0950   -0.7700   20.8440 N   0  0  0  0  0  0  0  0  0  0  0  0
    9.5820   -0.1080   22.7000 N   0  0  0  0  0  0  0  0  0  0  0  0
    9.2950    1.3000   20.9480 O   0  0  0  0  0  0  0  0  0  0  0  0
   14.0820   -1.3681   23.1589 S   0  0  0  0  0  0  0  0  0  0  0  0
    3.6208    2.0704   21.6579 H   0  0  0  0  0  0  0  0  0  0  0  0
    2.9857    2.6926   19.3615 H   0  0  0  0  0  0  0  0  0  0  0  0
    5.6664    0.7407   22.0807 H   0  0  0  0  0  0  0  0  0  0  0  0
    4.3794    2.0106   17.4221 H   0  0  0  0  0  0  0  0  0  0  0  0
    9.5426   -4.5618   23.7797 H   0  0  0  0  0  0  0  0  0  0  0  0
    7.1914   -1.8824   26.1903 H   0  0  0  0  0  0  0  0  0  0  0  0
   10.2669   -2.6745   22.3854 H   0  0  0  0  0  0  0  0  0  0  0  0
    7.8690   -0.0020   24.7587 H   0  0  0  0  0  0  0  0  0  0  0  0
   12.1863    0.3129   25.7322 H   0  0  0  0  0  0  0  0  0  0  0  0
    8.4172   -0.8135   18.0384 H   0  0  0  0  0  0  0  0  0  0  0  0
   14.4083   -1.0832   25.5636 H   0  0  0  0  0  0  0  0  0  0  0  0
   12.4303   -0.6886   21.4949 H   0  0  0  0  0  0  0  0  0  0  0  0
    7.2681   -5.8807   28.8239 H   0  0  0  0  0  0  0  0  0  0  0  0
    7.5891   -4.4101   29.7448 H   0  0  0  0  0  0  0  0  0  0  0  0
    9.3554   -3.7320   28.1920 H   0  0  0  0  0  0  0  0  0  0  0  0
    9.6558   -5.3943   28.6900 H   0  0  0  0  0  0  0  0  0  0  0  0
    5.5496   -4.2322   28.2751 H   0  0  0  0  0  0  0  0  0  0  0  0
    6.7545   -2.9948   27.9293 H   0  0  0  0  0  0  0  0  0  0  0  0
    9.9612   -5.0560   26.2363 H   0  0  0  0  0  0  0  0  0  0  0  0
    8.7097   -6.2583   26.5922 H   0  0  0  0  0  0  0  0  0  0  0  0
    6.2649   -5.5600   26.3335 H   0  0  0  0  0  0  0  0  0  0  0  0
    5.9271   -3.8964   25.8283 H   0  0  0  0  0  0  0  0  0  0  0  0
   10.2856    1.1781   24.2366 H   0  0  0  0  0  0  0  0  0  0  0  0
   10.8149    1.5883   22.6046 H   0  0  0  0  0  0  0  0  0  0  0  0
    6.6715    0.4865   16.8044 H   0  0  0  0  0  0  0  0  0  0  0  0
    8.0897   -1.6082   21.0890 H   0  0  0  0  0  0  0  0  0  0  0  0
  1  2  1  0  0  0  0
  1  3  2  0  0  0  0
  2  4  2  0  0  0  0
  3 13  1  0  0  0  0
  4 15  1  0  0  0  0
  5  7  2  0  0  0  0
  5 16  1  0  0  0  0
  6  8  1  0  0  0  0
  6 16  2  0  0  0  0
  7 17  1  0  0  0  0
  8 17  2  0  0  0  0
  9 11  2  0  0  0  0
  9 14  1  0  0  0  0
 10 18  2  0  0  0  0
 10 26  1  0  0  0  0
 11 31  1  0  0  0  0
 12 14  2  0  0  0  0
 12 31  1  0  0  0  0
 13 15  2  0  0  0  0
 13 18  1  0  0  0  0
 14 25  1  0  0  0  0
 15 26  1  0  0  0  0
 16 27  1  0  0  0  0
 17 29  1  0  0  0  0
 18 28  1  0  0  0  0
 19 28  1  0  0  0  0
 19 29  1  0  0  0  0
 19 30  2  0  0  0  0
 20 21  1  0  0  0  0
 20 22  1  0  0  0  0
 21 23  1  0  0  0  0
 22 24  1  0  0  0  0
 23 27  1  0  0  0  0
 24 27  1  0  0  0  0
 25 29  1  0  0  0  0
  1 32  1  0  0  0  0
  2 33  1  0  0  0  0
  3 34  1  0  0  0  0
  4 35  1  0  0  0  0
  5 36  1  0  0  0  0
  6 37  1  0  0  0  0
  7 38  1  0  0  0  0
  8 39  1  0  0  0  0
  9 40  1  0  0  0  0
 10 41  1  0  0  0  0
 11 42  1  0  0  0  0
 12 43  1  0  0  0  0
 20 44  1  0  0  0  0
 20 45  1  0  0  0  0
 21 46  1  0  0  0  0
 21 47  1  0  0  0  0
 22 48  1  0  0  0  0
 22 49  1  0  0  0  0
 23 50  1  0  0  0  0
 23 51  1  0  0  0  0
 24 52  1  0  0  0  0
 24 53  1  0  0  0  0
 25 54  1  0  0  0  0
 25 55  1  0  0  0  0
 26 56  1  0  0  0  0
 28 57  1  0  0  0  0
M  END
> <clash_score>
0

> <docking_score>
-8.64706039428711

> <overlap_score>
0.966229259967804

$$$$
BENZO_119_1
  -OEChem-08232013523D

 55 58  0     0  0  0  0  0  0999 V2000
    4.2460    1.7520   20.8250 C   0  0  0  0  0  0  0  0  0  0  0  0
    3.8860    2.1050   19.5250 C   0  0  0  0  0  0  0  0  0  0  0  0
    5.3890    1.0010   21.0690 C   0  0  0  0  0  0  0  0  0  0  0  0
    4.6610    1.7170   18.4380 C   0  0  0  0  0  0  0  0  0  0  0  0
    9.1890   -3.5540   24.0140 C   0  0  0  0  0  0  0  0  0  0  0  0
    7.8700   -2.0610   25.3550 C   0  0  0  0  0  0  0  0  0  0  0  0
    9.5890   -2.4950   23.2210 C   0  0  0  0  0  0  0  0  0  0  0  0
    8.2550   -1.0010   24.5520 C   0  0  0  0  0  0  0  0  0  0  0  0
   13.2160    0.4884   23.8066 C   0  0  0  0  0  0  0  0  0  0  0  0
   12.3975   -0.8664   22.2803 C   0  0  0  0  0  0  0  0  0  0  0  0
    7.5840   -0.2700   18.5160 C   0  0  0  0  0  0  0  0  0  0  0  0
    6.1460    0.6070   19.9750 C   0  0  0  0  0  0  0  0  0  0  0  0
   12.0272    0.1409   23.1374 C   0  0  0  0  0  0  0  0  0  0  0  0
    5.7970    0.9500   18.6730 C   0  0  0  0  0  0  0  0  0  0  0  0
    8.3450   -3.3440   25.0980 C   0  0  0  0  0  0  0  0  0  0  0  0
    9.1280   -1.2090   23.4870 C   0  0  0  0  0  0  0  0  0  0  0  0
    7.2710   -0.1460   19.8310 C   0  0  0  0  0  0  0  0  0  0  0  0
    7.6593   -4.3764   27.2872 C   0  0  0  0  0  0  0  0  0  0  0  0
    9.0430    0.2380   21.4940 C   0  0  0  0  0  0  0  0  0  0  0  0
    8.4366   -6.7642   27.6028 C   0  0  0  0  0  0  0  0  0  0  0  0
   14.5745   -2.0123   21.8044 C   0  0  0  0  0  0  0  0  0  0  0  0
   10.6602    0.7344   23.3196 C   0  0  0  0  0  0  0  0  0  0  0  0
    7.3104   -5.7655   27.8005 C   0  0  0  0  0  0  0  0  0  0  0  0
   14.2631   -0.2392   23.4090 N   0  0  0  0  0  0  0  0  0  0  0  0
    6.7100    0.3850   17.8100 N   0  0  0  0  0  0  0  0  0  0  0  0
   13.7335   -1.0540   22.4807 N   0  0  0  0  0  0  0  0  0  0  0  0
    7.9771   -4.4058   25.9196 N   0  0  0  0  0  0  0  0  0  0  0  0
    8.0950   -0.7700   20.8440 N   0  0  0  0  0  0  0  0  0  0  0  0
    9.5820   -0.1080   22.7000 N   0  0  0  0  0  0  0  0  0  0  0  0
    7.6480   -3.3911   28.0176 O   0  0  0  0  0  0  0  0  0  0  0  0
    9.2950    1.3000   20.9480 O   0  0  0  0  0  0  0  0  0  0  0  0
    3.6208    2.0704   21.6579 H   0  0  0  0  0  0  0  0  0  0  0  0
    2.9857    2.6926   19.3615 H   0  0  0  0  0  0  0  0  0  0  0  0
    5.6664    0.7407   22.0807 H   0  0  0  0  0  0  0  0  0  0  0  0
    4.3794    2.0106   17.4221 H   0  0  0  0  0  0  0  0  0  0  0  0
    9.5436   -4.5614   23.7799 H   0  0  0  0  0  0  0  0  0  0  0  0
    7.1918   -1.8823   26.1906 H   0  0  0  0  0  0  0  0  0  0  0  0
   10.2676   -2.6754   22.3861 H   0  0  0  0  0  0  0  0  0  0  0  0
    7.8686   -0.0026   24.7598 H   0  0  0  0  0  0  0  0  0  0  0  0
   13.3652    1.2405   24.5684 H   0  0  0  0  0  0  0  0  0  0  0  0
   11.8378   -1.4521   21.5637 H   0  0  0  0  0  0  0  0  0  0  0  0
    8.4172   -0.8135   18.0384 H   0  0  0  0  0  0  0  0  0  0  0  0
    8.6973   -6.8584   26.5435 H   0  0  0  0  0  0  0  0  0  0  0  0
    8.1397   -7.7511   27.9709 H   0  0  0  0  0  0  0  0  0  0  0  0
    9.3367   -6.4540   28.1437 H   0  0  0  0  0  0  0  0  0  0  0  0
   14.9803   -1.5328   20.9098 H   0  0  0  0  0  0  0  0  0  0  0  0
   15.3831   -2.3224   22.4722 H   0  0  0  0  0  0  0  0  0  0  0  0
   13.9785   -2.8882   21.5331 H   0  0  0  0  0  0  0  0  0  0  0  0
   10.4260    0.8448   24.3841 H   0  0  0  0  0  0  0  0  0  0  0  0
   10.6008    1.7305   22.8686 H   0  0  0  0  0  0  0  0  0  0  0  0
    7.0708   -5.6916   28.8676 H   0  0  0  0  0  0  0  0  0  0  0  0
    6.4147   -6.1156   27.2748 H   0  0  0  0  0  0  0  0  0  0  0  0
    6.6715    0.4865   16.8044 H   0  0  0  0  0  0  0  0  0  0  0  0
    7.9296   -5.3299   25.4748 H   0  0  0  0  0  0  0  0  0  0  0  0
    8.0705   -1.6178   21.0726 H   0  0  0  0  0  0  0  0  0  0  0  0
  1  2  1  0  0  0  0
  1  3  2  0  0  0  0
  2  4  2  0  0  0  0
  3 12  1  0  0  0  0
  4 14  1  0  0  0  0
  5  7  2  0  0  0  0
  5 15  1  0  0  0  0
  6  8  1  0  0  0  0
  6 15  2  0  0  0  0
  7 16  1  0  0  0  0
  8 16  2  0  0  0  0
  9 13  1  0  0  0  0
  9 24  2  0  0  0  0
 10 13  2  0  0  0  0
 10 26  1  0  0  0  0
 11 17  2  0  0  0  0
 11 25  1  0  0  0  0
 12 14  2  0  0  0  0
 12 17  1  0  0  0  0
 13 22  1  0  0  0  0
 14 25  1  0  0  0  0
 15 27  1  0  0  0  0
 16 29  1  0  0  0  0
 17 28  1  0  0  0  0
 18 23  1  0  0  0  0
 18 27  1  0  0  0  0
 18 30  2  0  0  0  0
 19 28  1  0  0  0  0
 19 29  1  0  0  0  0
 19 31  2  0  0  0  0
 20 23  1  0  0  0  0
 21 26  1  0  0  0  0
 22 29  1  0  0  0  0
 24 26  1  0  0  0  0
  1 32  1  0  0  0  0
  2 33  1  0  0  0  0
  3 34  1  0  0  0  0
  4 35  1  0  0  0  0
  5 36  1  0  0  0  0
  6 37  1  0  0  0  0
  7 38  1  0  0  0  0
  8 39  1  0  0  0  0
  9 40  1  0  0  0  0
 10 41  1  0  0  0  0
 11 42  1  0  0  0  0
 20 43  1  0  0  0  0
 20 44  1  0  0  0  0
 20 45  1  0  0  0  0
 21 46  1  0  0  0  0
 21 47  1  0  0  0  0
 21 48  1  0  0  0  0
 22 49  1  0  0  0  0
 22 50  1  0  0  0  0
 23 51  1  0  0  0  0
 23 52  1  0  0  0  0
 25 53  1  0  0  0  0
 27 54  1  0  0  0  0
 28 55  1  0  0  0  0
M  END
> <clash_score>
0

> <docking_score>
-8.178831100463867

> <overlap_score>
0.9703485369682312

$$$$
BENZO_118_1
  -OEChem-08232013523D

 55 58  0     0  0  0  0  0  0999 V2000
    4.2460    1.7520   20.8250 C   0  0  0  0  0  0  0  0  0  0  0  0
    3.8860    2.1050   19.5250 C   0  0  0  0  0  0  0  0  0  0  0  0
   13.5938   -0.8759   25.1008 C   0  0  0  0  0  0  0  0  0  0  0  0
    5.3890    1.0010   21.0690 C   0  0  0  0  0  0  0  0  0  0  0  0
   12.4233   -0.1543   24.8669 C   0  0  0  0  0  0  0  0  0  0  0  0
    4.6610    1.7170   18.4380 C   0  0  0  0  0  0  0  0  0  0  0  0
    9.1890   -3.5540   24.0140 C   0  0  0  0  0  0  0  0  0  0  0  0
    7.8700   -2.0610   25.3550 C   0  0  0  0  0  0  0  0  0  0  0  0
    9.5890   -2.4950   23.2210 C   0  0  0  0  0  0  0  0  0  0  0  0
    8.2550   -1.0010   24.5520 C   0  0  0  0  0  0  0  0  0  0  0  0
   14.2619   -1.4847   24.0384 C   0  0  0  0  0  0  0  0  0  0  0  0
   12.5889   -0.6504   22.5081 C   0  0  0  0  0  0  0  0  0  0  0  0
    7.5840   -0.2700   18.5160 C   0  0  0  0  0  0  0  0  0  0  0  0
    6.1460    0.6070   19.9750 C   0  0  0  0  0  0  0  0  0  0  0  0
   11.9208   -0.0415   23.5705 C   0  0  0  0  0  0  0  0  0  0  0  0
    5.7970    0.9500   18.6730 C   0  0  0  0  0  0  0  0  0  0  0  0
    8.3450   -3.3440   25.0980 C   0  0  0  0  0  0  0  0  0  0  0  0
    9.1280   -1.2090   23.4870 C   0  0  0  0  0  0  0  0  0  0  0  0
    7.2710   -0.1460   19.8310 C   0  0  0  0  0  0  0  0  0  0  0  0
   13.7594   -1.3720   22.7421 C   0  0  0  0  0  0  0  0  0  0  0  0
    8.2013   -4.5560   27.2978 C   0  0  0  0  0  0  0  0  0  0  0  0
    9.0430    0.2380   21.4940 C   0  0  0  0  0  0  0  0  0  0  0  0
    7.8868   -6.0872   29.2883 C   0  0  0  0  0  0  0  0  0  0  0  0
   10.6602    0.7344   23.3196 C   0  0  0  0  0  0  0  0  0  0  0  0
    7.6336   -5.8726   27.8069 C   0  0  0  0  0  0  0  0  0  0  0  0
    6.7100    0.3850   17.8100 N   0  0  0  0  0  0  0  0  0  0  0  0
    7.9771   -4.4058   25.9196 N   0  0  0  0  0  0  0  0  0  0  0  0
    8.0950   -0.7700   20.8440 N   0  0  0  0  0  0  0  0  0  0  0  0
    9.5820   -0.1080   22.7000 N   0  0  0  0  0  0  0  0  0  0  0  0
    8.7721   -3.7635   28.0398 O   0  0  0  0  0  0  0  0  0  0  0  0
    9.2950    1.3000   20.9480 O   0  0  0  0  0  0  0  0  0  0  0  0
   14.5836   -2.1243   21.4319 Cl  0  0  0  0  0  0  0  0  0  0  0  0
    3.6208    2.0704   21.6579 H   0  0  0  0  0  0  0  0  0  0  0  0
    2.9857    2.6926   19.3615 H   0  0  0  0  0  0  0  0  0  0  0  0
   13.9846   -0.9636   26.1104 H   0  0  0  0  0  0  0  0  0  0  0  0
    5.6664    0.7407   22.0807 H   0  0  0  0  0  0  0  0  0  0  0  0
   11.9092    0.3167   25.7007 H   0  0  0  0  0  0  0  0  0  0  0  0
    4.3794    2.0106   17.4221 H   0  0  0  0  0  0  0  0  0  0  0  0
    9.5436   -4.5614   23.7799 H   0  0  0  0  0  0  0  0  0  0  0  0
    7.1918   -1.8823   26.1906 H   0  0  0  0  0  0  0  0  0  0  0  0
   10.2676   -2.6754   22.3861 H   0  0  0  0  0  0  0  0  0  0  0  0
    7.8686   -0.0026   24.7598 H   0  0  0  0  0  0  0  0  0  0  0  0
   15.1730   -2.0443   24.2357 H   0  0  0  0  0  0  0  0  0  0  0  0
   12.1934   -0.5591   21.4992 H   0  0  0  0  0  0  0  0  0  0  0  0
    8.4172   -0.8135   18.0384 H   0  0  0  0  0  0  0  0  0  0  0  0
    8.9593   -6.0816   29.5088 H   0  0  0  0  0  0  0  0  0  0  0  0
    7.4767   -7.0496   29.6095 H   0  0  0  0  0  0  0  0  0  0  0  0
    7.4172   -5.2988   29.8857 H   0  0  0  0  0  0  0  0  0  0  0  0
   10.2659    1.1437   24.2561 H   0  0  0  0  0  0  0  0  0  0  0  0
   10.8458    1.5792   22.6481 H   0  0  0  0  0  0  0  0  0  0  0  0
    6.5544   -5.8828   27.6154 H   0  0  0  0  0  0  0  0  0  0  0  0
    8.0875   -6.6908   27.2360 H   0  0  0  0  0  0  0  0  0  0  0  0
    6.6715    0.4865   16.8044 H   0  0  0  0  0  0  0  0  0  0  0  0
    7.4775   -5.1797   25.4664 H   0  0  0  0  0  0  0  0  0  0  0  0
    8.0705   -1.6178   21.0726 H   0  0  0  0  0  0  0  0  0  0  0  0
  1  2  1  0  0  0  0
  1  4  2  0  0  0  0
  2  6  2  0  0  0  0
  3  5  2  0  0  0  0
  3 11  1  0  0  0  0
  4 14  1  0  0  0  0
  5 15  1  0  0  0  0
  6 16  1  0  0  0  0
  7  9  2  0  0  0  0
  7 17  1  0  0  0  0
  8 10  1  0  0  0  0
  8 17  2  0  0  0  0
  9 18  1  0  0  0  0
 10 18  2  0  0  0  0
 11 20  2  0  0  0  0
 12 15  2  0  0  0  0
 12 20  1  0  0  0  0
 13 19  2  0  0  0  0
 13 26  1  0  0  0  0
 14 16  2  0  0  0  0
 14 19  1  0  0  0  0
 15 24  1  0  0  0  0
 16 26  1  0  0  0  0
 17 27  1  0  0  0  0
 18 29  1  0  0  0  0
 19 28  1  0  0  0  0
 20 32  1  0  0  0  0
 21 25  1  0  0  0  0
 21 27  1  0  0  0  0
 21 30  2  0  0  0  0
 22 28  1  0  0  0  0
 22 29  1  0  0  0  0
 22 31  2  0  0  0  0
 23 25  1  0  0  0  0
 24 29  1  0  0  0  0
  1 33  1  0  0  0  0
  2 34  1  0  0  0  0
  3 35  1  0  0  0  0
  4 36  1  0  0  0  0
  5 37  1  0  0  0  0
  6 38  1  0  0  0  0
  7 39  1  0  0  0  0
  8 40  1  0  0  0  0
  9 41  1  0  0  0  0
 10 42  1  0  0  0  0
 11 43  1  0  0  0  0
 12 44  1  0  0  0  0
 13 45  1  0  0  0  0
 23 46  1  0  0  0  0
 23 47  1  0  0  0  0
 23 48  1  0  0  0  0
 24 49  1  0  0  0  0
 24 50  1  0  0  0  0
 25 51  1  0  0  0  0
 25 52  1  0  0  0  0
 26 53  1  0  0  0  0
 27 54  1  0  0  0  0
 28 55  1  0  0  0  0
M  END
> <clash_score>
0

> <docking_score>
-7.699319362640381

> <overlap_score>
1.0035128593444824

$$$$
BENZO_125_1
  -OEChem-08232013523D

 48 51  0     0  0  0  0  0  0999 V2000
   14.2627   -1.4843   24.0360 C   0  0  0  0  0  0  0  0  0  0  0  0
    4.2460    1.7520   20.8250 C   0  0  0  0  0  0  0  0  0  0  0  0
   13.9267   -0.4138   24.8647 C   0  0  0  0  0  0  0  0  0  0  0  0
   13.4277   -1.8334   22.9745 C   0  0  0  0  0  0  0  0  0  0  0  0
    3.8860    2.1050   19.5250 C   0  0  0  0  0  0  0  0  0  0  0  0
    5.3890    1.0010   21.0690 C   0  0  0  0  0  0  0  0  0  0  0  0
   12.7558    0.3076   24.6320 C   0  0  0  0  0  0  0  0  0  0  0  0
   12.2568   -1.1120   22.7418 C   0  0  0  0  0  0  0  0  0  0  0  0
    9.1890   -3.5540   24.0140 C   0  0  0  0  0  0  0  0  0  0  0  0
    7.8700   -2.0610   25.3550 C   0  0  0  0  0  0  0  0  0  0  0  0
    4.6610    1.7170   18.4380 C   0  0  0  0  0  0  0  0  0  0  0  0
    9.5890   -2.4950   23.2210 C   0  0  0  0  0  0  0  0  0  0  0  0
    8.2550   -1.0010   24.5520 C   0  0  0  0  0  0  0  0  0  0  0  0
    7.5840   -0.2700   18.5160 C   0  0  0  0  0  0  0  0  0  0  0  0
    6.1460    0.6070   19.9750 C   0  0  0  0  0  0  0  0  0  0  0  0
    8.3450   -3.3440   25.0980 C   0  0  0  0  0  0  0  0  0  0  0  0
   11.9208   -0.0415   23.5705 C   0  0  0  0  0  0  0  0  0  0  0  0
    5.7970    0.9500   18.6730 C   0  0  0  0  0  0  0  0  0  0  0  0
    9.1280   -1.2090   23.4870 C   0  0  0  0  0  0  0  0  0  0  0  0
    7.2710   -0.1460   19.8310 C   0  0  0  0  0  0  0  0  0  0  0  0
    9.0430    0.2380   21.4940 C   0  0  0  0  0  0  0  0  0  0  0  0
    7.9522   -4.4794   25.9764 C   0  0  0  0  0  0  0  0  0  0  0  0
   10.6602    0.7344   23.3196 C   0  0  0  0  0  0  0  0  0  0  0  0
    6.7100    0.3850   17.8100 N   0  0  0  0  0  0  0  0  0  0  0  0
    8.0950   -0.7700   20.8440 N   0  0  0  0  0  0  0  0  0  0  0  0
    9.5820   -0.1080   22.7000 N   0  0  0  0  0  0  0  0  0  0  0  0
    9.2950    1.3000   20.9480 O   0  0  0  0  0  0  0  0  0  0  0  0
   15.1751   -2.0451   24.2165 H   0  0  0  0  0  0  0  0  0  0  0  0
    3.6208    2.0704   21.6579 H   0  0  0  0  0  0  0  0  0  0  0  0
   14.5773   -0.1411   25.6906 H   0  0  0  0  0  0  0  0  0  0  0  0
   13.6895   -2.6661   22.3285 H   0  0  0  0  0  0  0  0  0  0  0  0
    2.9857    2.6926   19.3615 H   0  0  0  0  0  0  0  0  0  0  0  0
    5.6664    0.7407   22.0807 H   0  0  0  0  0  0  0  0  0  0  0  0
   12.5019    1.1401   25.2829 H   0  0  0  0  0  0  0  0  0  0  0  0
   11.6123   -1.3913   21.9125 H   0  0  0  0  0  0  0  0  0  0  0  0
    9.5403   -4.5627   23.7809 H   0  0  0  0  0  0  0  0  0  0  0  0
    7.1911   -1.8848   26.1904 H   0  0  0  0  0  0  0  0  0  0  0  0
    4.3794    2.0106   17.4221 H   0  0  0  0  0  0  0  0  0  0  0  0
   10.2682   -2.6746   22.3865 H   0  0  0  0  0  0  0  0  0  0  0  0
    7.8684   -0.0022   24.7594 H   0  0  0  0  0  0  0  0  0  0  0  0
    8.4172   -0.8135   18.0384 H   0  0  0  0  0  0  0  0  0  0  0  0
    8.6668   -4.5891   26.8013 H   0  0  0  0  0  0  0  0  0  0  0  0
    6.9513   -4.3276   26.4010 H   0  0  0  0  0  0  0  0  0  0  0  0
    7.9196   -5.4231   25.4163 H   0  0  0  0  0  0  0  0  0  0  0  0
   10.2659    1.1437   24.2561 H   0  0  0  0  0  0  0  0  0  0  0  0
   10.8458    1.5792   22.6481 H   0  0  0  0  0  0  0  0  0  0  0  0
    6.6715    0.4865   16.8044 H   0  0  0  0  0  0  0  0  0  0  0  0
    8.0705   -1.6178   21.0726 H   0  0  0  0  0  0  0  0  0  0  0  0
  1  3  1  0  0  0  0
  1  4  2  0  0  0  0
  2  5  1  0  0  0  0
  2  6  2  0  0  0  0
  3  7  2  0  0  0  0
  4  8  1  0  0  0  0
  5 11  2  0  0  0  0
  6 15  1  0  0  0  0
  7 17  1  0  0  0  0
  8 17  2  0  0  0  0
  9 12  2  0  0  0  0
  9 16  1  0  0  0  0
 10 13  1  0  0  0  0
 10 16  2  0  0  0  0
 11 18  1  0  0  0  0
 12 19  1  0  0  0  0
 13 19  2  0  0  0  0
 14 20  2  0  0  0  0
 14 24  1  0  0  0  0
 15 18  2  0  0  0  0
 15 20  1  0  0  0  0
 16 22  1  0  0  0  0
 17 23  1  0  0  0  0
 18 24  1  0  0  0  0
 19 26  1  0  0  0  0
 20 25  1  0  0  0  0
 21 25  1  0  0  0  0
 21 26  1  0  0  0  0
 21 27  2  0  0  0  0
 23 26  1  0  0  0  0
  1 28  1  0  0  0  0
  2 29  1  0  0  0  0
  3 30  1  0  0  0  0
  4 31  1  0  0  0  0
  5 32  1  0  0  0  0
  6 33  1  0  0  0  0
  7 34  1  0  0  0  0
  8 35  1  0  0  0  0
  9 36  1  0  0  0  0
 10 37  1  0  0  0  0
 11 38  1  0  0  0  0
 12 39  1  0  0  0  0
 13 40  1  0  0  0  0
 14 41  1  0  0  0  0
 22 42  1  0  0  0  0
 22 43  1  0  0  0  0
 22 44  1  0  0  0  0
 23 45  1  0  0  0  0
 23 46  1  0  0  0  0
 24 47  1  0  0  0  0
 25 48  1  0  0  0  0
M  END
> <clash_score>
0

> <docking_score>
-7.91105842590332

> <overlap_score>
0.8930256366729736

$$$$
BENZO_124_1
  -OEChem-08232013523D

 45 48  0     0  0  0  0  0  0999 V2000
    4.2460    1.7520   20.8250 C   0  0  0  0  0  0  0  0  0  0  0  0
    3.8860    2.1050   19.5250 C   0  0  0  0  0  0  0  0  0  0  0  0
    5.3890    1.0010   21.0690 C   0  0  0  0  0  0  0  0  0  0  0  0
    9.1890   -3.5540   24.0140 C   0  0  0  0  0  0  0  0  0  0  0  0
    7.8700   -2.0610   25.3550 C   0  0  0  0  0  0  0  0  0  0  0  0
    4.6610    1.7170   18.4380 C   0  0  0  0  0  0  0  0  0  0  0  0
    9.5890   -2.4950   23.2210 C   0  0  0  0  0  0  0  0  0  0  0  0
    8.2550   -1.0010   24.5520 C   0  0  0  0  0  0  0  0  0  0  0  0
   12.5071   -0.2100   24.8582 C   0  0  0  0  0  0  0  0  0  0  0  0
    7.5840   -0.2700   18.5160 C   0  0  0  0  0  0  0  0  0  0  0  0
   13.6588   -0.9640   24.8077 C   0  0  0  0  0  0  0  0  0  0  0  0
   12.6470   -0.6730   22.5848 C   0  0  0  0  0  0  0  0  0  0  0  0
    6.1460    0.6070   19.9750 C   0  0  0  0  0  0  0  0  0  0  0  0
    8.3450   -3.3440   25.0980 C   0  0  0  0  0  0  0  0  0  0  0  0
   11.9208   -0.0415   23.5705 C   0  0  0  0  0  0  0  0  0  0  0  0
    5.7970    0.9500   18.6730 C   0  0  0  0  0  0  0  0  0  0  0  0
    9.1280   -1.2090   23.4870 C   0  0  0  0  0  0  0  0  0  0  0  0
    7.2710   -0.1460   19.8310 C   0  0  0  0  0  0  0  0  0  0  0  0
    9.0430    0.2380   21.4940 C   0  0  0  0  0  0  0  0  0  0  0  0
    7.9522   -4.4794   25.9764 C   0  0  0  0  0  0  0  0  0  0  0  0
   10.6602    0.7344   23.3196 C   0  0  0  0  0  0  0  0  0  0  0  0
    6.7100    0.3850   17.8100 N   0  0  0  0  0  0  0  0  0  0  0  0
    8.0950   -0.7700   20.8440 N   0  0  0  0  0  0  0  0  0  0  0  0
    9.5820   -0.1080   22.7000 N   0  0  0  0  0  0  0  0  0  0  0  0
    9.2950    1.3000   20.9480 O   0  0  0  0  0  0  0  0  0  0  0  0
   14.0293   -1.4651   23.2127 S   0  0  0  0  0  0  0  0  0  0  0  0
    3.6208    2.0704   21.6579 H   0  0  0  0  0  0  0  0  0  0  0  0
    2.9857    2.6926   19.3615 H   0  0  0  0  0  0  0  0  0  0  0  0
    5.6664    0.7407   22.0807 H   0  0  0  0  0  0  0  0  0  0  0  0
    9.5403   -4.5627   23.7809 H   0  0  0  0  0  0  0  0  0  0  0  0
    7.1911   -1.8848   26.1904 H   0  0  0  0  0  0  0  0  0  0  0  0
    4.3794    2.0106   17.4221 H   0  0  0  0  0  0  0  0  0  0  0  0
   10.2682   -2.6746   22.3865 H   0  0  0  0  0  0  0  0  0  0  0  0
    7.8684   -0.0022   24.7594 H   0  0  0  0  0  0  0  0  0  0  0  0
   12.1079    0.1996   25.7774 H   0  0  0  0  0  0  0  0  0  0  0  0
    8.4172   -0.8135   18.0384 H   0  0  0  0  0  0  0  0  0  0  0  0
   14.3009   -1.2440   25.6308 H   0  0  0  0  0  0  0  0  0  0  0  0
   12.4363   -0.7086   21.5249 H   0  0  0  0  0  0  0  0  0  0  0  0
    8.6668   -4.5891   26.8013 H   0  0  0  0  0  0  0  0  0  0  0  0
    6.9513   -4.3276   26.4010 H   0  0  0  0  0  0  0  0  0  0  0  0
    7.9196   -5.4231   25.4163 H   0  0  0  0  0  0  0  0  0  0  0  0
   10.2659    1.1437   24.2561 H   0  0  0  0  0  0  0  0  0  0  0  0
   10.8458    1.5792   22.6481 H   0  0  0  0  0  0  0  0  0  0  0  0
    6.6715    0.4865   16.8044 H   0  0  0  0  0  0  0  0  0  0  0  0
    8.0705   -1.6178   21.0726 H   0  0  0  0  0  0  0  0  0  0  0  0
  1  2  1  0  0  0  0
  1  3  2  0  0  0  0
  2  6  2  0  0  0  0
  3 13  1  0  0  0  0
  4  7  2  0  0  0  0
  4 14  1  0  0  0  0
  5  8  1  0  0  0  0
  5 14  2  0  0  0  0
  6 16  1  0  0  0  0
  7 17  1  0  0  0  0
  8 17  2  0  0  0  0
  9 11  2  0  0  0  0
  9 15  1  0  0  0  0
 10 18  2  0  0  0  0
 10 22  1  0  0  0  0
 11 26  1  0  0  0  0
 12 15  2  0  0  0  0
 12 26  1  0  0  0  0
 13 16  2  0  0  0  0
 13 18  1  0  0  0  0
 14 20  1  0  0  0  0
 15 21  1  0  0  0  0
 16 22  1  0  0  0  0
 17 24  1  0  0  0  0
 18 23  1  0  0  0  0
 19 23  1  0  0  0  0
 19 24  1  0  0  0  0
 19 25  2  0  0  0  0
 21 24  1  0  0  0  0
  1 27  1  0  0  0  0
  2 28  1  0  0  0  0
  3 29  1  0  0  0  0
  4 30  1  0  0  0  0
  5 31  1  0  0  0  0
  6 32  1  0  0  0  0
  7 33  1  0  0  0  0
  8 34  1  0  0  0  0
  9 35  1  0  0  0  0
 10 36  1  0  0  0  0
 11 37  1  0  0  0  0
 12 38  1  0  0  0  0
 20 39  1  0  0  0  0
 20 40  1  0  0  0  0
 20 41  1  0  0  0  0
 21 42  1  0  0  0  0
 21 43  1  0  0  0  0
 22 44  1  0  0  0  0
 23 45  1  0  0  0  0
M  END
> <clash_score>
0

> <docking_score>
-7.745718002319336

> <overlap_score>
0.8776609301567078

$$$$
BENZO_123_1
  -OEChem-08232013523D

 60 64  0     0  0  0  0  0  0999 V2000
    4.2460    1.7520   20.8250 C   0  0  0  0  0  0  0  0  0  0  0  0
    3.8860    2.1050   19.5250 C   0  0  0  0  0  0  0  0  0  0  0  0
    5.3890    1.0010   21.0690 C   0  0  0  0  0  0  0  0  0  0  0  0
    4.6610    1.7170   18.4380 C   0  0  0  0  0  0  0  0  0  0  0  0
    9.1890   -3.5540   24.0140 C   0  0  0  0  0  0  0  0  0  0  0  0
    7.8700   -2.0610   25.3550 C   0  0  0  0  0  0  0  0  0  0  0  0
    9.5890   -2.4950   23.2210 C   0  0  0  0  0  0  0  0  0  0  0  0
    8.2550   -1.0010   24.5520 C   0  0  0  0  0  0  0  0  0  0  0  0
   13.2516    0.9063   22.9519 C   0  0  0  0  0  0  0  0  0  0  0  0
   12.4136   -1.1249   23.0350 C   0  0  0  0  0  0  0  0  0  0  0  0
    7.5840   -0.2700   18.5160 C   0  0  0  0  0  0  0  0  0  0  0  0
    6.1460    0.6070   19.9750 C   0  0  0  0  0  0  0  0  0  0  0  0
   12.0454    0.1966   23.1039 C   0  0  0  0  0  0  0  0  0  0  0  0
    5.7970    0.9500   18.6730 C   0  0  0  0  0  0  0  0  0  0  0  0
    8.3450   -3.3440   25.0980 C   0  0  0  0  0  0  0  0  0  0  0  0
    9.1280   -1.2090   23.4870 C   0  0  0  0  0  0  0  0  0  0  0  0
    7.2710   -0.1460   19.8310 C   0  0  0  0  0  0  0  0  0  0  0  0
    9.0430    0.2380   21.4940 C   0  0  0  0  0  0  0  0  0  0  0  0
    7.5748   -4.8280   28.7278 C   0  0  0  0  0  0  0  0  0  0  0  0
    8.9776   -4.7555   28.1204 C   0  0  0  0  0  0  0  0  0  0  0  0
    6.5554   -4.0713   27.8732 C   0  0  0  0  0  0  0  0  0  0  0  0
    8.9620   -5.1961   26.6568 C   0  0  0  0  0  0  0  0  0  0  0  0
    6.6009   -4.5253   26.4110 C   0  0  0  0  0  0  0  0  0  0  0  0
   14.6106   -2.2888   22.7229 C   0  0  0  0  0  0  0  0  0  0  0  0
   10.6659    0.7557   23.3001 C   0  0  0  0  0  0  0  0  0  0  0  0
   14.3071    0.1024   22.7982 N   0  0  0  0  0  0  0  0  0  0  0  0
    6.7100    0.3850   17.8100 N   0  0  0  0  0  0  0  0  0  0  0  0
   13.7654   -1.1262   22.8534 N   0  0  0  0  0  0  0  0  0  0  0  0
    7.9770   -4.4029   25.9162 N   0  0  0  0  0  0  0  0  0  0  0  0
    8.0950   -0.7700   20.8440 N   0  0  0  0  0  0  0  0  0  0  0  0
    9.5820   -0.1080   22.7000 N   0  0  0  0  0  0  0  0  0  0  0  0
    9.2950    1.3000   20.9480 O   0  0  0  0  0  0  0  0  0  0  0  0
    3.6208    2.0704   21.6579 H   0  0  0  0  0  0  0  0  0  0  0  0
    2.9857    2.6926   19.3615 H   0  0  0  0  0  0  0  0  0  0  0  0
    5.6664    0.7407   22.0807 H   0  0  0  0  0  0  0  0  0  0  0  0
    4.3794    2.0106   17.4221 H   0  0  0  0  0  0  0  0  0  0  0  0
    9.5426   -4.5618   23.7797 H   0  0  0  0  0  0  0  0  0  0  0  0
    7.1914   -1.8824   26.1903 H   0  0  0  0  0  0  0  0  0  0  0  0
   10.2669   -2.6745   22.3854 H   0  0  0  0  0  0  0  0  0  0  0  0
    7.8690   -0.0020   24.7587 H   0  0  0  0  0  0  0  0  0  0  0  0
   13.4081    1.9758   22.9472 H   0  0  0  0  0  0  0  0  0  0  0  0
   11.8432   -2.0416   23.0995 H   0  0  0  0  0  0  0  0  0  0  0  0
    8.4172   -0.8135   18.0384 H   0  0  0  0  0  0  0  0  0  0  0  0
    7.2681   -5.8807   28.8239 H   0  0  0  0  0  0  0  0  0  0  0  0
    7.5891   -4.4101   29.7448 H   0  0  0  0  0  0  0  0  0  0  0  0
    9.3554   -3.7320   28.1920 H   0  0  0  0  0  0  0  0  0  0  0  0
    9.6558   -5.3943   28.6900 H   0  0  0  0  0  0  0  0  0  0  0  0
    5.5496   -4.2322   28.2751 H   0  0  0  0  0  0  0  0  0  0  0  0
    6.7545   -2.9948   27.9293 H   0  0  0  0  0  0  0  0  0  0  0  0
    9.9612   -5.0560   26.2363 H   0  0  0  0  0  0  0  0  0  0  0  0
    8.7097   -6.2583   26.5922 H   0  0  0  0  0  0  0  0  0  0  0  0
    6.2649   -5.5600   26.3335 H   0  0  0  0  0  0  0  0  0  0  0  0
    5.9271   -3.8964   25.8283 H   0  0  0  0  0  0  0  0  0  0  0  0
   14.6697   -2.5454   21.6619 H   0  0  0  0  0  0  0  0  0  0  0  0
   15.6050   -2.0621   23.1174 H   0  0  0  0  0  0  0  0  0  0  0  0
   14.1787   -3.1155   23.2939 H   0  0  0  0  0  0  0  0  0  0  0  0
   10.4490    0.8829   24.3664 H   0  0  0  0  0  0  0  0  0  0  0  0
   10.5700    1.7396   22.8291 H   0  0  0  0  0  0  0  0  0  0  0  0
    6.6715    0.4865   16.8044 H   0  0  0  0  0  0  0  0  0  0  0  0
    8.0897   -1.6082   21.0890 H   0  0  0  0  0  0  0  0  0  0  0  0
  1  2  1  0  0  0  0
  1  3  2  0  0  0  0
  2  4  2  0  0  0  0
  3 12  1  0  0  0  0
  4 14  1  0  0  0  0
  5  7  2  0  0  0  0
  5 15  1  0  0  0  0
  6  8  1  0  0  0  0
  6 15  2  0  0  0  0
  7 16  1  0  0  0  0
  8 16  2  0  0  0  0
  9 13  1  0  0  0  0
  9 26  2  0  0  0  0
 10 13  2  0  0  0  0
 10 28  1  0  0  0  0
 11 17  2  0  0  0  0
 11 27  1  0  0  0  0
 12 14  2  0  0  0  0
 12 17  1  0  0  0  0
 13 25  1  0  0  0  0
 14 27  1  0  0  0  0
 15 29  1  0  0  0  0
 16 31  1  0  0  0  0
 17 30  1  0  0  0  0
 18 30  1  0  0  0  0
 18 31  1  0  0  0  0
 18 32  2  0  0  0  0
 19 20  1  0  0  0  0
 19 21  1  0  0  0  0
 20 22  1  0  0  0  0
 21 23  1  0  0  0  0
 22 29  1  0  0  0  0
 23 29  1  0  0  0  0
 24 28  1  0  0  0  0
 25 31  1  0  0  0  0
 26 28  1  0  0  0  0
  1 33  1  0  0  0  0
  2 34  1  0  0  0  0
  3 35  1  0  0  0  0
  4 36  1  0  0  0  0
  5 37  1  0  0  0  0
  6 38  1  0  0  0  0
  7 39  1  0  0  0  0
  8 40  1  0  0  0  0
  9 41  1  0  0  0  0
 10 42  1  0  0  0  0
 11 43  1  0  0  0  0
 19 44  1  0  0  0  0
 19 45  1  0  0  0  0
 20 46  1  0  0  0  0
 20 47  1  0  0  0  0
 21 48  1  0  0  0  0
 21 49  1  0  0  0  0
 22 50  1  0  0  0  0
 22 51  1  0  0  0  0
 23 52  1  0  0  0  0
 23 53  1  0  0  0  0
 24 54  1  0  0  0  0
 24 55  1  0  0  0  0
 24 56  1  0  0  0  0
 25 57  1  0  0  0  0
 25 58  1  0  0  0  0
 27 59  1  0  0  0  0
 30 60  1  0  0  0  0
M  END
> <clash_score>
0

> <docking_score>
-9.290445327758789

> <overlap_score>
0.9646736979484558

$$$$
BENZO_122_1
  -OEChem-08232013523D

 60 64  0     0  0  0  0  0  0999 V2000
    4.2460    1.7520   20.8250 C   0  0  0  0  0  0  0  0  0  0  0  0
    3.8860    2.1050   19.5250 C   0  0  0  0  0  0  0  0  0  0  0  0
   13.6798   -0.7441   25.0433 C   0  0  0  0  0  0  0  0  0  0  0  0
    5.3890    1.0010   21.0690 C   0  0  0  0  0  0  0  0  0  0  0  0
   12.4873   -0.0553   24.8224 C   0  0  0  0  0  0  0  0  0  0  0  0
    4.6610    1.7170   18.4380 C   0  0  0  0  0  0  0  0  0  0  0  0
    9.1890   -3.5540   24.0140 C   0  0  0  0  0  0  0  0  0  0  0  0
    7.8700   -2.0610   25.3550 C   0  0  0  0  0  0  0  0  0  0  0  0
    9.5890   -2.4950   23.2210 C   0  0  0  0  0  0  0  0  0  0  0  0
    8.2550   -1.0010   24.5520 C   0  0  0  0  0  0  0  0  0  0  0  0
   14.3355   -1.3627   23.9787 C   0  0  0  0  0  0  0  0  0  0  0  0
   12.6059   -0.6035   22.4724 C   0  0  0  0  0  0  0  0  0  0  0  0
    7.5840   -0.2700   18.5160 C   0  0  0  0  0  0  0  0  0  0  0  0
    6.1460    0.6070   19.9750 C   0  0  0  0  0  0  0  0  0  0  0  0
   11.9503    0.0151   23.5370 C   0  0  0  0  0  0  0  0  0  0  0  0
    5.7970    0.9500   18.6730 C   0  0  0  0  0  0  0  0  0  0  0  0
    8.3450   -3.3440   25.0980 C   0  0  0  0  0  0  0  0  0  0  0  0
    9.1280   -1.2090   23.4870 C   0  0  0  0  0  0  0  0  0  0  0  0
    7.2710   -0.1460   19.8310 C   0  0  0  0  0  0  0  0  0  0  0  0
   13.7985   -1.2924   22.6933 C   0  0  0  0  0  0  0  0  0  0  0  0
    9.0430    0.2380   21.4940 C   0  0  0  0  0  0  0  0  0  0  0  0
    7.5748   -4.8280   28.7278 C   0  0  0  0  0  0  0  0  0  0  0  0
    8.9776   -4.7555   28.1204 C   0  0  0  0  0  0  0  0  0  0  0  0
    6.5554   -4.0713   27.8732 C   0  0  0  0  0  0  0  0  0  0  0  0
    8.9620   -5.1961   26.6568 C   0  0  0  0  0  0  0  0  0  0  0  0
    6.6009   -4.5253   26.4110 C   0  0  0  0  0  0  0  0  0  0  0  0
   10.6659    0.7557   23.3001 C   0  0  0  0  0  0  0  0  0  0  0  0
    6.7100    0.3850   17.8100 N   0  0  0  0  0  0  0  0  0  0  0  0
    7.9770   -4.4029   25.9162 N   0  0  0  0  0  0  0  0  0  0  0  0
    8.0950   -0.7700   20.8440 N   0  0  0  0  0  0  0  0  0  0  0  0
    9.5820   -0.1080   22.7000 N   0  0  0  0  0  0  0  0  0  0  0  0
    9.2950    1.3000   20.9480 O   0  0  0  0  0  0  0  0  0  0  0  0
   14.6073   -2.0567   21.3805 Cl  0  0  0  0  0  0  0  0  0  0  0  0
    3.6208    2.0704   21.6579 H   0  0  0  0  0  0  0  0  0  0  0  0
    2.9857    2.6926   19.3615 H   0  0  0  0  0  0  0  0  0  0  0  0
   14.0976   -0.7988   26.0445 H   0  0  0  0  0  0  0  0  0  0  0  0
    5.6664    0.7407   22.0807 H   0  0  0  0  0  0  0  0  0  0  0  0
   11.9832    0.4236   25.6578 H   0  0  0  0  0  0  0  0  0  0  0  0
    4.3794    2.0106   17.4221 H   0  0  0  0  0  0  0  0  0  0  0  0
    9.5426   -4.5618   23.7797 H   0  0  0  0  0  0  0  0  0  0  0  0
    7.1914   -1.8824   26.1903 H   0  0  0  0  0  0  0  0  0  0  0  0
   10.2669   -2.6745   22.3854 H   0  0  0  0  0  0  0  0  0  0  0  0
    7.8690   -0.0020   24.7587 H   0  0  0  0  0  0  0  0  0  0  0  0
   15.2641   -1.8964   24.1658 H   0  0  0  0  0  0  0  0  0  0  0  0
   12.1834   -0.5454   21.4719 H   0  0  0  0  0  0  0  0  0  0  0  0
    8.4172   -0.8135   18.0384 H   0  0  0  0  0  0  0  0  0  0  0  0
    7.2681   -5.8807   28.8239 H   0  0  0  0  0  0  0  0  0  0  0  0
    7.5891   -4.4101   29.7448 H   0  0  0  0  0  0  0  0  0  0  0  0
    9.3554   -3.7320   28.1920 H   0  0  0  0  0  0  0  0  0  0  0  0
    9.6558   -5.3943   28.6900 H   0  0  0  0  0  0  0  0  0  0  0  0
    5.5496   -4.2322   28.2751 H   0  0  0  0  0  0  0  0  0  0  0  0
    6.7545   -2.9948   27.9293 H   0  0  0  0  0  0  0  0  0  0  0  0
    9.9612   -5.0560   26.2363 H   0  0  0  0  0  0  0  0  0  0  0  0
    8.7097   -6.2583   26.5922 H   0  0  0  0  0  0  0  0  0  0  0  0
    6.2649   -5.5600   26.3335 H   0  0  0  0  0  0  0  0  0  0  0  0
    5.9271   -3.8964   25.8283 H   0  0  0  0  0  0  0  0  0  0  0  0
   10.2856    1.1781   24.2366 H   0  0  0  0  0  0  0  0  0  0  0  0
   10.8149    1.5883   22.6046 H   0  0  0  0  0  0  0  0  0  0  0  0
    6.6715    0.4865   16.8044 H   0  0  0  0  0  0  0  0  0  0  0  0
    8.0897   -1.6082   21.0890 H   0  0  0  0  0  0  0  0  0  0  0  0
  1  2  1  0  0  0  0
  1  4  2  0  0  0  0
  2  6  2  0  0  0  0
  3  5  2  0  0  0  0
  3 11  1  0  0  0  0
  4 14  1  0  0  0  0
  5 15  1  0  0  0  0
  6 16  1  0  0  0  0
  7  9  2  0  0  0  0
  7 17  1  0  0  0  0
  8 10  1  0  0  0  0
  8 17  2  0  0  0  0
  9 18  1  0  0  0  0
 10 18  2  0  0  0  0
 11 20  2  0  0  0  0
 12 15  2  0  0  0  0
 12 20  1  0  0  0  0
 13 19  2  0  0  0  0
 13 28  1  0  0  0  0
 14 16  2  0  0  0  0
 14 19  1  0  0  0  0
 15 27  1  0  0  0  0
 16 28  1  0  0  0  0
 17 29  1  0  0  0  0
 18 31  1  0  0  0  0
 19 30  1  0  0  0  0
 20 33  1  0  0  0  0
 21 30  1  0  0  0  0
 21 31  1  0  0  0  0
 21 32  2  0  0  0  0
 22 23  1  0  0  0  0
 22 24  1  0  0  0  0
 23 25  1  0  0  0  0
 24 26  1  0  0  0  0
 25 29  1  0  0  0  0
 26 29  1  0  0  0  0
 27 31  1  0  0  0  0
  1 34  1  0  0  0  0
  2 35  1  0  0  0  0
  3 36  1  0  0  0  0
  4 37  1  0  0  0  0
  5 38  1  0  0  0  0
  6 39  1  0  0  0  0
  7 40  1  0  0  0  0
  8 41  1  0  0  0  0
  9 42  1  0  0  0  0
 10 43  1  0  0  0  0
 11 44  1  0  0  0  0
 12 45  1  0  0  0  0
 13 46  1  0  0  0  0
 22 47  1  0  0  0  0
 22 48  1  0  0  0  0
 23 49  1  0  0  0  0
 23 50  1  0  0  0  0
 24 51  1  0  0  0  0
 24 52  1  0  0  0  0
 25 53  1  0  0  0  0
 25 54  1  0  0  0  0
 26 55  1  0  0  0  0
 26 56  1  0  0  0  0
 27 57  1  0  0  0  0
 27 58  1  0  0  0  0
 28 59  1  0  0  0  0
 30 60  1  0  0  0  0
M  END
> <clash_score>
0

> <docking_score>
-8.095840454101562

> <overlap_score>
0.9905683398246765

$$$$
BENZO_126_1
  -OEChem-08232013523D

 48 51  0     0  0  0  0  0  0999 V2000
    4.2460    1.7520   20.8250 C   0  0  0  0  0  0  0  0  0  0  0  0
    3.8860    2.1050   19.5250 C   0  0  0  0  0  0  0  0  0  0  0  0
   13.5938   -0.8759   25.1008 C   0  0  0  0  0  0  0  0  0  0  0  0
    5.3890    1.0010   21.0690 C   0  0  0  0  0  0  0  0  0  0  0  0
   12.4233   -0.1543   24.8669 C   0  0  0  0  0  0  0  0  0  0  0  0
    9.1890   -3.5540   24.0140 C   0  0  0  0  0  0  0  0  0  0  0  0
    7.8700   -2.0610   25.3550 C   0  0  0  0  0  0  0  0  0  0  0  0
    4.6610    1.7170   18.4380 C   0  0  0  0  0  0  0  0  0  0  0  0
    9.5890   -2.4950   23.2210 C   0  0  0  0  0  0  0  0  0  0  0  0
    8.2550   -1.0010   24.5520 C   0  0  0  0  0  0  0  0  0  0  0  0
   14.2619   -1.4847   24.0384 C   0  0  0  0  0  0  0  0  0  0  0  0
   12.5889   -0.6504   22.5081 C   0  0  0  0  0  0  0  0  0  0  0  0
    7.5840   -0.2700   18.5160 C   0  0  0  0  0  0  0  0  0  0  0  0
    6.1460    0.6070   19.9750 C   0  0  0  0  0  0  0  0  0  0  0  0
    8.3450   -3.3440   25.0980 C   0  0  0  0  0  0  0  0  0  0  0  0
   11.9208   -0.0415   23.5705 C   0  0  0  0  0  0  0  0  0  0  0  0
    5.7970    0.9500   18.6730 C   0  0  0  0  0  0  0  0  0  0  0  0
    9.1280   -1.2090   23.4870 C   0  0  0  0  0  0  0  0  0  0  0  0
    7.2710   -0.1460   19.8310 C   0  0  0  0  0  0  0  0  0  0  0  0
   13.7594   -1.3720   22.7421 C   0  0  0  0  0  0  0  0  0  0  0  0
    9.0430    0.2380   21.4940 C   0  0  0  0  0  0  0  0  0  0  0  0
    7.9522   -4.4794   25.9764 C   0  0  0  0  0  0  0  0  0  0  0  0
   10.6602    0.7344   23.3196 C   0  0  0  0  0  0  0  0  0  0  0  0
    6.7100    0.3850   17.8100 N   0  0  0  0  0  0  0  0  0  0  0  0
    8.0950   -0.7700   20.8440 N   0  0  0  0  0  0  0  0  0  0  0  0
    9.5820   -0.1080   22.7000 N   0  0  0  0  0  0  0  0  0  0  0  0
    9.2950    1.3000   20.9480 O   0  0  0  0  0  0  0  0  0  0  0  0
   14.5836   -2.1243   21.4319 Cl  0  0  0  0  0  0  0  0  0  0  0  0
    3.6208    2.0704   21.6579 H   0  0  0  0  0  0  0  0  0  0  0  0
    2.9857    2.6926   19.3615 H   0  0  0  0  0  0  0  0  0  0  0  0
   13.9846   -0.9636   26.1104 H   0  0  0  0  0  0  0  0  0  0  0  0
    5.6664    0.7407   22.0807 H   0  0  0  0  0  0  0  0  0  0  0  0
   11.9092    0.3167   25.7007 H   0  0  0  0  0  0  0  0  0  0  0  0
    9.5403   -4.5627   23.7809 H   0  0  0  0  0  0  0  0  0  0  0  0
    7.1911   -1.8848   26.1904 H   0  0  0  0  0  0  0  0  0  0  0  0
    4.3794    2.0106   17.4221 H   0  0  0  0  0  0  0  0  0  0  0  0
   10.2682   -2.6746   22.3865 H   0  0  0  0  0  0  0  0  0  0  0  0
    7.8684   -0.0022   24.7594 H   0  0  0  0  0  0  0  0  0  0  0  0
   15.1730   -2.0443   24.2357 H   0  0  0  0  0  0  0  0  0  0  0  0
   12.1934   -0.5591   21.4992 H   0  0  0  0  0  0  0  0  0  0  0  0
    8.4172   -0.8135   18.0384 H   0  0  0  0  0  0  0  0  0  0  0  0
    8.6668   -4.5891   26.8013 H   0  0  0  0  0  0  0  0  0  0  0  0
    6.9513   -4.3276   26.4010 H   0  0  0  0  0  0  0  0  0  0  0  0
    7.9196   -5.4231   25.4163 H   0  0  0  0  0  0  0  0  0  0  0  0
   10.2659    1.1437   24.2561 H   0  0  0  0  0  0  0  0  0  0  0  0
   10.8458    1.5792   22.6481 H   0  0  0  0  0  0  0  0  0  0  0  0
    6.6715    0.4865   16.8044 H   0  0  0  0  0  0  0  0  0  0  0  0
    8.0705   -1.6178   21.0726 H   0  0  0  0  0  0  0  0  0  0  0  0
  1  2  1  0  0  0  0
  1  4  2  0  0  0  0
  2  8  2  0  0  0  0
  3  5  2  0  0  0  0
  3 11  1  0  0  0  0
  4 14  1  0  0  0  0
  5 16  1  0  0  0  0
  6  9  2  0  0  0  0
  6 15  1  0  0  0  0
  7 10  1  0  0  0  0
  7 15  2  0  0  0  0
  8 17  1  0  0  0  0
  9 18  1  0  0  0  0
 10 18  2  0  0  0  0
 11 20  2  0  0  0  0
 12 16  2  0  0  0  0
 12 20  1  0  0  0  0
 13 19  2  0  0  0  0
 13 24  1  0  0  0  0
 14 17  2  0  0  0  0
 14 19  1  0  0  0  0
 15 22  1  0  0  0  0
 16 23  1  0  0  0  0
 17 24  1  0  0  0  0
 18 26  1  0  0  0  0
 19 25  1  0  0  0  0
 20 28  1  0  0  0  0
 21 25  1  0  0  0  0
 21 26  1  0  0  0  0
 21 27  2  0  0  0  0
 23 26  1  0  0  0  0
  1 29  1  0  0  0  0
  2 30  1  0  0  0  0
  3 31  1  0  0  0  0
  4 32  1  0  0  0  0
  5 33  1  0  0  0  0
  6 34  1  0  0  0  0
  7 35  1  0  0  0  0
  8 36  1  0  0  0  0
  9 37  1  0  0  0  0
 10 38  1  0  0  0  0
 11 39  1  0  0  0  0
 12 40  1  0  0  0  0
 13 41  1  0  0  0  0
 22 42  1  0  0  0  0
 22 43  1  0  0  0  0
 22 44  1  0  0  0  0
 23 45  1  0  0  0  0
 23 46  1  0  0  0  0
 24 47  1  0  0  0  0
 25 48  1  0  0  0  0
M  END
> <clash_score>
0

> <docking_score>
-7.157863616943359

> <overlap_score>
0.9028361439704895

$$$$
BENZO_127_1
  -OEChem-08232013523D

 48 51  0     0  0  0  0  0  0999 V2000
    4.2460    1.7520   20.8250 C   0  0  0  0  0  0  0  0  0  0  0  0
    3.8860    2.1050   19.5250 C   0  0  0  0  0  0  0  0  0  0  0  0
    5.3890    1.0010   21.0690 C   0  0  0  0  0  0  0  0  0  0  0  0
    9.1890   -3.5540   24.0140 C   0  0  0  0  0  0  0  0  0  0  0  0
    7.8700   -2.0610   25.3550 C   0  0  0  0  0  0  0  0  0  0  0  0
    4.6610    1.7170   18.4380 C   0  0  0  0  0  0  0  0  0  0  0  0
    9.5890   -2.4950   23.2210 C   0  0  0  0  0  0  0  0  0  0  0  0
    8.2550   -1.0010   24.5520 C   0  0  0  0  0  0  0  0  0  0  0  0
   13.0159    0.3264   24.3751 C   0  0  0  0  0  0  0  0  0  0  0  0
   12.2628   -1.2729   23.0673 C   0  0  0  0  0  0  0  0  0  0  0  0
    7.5840   -0.2700   18.5160 C   0  0  0  0  0  0  0  0  0  0  0  0
    6.1460    0.6070   19.9750 C   0  0  0  0  0  0  0  0  0  0  0  0
    8.3450   -3.3440   25.0980 C   0  0  0  0  0  0  0  0  0  0  0  0
   11.9208   -0.0415   23.5705 C   0  0  0  0  0  0  0  0  0  0  0  0
    5.7970    0.9500   18.6730 C   0  0  0  0  0  0  0  0  0  0  0  0
    9.1280   -1.2090   23.4870 C   0  0  0  0  0  0  0  0  0  0  0  0
    7.2710   -0.1460   19.8310 C   0  0  0  0  0  0  0  0  0  0  0  0
    9.0430    0.2380   21.4940 C   0  0  0  0  0  0  0  0  0  0  0  0
    7.9522   -4.4794   25.9764 C   0  0  0  0  0  0  0  0  0  0  0  0
   14.2694   -2.7492   23.3370 C   0  0  0  0  0  0  0  0  0  0  0  0
   10.6602    0.7344   23.3196 C   0  0  0  0  0  0  0  0  0  0  0  0
   13.9812   -0.5967   24.3854 N   0  0  0  0  0  0  0  0  0  0  0  0
    6.7100    0.3850   17.8100 N   0  0  0  0  0  0  0  0  0  0  0  0
   13.4938   -1.5568   23.5812 N   0  0  0  0  0  0  0  0  0  0  0  0
    8.0950   -0.7700   20.8440 N   0  0  0  0  0  0  0  0  0  0  0  0
    9.5820   -0.1080   22.7000 N   0  0  0  0  0  0  0  0  0  0  0  0
    9.2950    1.3000   20.9480 O   0  0  0  0  0  0  0  0  0  0  0  0
    3.6208    2.0704   21.6579 H   0  0  0  0  0  0  0  0  0  0  0  0
    2.9857    2.6926   19.3615 H   0  0  0  0  0  0  0  0  0  0  0  0
    5.6664    0.7407   22.0807 H   0  0  0  0  0  0  0  0  0  0  0  0
    9.5403   -4.5627   23.7809 H   0  0  0  0  0  0  0  0  0  0  0  0
    7.1911   -1.8848   26.1904 H   0  0  0  0  0  0  0  0  0  0  0  0
    4.3794    2.0106   17.4221 H   0  0  0  0  0  0  0  0  0  0  0  0
   10.2682   -2.6746   22.3865 H   0  0  0  0  0  0  0  0  0  0  0  0
    7.8684   -0.0022   24.7594 H   0  0  0  0  0  0  0  0  0  0  0  0
   13.1526    1.2276   24.9559 H   0  0  0  0  0  0  0  0  0  0  0  0
   11.7473   -1.9549   22.4048 H   0  0  0  0  0  0  0  0  0  0  0  0
    8.4172   -0.8135   18.0384 H   0  0  0  0  0  0  0  0  0  0  0  0
    8.6668   -4.5891   26.8013 H   0  0  0  0  0  0  0  0  0  0  0  0
    6.9513   -4.3276   26.4010 H   0  0  0  0  0  0  0  0  0  0  0  0
    7.9196   -5.4231   25.4163 H   0  0  0  0  0  0  0  0  0  0  0  0
   14.8983   -2.5690   22.4612 H   0  0  0  0  0  0  0  0  0  0  0  0
   14.8869   -2.9676   24.2127 H   0  0  0  0  0  0  0  0  0  0  0  0
   13.5932   -3.5896   23.1571 H   0  0  0  0  0  0  0  0  0  0  0  0
   10.2659    1.1437   24.2561 H   0  0  0  0  0  0  0  0  0  0  0  0
   10.8458    1.5792   22.6481 H   0  0  0  0  0  0  0  0  0  0  0  0
    6.6715    0.4865   16.8044 H   0  0  0  0  0  0  0  0  0  0  0  0
    8.0705   -1.6178   21.0726 H   0  0  0  0  0  0  0  0  0  0  0  0
  1  2  1  0  0  0  0
  1  3  2  0  0  0  0
  2  6  2  0  0  0  0
  3 12  1  0  0  0  0
  4  7  2  0  0  0  0
  4 13  1  0  0  0  0
  5  8  1  0  0  0  0
  5 13  2  0  0  0  0
  6 15  1  0  0  0  0
  7 16  1  0  0  0  0
  8 16  2  0  0  0  0
  9 14  1  0  0  0  0
  9 22  2  0  0  0  0
 10 14  2  0  0  0  0
 10 24  1  0  0  0  0
 11 17  2  0  0  0  0
 11 23  1  0  0  0  0
 12 15  2  0  0  0  0
 12 17  1  0  0  0  0
 13 19  1  0  0  0  0
 14 21  1  0  0  0  0
 15 23  1  0  0  0  0
 16 26  1  0  0  0  0
 17 25  1  0  0  0  0
 18 25  1  0  0  0  0
 18 26  1  0  0  0  0
 18 27  2  0  0  0  0
 20 24  1  0  0  0  0
 21 26  1  0  0  0  0
 22 24  1  0  0  0  0
  1 28  1  0  0  0  0
  2 29  1  0  0  0  0
  3 30  1  0  0  0  0
  4 31  1  0  0  0  0
  5 32  1  0  0  0  0
  6 33  1  0  0  0  0
  7 34  1  0  0  0  0
  8 35  1  0  0  0  0
  9 36  1  0  0  0  0
 10 37  1  0  0  0  0
 11 38  1  0  0  0  0
 19 39  1  0  0  0  0
 19 40  1  0  0  0  0
 19 41  1  0  0  0  0
 20 42  1  0  0  0  0
 20 43  1  0  0  0  0
 20 44  1  0  0  0  0
 21 45  1  0  0  0  0
 21 46  1  0  0  0  0
 23 47  1  0  0  0  0
 25 48  1  0  0  0  0
M  END
> <clash_score>
0

> <docking_score>
-7.21687126159668

> <overlap_score>
0.8881940245628357

$$$$
BENZO_129_1
  -OEChem-08232013523D

 49 52  0     0  0  0  0  0  0999 V2000
   14.2627   -1.4843   24.0360 C   0  0  0  0  0  0  0  0  0  0  0  0
    4.2460    1.7520   20.8250 C   0  0  0  0  0  0  0  0  0  0  0  0
   13.9267   -0.4138   24.8647 C   0  0  0  0  0  0  0  0  0  0  0  0
   13.4277   -1.8334   22.9745 C   0  0  0  0  0  0  0  0  0  0  0  0
    3.8860    2.1050   19.5250 C   0  0  0  0  0  0  0  0  0  0  0  0
    5.3890    1.0010   21.0690 C   0  0  0  0  0  0  0  0  0  0  0  0
   12.7558    0.3076   24.6320 C   0  0  0  0  0  0  0  0  0  0  0  0
   12.2568   -1.1120   22.7418 C   0  0  0  0  0  0  0  0  0  0  0  0
    4.6610    1.7170   18.4380 C   0  0  0  0  0  0  0  0  0  0  0  0
    9.5890   -2.4950   23.2210 C   0  0  0  0  0  0  0  0  0  0  0  0
    8.2550   -1.0010   24.5520 C   0  0  0  0  0  0  0  0  0  0  0  0
    9.1890   -3.5540   24.0140 C   0  0  0  0  0  0  0  0  0  0  0  0
    7.8700   -2.0610   25.3550 C   0  0  0  0  0  0  0  0  0  0  0  0
    7.5840   -0.2700   18.5160 C   0  0  0  0  0  0  0  0  0  0  0  0
    6.1460    0.6070   19.9750 C   0  0  0  0  0  0  0  0  0  0  0  0
   11.9208   -0.0415   23.5705 C   0  0  0  0  0  0  0  0  0  0  0  0
    5.7970    0.9500   18.6730 C   0  0  0  0  0  0  0  0  0  0  0  0
    9.1280   -1.2090   23.4870 C   0  0  0  0  0  0  0  0  0  0  0  0
    7.2710   -0.1460   19.8310 C   0  0  0  0  0  0  0  0  0  0  0  0
    8.3450   -3.3440   25.0980 C   0  0  0  0  0  0  0  0  0  0  0  0
    9.0430    0.2380   21.4940 C   0  0  0  0  0  0  0  0  0  0  0  0
    8.5123   -5.6657   25.5744 C   0  0  0  0  0  0  0  0  0  0  0  0
   10.6602    0.7344   23.3196 C   0  0  0  0  0  0  0  0  0  0  0  0
    6.7100    0.3850   17.8100 N   0  0  0  0  0  0  0  0  0  0  0  0
    8.0950   -0.7700   20.8440 N   0  0  0  0  0  0  0  0  0  0  0  0
    9.5820   -0.1080   22.7000 N   0  0  0  0  0  0  0  0  0  0  0  0
    9.2950    1.3000   20.9480 O   0  0  0  0  0  0  0  0  0  0  0  0
    7.9864   -4.3799   25.8996 O   0  0  0  0  0  0  0  0  0  0  0  0
   15.1751   -2.0451   24.2165 H   0  0  0  0  0  0  0  0  0  0  0  0
    3.6208    2.0704   21.6579 H   0  0  0  0  0  0  0  0  0  0  0  0
   14.5773   -0.1411   25.6906 H   0  0  0  0  0  0  0  0  0  0  0  0
   13.6895   -2.6661   22.3285 H   0  0  0  0  0  0  0  0  0  0  0  0
    2.9857    2.6926   19.3615 H   0  0  0  0  0  0  0  0  0  0  0  0
    5.6664    0.7407   22.0807 H   0  0  0  0  0  0  0  0  0  0  0  0
   12.5019    1.1401   25.2829 H   0  0  0  0  0  0  0  0  0  0  0  0
   11.6123   -1.3913   21.9125 H   0  0  0  0  0  0  0  0  0  0  0  0
    4.3794    2.0106   17.4221 H   0  0  0  0  0  0  0  0  0  0  0  0
   10.2678   -2.6746   22.3862 H   0  0  0  0  0  0  0  0  0  0  0  0
    7.8691   -0.0023   24.7606 H   0  0  0  0  0  0  0  0  0  0  0  0
    9.5404   -4.5633   23.7846 H   0  0  0  0  0  0  0  0  0  0  0  0
    7.1920   -1.8875   26.1914 H   0  0  0  0  0  0  0  0  0  0  0  0
    8.4172   -0.8135   18.0384 H   0  0  0  0  0  0  0  0  0  0  0  0
    8.1469   -6.4023   26.2941 H   0  0  0  0  0  0  0  0  0  0  0  0
    9.6044   -5.6298   25.5962 H   0  0  0  0  0  0  0  0  0  0  0  0
    8.1788   -5.9428   24.5716 H   0  0  0  0  0  0  0  0  0  0  0  0
   10.2659    1.1437   24.2561 H   0  0  0  0  0  0  0  0  0  0  0  0
   10.8458    1.5792   22.6481 H   0  0  0  0  0  0  0  0  0  0  0  0
    6.6715    0.4865   16.8044 H   0  0  0  0  0  0  0  0  0  0  0  0
    8.0705   -1.6178   21.0726 H   0  0  0  0  0  0  0  0  0  0  0  0
  1  3  1  0  0  0  0
  1  4  2  0  0  0  0
  2  5  1  0  0  0  0
  2  6  2  0  0  0  0
  3  7  2  0  0  0  0
  4  8  1  0  0  0  0
  5  9  2  0  0  0  0
  6 15  1  0  0  0  0
  7 16  1  0  0  0  0
  8 16  2  0  0  0  0
  9 17  1  0  0  0  0
 10 12  2  0  0  0  0
 10 18  1  0  0  0  0
 11 13  1  0  0  0  0
 11 18  2  0  0  0  0
 12 20  1  0  0  0  0
 13 20  2  0  0  0  0
 14 19  2  0  0  0  0
 14 24  1  0  0  0  0
 15 17  2  0  0  0  0
 15 19  1  0  0  0  0
 16 23  1  0  0  0  0
 17 24  1  0  0  0  0
 18 26  1  0  0  0  0
 19 25  1  0  0  0  0
 20 28  1  0  0  0  0
 21 25  1  0  0  0  0
 21 26  1  0  0  0  0
 21 27  2  0  0  0  0
 22 28  1  0  0  0  0
 23 26  1  0  0  0  0
  1 29  1  0  0  0  0
  2 30  1  0  0  0  0
  3 31  1  0  0  0  0
  4 32  1  0  0  0  0
  5 33  1  0  0  0  0
  6 34  1  0  0  0  0
  7 35  1  0  0  0  0
  8 36  1  0  0  0  0
  9 37  1  0  0  0  0
 10 38  1  0  0  0  0
 11 39  1  0  0  0  0
 12 40  1  0  0  0  0
 13 41  1  0  0  0  0
 14 42  1  0  0  0  0
 22 43  1  0  0  0  0
 22 44  1  0  0  0  0
 22 45  1  0  0  0  0
 23 46  1  0  0  0  0
 23 47  1  0  0  0  0
 24 48  1  0  0  0  0
 25 49  1  0  0  0  0
M  END
> <clash_score>
0

> <docking_score>
-8.031238555908203

> <overlap_score>
0.9063092470169067

$$$$
BENZO_128_1
  -OEChem-08232013523D

 46 49  0     0  0  0  0  0  0999 V2000
    4.2460    1.7520   20.8250 C   0  0  0  0  0  0  0  0  0  0  0  0
    3.8860    2.1050   19.5250 C   0  0  0  0  0  0  0  0  0  0  0  0
    5.3890    1.0010   21.0690 C   0  0  0  0  0  0  0  0  0  0  0  0
    4.6610    1.7170   18.4380 C   0  0  0  0  0  0  0  0  0  0  0  0
    9.5890   -2.4950   23.2210 C   0  0  0  0  0  0  0  0  0  0  0  0
    8.2550   -1.0010   24.5520 C   0  0  0  0  0  0  0  0  0  0  0  0
    9.1890   -3.5540   24.0140 C   0  0  0  0  0  0  0  0  0  0  0  0
    7.8700   -2.0610   25.3550 C   0  0  0  0  0  0  0  0  0  0  0  0
   12.6688   -0.6942   22.5485 C   0  0  0  0  0  0  0  0  0  0  0  0
    7.5840   -0.2700   18.5160 C   0  0  0  0  0  0  0  0  0  0  0  0
   13.7812   -1.3338   23.0496 C   0  0  0  0  0  0  0  0  0  0  0  0
   12.4900   -0.2073   24.8141 C   0  0  0  0  0  0  0  0  0  0  0  0
    6.1460    0.6070   19.9750 C   0  0  0  0  0  0  0  0  0  0  0  0
   11.9208   -0.0415   23.5705 C   0  0  0  0  0  0  0  0  0  0  0  0
    5.7970    0.9500   18.6730 C   0  0  0  0  0  0  0  0  0  0  0  0
    9.1280   -1.2090   23.4870 C   0  0  0  0  0  0  0  0  0  0  0  0
    7.2710   -0.1460   19.8310 C   0  0  0  0  0  0  0  0  0  0  0  0
    8.3450   -3.3440   25.0980 C   0  0  0  0  0  0  0  0  0  0  0  0
    9.0430    0.2380   21.4940 C   0  0  0  0  0  0  0  0  0  0  0  0
    8.5123   -5.6657   25.5744 C   0  0  0  0  0  0  0  0  0  0  0  0
   10.6602    0.7344   23.3196 C   0  0  0  0  0  0  0  0  0  0  0  0
    6.7100    0.3850   17.8100 N   0  0  0  0  0  0  0  0  0  0  0  0
    8.0950   -0.7700   20.8440 N   0  0  0  0  0  0  0  0  0  0  0  0
    9.5820   -0.1080   22.7000 N   0  0  0  0  0  0  0  0  0  0  0  0
    9.2950    1.3000   20.9480 O   0  0  0  0  0  0  0  0  0  0  0  0
    7.9864   -4.3799   25.8996 O   0  0  0  0  0  0  0  0  0  0  0  0
   13.9203   -1.1463   24.7460 S   0  0  0  0  0  0  0  0  0  0  0  0
    3.6208    2.0704   21.6579 H   0  0  0  0  0  0  0  0  0  0  0  0
    2.9857    2.6926   19.3615 H   0  0  0  0  0  0  0  0  0  0  0  0
    5.6664    0.7407   22.0807 H   0  0  0  0  0  0  0  0  0  0  0  0
    4.3794    2.0106   17.4221 H   0  0  0  0  0  0  0  0  0  0  0  0
   10.2678   -2.6746   22.3862 H   0  0  0  0  0  0  0  0  0  0  0  0
    7.8691   -0.0023   24.7606 H   0  0  0  0  0  0  0  0  0  0  0  0
    9.5404   -4.5633   23.7846 H   0  0  0  0  0  0  0  0  0  0  0  0
    7.1920   -1.8875   26.1914 H   0  0  0  0  0  0  0  0  0  0  0  0
   12.4076   -0.6974   21.4977 H   0  0  0  0  0  0  0  0  0  0  0  0
    8.4172   -0.8135   18.0384 H   0  0  0  0  0  0  0  0  0  0  0  0
   14.5184   -1.9027   22.5009 H   0  0  0  0  0  0  0  0  0  0  0  0
   12.1370    0.1752   25.7618 H   0  0  0  0  0  0  0  0  0  0  0  0
    8.1469   -6.4023   26.2941 H   0  0  0  0  0  0  0  0  0  0  0  0
    9.6044   -5.6298   25.5962 H   0  0  0  0  0  0  0  0  0  0  0  0
    8.1788   -5.9428   24.5716 H   0  0  0  0  0  0  0  0  0  0  0  0
   10.2659    1.1437   24.2561 H   0  0  0  0  0  0  0  0  0  0  0  0
   10.8458    1.5792   22.6481 H   0  0  0  0  0  0  0  0  0  0  0  0
    6.6715    0.4865   16.8044 H   0  0  0  0  0  0  0  0  0  0  0  0
    8.0705   -1.6178   21.0726 H   0  0  0  0  0  0  0  0  0  0  0  0
  1  2  1  0  0  0  0
  1  3  2  0  0  0  0
  2  4  2  0  0  0  0
  3 13  1  0  0  0  0
  4 15  1  0  0  0  0
  5  7  2  0  0  0  0
  5 16  1  0  0  0  0
  6  8  1  0  0  0  0
  6 16  2  0  0  0  0
  7 18  1  0  0  0  0
  8 18  2  0  0  0  0
  9 11  2  0  0  0  0
  9 14  1  0  0  0  0
 10 17  2  0  0  0  0
 10 22  1  0  0  0  0
 11 27  1  0  0  0  0
 12 14  2  0  0  0  0
 12 27  1  0  0  0  0
 13 15  2  0  0  0  0
 13 17  1  0  0  0  0
 14 21  1  0  0  0  0
 15 22  1  0  0  0  0
 16 24  1  0  0  0  0
 17 23  1  0  0  0  0
 18 26  1  0  0  0  0
 19 23  1  0  0  0  0
 19 24  1  0  0  0  0
 19 25  2  0  0  0  0
 20 26  1  0  0  0  0
 21 24  1  0  0  0  0
  1 28  1  0  0  0  0
  2 29  1  0  0  0  0
  3 30  1  0  0  0  0
  4 31  1  0  0  0  0
  5 32  1  0  0  0  0
  6 33  1  0  0  0  0
  7 34  1  0  0  0  0
  8 35  1  0  0  0  0
  9 36  1  0  0  0  0
 10 37  1  0  0  0  0
 11 38  1  0  0  0  0
 12 39  1  0  0  0  0
 20 40  1  0  0  0  0
 20 41  1  0  0  0  0
 20 42  1  0  0  0  0
 21 43  1  0  0  0  0
 21 44  1  0  0  0  0
 22 45  1  0  0  0  0
 23 46  1  0  0  0  0
M  END
> <clash_score>
0

> <docking_score>
-7.819762229919434

> <overlap_score>
0.8938132524490356

$$$$
BENZO_130_1
  -OEChem-08232013523D

 49 52  0     0  0  0  0  0  0999 V2000
    4.2460    1.7520   20.8250 C   0  0  0  0  0  0  0  0  0  0  0  0
    3.8860    2.1050   19.5250 C   0  0  0  0  0  0  0  0  0  0  0  0
   13.5938   -0.8759   25.1008 C   0  0  0  0  0  0  0  0  0  0  0  0
    5.3890    1.0010   21.0690 C   0  0  0  0  0  0  0  0  0  0  0  0
   12.4233   -0.1543   24.8669 C   0  0  0  0  0  0  0  0  0  0  0  0
    4.6610    1.7170   18.4380 C   0  0  0  0  0  0  0  0  0  0  0  0
    9.5890   -2.4950   23.2210 C   0  0  0  0  0  0  0  0  0  0  0  0
    8.2550   -1.0010   24.5520 C   0  0  0  0  0  0  0  0  0  0  0  0
    9.1890   -3.5540   24.0140 C   0  0  0  0  0  0  0  0  0  0  0  0
    7.8700   -2.0610   25.3550 C   0  0  0  0  0  0  0  0  0  0  0  0
   14.2619   -1.4847   24.0384 C   0  0  0  0  0  0  0  0  0  0  0  0
   12.5889   -0.6504   22.5081 C   0  0  0  0  0  0  0  0  0  0  0  0
    7.5840   -0.2700   18.5160 C   0  0  0  0  0  0  0  0  0  0  0  0
    6.1460    0.6070   19.9750 C   0  0  0  0  0  0  0  0  0  0  0  0
   11.9208   -0.0415   23.5705 C   0  0  0  0  0  0  0  0  0  0  0  0
    5.7970    0.9500   18.6730 C   0  0  0  0  0  0  0  0  0  0  0  0
    9.1280   -1.2090   23.4870 C   0  0  0  0  0  0  0  0  0  0  0  0
    7.2710   -0.1460   19.8310 C   0  0  0  0  0  0  0  0  0  0  0  0
    8.3450   -3.3440   25.0980 C   0  0  0  0  0  0  0  0  0  0  0  0
   13.7594   -1.3720   22.7421 C   0  0  0  0  0  0  0  0  0  0  0  0
    9.0430    0.2380   21.4940 C   0  0  0  0  0  0  0  0  0  0  0  0
    8.5123   -5.6657   25.5744 C   0  0  0  0  0  0  0  0  0  0  0  0
   10.6602    0.7344   23.3196 C   0  0  0  0  0  0  0  0  0  0  0  0
    6.7100    0.3850   17.8100 N   0  0  0  0  0  0  0  0  0  0  0  0
    8.0950   -0.7700   20.8440 N   0  0  0  0  0  0  0  0  0  0  0  0
    9.5820   -0.1080   22.7000 N   0  0  0  0  0  0  0  0  0  0  0  0
    9.2950    1.3000   20.9480 O   0  0  0  0  0  0  0  0  0  0  0  0
    7.9864   -4.3799   25.8996 O   0  0  0  0  0  0  0  0  0  0  0  0
   14.5836   -2.1243   21.4319 Cl  0  0  0  0  0  0  0  0  0  0  0  0
    3.6208    2.0704   21.6579 H   0  0  0  0  0  0  0  0  0  0  0  0
    2.9857    2.6926   19.3615 H   0  0  0  0  0  0  0  0  0  0  0  0
   13.9846   -0.9636   26.1104 H   0  0  0  0  0  0  0  0  0  0  0  0
    5.6664    0.7407   22.0807 H   0  0  0  0  0  0  0  0  0  0  0  0
   11.9092    0.3167   25.7007 H   0  0  0  0  0  0  0  0  0  0  0  0
    4.3794    2.0106   17.4221 H   0  0  0  0  0  0  0  0  0  0  0  0
   10.2678   -2.6746   22.3862 H   0  0  0  0  0  0  0  0  0  0  0  0
    7.8691   -0.0023   24.7606 H   0  0  0  0  0  0  0  0  0  0  0  0
    9.5404   -4.5633   23.7846 H   0  0  0  0  0  0  0  0  0  0  0  0
    7.1920   -1.8875   26.1914 H   0  0  0  0  0  0  0  0  0  0  0  0
   15.1730   -2.0443   24.2357 H   0  0  0  0  0  0  0  0  0  0  0  0
   12.1934   -0.5591   21.4992 H   0  0  0  0  0  0  0  0  0  0  0  0
    8.4172   -0.8135   18.0384 H   0  0  0  0  0  0  0  0  0  0  0  0
    8.1469   -6.4023   26.2941 H   0  0  0  0  0  0  0  0  0  0  0  0
    9.6044   -5.6298   25.5962 H   0  0  0  0  0  0  0  0  0  0  0  0
    8.1788   -5.9428   24.5716 H   0  0  0  0  0  0  0  0  0  0  0  0
   10.2659    1.1437   24.2561 H   0  0  0  0  0  0  0  0  0  0  0  0
   10.8458    1.5792   22.6481 H   0  0  0  0  0  0  0  0  0  0  0  0
    6.6715    0.4865   16.8044 H   0  0  0  0  0  0  0  0  0  0  0  0
    8.0705   -1.6178   21.0726 H   0  0  0  0  0  0  0  0  0  0  0  0
  1  2  1  0  0  0  0
  1  4  2  0  0  0  0
  2  6  2  0  0  0  0
  3  5  2  0  0  0  0
  3 11  1  0  0  0  0
  4 14  1  0  0  0  0
  5 15  1  0  0  0  0
  6 16  1  0  0  0  0
  7  9  2  0  0  0  0
  7 17  1  0  0  0  0
  8 10  1  0  0  0  0
  8 17  2  0  0  0  0
  9 19  1  0  0  0  0
 10 19  2  0  0  0  0
 11 20  2  0  0  0  0
 12 15  2  0  0  0  0
 12 20  1  0  0  0  0
 13 18  2  0  0  0  0
 13 24  1  0  0  0  0
 14 16  2  0  0  0  0
 14 18  1  0  0  0  0
 15 23  1  0  0  0  0
 16 24  1  0  0  0  0
 17 26  1  0  0  0  0
 18 25  1  0  0  0  0
 19 28  1  0  0  0  0
 20 29  1  0  0  0  0
 21 25  1  0  0  0  0
 21 26  1  0  0  0  0
 21 27  2  0  0  0  0
 22 28  1  0  0  0  0
 23 26  1  0  0  0  0
  1 30  1  0  0  0  0
  2 31  1  0  0  0  0
  3 32  1  0  0  0  0
  4 33  1  0  0  0  0
  5 34  1  0  0  0  0
  6 35  1  0  0  0  0
  7 36  1  0  0  0  0
  8 37  1  0  0  0  0
  9 38  1  0  0  0  0
 10 39  1  0  0  0  0
 11 40  1  0  0  0  0
 12 41  1  0  0  0  0
 13 42  1  0  0  0  0
 22 43  1  0  0  0  0
 22 44  1  0  0  0  0
 22 45  1  0  0  0  0
 23 46  1  0  0  0  0
 23 47  1  0  0  0  0
 24 48  1  0  0  0  0
 25 49  1  0  0  0  0
M  END
> <clash_score>
0

> <docking_score>
-7.278044700622559

> <overlap_score>
0.9160863161087036

$$$$
BENZO_131_1
  -OEChem-08232013523D

 49 52  0     0  0  0  0  0  0999 V2000
    4.2460    1.7520   20.8250 C   0  0  0  0  0  0  0  0  0  0  0  0
    3.8860    2.1050   19.5250 C   0  0  0  0  0  0  0  0  0  0  0  0
    5.3890    1.0010   21.0690 C   0  0  0  0  0  0  0  0  0  0  0  0
    4.6610    1.7170   18.4380 C   0  0  0  0  0  0  0  0  0  0  0  0
    9.5890   -2.4950   23.2210 C   0  0  0  0  0  0  0  0  0  0  0  0
    8.2550   -1.0010   24.5520 C   0  0  0  0  0  0  0  0  0  0  0  0
    9.1890   -3.5540   24.0140 C   0  0  0  0  0  0  0  0  0  0  0  0
    7.8700   -2.0610   25.3550 C   0  0  0  0  0  0  0  0  0  0  0  0
   13.2160    0.4884   23.8066 C   0  0  0  0  0  0  0  0  0  0  0  0
   12.3975   -0.8664   22.2803 C   0  0  0  0  0  0  0  0  0  0  0  0
    7.5840   -0.2700   18.5160 C   0  0  0  0  0  0  0  0  0  0  0  0
    6.1460    0.6070   19.9750 C   0  0  0  0  0  0  0  0  0  0  0  0
   12.0272    0.1409   23.1374 C   0  0  0  0  0  0  0  0  0  0  0  0
    5.7970    0.9500   18.6730 C   0  0  0  0  0  0  0  0  0  0  0  0
    9.1280   -1.2090   23.4870 C   0  0  0  0  0  0  0  0  0  0  0  0
    7.2710   -0.1460   19.8310 C   0  0  0  0  0  0  0  0  0  0  0  0
    8.3450   -3.3440   25.0980 C   0  0  0  0  0  0  0  0  0  0  0  0
    9.0430    0.2380   21.4940 C   0  0  0  0  0  0  0  0  0  0  0  0
   14.5745   -2.0123   21.8044 C   0  0  0  0  0  0  0  0  0  0  0  0
    7.1173   -4.0855   26.9922 C   0  0  0  0  0  0  0  0  0  0  0  0
   10.6602    0.7344   23.3196 C   0  0  0  0  0  0  0  0  0  0  0  0
   14.2631   -0.2392   23.4090 N   0  0  0  0  0  0  0  0  0  0  0  0
    6.7100    0.3850   17.8100 N   0  0  0  0  0  0  0  0  0  0  0  0
   13.7335   -1.0540   22.4807 N   0  0  0  0  0  0  0  0  0  0  0  0
    8.0950   -0.7700   20.8440 N   0  0  0  0  0  0  0  0  0  0  0  0
    9.5820   -0.1080   22.7000 N   0  0  0  0  0  0  0  0  0  0  0  0
    9.2950    1.3000   20.9480 O   0  0  0  0  0  0  0  0  0  0  0  0
    7.9864   -4.3799   25.8996 O   0  0  0  0  0  0  0  0  0  0  0  0
    3.6208    2.0704   21.6579 H   0  0  0  0  0  0  0  0  0  0  0  0
    2.9857    2.6926   19.3615 H   0  0  0  0  0  0  0  0  0  0  0  0
    5.6664    0.7407   22.0807 H   0  0  0  0  0  0  0  0  0  0  0  0
    4.3794    2.0106   17.4221 H   0  0  0  0  0  0  0  0  0  0  0  0
   10.2678   -2.6746   22.3862 H   0  0  0  0  0  0  0  0  0  0  0  0
    7.8691   -0.0023   24.7606 H   0  0  0  0  0  0  0  0  0  0  0  0
    9.5404   -4.5633   23.7846 H   0  0  0  0  0  0  0  0  0  0  0  0
    7.1920   -1.8875   26.1914 H   0  0  0  0  0  0  0  0  0  0  0  0
   13.3652    1.2405   24.5684 H   0  0  0  0  0  0  0  0  0  0  0  0
   11.8378   -1.4521   21.5637 H   0  0  0  0  0  0  0  0  0  0  0  0
    8.4172   -0.8135   18.0384 H   0  0  0  0  0  0  0  0  0  0  0  0
   14.9803   -1.5328   20.9098 H   0  0  0  0  0  0  0  0  0  0  0  0
   15.3831   -2.3224   22.4722 H   0  0  0  0  0  0  0  0  0  0  0  0
   13.9785   -2.8882   21.5331 H   0  0  0  0  0  0  0  0  0  0  0  0
    6.9107   -5.0014   27.5514 H   0  0  0  0  0  0  0  0  0  0  0  0
    6.1851   -3.6594   26.6129 H   0  0  0  0  0  0  0  0  0  0  0  0
    7.6053   -3.3621   27.6497 H   0  0  0  0  0  0  0  0  0  0  0  0
   10.4260    0.8448   24.3841 H   0  0  0  0  0  0  0  0  0  0  0  0
   10.6008    1.7305   22.8686 H   0  0  0  0  0  0  0  0  0  0  0  0
    6.6715    0.4865   16.8044 H   0  0  0  0  0  0  0  0  0  0  0  0
    8.0705   -1.6178   21.0726 H   0  0  0  0  0  0  0  0  0  0  0  0
  1  2  1  0  0  0  0
  1  3  2  0  0  0  0
  2  4  2  0  0  0  0
  3 12  1  0  0  0  0
  4 14  1  0  0  0  0
  5  7  2  0  0  0  0
  5 15  1  0  0  0  0
  6  8  1  0  0  0  0
  6 15  2  0  0  0  0
  7 17  1  0  0  0  0
  8 17  2  0  0  0  0
  9 13  1  0  0  0  0
  9 22  2  0  0  0  0
 10 13  2  0  0  0  0
 10 24  1  0  0  0  0
 11 16  2  0  0  0  0
 11 23  1  0  0  0  0
 12 14  2  0  0  0  0
 12 16  1  0  0  0  0
 13 21  1  0  0  0  0
 14 23  1  0  0  0  0
 15 26  1  0  0  0  0
 16 25  1  0  0  0  0
 17 28  1  0  0  0  0
 18 25  1  0  0  0  0
 18 26  1  0  0  0  0
 18 27  2  0  0  0  0
 19 24  1  0  0  0  0
 20 28  1  0  0  0  0
 21 26  1  0  0  0  0
 22 24  1  0  0  0  0
  1 29  1  0  0  0  0
  2 30  1  0  0  0  0
  3 31  1  0  0  0  0
  4 32  1  0  0  0  0
  5 33  1  0  0  0  0
  6 34  1  0  0  0  0
  7 35  1  0  0  0  0
  8 36  1  0  0  0  0
  9 37  1  0  0  0  0
 10 38  1  0  0  0  0
 11 39  1  0  0  0  0
 19 40  1  0  0  0  0
 19 41  1  0  0  0  0
 19 42  1  0  0  0  0
 20 43  1  0  0  0  0
 20 44  1  0  0  0  0
 20 45  1  0  0  0  0
 21 46  1  0  0  0  0
 21 47  1  0  0  0  0
 23 48  1  0  0  0  0
 25 49  1  0  0  0  0
M  END
> <clash_score>
0

> <docking_score>
-7.687741279602051

> <overlap_score>
0.9062713384628296

$$$$
BENZO_133_1
  -OEChem-08232013523D

 59 63  0     0  0  0  0  0  0999 V2000
   14.2457   -1.4860   24.0577 C   0  0  0  0  0  0  0  0  0  0  0  0
    4.2460    1.7520   20.8250 C   0  0  0  0  0  0  0  0  0  0  0  0
   13.9240   -0.3932   24.8625 C   0  0  0  0  0  0  0  0  0  0  0  0
   13.4039   -1.8500   23.0067 C   0  0  0  0  0  0  0  0  0  0  0  0
    3.8860    2.1050   19.5250 C   0  0  0  0  0  0  0  0  0  0  0  0
    5.3890    1.0010   21.0690 C   0  0  0  0  0  0  0  0  0  0  0  0
   12.7605    0.3357   24.6164 C   0  0  0  0  0  0  0  0  0  0  0  0
   12.2404   -1.1211   22.7606 C   0  0  0  0  0  0  0  0  0  0  0  0
    4.6610    1.7170   18.4380 C   0  0  0  0  0  0  0  0  0  0  0  0
    9.1890   -3.5540   24.0140 C   0  0  0  0  0  0  0  0  0  0  0  0
    7.8700   -2.0610   25.3550 C   0  0  0  0  0  0  0  0  0  0  0  0
    9.5890   -2.4950   23.2210 C   0  0  0  0  0  0  0  0  0  0  0  0
    8.2550   -1.0010   24.5520 C   0  0  0  0  0  0  0  0  0  0  0  0
    7.5840   -0.2700   18.5160 C   0  0  0  0  0  0  0  0  0  0  0  0
    6.1460    0.6070   19.9750 C   0  0  0  0  0  0  0  0  0  0  0  0
   11.9186   -0.0282   23.5654 C   0  0  0  0  0  0  0  0  0  0  0  0
    5.7970    0.9500   18.6730 C   0  0  0  0  0  0  0  0  0  0  0  0
    8.3450   -3.3440   25.0980 C   0  0  0  0  0  0  0  0  0  0  0  0
    9.1280   -1.2090   23.4870 C   0  0  0  0  0  0  0  0  0  0  0  0
    7.2710   -0.1460   19.8310 C   0  0  0  0  0  0  0  0  0  0  0  0
    7.2752   -5.5548   25.4273 C   0  0  0  0  0  0  0  0  0  0  0  0
    9.0430    0.2380   21.4940 C   0  0  0  0  0  0  0  0  0  0  0  0
    7.1880   -6.7800   26.3209 C   0  0  0  0  0  0  0  0  0  0  0  0
    7.0916   -6.4753   27.7999 C   0  0  0  0  0  0  0  0  0  0  0  0
    8.2362   -5.5641   28.1841 C   0  0  0  0  0  0  0  0  0  0  0  0
    8.1241   -4.2655   27.4032 C   0  0  0  0  0  0  0  0  0  0  0  0
   10.6659    0.7557   23.3001 C   0  0  0  0  0  0  0  0  0  0  0  0
    6.7100    0.3850   17.8100 N   0  0  0  0  0  0  0  0  0  0  0  0
    7.9635   -4.4452   25.9501 N   0  0  0  0  0  0  0  0  0  0  0  0
    8.0950   -0.7700   20.8440 N   0  0  0  0  0  0  0  0  0  0  0  0
    9.5820   -0.1080   22.7000 N   0  0  0  0  0  0  0  0  0  0  0  0
    6.7947   -5.6299   24.2931 O   0  0  0  0  0  0  0  0  0  0  0  0
    9.2950    1.3000   20.9480 O   0  0  0  0  0  0  0  0  0  0  0  0
   15.1524   -2.0526   24.2486 H   0  0  0  0  0  0  0  0  0  0  0  0
    3.6208    2.0704   21.6579 H   0  0  0  0  0  0  0  0  0  0  0  0
   14.5799   -0.1090   25.6803 H   0  0  0  0  0  0  0  0  0  0  0  0
   13.6546   -2.7001   22.3792 H   0  0  0  0  0  0  0  0  0  0  0  0
    2.9857    2.6926   19.3615 H   0  0  0  0  0  0  0  0  0  0  0  0
    5.6664    0.7407   22.0807 H   0  0  0  0  0  0  0  0  0  0  0  0
   12.5177    1.1856   25.2488 H   0  0  0  0  0  0  0  0  0  0  0  0
   11.5904   -1.4121   21.9396 H   0  0  0  0  0  0  0  0  0  0  0  0
    4.3794    2.0106   17.4221 H   0  0  0  0  0  0  0  0  0  0  0  0
    9.5436   -4.5614   23.7799 H   0  0  0  0  0  0  0  0  0  0  0  0
    7.1918   -1.8823   26.1906 H   0  0  0  0  0  0  0  0  0  0  0  0
   10.2676   -2.6754   22.3861 H   0  0  0  0  0  0  0  0  0  0  0  0
    7.8686   -0.0026   24.7598 H   0  0  0  0  0  0  0  0  0  0  0  0
    8.4172   -0.8135   18.0384 H   0  0  0  0  0  0  0  0  0  0  0  0
    6.3101   -7.3613   26.0164 H   0  0  0  0  0  0  0  0  0  0  0  0
    8.0752   -7.3922   26.1183 H   0  0  0  0  0  0  0  0  0  0  0  0
    6.1328   -5.9938   28.0269 H   0  0  0  0  0  0  0  0  0  0  0  0
    7.1363   -7.4051   28.3772 H   0  0  0  0  0  0  0  0  0  0  0  0
    8.2035   -5.3520   29.2586 H   0  0  0  0  0  0  0  0  0  0  0  0
    9.1990   -6.0474   27.9788 H   0  0  0  0  0  0  0  0  0  0  0  0
    7.2505   -3.6996   27.7511 H   0  0  0  0  0  0  0  0  0  0  0  0
    9.0155   -3.6525   27.5824 H   0  0  0  0  0  0  0  0  0  0  0  0
   10.2619    1.1650   24.2325 H   0  0  0  0  0  0  0  0  0  0  0  0
   10.8653    1.6011   22.6333 H   0  0  0  0  0  0  0  0  0  0  0  0
    6.6715    0.4865   16.8044 H   0  0  0  0  0  0  0  0  0  0  0  0
    8.0897   -1.6082   21.0890 H   0  0  0  0  0  0  0  0  0  0  0  0
  1  3  1  0  0  0  0
  1  4  2  0  0  0  0
  2  5  1  0  0  0  0
  2  6  2  0  0  0  0
  3  7  2  0  0  0  0
  4  8  1  0  0  0  0
  5  9  2  0  0  0  0
  6 15  1  0  0  0  0
  7 16  1  0  0  0  0
  8 16  2  0  0  0  0
  9 17  1  0  0  0  0
 10 12  2  0  0  0  0
 10 18  1  0  0  0  0
 11 13  1  0  0  0  0
 11 18  2  0  0  0  0
 12 19  1  0  0  0  0
 13 19  2  0  0  0  0
 14 20  2  0  0  0  0
 14 28  1  0  0  0  0
 15 17  2  0  0  0  0
 15 20  1  0  0  0  0
 16 27  1  0  0  0  0
 17 28  1  0  0  0  0
 18 29  1  0  0  0  0
 19 31  1  0  0  0  0
 20 30  1  0  0  0  0
 21 23  1  0  0  0  0
 21 29  1  0  0  0  0
 21 32  2  0  0  0  0
 22 30  1  0  0  0  0
 22 31  1  0  0  0  0
 22 33  2  0  0  0  0
 23 24  1  0  0  0  0
 24 25  1  0  0  0  0
 25 26  1  0  0  0  0
 26 29  1  0  0  0  0
 27 31  1  0  0  0  0
  1 34  1  0  0  0  0
  2 35  1  0  0  0  0
  3 36  1  0  0  0  0
  4 37  1  0  0  0  0
  5 38  1  0  0  0  0
  6 39  1  0  0  0  0
  7 40  1  0  0  0  0
  8 41  1  0  0  0  0
  9 42  1  0  0  0  0
 10 43  1  0  0  0  0
 11 44  1  0  0  0  0
 12 45  1  0  0  0  0
 13 46  1  0  0  0  0
 14 47  1  0  0  0  0
 23 48  1  0  0  0  0
 23 49  1  0  0  0  0
 24 50  1  0  0  0  0
 24 51  1  0  0  0  0
 25 52  1  0  0  0  0
 25 53  1  0  0  0  0
 26 54  1  0  0  0  0
 26 55  1  0  0  0  0
 27 56  1  0  0  0  0
 27 57  1  0  0  0  0
 28 58  1  0  0  0  0
 30 59  1  0  0  0  0
M  END
> <clash_score>
0

> <docking_score>
-7.77934455871582

> <overlap_score>
0.9864965677261353

$$$$
BENZO_132_1
  -OEChem-08232013523D

 56 60  0     0  0  0  0  0  0999 V2000
    4.2460    1.7520   20.8250 C   0  0  0  0  0  0  0  0  0  0  0  0
    3.8860    2.1050   19.5250 C   0  0  0  0  0  0  0  0  0  0  0  0
    5.3890    1.0010   21.0690 C   0  0  0  0  0  0  0  0  0  0  0  0
    4.6610    1.7170   18.4380 C   0  0  0  0  0  0  0  0  0  0  0  0
    9.1890   -3.5540   24.0140 C   0  0  0  0  0  0  0  0  0  0  0  0
    7.8700   -2.0610   25.3550 C   0  0  0  0  0  0  0  0  0  0  0  0
    9.5890   -2.4950   23.2210 C   0  0  0  0  0  0  0  0  0  0  0  0
    8.2550   -1.0010   24.5520 C   0  0  0  0  0  0  0  0  0  0  0  0
   12.4870   -0.2035   24.8602 C   0  0  0  0  0  0  0  0  0  0  0  0
    7.5840   -0.2700   18.5160 C   0  0  0  0  0  0  0  0  0  0  0  0
   13.6349   -0.9642   24.8227 C   0  0  0  0  0  0  0  0  0  0  0  0
   12.6540   -0.6615   22.5876 C   0  0  0  0  0  0  0  0  0  0  0  0
    6.1460    0.6070   19.9750 C   0  0  0  0  0  0  0  0  0  0  0  0
   11.9186   -0.0282   23.5654 C   0  0  0  0  0  0  0  0  0  0  0  0
    5.7970    0.9500   18.6730 C   0  0  0  0  0  0  0  0  0  0  0  0
    8.3450   -3.3440   25.0980 C   0  0  0  0  0  0  0  0  0  0  0  0
    9.1280   -1.2090   23.4870 C   0  0  0  0  0  0  0  0  0  0  0  0
    7.2710   -0.1460   19.8310 C   0  0  0  0  0  0  0  0  0  0  0  0
    7.2752   -5.5548   25.4273 C   0  0  0  0  0  0  0  0  0  0  0  0
    9.0430    0.2380   21.4940 C   0  0  0  0  0  0  0  0  0  0  0  0
    7.1880   -6.7800   26.3209 C   0  0  0  0  0  0  0  0  0  0  0  0
    7.0916   -6.4753   27.7999 C   0  0  0  0  0  0  0  0  0  0  0  0
    8.2362   -5.5641   28.1841 C   0  0  0  0  0  0  0  0  0  0  0  0
    8.1241   -4.2655   27.4032 C   0  0  0  0  0  0  0  0  0  0  0  0
   10.6659    0.7557   23.3001 C   0  0  0  0  0  0  0  0  0  0  0  0
    6.7100    0.3850   17.8100 N   0  0  0  0  0  0  0  0  0  0  0  0
    7.9635   -4.4452   25.9501 N   0  0  0  0  0  0  0  0  0  0  0  0
    8.0950   -0.7700   20.8440 N   0  0  0  0  0  0  0  0  0  0  0  0
    9.5820   -0.1080   22.7000 N   0  0  0  0  0  0  0  0  0  0  0  0
    6.7947   -5.6299   24.2931 O   0  0  0  0  0  0  0  0  0  0  0  0
    9.2950    1.3000   20.9480 O   0  0  0  0  0  0  0  0  0  0  0  0
   14.0232   -1.4634   23.2314 S   0  0  0  0  0  0  0  0  0  0  0  0
    3.6208    2.0704   21.6579 H   0  0  0  0  0  0  0  0  0  0  0  0
    2.9857    2.6926   19.3615 H   0  0  0  0  0  0  0  0  0  0  0  0
    5.6664    0.7407   22.0807 H   0  0  0  0  0  0  0  0  0  0  0  0
    4.3794    2.0106   17.4221 H   0  0  0  0  0  0  0  0  0  0  0  0
    9.5436   -4.5614   23.7799 H   0  0  0  0  0  0  0  0  0  0  0  0
    7.1918   -1.8823   26.1906 H   0  0  0  0  0  0  0  0  0  0  0  0
   10.2676   -2.6754   22.3861 H   0  0  0  0  0  0  0  0  0  0  0  0
    7.8686   -0.0026   24.7598 H   0  0  0  0  0  0  0  0  0  0  0  0
   12.0782    0.2061   25.7752 H   0  0  0  0  0  0  0  0  0  0  0  0
    8.4172   -0.8135   18.0384 H   0  0  0  0  0  0  0  0  0  0  0  0
   14.2645   -1.2500   25.6535 H   0  0  0  0  0  0  0  0  0  0  0  0
   12.4569   -0.6931   21.5249 H   0  0  0  0  0  0  0  0  0  0  0  0
    6.3101   -7.3613   26.0164 H   0  0  0  0  0  0  0  0  0  0  0  0
    8.0752   -7.3922   26.1183 H   0  0  0  0  0  0  0  0  0  0  0  0
    6.1328   -5.9938   28.0269 H   0  0  0  0  0  0  0  0  0  0  0  0
    7.1363   -7.4051   28.3772 H   0  0  0  0  0  0  0  0  0  0  0  0
    8.2035   -5.3520   29.2586 H   0  0  0  0  0  0  0  0  0  0  0  0
    9.1990   -6.0474   27.9788 H   0  0  0  0  0  0  0  0  0  0  0  0
    7.2505   -3.6996   27.7511 H   0  0  0  0  0  0  0  0  0  0  0  0
    9.0155   -3.6525   27.5824 H   0  0  0  0  0  0  0  0  0  0  0  0
   10.2619    1.1650   24.2325 H   0  0  0  0  0  0  0  0  0  0  0  0
   10.8653    1.6011   22.6333 H   0  0  0  0  0  0  0  0  0  0  0  0
    6.6715    0.4865   16.8044 H   0  0  0  0  0  0  0  0  0  0  0  0
    8.0897   -1.6082   21.0890 H   0  0  0  0  0  0  0  0  0  0  0  0
  1  2  1  0  0  0  0
  1  3  2  0  0  0  0
  2  4  2  0  0  0  0
  3 13  1  0  0  0  0
  4 15  1  0  0  0  0
  5  7  2  0  0  0  0
  5 16  1  0  0  0  0
  6  8  1  0  0  0  0
  6 16  2  0  0  0  0
  7 17  1  0  0  0  0
  8 17  2  0  0  0  0
  9 11  2  0  0  0  0
  9 14  1  0  0  0  0
 10 18  2  0  0  0  0
 10 26  1  0  0  0  0
 11 32  1  0  0  0  0
 12 14  2  0  0  0  0
 12 32  1  0  0  0  0
 13 15  2  0  0  0  0
 13 18  1  0  0  0  0
 14 25  1  0  0  0  0
 15 26  1  0  0  0  0
 16 27  1  0  0  0  0
 17 29  1  0  0  0  0
 18 28  1  0  0  0  0
 19 21  1  0  0  0  0
 19 27  1  0  0  0  0
 19 30  2  0  0  0  0
 20 28  1  0  0  0  0
 20 29  1  0  0  0  0
 20 31  2  0  0  0  0
 21 22  1  0  0  0  0
 22 23  1  0  0  0  0
 23 24  1  0  0  0  0
 24 27  1  0  0  0  0
 25 29  1  0  0  0  0
  1 33  1  0  0  0  0
  2 34  1  0  0  0  0
  3 35  1  0  0  0  0
  4 36  1  0  0  0  0
  5 37  1  0  0  0  0
  6 38  1  0  0  0  0
  7 39  1  0  0  0  0
  8 40  1  0  0  0  0
  9 41  1  0  0  0  0
 10 42  1  0  0  0  0
 11 43  1  0  0  0  0
 12 44  1  0  0  0  0
 21 45  1  0  0  0  0
 21 46  1  0  0  0  0
 22 47  1  0  0  0  0
 22 48  1  0  0  0  0
 23 49  1  0  0  0  0
 23 50  1  0  0  0  0
 24 51  1  0  0  0  0
 24 52  1  0  0  0  0
 25 53  1  0  0  0  0
 25 54  1  0  0  0  0
 26 55  1  0  0  0  0
 28 56  1  0  0  0  0
M  END
> <clash_score>
0

> <docking_score>
-7.641571998596191

> <overlap_score>
0.9719064831733704

$$$$
BENZO_137_1
  -OEChem-08232013523D

 58 62  0     0  0  0  0  0  0999 V2000
   14.2627   -1.4843   24.0360 C   0  0  0  0  0  0  0  0  0  0  0  0
    4.2460    1.7520   20.8250 C   0  0  0  0  0  0  0  0  0  0  0  0
   13.9267   -0.4138   24.8647 C   0  0  0  0  0  0  0  0  0  0  0  0
   13.4277   -1.8334   22.9745 C   0  0  0  0  0  0  0  0  0  0  0  0
    3.8860    2.1050   19.5250 C   0  0  0  0  0  0  0  0  0  0  0  0
    5.3890    1.0010   21.0690 C   0  0  0  0  0  0  0  0  0  0  0  0
   12.7558    0.3076   24.6320 C   0  0  0  0  0  0  0  0  0  0  0  0
   12.2568   -1.1120   22.7418 C   0  0  0  0  0  0  0  0  0  0  0  0
    4.6610    1.7170   18.4380 C   0  0  0  0  0  0  0  0  0  0  0  0
    9.1890   -3.5540   24.0140 C   0  0  0  0  0  0  0  0  0  0  0  0
    7.8700   -2.0610   25.3550 C   0  0  0  0  0  0  0  0  0  0  0  0
    9.5890   -2.4950   23.2210 C   0  0  0  0  0  0  0  0  0  0  0  0
    8.2550   -1.0010   24.5520 C   0  0  0  0  0  0  0  0  0  0  0  0
    7.5840   -0.2700   18.5160 C   0  0  0  0  0  0  0  0  0  0  0  0
    6.1460    0.6070   19.9750 C   0  0  0  0  0  0  0  0  0  0  0  0
   11.9208   -0.0415   23.5705 C   0  0  0  0  0  0  0  0  0  0  0  0
    5.7970    0.9500   18.6730 C   0  0  0  0  0  0  0  0  0  0  0  0
    8.3450   -3.3440   25.0980 C   0  0  0  0  0  0  0  0  0  0  0  0
    9.1280   -1.2090   23.4870 C   0  0  0  0  0  0  0  0  0  0  0  0
    7.2710   -0.1460   19.8310 C   0  0  0  0  0  0  0  0  0  0  0  0
    9.0430    0.2380   21.4940 C   0  0  0  0  0  0  0  0  0  0  0  0
    8.9519   -5.2016   26.6602 C   0  0  0  0  0  0  0  0  0  0  0  0
    6.6111   -4.5061   26.4377 C   0  0  0  0  0  0  0  0  0  0  0  0
    8.9032   -4.7846   28.1262 C   0  0  0  0  0  0  0  0  0  0  0  0
    6.6372   -4.1235   27.9182 C   0  0  0  0  0  0  0  0  0  0  0  0
   10.6602    0.7344   23.3196 C   0  0  0  0  0  0  0  0  0  0  0  0
    6.7100    0.3850   17.8100 N   0  0  0  0  0  0  0  0  0  0  0  0
    7.9775   -4.4014   25.9151 N   0  0  0  0  0  0  0  0  0  0  0  0
    8.0950   -0.7700   20.8440 N   0  0  0  0  0  0  0  0  0  0  0  0
    9.5820   -0.1080   22.7000 N   0  0  0  0  0  0  0  0  0  0  0  0
    9.2950    1.3000   20.9480 O   0  0  0  0  0  0  0  0  0  0  0  0
    7.5722   -4.9386   28.6338 O   0  0  0  0  0  0  0  0  0  0  0  0
   15.1752   -2.0451   24.2165 H   0  0  0  0  0  0  0  0  0  0  0  0
    3.6208    2.0704   21.6579 H   0  0  0  0  0  0  0  0  0  0  0  0
   14.5773   -0.1411   25.6906 H   0  0  0  0  0  0  0  0  0  0  0  0
   13.6895   -2.6661   22.3285 H   0  0  0  0  0  0  0  0  0  0  0  0
    2.9857    2.6926   19.3615 H   0  0  0  0  0  0  0  0  0  0  0  0
    5.6664    0.7407   22.0807 H   0  0  0  0  0  0  0  0  0  0  0  0
   12.5019    1.1401   25.2829 H   0  0  0  0  0  0  0  0  0  0  0  0
   11.6123   -1.3913   21.9125 H   0  0  0  0  0  0  0  0  0  0  0  0
    4.3794    2.0106   17.4221 H   0  0  0  0  0  0  0  0  0  0  0  0
    9.5426   -4.5618   23.7797 H   0  0  0  0  0  0  0  0  0  0  0  0
    7.1914   -1.8824   26.1903 H   0  0  0  0  0  0  0  0  0  0  0  0
   10.2669   -2.6745   22.3854 H   0  0  0  0  0  0  0  0  0  0  0  0
    7.8690   -0.0020   24.7587 H   0  0  0  0  0  0  0  0  0  0  0  0
    8.4172   -0.8135   18.0384 H   0  0  0  0  0  0  0  0  0  0  0  0
    9.9646   -5.0565   26.2705 H   0  0  0  0  0  0  0  0  0  0  0  0
    8.6931   -6.2628   26.5702 H   0  0  0  0  0  0  0  0  0  0  0  0
    6.2606   -5.5364   26.3305 H   0  0  0  0  0  0  0  0  0  0  0  0
    5.9292   -3.8442   25.9001 H   0  0  0  0  0  0  0  0  0  0  0  0
    9.5588   -5.4279   28.7169 H   0  0  0  0  0  0  0  0  0  0  0  0
    9.2344   -3.7514   28.2637 H   0  0  0  0  0  0  0  0  0  0  0  0
    6.8876   -3.0650   28.0550 H   0  0  0  0  0  0  0  0  0  0  0  0
    5.6491   -4.2880   28.3587 H   0  0  0  0  0  0  0  0  0  0  0  0
   10.2659    1.1437   24.2561 H   0  0  0  0  0  0  0  0  0  0  0  0
   10.8458    1.5792   22.6481 H   0  0  0  0  0  0  0  0  0  0  0  0
    6.6715    0.4865   16.8044 H   0  0  0  0  0  0  0  0  0  0  0  0
    8.0705   -1.6178   21.0726 H   0  0  0  0  0  0  0  0  0  0  0  0
  1  3  1  0  0  0  0
  1  4  2  0  0  0  0
  2  5  1  0  0  0  0
  2  6  2  0  0  0  0
  3  7  2  0  0  0  0
  4  8  1  0  0  0  0
  5  9  2  0  0  0  0
  6 15  1  0  0  0  0
  7 16  1  0  0  0  0
  8 16  2  0  0  0  0
  9 17  1  0  0  0  0
 10 12  2  0  0  0  0
 10 18  1  0  0  0  0
 11 13  1  0  0  0  0
 11 18  2  0  0  0  0
 12 19  1  0  0  0  0
 13 19  2  0  0  0  0
 14 20  2  0  0  0  0
 14 27  1  0  0  0  0
 15 17  2  0  0  0  0
 15 20  1  0  0  0  0
 16 26  1  0  0  0  0
 17 27  1  0  0  0  0
 18 28  1  0  0  0  0
 19 30  1  0  0  0  0
 20 29  1  0  0  0  0
 21 29  1  0  0  0  0
 21 30  1  0  0  0  0
 21 31  2  0  0  0  0
 22 24  1  0  0  0  0
 22 28  1  0  0  0  0
 23 25  1  0  0  0  0
 23 28  1  0  0  0  0
 24 32  1  0  0  0  0
 25 32  1  0  0  0  0
 26 30  1  0  0  0  0
  1 33  1  0  0  0  0
  2 34  1  0  0  0  0
  3 35  1  0  0  0  0
  4 36  1  0  0  0  0
  5 37  1  0  0  0  0
  6 38  1  0  0  0  0
  7 39  1  0  0  0  0
  8 40  1  0  0  0  0
  9 41  1  0  0  0  0
 10 42  1  0  0  0  0
 11 43  1  0  0  0  0
 12 44  1  0  0  0  0
 13 45  1  0  0  0  0
 14 46  1  0  0  0  0
 22 47  1  0  0  0  0
 22 48  1  0  0  0  0
 23 49  1  0  0  0  0
 23 50  1  0  0  0  0
 24 51  1  0  0  0  0
 24 52  1  0  0  0  0
 25 53  1  0  0  0  0
 25 54  1  0  0  0  0
 26 55  1  0  0  0  0
 26 56  1  0  0  0  0
 27 57  1  0  0  0  0
 29 58  1  0  0  0  0
M  END
> <clash_score>
0

> <docking_score>
-8.96223258972168

> <overlap_score>
0.9849265217781067

$$$$
BENZO_135_1
  -OEChem-08232013523D

 59 63  0     0  0  0  0  0  0999 V2000
    4.2460    1.7520   20.8250 C   0  0  0  0  0  0  0  0  0  0  0  0
    3.8860    2.1050   19.5250 C   0  0  0  0  0  0  0  0  0  0  0  0
    5.3890    1.0010   21.0690 C   0  0  0  0  0  0  0  0  0  0  0  0
    4.6610    1.7170   18.4380 C   0  0  0  0  0  0  0  0  0  0  0  0
    9.1890   -3.5540   24.0140 C   0  0  0  0  0  0  0  0  0  0  0  0
    7.8700   -2.0610   25.3550 C   0  0  0  0  0  0  0  0  0  0  0  0
    9.5890   -2.4950   23.2210 C   0  0  0  0  0  0  0  0  0  0  0  0
    8.2550   -1.0010   24.5520 C   0  0  0  0  0  0  0  0  0  0  0  0
   13.2149    0.4727   23.8027 C   0  0  0  0  0  0  0  0  0  0  0  0
   12.3871   -0.8676   22.2687 C   0  0  0  0  0  0  0  0  0  0  0  0
    7.5840   -0.2700   18.5160 C   0  0  0  0  0  0  0  0  0  0  0  0
    6.1460    0.6070   19.9750 C   0  0  0  0  0  0  0  0  0  0  0  0
   12.0256    0.1433   23.1253 C   0  0  0  0  0  0  0  0  0  0  0  0
    5.7970    0.9500   18.6730 C   0  0  0  0  0  0  0  0  0  0  0  0
    8.3450   -3.3440   25.0980 C   0  0  0  0  0  0  0  0  0  0  0  0
    9.1280   -1.2090   23.4870 C   0  0  0  0  0  0  0  0  0  0  0  0
    7.2710   -0.1460   19.8310 C   0  0  0  0  0  0  0  0  0  0  0  0
    8.7161   -4.7975   27.0830 C   0  0  0  0  0  0  0  0  0  0  0  0
    9.0430    0.2380   21.4940 C   0  0  0  0  0  0  0  0  0  0  0  0
    8.1364   -5.9760   27.8449 C   0  0  0  0  0  0  0  0  0  0  0  0
    6.6423   -5.8008   28.0518 C   0  0  0  0  0  0  0  0  0  0  0  0
    5.9022   -5.5526   26.7413 C   0  0  0  0  0  0  0  0  0  0  0  0
    6.8397   -5.2970   25.5620 C   0  0  0  0  0  0  0  0  0  0  0  0
   14.5506   -2.0433   21.8042 C   0  0  0  0  0  0  0  0  0  0  0  0
   10.6659    0.7557   23.3001 C   0  0  0  0  0  0  0  0  0  0  0  0
   14.2541   -0.2689   23.4103 N   0  0  0  0  0  0  0  0  0  0  0  0
    6.7100    0.3850   17.8100 N   0  0  0  0  0  0  0  0  0  0  0  0
   13.7189   -1.0744   22.4771 N   0  0  0  0  0  0  0  0  0  0  0  0
    7.9658   -4.4385   25.9449 N   0  0  0  0  0  0  0  0  0  0  0  0
    8.0950   -0.7700   20.8440 N   0  0  0  0  0  0  0  0  0  0  0  0
    9.5820   -0.1080   22.7000 N   0  0  0  0  0  0  0  0  0  0  0  0
    9.7829   -4.3044   27.4475 O   0  0  0  0  0  0  0  0  0  0  0  0
    9.2950    1.3000   20.9480 O   0  0  0  0  0  0  0  0  0  0  0  0
    3.6208    2.0704   21.6579 H   0  0  0  0  0  0  0  0  0  0  0  0
    2.9857    2.6926   19.3615 H   0  0  0  0  0  0  0  0  0  0  0  0
    5.6664    0.7407   22.0807 H   0  0  0  0  0  0  0  0  0  0  0  0
    4.3794    2.0106   17.4221 H   0  0  0  0  0  0  0  0  0  0  0  0
    9.5436   -4.5614   23.7799 H   0  0  0  0  0  0  0  0  0  0  0  0
    7.1918   -1.8823   26.1906 H   0  0  0  0  0  0  0  0  0  0  0  0
   10.2676   -2.6754   22.3861 H   0  0  0  0  0  0  0  0  0  0  0  0
    7.8686   -0.0026   24.7598 H   0  0  0  0  0  0  0  0  0  0  0  0
   13.3699    1.2212   24.5669 H   0  0  0  0  0  0  0  0  0  0  0  0
   11.8237   -1.4439   21.5473 H   0  0  0  0  0  0  0  0  0  0  0  0
    8.4172   -0.8135   18.0384 H   0  0  0  0  0  0  0  0  0  0  0  0
    8.3160   -6.8753   27.2760 H   0  0  0  0  0  0  0  0  0  0  0  0
    8.6443   -6.0335   28.7960 H   0  0  0  0  0  0  0  0  0  0  0  0
    6.2215   -6.6983   28.5513 H   0  0  0  0  0  0  0  0  0  0  0  0
    6.4589   -4.9587   28.7491 H   0  0  0  0  0  0  0  0  0  0  0  0
    5.2548   -6.4248   26.5112 H   0  0  0  0  0  0  0  0  0  0  0  0
    5.2035   -4.6957   26.8575 H   0  0  0  0  0  0  0  0  0  0  0  0
    7.2534   -6.2390   25.2146 H   0  0  0  0  0  0  0  0  0  0  0  0
    6.2879   -4.8231   24.7574 H   0  0  0  0  0  0  0  0  0  0  0  0
   14.9688   -1.5678   20.9131 H   0  0  0  0  0  0  0  0  0  0  0  0
   15.3505   -2.3660   22.4765 H   0  0  0  0  0  0  0  0  0  0  0  0
   13.9440   -2.9100   21.5274 H   0  0  0  0  0  0  0  0  0  0  0  0
   10.4266    0.8674   24.3633 H   0  0  0  0  0  0  0  0  0  0  0  0
   10.6236    1.7534   22.8507 H   0  0  0  0  0  0  0  0  0  0  0  0
    6.6715    0.4865   16.8044 H   0  0  0  0  0  0  0  0  0  0  0  0
    8.0897   -1.6082   21.0890 H   0  0  0  0  0  0  0  0  0  0  0  0
  1  2  1  0  0  0  0
  1  3  2  0  0  0  0
  2  4  2  0  0  0  0
  3 12  1  0  0  0  0
  4 14  1  0  0  0  0
  5  7  2  0  0  0  0
  5 15  1  0  0  0  0
  6  8  1  0  0  0  0
  6 15  2  0  0  0  0
  7 16  1  0  0  0  0
  8 16  2  0  0  0  0
  9 13  1  0  0  0  0
  9 26  2  0  0  0  0
 10 13  2  0  0  0  0
 10 28  1  0  0  0  0
 11 17  2  0  0  0  0
 11 27  1  0  0  0  0
 12 14  2  0  0  0  0
 12 17  1  0  0  0  0
 13 25  1  0  0  0  0
 14 27  1  0  0  0  0
 15 29  1  0  0  0  0
 16 31  1  0  0  0  0
 17 30  1  0  0  0  0
 18 20  1  0  0  0  0
 18 29  1  0  0  0  0
 18 32  2  0  0  0  0
 19 30  1  0  0  0  0
 19 31  1  0  0  0  0
 19 33  2  0  0  0  0
 20 21  1  0  0  0  0
 21 22  1  0  0  0  0
 22 23  1  0  0  0  0
 23 29  1  0  0  0  0
 24 28  1  0  0  0  0
 25 31  1  0  0  0  0
 26 28  1  0  0  0  0
  1 34  1  0  0  0  0
  2 35  1  0  0  0  0
  3 36  1  0  0  0  0
  4 37  1  0  0  0  0
  5 38  1  0  0  0  0
  6 39  1  0  0  0  0
  7 40  1  0  0  0  0
  8 41  1  0  0  0  0
  9 42  1  0  0  0  0
 10 43  1  0  0  0  0
 11 44  1  0  0  0  0
 20 45  1  0  0  0  0
 20 46  1  0  0  0  0
 21 47  1  0  0  0  0
 21 48  1  0  0  0  0
 22 49  1  0  0  0  0
 22 50  1  0  0  0  0
 23 51  1  0  0  0  0
 23 52  1  0  0  0  0
 24 53  1  0  0  0  0
 24 54  1  0  0  0  0
 24 55  1  0  0  0  0
 25 56  1  0  0  0  0
 25 57  1  0  0  0  0
 27 58  1  0  0  0  0
 30 59  1  0  0  0  0
M  END
> <clash_score>
0

> <docking_score>
-8.063403129577637

> <overlap_score>
0.9955516457557678

$$$$
BENZO_134_1
  -OEChem-08232013523D

 59 63  0     0  0  0  0  0  0999 V2000
    4.2460    1.7520   20.8250 C   0  0  0  0  0  0  0  0  0  0  0  0
    3.8860    2.1050   19.5250 C   0  0  0  0  0  0  0  0  0  0  0  0
   13.5665   -0.8764   25.1153 C   0  0  0  0  0  0  0  0  0  0  0  0
    5.3890    1.0010   21.0690 C   0  0  0  0  0  0  0  0  0  0  0  0
   12.4034   -0.1473   24.8679 C   0  0  0  0  0  0  0  0  0  0  0  0
    4.6610    1.7170   18.4380 C   0  0  0  0  0  0  0  0  0  0  0  0
    9.1890   -3.5540   24.0140 C   0  0  0  0  0  0  0  0  0  0  0  0
    7.8700   -2.0610   25.3550 C   0  0  0  0  0  0  0  0  0  0  0  0
    9.5890   -2.4950   23.2210 C   0  0  0  0  0  0  0  0  0  0  0  0
    8.2550   -1.0010   24.5520 C   0  0  0  0  0  0  0  0  0  0  0  0
   14.2449   -1.4864   24.0601 C   0  0  0  0  0  0  0  0  0  0  0  0
   12.5970   -0.6383   22.5103 C   0  0  0  0  0  0  0  0  0  0  0  0
    7.5840   -0.2700   18.5160 C   0  0  0  0  0  0  0  0  0  0  0  0
    6.1460    0.6070   19.9750 C   0  0  0  0  0  0  0  0  0  0  0  0
   11.9186   -0.0282   23.5654 C   0  0  0  0  0  0  0  0  0  0  0  0
    5.7970    0.9500   18.6730 C   0  0  0  0  0  0  0  0  0  0  0  0
    8.3450   -3.3440   25.0980 C   0  0  0  0  0  0  0  0  0  0  0  0
    9.1280   -1.2090   23.4870 C   0  0  0  0  0  0  0  0  0  0  0  0
    7.2710   -0.1460   19.8310 C   0  0  0  0  0  0  0  0  0  0  0  0
   13.7601   -1.3674   22.7576 C   0  0  0  0  0  0  0  0  0  0  0  0
    7.2757   -5.5631   25.4492 C   0  0  0  0  0  0  0  0  0  0  0  0
    9.0430    0.2380   21.4940 C   0  0  0  0  0  0  0  0  0  0  0  0
    6.9626   -6.6001   26.5133 C   0  0  0  0  0  0  0  0  0  0  0  0
    6.3764   -5.9422   27.7501 C   0  0  0  0  0  0  0  0  0  0  0  0
    7.2660   -4.8258   28.2881 C   0  0  0  0  0  0  0  0  0  0  0  0
    8.4098   -4.4623   27.3426 C   0  0  0  0  0  0  0  0  0  0  0  0
   10.6659    0.7557   23.3001 C   0  0  0  0  0  0  0  0  0  0  0  0
    6.7100    0.3850   17.8100 N   0  0  0  0  0  0  0  0  0  0  0  0
    7.9658   -4.4384   25.9449 N   0  0  0  0  0  0  0  0  0  0  0  0
    8.0950   -0.7700   20.8440 N   0  0  0  0  0  0  0  0  0  0  0  0
    9.5820   -0.1080   22.7000 N   0  0  0  0  0  0  0  0  0  0  0  0
    6.9858   -5.7908   24.2753 O   0  0  0  0  0  0  0  0  0  0  0  0
    9.2950    1.3000   20.9480 O   0  0  0  0  0  0  0  0  0  0  0  0
   14.5969   -2.1212   21.4563 Cl  0  0  0  0  0  0  0  0  0  0  0  0
    3.6208    2.0704   21.6579 H   0  0  0  0  0  0  0  0  0  0  0  0
    2.9857    2.6926   19.3615 H   0  0  0  0  0  0  0  0  0  0  0  0
   13.9436   -0.9690   26.1297 H   0  0  0  0  0  0  0  0  0  0  0  0
    5.6664    0.7407   22.0807 H   0  0  0  0  0  0  0  0  0  0  0  0
   11.8813    0.3246   25.6962 H   0  0  0  0  0  0  0  0  0  0  0  0
    4.3794    2.0106   17.4221 H   0  0  0  0  0  0  0  0  0  0  0  0
    9.5436   -4.5614   23.7799 H   0  0  0  0  0  0  0  0  0  0  0  0
    7.1918   -1.8823   26.1906 H   0  0  0  0  0  0  0  0  0  0  0  0
   10.2676   -2.6754   22.3861 H   0  0  0  0  0  0  0  0  0  0  0  0
    7.8686   -0.0026   24.7598 H   0  0  0  0  0  0  0  0  0  0  0  0
   15.1500   -2.0519   24.2677 H   0  0  0  0  0  0  0  0  0  0  0  0
   12.2152   -0.5421   21.4965 H   0  0  0  0  0  0  0  0  0  0  0  0
    8.4172   -0.8135   18.0384 H   0  0  0  0  0  0  0  0  0  0  0  0
    6.2500   -7.3027   26.1097 H   0  0  0  0  0  0  0  0  0  0  0  0
    7.8838   -7.1078   26.7574 H   0  0  0  0  0  0  0  0  0  0  0  0
    5.3690   -5.5363   27.5214 H   0  0  0  0  0  0  0  0  0  0  0  0
    6.2178   -6.7054   28.5384 H   0  0  0  0  0  0  0  0  0  0  0  0
    6.6498   -3.9225   28.4807 H   0  0  0  0  0  0  0  0  0  0  0  0
    7.6764   -5.1138   29.2803 H   0  0  0  0  0  0  0  0  0  0  0  0
    8.7796   -3.4700   27.5826 H   0  0  0  0  0  0  0  0  0  0  0  0
    9.2112   -5.1853   27.4497 H   0  0  0  0  0  0  0  0  0  0  0  0
   10.2619    1.1650   24.2325 H   0  0  0  0  0  0  0  0  0  0  0  0
   10.8653    1.6011   22.6333 H   0  0  0  0  0  0  0  0  0  0  0  0
    6.6715    0.4865   16.8044 H   0  0  0  0  0  0  0  0  0  0  0  0
    8.0897   -1.6082   21.0890 H   0  0  0  0  0  0  0  0  0  0  0  0
  1  2  1  0  0  0  0
  1  4  2  0  0  0  0
  2  6  2  0  0  0  0
  3  5  2  0  0  0  0
  3 11  1  0  0  0  0
  4 14  1  0  0  0  0
  5 15  1  0  0  0  0
  6 16  1  0  0  0  0
  7  9  2  0  0  0  0
  7 17  1  0  0  0  0
  8 10  1  0  0  0  0
  8 17  2  0  0  0  0
  9 18  1  0  0  0  0
 10 18  2  0  0  0  0
 11 20  2  0  0  0  0
 12 15  2  0  0  0  0
 12 20  1  0  0  0  0
 13 19  2  0  0  0  0
 13 28  1  0  0  0  0
 14 16  2  0  0  0  0
 14 19  1  0  0  0  0
 15 27  1  0  0  0  0
 16 28  1  0  0  0  0
 17 29  1  0  0  0  0
 18 31  1  0  0  0  0
 19 30  1  0  0  0  0
 20 34  1  0  0  0  0
 21 23  1  0  0  0  0
 21 29  1  0  0  0  0
 21 32  2  0  0  0  0
 22 30  1  0  0  0  0
 22 31  1  0  0  0  0
 22 33  2  0  0  0  0
 23 24  1  0  0  0  0
 24 25  1  0  0  0  0
 25 26  1  0  0  0  0
 26 29  1  0  0  0  0
 27 31  1  0  0  0  0
  1 35  1  0  0  0  0
  2 36  1  0  0  0  0
  3 37  1  0  0  0  0
  4 38  1  0  0  0  0
  5 39  1  0  0  0  0
  6 40  1  0  0  0  0
  7 41  1  0  0  0  0
  8 42  1  0  0  0  0
  9 43  1  0  0  0  0
 10 44  1  0  0  0  0
 11 45  1  0  0  0  0
 12 46  1  0  0  0  0
 13 47  1  0  0  0  0
 23 48  1  0  0  0  0
 23 49  1  0  0  0  0
 24 50  1  0  0  0  0
 24 51  1  0  0  0  0
 25 52  1  0  0  0  0
 25 53  1  0  0  0  0
 26 54  1  0  0  0  0
 26 55  1  0  0  0  0
 27 56  1  0  0  0  0
 27 57  1  0  0  0  0
 28 58  1  0  0  0  0
 30 59  1  0  0  0  0
M  END
> <clash_score>
0

> <docking_score>
-7.12779426574707

> <overlap_score>
0.9910287857055664

$$$$
BENZO_136_1
  -OEChem-08232013523D

 55 59  0     0  0  0  0  0  0999 V2000
    4.2460    1.7520   20.8250 C   0  0  0  0  0  0  0  0  0  0  0  0
    3.8860    2.1050   19.5250 C   0  0  0  0  0  0  0  0  0  0  0  0
    5.3890    1.0010   21.0690 C   0  0  0  0  0  0  0  0  0  0  0  0
    4.6610    1.7170   18.4380 C   0  0  0  0  0  0  0  0  0  0  0  0
    9.1890   -3.5540   24.0140 C   0  0  0  0  0  0  0  0  0  0  0  0
    7.8700   -2.0610   25.3550 C   0  0  0  0  0  0  0  0  0  0  0  0
    9.5890   -2.4950   23.2210 C   0  0  0  0  0  0  0  0  0  0  0  0
    8.2550   -1.0010   24.5520 C   0  0  0  0  0  0  0  0  0  0  0  0
   12.5071   -0.2100   24.8582 C   0  0  0  0  0  0  0  0  0  0  0  0
    7.5840   -0.2700   18.5160 C   0  0  0  0  0  0  0  0  0  0  0  0
   13.6588   -0.9640   24.8077 C   0  0  0  0  0  0  0  0  0  0  0  0
   12.6470   -0.6730   22.5848 C   0  0  0  0  0  0  0  0  0  0  0  0
    6.1460    0.6070   19.9750 C   0  0  0  0  0  0  0  0  0  0  0  0
   11.9208   -0.0415   23.5705 C   0  0  0  0  0  0  0  0  0  0  0  0
    5.7970    0.9500   18.6730 C   0  0  0  0  0  0  0  0  0  0  0  0
    8.3450   -3.3440   25.0980 C   0  0  0  0  0  0  0  0  0  0  0  0
    9.1280   -1.2090   23.4870 C   0  0  0  0  0  0  0  0  0  0  0  0
    7.2710   -0.1460   19.8310 C   0  0  0  0  0  0  0  0  0  0  0  0
    9.0430    0.2380   21.4940 C   0  0  0  0  0  0  0  0  0  0  0  0
    8.9519   -5.2016   26.6602 C   0  0  0  0  0  0  0  0  0  0  0  0
    6.6111   -4.5061   26.4377 C   0  0  0  0  0  0  0  0  0  0  0  0
    8.9032   -4.7846   28.1262 C   0  0  0  0  0  0  0  0  0  0  0  0
    6.6372   -4.1235   27.9182 C   0  0  0  0  0  0  0  0  0  0  0  0
   10.6602    0.7344   23.3196 C   0  0  0  0  0  0  0  0  0  0  0  0
    6.7100    0.3850   17.8100 N   0  0  0  0  0  0  0  0  0  0  0  0
    7.9775   -4.4014   25.9151 N   0  0  0  0  0  0  0  0  0  0  0  0
    8.0950   -0.7700   20.8440 N   0  0  0  0  0  0  0  0  0  0  0  0
    9.5820   -0.1080   22.7000 N   0  0  0  0  0  0  0  0  0  0  0  0
    9.2950    1.3000   20.9480 O   0  0  0  0  0  0  0  0  0  0  0  0
    7.5722   -4.9386   28.6338 O   0  0  0  0  0  0  0  0  0  0  0  0
   14.0293   -1.4651   23.2127 S   0  0  0  0  0  0  0  0  0  0  0  0
    3.6208    2.0704   21.6579 H   0  0  0  0  0  0  0  0  0  0  0  0
    2.9857    2.6926   19.3615 H   0  0  0  0  0  0  0  0  0  0  0  0
    5.6664    0.7407   22.0807 H   0  0  0  0  0  0  0  0  0  0  0  0
    4.3794    2.0106   17.4221 H   0  0  0  0  0  0  0  0  0  0  0  0
    9.5426   -4.5618   23.7797 H   0  0  0  0  0  0  0  0  0  0  0  0
    7.1914   -1.8824   26.1903 H   0  0  0  0  0  0  0  0  0  0  0  0
   10.2669   -2.6745   22.3854 H   0  0  0  0  0  0  0  0  0  0  0  0
    7.8690   -0.0020   24.7587 H   0  0  0  0  0  0  0  0  0  0  0  0
   12.1079    0.1996   25.7774 H   0  0  0  0  0  0  0  0  0  0  0  0
    8.4172   -0.8135   18.0384 H   0  0  0  0  0  0  0  0  0  0  0  0
   14.3009   -1.2440   25.6308 H   0  0  0  0  0  0  0  0  0  0  0  0
   12.4363   -0.7086   21.5249 H   0  0  0  0  0  0  0  0  0  0  0  0
    9.9646   -5.0565   26.2705 H   0  0  0  0  0  0  0  0  0  0  0  0
    8.6931   -6.2628   26.5702 H   0  0  0  0  0  0  0  0  0  0  0  0
    6.2606   -5.5364   26.3305 H   0  0  0  0  0  0  0  0  0  0  0  0
    5.9292   -3.8442   25.9001 H   0  0  0  0  0  0  0  0  0  0  0  0
    9.5588   -5.4279   28.7169 H   0  0  0  0  0  0  0  0  0  0  0  0
    9.2344   -3.7514   28.2637 H   0  0  0  0  0  0  0  0  0  0  0  0
    6.8876   -3.0650   28.0550 H   0  0  0  0  0  0  0  0  0  0  0  0
    5.6491   -4.2880   28.3587 H   0  0  0  0  0  0  0  0  0  0  0  0
   10.2659    1.1437   24.2561 H   0  0  0  0  0  0  0  0  0  0  0  0
   10.8458    1.5792   22.6481 H   0  0  0  0  0  0  0  0  0  0  0  0
    6.6715    0.4865   16.8044 H   0  0  0  0  0  0  0  0  0  0  0  0
    8.0705   -1.6178   21.0726 H   0  0  0  0  0  0  0  0  0  0  0  0
  1  2  1  0  0  0  0
  1  3  2  0  0  0  0
  2  4  2  0  0  0  0
  3 13  1  0  0  0  0
  4 15  1  0  0  0  0
  5  7  2  0  0  0  0
  5 16  1  0  0  0  0
  6  8  1  0  0  0  0
  6 16  2  0  0  0  0
  7 17  1  0  0  0  0
  8 17  2  0  0  0  0
  9 11  2  0  0  0  0
  9 14  1  0  0  0  0
 10 18  2  0  0  0  0
 10 25  1  0  0  0  0
 11 31  1  0  0  0  0
 12 14  2  0  0  0  0
 12 31  1  0  0  0  0
 13 15  2  0  0  0  0
 13 18  1  0  0  0  0
 14 24  1  0  0  0  0
 15 25  1  0  0  0  0
 16 26  1  0  0  0  0
 17 28  1  0  0  0  0
 18 27  1  0  0  0  0
 19 27  1  0  0  0  0
 19 28  1  0  0  0  0
 19 29  2  0  0  0  0
 20 22  1  0  0  0  0
 20 26  1  0  0  0  0
 21 23  1  0  0  0  0
 21 26  1  0  0  0  0
 22 30  1  0  0  0  0
 23 30  1  0  0  0  0
 24 28  1  0  0  0  0
  1 32  1  0  0  0  0
  2 33  1  0  0  0  0
  3 34  1  0  0  0  0
  4 35  1  0  0  0  0
  5 36  1  0  0  0  0
  6 37  1  0  0  0  0
  7 38  1  0  0  0  0
  8 39  1  0  0  0  0
  9 40  1  0  0  0  0
 10 41  1  0  0  0  0
 11 42  1  0  0  0  0
 12 43  1  0  0  0  0
 20 44  1  0  0  0  0
 20 45  1  0  0  0  0
 21 46  1  0  0  0  0
 21 47  1  0  0  0  0
 22 48  1  0  0  0  0
 22 49  1  0  0  0  0
 23 50  1  0  0  0  0
 23 51  1  0  0  0  0
 24 52  1  0  0  0  0
 24 53  1  0  0  0  0
 25 54  1  0  0  0  0
 27 55  1  0  0  0  0
M  END
> <clash_score>
0

> <docking_score>
-8.796892166137695

> <overlap_score>
0.969898521900177

$$$$
BENZO_138_1
  -OEChem-08232013523D

 58 62  0     0  0  0  0  0  0999 V2000
    4.2460    1.7520   20.8250 C   0  0  0  0  0  0  0  0  0  0  0  0
    3.8860    2.1050   19.5250 C   0  0  0  0  0  0  0  0  0  0  0  0
   13.5938   -0.8759   25.1008 C   0  0  0  0  0  0  0  0  0  0  0  0
    5.3890    1.0010   21.0690 C   0  0  0  0  0  0  0  0  0  0  0  0
   12.4233   -0.1543   24.8669 C   0  0  0  0  0  0  0  0  0  0  0  0
    4.6610    1.7170   18.4380 C   0  0  0  0  0  0  0  0  0  0  0  0
    9.1890   -3.5540   24.0140 C   0  0  0  0  0  0  0  0  0  0  0  0
    7.8700   -2.0610   25.3550 C   0  0  0  0  0  0  0  0  0  0  0  0
    9.5890   -2.4950   23.2210 C   0  0  0  0  0  0  0  0  0  0  0  0
    8.2550   -1.0010   24.5520 C   0  0  0  0  0  0  0  0  0  0  0  0
   14.2619   -1.4847   24.0384 C   0  0  0  0  0  0  0  0  0  0  0  0
   12.5889   -0.6504   22.5081 C   0  0  0  0  0  0  0  0  0  0  0  0
    7.5840   -0.2700   18.5160 C   0  0  0  0  0  0  0  0  0  0  0  0
    6.1460    0.6070   19.9750 C   0  0  0  0  0  0  0  0  0  0  0  0
   11.9208   -0.0415   23.5705 C   0  0  0  0  0  0  0  0  0  0  0  0
    5.7970    0.9500   18.6730 C   0  0  0  0  0  0  0  0  0  0  0  0
    8.3450   -3.3440   25.0980 C   0  0  0  0  0  0  0  0  0  0  0  0
    9.1280   -1.2090   23.4870 C   0  0  0  0  0  0  0  0  0  0  0  0
    7.2710   -0.1460   19.8310 C   0  0  0  0  0  0  0  0  0  0  0  0
   13.7594   -1.3720   22.7421 C   0  0  0  0  0  0  0  0  0  0  0  0
    9.0430    0.2380   21.4940 C   0  0  0  0  0  0  0  0  0  0  0  0
    8.9519   -5.2016   26.6602 C   0  0  0  0  0  0  0  0  0  0  0  0
    6.6111   -4.5061   26.4377 C   0  0  0  0  0  0  0  0  0  0  0  0
    8.9032   -4.7846   28.1262 C   0  0  0  0  0  0  0  0  0  0  0  0
    6.6372   -4.1235   27.9182 C   0  0  0  0  0  0  0  0  0  0  0  0
   10.6602    0.7344   23.3196 C   0  0  0  0  0  0  0  0  0  0  0  0
    6.7100    0.3850   17.8100 N   0  0  0  0  0  0  0  0  0  0  0  0
    7.9775   -4.4014   25.9151 N   0  0  0  0  0  0  0  0  0  0  0  0
    8.0950   -0.7700   20.8440 N   0  0  0  0  0  0  0  0  0  0  0  0
    9.5820   -0.1080   22.7000 N   0  0  0  0  0  0  0  0  0  0  0  0
    9.2950    1.3000   20.9480 O   0  0  0  0  0  0  0  0  0  0  0  0
    7.5722   -4.9386   28.6338 O   0  0  0  0  0  0  0  0  0  0  0  0
   14.5836   -2.1243   21.4319 Cl  0  0  0  0  0  0  0  0  0  0  0  0
    3.6208    2.0704   21.6579 H   0  0  0  0  0  0  0  0  0  0  0  0
    2.9857    2.6926   19.3615 H   0  0  0  0  0  0  0  0  0  0  0  0
   13.9846   -0.9636   26.1104 H   0  0  0  0  0  0  0  0  0  0  0  0
    5.6664    0.7407   22.0807 H   0  0  0  0  0  0  0  0  0  0  0  0
   11.9092    0.3167   25.7007 H   0  0  0  0  0  0  0  0  0  0  0  0
    4.3794    2.0106   17.4221 H   0  0  0  0  0  0  0  0  0  0  0  0
    9.5426   -4.5618   23.7797 H   0  0  0  0  0  0  0  0  0  0  0  0
    7.1914   -1.8824   26.1903 H   0  0  0  0  0  0  0  0  0  0  0  0
   10.2669   -2.6745   22.3854 H   0  0  0  0  0  0  0  0  0  0  0  0
    7.8690   -0.0020   24.7587 H   0  0  0  0  0  0  0  0  0  0  0  0
   15.1730   -2.0443   24.2357 H   0  0  0  0  0  0  0  0  0  0  0  0
   12.1934   -0.5591   21.4992 H   0  0  0  0  0  0  0  0  0  0  0  0
    8.4172   -0.8135   18.0384 H   0  0  0  0  0  0  0  0  0  0  0  0
    9.9646   -5.0565   26.2705 H   0  0  0  0  0  0  0  0  0  0  0  0
    8.6931   -6.2628   26.5702 H   0  0  0  0  0  0  0  0  0  0  0  0
    6.2606   -5.5364   26.3305 H   0  0  0  0  0  0  0  0  0  0  0  0
    5.9292   -3.8442   25.9001 H   0  0  0  0  0  0  0  0  0  0  0  0
    9.5588   -5.4279   28.7169 H   0  0  0  0  0  0  0  0  0  0  0  0
    9.2344   -3.7514   28.2637 H   0  0  0  0  0  0  0  0  0  0  0  0
    6.8876   -3.0650   28.0550 H   0  0  0  0  0  0  0  0  0  0  0  0
    5.6491   -4.2880   28.3587 H   0  0  0  0  0  0  0  0  0  0  0  0
   10.2659    1.1437   24.2561 H   0  0  0  0  0  0  0  0  0  0  0  0
   10.8458    1.5792   22.6481 H   0  0  0  0  0  0  0  0  0  0  0  0
    6.6715    0.4865   16.8044 H   0  0  0  0  0  0  0  0  0  0  0  0
    8.0705   -1.6178   21.0726 H   0  0  0  0  0  0  0  0  0  0  0  0
  1  2  1  0  0  0  0
  1  4  2  0  0  0  0
  2  6  2  0  0  0  0
  3  5  2  0  0  0  0
  3 11  1  0  0  0  0
  4 14  1  0  0  0  0
  5 15  1  0  0  0  0
  6 16  1  0  0  0  0
  7  9  2  0  0  0  0
  7 17  1  0  0  0  0
  8 10  1  0  0  0  0
  8 17  2  0  0  0  0
  9 18  1  0  0  0  0
 10 18  2  0  0  0  0
 11 20  2  0  0  0  0
 12 15  2  0  0  0  0
 12 20  1  0  0  0  0
 13 19  2  0  0  0  0
 13 27  1  0  0  0  0
 14 16  2  0  0  0  0
 14 19  1  0  0  0  0
 15 26  1  0  0  0  0
 16 27  1  0  0  0  0
 17 28  1  0  0  0  0
 18 30  1  0  0  0  0
 19 29  1  0  0  0  0
 20 33  1  0  0  0  0
 21 29  1  0  0  0  0
 21 30  1  0  0  0  0
 21 31  2  0  0  0  0
 22 24  1  0  0  0  0
 22 28  1  0  0  0  0
 23 25  1  0  0  0  0
 23 28  1  0  0  0  0
 24 32  1  0  0  0  0
 25 32  1  0  0  0  0
 26 30  1  0  0  0  0
  1 34  1  0  0  0  0
  2 35  1  0  0  0  0
  3 36  1  0  0  0  0
  4 37  1  0  0  0  0
  5 38  1  0  0  0  0
  6 39  1  0  0  0  0
  7 40  1  0  0  0  0
  8 41  1  0  0  0  0
  9 42  1  0  0  0  0
 10 43  1  0  0  0  0
 11 44  1  0  0  0  0
 12 45  1  0  0  0  0
 13 46  1  0  0  0  0
 22 47  1  0  0  0  0
 22 48  1  0  0  0  0
 23 49  1  0  0  0  0
 23 50  1  0  0  0  0
 24 51  1  0  0  0  0
 24 52  1  0  0  0  0
 25 53  1  0  0  0  0
 25 54  1  0  0  0  0
 26 55  1  0  0  0  0
 26 56  1  0  0  0  0
 27 57  1  0  0  0  0
 29 58  1  0  0  0  0
M  END
> <clash_score>
0

> <docking_score>
-8.209047317504883

> <overlap_score>
0.9945394992828369

$$$$
BENZO_139_1
  -OEChem-08232013523D

 58 62  0     0  0  0  0  0  0999 V2000
    4.2460    1.7520   20.8250 C   0  0  0  0  0  0  0  0  0  0  0  0
    3.8860    2.1050   19.5250 C   0  0  0  0  0  0  0  0  0  0  0  0
    5.3890    1.0010   21.0690 C   0  0  0  0  0  0  0  0  0  0  0  0
    4.6610    1.7170   18.4380 C   0  0  0  0  0  0  0  0  0  0  0  0
    9.1890   -3.5540   24.0140 C   0  0  0  0  0  0  0  0  0  0  0  0
    7.8700   -2.0610   25.3550 C   0  0  0  0  0  0  0  0  0  0  0  0
    9.5890   -2.4950   23.2210 C   0  0  0  0  0  0  0  0  0  0  0  0
    8.2550   -1.0010   24.5520 C   0  0  0  0  0  0  0  0  0  0  0  0
   13.2160    0.4884   23.8066 C   0  0  0  0  0  0  0  0  0  0  0  0
   12.3975   -0.8664   22.2803 C   0  0  0  0  0  0  0  0  0  0  0  0
    7.5840   -0.2700   18.5160 C   0  0  0  0  0  0  0  0  0  0  0  0
    6.1460    0.6070   19.9750 C   0  0  0  0  0  0  0  0  0  0  0  0
   12.0272    0.1409   23.1374 C   0  0  0  0  0  0  0  0  0  0  0  0
    5.7970    0.9500   18.6730 C   0  0  0  0  0  0  0  0  0  0  0  0
    8.3450   -3.3440   25.0980 C   0  0  0  0  0  0  0  0  0  0  0  0
    9.1280   -1.2090   23.4870 C   0  0  0  0  0  0  0  0  0  0  0  0
    7.2710   -0.1460   19.8310 C   0  0  0  0  0  0  0  0  0  0  0  0
    9.0430    0.2380   21.4940 C   0  0  0  0  0  0  0  0  0  0  0  0
    8.9519   -5.2016   26.6602 C   0  0  0  0  0  0  0  0  0  0  0  0
    6.6111   -4.5061   26.4377 C   0  0  0  0  0  0  0  0  0  0  0  0
    8.9032   -4.7846   28.1262 C   0  0  0  0  0  0  0  0  0  0  0  0
    6.6372   -4.1235   27.9182 C   0  0  0  0  0  0  0  0  0  0  0  0
   14.5745   -2.0123   21.8044 C   0  0  0  0  0  0  0  0  0  0  0  0
   10.6602    0.7344   23.3196 C   0  0  0  0  0  0  0  0  0  0  0  0
   14.2631   -0.2392   23.4090 N   0  0  0  0  0  0  0  0  0  0  0  0
    6.7100    0.3850   17.8100 N   0  0  0  0  0  0  0  0  0  0  0  0
   13.7335   -1.0540   22.4807 N   0  0  0  0  0  0  0  0  0  0  0  0
    7.9775   -4.4014   25.9151 N   0  0  0  0  0  0  0  0  0  0  0  0
    8.0950   -0.7700   20.8440 N   0  0  0  0  0  0  0  0  0  0  0  0
    9.5820   -0.1080   22.7000 N   0  0  0  0  0  0  0  0  0  0  0  0
    9.2950    1.3000   20.9480 O   0  0  0  0  0  0  0  0  0  0  0  0
    7.5722   -4.9386   28.6338 O   0  0  0  0  0  0  0  0  0  0  0  0
    3.6208    2.0704   21.6579 H   0  0  0  0  0  0  0  0  0  0  0  0
    2.9857    2.6926   19.3615 H   0  0  0  0  0  0  0  0  0  0  0  0
    5.6664    0.7407   22.0807 H   0  0  0  0  0  0  0  0  0  0  0  0
    4.3794    2.0106   17.4221 H   0  0  0  0  0  0  0  0  0  0  0  0
    9.5426   -4.5618   23.7797 H   0  0  0  0  0  0  0  0  0  0  0  0
    7.1914   -1.8824   26.1903 H   0  0  0  0  0  0  0  0  0  0  0  0
   10.2669   -2.6745   22.3854 H   0  0  0  0  0  0  0  0  0  0  0  0
    7.8690   -0.0020   24.7587 H   0  0  0  0  0  0  0  0  0  0  0  0
   13.3652    1.2405   24.5684 H   0  0  0  0  0  0  0  0  0  0  0  0
   11.8378   -1.4521   21.5637 H   0  0  0  0  0  0  0  0  0  0  0  0
    8.4172   -0.8135   18.0384 H   0  0  0  0  0  0  0  0  0  0  0  0
    9.9646   -5.0565   26.2705 H   0  0  0  0  0  0  0  0  0  0  0  0
    8.6931   -6.2628   26.5702 H   0  0  0  0  0  0  0  0  0  0  0  0
    6.2606   -5.5364   26.3305 H   0  0  0  0  0  0  0  0  0  0  0  0
    5.9292   -3.8442   25.9001 H   0  0  0  0  0  0  0  0  0  0  0  0
    9.5588   -5.4279   28.7169 H   0  0  0  0  0  0  0  0  0  0  0  0
    9.2344   -3.7514   28.2637 H   0  0  0  0  0  0  0  0  0  0  0  0
    6.8876   -3.0650   28.0550 H   0  0  0  0  0  0  0  0  0  0  0  0
    5.6491   -4.2880   28.3587 H   0  0  0  0  0  0  0  0  0  0  0  0
   14.9803   -1.5328   20.9098 H   0  0  0  0  0  0  0  0  0  0  0  0
   15.3831   -2.3224   22.4722 H   0  0  0  0  0  0  0  0  0  0  0  0
   13.9785   -2.8882   21.5331 H   0  0  0  0  0  0  0  0  0  0  0  0
   10.4260    0.8448   24.3841 H   0  0  0  0  0  0  0  0  0  0  0  0
   10.6008    1.7305   22.8686 H   0  0  0  0  0  0  0  0  0  0  0  0
    6.6715    0.4865   16.8044 H   0  0  0  0  0  0  0  0  0  0  0  0
    8.0705   -1.6178   21.0726 H   0  0  0  0  0  0  0  0  0  0  0  0
  1  2  1  0  0  0  0
  1  3  2  0  0  0  0
  2  4  2  0  0  0  0
  3 12  1  0  0  0  0
  4 14  1  0  0  0  0
  5  7  2  0  0  0  0
  5 15  1  0  0  0  0
  6  8  1  0  0  0  0
  6 15  2  0  0  0  0
  7 16  1  0  0  0  0
  8 16  2  0  0  0  0
  9 13  1  0  0  0  0
  9 25  2  0  0  0  0
 10 13  2  0  0  0  0
 10 27  1  0  0  0  0
 11 17  2  0  0  0  0
 11 26  1  0  0  0  0
 12 14  2  0  0  0  0
 12 17  1  0  0  0  0
 13 24  1  0  0  0  0
 14 26  1  0  0  0  0
 15 28  1  0  0  0  0
 16 30  1  0  0  0  0
 17 29  1  0  0  0  0
 18 29  1  0  0  0  0
 18 30  1  0  0  0  0
 18 31  2  0  0  0  0
 19 21  1  0  0  0  0
 19 28  1  0  0  0  0
 20 22  1  0  0  0  0
 20 28  1  0  0  0  0
 21 32  1  0  0  0  0
 22 32  1  0  0  0  0
 23 27  1  0  0  0  0
 24 30  1  0  0  0  0
 25 27  1  0  0  0  0
  1 33  1  0  0  0  0
  2 34  1  0  0  0  0
  3 35  1  0  0  0  0
  4 36  1  0  0  0  0
  5 37  1  0  0  0  0
  6 38  1  0  0  0  0
  7 39  1  0  0  0  0
  8 40  1  0  0  0  0
  9 41  1  0  0  0  0
 10 42  1  0  0  0  0
 11 43  1  0  0  0  0
 19 44  1  0  0  0  0
 19 45  1  0  0  0  0
 20 46  1  0  0  0  0
 20 47  1  0  0  0  0
 21 48  1  0  0  0  0
 21 49  1  0  0  0  0
 22 50  1  0  0  0  0
 22 51  1  0  0  0  0
 23 52  1  0  0  0  0
 23 53  1  0  0  0  0
 23 54  1  0  0  0  0
 24 55  1  0  0  0  0
 24 56  1  0  0  0  0
 26 57  1  0  0  0  0
 29 58  1  0  0  0  0
M  END
> <clash_score>
0

> <docking_score>
-9.201208114624023

> <overlap_score>
0.9785715937614441

$$$$
BENZO_141_1
  -OEChem-08232013523D

 51 54  0     0  0  0  0  0  0999 V2000
   14.2531   -1.4963   24.0469 C   0  0  0  0  0  0  0  0  0  0  0  0
   13.9197   -0.4228   24.8727 C   0  0  0  0  0  0  0  0  0  0  0  0
   13.4186   -1.8446   22.9848 C   0  0  0  0  0  0  0  0  0  0  0  0
   12.7519    0.3025   24.6365 C   0  0  0  0  0  0  0  0  0  0  0  0
   12.2508   -1.1193   22.7485 C   0  0  0  0  0  0  0  0  0  0  0  0
    9.5890   -2.4950   23.2210 C   0  0  0  0  0  0  0  0  0  0  0  0
    8.2550   -1.0010   24.5520 C   0  0  0  0  0  0  0  0  0  0  0  0
    9.1890   -3.5540   24.0140 C   0  0  0  0  0  0  0  0  0  0  0  0
    7.8700   -2.0610   25.3550 C   0  0  0  0  0  0  0  0  0  0  0  0
   11.9174   -0.0457   23.5744 C   0  0  0  0  0  0  0  0  0  0  0  0
    9.1280   -1.2090   23.4870 C   0  0  0  0  0  0  0  0  0  0  0  0
    8.3450   -3.3440   25.0980 C   0  0  0  0  0  0  0  0  0  0  0  0
    5.7970    0.9500   18.6730 C   0  0  0  0  0  0  0  0  0  0  0  0
    7.2710   -0.1460   19.8310 C   0  0  0  0  0  0  0  0  0  0  0  0
    4.6610    1.7170   18.4380 C   0  0  0  0  0  0  0  0  0  0  0  0
    3.8860    2.1050   19.5250 C   0  0  0  0  0  0  0  0  0  0  0  0
    4.2460    1.7520   20.8250 C   0  0  0  0  0  0  0  0  0  0  0  0
    5.3890    1.0010   21.0690 C   0  0  0  0  0  0  0  0  0  0  0  0
    9.0430    0.2380   21.4940 C   0  0  0  0  0  0  0  0  0  0  0  0
    7.2639   -5.5573   25.3803 C   0  0  0  0  0  0  0  0  0  0  0  0
    8.3073   -4.4056   27.3382 C   0  0  0  0  0  0  0  0  0  0  0  0
   10.6602    0.7344   23.3196 C   0  0  0  0  0  0  0  0  0  0  0  0
    6.7100    0.3850   17.8100 N   0  0  0  0  0  0  0  0  0  0  0  0
    7.5840   -0.2700   18.5160 N   0  0  0  0  0  0  0  0  0  0  0  0
    6.1460    0.6070   19.9750 N   0  0  0  0  0  0  0  0  0  0  0  0
    8.0950   -0.7700   20.8440 N   0  0  0  0  0  0  0  0  0  0  0  0
    9.5820   -0.1080   22.7000 N   0  0  0  0  0  0  0  0  0  0  0  0
    7.9731   -4.4180   25.9279 N   0  0  0  0  0  0  0  0  0  0  0  0
    9.2950    1.3000   20.9480 O   0  0  0  0  0  0  0  0  0  0  0  0
   15.1631   -2.0601   24.2302 H   0  0  0  0  0  0  0  0  0  0  0  0
   14.5699   -0.1508   25.6992 H   0  0  0  0  0  0  0  0  0  0  0  0
   13.6784   -2.6796   22.3410 H   0  0  0  0  0  0  0  0  0  0  0  0
   12.5001    1.1373   25.2852 H   0  0  0  0  0  0  0  0  0  0  0  0
   11.6067   -1.3979   21.9187 H   0  0  0  0  0  0  0  0  0  0  0  0
   10.2682   -2.6746   22.3864 H   0  0  0  0  0  0  0  0  0  0  0  0
    7.8692   -0.0022   24.7600 H   0  0  0  0  0  0  0  0  0  0  0  0
    9.5433   -4.5619   23.7809 H   0  0  0  0  0  0  0  0  0  0  0  0
    7.1923   -1.8829   26.1908 H   0  0  0  0  0  0  0  0  0  0  0  0
    4.3710    2.0145   17.4451 H   0  0  0  0  0  0  0  0  0  0  0  0
    2.9929    2.6891   19.3400 H   0  0  0  0  0  0  0  0  0  0  0  0
    3.6320    2.0596   21.6814 H   0  0  0  0  0  0  0  0  0  0  0  0
    5.6863    0.7288   22.0575 H   0  0  0  0  0  0  0  0  0  0  0  0
    7.0649   -6.2852   26.1806 H   0  0  0  0  0  0  0  0  0  0  0  0
    6.3111   -5.2213   24.9452 H   0  0  0  0  0  0  0  0  0  0  0  0
    7.8773   -6.0299   24.5991 H   0  0  0  0  0  0  0  0  0  0  0  0
    7.9344   -5.3256   27.8121 H   0  0  0  0  0  0  0  0  0  0  0  0
    9.3996   -4.3497   27.4555 H   0  0  0  0  0  0  0  0  0  0  0  0
    7.8418   -3.5318   27.8176 H   0  0  0  0  0  0  0  0  0  0  0  0
   10.2623    1.1418   24.2555 H   0  0  0  0  0  0  0  0  0  0  0  0
   10.8514    1.5808   22.6517 H   0  0  0  0  0  0  0  0  0  0  0  0
    8.0681   -1.6191   21.0706 H   0  0  0  0  0  0  0  0  0  0  0  0
  1  2  1  0  0  0  0
  1  3  2  0  0  0  0
  2  4  2  0  0  0  0
  3  5  1  0  0  0  0
  4 10  1  0  0  0  0
  5 10  2  0  0  0  0
  6  8  2  0  0  0  0
  6 11  1  0  0  0  0
  7  9  1  0  0  0  0
  7 11  2  0  0  0  0
  8 12  1  0  0  0  0
  9 12  2  0  0  0  0
 10 22  1  0  0  0  0
 11 27  1  0  0  0  0
 12 28  1  0  0  0  0
 13 15  1  0  0  0  0
 13 23  2  0  0  0  0
 13 25  1  0  0  0  0
 14 24  2  0  0  0  0
 14 25  1  0  0  0  0
 14 26  1  0  0  0  0
 15 16  2  0  0  0  0
 16 17  1  0  0  0  0
 17 18  2  0  0  0  0
 18 25  1  0  0  0  0
 19 26  1  0  0  0  0
 19 27  1  0  0  0  0
 19 29  2  0  0  0  0
 20 28  1  0  0  0  0
 21 28  1  0  0  0  0
 22 27  1  0  0  0  0
 23 24  1  0  0  0  0
  1 30  1  0  0  0  0
  2 31  1  0  0  0  0
  3 32  1  0  0  0  0
  4 33  1  0  0  0  0
  5 34  1  0  0  0  0
  6 35  1  0  0  0  0
  7 36  1  0  0  0  0
  8 37  1  0  0  0  0
  9 38  1  0  0  0  0
 15 39  1  0  0  0  0
 16 40  1  0  0  0  0
 17 41  1  0  0  0  0
 18 42  1  0  0  0  0
 20 43  1  0  0  0  0
 20 44  1  0  0  0  0
 20 45  1  0  0  0  0
 21 46  1  0  0  0  0
 21 47  1  0  0  0  0
 21 48  1  0  0  0  0
 22 49  1  0  0  0  0
 22 50  1  0  0  0  0
 26 51  1  0  0  0  0
M  END
> <clash_score>
0

> <docking_score>
-8.578457832336426

> <overlap_score>
0.9373124837875366

$$$$
BENZO_140_1
  -OEChem-08232013523D

 48 51  0     0  0  0  0  0  0999 V2000
    9.5890   -2.4950   23.2210 C   0  0  0  0  0  0  0  0  0  0  0  0
    8.2550   -1.0010   24.5520 C   0  0  0  0  0  0  0  0  0  0  0  0
    9.1890   -3.5540   24.0140 C   0  0  0  0  0  0  0  0  0  0  0  0
    7.8700   -2.0610   25.3550 C   0  0  0  0  0  0  0  0  0  0  0  0
   12.4968   -0.2200   24.8644 C   0  0  0  0  0  0  0  0  0  0  0  0
   13.6467   -0.9769   24.8172 C   0  0  0  0  0  0  0  0  0  0  0  0
   12.6469   -0.6760   22.5902 C   0  0  0  0  0  0  0  0  0  0  0  0
   11.9174   -0.0457   23.5744 C   0  0  0  0  0  0  0  0  0  0  0  0
    9.1280   -1.2090   23.4870 C   0  0  0  0  0  0  0  0  0  0  0  0
    8.3450   -3.3440   25.0980 C   0  0  0  0  0  0  0  0  0  0  0  0
    5.7970    0.9500   18.6730 C   0  0  0  0  0  0  0  0  0  0  0  0
    7.2710   -0.1460   19.8310 C   0  0  0  0  0  0  0  0  0  0  0  0
    4.6610    1.7170   18.4380 C   0  0  0  0  0  0  0  0  0  0  0  0
    3.8860    2.1050   19.5250 C   0  0  0  0  0  0  0  0  0  0  0  0
    4.2460    1.7520   20.8250 C   0  0  0  0  0  0  0  0  0  0  0  0
    5.3890    1.0010   21.0690 C   0  0  0  0  0  0  0  0  0  0  0  0
    9.0430    0.2380   21.4940 C   0  0  0  0  0  0  0  0  0  0  0  0
    7.2639   -5.5573   25.3803 C   0  0  0  0  0  0  0  0  0  0  0  0
    8.3073   -4.4056   27.3382 C   0  0  0  0  0  0  0  0  0  0  0  0
   10.6602    0.7344   23.3196 C   0  0  0  0  0  0  0  0  0  0  0  0
    6.7100    0.3850   17.8100 N   0  0  0  0  0  0  0  0  0  0  0  0
    7.5840   -0.2700   18.5160 N   0  0  0  0  0  0  0  0  0  0  0  0
    6.1460    0.6070   19.9750 N   0  0  0  0  0  0  0  0  0  0  0  0
    8.0950   -0.7700   20.8440 N   0  0  0  0  0  0  0  0  0  0  0  0
    9.5820   -0.1080   22.7000 N   0  0  0  0  0  0  0  0  0  0  0  0
    7.9731   -4.4180   25.9279 N   0  0  0  0  0  0  0  0  0  0  0  0
    9.2950    1.3000   20.9480 O   0  0  0  0  0  0  0  0  0  0  0  0
   14.0239   -1.4739   23.2225 S   0  0  0  0  0  0  0  0  0  0  0  0
   10.2682   -2.6746   22.3864 H   0  0  0  0  0  0  0  0  0  0  0  0
    7.8692   -0.0022   24.7600 H   0  0  0  0  0  0  0  0  0  0  0  0
    9.5433   -4.5619   23.7809 H   0  0  0  0  0  0  0  0  0  0  0  0
    7.1923   -1.8829   26.1908 H   0  0  0  0  0  0  0  0  0  0  0  0
   12.0940    0.1878   25.7829 H   0  0  0  0  0  0  0  0  0  0  0  0
   14.2839   -1.2612   25.6427 H   0  0  0  0  0  0  0  0  0  0  0  0
   12.4414   -0.7076   21.5292 H   0  0  0  0  0  0  0  0  0  0  0  0
    4.3710    2.0145   17.4451 H   0  0  0  0  0  0  0  0  0  0  0  0
    2.9929    2.6891   19.3400 H   0  0  0  0  0  0  0  0  0  0  0  0
    3.6320    2.0596   21.6814 H   0  0  0  0  0  0  0  0  0  0  0  0
    5.6863    0.7288   22.0575 H   0  0  0  0  0  0  0  0  0  0  0  0
    7.0649   -6.2852   26.1806 H   0  0  0  0  0  0  0  0  0  0  0  0
    6.3111   -5.2213   24.9452 H   0  0  0  0  0  0  0  0  0  0  0  0
    7.8773   -6.0299   24.5991 H   0  0  0  0  0  0  0  0  0  0  0  0
    7.9344   -5.3256   27.8121 H   0  0  0  0  0  0  0  0  0  0  0  0
    9.3996   -4.3497   27.4555 H   0  0  0  0  0  0  0  0  0  0  0  0
    7.8418   -3.5318   27.8176 H   0  0  0  0  0  0  0  0  0  0  0  0
   10.2623    1.1418   24.2555 H   0  0  0  0  0  0  0  0  0  0  0  0
   10.8514    1.5808   22.6517 H   0  0  0  0  0  0  0  0  0  0  0  0
    8.0681   -1.6191   21.0706 H   0  0  0  0  0  0  0  0  0  0  0  0
  1  3  2  0  0  0  0
  1  9  1  0  0  0  0
  2  4  1  0  0  0  0
  2  9  2  0  0  0  0
  3 10  1  0  0  0  0
  4 10  2  0  0  0  0
  5  6  2  0  0  0  0
  5  8  1  0  0  0  0
  6 28  1  0  0  0  0
  7  8  2  0  0  0  0
  7 28  1  0  0  0  0
  8 20  1  0  0  0  0
  9 25  1  0  0  0  0
 10 26  1  0  0  0  0
 11 13  1  0  0  0  0
 11 21  2  0  0  0  0
 11 23  1  0  0  0  0
 12 22  2  0  0  0  0
 12 23  1  0  0  0  0
 12 24  1  0  0  0  0
 13 14  2  0  0  0  0
 14 15  1  0  0  0  0
 15 16  2  0  0  0  0
 16 23  1  0  0  0  0
 17 24  1  0  0  0  0
 17 25  1  0  0  0  0
 17 27  2  0  0  0  0
 18 26  1  0  0  0  0
 19 26  1  0  0  0  0
 20 25  1  0  0  0  0
 21 22  1  0  0  0  0
  1 29  1  0  0  0  0
  2 30  1  0  0  0  0
  3 31  1  0  0  0  0
  4 32  1  0  0  0  0
  5 33  1  0  0  0  0
  6 34  1  0  0  0  0
  7 35  1  0  0  0  0
 13 36  1  0  0  0  0
 14 37  1  0  0  0  0
 15 38  1  0  0  0  0
 16 39  1  0  0  0  0
 18 40  1  0  0  0  0
 18 41  1  0  0  0  0
 18 42  1  0  0  0  0
 19 43  1  0  0  0  0
 19 44  1  0  0  0  0
 19 45  1  0  0  0  0
 20 46  1  0  0  0  0
 20 47  1  0  0  0  0
 24 48  1  0  0  0  0
M  END
> <clash_score>
0

> <docking_score>
-8.408982276916504

> <overlap_score>
0.9222419857978821

$$$$
BENZO_143_1
  -OEChem-08232013523D

 51 54  0     0  0  0  0  0  0999 V2000
    9.5890   -2.4950   23.2210 C   0  0  0  0  0  0  0  0  0  0  0  0
    8.2550   -1.0010   24.5520 C   0  0  0  0  0  0  0  0  0  0  0  0
    9.1890   -3.5540   24.0140 C   0  0  0  0  0  0  0  0  0  0  0  0
    7.8700   -2.0610   25.3550 C   0  0  0  0  0  0  0  0  0  0  0  0
   13.2131    0.4756   23.8152 C   0  0  0  0  0  0  0  0  0  0  0  0
   12.3942   -0.8708   22.2816 C   0  0  0  0  0  0  0  0  0  0  0  0
   12.0252    0.1355   23.1405 C   0  0  0  0  0  0  0  0  0  0  0  0
    9.1280   -1.2090   23.4870 C   0  0  0  0  0  0  0  0  0  0  0  0
    8.3450   -3.3440   25.0980 C   0  0  0  0  0  0  0  0  0  0  0  0
    5.7970    0.9500   18.6730 C   0  0  0  0  0  0  0  0  0  0  0  0
    7.2710   -0.1460   19.8310 C   0  0  0  0  0  0  0  0  0  0  0  0
    4.6610    1.7170   18.4380 C   0  0  0  0  0  0  0  0  0  0  0  0
    3.8860    2.1050   19.5250 C   0  0  0  0  0  0  0  0  0  0  0  0
    4.2460    1.7520   20.8250 C   0  0  0  0  0  0  0  0  0  0  0  0
    5.3890    1.0010   21.0690 C   0  0  0  0  0  0  0  0  0  0  0  0
    9.0430    0.2380   21.4940 C   0  0  0  0  0  0  0  0  0  0  0  0
   14.5678   -2.0249   21.8101 C   0  0  0  0  0  0  0  0  0  0  0  0
    7.2639   -5.5573   25.3803 C   0  0  0  0  0  0  0  0  0  0  0  0
    8.3073   -4.4056   27.3382 C   0  0  0  0  0  0  0  0  0  0  0  0
   10.6602    0.7344   23.3196 C   0  0  0  0  0  0  0  0  0  0  0  0
   14.2584   -0.2555   23.4191 N   0  0  0  0  0  0  0  0  0  0  0  0
    6.7100    0.3850   17.8100 N   0  0  0  0  0  0  0  0  0  0  0  0
    7.5840   -0.2700   18.5160 N   0  0  0  0  0  0  0  0  0  0  0  0
   13.7286   -1.0650   22.4863 N   0  0  0  0  0  0  0  0  0  0  0  0
    6.1460    0.6070   19.9750 N   0  0  0  0  0  0  0  0  0  0  0  0
    8.0950   -0.7700   20.8440 N   0  0  0  0  0  0  0  0  0  0  0  0
    9.5820   -0.1080   22.7000 N   0  0  0  0  0  0  0  0  0  0  0  0
    7.9731   -4.4180   25.9279 N   0  0  0  0  0  0  0  0  0  0  0  0
    9.2950    1.3000   20.9480 O   0  0  0  0  0  0  0  0  0  0  0  0
   10.2682   -2.6746   22.3864 H   0  0  0  0  0  0  0  0  0  0  0  0
    7.8692   -0.0022   24.7600 H   0  0  0  0  0  0  0  0  0  0  0  0
    9.5433   -4.5619   23.7809 H   0  0  0  0  0  0  0  0  0  0  0  0
    7.1923   -1.8829   26.1908 H   0  0  0  0  0  0  0  0  0  0  0  0
   13.3628    1.2246   24.5799 H   0  0  0  0  0  0  0  0  0  0  0  0
   11.8346   -1.4518   21.5611 H   0  0  0  0  0  0  0  0  0  0  0  0
    4.3710    2.0145   17.4451 H   0  0  0  0  0  0  0  0  0  0  0  0
    2.9929    2.6891   19.3400 H   0  0  0  0  0  0  0  0  0  0  0  0
    3.6320    2.0596   21.6814 H   0  0  0  0  0  0  0  0  0  0  0  0
    5.6863    0.7288   22.0575 H   0  0  0  0  0  0  0  0  0  0  0  0
   14.9791   -1.5443   20.9184 H   0  0  0  0  0  0  0  0  0  0  0  0
   15.3726   -2.3406   22.4798 H   0  0  0  0  0  0  0  0  0  0  0  0
   13.9690   -2.8972   21.5338 H   0  0  0  0  0  0  0  0  0  0  0  0
    7.0649   -6.2852   26.1806 H   0  0  0  0  0  0  0  0  0  0  0  0
    6.3111   -5.2213   24.9452 H   0  0  0  0  0  0  0  0  0  0  0  0
    7.8773   -6.0299   24.5991 H   0  0  0  0  0  0  0  0  0  0  0  0
    7.9344   -5.3256   27.8121 H   0  0  0  0  0  0  0  0  0  0  0  0
    9.3996   -4.3497   27.4555 H   0  0  0  0  0  0  0  0  0  0  0  0
    7.8418   -3.5318   27.8176 H   0  0  0  0  0  0  0  0  0  0  0  0
   10.4226    0.8424   24.3836 H   0  0  0  0  0  0  0  0  0  0  0  0
   10.6069    1.7321   22.8715 H   0  0  0  0  0  0  0  0  0  0  0  0
    8.0681   -1.6191   21.0706 H   0  0  0  0  0  0  0  0  0  0  0  0
  1  3  2  0  0  0  0
  1  8  1  0  0  0  0
  2  4  1  0  0  0  0
  2  8  2  0  0  0  0
  3  9  1  0  0  0  0
  4  9  2  0  0  0  0
  5  7  1  0  0  0  0
  5 21  2  0  0  0  0
  6  7  2  0  0  0  0
  6 24  1  0  0  0  0
  7 20  1  0  0  0  0
  8 27  1  0  0  0  0
  9 28  1  0  0  0  0
 10 12  1  0  0  0  0
 10 22  2  0  0  0  0
 10 25  1  0  0  0  0
 11 23  2  0  0  0  0
 11 25  1  0  0  0  0
 11 26  1  0  0  0  0
 12 13  2  0  0  0  0
 13 14  1  0  0  0  0
 14 15  2  0  0  0  0
 15 25  1  0  0  0  0
 16 26  1  0  0  0  0
 16 27  1  0  0  0  0
 16 29  2  0  0  0  0
 17 24  1  0  0  0  0
 18 28  1  0  0  0  0
 19 28  1  0  0  0  0
 20 27  1  0  0  0  0
 21 24  1  0  0  0  0
 22 23  1  0  0  0  0
  1 30  1  0  0  0  0
  2 31  1  0  0  0  0
  3 32  1  0  0  0  0
  4 33  1  0  0  0  0
  5 34  1  0  0  0  0
  6 35  1  0  0  0  0
 12 36  1  0  0  0  0
 13 37  1  0  0  0  0
 14 38  1  0  0  0  0
 15 39  1  0  0  0  0
 17 40  1  0  0  0  0
 17 41  1  0  0  0  0
 17 42  1  0  0  0  0
 18 43  1  0  0  0  0
 18 44  1  0  0  0  0
 18 45  1  0  0  0  0
 19 46  1  0  0  0  0
 19 47  1  0  0  0  0
 19 48  1  0  0  0  0
 20 49  1  0  0  0  0
 20 50  1  0  0  0  0
 26 51  1  0  0  0  0
M  END
> <clash_score>
0

> <docking_score>
-8.82267951965332

> <overlap_score>
0.9319658279418945

$$$$
BENZO_145_1
  -OEChem-08232013523D

 53 56  0     0  0  0  0  0  0999 V2000
   14.2531   -1.4963   24.0469 C   0  0  0  0  0  0  0  0  0  0  0  0
   13.9197   -0.4228   24.8727 C   0  0  0  0  0  0  0  0  0  0  0  0
   13.4186   -1.8446   22.9848 C   0  0  0  0  0  0  0  0  0  0  0  0
   12.7519    0.3025   24.6365 C   0  0  0  0  0  0  0  0  0  0  0  0
   12.2508   -1.1193   22.7485 C   0  0  0  0  0  0  0  0  0  0  0  0
    9.1890   -3.5540   24.0140 C   0  0  0  0  0  0  0  0  0  0  0  0
    7.8700   -2.0610   25.3550 C   0  0  0  0  0  0  0  0  0  0  0  0
    9.5890   -2.4950   23.2210 C   0  0  0  0  0  0  0  0  0  0  0  0
    8.2550   -1.0010   24.5520 C   0  0  0  0  0  0  0  0  0  0  0  0
   11.9174   -0.0457   23.5744 C   0  0  0  0  0  0  0  0  0  0  0  0
    8.3450   -3.3440   25.0980 C   0  0  0  0  0  0  0  0  0  0  0  0
    9.1280   -1.2090   23.4870 C   0  0  0  0  0  0  0  0  0  0  0  0
    5.7970    0.9500   18.6730 C   0  0  0  0  0  0  0  0  0  0  0  0
    7.2710   -0.1460   19.8310 C   0  0  0  0  0  0  0  0  0  0  0  0
    4.6610    1.7170   18.4380 C   0  0  0  0  0  0  0  0  0  0  0  0
    3.8860    2.1050   19.5250 C   0  0  0  0  0  0  0  0  0  0  0  0
    4.2460    1.7520   20.8250 C   0  0  0  0  0  0  0  0  0  0  0  0
    5.3890    1.0010   21.0690 C   0  0  0  0  0  0  0  0  0  0  0  0
    7.6593   -4.3766   27.2872 C   0  0  0  0  0  0  0  0  0  0  0  0
    9.0430    0.2380   21.4940 C   0  0  0  0  0  0  0  0  0  0  0  0
    8.4366   -6.7645   27.6024 C   0  0  0  0  0  0  0  0  0  0  0  0
   10.6602    0.7344   23.3196 C   0  0  0  0  0  0  0  0  0  0  0  0
    7.3105   -5.7658   27.8003 C   0  0  0  0  0  0  0  0  0  0  0  0
    6.7100    0.3850   17.8100 N   0  0  0  0  0  0  0  0  0  0  0  0
    7.5840   -0.2700   18.5160 N   0  0  0  0  0  0  0  0  0  0  0  0
    6.1460    0.6070   19.9750 N   0  0  0  0  0  0  0  0  0  0  0  0
    7.9771   -4.4058   25.9196 N   0  0  0  0  0  0  0  0  0  0  0  0
    8.0950   -0.7700   20.8440 N   0  0  0  0  0  0  0  0  0  0  0  0
    9.5820   -0.1080   22.7000 N   0  0  0  0  0  0  0  0  0  0  0  0
    7.6481   -3.3915   28.0178 O   0  0  0  0  0  0  0  0  0  0  0  0
    9.2950    1.3000   20.9480 O   0  0  0  0  0  0  0  0  0  0  0  0
   15.1631   -2.0601   24.2302 H   0  0  0  0  0  0  0  0  0  0  0  0
   14.5699   -0.1508   25.6992 H   0  0  0  0  0  0  0  0  0  0  0  0
   13.6784   -2.6796   22.3410 H   0  0  0  0  0  0  0  0  0  0  0  0
   12.5001    1.1373   25.2852 H   0  0  0  0  0  0  0  0  0  0  0  0
   11.6067   -1.3979   21.9187 H   0  0  0  0  0  0  0  0  0  0  0  0
    9.5436   -4.5614   23.7799 H   0  0  0  0  0  0  0  0  0  0  0  0
    7.1918   -1.8823   26.1906 H   0  0  0  0  0  0  0  0  0  0  0  0
   10.2676   -2.6754   22.3861 H   0  0  0  0  0  0  0  0  0  0  0  0
    7.8686   -0.0026   24.7598 H   0  0  0  0  0  0  0  0  0  0  0  0
    4.3710    2.0145   17.4451 H   0  0  0  0  0  0  0  0  0  0  0  0
    2.9929    2.6891   19.3400 H   0  0  0  0  0  0  0  0  0  0  0  0
    3.6320    2.0596   21.6814 H   0  0  0  0  0  0  0  0  0  0  0  0
    5.6863    0.7288   22.0575 H   0  0  0  0  0  0  0  0  0  0  0  0
    8.6973   -6.8585   26.5430 H   0  0  0  0  0  0  0  0  0  0  0  0
    8.1398   -7.7515   27.9703 H   0  0  0  0  0  0  0  0  0  0  0  0
    9.3368   -6.4544   28.1433 H   0  0  0  0  0  0  0  0  0  0  0  0
   10.2623    1.1418   24.2555 H   0  0  0  0  0  0  0  0  0  0  0  0
   10.8514    1.5808   22.6517 H   0  0  0  0  0  0  0  0  0  0  0  0
    7.0709   -5.6921   28.8674 H   0  0  0  0  0  0  0  0  0  0  0  0
    6.4147   -6.1158   27.2745 H   0  0  0  0  0  0  0  0  0  0  0  0
    7.9296   -5.3298   25.4747 H   0  0  0  0  0  0  0  0  0  0  0  0
    8.0681   -1.6191   21.0706 H   0  0  0  0  0  0  0  0  0  0  0  0
  1  2  1  0  0  0  0
  1  3  2  0  0  0  0
  2  4  2  0  0  0  0
  3  5  1  0  0  0  0
  4 10  1  0  0  0  0
  5 10  2  0  0  0  0
  6  8  2  0  0  0  0
  6 11  1  0  0  0  0
  7  9  1  0  0  0  0
  7 11  2  0  0  0  0
  8 12  1  0  0  0  0
  9 12  2  0  0  0  0
 10 22  1  0  0  0  0
 11 27  1  0  0  0  0
 12 29  1  0  0  0  0
 13 15  1  0  0  0  0
 13 24  2  0  0  0  0
 13 26  1  0  0  0  0
 14 25  2  0  0  0  0
 14 26  1  0  0  0  0
 14 28  1  0  0  0  0
 15 16  2  0  0  0  0
 16 17  1  0  0  0  0
 17 18  2  0  0  0  0
 18 26  1  0  0  0  0
 19 23  1  0  0  0  0
 19 27  1  0  0  0  0
 19 30  2  0  0  0  0
 20 28  1  0  0  0  0
 20 29  1  0  0  0  0
 20 31  2  0  0  0  0
 21 23  1  0  0  0  0
 22 29  1  0  0  0  0
 24 25  1  0  0  0  0
  1 32  1  0  0  0  0
  2 33  1  0  0  0  0
  3 34  1  0  0  0  0
  4 35  1  0  0  0  0
  5 36  1  0  0  0  0
  6 37  1  0  0  0  0
  7 38  1  0  0  0  0
  8 39  1  0  0  0  0
  9 40  1  0  0  0  0
 15 41  1  0  0  0  0
 16 42  1  0  0  0  0
 17 43  1  0  0  0  0
 18 44  1  0  0  0  0
 21 45  1  0  0  0  0
 21 46  1  0  0  0  0
 21 47  1  0  0  0  0
 22 48  1  0  0  0  0
 22 49  1  0  0  0  0
 23 50  1  0  0  0  0
 23 51  1  0  0  0  0
 27 52  1  0  0  0  0
 28 53  1  0  0  0  0
M  END
> <clash_score>
0

> <docking_score>
-8.344695091247559

> <overlap_score>
0.976388156414032

$$$$
BENZO_142_1
  -OEChem-08232013523D

 51 54  0     0  0  0  0  0  0999 V2000
   13.5804   -0.8896   25.1103 C   0  0  0  0  0  0  0  0  0  0  0  0
   12.4131   -0.1640   24.8728 C   0  0  0  0  0  0  0  0  0  0  0  0
    9.5890   -2.4950   23.2210 C   0  0  0  0  0  0  0  0  0  0  0  0
    8.2550   -1.0010   24.5520 C   0  0  0  0  0  0  0  0  0  0  0  0
    9.1890   -3.5540   24.0140 C   0  0  0  0  0  0  0  0  0  0  0  0
    7.8700   -2.0610   25.3550 C   0  0  0  0  0  0  0  0  0  0  0  0
   14.2523   -1.4968   24.0493 C   0  0  0  0  0  0  0  0  0  0  0  0
   12.5892   -0.6529   22.5134 C   0  0  0  0  0  0  0  0  0  0  0  0
   11.9174   -0.0457   23.5744 C   0  0  0  0  0  0  0  0  0  0  0  0
    9.1280   -1.2090   23.4870 C   0  0  0  0  0  0  0  0  0  0  0  0
    8.3450   -3.3440   25.0980 C   0  0  0  0  0  0  0  0  0  0  0  0
   13.7567   -1.3785   22.7509 C   0  0  0  0  0  0  0  0  0  0  0  0
    5.7970    0.9500   18.6730 C   0  0  0  0  0  0  0  0  0  0  0  0
    7.2710   -0.1460   19.8310 C   0  0  0  0  0  0  0  0  0  0  0  0
    4.6610    1.7170   18.4380 C   0  0  0  0  0  0  0  0  0  0  0  0
    3.8860    2.1050   19.5250 C   0  0  0  0  0  0  0  0  0  0  0  0
    4.2460    1.7520   20.8250 C   0  0  0  0  0  0  0  0  0  0  0  0
    5.3890    1.0010   21.0690 C   0  0  0  0  0  0  0  0  0  0  0  0
    9.0430    0.2380   21.4940 C   0  0  0  0  0  0  0  0  0  0  0  0
    7.2639   -5.5573   25.3803 C   0  0  0  0  0  0  0  0  0  0  0  0
    8.3073   -4.4056   27.3382 C   0  0  0  0  0  0  0  0  0  0  0  0
   10.6602    0.7344   23.3196 C   0  0  0  0  0  0  0  0  0  0  0  0
    6.7100    0.3850   17.8100 N   0  0  0  0  0  0  0  0  0  0  0  0
    7.5840   -0.2700   18.5160 N   0  0  0  0  0  0  0  0  0  0  0  0
    6.1460    0.6070   19.9750 N   0  0  0  0  0  0  0  0  0  0  0  0
    8.0950   -0.7700   20.8440 N   0  0  0  0  0  0  0  0  0  0  0  0
    9.5820   -0.1080   22.7000 N   0  0  0  0  0  0  0  0  0  0  0  0
    7.9731   -4.4180   25.9279 N   0  0  0  0  0  0  0  0  0  0  0  0
    9.2950    1.3000   20.9480 O   0  0  0  0  0  0  0  0  0  0  0  0
   14.5853   -2.1288   21.4424 Cl  0  0  0  0  0  0  0  0  0  0  0  0
   13.9660   -0.9816   26.1216 H   0  0  0  0  0  0  0  0  0  0  0  0
   11.8961    0.3057   25.7056 H   0  0  0  0  0  0  0  0  0  0  0  0
   10.2682   -2.6746   22.3864 H   0  0  0  0  0  0  0  0  0  0  0  0
    7.8692   -0.0022   24.7600 H   0  0  0  0  0  0  0  0  0  0  0  0
    9.5433   -4.5619   23.7809 H   0  0  0  0  0  0  0  0  0  0  0  0
    7.1923   -1.8829   26.1908 H   0  0  0  0  0  0  0  0  0  0  0  0
   15.1608   -2.0594   24.2493 H   0  0  0  0  0  0  0  0  0  0  0  0
   12.1990   -0.5573   21.5027 H   0  0  0  0  0  0  0  0  0  0  0  0
    4.3710    2.0145   17.4451 H   0  0  0  0  0  0  0  0  0  0  0  0
    2.9929    2.6891   19.3400 H   0  0  0  0  0  0  0  0  0  0  0  0
    3.6320    2.0596   21.6814 H   0  0  0  0  0  0  0  0  0  0  0  0
    5.6863    0.7288   22.0575 H   0  0  0  0  0  0  0  0  0  0  0  0
    7.0649   -6.2852   26.1806 H   0  0  0  0  0  0  0  0  0  0  0  0
    6.3111   -5.2213   24.9452 H   0  0  0  0  0  0  0  0  0  0  0  0
    7.8773   -6.0299   24.5991 H   0  0  0  0  0  0  0  0  0  0  0  0
    7.9344   -5.3256   27.8121 H   0  0  0  0  0  0  0  0  0  0  0  0
    9.3996   -4.3497   27.4555 H   0  0  0  0  0  0  0  0  0  0  0  0
    7.8418   -3.5318   27.8176 H   0  0  0  0  0  0  0  0  0  0  0  0
   10.2623    1.1418   24.2555 H   0  0  0  0  0  0  0  0  0  0  0  0
   10.8514    1.5808   22.6517 H   0  0  0  0  0  0  0  0  0  0  0  0
    8.0681   -1.6191   21.0706 H   0  0  0  0  0  0  0  0  0  0  0  0
  1  2  2  0  0  0  0
  1  7  1  0  0  0  0
  2  9  1  0  0  0  0
  3  5  2  0  0  0  0
  3 10  1  0  0  0  0
  4  6  1  0  0  0  0
  4 10  2  0  0  0  0
  5 11  1  0  0  0  0
  6 11  2  0  0  0  0
  7 12  2  0  0  0  0
  8  9  2  0  0  0  0
  8 12  1  0  0  0  0
  9 22  1  0  0  0  0
 10 27  1  0  0  0  0
 11 28  1  0  0  0  0
 12 30  1  0  0  0  0
 13 15  1  0  0  0  0
 13 23  2  0  0  0  0
 13 25  1  0  0  0  0
 14 24  2  0  0  0  0
 14 25  1  0  0  0  0
 14 26  1  0  0  0  0
 15 16  2  0  0  0  0
 16 17  1  0  0  0  0
 17 18  2  0  0  0  0
 18 25  1  0  0  0  0
 19 26  1  0  0  0  0
 19 27  1  0  0  0  0
 19 29  2  0  0  0  0
 20 28  1  0  0  0  0
 21 28  1  0  0  0  0
 22 27  1  0  0  0  0
 23 24  1  0  0  0  0
  1 31  1  0  0  0  0
  2 32  1  0  0  0  0
  3 33  1  0  0  0  0
  4 34  1  0  0  0  0
  5 35  1  0  0  0  0
  6 36  1  0  0  0  0
  7 37  1  0  0  0  0
  8 38  1  0  0  0  0
 15 39  1  0  0  0  0
 16 40  1  0  0  0  0
 17 41  1  0  0  0  0
 18 42  1  0  0  0  0
 20 43  1  0  0  0  0
 20 44  1  0  0  0  0
 20 45  1  0  0  0  0
 21 46  1  0  0  0  0
 21 47  1  0  0  0  0
 21 48  1  0  0  0  0
 22 49  1  0  0  0  0
 22 50  1  0  0  0  0
 26 51  1  0  0  0  0
M  END
> <clash_score>
0

> <docking_score>
-7.820415496826172

> <overlap_score>
0.947207510471344

$$$$
BENZO_144_1
  -OEChem-08232013523D

 50 53  0     0  0  0  0  0  0999 V2000
    9.1890   -3.5540   24.0140 C   0  0  0  0  0  0  0  0  0  0  0  0
    7.8700   -2.0610   25.3550 C   0  0  0  0  0  0  0  0  0  0  0  0
    9.5890   -2.4950   23.2210 C   0  0  0  0  0  0  0  0  0  0  0  0
    8.2550   -1.0010   24.5520 C   0  0  0  0  0  0  0  0  0  0  0  0
   12.4968   -0.2200   24.8644 C   0  0  0  0  0  0  0  0  0  0  0  0
   13.6467   -0.9769   24.8172 C   0  0  0  0  0  0  0  0  0  0  0  0
   12.6469   -0.6760   22.5902 C   0  0  0  0  0  0  0  0  0  0  0  0
   11.9174   -0.0457   23.5744 C   0  0  0  0  0  0  0  0  0  0  0  0
    8.3450   -3.3440   25.0980 C   0  0  0  0  0  0  0  0  0  0  0  0
    9.1280   -1.2090   23.4870 C   0  0  0  0  0  0  0  0  0  0  0  0
    5.7970    0.9500   18.6730 C   0  0  0  0  0  0  0  0  0  0  0  0
    7.2710   -0.1460   19.8310 C   0  0  0  0  0  0  0  0  0  0  0  0
    4.6610    1.7170   18.4380 C   0  0  0  0  0  0  0  0  0  0  0  0
    3.8860    2.1050   19.5250 C   0  0  0  0  0  0  0  0  0  0  0  0
    4.2460    1.7520   20.8250 C   0  0  0  0  0  0  0  0  0  0  0  0
    5.3890    1.0010   21.0690 C   0  0  0  0  0  0  0  0  0  0  0  0
    8.2013   -4.5562   27.2977 C   0  0  0  0  0  0  0  0  0  0  0  0
    9.0430    0.2380   21.4940 C   0  0  0  0  0  0  0  0  0  0  0  0
    7.8866   -6.0877   29.2880 C   0  0  0  0  0  0  0  0  0  0  0  0
   10.6602    0.7344   23.3196 C   0  0  0  0  0  0  0  0  0  0  0  0
    7.6334   -5.8728   27.8066 C   0  0  0  0  0  0  0  0  0  0  0  0
    6.7100    0.3850   17.8100 N   0  0  0  0  0  0  0  0  0  0  0  0
    7.5840   -0.2700   18.5160 N   0  0  0  0  0  0  0  0  0  0  0  0
    6.1460    0.6070   19.9750 N   0  0  0  0  0  0  0  0  0  0  0  0
    7.9771   -4.4058   25.9196 N   0  0  0  0  0  0  0  0  0  0  0  0
    8.0950   -0.7700   20.8440 N   0  0  0  0  0  0  0  0  0  0  0  0
    9.5820   -0.1080   22.7000 N   0  0  0  0  0  0  0  0  0  0  0  0
    8.7722   -3.7639   28.0399 O   0  0  0  0  0  0  0  0  0  0  0  0
    9.2950    1.3000   20.9480 O   0  0  0  0  0  0  0  0  0  0  0  0
   14.0239   -1.4739   23.2225 S   0  0  0  0  0  0  0  0  0  0  0  0
    9.5436   -4.5614   23.7799 H   0  0  0  0  0  0  0  0  0  0  0  0
    7.1918   -1.8823   26.1906 H   0  0  0  0  0  0  0  0  0  0  0  0
   10.2676   -2.6754   22.3861 H   0  0  0  0  0  0  0  0  0  0  0  0
    7.8686   -0.0026   24.7598 H   0  0  0  0  0  0  0  0  0  0  0  0
   12.0940    0.1878   25.7829 H   0  0  0  0  0  0  0  0  0  0  0  0
   14.2839   -1.2612   25.6427 H   0  0  0  0  0  0  0  0  0  0  0  0
   12.4414   -0.7076   21.5292 H   0  0  0  0  0  0  0  0  0  0  0  0
    4.3710    2.0145   17.4451 H   0  0  0  0  0  0  0  0  0  0  0  0
    2.9929    2.6891   19.3400 H   0  0  0  0  0  0  0  0  0  0  0  0
    3.6320    2.0596   21.6814 H   0  0  0  0  0  0  0  0  0  0  0  0
    5.6863    0.7288   22.0575 H   0  0  0  0  0  0  0  0  0  0  0  0
    8.9592   -6.0823   29.5085 H   0  0  0  0  0  0  0  0  0  0  0  0
    7.4764   -7.0502   29.6091 H   0  0  0  0  0  0  0  0  0  0  0  0
    7.4171   -5.2994   29.8855 H   0  0  0  0  0  0  0  0  0  0  0  0
   10.2623    1.1418   24.2555 H   0  0  0  0  0  0  0  0  0  0  0  0
   10.8514    1.5808   22.6517 H   0  0  0  0  0  0  0  0  0  0  0  0
    6.5542   -5.8829   27.6152 H   0  0  0  0  0  0  0  0  0  0  0  0
    8.0873   -6.6910   27.2357 H   0  0  0  0  0  0  0  0  0  0  0  0
    7.4775   -5.1797   25.4662 H   0  0  0  0  0  0  0  0  0  0  0  0
    8.0681   -1.6191   21.0706 H   0  0  0  0  0  0  0  0  0  0  0  0
  1  3  2  0  0  0  0
  1  9  1  0  0  0  0
  2  4  1  0  0  0  0
  2  9  2  0  0  0  0
  3 10  1  0  0  0  0
  4 10  2  0  0  0  0
  5  6  2  0  0  0  0
  5  8  1  0  0  0  0
  6 30  1  0  0  0  0
  7  8  2  0  0  0  0
  7 30  1  0  0  0  0
  8 20  1  0  0  0  0
  9 25  1  0  0  0  0
 10 27  1  0  0  0  0
 11 13  1  0  0  0  0
 11 22  2  0  0  0  0
 11 24  1  0  0  0  0
 12 23  2  0  0  0  0
 12 24  1  0  0  0  0
 12 26  1  0  0  0  0
 13 14  2  0  0  0  0
 14 15  1  0  0  0  0
 15 16  2  0  0  0  0
 16 24  1  0  0  0  0
 17 21  1  0  0  0  0
 17 25  1  0  0  0  0
 17 28  2  0  0  0  0
 18 26  1  0  0  0  0
 18 27  1  0  0  0  0
 18 29  2  0  0  0  0
 19 21  1  0  0  0  0
 20 27  1  0  0  0  0
 22 23  1  0  0  0  0
  1 31  1  0  0  0  0
  2 32  1  0  0  0  0
  3 33  1  0  0  0  0
  4 34  1  0  0  0  0
  5 35  1  0  0  0  0
  6 36  1  0  0  0  0
  7 37  1  0  0  0  0
 13 38  1  0  0  0  0
 14 39  1  0  0  0  0
 15 40  1  0  0  0  0
 16 41  1  0  0  0  0
 19 42  1  0  0  0  0
 19 43  1  0  0  0  0
 19 44  1  0  0  0  0
 20 45  1  0  0  0  0
 20 46  1  0  0  0  0
 21 47  1  0  0  0  0
 21 48  1  0  0  0  0
 25 49  1  0  0  0  0
 26 50  1  0  0  0  0
M  END
> <clash_score>
0

> <docking_score>
-8.688404083251953

> <overlap_score>
0.978668212890625

$$$$
BENZO_147_1
  -OEChem-08232013523D

 53 56  0     0  0  0  0  0  0999 V2000
    9.1890   -3.5540   24.0140 C   0  0  0  0  0  0  0  0  0  0  0  0
    7.8700   -2.0610   25.3550 C   0  0  0  0  0  0  0  0  0  0  0  0
    9.5890   -2.4950   23.2210 C   0  0  0  0  0  0  0  0  0  0  0  0
    8.2550   -1.0010   24.5520 C   0  0  0  0  0  0  0  0  0  0  0  0
   13.2131    0.4756   23.8152 C   0  0  0  0  0  0  0  0  0  0  0  0
   12.3942   -0.8708   22.2816 C   0  0  0  0  0  0  0  0  0  0  0  0
   12.0252    0.1355   23.1405 C   0  0  0  0  0  0  0  0  0  0  0  0
    8.3450   -3.3440   25.0980 C   0  0  0  0  0  0  0  0  0  0  0  0
    9.1280   -1.2090   23.4870 C   0  0  0  0  0  0  0  0  0  0  0  0
    5.7970    0.9500   18.6730 C   0  0  0  0  0  0  0  0  0  0  0  0
    7.2710   -0.1460   19.8310 C   0  0  0  0  0  0  0  0  0  0  0  0
    4.6610    1.7170   18.4380 C   0  0  0  0  0  0  0  0  0  0  0  0
    3.8860    2.1050   19.5250 C   0  0  0  0  0  0  0  0  0  0  0  0
    4.2460    1.7520   20.8250 C   0  0  0  0  0  0  0  0  0  0  0  0
    5.3890    1.0010   21.0690 C   0  0  0  0  0  0  0  0  0  0  0  0
    7.6593   -4.3766   27.2872 C   0  0  0  0  0  0  0  0  0  0  0  0
    9.0430    0.2380   21.4940 C   0  0  0  0  0  0  0  0  0  0  0  0
    8.4366   -6.7645   27.6024 C   0  0  0  0  0  0  0  0  0  0  0  0
   14.5678   -2.0249   21.8101 C   0  0  0  0  0  0  0  0  0  0  0  0
   10.6602    0.7344   23.3196 C   0  0  0  0  0  0  0  0  0  0  0  0
    7.3105   -5.7658   27.8003 C   0  0  0  0  0  0  0  0  0  0  0  0
   14.2584   -0.2555   23.4191 N   0  0  0  0  0  0  0  0  0  0  0  0
    6.7100    0.3850   17.8100 N   0  0  0  0  0  0  0  0  0  0  0  0
    7.5840   -0.2700   18.5160 N   0  0  0  0  0  0  0  0  0  0  0  0
   13.7286   -1.0650   22.4863 N   0  0  0  0  0  0  0  0  0  0  0  0
    6.1460    0.6070   19.9750 N   0  0  0  0  0  0  0  0  0  0  0  0
    7.9771   -4.4058   25.9196 N   0  0  0  0  0  0  0  0  0  0  0  0
    8.0950   -0.7700   20.8440 N   0  0  0  0  0  0  0  0  0  0  0  0
    9.5820   -0.1080   22.7000 N   0  0  0  0  0  0  0  0  0  0  0  0
    7.6481   -3.3915   28.0178 O   0  0  0  0  0  0  0  0  0  0  0  0
    9.2950    1.3000   20.9480 O   0  0  0  0  0  0  0  0  0  0  0  0
    9.5436   -4.5614   23.7799 H   0  0  0  0  0  0  0  0  0  0  0  0
    7.1918   -1.8823   26.1906 H   0  0  0  0  0  0  0  0  0  0  0  0
   10.2676   -2.6754   22.3861 H   0  0  0  0  0  0  0  0  0  0  0  0
    7.8686   -0.0026   24.7598 H   0  0  0  0  0  0  0  0  0  0  0  0
   13.3628    1.2246   24.5799 H   0  0  0  0  0  0  0  0  0  0  0  0
   11.8346   -1.4518   21.5611 H   0  0  0  0  0  0  0  0  0  0  0  0
    4.3710    2.0145   17.4451 H   0  0  0  0  0  0  0  0  0  0  0  0
    2.9929    2.6891   19.3400 H   0  0  0  0  0  0  0  0  0  0  0  0
    3.6320    2.0596   21.6814 H   0  0  0  0  0  0  0  0  0  0  0  0
    5.6863    0.7288   22.0575 H   0  0  0  0  0  0  0  0  0  0  0  0
    8.6973   -6.8585   26.5430 H   0  0  0  0  0  0  0  0  0  0  0  0
    8.1398   -7.7515   27.9703 H   0  0  0  0  0  0  0  0  0  0  0  0
    9.3368   -6.4544   28.1433 H   0  0  0  0  0  0  0  0  0  0  0  0
   14.9791   -1.5443   20.9184 H   0  0  0  0  0  0  0  0  0  0  0  0
   15.3726   -2.3406   22.4798 H   0  0  0  0  0  0  0  0  0  0  0  0
   13.9690   -2.8972   21.5338 H   0  0  0  0  0  0  0  0  0  0  0  0
   10.4226    0.8424   24.3836 H   0  0  0  0  0  0  0  0  0  0  0  0
   10.6069    1.7321   22.8715 H   0  0  0  0  0  0  0  0  0  0  0  0
    7.0709   -5.6921   28.8674 H   0  0  0  0  0  0  0  0  0  0  0  0
    6.4147   -6.1158   27.2745 H   0  0  0  0  0  0  0  0  0  0  0  0
    7.9296   -5.3298   25.4747 H   0  0  0  0  0  0  0  0  0  0  0  0
    8.0681   -1.6191   21.0706 H   0  0  0  0  0  0  0  0  0  0  0  0
  1  3  2  0  0  0  0
  1  8  1  0  0  0  0
  2  4  1  0  0  0  0
  2  8  2  0  0  0  0
  3  9  1  0  0  0  0
  4  9  2  0  0  0  0
  5  7  1  0  0  0  0
  5 22  2  0  0  0  0
  6  7  2  0  0  0  0
  6 25  1  0  0  0  0
  7 20  1  0  0  0  0
  8 27  1  0  0  0  0
  9 29  1  0  0  0  0
 10 12  1  0  0  0  0
 10 23  2  0  0  0  0
 10 26  1  0  0  0  0
 11 24  2  0  0  0  0
 11 26  1  0  0  0  0
 11 28  1  0  0  0  0
 12 13  2  0  0  0  0
 13 14  1  0  0  0  0
 14 15  2  0  0  0  0
 15 26  1  0  0  0  0
 16 21  1  0  0  0  0
 16 27  1  0  0  0  0
 16 30  2  0  0  0  0
 17 28  1  0  0  0  0
 17 29  1  0  0  0  0
 17 31  2  0  0  0  0
 18 21  1  0  0  0  0
 19 25  1  0  0  0  0
 20 29  1  0  0  0  0
 22 25  1  0  0  0  0
 23 24  1  0  0  0  0
  1 32  1  0  0  0  0
  2 33  1  0  0  0  0
  3 34  1  0  0  0  0
  4 35  1  0  0  0  0
  5 36  1  0  0  0  0
  6 37  1  0  0  0  0
 12 38  1  0  0  0  0
 13 39  1  0  0  0  0
 14 40  1  0  0  0  0
 15 41  1  0  0  0  0
 18 42  1  0  0  0  0
 18 43  1  0  0  0  0
 18 44  1  0  0  0  0
 19 45  1  0  0  0  0
 19 46  1  0  0  0  0
 19 47  1  0  0  0  0
 20 48  1  0  0  0  0
 20 49  1  0  0  0  0
 21 50  1  0  0  0  0
 21 51  1  0  0  0  0
 27 52  1  0  0  0  0
 28 53  1  0  0  0  0
M  END
> <clash_score>
0

> <docking_score>
-8.588916778564453

> <overlap_score>
0.9710483551025391

$$$$
BENZO_146_1
  -OEChem-08232013523D

 53 56  0     0  0  0  0  0  0999 V2000
   13.5804   -0.8896   25.1103 C   0  0  0  0  0  0  0  0  0  0  0  0
   12.4131   -0.1640   24.8728 C   0  0  0  0  0  0  0  0  0  0  0  0
    9.1890   -3.5540   24.0140 C   0  0  0  0  0  0  0  0  0  0  0  0
    7.8700   -2.0610   25.3550 C   0  0  0  0  0  0  0  0  0  0  0  0
    9.5890   -2.4950   23.2210 C   0  0  0  0  0  0  0  0  0  0  0  0
    8.2550   -1.0010   24.5520 C   0  0  0  0  0  0  0  0  0  0  0  0
   14.2523   -1.4968   24.0493 C   0  0  0  0  0  0  0  0  0  0  0  0
   12.5892   -0.6529   22.5134 C   0  0  0  0  0  0  0  0  0  0  0  0
   11.9174   -0.0457   23.5744 C   0  0  0  0  0  0  0  0  0  0  0  0
    8.3450   -3.3440   25.0980 C   0  0  0  0  0  0  0  0  0  0  0  0
    9.1280   -1.2090   23.4870 C   0  0  0  0  0  0  0  0  0  0  0  0
   13.7567   -1.3785   22.7509 C   0  0  0  0  0  0  0  0  0  0  0  0
    5.7970    0.9500   18.6730 C   0  0  0  0  0  0  0  0  0  0  0  0
    7.2710   -0.1460   19.8310 C   0  0  0  0  0  0  0  0  0  0  0  0
    4.6610    1.7170   18.4380 C   0  0  0  0  0  0  0  0  0  0  0  0
    3.8860    2.1050   19.5250 C   0  0  0  0  0  0  0  0  0  0  0  0
    4.2460    1.7520   20.8250 C   0  0  0  0  0  0  0  0  0  0  0  0
    5.3890    1.0010   21.0690 C   0  0  0  0  0  0  0  0  0  0  0  0
    8.2013   -4.5562   27.2977 C   0  0  0  0  0  0  0  0  0  0  0  0
    9.0430    0.2380   21.4940 C   0  0  0  0  0  0  0  0  0  0  0  0
    7.8866   -6.0877   29.2880 C   0  0  0  0  0  0  0  0  0  0  0  0
   10.6602    0.7344   23.3196 C   0  0  0  0  0  0  0  0  0  0  0  0
    7.6334   -5.8728   27.8066 C   0  0  0  0  0  0  0  0  0  0  0  0
    6.7100    0.3850   17.8100 N   0  0  0  0  0  0  0  0  0  0  0  0
    7.5840   -0.2700   18.5160 N   0  0  0  0  0  0  0  0  0  0  0  0
    6.1460    0.6070   19.9750 N   0  0  0  0  0  0  0  0  0  0  0  0
    7.9771   -4.4058   25.9196 N   0  0  0  0  0  0  0  0  0  0  0  0
    8.0950   -0.7700   20.8440 N   0  0  0  0  0  0  0  0  0  0  0  0
    9.5820   -0.1080   22.7000 N   0  0  0  0  0  0  0  0  0  0  0  0
    8.7722   -3.7639   28.0399 O   0  0  0  0  0  0  0  0  0  0  0  0
    9.2950    1.3000   20.9480 O   0  0  0  0  0  0  0  0  0  0  0  0
   14.5853   -2.1288   21.4424 Cl  0  0  0  0  0  0  0  0  0  0  0  0
   13.9660   -0.9816   26.1216 H   0  0  0  0  0  0  0  0  0  0  0  0
   11.8961    0.3057   25.7056 H   0  0  0  0  0  0  0  0  0  0  0  0
    9.5436   -4.5614   23.7799 H   0  0  0  0  0  0  0  0  0  0  0  0
    7.1918   -1.8823   26.1906 H   0  0  0  0  0  0  0  0  0  0  0  0
   10.2676   -2.6754   22.3861 H   0  0  0  0  0  0  0  0  0  0  0  0
    7.8686   -0.0026   24.7598 H   0  0  0  0  0  0  0  0  0  0  0  0
   15.1608   -2.0594   24.2493 H   0  0  0  0  0  0  0  0  0  0  0  0
   12.1990   -0.5573   21.5027 H   0  0  0  0  0  0  0  0  0  0  0  0
    4.3710    2.0145   17.4451 H   0  0  0  0  0  0  0  0  0  0  0  0
    2.9929    2.6891   19.3400 H   0  0  0  0  0  0  0  0  0  0  0  0
    3.6320    2.0596   21.6814 H   0  0  0  0  0  0  0  0  0  0  0  0
    5.6863    0.7288   22.0575 H   0  0  0  0  0  0  0  0  0  0  0  0
    8.9592   -6.0823   29.5085 H   0  0  0  0  0  0  0  0  0  0  0  0
    7.4764   -7.0502   29.6091 H   0  0  0  0  0  0  0  0  0  0  0  0
    7.4171   -5.2994   29.8855 H   0  0  0  0  0  0  0  0  0  0  0  0
   10.2623    1.1418   24.2555 H   0  0  0  0  0  0  0  0  0  0  0  0
   10.8514    1.5808   22.6517 H   0  0  0  0  0  0  0  0  0  0  0  0
    6.5542   -5.8829   27.6152 H   0  0  0  0  0  0  0  0  0  0  0  0
    8.0873   -6.6910   27.2357 H   0  0  0  0  0  0  0  0  0  0  0  0
    7.4775   -5.1797   25.4662 H   0  0  0  0  0  0  0  0  0  0  0  0
    8.0681   -1.6191   21.0706 H   0  0  0  0  0  0  0  0  0  0  0  0
  1  2  2  0  0  0  0
  1  7  1  0  0  0  0
  2  9  1  0  0  0  0
  3  5  2  0  0  0  0
  3 10  1  0  0  0  0
  4  6  1  0  0  0  0
  4 10  2  0  0  0  0
  5 11  1  0  0  0  0
  6 11  2  0  0  0  0
  7 12  2  0  0  0  0
  8  9  2  0  0  0  0
  8 12  1  0  0  0  0
  9 22  1  0  0  0  0
 10 27  1  0  0  0  0
 11 29  1  0  0  0  0
 12 32  1  0  0  0  0
 13 15  1  0  0  0  0
 13 24  2  0  0  0  0
 13 26  1  0  0  0  0
 14 25  2  0  0  0  0
 14 26  1  0  0  0  0
 14 28  1  0  0  0  0
 15 16  2  0  0  0  0
 16 17  1  0  0  0  0
 17 18  2  0  0  0  0
 18 26  1  0  0  0  0
 19 23  1  0  0  0  0
 19 27  1  0  0  0  0
 19 30  2  0  0  0  0
 20 28  1  0  0  0  0
 20 29  1  0  0  0  0
 20 31  2  0  0  0  0
 21 23  1  0  0  0  0
 22 29  1  0  0  0  0
 24 25  1  0  0  0  0
  1 33  1  0  0  0  0
  2 34  1  0  0  0  0
  3 35  1  0  0  0  0
  4 36  1  0  0  0  0
  5 37  1  0  0  0  0
  6 38  1  0  0  0  0
  7 39  1  0  0  0  0
  8 40  1  0  0  0  0
 15 41  1  0  0  0  0
 16 42  1  0  0  0  0
 17 43  1  0  0  0  0
 18 44  1  0  0  0  0
 21 45  1  0  0  0  0
 21 46  1  0  0  0  0
 21 47  1  0  0  0  0
 22 48  1  0  0  0  0
 22 49  1  0  0  0  0
 23 50  1  0  0  0  0
 23 51  1  0  0  0  0
 27 52  1  0  0  0  0
 28 53  1  0  0  0  0
M  END
> <clash_score>
0

> <docking_score>
-8.099838256835938

> <overlap_score>
1.0033595561981201

$$$$
BENZO_149_1
  -OEChem-08232013523D

 58 62  0     0  0  0  0  0  0999 V2000
   14.3362   -1.3623   23.9763 C   0  0  0  0  0  0  0  0  0  0  0  0
   13.9850   -0.2947   24.8024 C   0  0  0  0  0  0  0  0  0  0  0  0
   13.4946   -1.7412   22.9304 C   0  0  0  0  0  0  0  0  0  0  0  0
   12.7920    0.3940   24.5828 C   0  0  0  0  0  0  0  0  0  0  0  0
   12.3016   -1.0525   22.7108 C   0  0  0  0  0  0  0  0  0  0  0  0
    9.1890   -3.5540   24.0140 C   0  0  0  0  0  0  0  0  0  0  0  0
    7.8700   -2.0610   25.3550 C   0  0  0  0  0  0  0  0  0  0  0  0
    9.5890   -2.4950   23.2210 C   0  0  0  0  0  0  0  0  0  0  0  0
    8.2550   -1.0010   24.5520 C   0  0  0  0  0  0  0  0  0  0  0  0
   11.9503    0.0151   23.5370 C   0  0  0  0  0  0  0  0  0  0  0  0
    8.3450   -3.3440   25.0980 C   0  0  0  0  0  0  0  0  0  0  0  0
    9.1280   -1.2090   23.4870 C   0  0  0  0  0  0  0  0  0  0  0  0
    5.7970    0.9500   18.6730 C   0  0  0  0  0  0  0  0  0  0  0  0
    7.2710   -0.1460   19.8310 C   0  0  0  0  0  0  0  0  0  0  0  0
    4.6610    1.7170   18.4380 C   0  0  0  0  0  0  0  0  0  0  0  0
    3.8860    2.1050   19.5250 C   0  0  0  0  0  0  0  0  0  0  0  0
    4.2460    1.7520   20.8250 C   0  0  0  0  0  0  0  0  0  0  0  0
    5.3890    1.0010   21.0690 C   0  0  0  0  0  0  0  0  0  0  0  0
    9.0430    0.2380   21.4940 C   0  0  0  0  0  0  0  0  0  0  0  0
    7.5748   -4.8280   28.7278 C   0  0  0  0  0  0  0  0  0  0  0  0
    8.9776   -4.7555   28.1204 C   0  0  0  0  0  0  0  0  0  0  0  0
    6.5554   -4.0713   27.8732 C   0  0  0  0  0  0  0  0  0  0  0  0
    8.9620   -5.1961   26.6568 C   0  0  0  0  0  0  0  0  0  0  0  0
    6.6009   -4.5253   26.4110 C   0  0  0  0  0  0  0  0  0  0  0  0
   10.6659    0.7557   23.3001 C   0  0  0  0  0  0  0  0  0  0  0  0
    6.7100    0.3850   17.8100 N   0  0  0  0  0  0  0  0  0  0  0  0
    7.5840   -0.2700   18.5160 N   0  0  0  0  0  0  0  0  0  0  0  0
    6.1460    0.6070   19.9750 N   0  0  0  0  0  0  0  0  0  0  0  0
    7.9770   -4.4029   25.9162 N   0  0  0  0  0  0  0  0  0  0  0  0
    8.0950   -0.7700   20.8440 N   0  0  0  0  0  0  0  0  0  0  0  0
    9.5820   -0.1080   22.7000 N   0  0  0  0  0  0  0  0  0  0  0  0
    9.2950    1.3000   20.9480 O   0  0  0  0  0  0  0  0  0  0  0  0
   15.2658   -1.8975   24.1466 H   0  0  0  0  0  0  0  0  0  0  0  0
   14.6407    0.0012   25.6161 H   0  0  0  0  0  0  0  0  0  0  0  0
   13.7683   -2.5716   22.2864 H   0  0  0  0  0  0  0  0  0  0  0  0
   12.5263    1.2244   25.2316 H   0  0  0  0  0  0  0  0  0  0  0  0
   11.6520   -1.3548   21.8936 H   0  0  0  0  0  0  0  0  0  0  0  0
    9.5426   -4.5618   23.7797 H   0  0  0  0  0  0  0  0  0  0  0  0
    7.1914   -1.8824   26.1903 H   0  0  0  0  0  0  0  0  0  0  0  0
   10.2669   -2.6745   22.3854 H   0  0  0  0  0  0  0  0  0  0  0  0
    7.8690   -0.0020   24.7587 H   0  0  0  0  0  0  0  0  0  0  0  0
    4.3710    2.0145   17.4451 H   0  0  0  0  0  0  0  0  0  0  0  0
    2.9929    2.6891   19.3400 H   0  0  0  0  0  0  0  0  0  0  0  0
    3.6320    2.0596   21.6814 H   0  0  0  0  0  0  0  0  0  0  0  0
    5.6863    0.7288   22.0575 H   0  0  0  0  0  0  0  0  0  0  0  0
    7.2681   -5.8807   28.8239 H   0  0  0  0  0  0  0  0  0  0  0  0
    7.5891   -4.4101   29.7448 H   0  0  0  0  0  0  0  0  0  0  0  0
    9.3554   -3.7320   28.1920 H   0  0  0  0  0  0  0  0  0  0  0  0
    9.6558   -5.3943   28.6900 H   0  0  0  0  0  0  0  0  0  0  0  0
    5.5496   -4.2322   28.2751 H   0  0  0  0  0  0  0  0  0  0  0  0
    6.7545   -2.9948   27.9293 H   0  0  0  0  0  0  0  0  0  0  0  0
    9.9612   -5.0560   26.2363 H   0  0  0  0  0  0  0  0  0  0  0  0
    8.7097   -6.2583   26.5922 H   0  0  0  0  0  0  0  0  0  0  0  0
    6.2649   -5.5600   26.3335 H   0  0  0  0  0  0  0  0  0  0  0  0
    5.9271   -3.8964   25.8283 H   0  0  0  0  0  0  0  0  0  0  0  0
   10.2856    1.1781   24.2366 H   0  0  0  0  0  0  0  0  0  0  0  0
   10.8149    1.5883   22.6046 H   0  0  0  0  0  0  0  0  0  0  0  0
    8.0897   -1.6082   21.0890 H   0  0  0  0  0  0  0  0  0  0  0  0
  1  2  1  0  0  0  0
  1  3  2  0  0  0  0
  2  4  2  0  0  0  0
  3  5  1  0  0  0  0
  4 10  1  0  0  0  0
  5 10  2  0  0  0  0
  6  8  2  0  0  0  0
  6 11  1  0  0  0  0
  7  9  1  0  0  0  0
  7 11  2  0  0  0  0
  8 12  1  0  0  0  0
  9 12  2  0  0  0  0
 10 25  1  0  0  0  0
 11 29  1  0  0  0  0
 12 31  1  0  0  0  0
 13 15  1  0  0  0  0
 13 26  2  0  0  0  0
 13 28  1  0  0  0  0
 14 27  2  0  0  0  0
 14 28  1  0  0  0  0
 14 30  1  0  0  0  0
 15 16  2  0  0  0  0
 16 17  1  0  0  0  0
 17 18  2  0  0  0  0
 18 28  1  0  0  0  0
 19 30  1  0  0  0  0
 19 31  1  0  0  0  0
 19 32  2  0  0  0  0
 20 21  1  0  0  0  0
 20 22  1  0  0  0  0
 21 23  1  0  0  0  0
 22 24  1  0  0  0  0
 23 29  1  0  0  0  0
 24 29  1  0  0  0  0
 25 31  1  0  0  0  0
 26 27  1  0  0  0  0
  1 33  1  0  0  0  0
  2 34  1  0  0  0  0
  3 35  1  0  0  0  0
  4 36  1  0  0  0  0
  5 37  1  0  0  0  0
  6 38  1  0  0  0  0
  7 39  1  0  0  0  0
  8 40  1  0  0  0  0
  9 41  1  0  0  0  0
 15 42  1  0  0  0  0
 16 43  1  0  0  0  0
 17 44  1  0  0  0  0
 18 45  1  0  0  0  0
 20 46  1  0  0  0  0
 20 47  1  0  0  0  0
 21 48  1  0  0  0  0
 21 49  1  0  0  0  0
 22 50  1  0  0  0  0
 22 51  1  0  0  0  0
 23 52  1  0  0  0  0
 23 53  1  0  0  0  0
 24 54  1  0  0  0  0
 24 55  1  0  0  0  0
 25 56  1  0  0  0  0
 25 57  1  0  0  0  0
 30 58  1  0  0  0  0
M  END
> <clash_score>
0

> <docking_score>
-9.186326026916504

> <overlap_score>
0.9820867776870728

$$$$
BENZO_148_1
  -OEChem-08232013523D

 55 59  0     0  0  0  0  0  0999 V2000
    9.1890   -3.5540   24.0140 C   0  0  0  0  0  0  0  0  0  0  0  0
    7.8700   -2.0610   25.3550 C   0  0  0  0  0  0  0  0  0  0  0  0
    9.5890   -2.4950   23.2210 C   0  0  0  0  0  0  0  0  0  0  0  0
    8.2550   -1.0010   24.5520 C   0  0  0  0  0  0  0  0  0  0  0  0
   12.5722   -0.1093   24.8129 C   0  0  0  0  0  0  0  0  0  0  0  0
   13.7397   -0.8377   24.7507 C   0  0  0  0  0  0  0  0  0  0  0  0
   12.6665   -0.6230   22.5480 C   0  0  0  0  0  0  0  0  0  0  0  0
   11.9503    0.0151   23.5370 C   0  0  0  0  0  0  0  0  0  0  0  0
    8.3450   -3.3440   25.0980 C   0  0  0  0  0  0  0  0  0  0  0  0
    9.1280   -1.2090   23.4870 C   0  0  0  0  0  0  0  0  0  0  0  0
    5.7970    0.9500   18.6730 C   0  0  0  0  0  0  0  0  0  0  0  0
    7.2710   -0.1460   19.8310 C   0  0  0  0  0  0  0  0  0  0  0  0
    4.6610    1.7170   18.4380 C   0  0  0  0  0  0  0  0  0  0  0  0
    3.8860    2.1050   19.5250 C   0  0  0  0  0  0  0  0  0  0  0  0
    4.2460    1.7520   20.8250 C   0  0  0  0  0  0  0  0  0  0  0  0
    5.3890    1.0010   21.0690 C   0  0  0  0  0  0  0  0  0  0  0  0
    9.0430    0.2380   21.4940 C   0  0  0  0  0  0  0  0  0  0  0  0
    7.5748   -4.8280   28.7278 C   0  0  0  0  0  0  0  0  0  0  0  0
    8.9776   -4.7555   28.1204 C   0  0  0  0  0  0  0  0  0  0  0  0
    6.5554   -4.0713   27.8732 C   0  0  0  0  0  0  0  0  0  0  0  0
    8.9620   -5.1961   26.6568 C   0  0  0  0  0  0  0  0  0  0  0  0
    6.6009   -4.5253   26.4110 C   0  0  0  0  0  0  0  0  0  0  0  0
   10.6659    0.7557   23.3001 C   0  0  0  0  0  0  0  0  0  0  0  0
    6.7100    0.3850   17.8100 N   0  0  0  0  0  0  0  0  0  0  0  0
    7.5840   -0.2700   18.5160 N   0  0  0  0  0  0  0  0  0  0  0  0
    6.1460    0.6070   19.9750 N   0  0  0  0  0  0  0  0  0  0  0  0
    7.9770   -4.4029   25.9162 N   0  0  0  0  0  0  0  0  0  0  0  0
    8.0950   -0.7700   20.8440 N   0  0  0  0  0  0  0  0  0  0  0  0
    9.5820   -0.1080   22.7000 N   0  0  0  0  0  0  0  0  0  0  0  0
    9.2950    1.3000   20.9480 O   0  0  0  0  0  0  0  0  0  0  0  0
   14.0820   -1.3681   23.1589 S   0  0  0  0  0  0  0  0  0  0  0  0
    9.5426   -4.5618   23.7797 H   0  0  0  0  0  0  0  0  0  0  0  0
    7.1914   -1.8824   26.1903 H   0  0  0  0  0  0  0  0  0  0  0  0
   10.2669   -2.6745   22.3854 H   0  0  0  0  0  0  0  0  0  0  0  0
    7.8690   -0.0020   24.7587 H   0  0  0  0  0  0  0  0  0  0  0  0
   12.1863    0.3129   25.7322 H   0  0  0  0  0  0  0  0  0  0  0  0
   14.4083   -1.0832   25.5636 H   0  0  0  0  0  0  0  0  0  0  0  0
   12.4303   -0.6886   21.4949 H   0  0  0  0  0  0  0  0  0  0  0  0
    4.3710    2.0145   17.4451 H   0  0  0  0  0  0  0  0  0  0  0  0
    2.9929    2.6891   19.3400 H   0  0  0  0  0  0  0  0  0  0  0  0
    3.6320    2.0596   21.6814 H   0  0  0  0  0  0  0  0  0  0  0  0
    5.6863    0.7288   22.0575 H   0  0  0  0  0  0  0  0  0  0  0  0
    7.2681   -5.8807   28.8239 H   0  0  0  0  0  0  0  0  0  0  0  0
    7.5891   -4.4101   29.7448 H   0  0  0  0  0  0  0  0  0  0  0  0
    9.3554   -3.7320   28.1920 H   0  0  0  0  0  0  0  0  0  0  0  0
    9.6558   -5.3943   28.6900 H   0  0  0  0  0  0  0  0  0  0  0  0
    5.5496   -4.2322   28.2751 H   0  0  0  0  0  0  0  0  0  0  0  0
    6.7545   -2.9948   27.9293 H   0  0  0  0  0  0  0  0  0  0  0  0
    9.9612   -5.0560   26.2363 H   0  0  0  0  0  0  0  0  0  0  0  0
    8.7097   -6.2583   26.5922 H   0  0  0  0  0  0  0  0  0  0  0  0
    6.2649   -5.5600   26.3335 H   0  0  0  0  0  0  0  0  0  0  0  0
    5.9271   -3.8964   25.8283 H   0  0  0  0  0  0  0  0  0  0  0  0
   10.2856    1.1781   24.2366 H   0  0  0  0  0  0  0  0  0  0  0  0
   10.8149    1.5883   22.6046 H   0  0  0  0  0  0  0  0  0  0  0  0
    8.0897   -1.6082   21.0890 H   0  0  0  0  0  0  0  0  0  0  0  0
  1  3  2  0  0  0  0
  1  9  1  0  0  0  0
  2  4  1  0  0  0  0
  2  9  2  0  0  0  0
  3 10  1  0  0  0  0
  4 10  2  0  0  0  0
  5  6  2  0  0  0  0
  5  8  1  0  0  0  0
  6 31  1  0  0  0  0
  7  8  2  0  0  0  0
  7 31  1  0  0  0  0
  8 23  1  0  0  0  0
  9 27  1  0  0  0  0
 10 29  1  0  0  0  0
 11 13  1  0  0  0  0
 11 24  2  0  0  0  0
 11 26  1  0  0  0  0
 12 25  2  0  0  0  0
 12 26  1  0  0  0  0
 12 28  1  0  0  0  0
 13 14  2  0  0  0  0
 14 15  1  0  0  0  0
 15 16  2  0  0  0  0
 16 26  1  0  0  0  0
 17 28  1  0  0  0  0
 17 29  1  0  0  0  0
 17 30  2  0  0  0  0
 18 19  1  0  0  0  0
 18 20  1  0  0  0  0
 19 21  1  0  0  0  0
 20 22  1  0  0  0  0
 21 27  1  0  0  0  0
 22 27  1  0  0  0  0
 23 29  1  0  0  0  0
 24 25  1  0  0  0  0
  1 32  1  0  0  0  0
  2 33  1  0  0  0  0
  3 34  1  0  0  0  0
  4 35  1  0  0  0  0
  5 36  1  0  0  0  0
  6 37  1  0  0  0  0
  7 38  1  0  0  0  0
 13 39  1  0  0  0  0
 14 40  1  0  0  0  0
 15 41  1  0  0  0  0
 16 42  1  0  0  0  0
 18 43  1  0  0  0  0
 18 44  1  0  0  0  0
 19 45  1  0  0  0  0
 19 46  1  0  0  0  0
 20 47  1  0  0  0  0
 20 48  1  0  0  0  0
 21 49  1  0  0  0  0
 21 50  1  0  0  0  0
 22 51  1  0  0  0  0
 22 52  1  0  0  0  0
 23 53  1  0  0  0  0
 23 54  1  0  0  0  0
 28 55  1  0  0  0  0
M  END
> <clash_score>
0

> <docking_score>
-9.063246726989746

> <overlap_score>
0.966229259967804

$$$$
BENZO_153_1
  -OEChem-08232013523D

 46 49  0     0  0  0  0  0  0999 V2000
   14.2531   -1.4963   24.0469 C   0  0  0  0  0  0  0  0  0  0  0  0
   13.9197   -0.4228   24.8727 C   0  0  0  0  0  0  0  0  0  0  0  0
   13.4186   -1.8446   22.9848 C   0  0  0  0  0  0  0  0  0  0  0  0
   12.7519    0.3025   24.6365 C   0  0  0  0  0  0  0  0  0  0  0  0
   12.2508   -1.1193   22.7485 C   0  0  0  0  0  0  0  0  0  0  0  0
    9.1890   -3.5540   24.0140 C   0  0  0  0  0  0  0  0  0  0  0  0
    7.8700   -2.0610   25.3550 C   0  0  0  0  0  0  0  0  0  0  0  0
    9.5890   -2.4950   23.2210 C   0  0  0  0  0  0  0  0  0  0  0  0
    8.2550   -1.0010   24.5520 C   0  0  0  0  0  0  0  0  0  0  0  0
    8.3450   -3.3440   25.0980 C   0  0  0  0  0  0  0  0  0  0  0  0
   11.9174   -0.0457   23.5744 C   0  0  0  0  0  0  0  0  0  0  0  0
    9.1280   -1.2090   23.4870 C   0  0  0  0  0  0  0  0  0  0  0  0
    5.7970    0.9500   18.6730 C   0  0  0  0  0  0  0  0  0  0  0  0
    7.2710   -0.1460   19.8310 C   0  0  0  0  0  0  0  0  0  0  0  0
    4.6610    1.7170   18.4380 C   0  0  0  0  0  0  0  0  0  0  0  0
    3.8860    2.1050   19.5250 C   0  0  0  0  0  0  0  0  0  0  0  0
    4.2460    1.7520   20.8250 C   0  0  0  0  0  0  0  0  0  0  0  0
    5.3890    1.0010   21.0690 C   0  0  0  0  0  0  0  0  0  0  0  0
    9.0430    0.2380   21.4940 C   0  0  0  0  0  0  0  0  0  0  0  0
    7.9522   -4.4794   25.9764 C   0  0  0  0  0  0  0  0  0  0  0  0
   10.6602    0.7344   23.3196 C   0  0  0  0  0  0  0  0  0  0  0  0
    6.7100    0.3850   17.8100 N   0  0  0  0  0  0  0  0  0  0  0  0
    7.5840   -0.2700   18.5160 N   0  0  0  0  0  0  0  0  0  0  0  0
    6.1460    0.6070   19.9750 N   0  0  0  0  0  0  0  0  0  0  0  0
    8.0950   -0.7700   20.8440 N   0  0  0  0  0  0  0  0  0  0  0  0
    9.5820   -0.1080   22.7000 N   0  0  0  0  0  0  0  0  0  0  0  0
    9.2950    1.3000   20.9480 O   0  0  0  0  0  0  0  0  0  0  0  0
   15.1631   -2.0601   24.2302 H   0  0  0  0  0  0  0  0  0  0  0  0
   14.5699   -0.1508   25.6992 H   0  0  0  0  0  0  0  0  0  0  0  0
   13.6784   -2.6796   22.3410 H   0  0  0  0  0  0  0  0  0  0  0  0
   12.5001    1.1373   25.2852 H   0  0  0  0  0  0  0  0  0  0  0  0
   11.6067   -1.3979   21.9187 H   0  0  0  0  0  0  0  0  0  0  0  0
    9.5403   -4.5627   23.7809 H   0  0  0  0  0  0  0  0  0  0  0  0
    7.1911   -1.8848   26.1904 H   0  0  0  0  0  0  0  0  0  0  0  0
   10.2682   -2.6746   22.3865 H   0  0  0  0  0  0  0  0  0  0  0  0
    7.8684   -0.0022   24.7594 H   0  0  0  0  0  0  0  0  0  0  0  0
    4.3710    2.0145   17.4451 H   0  0  0  0  0  0  0  0  0  0  0  0
    2.9929    2.6891   19.3400 H   0  0  0  0  0  0  0  0  0  0  0  0
    3.6320    2.0596   21.6814 H   0  0  0  0  0  0  0  0  0  0  0  0
    5.6863    0.7288   22.0575 H   0  0  0  0  0  0  0  0  0  0  0  0
    8.6668   -4.5891   26.8013 H   0  0  0  0  0  0  0  0  0  0  0  0
    6.9513   -4.3276   26.4010 H   0  0  0  0  0  0  0  0  0  0  0  0
    7.9196   -5.4231   25.4163 H   0  0  0  0  0  0  0  0  0  0  0  0
   10.2623    1.1418   24.2555 H   0  0  0  0  0  0  0  0  0  0  0  0
   10.8514    1.5808   22.6517 H   0  0  0  0  0  0  0  0  0  0  0  0
    8.0681   -1.6191   21.0706 H   0  0  0  0  0  0  0  0  0  0  0  0
  1  2  1  0  0  0  0
  1  3  2  0  0  0  0
  2  4  2  0  0  0  0
  3  5  1  0  0  0  0
  4 11  1  0  0  0  0
  5 11  2  0  0  0  0
  6  8  2  0  0  0  0
  6 10  1  0  0  0  0
  7  9  1  0  0  0  0
  7 10  2  0  0  0  0
  8 12  1  0  0  0  0
  9 12  2  0  0  0  0
 10 20  1  0  0  0  0
 11 21  1  0  0  0  0
 12 26  1  0  0  0  0
 13 15  1  0  0  0  0
 13 22  2  0  0  0  0
 13 24  1  0  0  0  0
 14 23  2  0  0  0  0
 14 24  1  0  0  0  0
 14 25  1  0  0  0  0
 15 16  2  0  0  0  0
 16 17  1  0  0  0  0
 17 18  2  0  0  0  0
 18 24  1  0  0  0  0
 19 25  1  0  0  0  0
 19 26  1  0  0  0  0
 19 27  2  0  0  0  0
 21 26  1  0  0  0  0
 22 23  1  0  0  0  0
  1 28  1  0  0  0  0
  2 29  1  0  0  0  0
  3 30  1  0  0  0  0
  4 31  1  0  0  0  0
  5 32  1  0  0  0  0
  6 33  1  0  0  0  0
  7 34  1  0  0  0  0
  8 35  1  0  0  0  0
  9 36  1  0  0  0  0
 15 37  1  0  0  0  0
 16 38  1  0  0  0  0
 17 39  1  0  0  0  0
 18 40  1  0  0  0  0
 20 41  1  0  0  0  0
 20 42  1  0  0  0  0
 20 43  1  0  0  0  0
 21 44  1  0  0  0  0
 21 45  1  0  0  0  0
 25 46  1  0  0  0  0
M  END
> <clash_score>
0

> <docking_score>
-8.316004753112793

> <overlap_score>
0.8926974534988403

$$$$
BENZO_152_1
  -OEChem-08232013523D

 43 46  0     0  0  0  0  0  0999 V2000
    9.1890   -3.5540   24.0140 C   0  0  0  0  0  0  0  0  0  0  0  0
    7.8700   -2.0610   25.3550 C   0  0  0  0  0  0  0  0  0  0  0  0
    9.5890   -2.4950   23.2210 C   0  0  0  0  0  0  0  0  0  0  0  0
    8.2550   -1.0010   24.5520 C   0  0  0  0  0  0  0  0  0  0  0  0
   12.4968   -0.2200   24.8644 C   0  0  0  0  0  0  0  0  0  0  0  0
   13.6467   -0.9769   24.8172 C   0  0  0  0  0  0  0  0  0  0  0  0
   12.6469   -0.6760   22.5902 C   0  0  0  0  0  0  0  0  0  0  0  0
    8.3450   -3.3440   25.0980 C   0  0  0  0  0  0  0  0  0  0  0  0
   11.9174   -0.0457   23.5744 C   0  0  0  0  0  0  0  0  0  0  0  0
    9.1280   -1.2090   23.4870 C   0  0  0  0  0  0  0  0  0  0  0  0
    5.7970    0.9500   18.6730 C   0  0  0  0  0  0  0  0  0  0  0  0
    7.2710   -0.1460   19.8310 C   0  0  0  0  0  0  0  0  0  0  0  0
    4.6610    1.7170   18.4380 C   0  0  0  0  0  0  0  0  0  0  0  0
    3.8860    2.1050   19.5250 C   0  0  0  0  0  0  0  0  0  0  0  0
    4.2460    1.7520   20.8250 C   0  0  0  0  0  0  0  0  0  0  0  0
    5.3890    1.0010   21.0690 C   0  0  0  0  0  0  0  0  0  0  0  0
    9.0430    0.2380   21.4940 C   0  0  0  0  0  0  0  0  0  0  0  0
    7.9522   -4.4794   25.9764 C   0  0  0  0  0  0  0  0  0  0  0  0
   10.6602    0.7344   23.3196 C   0  0  0  0  0  0  0  0  0  0  0  0
    6.7100    0.3850   17.8100 N   0  0  0  0  0  0  0  0  0  0  0  0
    7.5840   -0.2700   18.5160 N   0  0  0  0  0  0  0  0  0  0  0  0
    6.1460    0.6070   19.9750 N   0  0  0  0  0  0  0  0  0  0  0  0
    8.0950   -0.7700   20.8440 N   0  0  0  0  0  0  0  0  0  0  0  0
    9.5820   -0.1080   22.7000 N   0  0  0  0  0  0  0  0  0  0  0  0
    9.2950    1.3000   20.9480 O   0  0  0  0  0  0  0  0  0  0  0  0
   14.0239   -1.4739   23.2225 S   0  0  0  0  0  0  0  0  0  0  0  0
    9.5403   -4.5627   23.7809 H   0  0  0  0  0  0  0  0  0  0  0  0
    7.1911   -1.8848   26.1904 H   0  0  0  0  0  0  0  0  0  0  0  0
   10.2682   -2.6746   22.3865 H   0  0  0  0  0  0  0  0  0  0  0  0
    7.8684   -0.0022   24.7594 H   0  0  0  0  0  0  0  0  0  0  0  0
   12.0940    0.1878   25.7829 H   0  0  0  0  0  0  0  0  0  0  0  0
   14.2839   -1.2612   25.6427 H   0  0  0  0  0  0  0  0  0  0  0  0
   12.4414   -0.7076   21.5292 H   0  0  0  0  0  0  0  0  0  0  0  0
    4.3710    2.0145   17.4451 H   0  0  0  0  0  0  0  0  0  0  0  0
    2.9929    2.6891   19.3400 H   0  0  0  0  0  0  0  0  0  0  0  0
    3.6320    2.0596   21.6814 H   0  0  0  0  0  0  0  0  0  0  0  0
    5.6863    0.7288   22.0575 H   0  0  0  0  0  0  0  0  0  0  0  0
    8.6668   -4.5891   26.8013 H   0  0  0  0  0  0  0  0  0  0  0  0
    6.9513   -4.3276   26.4010 H   0  0  0  0  0  0  0  0  0  0  0  0
    7.9196   -5.4231   25.4163 H   0  0  0  0  0  0  0  0  0  0  0  0
   10.2623    1.1418   24.2555 H   0  0  0  0  0  0  0  0  0  0  0  0
   10.8514    1.5808   22.6517 H   0  0  0  0  0  0  0  0  0  0  0  0
    8.0681   -1.6191   21.0706 H   0  0  0  0  0  0  0  0  0  0  0  0
  1  3  2  0  0  0  0
  1  8  1  0  0  0  0
  2  4  1  0  0  0  0
  2  8  2  0  0  0  0
  3 10  1  0  0  0  0
  4 10  2  0  0  0  0
  5  6  2  0  0  0  0
  5  9  1  0  0  0  0
  6 26  1  0  0  0  0
  7  9  2  0  0  0  0
  7 26  1  0  0  0  0
  8 18  1  0  0  0  0
  9 19  1  0  0  0  0
 10 24  1  0  0  0  0
 11 13  1  0  0  0  0
 11 20  2  0  0  0  0
 11 22  1  0  0  0  0
 12 21  2  0  0  0  0
 12 22  1  0  0  0  0
 12 23  1  0  0  0  0
 13 14  2  0  0  0  0
 14 15  1  0  0  0  0
 15 16  2  0  0  0  0
 16 22  1  0  0  0  0
 17 23  1  0  0  0  0
 17 24  1  0  0  0  0
 17 25  2  0  0  0  0
 19 24  1  0  0  0  0
 20 21  1  0  0  0  0
  1 27  1  0  0  0  0
  2 28  1  0  0  0  0
  3 29  1  0  0  0  0
  4 30  1  0  0  0  0
  5 31  1  0  0  0  0
  6 32  1  0  0  0  0
  7 33  1  0  0  0  0
 13 34  1  0  0  0  0
 14 35  1  0  0  0  0
 15 36  1  0  0  0  0
 16 37  1  0  0  0  0
 18 38  1  0  0  0  0
 18 39  1  0  0  0  0
 18 40  1  0  0  0  0
 19 41  1  0  0  0  0
 19 42  1  0  0  0  0
 23 43  1  0  0  0  0
M  END
> <clash_score>
0

> <docking_score>
-8.146531105041504

> <overlap_score>
0.8774781227111816

$$$$
BENZO_151_1
  -OEChem-08232013523D

 58 62  0     0  0  0  0  0  0999 V2000
    9.1890   -3.5540   24.0140 C   0  0  0  0  0  0  0  0  0  0  0  0
    7.8700   -2.0610   25.3550 C   0  0  0  0  0  0  0  0  0  0  0  0
    9.5890   -2.4950   23.2210 C   0  0  0  0  0  0  0  0  0  0  0  0
    8.2550   -1.0010   24.5520 C   0  0  0  0  0  0  0  0  0  0  0  0
   13.2516    0.9063   22.9519 C   0  0  0  0  0  0  0  0  0  0  0  0
   12.4136   -1.1249   23.0350 C   0  0  0  0  0  0  0  0  0  0  0  0
   12.0454    0.1966   23.1039 C   0  0  0  0  0  0  0  0  0  0  0  0
    8.3450   -3.3440   25.0980 C   0  0  0  0  0  0  0  0  0  0  0  0
    9.1280   -1.2090   23.4870 C   0  0  0  0  0  0  0  0  0  0  0  0
    5.7970    0.9500   18.6730 C   0  0  0  0  0  0  0  0  0  0  0  0
    7.2710   -0.1460   19.8310 C   0  0  0  0  0  0  0  0  0  0  0  0
    4.6610    1.7170   18.4380 C   0  0  0  0  0  0  0  0  0  0  0  0
    3.8860    2.1050   19.5250 C   0  0  0  0  0  0  0  0  0  0  0  0
    4.2460    1.7520   20.8250 C   0  0  0  0  0  0  0  0  0  0  0  0
    5.3890    1.0010   21.0690 C   0  0  0  0  0  0  0  0  0  0  0  0
    9.0430    0.2380   21.4940 C   0  0  0  0  0  0  0  0  0  0  0  0
    7.5748   -4.8280   28.7278 C   0  0  0  0  0  0  0  0  0  0  0  0
    8.9776   -4.7555   28.1204 C   0  0  0  0  0  0  0  0  0  0  0  0
    6.5554   -4.0713   27.8732 C   0  0  0  0  0  0  0  0  0  0  0  0
    8.9620   -5.1961   26.6568 C   0  0  0  0  0  0  0  0  0  0  0  0
    6.6009   -4.5253   26.4110 C   0  0  0  0  0  0  0  0  0  0  0  0
   14.6106   -2.2888   22.7229 C   0  0  0  0  0  0  0  0  0  0  0  0
   10.6659    0.7557   23.3001 C   0  0  0  0  0  0  0  0  0  0  0  0
   14.3071    0.1024   22.7982 N   0  0  0  0  0  0  0  0  0  0  0  0
    6.7100    0.3850   17.8100 N   0  0  0  0  0  0  0  0  0  0  0  0
    7.5840   -0.2700   18.5160 N   0  0  0  0  0  0  0  0  0  0  0  0
   13.7654   -1.1262   22.8534 N   0  0  0  0  0  0  0  0  0  0  0  0
    6.1460    0.6070   19.9750 N   0  0  0  0  0  0  0  0  0  0  0  0
    7.9770   -4.4029   25.9162 N   0  0  0  0  0  0  0  0  0  0  0  0
    8.0950   -0.7700   20.8440 N   0  0  0  0  0  0  0  0  0  0  0  0
    9.5820   -0.1080   22.7000 N   0  0  0  0  0  0  0  0  0  0  0  0
    9.2950    1.3000   20.9480 O   0  0  0  0  0  0  0  0  0  0  0  0
    9.5426   -4.5618   23.7797 H   0  0  0  0  0  0  0  0  0  0  0  0
    7.1914   -1.8824   26.1903 H   0  0  0  0  0  0  0  0  0  0  0  0
   10.2669   -2.6745   22.3854 H   0  0  0  0  0  0  0  0  0  0  0  0
    7.8690   -0.0020   24.7587 H   0  0  0  0  0  0  0  0  0  0  0  0
   13.4081    1.9758   22.9472 H   0  0  0  0  0  0  0  0  0  0  0  0
   11.8432   -2.0416   23.0995 H   0  0  0  0  0  0  0  0  0  0  0  0
    4.3710    2.0145   17.4451 H   0  0  0  0  0  0  0  0  0  0  0  0
    2.9929    2.6891   19.3400 H   0  0  0  0  0  0  0  0  0  0  0  0
    3.6320    2.0596   21.6814 H   0  0  0  0  0  0  0  0  0  0  0  0
    5.6863    0.7288   22.0575 H   0  0  0  0  0  0  0  0  0  0  0  0
    7.2681   -5.8807   28.8239 H   0  0  0  0  0  0  0  0  0  0  0  0
    7.5891   -4.4101   29.7448 H   0  0  0  0  0  0  0  0  0  0  0  0
    9.3554   -3.7320   28.1920 H   0  0  0  0  0  0  0  0  0  0  0  0
    9.6558   -5.3943   28.6900 H   0  0  0  0  0  0  0  0  0  0  0  0
    5.5496   -4.2322   28.2751 H   0  0  0  0  0  0  0  0  0  0  0  0
    6.7545   -2.9948   27.9293 H   0  0  0  0  0  0  0  0  0  0  0  0
    9.9612   -5.0560   26.2363 H   0  0  0  0  0  0  0  0  0  0  0  0
    8.7097   -6.2583   26.5922 H   0  0  0  0  0  0  0  0  0  0  0  0
    6.2649   -5.5600   26.3335 H   0  0  0  0  0  0  0  0  0  0  0  0
    5.9271   -3.8964   25.8283 H   0  0  0  0  0  0  0  0  0  0  0  0
   14.6697   -2.5454   21.6619 H   0  0  0  0  0  0  0  0  0  0  0  0
   15.6050   -2.0621   23.1174 H   0  0  0  0  0  0  0  0  0  0  0  0
   14.1787   -3.1155   23.2939 H   0  0  0  0  0  0  0  0  0  0  0  0
   10.4490    0.8829   24.3664 H   0  0  0  0  0  0  0  0  0  0  0  0
   10.5700    1.7396   22.8291 H   0  0  0  0  0  0  0  0  0  0  0  0
    8.0897   -1.6082   21.0890 H   0  0  0  0  0  0  0  0  0  0  0  0
  1  3  2  0  0  0  0
  1  8  1  0  0  0  0
  2  4  1  0  0  0  0
  2  8  2  0  0  0  0
  3  9  1  0  0  0  0
  4  9  2  0  0  0  0
  5  7  1  0  0  0  0
  5 24  2  0  0  0  0
  6  7  2  0  0  0  0
  6 27  1  0  0  0  0
  7 23  1  0  0  0  0
  8 29  1  0  0  0  0
  9 31  1  0  0  0  0
 10 12  1  0  0  0  0
 10 25  2  0  0  0  0
 10 28  1  0  0  0  0
 11 26  2  0  0  0  0
 11 28  1  0  0  0  0
 11 30  1  0  0  0  0
 12 13  2  0  0  0  0
 13 14  1  0  0  0  0
 14 15  2  0  0  0  0
 15 28  1  0  0  0  0
 16 30  1  0  0  0  0
 16 31  1  0  0  0  0
 16 32  2  0  0  0  0
 17 18  1  0  0  0  0
 17 19  1  0  0  0  0
 18 20  1  0  0  0  0
 19 21  1  0  0  0  0
 20 29  1  0  0  0  0
 21 29  1  0  0  0  0
 22 27  1  0  0  0  0
 23 31  1  0  0  0  0
 24 27  1  0  0  0  0
 25 26  1  0  0  0  0
  1 33  1  0  0  0  0
  2 34  1  0  0  0  0
  3 35  1  0  0  0  0
  4 36  1  0  0  0  0
  5 37  1  0  0  0  0
  6 38  1  0  0  0  0
 12 39  1  0  0  0  0
 13 40  1  0  0  0  0
 14 41  1  0  0  0  0
 15 42  1  0  0  0  0
 17 43  1  0  0  0  0
 17 44  1  0  0  0  0
 18 45  1  0  0  0  0
 18 46  1  0  0  0  0
 19 47  1  0  0  0  0
 19 48  1  0  0  0  0
 20 49  1  0  0  0  0
 20 50  1  0  0  0  0
 21 51  1  0  0  0  0
 21 52  1  0  0  0  0
 22 53  1  0  0  0  0
 22 54  1  0  0  0  0
 22 55  1  0  0  0  0
 23 56  1  0  0  0  0
 23 57  1  0  0  0  0
 30 58  1  0  0  0  0
M  END
> <clash_score>
0

> <docking_score>
-9.706634521484375

> <overlap_score>
0.9646736979484558

$$$$
BENZO_150_1
  -OEChem-08232013523D

 58 62  0     0  0  0  0  0  0999 V2000
   13.6798   -0.7441   25.0433 C   0  0  0  0  0  0  0  0  0  0  0  0
   12.4873   -0.0553   24.8224 C   0  0  0  0  0  0  0  0  0  0  0  0
    9.1890   -3.5540   24.0140 C   0  0  0  0  0  0  0  0  0  0  0  0
    7.8700   -2.0610   25.3550 C   0  0  0  0  0  0  0  0  0  0  0  0
    9.5890   -2.4950   23.2210 C   0  0  0  0  0  0  0  0  0  0  0  0
    8.2550   -1.0010   24.5520 C   0  0  0  0  0  0  0  0  0  0  0  0
   14.3355   -1.3627   23.9787 C   0  0  0  0  0  0  0  0  0  0  0  0
   12.6059   -0.6035   22.4724 C   0  0  0  0  0  0  0  0  0  0  0  0
   11.9503    0.0151   23.5370 C   0  0  0  0  0  0  0  0  0  0  0  0
    8.3450   -3.3440   25.0980 C   0  0  0  0  0  0  0  0  0  0  0  0
    9.1280   -1.2090   23.4870 C   0  0  0  0  0  0  0  0  0  0  0  0
   13.7985   -1.2924   22.6933 C   0  0  0  0  0  0  0  0  0  0  0  0
    5.7970    0.9500   18.6730 C   0  0  0  0  0  0  0  0  0  0  0  0
    7.2710   -0.1460   19.8310 C   0  0  0  0  0  0  0  0  0  0  0  0
    4.6610    1.7170   18.4380 C   0  0  0  0  0  0  0  0  0  0  0  0
    3.8860    2.1050   19.5250 C   0  0  0  0  0  0  0  0  0  0  0  0
    4.2460    1.7520   20.8250 C   0  0  0  0  0  0  0  0  0  0  0  0
    5.3890    1.0010   21.0690 C   0  0  0  0  0  0  0  0  0  0  0  0
    9.0430    0.2380   21.4940 C   0  0  0  0  0  0  0  0  0  0  0  0
    7.5748   -4.8280   28.7278 C   0  0  0  0  0  0  0  0  0  0  0  0
    8.9776   -4.7555   28.1204 C   0  0  0  0  0  0  0  0  0  0  0  0
    6.5554   -4.0713   27.8732 C   0  0  0  0  0  0  0  0  0  0  0  0
    8.9620   -5.1961   26.6568 C   0  0  0  0  0  0  0  0  0  0  0  0
    6.6009   -4.5253   26.4110 C   0  0  0  0  0  0  0  0  0  0  0  0
   10.6659    0.7557   23.3001 C   0  0  0  0  0  0  0  0  0  0  0  0
    6.7100    0.3850   17.8100 N   0  0  0  0  0  0  0  0  0  0  0  0
    7.5840   -0.2700   18.5160 N   0  0  0  0  0  0  0  0  0  0  0  0
    6.1460    0.6070   19.9750 N   0  0  0  0  0  0  0  0  0  0  0  0
    7.9770   -4.4029   25.9162 N   0  0  0  0  0  0  0  0  0  0  0  0
    8.0950   -0.7700   20.8440 N   0  0  0  0  0  0  0  0  0  0  0  0
    9.5820   -0.1080   22.7000 N   0  0  0  0  0  0  0  0  0  0  0  0
    9.2950    1.3000   20.9480 O   0  0  0  0  0  0  0  0  0  0  0  0
   14.6073   -2.0567   21.3805 Cl  0  0  0  0  0  0  0  0  0  0  0  0
   14.0976   -0.7988   26.0445 H   0  0  0  0  0  0  0  0  0  0  0  0
   11.9832    0.4236   25.6578 H   0  0  0  0  0  0  0  0  0  0  0  0
    9.5426   -4.5618   23.7797 H   0  0  0  0  0  0  0  0  0  0  0  0
    7.1914   -1.8824   26.1903 H   0  0  0  0  0  0  0  0  0  0  0  0
   10.2669   -2.6745   22.3854 H   0  0  0  0  0  0  0  0  0  0  0  0
    7.8690   -0.0020   24.7587 H   0  0  0  0  0  0  0  0  0  0  0  0
   15.2641   -1.8964   24.1658 H   0  0  0  0  0  0  0  0  0  0  0  0
   12.1834   -0.5454   21.4719 H   0  0  0  0  0  0  0  0  0  0  0  0
    4.3710    2.0145   17.4451 H   0  0  0  0  0  0  0  0  0  0  0  0
    2.9929    2.6891   19.3400 H   0  0  0  0  0  0  0  0  0  0  0  0
    3.6320    2.0596   21.6814 H   0  0  0  0  0  0  0  0  0  0  0  0
    5.6863    0.7288   22.0575 H   0  0  0  0  0  0  0  0  0  0  0  0
    7.2681   -5.8807   28.8239 H   0  0  0  0  0  0  0  0  0  0  0  0
    7.5891   -4.4101   29.7448 H   0  0  0  0  0  0  0  0  0  0  0  0
    9.3554   -3.7320   28.1920 H   0  0  0  0  0  0  0  0  0  0  0  0
    9.6558   -5.3943   28.6900 H   0  0  0  0  0  0  0  0  0  0  0  0
    5.5496   -4.2322   28.2751 H   0  0  0  0  0  0  0  0  0  0  0  0
    6.7545   -2.9948   27.9293 H   0  0  0  0  0  0  0  0  0  0  0  0
    9.9612   -5.0560   26.2363 H   0  0  0  0  0  0  0  0  0  0  0  0
    8.7097   -6.2583   26.5922 H   0  0  0  0  0  0  0  0  0  0  0  0
    6.2649   -5.5600   26.3335 H   0  0  0  0  0  0  0  0  0  0  0  0
    5.9271   -3.8964   25.8283 H   0  0  0  0  0  0  0  0  0  0  0  0
   10.2856    1.1781   24.2366 H   0  0  0  0  0  0  0  0  0  0  0  0
   10.8149    1.5883   22.6046 H   0  0  0  0  0  0  0  0  0  0  0  0
    8.0897   -1.6082   21.0890 H   0  0  0  0  0  0  0  0  0  0  0  0
  1  2  2  0  0  0  0
  1  7  1  0  0  0  0
  2  9  1  0  0  0  0
  3  5  2  0  0  0  0
  3 10  1  0  0  0  0
  4  6  1  0  0  0  0
  4 10  2  0  0  0  0
  5 11  1  0  0  0  0
  6 11  2  0  0  0  0
  7 12  2  0  0  0  0
  8  9  2  0  0  0  0
  8 12  1  0  0  0  0
  9 25  1  0  0  0  0
 10 29  1  0  0  0  0
 11 31  1  0  0  0  0
 12 33  1  0  0  0  0
 13 15  1  0  0  0  0
 13 26  2  0  0  0  0
 13 28  1  0  0  0  0
 14 27  2  0  0  0  0
 14 28  1  0  0  0  0
 14 30  1  0  0  0  0
 15 16  2  0  0  0  0
 16 17  1  0  0  0  0
 17 18  2  0  0  0  0
 18 28  1  0  0  0  0
 19 30  1  0  0  0  0
 19 31  1  0  0  0  0
 19 32  2  0  0  0  0
 20 21  1  0  0  0  0
 20 22  1  0  0  0  0
 21 23  1  0  0  0  0
 22 24  1  0  0  0  0
 23 29  1  0  0  0  0
 24 29  1  0  0  0  0
 25 31  1  0  0  0  0
 26 27  1  0  0  0  0
  1 34  1  0  0  0  0
  2 35  1  0  0  0  0
  3 36  1  0  0  0  0
  4 37  1  0  0  0  0
  5 38  1  0  0  0  0
  6 39  1  0  0  0  0
  7 40  1  0  0  0  0
  8 41  1  0  0  0  0
 15 42  1  0  0  0  0
 16 43  1  0  0  0  0
 17 44  1  0  0  0  0
 18 45  1  0  0  0  0
 20 46  1  0  0  0  0
 20 47  1  0  0  0  0
 21 48  1  0  0  0  0
 21 49  1  0  0  0  0
 22 50  1  0  0  0  0
 22 51  1  0  0  0  0
 23 52  1  0  0  0  0
 23 53  1  0  0  0  0
 24 54  1  0  0  0  0
 24 55  1  0  0  0  0
 25 56  1  0  0  0  0
 25 57  1  0  0  0  0
 30 58  1  0  0  0  0
M  END
> <clash_score>
0

> <docking_score>
-8.512028694152832

> <overlap_score>
0.9905683398246765

$$$$
BENZO_155_1
  -OEChem-08232013523D

 46 49  0     0  0  0  0  0  0999 V2000
    9.1890   -3.5540   24.0140 C   0  0  0  0  0  0  0  0  0  0  0  0
    7.8700   -2.0610   25.3550 C   0  0  0  0  0  0  0  0  0  0  0  0
    9.5890   -2.4950   23.2210 C   0  0  0  0  0  0  0  0  0  0  0  0
    8.2550   -1.0010   24.5520 C   0  0  0  0  0  0  0  0  0  0  0  0
   13.2131    0.4756   23.8152 C   0  0  0  0  0  0  0  0  0  0  0  0
   12.3942   -0.8708   22.2816 C   0  0  0  0  0  0  0  0  0  0  0  0
    8.3450   -3.3440   25.0980 C   0  0  0  0  0  0  0  0  0  0  0  0
   12.0252    0.1355   23.1405 C   0  0  0  0  0  0  0  0  0  0  0  0
    9.1280   -1.2090   23.4870 C   0  0  0  0  0  0  0  0  0  0  0  0
    5.7970    0.9500   18.6730 C   0  0  0  0  0  0  0  0  0  0  0  0
    7.2710   -0.1460   19.8310 C   0  0  0  0  0  0  0  0  0  0  0  0
    4.6610    1.7170   18.4380 C   0  0  0  0  0  0  0  0  0  0  0  0
    3.8860    2.1050   19.5250 C   0  0  0  0  0  0  0  0  0  0  0  0
    4.2460    1.7520   20.8250 C   0  0  0  0  0  0  0  0  0  0  0  0
    5.3890    1.0010   21.0690 C   0  0  0  0  0  0  0  0  0  0  0  0
    9.0430    0.2380   21.4940 C   0  0  0  0  0  0  0  0  0  0  0  0
    7.9522   -4.4794   25.9764 C   0  0  0  0  0  0  0  0  0  0  0  0
   14.5678   -2.0249   21.8101 C   0  0  0  0  0  0  0  0  0  0  0  0
   10.6602    0.7344   23.3196 C   0  0  0  0  0  0  0  0  0  0  0  0
   14.2584   -0.2555   23.4191 N   0  0  0  0  0  0  0  0  0  0  0  0
    6.7100    0.3850   17.8100 N   0  0  0  0  0  0  0  0  0  0  0  0
    7.5840   -0.2700   18.5160 N   0  0  0  0  0  0  0  0  0  0  0  0
   13.7286   -1.0650   22.4863 N   0  0  0  0  0  0  0  0  0  0  0  0
    6.1460    0.6070   19.9750 N   0  0  0  0  0  0  0  0  0  0  0  0
    8.0950   -0.7700   20.8440 N   0  0  0  0  0  0  0  0  0  0  0  0
    9.5820   -0.1080   22.7000 N   0  0  0  0  0  0  0  0  0  0  0  0
    9.2950    1.3000   20.9480 O   0  0  0  0  0  0  0  0  0  0  0  0
    9.5403   -4.5627   23.7809 H   0  0  0  0  0  0  0  0  0  0  0  0
    7.1911   -1.8848   26.1904 H   0  0  0  0  0  0  0  0  0  0  0  0
   10.2682   -2.6746   22.3865 H   0  0  0  0  0  0  0  0  0  0  0  0
    7.8684   -0.0022   24.7594 H   0  0  0  0  0  0  0  0  0  0  0  0
   13.3628    1.2246   24.5799 H   0  0  0  0  0  0  0  0  0  0  0  0
   11.8346   -1.4518   21.5611 H   0  0  0  0  0  0  0  0  0  0  0  0
    4.3710    2.0145   17.4451 H   0  0  0  0  0  0  0  0  0  0  0  0
    2.9929    2.6891   19.3400 H   0  0  0  0  0  0  0  0  0  0  0  0
    3.6320    2.0596   21.6814 H   0  0  0  0  0  0  0  0  0  0  0  0
    5.6863    0.7288   22.0575 H   0  0  0  0  0  0  0  0  0  0  0  0
    8.6668   -4.5891   26.8013 H   0  0  0  0  0  0  0  0  0  0  0  0
    6.9513   -4.3276   26.4010 H   0  0  0  0  0  0  0  0  0  0  0  0
    7.9196   -5.4231   25.4163 H   0  0  0  0  0  0  0  0  0  0  0  0
   14.9791   -1.5443   20.9184 H   0  0  0  0  0  0  0  0  0  0  0  0
   15.3726   -2.3406   22.4798 H   0  0  0  0  0  0  0  0  0  0  0  0
   13.9690   -2.8972   21.5338 H   0  0  0  0  0  0  0  0  0  0  0  0
   10.4226    0.8424   24.3836 H   0  0  0  0  0  0  0  0  0  0  0  0
   10.6069    1.7321   22.8715 H   0  0  0  0  0  0  0  0  0  0  0  0
    8.0681   -1.6191   21.0706 H   0  0  0  0  0  0  0  0  0  0  0  0
  1  3  2  0  0  0  0
  1  7  1  0  0  0  0
  2  4  1  0  0  0  0
  2  7  2  0  0  0  0
  3  9  1  0  0  0  0
  4  9  2  0  0  0  0
  5  8  1  0  0  0  0
  5 20  2  0  0  0  0
  6  8  2  0  0  0  0
  6 23  1  0  0  0  0
  7 17  1  0  0  0  0
  8 19  1  0  0  0  0
  9 26  1  0  0  0  0
 10 12  1  0  0  0  0
 10 21  2  0  0  0  0
 10 24  1  0  0  0  0
 11 22  2  0  0  0  0
 11 24  1  0  0  0  0
 11 25  1  0  0  0  0
 12 13  2  0  0  0  0
 13 14  1  0  0  0  0
 14 15  2  0  0  0  0
 15 24  1  0  0  0  0
 16 25  1  0  0  0  0
 16 26  1  0  0  0  0
 16 27  2  0  0  0  0
 18 23  1  0  0  0  0
 19 26  1  0  0  0  0
 20 23  1  0  0  0  0
 21 22  1  0  0  0  0
  1 28  1  0  0  0  0
  2 29  1  0  0  0  0
  3 30  1  0  0  0  0
  4 31  1  0  0  0  0
  5 32  1  0  0  0  0
  6 33  1  0  0  0  0
 12 34  1  0  0  0  0
 13 35  1  0  0  0  0
 14 36  1  0  0  0  0
 15 37  1  0  0  0  0
 17 38  1  0  0  0  0
 17 39  1  0  0  0  0
 17 40  1  0  0  0  0
 18 41  1  0  0  0  0
 18 42  1  0  0  0  0
 18 43  1  0  0  0  0
 19 44  1  0  0  0  0
 19 45  1  0  0  0  0
 25 46  1  0  0  0  0
M  END
> <clash_score>
0

> <docking_score>
-8.560227394104004

> <overlap_score>
0.8873451948165894

$$$$
BENZO_157_1
  -OEChem-08232013523D

 47 50  0     0  0  0  0  0  0999 V2000
   14.2531   -1.4963   24.0469 C   0  0  0  0  0  0  0  0  0  0  0  0
   13.9197   -0.4228   24.8727 C   0  0  0  0  0  0  0  0  0  0  0  0
   13.4186   -1.8446   22.9848 C   0  0  0  0  0  0  0  0  0  0  0  0
   12.7519    0.3025   24.6365 C   0  0  0  0  0  0  0  0  0  0  0  0
   12.2508   -1.1193   22.7485 C   0  0  0  0  0  0  0  0  0  0  0  0
    9.5890   -2.4950   23.2210 C   0  0  0  0  0  0  0  0  0  0  0  0
    8.2550   -1.0010   24.5520 C   0  0  0  0  0  0  0  0  0  0  0  0
    9.1890   -3.5540   24.0140 C   0  0  0  0  0  0  0  0  0  0  0  0
    7.8700   -2.0610   25.3550 C   0  0  0  0  0  0  0  0  0  0  0  0
   11.9174   -0.0457   23.5744 C   0  0  0  0  0  0  0  0  0  0  0  0
    9.1280   -1.2090   23.4870 C   0  0  0  0  0  0  0  0  0  0  0  0
    8.3450   -3.3440   25.0980 C   0  0  0  0  0  0  0  0  0  0  0  0
    5.7970    0.9500   18.6730 C   0  0  0  0  0  0  0  0  0  0  0  0
    7.2710   -0.1460   19.8310 C   0  0  0  0  0  0  0  0  0  0  0  0
    4.6610    1.7170   18.4380 C   0  0  0  0  0  0  0  0  0  0  0  0
    3.8860    2.1050   19.5250 C   0  0  0  0  0  0  0  0  0  0  0  0
    4.2460    1.7520   20.8250 C   0  0  0  0  0  0  0  0  0  0  0  0
    5.3890    1.0010   21.0690 C   0  0  0  0  0  0  0  0  0  0  0  0
    9.0430    0.2380   21.4940 C   0  0  0  0  0  0  0  0  0  0  0  0
    8.5123   -5.6657   25.5745 C   0  0  0  0  0  0  0  0  0  0  0  0
   10.6602    0.7344   23.3196 C   0  0  0  0  0  0  0  0  0  0  0  0
    6.7100    0.3850   17.8100 N   0  0  0  0  0  0  0  0  0  0  0  0
    7.5840   -0.2700   18.5160 N   0  0  0  0  0  0  0  0  0  0  0  0
    6.1460    0.6070   19.9750 N   0  0  0  0  0  0  0  0  0  0  0  0
    8.0950   -0.7700   20.8440 N   0  0  0  0  0  0  0  0  0  0  0  0
    9.5820   -0.1080   22.7000 N   0  0  0  0  0  0  0  0  0  0  0  0
    9.2950    1.3000   20.9480 O   0  0  0  0  0  0  0  0  0  0  0  0
    7.9864   -4.3799   25.8996 O   0  0  0  0  0  0  0  0  0  0  0  0
   15.1631   -2.0601   24.2302 H   0  0  0  0  0  0  0  0  0  0  0  0
   14.5699   -0.1508   25.6992 H   0  0  0  0  0  0  0  0  0  0  0  0
   13.6784   -2.6796   22.3410 H   0  0  0  0  0  0  0  0  0  0  0  0
   12.5001    1.1373   25.2852 H   0  0  0  0  0  0  0  0  0  0  0  0
   11.6067   -1.3979   21.9187 H   0  0  0  0  0  0  0  0  0  0  0  0
   10.2678   -2.6746   22.3862 H   0  0  0  0  0  0  0  0  0  0  0  0
    7.8691   -0.0023   24.7606 H   0  0  0  0  0  0  0  0  0  0  0  0
    9.5404   -4.5633   23.7846 H   0  0  0  0  0  0  0  0  0  0  0  0
    7.1920   -1.8875   26.1914 H   0  0  0  0  0  0  0  0  0  0  0  0
    4.3710    2.0145   17.4451 H   0  0  0  0  0  0  0  0  0  0  0  0
    2.9929    2.6891   19.3400 H   0  0  0  0  0  0  0  0  0  0  0  0
    3.6320    2.0596   21.6814 H   0  0  0  0  0  0  0  0  0  0  0  0
    5.6863    0.7288   22.0575 H   0  0  0  0  0  0  0  0  0  0  0  0
    8.1470   -6.4023   26.2943 H   0  0  0  0  0  0  0  0  0  0  0  0
    9.6044   -5.6299   25.5961 H   0  0  0  0  0  0  0  0  0  0  0  0
    8.1786   -5.9430   24.5717 H   0  0  0  0  0  0  0  0  0  0  0  0
   10.2623    1.1418   24.2555 H   0  0  0  0  0  0  0  0  0  0  0  0
   10.8514    1.5808   22.6517 H   0  0  0  0  0  0  0  0  0  0  0  0
    8.0681   -1.6191   21.0706 H   0  0  0  0  0  0  0  0  0  0  0  0
  1  2  1  0  0  0  0
  1  3  2  0  0  0  0
  2  4  2  0  0  0  0
  3  5  1  0  0  0  0
  4 10  1  0  0  0  0
  5 10  2  0  0  0  0
  6  8  2  0  0  0  0
  6 11  1  0  0  0  0
  7  9  1  0  0  0  0
  7 11  2  0  0  0  0
  8 12  1  0  0  0  0
  9 12  2  0  0  0  0
 10 21  1  0  0  0  0
 11 26  1  0  0  0  0
 12 28  1  0  0  0  0
 13 15  1  0  0  0  0
 13 22  2  0  0  0  0
 13 24  1  0  0  0  0
 14 23  2  0  0  0  0
 14 24  1  0  0  0  0
 14 25  1  0  0  0  0
 15 16  2  0  0  0  0
 16 17  1  0  0  0  0
 17 18  2  0  0  0  0
 18 24  1  0  0  0  0
 19 25  1  0  0  0  0
 19 26  1  0  0  0  0
 19 27  2  0  0  0  0
 20 28  1  0  0  0  0
 21 26  1  0  0  0  0
 22 23  1  0  0  0  0
  1 29  1  0  0  0  0
  2 30  1  0  0  0  0
  3 31  1  0  0  0  0
  4 32  1  0  0  0  0
  5 33  1  0  0  0  0
  6 34  1  0  0  0  0
  7 35  1  0  0  0  0
  8 36  1  0  0  0  0
  9 37  1  0  0  0  0
 15 38  1  0  0  0  0
 16 39  1  0  0  0  0
 17 40  1  0  0  0  0
 18 41  1  0  0  0  0
 20 42  1  0  0  0  0
 20 43  1  0  0  0  0
 20 44  1  0  0  0  0
 21 45  1  0  0  0  0
 21 46  1  0  0  0  0
 25 47  1  0  0  0  0
M  END
> <clash_score>
0

> <docking_score>
-8.43616771697998

> <overlap_score>
0.9059816598892212

$$$$
BENZO_154_1
  -OEChem-08232013523D

 46 49  0     0  0  0  0  0  0999 V2000
   13.5804   -0.8896   25.1103 C   0  0  0  0  0  0  0  0  0  0  0  0
   12.4131   -0.1640   24.8728 C   0  0  0  0  0  0  0  0  0  0  0  0
    9.1890   -3.5540   24.0140 C   0  0  0  0  0  0  0  0  0  0  0  0
    7.8700   -2.0610   25.3550 C   0  0  0  0  0  0  0  0  0  0  0  0
    9.5890   -2.4950   23.2210 C   0  0  0  0  0  0  0  0  0  0  0  0
    8.2550   -1.0010   24.5520 C   0  0  0  0  0  0  0  0  0  0  0  0
   14.2523   -1.4968   24.0493 C   0  0  0  0  0  0  0  0  0  0  0  0
   12.5892   -0.6529   22.5134 C   0  0  0  0  0  0  0  0  0  0  0  0
    8.3450   -3.3440   25.0980 C   0  0  0  0  0  0  0  0  0  0  0  0
   11.9174   -0.0457   23.5744 C   0  0  0  0  0  0  0  0  0  0  0  0
    9.1280   -1.2090   23.4870 C   0  0  0  0  0  0  0  0  0  0  0  0
   13.7567   -1.3785   22.7509 C   0  0  0  0  0  0  0  0  0  0  0  0
    5.7970    0.9500   18.6730 C   0  0  0  0  0  0  0  0  0  0  0  0
    7.2710   -0.1460   19.8310 C   0  0  0  0  0  0  0  0  0  0  0  0
    4.6610    1.7170   18.4380 C   0  0  0  0  0  0  0  0  0  0  0  0
    3.8860    2.1050   19.5250 C   0  0  0  0  0  0  0  0  0  0  0  0
    4.2460    1.7520   20.8250 C   0  0  0  0  0  0  0  0  0  0  0  0
    5.3890    1.0010   21.0690 C   0  0  0  0  0  0  0  0  0  0  0  0
    9.0430    0.2380   21.4940 C   0  0  0  0  0  0  0  0  0  0  0  0
    7.9522   -4.4794   25.9764 C   0  0  0  0  0  0  0  0  0  0  0  0
   10.6602    0.7344   23.3196 C   0  0  0  0  0  0  0  0  0  0  0  0
    6.7100    0.3850   17.8100 N   0  0  0  0  0  0  0  0  0  0  0  0
    7.5840   -0.2700   18.5160 N   0  0  0  0  0  0  0  0  0  0  0  0
    6.1460    0.6070   19.9750 N   0  0  0  0  0  0  0  0  0  0  0  0
    8.0950   -0.7700   20.8440 N   0  0  0  0  0  0  0  0  0  0  0  0
    9.5820   -0.1080   22.7000 N   0  0  0  0  0  0  0  0  0  0  0  0
    9.2950    1.3000   20.9480 O   0  0  0  0  0  0  0  0  0  0  0  0
   14.5853   -2.1288   21.4424 Cl  0  0  0  0  0  0  0  0  0  0  0  0
   13.9660   -0.9816   26.1216 H   0  0  0  0  0  0  0  0  0  0  0  0
   11.8961    0.3057   25.7056 H   0  0  0  0  0  0  0  0  0  0  0  0
    9.5403   -4.5627   23.7809 H   0  0  0  0  0  0  0  0  0  0  0  0
    7.1911   -1.8848   26.1904 H   0  0  0  0  0  0  0  0  0  0  0  0
   10.2682   -2.6746   22.3865 H   0  0  0  0  0  0  0  0  0  0  0  0
    7.8684   -0.0022   24.7594 H   0  0  0  0  0  0  0  0  0  0  0  0
   15.1608   -2.0594   24.2493 H   0  0  0  0  0  0  0  0  0  0  0  0
   12.1990   -0.5573   21.5027 H   0  0  0  0  0  0  0  0  0  0  0  0
    4.3710    2.0145   17.4451 H   0  0  0  0  0  0  0  0  0  0  0  0
    2.9929    2.6891   19.3400 H   0  0  0  0  0  0  0  0  0  0  0  0
    3.6320    2.0596   21.6814 H   0  0  0  0  0  0  0  0  0  0  0  0
    5.6863    0.7288   22.0575 H   0  0  0  0  0  0  0  0  0  0  0  0
    8.6668   -4.5891   26.8013 H   0  0  0  0  0  0  0  0  0  0  0  0
    6.9513   -4.3276   26.4010 H   0  0  0  0  0  0  0  0  0  0  0  0
    7.9196   -5.4231   25.4163 H   0  0  0  0  0  0  0  0  0  0  0  0
   10.2623    1.1418   24.2555 H   0  0  0  0  0  0  0  0  0  0  0  0
   10.8514    1.5808   22.6517 H   0  0  0  0  0  0  0  0  0  0  0  0
    8.0681   -1.6191   21.0706 H   0  0  0  0  0  0  0  0  0  0  0  0
  1  2  2  0  0  0  0
  1  7  1  0  0  0  0
  2 10  1  0  0  0  0
  3  5  2  0  0  0  0
  3  9  1  0  0  0  0
  4  6  1  0  0  0  0
  4  9  2  0  0  0  0
  5 11  1  0  0  0  0
  6 11  2  0  0  0  0
  7 12  2  0  0  0  0
  8 10  2  0  0  0  0
  8 12  1  0  0  0  0
  9 20  1  0  0  0  0
 10 21  1  0  0  0  0
 11 26  1  0  0  0  0
 12 28  1  0  0  0  0
 13 15  1  0  0  0  0
 13 22  2  0  0  0  0
 13 24  1  0  0  0  0
 14 23  2  0  0  0  0
 14 24  1  0  0  0  0
 14 25  1  0  0  0  0
 15 16  2  0  0  0  0
 16 17  1  0  0  0  0
 17 18  2  0  0  0  0
 18 24  1  0  0  0  0
 19 25  1  0  0  0  0
 19 26  1  0  0  0  0
 19 27  2  0  0  0  0
 21 26  1  0  0  0  0
 22 23  1  0  0  0  0
  1 29  1  0  0  0  0
  2 30  1  0  0  0  0
  3 31  1  0  0  0  0
  4 32  1  0  0  0  0
  5 33  1  0  0  0  0
  6 34  1  0  0  0  0
  7 35  1  0  0  0  0
  8 36  1  0  0  0  0
 15 37  1  0  0  0  0
 16 38  1  0  0  0  0
 17 39  1  0  0  0  0
 18 40  1  0  0  0  0
 20 41  1  0  0  0  0
 20 42  1  0  0  0  0
 20 43  1  0  0  0  0
 21 44  1  0  0  0  0
 21 45  1  0  0  0  0
 25 46  1  0  0  0  0
M  END
> <clash_score>
0

> <docking_score>
-7.557965278625488

> <overlap_score>
0.9026795625686646

$$$$
BENZO_156_1
  -OEChem-08232013523D

 44 47  0     0  0  0  0  0  0999 V2000
    9.5890   -2.4950   23.2210 C   0  0  0  0  0  0  0  0  0  0  0  0
    8.2550   -1.0010   24.5520 C   0  0  0  0  0  0  0  0  0  0  0  0
    9.1890   -3.5540   24.0140 C   0  0  0  0  0  0  0  0  0  0  0  0
    7.8700   -2.0610   25.3550 C   0  0  0  0  0  0  0  0  0  0  0  0
   12.6688   -0.6971   22.5540 C   0  0  0  0  0  0  0  0  0  0  0  0
   13.7769   -1.3413   23.0586 C   0  0  0  0  0  0  0  0  0  0  0  0
   12.4799   -0.2171   24.8203 C   0  0  0  0  0  0  0  0  0  0  0  0
   11.9174   -0.0457   23.5744 C   0  0  0  0  0  0  0  0  0  0  0  0
    9.1280   -1.2090   23.4870 C   0  0  0  0  0  0  0  0  0  0  0  0
    8.3450   -3.3440   25.0980 C   0  0  0  0  0  0  0  0  0  0  0  0
    5.7970    0.9500   18.6730 C   0  0  0  0  0  0  0  0  0  0  0  0
    7.2710   -0.1460   19.8310 C   0  0  0  0  0  0  0  0  0  0  0  0
    4.6610    1.7170   18.4380 C   0  0  0  0  0  0  0  0  0  0  0  0
    3.8860    2.1050   19.5250 C   0  0  0  0  0  0  0  0  0  0  0  0
    4.2460    1.7520   20.8250 C   0  0  0  0  0  0  0  0  0  0  0  0
    5.3890    1.0010   21.0690 C   0  0  0  0  0  0  0  0  0  0  0  0
    9.0430    0.2380   21.4940 C   0  0  0  0  0  0  0  0  0  0  0  0
    8.5123   -5.6657   25.5745 C   0  0  0  0  0  0  0  0  0  0  0  0
   10.6602    0.7344   23.3196 C   0  0  0  0  0  0  0  0  0  0  0  0
    6.7100    0.3850   17.8100 N   0  0  0  0  0  0  0  0  0  0  0  0
    7.5840   -0.2700   18.5160 N   0  0  0  0  0  0  0  0  0  0  0  0
    6.1460    0.6070   19.9750 N   0  0  0  0  0  0  0  0  0  0  0  0
    8.0950   -0.7700   20.8440 N   0  0  0  0  0  0  0  0  0  0  0  0
    9.5820   -0.1080   22.7000 N   0  0  0  0  0  0  0  0  0  0  0  0
    9.2950    1.3000   20.9480 O   0  0  0  0  0  0  0  0  0  0  0  0
    7.9864   -4.3799   25.8996 O   0  0  0  0  0  0  0  0  0  0  0  0
   13.9081   -1.1597   24.7563 S   0  0  0  0  0  0  0  0  0  0  0  0
   10.2678   -2.6746   22.3862 H   0  0  0  0  0  0  0  0  0  0  0  0
    7.8691   -0.0023   24.7606 H   0  0  0  0  0  0  0  0  0  0  0  0
    9.5404   -4.5633   23.7846 H   0  0  0  0  0  0  0  0  0  0  0  0
    7.1920   -1.8875   26.1914 H   0  0  0  0  0  0  0  0  0  0  0  0
   12.4129   -0.6962   21.5019 H   0  0  0  0  0  0  0  0  0  0  0  0
   14.5154   -1.9104   22.5118 H   0  0  0  0  0  0  0  0  0  0  0  0
   12.1231    0.1634   25.7674 H   0  0  0  0  0  0  0  0  0  0  0  0
    4.3710    2.0145   17.4451 H   0  0  0  0  0  0  0  0  0  0  0  0
    2.9929    2.6891   19.3400 H   0  0  0  0  0  0  0  0  0  0  0  0
    3.6320    2.0596   21.6814 H   0  0  0  0  0  0  0  0  0  0  0  0
    5.6863    0.7288   22.0575 H   0  0  0  0  0  0  0  0  0  0  0  0
    8.1470   -6.4023   26.2943 H   0  0  0  0  0  0  0  0  0  0  0  0
    9.6044   -5.6299   25.5961 H   0  0  0  0  0  0  0  0  0  0  0  0
    8.1786   -5.9430   24.5717 H   0  0  0  0  0  0  0  0  0  0  0  0
   10.2623    1.1418   24.2555 H   0  0  0  0  0  0  0  0  0  0  0  0
   10.8514    1.5808   22.6517 H   0  0  0  0  0  0  0  0  0  0  0  0
    8.0681   -1.6191   21.0706 H   0  0  0  0  0  0  0  0  0  0  0  0
  1  3  2  0  0  0  0
  1  9  1  0  0  0  0
  2  4  1  0  0  0  0
  2  9  2  0  0  0  0
  3 10  1  0  0  0  0
  4 10  2  0  0  0  0
  5  6  2  0  0  0  0
  5  8  1  0  0  0  0
  6 27  1  0  0  0  0
  7  8  2  0  0  0  0
  7 27  1  0  0  0  0
  8 19  1  0  0  0  0
  9 24  1  0  0  0  0
 10 26  1  0  0  0  0
 11 13  1  0  0  0  0
 11 20  2  0  0  0  0
 11 22  1  0  0  0  0
 12 21  2  0  0  0  0
 12 22  1  0  0  0  0
 12 23  1  0  0  0  0
 13 14  2  0  0  0  0
 14 15  1  0  0  0  0
 15 16  2  0  0  0  0
 16 22  1  0  0  0  0
 17 23  1  0  0  0  0
 17 24  1  0  0  0  0
 17 25  2  0  0  0  0
 18 26  1  0  0  0  0
 19 24  1  0  0  0  0
 20 21  1  0  0  0  0
  1 28  1  0  0  0  0
  2 29  1  0  0  0  0
  3 30  1  0  0  0  0
  4 31  1  0  0  0  0
  5 32  1  0  0  0  0
  6 33  1  0  0  0  0
  7 34  1  0  0  0  0
 13 35  1  0  0  0  0
 14 36  1  0  0  0  0
 15 37  1  0  0  0  0
 16 38  1  0  0  0  0
 18 39  1  0  0  0  0
 18 40  1  0  0  0  0
 18 41  1  0  0  0  0
 19 42  1  0  0  0  0
 19 43  1  0  0  0  0
 23 44  1  0  0  0  0
M  END
> <clash_score>
0

> <docking_score>
-8.23094654083252

> <overlap_score>
0.8936487436294556

$$$$
BENZO_159_1
  -OEChem-08232013523D

 47 50  0     0  0  0  0  0  0999 V2000
    9.5890   -2.4950   23.2210 C   0  0  0  0  0  0  0  0  0  0  0  0
    8.2550   -1.0010   24.5520 C   0  0  0  0  0  0  0  0  0  0  0  0
    9.1890   -3.5540   24.0140 C   0  0  0  0  0  0  0  0  0  0  0  0
    7.8700   -2.0610   25.3550 C   0  0  0  0  0  0  0  0  0  0  0  0
   13.2131    0.4756   23.8152 C   0  0  0  0  0  0  0  0  0  0  0  0
   12.3942   -0.8708   22.2816 C   0  0  0  0  0  0  0  0  0  0  0  0
   12.0252    0.1355   23.1405 C   0  0  0  0  0  0  0  0  0  0  0  0
    9.1280   -1.2090   23.4870 C   0  0  0  0  0  0  0  0  0  0  0  0
    8.3450   -3.3440   25.0980 C   0  0  0  0  0  0  0  0  0  0  0  0
    5.7970    0.9500   18.6730 C   0  0  0  0  0  0  0  0  0  0  0  0
    7.2710   -0.1460   19.8310 C   0  0  0  0  0  0  0  0  0  0  0  0
    4.6610    1.7170   18.4380 C   0  0  0  0  0  0  0  0  0  0  0  0
    3.8860    2.1050   19.5250 C   0  0  0  0  0  0  0  0  0  0  0  0
    4.2460    1.7520   20.8250 C   0  0  0  0  0  0  0  0  0  0  0  0
    5.3890    1.0010   21.0690 C   0  0  0  0  0  0  0  0  0  0  0  0
    9.0430    0.2380   21.4940 C   0  0  0  0  0  0  0  0  0  0  0  0
   14.5678   -2.0249   21.8101 C   0  0  0  0  0  0  0  0  0  0  0  0
    7.1173   -4.0856   26.9922 C   0  0  0  0  0  0  0  0  0  0  0  0
   10.6602    0.7344   23.3196 C   0  0  0  0  0  0  0  0  0  0  0  0
   14.2584   -0.2555   23.4191 N   0  0  0  0  0  0  0  0  0  0  0  0
    6.7100    0.3850   17.8100 N   0  0  0  0  0  0  0  0  0  0  0  0
    7.5840   -0.2700   18.5160 N   0  0  0  0  0  0  0  0  0  0  0  0
   13.7286   -1.0650   22.4863 N   0  0  0  0  0  0  0  0  0  0  0  0
    6.1460    0.6070   19.9750 N   0  0  0  0  0  0  0  0  0  0  0  0
    8.0950   -0.7700   20.8440 N   0  0  0  0  0  0  0  0  0  0  0  0
    9.5820   -0.1080   22.7000 N   0  0  0  0  0  0  0  0  0  0  0  0
    9.2950    1.3000   20.9480 O   0  0  0  0  0  0  0  0  0  0  0  0
    7.9864   -4.3799   25.8996 O   0  0  0  0  0  0  0  0  0  0  0  0
   10.2678   -2.6746   22.3862 H   0  0  0  0  0  0  0  0  0  0  0  0
    7.8691   -0.0023   24.7606 H   0  0  0  0  0  0  0  0  0  0  0  0
    9.5404   -4.5633   23.7846 H   0  0  0  0  0  0  0  0  0  0  0  0
    7.1920   -1.8875   26.1914 H   0  0  0  0  0  0  0  0  0  0  0  0
   13.3628    1.2246   24.5799 H   0  0  0  0  0  0  0  0  0  0  0  0
   11.8346   -1.4518   21.5611 H   0  0  0  0  0  0  0  0  0  0  0  0
    4.3710    2.0145   17.4451 H   0  0  0  0  0  0  0  0  0  0  0  0
    2.9929    2.6891   19.3400 H   0  0  0  0  0  0  0  0  0  0  0  0
    3.6320    2.0596   21.6814 H   0  0  0  0  0  0  0  0  0  0  0  0
    5.6863    0.7288   22.0575 H   0  0  0  0  0  0  0  0  0  0  0  0
   14.9791   -1.5443   20.9184 H   0  0  0  0  0  0  0  0  0  0  0  0
   15.3726   -2.3406   22.4798 H   0  0  0  0  0  0  0  0  0  0  0  0
   13.9690   -2.8972   21.5338 H   0  0  0  0  0  0  0  0  0  0  0  0
    6.9106   -5.0015   27.5513 H   0  0  0  0  0  0  0  0  0  0  0  0
    6.1852   -3.6594   26.6129 H   0  0  0  0  0  0  0  0  0  0  0  0
    7.6054   -3.3624   27.6499 H   0  0  0  0  0  0  0  0  0  0  0  0
   10.4226    0.8424   24.3836 H   0  0  0  0  0  0  0  0  0  0  0  0
   10.6069    1.7321   22.8715 H   0  0  0  0  0  0  0  0  0  0  0  0
    8.0681   -1.6191   21.0706 H   0  0  0  0  0  0  0  0  0  0  0  0
  1  3  2  0  0  0  0
  1  8  1  0  0  0  0
  2  4  1  0  0  0  0
  2  8  2  0  0  0  0
  3  9  1  0  0  0  0
  4  9  2  0  0  0  0
  5  7  1  0  0  0  0
  5 20  2  0  0  0  0
  6  7  2  0  0  0  0
  6 23  1  0  0  0  0
  7 19  1  0  0  0  0
  8 26  1  0  0  0  0
  9 28  1  0  0  0  0
 10 12  1  0  0  0  0
 10 21  2  0  0  0  0
 10 24  1  0  0  0  0
 11 22  2  0  0  0  0
 11 24  1  0  0  0  0
 11 25  1  0  0  0  0
 12 13  2  0  0  0  0
 13 14  1  0  0  0  0
 14 15  2  0  0  0  0
 15 24  1  0  0  0  0
 16 25  1  0  0  0  0
 16 26  1  0  0  0  0
 16 27  2  0  0  0  0
 17 23  1  0  0  0  0
 18 28  1  0  0  0  0
 19 26  1  0  0  0  0
 20 23  1  0  0  0  0
 21 22  1  0  0  0  0
  1 29  1  0  0  0  0
  2 30  1  0  0  0  0
  3 31  1  0  0  0  0
  4 32  1  0  0  0  0
  5 33  1  0  0  0  0
  6 34  1  0  0  0  0
 12 35  1  0  0  0  0
 13 36  1  0  0  0  0
 14 37  1  0  0  0  0
 15 38  1  0  0  0  0
 17 39  1  0  0  0  0
 17 40  1  0  0  0  0
 17 41  1  0  0  0  0
 18 42  1  0  0  0  0
 18 43  1  0  0  0  0
 18 44  1  0  0  0  0
 19 45  1  0  0  0  0
 19 46  1  0  0  0  0
 25 47  1  0  0  0  0
M  END
> <clash_score>
0

> <docking_score>
-8.09792709350586

> <overlap_score>
0.9069757461547852

$$$$
BENZO_158_1
  -OEChem-08232013523D

 47 50  0     0  0  0  0  0  0999 V2000
   13.5804   -0.8896   25.1103 C   0  0  0  0  0  0  0  0  0  0  0  0
   12.4131   -0.1640   24.8728 C   0  0  0  0  0  0  0  0  0  0  0  0
    9.5890   -2.4950   23.2210 C   0  0  0  0  0  0  0  0  0  0  0  0
    8.2550   -1.0010   24.5520 C   0  0  0  0  0  0  0  0  0  0  0  0
    9.1890   -3.5540   24.0140 C   0  0  0  0  0  0  0  0  0  0  0  0
    7.8700   -2.0610   25.3550 C   0  0  0  0  0  0  0  0  0  0  0  0
   14.2523   -1.4968   24.0493 C   0  0  0  0  0  0  0  0  0  0  0  0
   12.5892   -0.6529   22.5134 C   0  0  0  0  0  0  0  0  0  0  0  0
   11.9174   -0.0457   23.5744 C   0  0  0  0  0  0  0  0  0  0  0  0
    9.1280   -1.2090   23.4870 C   0  0  0  0  0  0  0  0  0  0  0  0
    8.3450   -3.3440   25.0980 C   0  0  0  0  0  0  0  0  0  0  0  0
   13.7567   -1.3785   22.7509 C   0  0  0  0  0  0  0  0  0  0  0  0
    5.7970    0.9500   18.6730 C   0  0  0  0  0  0  0  0  0  0  0  0
    7.2710   -0.1460   19.8310 C   0  0  0  0  0  0  0  0  0  0  0  0
    4.6610    1.7170   18.4380 C   0  0  0  0  0  0  0  0  0  0  0  0
    3.8860    2.1050   19.5250 C   0  0  0  0  0  0  0  0  0  0  0  0
    4.2460    1.7520   20.8250 C   0  0  0  0  0  0  0  0  0  0  0  0
    5.3890    1.0010   21.0690 C   0  0  0  0  0  0  0  0  0  0  0  0
    9.0430    0.2380   21.4940 C   0  0  0  0  0  0  0  0  0  0  0  0
    8.5123   -5.6657   25.5745 C   0  0  0  0  0  0  0  0  0  0  0  0
   10.6602    0.7344   23.3196 C   0  0  0  0  0  0  0  0  0  0  0  0
    6.7100    0.3850   17.8100 N   0  0  0  0  0  0  0  0  0  0  0  0
    7.5840   -0.2700   18.5160 N   0  0  0  0  0  0  0  0  0  0  0  0
    6.1460    0.6070   19.9750 N   0  0  0  0  0  0  0  0  0  0  0  0
    8.0950   -0.7700   20.8440 N   0  0  0  0  0  0  0  0  0  0  0  0
    9.5820   -0.1080   22.7000 N   0  0  0  0  0  0  0  0  0  0  0  0
    9.2950    1.3000   20.9480 O   0  0  0  0  0  0  0  0  0  0  0  0
    7.9864   -4.3799   25.8996 O   0  0  0  0  0  0  0  0  0  0  0  0
   14.5853   -2.1288   21.4424 Cl  0  0  0  0  0  0  0  0  0  0  0  0
   13.9660   -0.9816   26.1216 H   0  0  0  0  0  0  0  0  0  0  0  0
   11.8961    0.3057   25.7056 H   0  0  0  0  0  0  0  0  0  0  0  0
   10.2678   -2.6746   22.3862 H   0  0  0  0  0  0  0  0  0  0  0  0
    7.8691   -0.0023   24.7606 H   0  0  0  0  0  0  0  0  0  0  0  0
    9.5404   -4.5633   23.7846 H   0  0  0  0  0  0  0  0  0  0  0  0
    7.1920   -1.8875   26.1914 H   0  0  0  0  0  0  0  0  0  0  0  0
   15.1608   -2.0594   24.2493 H   0  0  0  0  0  0  0  0  0  0  0  0
   12.1990   -0.5573   21.5027 H   0  0  0  0  0  0  0  0  0  0  0  0
    4.3710    2.0145   17.4451 H   0  0  0  0  0  0  0  0  0  0  0  0
    2.9929    2.6891   19.3400 H   0  0  0  0  0  0  0  0  0  0  0  0
    3.6320    2.0596   21.6814 H   0  0  0  0  0  0  0  0  0  0  0  0
    5.6863    0.7288   22.0575 H   0  0  0  0  0  0  0  0  0  0  0  0
    8.1470   -6.4023   26.2943 H   0  0  0  0  0  0  0  0  0  0  0  0
    9.6044   -5.6299   25.5961 H   0  0  0  0  0  0  0  0  0  0  0  0
    8.1786   -5.9430   24.5717 H   0  0  0  0  0  0  0  0  0  0  0  0
   10.2623    1.1418   24.2555 H   0  0  0  0  0  0  0  0  0  0  0  0
   10.8514    1.5808   22.6517 H   0  0  0  0  0  0  0  0  0  0  0  0
    8.0681   -1.6191   21.0706 H   0  0  0  0  0  0  0  0  0  0  0  0
  1  2  2  0  0  0  0
  1  7  1  0  0  0  0
  2  9  1  0  0  0  0
  3  5  2  0  0  0  0
  3 10  1  0  0  0  0
  4  6  1  0  0  0  0
  4 10  2  0  0  0  0
  5 11  1  0  0  0  0
  6 11  2  0  0  0  0
  7 12  2  0  0  0  0
  8  9  2  0  0  0  0
  8 12  1  0  0  0  0
  9 21  1  0  0  0  0
 10 26  1  0  0  0  0
 11 28  1  0  0  0  0
 12 29  1  0  0  0  0
 13 15  1  0  0  0  0
 13 22  2  0  0  0  0
 13 24  1  0  0  0  0
 14 23  2  0  0  0  0
 14 24  1  0  0  0  0
 14 25  1  0  0  0  0
 15 16  2  0  0  0  0
 16 17  1  0  0  0  0
 17 18  2  0  0  0  0
 18 24  1  0  0  0  0
 19 25  1  0  0  0  0
 19 26  1  0  0  0  0
 19 27  2  0  0  0  0
 20 28  1  0  0  0  0
 21 26  1  0  0  0  0
 22 23  1  0  0  0  0
  1 30  1  0  0  0  0
  2 31  1  0  0  0  0
  3 32  1  0  0  0  0
  4 33  1  0  0  0  0
  5 34  1  0  0  0  0
  6 35  1  0  0  0  0
  7 36  1  0  0  0  0
  8 37  1  0  0  0  0
 15 38  1  0  0  0  0
 16 39  1  0  0  0  0
 17 40  1  0  0  0  0
 18 41  1  0  0  0  0
 20 42  1  0  0  0  0
 20 43  1  0  0  0  0
 20 44  1  0  0  0  0
 21 45  1  0  0  0  0
 21 46  1  0  0  0  0
 25 47  1  0  0  0  0
M  END
> <clash_score>
0

> <docking_score>
-7.678128242492676

> <overlap_score>
0.9159299731254578

$$$$
BENZO_161_1
  -OEChem-08232013523D

 57 61  0     0  0  0  0  0  0999 V2000
   14.2457   -1.4860   24.0577 C   0  0  0  0  0  0  0  0  0  0  0  0
   13.9240   -0.3932   24.8625 C   0  0  0  0  0  0  0  0  0  0  0  0
   13.4039   -1.8500   23.0067 C   0  0  0  0  0  0  0  0  0  0  0  0
   12.7605    0.3357   24.6164 C   0  0  0  0  0  0  0  0  0  0  0  0
   12.2404   -1.1211   22.7606 C   0  0  0  0  0  0  0  0  0  0  0  0
    9.1890   -3.5540   24.0140 C   0  0  0  0  0  0  0  0  0  0  0  0
    7.8700   -2.0610   25.3550 C   0  0  0  0  0  0  0  0  0  0  0  0
    9.5890   -2.4950   23.2210 C   0  0  0  0  0  0  0  0  0  0  0  0
    8.2550   -1.0010   24.5520 C   0  0  0  0  0  0  0  0  0  0  0  0
   11.9186   -0.0282   23.5654 C   0  0  0  0  0  0  0  0  0  0  0  0
    8.3450   -3.3440   25.0980 C   0  0  0  0  0  0  0  0  0  0  0  0
    9.1280   -1.2090   23.4870 C   0  0  0  0  0  0  0  0  0  0  0  0
    5.7970    0.9500   18.6730 C   0  0  0  0  0  0  0  0  0  0  0  0
    7.2710   -0.1460   19.8310 C   0  0  0  0  0  0  0  0  0  0  0  0
    4.6610    1.7170   18.4380 C   0  0  0  0  0  0  0  0  0  0  0  0
    3.8860    2.1050   19.5250 C   0  0  0  0  0  0  0  0  0  0  0  0
    4.2460    1.7520   20.8250 C   0  0  0  0  0  0  0  0  0  0  0  0
    5.3890    1.0010   21.0690 C   0  0  0  0  0  0  0  0  0  0  0  0
    7.2752   -5.5548   25.4273 C   0  0  0  0  0  0  0  0  0  0  0  0
    9.0430    0.2380   21.4940 C   0  0  0  0  0  0  0  0  0  0  0  0
    7.1880   -6.7800   26.3209 C   0  0  0  0  0  0  0  0  0  0  0  0
    7.0916   -6.4753   27.7999 C   0  0  0  0  0  0  0  0  0  0  0  0
    8.2362   -5.5641   28.1841 C   0  0  0  0  0  0  0  0  0  0  0  0
    8.1241   -4.2655   27.4032 C   0  0  0  0  0  0  0  0  0  0  0  0
   10.6659    0.7557   23.3001 C   0  0  0  0  0  0  0  0  0  0  0  0
    6.7100    0.3850   17.8100 N   0  0  0  0  0  0  0  0  0  0  0  0
    7.5840   -0.2700   18.5160 N   0  0  0  0  0  0  0  0  0  0  0  0
    6.1460    0.6070   19.9750 N   0  0  0  0  0  0  0  0  0  0  0  0
    7.9635   -4.4452   25.9501 N   0  0  0  0  0  0  0  0  0  0  0  0
    8.0950   -0.7700   20.8440 N   0  0  0  0  0  0  0  0  0  0  0  0
    9.5820   -0.1080   22.7000 N   0  0  0  0  0  0  0  0  0  0  0  0
    6.7947   -5.6299   24.2931 O   0  0  0  0  0  0  0  0  0  0  0  0
    9.2950    1.3000   20.9480 O   0  0  0  0  0  0  0  0  0  0  0  0
   15.1524   -2.0526   24.2486 H   0  0  0  0  0  0  0  0  0  0  0  0
   14.5799   -0.1090   25.6803 H   0  0  0  0  0  0  0  0  0  0  0  0
   13.6546   -2.7001   22.3792 H   0  0  0  0  0  0  0  0  0  0  0  0
   12.5177    1.1856   25.2488 H   0  0  0  0  0  0  0  0  0  0  0  0
   11.5904   -1.4121   21.9396 H   0  0  0  0  0  0  0  0  0  0  0  0
    9.5436   -4.5614   23.7799 H   0  0  0  0  0  0  0  0  0  0  0  0
    7.1918   -1.8823   26.1906 H   0  0  0  0  0  0  0  0  0  0  0  0
   10.2676   -2.6754   22.3861 H   0  0  0  0  0  0  0  0  0  0  0  0
    7.8686   -0.0026   24.7598 H   0  0  0  0  0  0  0  0  0  0  0  0
    4.3710    2.0145   17.4451 H   0  0  0  0  0  0  0  0  0  0  0  0
    2.9929    2.6891   19.3400 H   0  0  0  0  0  0  0  0  0  0  0  0
    3.6320    2.0596   21.6814 H   0  0  0  0  0  0  0  0  0  0  0  0
    5.6863    0.7288   22.0575 H   0  0  0  0  0  0  0  0  0  0  0  0
    6.3101   -7.3613   26.0164 H   0  0  0  0  0  0  0  0  0  0  0  0
    8.0752   -7.3922   26.1183 H   0  0  0  0  0  0  0  0  0  0  0  0
    6.1328   -5.9938   28.0269 H   0  0  0  0  0  0  0  0  0  0  0  0
    7.1363   -7.4051   28.3772 H   0  0  0  0  0  0  0  0  0  0  0  0
    8.2035   -5.3520   29.2586 H   0  0  0  0  0  0  0  0  0  0  0  0
    9.1990   -6.0474   27.9788 H   0  0  0  0  0  0  0  0  0  0  0  0
    7.2505   -3.6996   27.7511 H   0  0  0  0  0  0  0  0  0  0  0  0
    9.0155   -3.6525   27.5824 H   0  0  0  0  0  0  0  0  0  0  0  0
   10.2619    1.1650   24.2325 H   0  0  0  0  0  0  0  0  0  0  0  0
   10.8653    1.6011   22.6333 H   0  0  0  0  0  0  0  0  0  0  0  0
    8.0897   -1.6082   21.0890 H   0  0  0  0  0  0  0  0  0  0  0  0
  1  2  1  0  0  0  0
  1  3  2  0  0  0  0
  2  4  2  0  0  0  0
  3  5  1  0  0  0  0
  4 10  1  0  0  0  0
  5 10  2  0  0  0  0
  6  8  2  0  0  0  0
  6 11  1  0  0  0  0
  7  9  1  0  0  0  0
  7 11  2  0  0  0  0
  8 12  1  0  0  0  0
  9 12  2  0  0  0  0
 10 25  1  0  0  0  0
 11 29  1  0  0  0  0
 12 31  1  0  0  0  0
 13 15  1  0  0  0  0
 13 26  2  0  0  0  0
 13 28  1  0  0  0  0
 14 27  2  0  0  0  0
 14 28  1  0  0  0  0
 14 30  1  0  0  0  0
 15 16  2  0  0  0  0
 16 17  1  0  0  0  0
 17 18  2  0  0  0  0
 18 28  1  0  0  0  0
 19 21  1  0  0  0  0
 19 29  1  0  0  0  0
 19 32  2  0  0  0  0
 20 30  1  0  0  0  0
 20 31  1  0  0  0  0
 20 33  2  0  0  0  0
 21 22  1  0  0  0  0
 22 23  1  0  0  0  0
 23 24  1  0  0  0  0
 24 29  1  0  0  0  0
 25 31  1  0  0  0  0
 26 27  1  0  0  0  0
  1 34  1  0  0  0  0
  2 35  1  0  0  0  0
  3 36  1  0  0  0  0
  4 37  1  0  0  0  0
  5 38  1  0  0  0  0
  6 39  1  0  0  0  0
  7 40  1  0  0  0  0
  8 41  1  0  0  0  0
  9 42  1  0  0  0  0
 15 43  1  0  0  0  0
 16 44  1  0  0  0  0
 17 45  1  0  0  0  0
 18 46  1  0  0  0  0
 21 47  1  0  0  0  0
 21 48  1  0  0  0  0
 22 49  1  0  0  0  0
 22 50  1  0  0  0  0
 23 51  1  0  0  0  0
 23 52  1  0  0  0  0
 24 53  1  0  0  0  0
 24 54  1  0  0  0  0
 25 55  1  0  0  0  0
 25 56  1  0  0  0  0
 30 57  1  0  0  0  0
M  END
> <clash_score>
0

> <docking_score>
-8.195530891418457

> <overlap_score>
0.9864965677261353

$$$$
BENZO_160_1
  -OEChem-08232013523D

 54 58  0     0  0  0  0  0  0999 V2000
    9.1890   -3.5540   24.0140 C   0  0  0  0  0  0  0  0  0  0  0  0
    7.8700   -2.0610   25.3550 C   0  0  0  0  0  0  0  0  0  0  0  0
    9.5890   -2.4950   23.2210 C   0  0  0  0  0  0  0  0  0  0  0  0
    8.2550   -1.0010   24.5520 C   0  0  0  0  0  0  0  0  0  0  0  0
   12.4870   -0.2035   24.8602 C   0  0  0  0  0  0  0  0  0  0  0  0
   13.6349   -0.9642   24.8227 C   0  0  0  0  0  0  0  0  0  0  0  0
   12.6540   -0.6615   22.5876 C   0  0  0  0  0  0  0  0  0  0  0  0
   11.9186   -0.0282   23.5654 C   0  0  0  0  0  0  0  0  0  0  0  0
    8.3450   -3.3440   25.0980 C   0  0  0  0  0  0  0  0  0  0  0  0
    9.1280   -1.2090   23.4870 C   0  0  0  0  0  0  0  0  0  0  0  0
    5.7970    0.9500   18.6730 C   0  0  0  0  0  0  0  0  0  0  0  0
    7.2710   -0.1460   19.8310 C   0  0  0  0  0  0  0  0  0  0  0  0
    4.6610    1.7170   18.4380 C   0  0  0  0  0  0  0  0  0  0  0  0
    3.8860    2.1050   19.5250 C   0  0  0  0  0  0  0  0  0  0  0  0
    4.2460    1.7520   20.8250 C   0  0  0  0  0  0  0  0  0  0  0  0
    5.3890    1.0010   21.0690 C   0  0  0  0  0  0  0  0  0  0  0  0
    7.2752   -5.5548   25.4273 C   0  0  0  0  0  0  0  0  0  0  0  0
    9.0430    0.2380   21.4940 C   0  0  0  0  0  0  0  0  0  0  0  0
    7.1880   -6.7800   26.3209 C   0  0  0  0  0  0  0  0  0  0  0  0
    7.0916   -6.4753   27.7999 C   0  0  0  0  0  0  0  0  0  0  0  0
    8.2362   -5.5641   28.1841 C   0  0  0  0  0  0  0  0  0  0  0  0
    8.1241   -4.2655   27.4032 C   0  0  0  0  0  0  0  0  0  0  0  0
   10.6659    0.7557   23.3001 C   0  0  0  0  0  0  0  0  0  0  0  0
    6.7100    0.3850   17.8100 N   0  0  0  0  0  0  0  0  0  0  0  0
    7.5840   -0.2700   18.5160 N   0  0  0  0  0  0  0  0  0  0  0  0
    6.1460    0.6070   19.9750 N   0  0  0  0  0  0  0  0  0  0  0  0
    7.9635   -4.4452   25.9501 N   0  0  0  0  0  0  0  0  0  0  0  0
    8.0950   -0.7700   20.8440 N   0  0  0  0  0  0  0  0  0  0  0  0
    9.5820   -0.1080   22.7000 N   0  0  0  0  0  0  0  0  0  0  0  0
    6.7947   -5.6299   24.2931 O   0  0  0  0  0  0  0  0  0  0  0  0
    9.2950    1.3000   20.9480 O   0  0  0  0  0  0  0  0  0  0  0  0
   14.0232   -1.4634   23.2314 S   0  0  0  0  0  0  0  0  0  0  0  0
    9.5436   -4.5614   23.7799 H   0  0  0  0  0  0  0  0  0  0  0  0
    7.1918   -1.8823   26.1906 H   0  0  0  0  0  0  0  0  0  0  0  0
   10.2676   -2.6754   22.3861 H   0  0  0  0  0  0  0  0  0  0  0  0
    7.8686   -0.0026   24.7598 H   0  0  0  0  0  0  0  0  0  0  0  0
   12.0782    0.2061   25.7752 H   0  0  0  0  0  0  0  0  0  0  0  0
   14.2645   -1.2500   25.6535 H   0  0  0  0  0  0  0  0  0  0  0  0
   12.4569   -0.6931   21.5249 H   0  0  0  0  0  0  0  0  0  0  0  0
    4.3710    2.0145   17.4451 H   0  0  0  0  0  0  0  0  0  0  0  0
    2.9929    2.6891   19.3400 H   0  0  0  0  0  0  0  0  0  0  0  0
    3.6320    2.0596   21.6814 H   0  0  0  0  0  0  0  0  0  0  0  0
    5.6863    0.7288   22.0575 H   0  0  0  0  0  0  0  0  0  0  0  0
    6.3101   -7.3613   26.0164 H   0  0  0  0  0  0  0  0  0  0  0  0
    8.0752   -7.3922   26.1183 H   0  0  0  0  0  0  0  0  0  0  0  0
    6.1328   -5.9938   28.0269 H   0  0  0  0  0  0  0  0  0  0  0  0
    7.1363   -7.4051   28.3772 H   0  0  0  0  0  0  0  0  0  0  0  0
    8.2035   -5.3520   29.2586 H   0  0  0  0  0  0  0  0  0  0  0  0
    9.1990   -6.0474   27.9788 H   0  0  0  0  0  0  0  0  0  0  0  0
    7.2505   -3.6996   27.7511 H   0  0  0  0  0  0  0  0  0  0  0  0
    9.0155   -3.6525   27.5824 H   0  0  0  0  0  0  0  0  0  0  0  0
   10.2619    1.1650   24.2325 H   0  0  0  0  0  0  0  0  0  0  0  0
   10.8653    1.6011   22.6333 H   0  0  0  0  0  0  0  0  0  0  0  0
    8.0897   -1.6082   21.0890 H   0  0  0  0  0  0  0  0  0  0  0  0
  1  3  2  0  0  0  0
  1  9  1  0  0  0  0
  2  4  1  0  0  0  0
  2  9  2  0  0  0  0
  3 10  1  0  0  0  0
  4 10  2  0  0  0  0
  5  6  2  0  0  0  0
  5  8  1  0  0  0  0
  6 32  1  0  0  0  0
  7  8  2  0  0  0  0
  7 32  1  0  0  0  0
  8 23  1  0  0  0  0
  9 27  1  0  0  0  0
 10 29  1  0  0  0  0
 11 13  1  0  0  0  0
 11 24  2  0  0  0  0
 11 26  1  0  0  0  0
 12 25  2  0  0  0  0
 12 26  1  0  0  0  0
 12 28  1  0  0  0  0
 13 14  2  0  0  0  0
 14 15  1  0  0  0  0
 15 16  2  0  0  0  0
 16 26  1  0  0  0  0
 17 19  1  0  0  0  0
 17 27  1  0  0  0  0
 17 30  2  0  0  0  0
 18 28  1  0  0  0  0
 18 29  1  0  0  0  0
 18 31  2  0  0  0  0
 19 20  1  0  0  0  0
 20 21  1  0  0  0  0
 21 22  1  0  0  0  0
 22 27  1  0  0  0  0
 23 29  1  0  0  0  0
 24 25  1  0  0  0  0
  1 33  1  0  0  0  0
  2 34  1  0  0  0  0
  3 35  1  0  0  0  0
  4 36  1  0  0  0  0
  5 37  1  0  0  0  0
  6 38  1  0  0  0  0
  7 39  1  0  0  0  0
 13 40  1  0  0  0  0
 14 41  1  0  0  0  0
 15 42  1  0  0  0  0
 16 43  1  0  0  0  0
 19 44  1  0  0  0  0
 19 45  1  0  0  0  0
 20 46  1  0  0  0  0
 20 47  1  0  0  0  0
 21 48  1  0  0  0  0
 21 49  1  0  0  0  0
 22 50  1  0  0  0  0
 22 51  1  0  0  0  0
 23 52  1  0  0  0  0
 23 53  1  0  0  0  0
 28 54  1  0  0  0  0
M  END
> <clash_score>
0

> <docking_score>
-8.057759284973145

> <overlap_score>
0.9719064831733704

$$$$
BENZO_165_1
  -OEChem-08232013523D

 56 60  0     0  0  0  0  0  0999 V2000
   14.3362   -1.3623   23.9762 C   0  0  0  0  0  0  0  0  0  0  0  0
   13.9850   -0.2948   24.8023 C   0  0  0  0  0  0  0  0  0  0  0  0
   13.4945   -1.7412   22.9304 C   0  0  0  0  0  0  0  0  0  0  0  0
   12.7920    0.3939   24.5828 C   0  0  0  0  0  0  0  0  0  0  0  0
   12.3016   -1.0525   22.7108 C   0  0  0  0  0  0  0  0  0  0  0  0
    9.1890   -3.5540   24.0140 C   0  0  0  0  0  0  0  0  0  0  0  0
    7.8700   -2.0610   25.3550 C   0  0  0  0  0  0  0  0  0  0  0  0
    9.5890   -2.4950   23.2210 C   0  0  0  0  0  0  0  0  0  0  0  0
    8.2550   -1.0010   24.5520 C   0  0  0  0  0  0  0  0  0  0  0  0
   11.9503    0.0150   23.5369 C   0  0  0  0  0  0  0  0  0  0  0  0
    8.3450   -3.3440   25.0980 C   0  0  0  0  0  0  0  0  0  0  0  0
    9.1280   -1.2090   23.4870 C   0  0  0  0  0  0  0  0  0  0  0  0
    5.7970    0.9500   18.6730 C   0  0  0  0  0  0  0  0  0  0  0  0
    7.2710   -0.1460   19.8310 C   0  0  0  0  0  0  0  0  0  0  0  0
    4.6610    1.7170   18.4380 C   0  0  0  0  0  0  0  0  0  0  0  0
    3.8860    2.1050   19.5250 C   0  0  0  0  0  0  0  0  0  0  0  0
    4.2460    1.7520   20.8250 C   0  0  0  0  0  0  0  0  0  0  0  0
    5.3890    1.0010   21.0690 C   0  0  0  0  0  0  0  0  0  0  0  0
    9.0430    0.2380   21.4940 C   0  0  0  0  0  0  0  0  0  0  0  0
    8.9524   -5.2012   26.6600 C   0  0  0  0  0  0  0  0  0  0  0  0
    6.6112   -4.5068   26.4379 C   0  0  0  0  0  0  0  0  0  0  0  0
    8.9037   -4.7845   28.1261 C   0  0  0  0  0  0  0  0  0  0  0  0
    6.6374   -4.1243   27.9184 C   0  0  0  0  0  0  0  0  0  0  0  0
   10.6659    0.7557   23.3001 C   0  0  0  0  0  0  0  0  0  0  0  0
    6.7100    0.3850   17.8100 N   0  0  0  0  0  0  0  0  0  0  0  0
    7.5840   -0.2700   18.5160 N   0  0  0  0  0  0  0  0  0  0  0  0
    6.1460    0.6070   19.9750 N   0  0  0  0  0  0  0  0  0  0  0  0
    7.9775   -4.4014   25.9151 N   0  0  0  0  0  0  0  0  0  0  0  0
    8.0950   -0.7700   20.8440 N   0  0  0  0  0  0  0  0  0  0  0  0
    9.5820   -0.1080   22.7000 N   0  0  0  0  0  0  0  0  0  0  0  0
    9.2950    1.3000   20.9480 O   0  0  0  0  0  0  0  0  0  0  0  0
    7.5729   -4.9391   28.6338 O   0  0  0  0  0  0  0  0  0  0  0  0
   15.2658   -1.8976   24.1465 H   0  0  0  0  0  0  0  0  0  0  0  0
   14.6407    0.0011   25.6160 H   0  0  0  0  0  0  0  0  0  0  0  0
   13.7682   -2.5716   22.2863 H   0  0  0  0  0  0  0  0  0  0  0  0
   12.5263    1.2243   25.2316 H   0  0  0  0  0  0  0  0  0  0  0  0
   11.6519   -1.3548   21.8936 H   0  0  0  0  0  0  0  0  0  0  0  0
    9.5426   -4.5618   23.7797 H   0  0  0  0  0  0  0  0  0  0  0  0
    7.1914   -1.8824   26.1903 H   0  0  0  0  0  0  0  0  0  0  0  0
   10.2669   -2.6745   22.3854 H   0  0  0  0  0  0  0  0  0  0  0  0
    7.8690   -0.0020   24.7587 H   0  0  0  0  0  0  0  0  0  0  0  0
    4.3710    2.0145   17.4451 H   0  0  0  0  0  0  0  0  0  0  0  0
    2.9929    2.6891   19.3400 H   0  0  0  0  0  0  0  0  0  0  0  0
    3.6320    2.0596   21.6814 H   0  0  0  0  0  0  0  0  0  0  0  0
    5.6863    0.7288   22.0575 H   0  0  0  0  0  0  0  0  0  0  0  0
    9.9615   -5.0500   26.2711 H   0  0  0  0  0  0  0  0  0  0  0  0
    8.6935   -6.2597   26.5720 H   0  0  0  0  0  0  0  0  0  0  0  0
    6.2628   -5.5350   26.3330 H   0  0  0  0  0  0  0  0  0  0  0  0
    5.9347   -3.8423   25.9023 H   0  0  0  0  0  0  0  0  0  0  0  0
    9.5597   -5.4275   28.7166 H   0  0  0  0  0  0  0  0  0  0  0  0
    9.2344   -3.7511   28.2636 H   0  0  0  0  0  0  0  0  0  0  0  0
    6.8874   -3.0657   28.0553 H   0  0  0  0  0  0  0  0  0  0  0  0
    5.6495   -4.2893   28.3591 H   0  0  0  0  0  0  0  0  0  0  0  0
   10.2856    1.1782   24.2366 H   0  0  0  0  0  0  0  0  0  0  0  0
   10.8149    1.5883   22.6046 H   0  0  0  0  0  0  0  0  0  0  0  0
    8.0897   -1.6082   21.0890 H   0  0  0  0  0  0  0  0  0  0  0  0
  1  2  1  0  0  0  0
  1  3  2  0  0  0  0
  2  4  2  0  0  0  0
  3  5  1  0  0  0  0
  4 10  1  0  0  0  0
  5 10  2  0  0  0  0
  6  8  2  0  0  0  0
  6 11  1  0  0  0  0
  7  9  1  0  0  0  0
  7 11  2  0  0  0  0
  8 12  1  0  0  0  0
  9 12  2  0  0  0  0
 10 24  1  0  0  0  0
 11 28  1  0  0  0  0
 12 30  1  0  0  0  0
 13 15  1  0  0  0  0
 13 25  2  0  0  0  0
 13 27  1  0  0  0  0
 14 26  2  0  0  0  0
 14 27  1  0  0  0  0
 14 29  1  0  0  0  0
 15 16  2  0  0  0  0
 16 17  1  0  0  0  0
 17 18  2  0  0  0  0
 18 27  1  0  0  0  0
 19 29  1  0  0  0  0
 19 30  1  0  0  0  0
 19 31  2  0  0  0  0
 20 22  1  0  0  0  0
 20 28  1  0  0  0  0
 21 23  1  0  0  0  0
 21 28  1  0  0  0  0
 22 32  1  0  0  0  0
 23 32  1  0  0  0  0
 24 30  1  0  0  0  0
 25 26  1  0  0  0  0
  1 33  1  0  0  0  0
  2 34  1  0  0  0  0
  3 35  1  0  0  0  0
  4 36  1  0  0  0  0
  5 37  1  0  0  0  0
  6 38  1  0  0  0  0
  7 39  1  0  0  0  0
  8 40  1  0  0  0  0
  9 41  1  0  0  0  0
 15 42  1  0  0  0  0
 16 43  1  0  0  0  0
 17 44  1  0  0  0  0
 18 45  1  0  0  0  0
 20 46  1  0  0  0  0
 20 47  1  0  0  0  0
 21 48  1  0  0  0  0
 21 49  1  0  0  0  0
 22 50  1  0  0  0  0
 22 51  1  0  0  0  0
 23 52  1  0  0  0  0
 23 53  1  0  0  0  0
 24 54  1  0  0  0  0
 24 55  1  0  0  0  0
 29 56  1  0  0  0  0
M  END
> <clash_score>
0

> <docking_score>
-9.336052894592285

> <overlap_score>
0.9859910011291504

$$$$
BENZO_163_1
  -OEChem-08232013523D

 57 61  0     0  0  0  0  0  0999 V2000
    9.1890   -3.5540   24.0140 C   0  0  0  0  0  0  0  0  0  0  0  0
    7.8700   -2.0610   25.3550 C   0  0  0  0  0  0  0  0  0  0  0  0
    9.5890   -2.4950   23.2210 C   0  0  0  0  0  0  0  0  0  0  0  0
    8.2550   -1.0010   24.5520 C   0  0  0  0  0  0  0  0  0  0  0  0
   13.2149    0.4727   23.8027 C   0  0  0  0  0  0  0  0  0  0  0  0
   12.3871   -0.8676   22.2687 C   0  0  0  0  0  0  0  0  0  0  0  0
   12.0256    0.1433   23.1253 C   0  0  0  0  0  0  0  0  0  0  0  0
    8.3450   -3.3440   25.0980 C   0  0  0  0  0  0  0  0  0  0  0  0
    9.1280   -1.2090   23.4870 C   0  0  0  0  0  0  0  0  0  0  0  0
    5.7970    0.9500   18.6730 C   0  0  0  0  0  0  0  0  0  0  0  0
    7.2710   -0.1460   19.8310 C   0  0  0  0  0  0  0  0  0  0  0  0
    4.6610    1.7170   18.4380 C   0  0  0  0  0  0  0  0  0  0  0  0
    3.8860    2.1050   19.5250 C   0  0  0  0  0  0  0  0  0  0  0  0
    4.2460    1.7520   20.8250 C   0  0  0  0  0  0  0  0  0  0  0  0
    5.3890    1.0010   21.0690 C   0  0  0  0  0  0  0  0  0  0  0  0
    8.7161   -4.7975   27.0830 C   0  0  0  0  0  0  0  0  0  0  0  0
    9.0430    0.2380   21.4940 C   0  0  0  0  0  0  0  0  0  0  0  0
    8.1364   -5.9760   27.8449 C   0  0  0  0  0  0  0  0  0  0  0  0
    6.6423   -5.8008   28.0518 C   0  0  0  0  0  0  0  0  0  0  0  0
    5.9022   -5.5526   26.7413 C   0  0  0  0  0  0  0  0  0  0  0  0
    6.8397   -5.2970   25.5620 C   0  0  0  0  0  0  0  0  0  0  0  0
   14.5506   -2.0433   21.8042 C   0  0  0  0  0  0  0  0  0  0  0  0
   10.6659    0.7557   23.3001 C   0  0  0  0  0  0  0  0  0  0  0  0
   14.2541   -0.2689   23.4103 N   0  0  0  0  0  0  0  0  0  0  0  0
    6.7100    0.3850   17.8100 N   0  0  0  0  0  0  0  0  0  0  0  0
    7.5840   -0.2700   18.5160 N   0  0  0  0  0  0  0  0  0  0  0  0
   13.7189   -1.0744   22.4771 N   0  0  0  0  0  0  0  0  0  0  0  0
    6.1460    0.6070   19.9750 N   0  0  0  0  0  0  0  0  0  0  0  0
    7.9658   -4.4385   25.9449 N   0  0  0  0  0  0  0  0  0  0  0  0
    8.0950   -0.7700   20.8440 N   0  0  0  0  0  0  0  0  0  0  0  0
    9.5820   -0.1080   22.7000 N   0  0  0  0  0  0  0  0  0  0  0  0
    9.7829   -4.3044   27.4475 O   0  0  0  0  0  0  0  0  0  0  0  0
    9.2950    1.3000   20.9480 O   0  0  0  0  0  0  0  0  0  0  0  0
    9.5436   -4.5614   23.7799 H   0  0  0  0  0  0  0  0  0  0  0  0
    7.1918   -1.8823   26.1906 H   0  0  0  0  0  0  0  0  0  0  0  0
   10.2676   -2.6754   22.3861 H   0  0  0  0  0  0  0  0  0  0  0  0
    7.8686   -0.0026   24.7598 H   0  0  0  0  0  0  0  0  0  0  0  0
   13.3699    1.2212   24.5669 H   0  0  0  0  0  0  0  0  0  0  0  0
   11.8237   -1.4439   21.5473 H   0  0  0  0  0  0  0  0  0  0  0  0
    4.3710    2.0145   17.4451 H   0  0  0  0  0  0  0  0  0  0  0  0
    2.9929    2.6891   19.3400 H   0  0  0  0  0  0  0  0  0  0  0  0
    3.6320    2.0596   21.6814 H   0  0  0  0  0  0  0  0  0  0  0  0
    5.6863    0.7288   22.0575 H   0  0  0  0  0  0  0  0  0  0  0  0
    8.3160   -6.8753   27.2760 H   0  0  0  0  0  0  0  0  0  0  0  0
    8.6443   -6.0335   28.7960 H   0  0  0  0  0  0  0  0  0  0  0  0
    6.2215   -6.6983   28.5513 H   0  0  0  0  0  0  0  0  0  0  0  0
    6.4589   -4.9587   28.7491 H   0  0  0  0  0  0  0  0  0  0  0  0
    5.2548   -6.4248   26.5112 H   0  0  0  0  0  0  0  0  0  0  0  0
    5.2035   -4.6957   26.8575 H   0  0  0  0  0  0  0  0  0  0  0  0
    7.2534   -6.2390   25.2146 H   0  0  0  0  0  0  0  0  0  0  0  0
    6.2879   -4.8231   24.7574 H   0  0  0  0  0  0  0  0  0  0  0  0
   14.9688   -1.5678   20.9131 H   0  0  0  0  0  0  0  0  0  0  0  0
   15.3505   -2.3660   22.4765 H   0  0  0  0  0  0  0  0  0  0  0  0
   13.9440   -2.9100   21.5274 H   0  0  0  0  0  0  0  0  0  0  0  0
   10.4266    0.8674   24.3633 H   0  0  0  0  0  0  0  0  0  0  0  0
   10.6236    1.7534   22.8507 H   0  0  0  0  0  0  0  0  0  0  0  0
    8.0897   -1.6082   21.0890 H   0  0  0  0  0  0  0  0  0  0  0  0
  1  3  2  0  0  0  0
  1  8  1  0  0  0  0
  2  4  1  0  0  0  0
  2  8  2  0  0  0  0
  3  9  1  0  0  0  0
  4  9  2  0  0  0  0
  5  7  1  0  0  0  0
  5 24  2  0  0  0  0
  6  7  2  0  0  0  0
  6 27  1  0  0  0  0
  7 23  1  0  0  0  0
  8 29  1  0  0  0  0
  9 31  1  0  0  0  0
 10 12  1  0  0  0  0
 10 25  2  0  0  0  0
 10 28  1  0  0  0  0
 11 26  2  0  0  0  0
 11 28  1  0  0  0  0
 11 30  1  0  0  0  0
 12 13  2  0  0  0  0
 13 14  1  0  0  0  0
 14 15  2  0  0  0  0
 15 28  1  0  0  0  0
 16 18  1  0  0  0  0
 16 29  1  0  0  0  0
 16 32  2  0  0  0  0
 17 30  1  0  0  0  0
 17 31  1  0  0  0  0
 17 33  2  0  0  0  0
 18 19  1  0  0  0  0
 19 20  1  0  0  0  0
 20 21  1  0  0  0  0
 21 29  1  0  0  0  0
 22 27  1  0  0  0  0
 23 31  1  0  0  0  0
 24 27  1  0  0  0  0
 25 26  1  0  0  0  0
  1 34  1  0  0  0  0
  2 35  1  0  0  0  0
  3 36  1  0  0  0  0
  4 37  1  0  0  0  0
  5 38  1  0  0  0  0
  6 39  1  0  0  0  0
 12 40  1  0  0  0  0
 13 41  1  0  0  0  0
 14 42  1  0  0  0  0
 15 43  1  0  0  0  0
 18 44  1  0  0  0  0
 18 45  1  0  0  0  0
 19 46  1  0  0  0  0
 19 47  1  0  0  0  0
 20 48  1  0  0  0  0
 20 49  1  0  0  0  0
 21 50  1  0  0  0  0
 21 51  1  0  0  0  0
 22 52  1  0  0  0  0
 22 53  1  0  0  0  0
 22 54  1  0  0  0  0
 23 55  1  0  0  0  0
 23 56  1  0  0  0  0
 30 57  1  0  0  0  0
M  END
> <clash_score>
0

> <docking_score>
-8.479589462280273

> <overlap_score>
0.9955516457557678

$$$$
BENZO_162_1
  -OEChem-08232013523D

 57 61  0     0  0  0  0  0  0999 V2000
   13.5665   -0.8764   25.1153 C   0  0  0  0  0  0  0  0  0  0  0  0
   12.4034   -0.1473   24.8679 C   0  0  0  0  0  0  0  0  0  0  0  0
    9.1890   -3.5540   24.0140 C   0  0  0  0  0  0  0  0  0  0  0  0
    7.8700   -2.0610   25.3550 C   0  0  0  0  0  0  0  0  0  0  0  0
    9.5890   -2.4950   23.2210 C   0  0  0  0  0  0  0  0  0  0  0  0
    8.2550   -1.0010   24.5520 C   0  0  0  0  0  0  0  0  0  0  0  0
   14.2449   -1.4864   24.0601 C   0  0  0  0  0  0  0  0  0  0  0  0
   12.5970   -0.6383   22.5103 C   0  0  0  0  0  0  0  0  0  0  0  0
   11.9186   -0.0282   23.5654 C   0  0  0  0  0  0  0  0  0  0  0  0
    8.3450   -3.3440   25.0980 C   0  0  0  0  0  0  0  0  0  0  0  0
    9.1280   -1.2090   23.4870 C   0  0  0  0  0  0  0  0  0  0  0  0
   13.7601   -1.3674   22.7576 C   0  0  0  0  0  0  0  0  0  0  0  0
    5.7970    0.9500   18.6730 C   0  0  0  0  0  0  0  0  0  0  0  0
    7.2710   -0.1460   19.8310 C   0  0  0  0  0  0  0  0  0  0  0  0
    4.6610    1.7170   18.4380 C   0  0  0  0  0  0  0  0  0  0  0  0
    3.8860    2.1050   19.5250 C   0  0  0  0  0  0  0  0  0  0  0  0
    4.2460    1.7520   20.8250 C   0  0  0  0  0  0  0  0  0  0  0  0
    5.3890    1.0010   21.0690 C   0  0  0  0  0  0  0  0  0  0  0  0
    7.2757   -5.5631   25.4492 C   0  0  0  0  0  0  0  0  0  0  0  0
    9.0430    0.2380   21.4940 C   0  0  0  0  0  0  0  0  0  0  0  0
    6.9626   -6.6001   26.5133 C   0  0  0  0  0  0  0  0  0  0  0  0
    6.3764   -5.9422   27.7501 C   0  0  0  0  0  0  0  0  0  0  0  0
    7.2660   -4.8258   28.2881 C   0  0  0  0  0  0  0  0  0  0  0  0
    8.4098   -4.4623   27.3426 C   0  0  0  0  0  0  0  0  0  0  0  0
   10.6659    0.7557   23.3001 C   0  0  0  0  0  0  0  0  0  0  0  0
    6.7100    0.3850   17.8100 N   0  0  0  0  0  0  0  0  0  0  0  0
    7.5840   -0.2700   18.5160 N   0  0  0  0  0  0  0  0  0  0  0  0
    6.1460    0.6070   19.9750 N   0  0  0  0  0  0  0  0  0  0  0  0
    7.9658   -4.4384   25.9449 N   0  0  0  0  0  0  0  0  0  0  0  0
    8.0950   -0.7700   20.8440 N   0  0  0  0  0  0  0  0  0  0  0  0
    9.5820   -0.1080   22.7000 N   0  0  0  0  0  0  0  0  0  0  0  0
    6.9858   -5.7908   24.2753 O   0  0  0  0  0  0  0  0  0  0  0  0
    9.2950    1.3000   20.9480 O   0  0  0  0  0  0  0  0  0  0  0  0
   14.5969   -2.1212   21.4563 Cl  0  0  0  0  0  0  0  0  0  0  0  0
   13.9436   -0.9690   26.1297 H   0  0  0  0  0  0  0  0  0  0  0  0
   11.8813    0.3246   25.6962 H   0  0  0  0  0  0  0  0  0  0  0  0
    9.5436   -4.5614   23.7799 H   0  0  0  0  0  0  0  0  0  0  0  0
    7.1918   -1.8823   26.1906 H   0  0  0  0  0  0  0  0  0  0  0  0
   10.2676   -2.6754   22.3861 H   0  0  0  0  0  0  0  0  0  0  0  0
    7.8686   -0.0026   24.7598 H   0  0  0  0  0  0  0  0  0  0  0  0
   15.1500   -2.0519   24.2677 H   0  0  0  0  0  0  0  0  0  0  0  0
   12.2152   -0.5421   21.4965 H   0  0  0  0  0  0  0  0  0  0  0  0
    4.3710    2.0145   17.4451 H   0  0  0  0  0  0  0  0  0  0  0  0
    2.9929    2.6891   19.3400 H   0  0  0  0  0  0  0  0  0  0  0  0
    3.6320    2.0596   21.6814 H   0  0  0  0  0  0  0  0  0  0  0  0
    5.6863    0.7288   22.0575 H   0  0  0  0  0  0  0  0  0  0  0  0
    6.2500   -7.3027   26.1097 H   0  0  0  0  0  0  0  0  0  0  0  0
    7.8838   -7.1078   26.7574 H   0  0  0  0  0  0  0  0  0  0  0  0
    5.3690   -5.5363   27.5214 H   0  0  0  0  0  0  0  0  0  0  0  0
    6.2178   -6.7054   28.5384 H   0  0  0  0  0  0  0  0  0  0  0  0
    6.6498   -3.9225   28.4807 H   0  0  0  0  0  0  0  0  0  0  0  0
    7.6764   -5.1138   29.2803 H   0  0  0  0  0  0  0  0  0  0  0  0
    8.7796   -3.4700   27.5826 H   0  0  0  0  0  0  0  0  0  0  0  0
    9.2112   -5.1853   27.4497 H   0  0  0  0  0  0  0  0  0  0  0  0
   10.2619    1.1650   24.2325 H   0  0  0  0  0  0  0  0  0  0  0  0
   10.8653    1.6011   22.6333 H   0  0  0  0  0  0  0  0  0  0  0  0
    8.0897   -1.6082   21.0890 H   0  0  0  0  0  0  0  0  0  0  0  0
  1  2  2  0  0  0  0
  1  7  1  0  0  0  0
  2  9  1  0  0  0  0
  3  5  2  0  0  0  0
  3 10  1  0  0  0  0
  4  6  1  0  0  0  0
  4 10  2  0  0  0  0
  5 11  1  0  0  0  0
  6 11  2  0  0  0  0
  7 12  2  0  0  0  0
  8  9  2  0  0  0  0
  8 12  1  0  0  0  0
  9 25  1  0  0  0  0
 10 29  1  0  0  0  0
 11 31  1  0  0  0  0
 12 34  1  0  0  0  0
 13 15  1  0  0  0  0
 13 26  2  0  0  0  0
 13 28  1  0  0  0  0
 14 27  2  0  0  0  0
 14 28  1  0  0  0  0
 14 30  1  0  0  0  0
 15 16  2  0  0  0  0
 16 17  1  0  0  0  0
 17 18  2  0  0  0  0
 18 28  1  0  0  0  0
 19 21  1  0  0  0  0
 19 29  1  0  0  0  0
 19 32  2  0  0  0  0
 20 30  1  0  0  0  0
 20 31  1  0  0  0  0
 20 33  2  0  0  0  0
 21 22  1  0  0  0  0
 22 23  1  0  0  0  0
 23 24  1  0  0  0  0
 24 29  1  0  0  0  0
 25 31  1  0  0  0  0
 26 27  1  0  0  0  0
  1 35  1  0  0  0  0
  2 36  1  0  0  0  0
  3 37  1  0  0  0  0
  4 38  1  0  0  0  0
  5 39  1  0  0  0  0
  6 40  1  0  0  0  0
  7 41  1  0  0  0  0
  8 42  1  0  0  0  0
 15 43  1  0  0  0  0
 16 44  1  0  0  0  0
 17 45  1  0  0  0  0
 18 46  1  0  0  0  0
 21 47  1  0  0  0  0
 21 48  1  0  0  0  0
 22 49  1  0  0  0  0
 22 50  1  0  0  0  0
 23 51  1  0  0  0  0
 23 52  1  0  0  0  0
 24 53  1  0  0  0  0
 24 54  1  0  0  0  0
 25 55  1  0  0  0  0
 25 56  1  0  0  0  0
 30 57  1  0  0  0  0
M  END
> <clash_score>
0

> <docking_score>
-7.54398250579834

> <overlap_score>
0.9910287857055664

$$$$
BENZO_164_1
  -OEChem-08232013523D

 53 57  0     0  0  0  0  0  0999 V2000
    9.1890   -3.5540   24.0140 C   0  0  0  0  0  0  0  0  0  0  0  0
    7.8700   -2.0610   25.3550 C   0  0  0  0  0  0  0  0  0  0  0  0
    9.5890   -2.4950   23.2210 C   0  0  0  0  0  0  0  0  0  0  0  0
    8.2550   -1.0010   24.5520 C   0  0  0  0  0  0  0  0  0  0  0  0
   12.5722   -0.1093   24.8128 C   0  0  0  0  0  0  0  0  0  0  0  0
   13.7397   -0.8377   24.7507 C   0  0  0  0  0  0  0  0  0  0  0  0
   12.6664   -0.6230   22.5480 C   0  0  0  0  0  0  0  0  0  0  0  0
   11.9503    0.0150   23.5369 C   0  0  0  0  0  0  0  0  0  0  0  0
    8.3450   -3.3440   25.0980 C   0  0  0  0  0  0  0  0  0  0  0  0
    9.1280   -1.2090   23.4870 C   0  0  0  0  0  0  0  0  0  0  0  0
    5.7970    0.9500   18.6730 C   0  0  0  0  0  0  0  0  0  0  0  0
    7.2710   -0.1460   19.8310 C   0  0  0  0  0  0  0  0  0  0  0  0
    4.6610    1.7170   18.4380 C   0  0  0  0  0  0  0  0  0  0  0  0
    3.8860    2.1050   19.5250 C   0  0  0  0  0  0  0  0  0  0  0  0
    4.2460    1.7520   20.8250 C   0  0  0  0  0  0  0  0  0  0  0  0
    5.3890    1.0010   21.0690 C   0  0  0  0  0  0  0  0  0  0  0  0
    9.0430    0.2380   21.4940 C   0  0  0  0  0  0  0  0  0  0  0  0
    8.9524   -5.2012   26.6600 C   0  0  0  0  0  0  0  0  0  0  0  0
    6.6112   -4.5068   26.4379 C   0  0  0  0  0  0  0  0  0  0  0  0
    8.9037   -4.7845   28.1261 C   0  0  0  0  0  0  0  0  0  0  0  0
    6.6374   -4.1243   27.9184 C   0  0  0  0  0  0  0  0  0  0  0  0
   10.6659    0.7557   23.3001 C   0  0  0  0  0  0  0  0  0  0  0  0
    6.7100    0.3850   17.8100 N   0  0  0  0  0  0  0  0  0  0  0  0
    7.5840   -0.2700   18.5160 N   0  0  0  0  0  0  0  0  0  0  0  0
    6.1460    0.6070   19.9750 N   0  0  0  0  0  0  0  0  0  0  0  0
    7.9775   -4.4014   25.9151 N   0  0  0  0  0  0  0  0  0  0  0  0
    8.0950   -0.7700   20.8440 N   0  0  0  0  0  0  0  0  0  0  0  0
    9.5820   -0.1080   22.7000 N   0  0  0  0  0  0  0  0  0  0  0  0
    9.2950    1.3000   20.9480 O   0  0  0  0  0  0  0  0  0  0  0  0
    7.5729   -4.9391   28.6338 O   0  0  0  0  0  0  0  0  0  0  0  0
   14.0820   -1.3681   23.1589 S   0  0  0  0  0  0  0  0  0  0  0  0
    9.5426   -4.5618   23.7797 H   0  0  0  0  0  0  0  0  0  0  0  0
    7.1914   -1.8824   26.1903 H   0  0  0  0  0  0  0  0  0  0  0  0
   10.2669   -2.6745   22.3854 H   0  0  0  0  0  0  0  0  0  0  0  0
    7.8690   -0.0020   24.7587 H   0  0  0  0  0  0  0  0  0  0  0  0
   12.1864    0.3129   25.7322 H   0  0  0  0  0  0  0  0  0  0  0  0
   14.4083   -1.0833   25.5636 H   0  0  0  0  0  0  0  0  0  0  0  0
   12.4303   -0.6887   21.4949 H   0  0  0  0  0  0  0  0  0  0  0  0
    4.3710    2.0145   17.4451 H   0  0  0  0  0  0  0  0  0  0  0  0
    2.9929    2.6891   19.3400 H   0  0  0  0  0  0  0  0  0  0  0  0
    3.6320    2.0596   21.6814 H   0  0  0  0  0  0  0  0  0  0  0  0
    5.6863    0.7288   22.0575 H   0  0  0  0  0  0  0  0  0  0  0  0
    9.9615   -5.0500   26.2711 H   0  0  0  0  0  0  0  0  0  0  0  0
    8.6935   -6.2597   26.5720 H   0  0  0  0  0  0  0  0  0  0  0  0
    6.2628   -5.5350   26.3330 H   0  0  0  0  0  0  0  0  0  0  0  0
    5.9347   -3.8423   25.9023 H   0  0  0  0  0  0  0  0  0  0  0  0
    9.5597   -5.4275   28.7166 H   0  0  0  0  0  0  0  0  0  0  0  0
    9.2344   -3.7511   28.2636 H   0  0  0  0  0  0  0  0  0  0  0  0
    6.8874   -3.0657   28.0553 H   0  0  0  0  0  0  0  0  0  0  0  0
    5.6495   -4.2893   28.3591 H   0  0  0  0  0  0  0  0  0  0  0  0
   10.2856    1.1782   24.2366 H   0  0  0  0  0  0  0  0  0  0  0  0
   10.8149    1.5883   22.6046 H   0  0  0  0  0  0  0  0  0  0  0  0
    8.0897   -1.6082   21.0890 H   0  0  0  0  0  0  0  0  0  0  0  0
  1  3  2  0  0  0  0
  1  9  1  0  0  0  0
  2  4  1  0  0  0  0
  2  9  2  0  0  0  0
  3 10  1  0  0  0  0
  4 10  2  0  0  0  0
  5  6  2  0  0  0  0
  5  8  1  0  0  0  0
  6 31  1  0  0  0  0
  7  8  2  0  0  0  0
  7 31  1  0  0  0  0
  8 22  1  0  0  0  0
  9 26  1  0  0  0  0
 10 28  1  0  0  0  0
 11 13  1  0  0  0  0
 11 23  2  0  0  0  0
 11 25  1  0  0  0  0
 12 24  2  0  0  0  0
 12 25  1  0  0  0  0
 12 27  1  0  0  0  0
 13 14  2  0  0  0  0
 14 15  1  0  0  0  0
 15 16  2  0  0  0  0
 16 25  1  0  0  0  0
 17 27  1  0  0  0  0
 17 28  1  0  0  0  0
 17 29  2  0  0  0  0
 18 20  1  0  0  0  0
 18 26  1  0  0  0  0
 19 21  1  0  0  0  0
 19 26  1  0  0  0  0
 20 30  1  0  0  0  0
 21 30  1  0  0  0  0
 22 28  1  0  0  0  0
 23 24  1  0  0  0  0
  1 32  1  0  0  0  0
  2 33  1  0  0  0  0
  3 34  1  0  0  0  0
  4 35  1  0  0  0  0
  5 36  1  0  0  0  0
  6 37  1  0  0  0  0
  7 38  1  0  0  0  0
 13 39  1  0  0  0  0
 14 40  1  0  0  0  0
 15 41  1  0  0  0  0
 16 42  1  0  0  0  0
 18 43  1  0  0  0  0
 18 44  1  0  0  0  0
 19 45  1  0  0  0  0
 19 46  1  0  0  0  0
 20 47  1  0  0  0  0
 20 48  1  0  0  0  0
 21 49  1  0  0  0  0
 21 50  1  0  0  0  0
 22 51  1  0  0  0  0
 22 52  1  0  0  0  0
 27 53  1  0  0  0  0
M  END
> <clash_score>
0

> <docking_score>
-9.213005065917969

> <overlap_score>
0.9701467156410217

$$$$
BENZO_166_1
  -OEChem-08232013523D

 56 60  0     0  0  0  0  0  0999 V2000
   13.6798   -0.7442   25.0433 C   0  0  0  0  0  0  0  0  0  0  0  0
   12.4873   -0.0553   24.8224 C   0  0  0  0  0  0  0  0  0  0  0  0
    9.1890   -3.5540   24.0140 C   0  0  0  0  0  0  0  0  0  0  0  0
    7.8700   -2.0610   25.3550 C   0  0  0  0  0  0  0  0  0  0  0  0
    9.5890   -2.4950   23.2210 C   0  0  0  0  0  0  0  0  0  0  0  0
    8.2550   -1.0010   24.5520 C   0  0  0  0  0  0  0  0  0  0  0  0
   14.3355   -1.3627   23.9787 C   0  0  0  0  0  0  0  0  0  0  0  0
   12.6059   -0.6035   22.4724 C   0  0  0  0  0  0  0  0  0  0  0  0
   11.9503    0.0150   23.5369 C   0  0  0  0  0  0  0  0  0  0  0  0
    8.3450   -3.3440   25.0980 C   0  0  0  0  0  0  0  0  0  0  0  0
    9.1280   -1.2090   23.4870 C   0  0  0  0  0  0  0  0  0  0  0  0
   13.7985   -1.2924   22.6933 C   0  0  0  0  0  0  0  0  0  0  0  0
    5.7970    0.9500   18.6730 C   0  0  0  0  0  0  0  0  0  0  0  0
    7.2710   -0.1460   19.8310 C   0  0  0  0  0  0  0  0  0  0  0  0
    4.6610    1.7170   18.4380 C   0  0  0  0  0  0  0  0  0  0  0  0
    3.8860    2.1050   19.5250 C   0  0  0  0  0  0  0  0  0  0  0  0
    4.2460    1.7520   20.8250 C   0  0  0  0  0  0  0  0  0  0  0  0
    5.3890    1.0010   21.0690 C   0  0  0  0  0  0  0  0  0  0  0  0
    9.0430    0.2380   21.4940 C   0  0  0  0  0  0  0  0  0  0  0  0
    8.9524   -5.2012   26.6600 C   0  0  0  0  0  0  0  0  0  0  0  0
    6.6112   -4.5068   26.4379 C   0  0  0  0  0  0  0  0  0  0  0  0
    8.9037   -4.7845   28.1261 C   0  0  0  0  0  0  0  0  0  0  0  0
    6.6374   -4.1243   27.9184 C   0  0  0  0  0  0  0  0  0  0  0  0
   10.6659    0.7557   23.3001 C   0  0  0  0  0  0  0  0  0  0  0  0
    6.7100    0.3850   17.8100 N   0  0  0  0  0  0  0  0  0  0  0  0
    7.5840   -0.2700   18.5160 N   0  0  0  0  0  0  0  0  0  0  0  0
    6.1460    0.6070   19.9750 N   0  0  0  0  0  0  0  0  0  0  0  0
    7.9775   -4.4014   25.9151 N   0  0  0  0  0  0  0  0  0  0  0  0
    8.0950   -0.7700   20.8440 N   0  0  0  0  0  0  0  0  0  0  0  0
    9.5820   -0.1080   22.7000 N   0  0  0  0  0  0  0  0  0  0  0  0
    9.2950    1.3000   20.9480 O   0  0  0  0  0  0  0  0  0  0  0  0
    7.5729   -4.9391   28.6338 O   0  0  0  0  0  0  0  0  0  0  0  0
   14.6072   -2.0568   21.3804 Cl  0  0  0  0  0  0  0  0  0  0  0  0
   14.0976   -0.7988   26.0444 H   0  0  0  0  0  0  0  0  0  0  0  0
   11.9832    0.4236   25.6578 H   0  0  0  0  0  0  0  0  0  0  0  0
    9.5426   -4.5618   23.7797 H   0  0  0  0  0  0  0  0  0  0  0  0
    7.1914   -1.8824   26.1903 H   0  0  0  0  0  0  0  0  0  0  0  0
   10.2669   -2.6745   22.3854 H   0  0  0  0  0  0  0  0  0  0  0  0
    7.8690   -0.0020   24.7587 H   0  0  0  0  0  0  0  0  0  0  0  0
   15.2640   -1.8964   24.1657 H   0  0  0  0  0  0  0  0  0  0  0  0
   12.1833   -0.5454   21.4719 H   0  0  0  0  0  0  0  0  0  0  0  0
    4.3710    2.0145   17.4451 H   0  0  0  0  0  0  0  0  0  0  0  0
    2.9929    2.6891   19.3400 H   0  0  0  0  0  0  0  0  0  0  0  0
    3.6320    2.0596   21.6814 H   0  0  0  0  0  0  0  0  0  0  0  0
    5.6863    0.7288   22.0575 H   0  0  0  0  0  0  0  0  0  0  0  0
    9.9615   -5.0500   26.2711 H   0  0  0  0  0  0  0  0  0  0  0  0
    8.6935   -6.2597   26.5720 H   0  0  0  0  0  0  0  0  0  0  0  0
    6.2628   -5.5350   26.3330 H   0  0  0  0  0  0  0  0  0  0  0  0
    5.9347   -3.8423   25.9023 H   0  0  0  0  0  0  0  0  0  0  0  0
    9.5597   -5.4275   28.7166 H   0  0  0  0  0  0  0  0  0  0  0  0
    9.2344   -3.7511   28.2636 H   0  0  0  0  0  0  0  0  0  0  0  0
    6.8874   -3.0657   28.0553 H   0  0  0  0  0  0  0  0  0  0  0  0
    5.6495   -4.2893   28.3591 H   0  0  0  0  0  0  0  0  0  0  0  0
   10.2856    1.1782   24.2366 H   0  0  0  0  0  0  0  0  0  0  0  0
   10.8149    1.5883   22.6046 H   0  0  0  0  0  0  0  0  0  0  0  0
    8.0897   -1.6082   21.0890 H   0  0  0  0  0  0  0  0  0  0  0  0
  1  2  2  0  0  0  0
  1  7  1  0  0  0  0
  2  9  1  0  0  0  0
  3  5  2  0  0  0  0
  3 10  1  0  0  0  0
  4  6  1  0  0  0  0
  4 10  2  0  0  0  0
  5 11  1  0  0  0  0
  6 11  2  0  0  0  0
  7 12  2  0  0  0  0
  8  9  2  0  0  0  0
  8 12  1  0  0  0  0
  9 24  1  0  0  0  0
 10 28  1  0  0  0  0
 11 30  1  0  0  0  0
 12 33  1  0  0  0  0
 13 15  1  0  0  0  0
 13 25  2  0  0  0  0
 13 27  1  0  0  0  0
 14 26  2  0  0  0  0
 14 27  1  0  0  0  0
 14 29  1  0  0  0  0
 15 16  2  0  0  0  0
 16 17  1  0  0  0  0
 17 18  2  0  0  0  0
 18 27  1  0  0  0  0
 19 29  1  0  0  0  0
 19 30  1  0  0  0  0
 19 31  2  0  0  0  0
 20 22  1  0  0  0  0
 20 28  1  0  0  0  0
 21 23  1  0  0  0  0
 21 28  1  0  0  0  0
 22 32  1  0  0  0  0
 23 32  1  0  0  0  0
 24 30  1  0  0  0  0
 25 26  1  0  0  0  0
  1 34  1  0  0  0  0
  2 35  1  0  0  0  0
  3 36  1  0  0  0  0
  4 37  1  0  0  0  0
  5 38  1  0  0  0  0
  6 39  1  0  0  0  0
  7 40  1  0  0  0  0
  8 41  1  0  0  0  0
 15 42  1  0  0  0  0
 16 43  1  0  0  0  0
 17 44  1  0  0  0  0
 18 45  1  0  0  0  0
 20 46  1  0  0  0  0
 20 47  1  0  0  0  0
 21 48  1  0  0  0  0
 21 49  1  0  0  0  0
 22 50  1  0  0  0  0
 22 51  1  0  0  0  0
 23 52  1  0  0  0  0
 23 53  1  0  0  0  0
 24 54  1  0  0  0  0
 24 55  1  0  0  0  0
 29 56  1  0  0  0  0
M  END
> <clash_score>
0

> <docking_score>
-8.661749839782715

> <overlap_score>
0.9944659471511841

$$$$
BENZO_167_1
  -OEChem-08232013523D

 56 60  0     0  0  0  0  0  0999 V2000
    9.1890   -3.5540   24.0140 C   0  0  0  0  0  0  0  0  0  0  0  0
    7.8700   -2.0610   25.3550 C   0  0  0  0  0  0  0  0  0  0  0  0
    9.5890   -2.4950   23.2210 C   0  0  0  0  0  0  0  0  0  0  0  0
    8.2550   -1.0010   24.5520 C   0  0  0  0  0  0  0  0  0  0  0  0
   13.2516    0.9063   22.9518 C   0  0  0  0  0  0  0  0  0  0  0  0
   12.4136   -1.1249   23.0350 C   0  0  0  0  0  0  0  0  0  0  0  0
   12.0454    0.1966   23.1038 C   0  0  0  0  0  0  0  0  0  0  0  0
    8.3450   -3.3440   25.0980 C   0  0  0  0  0  0  0  0  0  0  0  0
    9.1280   -1.2090   23.4870 C   0  0  0  0  0  0  0  0  0  0  0  0
    5.7970    0.9500   18.6730 C   0  0  0  0  0  0  0  0  0  0  0  0
    7.2710   -0.1460   19.8310 C   0  0  0  0  0  0  0  0  0  0  0  0
    4.6610    1.7170   18.4380 C   0  0  0  0  0  0  0  0  0  0  0  0
    3.8860    2.1050   19.5250 C   0  0  0  0  0  0  0  0  0  0  0  0
    4.2460    1.7520   20.8250 C   0  0  0  0  0  0  0  0  0  0  0  0
    5.3890    1.0010   21.0690 C   0  0  0  0  0  0  0  0  0  0  0  0
    9.0430    0.2380   21.4940 C   0  0  0  0  0  0  0  0  0  0  0  0
    8.9524   -5.2012   26.6600 C   0  0  0  0  0  0  0  0  0  0  0  0
    6.6112   -4.5068   26.4379 C   0  0  0  0  0  0  0  0  0  0  0  0
    8.9037   -4.7845   28.1261 C   0  0  0  0  0  0  0  0  0  0  0  0
    6.6374   -4.1243   27.9184 C   0  0  0  0  0  0  0  0  0  0  0  0
   14.6105   -2.2888   22.7229 C   0  0  0  0  0  0  0  0  0  0  0  0
   10.6659    0.7557   23.3001 C   0  0  0  0  0  0  0  0  0  0  0  0
   14.3071    0.1024   22.7982 N   0  0  0  0  0  0  0  0  0  0  0  0
    6.7100    0.3850   17.8100 N   0  0  0  0  0  0  0  0  0  0  0  0
    7.5840   -0.2700   18.5160 N   0  0  0  0  0  0  0  0  0  0  0  0
   13.7653   -1.1262   22.8534 N   0  0  0  0  0  0  0  0  0  0  0  0
    6.1460    0.6070   19.9750 N   0  0  0  0  0  0  0  0  0  0  0  0
    7.9775   -4.4014   25.9151 N   0  0  0  0  0  0  0  0  0  0  0  0
    8.0950   -0.7700   20.8440 N   0  0  0  0  0  0  0  0  0  0  0  0
    9.5820   -0.1080   22.7000 N   0  0  0  0  0  0  0  0  0  0  0  0
    9.2950    1.3000   20.9480 O   0  0  0  0  0  0  0  0  0  0  0  0
    7.5729   -4.9391   28.6338 O   0  0  0  0  0  0  0  0  0  0  0  0
    9.5426   -4.5618   23.7797 H   0  0  0  0  0  0  0  0  0  0  0  0
    7.1914   -1.8824   26.1903 H   0  0  0  0  0  0  0  0  0  0  0  0
   10.2669   -2.6745   22.3854 H   0  0  0  0  0  0  0  0  0  0  0  0
    7.8690   -0.0020   24.7587 H   0  0  0  0  0  0  0  0  0  0  0  0
   13.4081    1.9758   22.9471 H   0  0  0  0  0  0  0  0  0  0  0  0
   11.8432   -2.0416   23.0995 H   0  0  0  0  0  0  0  0  0  0  0  0
    4.3710    2.0145   17.4451 H   0  0  0  0  0  0  0  0  0  0  0  0
    2.9929    2.6891   19.3400 H   0  0  0  0  0  0  0  0  0  0  0  0
    3.6320    2.0596   21.6814 H   0  0  0  0  0  0  0  0  0  0  0  0
    5.6863    0.7288   22.0575 H   0  0  0  0  0  0  0  0  0  0  0  0
    9.9615   -5.0500   26.2711 H   0  0  0  0  0  0  0  0  0  0  0  0
    8.6935   -6.2597   26.5720 H   0  0  0  0  0  0  0  0  0  0  0  0
    6.2628   -5.5350   26.3330 H   0  0  0  0  0  0  0  0  0  0  0  0
    5.9347   -3.8423   25.9023 H   0  0  0  0  0  0  0  0  0  0  0  0
    9.5597   -5.4275   28.7166 H   0  0  0  0  0  0  0  0  0  0  0  0
    9.2344   -3.7511   28.2636 H   0  0  0  0  0  0  0  0  0  0  0  0
    6.8874   -3.0657   28.0553 H   0  0  0  0  0  0  0  0  0  0  0  0
    5.6495   -4.2893   28.3591 H   0  0  0  0  0  0  0  0  0  0  0  0
   14.6696   -2.5455   21.6619 H   0  0  0  0  0  0  0  0  0  0  0  0
   15.6050   -2.0622   23.1173 H   0  0  0  0  0  0  0  0  0  0  0  0
   14.1787   -3.1155   23.2938 H   0  0  0  0  0  0  0  0  0  0  0  0
   10.4490    0.8829   24.3664 H   0  0  0  0  0  0  0  0  0  0  0  0
   10.5700    1.7396   22.8291 H   0  0  0  0  0  0  0  0  0  0  0  0
    8.0897   -1.6082   21.0890 H   0  0  0  0  0  0  0  0  0  0  0  0
  1  3  2  0  0  0  0
  1  8  1  0  0  0  0
  2  4  1  0  0  0  0
  2  8  2  0  0  0  0
  3  9  1  0  0  0  0
  4  9  2  0  0  0  0
  5  7  1  0  0  0  0
  5 23  2  0  0  0  0
  6  7  2  0  0  0  0
  6 26  1  0  0  0  0
  7 22  1  0  0  0  0
  8 28  1  0  0  0  0
  9 30  1  0  0  0  0
 10 12  1  0  0  0  0
 10 24  2  0  0  0  0
 10 27  1  0  0  0  0
 11 25  2  0  0  0  0
 11 27  1  0  0  0  0
 11 29  1  0  0  0  0
 12 13  2  0  0  0  0
 13 14  1  0  0  0  0
 14 15  2  0  0  0  0
 15 27  1  0  0  0  0
 16 29  1  0  0  0  0
 16 30  1  0  0  0  0
 16 31  2  0  0  0  0
 17 19  1  0  0  0  0
 17 28  1  0  0  0  0
 18 20  1  0  0  0  0
 18 28  1  0  0  0  0
 19 32  1  0  0  0  0
 20 32  1  0  0  0  0
 21 26  1  0  0  0  0
 22 30  1  0  0  0  0
 23 26  1  0  0  0  0
 24 25  1  0  0  0  0
  1 33  1  0  0  0  0
  2 34  1  0  0  0  0
  3 35  1  0  0  0  0
  4 36  1  0  0  0  0
  5 37  1  0  0  0  0
  6 38  1  0  0  0  0
 12 39  1  0  0  0  0
 13 40  1  0  0  0  0
 14 41  1  0  0  0  0
 15 42  1  0  0  0  0
 17 43  1  0  0  0  0
 17 44  1  0  0  0  0
 18 45  1  0  0  0  0
 18 46  1  0  0  0  0
 19 47  1  0  0  0  0
 19 48  1  0  0  0  0
 20 49  1  0  0  0  0
 20 50  1  0  0  0  0
 21 51  1  0  0  0  0
 21 52  1  0  0  0  0
 21 53  1  0  0  0  0
 22 54  1  0  0  0  0
 22 55  1  0  0  0  0
 29 56  1  0  0  0  0
M  END
> <clash_score>
0

> <docking_score>
-9.85612678527832

> <overlap_score>
0.968580424785614

$$$$
BENZO_168_1
  -OEChem-08232013523D

 49 52  0     1  0  0  0  0  0999 V2000
    3.8860    2.1050   19.5250 C   0  0  0  0  0  0  0  0  0  0  0  0
    4.2460    1.7520   20.8250 C   0  0  0  0  0  0  0  0  0  0  0  0
    9.5890   -2.4950   23.2210 C   0  0  0  0  0  0  0  0  0  0  0  0
    8.2550   -1.0010   24.5520 C   0  0  0  0  0  0  0  0  0  0  0  0
    4.6610    1.7170   18.4380 C   0  0  0  0  0  0  0  0  0  0  0  0
    5.3890    1.0010   21.0690 C   0  0  0  0  0  0  0  0  0  0  0  0
    9.1890   -3.5540   24.0140 C   0  0  0  0  0  0  0  0  0  0  0  0
    7.8700   -2.0610   25.3550 C   0  0  0  0  0  0  0  0  0  0  0  0
   13.2367   -0.5537   24.1440 C   0  0  0  0  0  0  0  0  0  0  0  0
   13.7547   -0.1001   25.3371 C   0  0  0  0  0  0  0  0  0  0  0  0
   11.6391    1.0163   24.7648 C   0  0  0  0  0  0  0  0  0  0  0  0
    9.1280   -1.2090   23.4870 C   0  0  0  0  0  0  0  0  0  0  0  0
   12.0113    0.0931   23.8123 C   0  0  0  0  0  0  0  0  0  0  0  0
    5.7970    0.9500   18.6730 C   0  0  0  0  0  0  0  0  0  0  0  0
    6.1460    0.6070   19.9750 C   0  0  0  0  0  0  0  0  0  0  0  0
    8.3450   -3.3440   25.0980 C   0  0  0  0  0  0  0  0  0  0  0  0
    9.0430    0.2380   21.4940 C   0  0  0  0  0  0  0  0  0  0  0  0
    8.7679   -4.7588   27.0899 C   0  0  0  0  0  0  0  0  0  0  0  0
    6.7785   -5.1880   25.6384 C   0  0  0  0  0  0  0  0  0  0  0  0
   11.2147   -0.2012   22.5629 C   0  0  0  0  0  0  0  0  0  0  0  0
    9.5820   -0.1080   22.7000 C   0  0  1  0  0  0  0  0  0  0  0  0
    6.7100    0.3850   17.8100 N   0  0  0  0  0  0  0  0  0  0  0  0
    7.5840   -0.2700   18.5160 N   0  0  0  0  0  0  0  0  0  0  0  0
    7.2710   -0.1460   19.8310 N   0  0  0  0  0  0  0  0  0  0  0  0
    8.0950   -0.7700   20.8440 N   0  0  0  0  0  0  0  0  0  0  0  0
    7.9717   -4.4175   25.9277 N   0  0  0  0  0  0  0  0  0  0  0  0
    9.2950    1.3000   20.9480 O   0  0  0  0  0  0  0  0  0  0  0  0
   12.7651    1.1006   26.0522 S   0  0  0  0  0  0  0  0  0  0  0  0
    2.9846    2.6932   19.3610 H   0  0  0  0  0  0  0  0  0  0  0  0
    3.6235    2.0692   21.6570 H   0  0  0  0  0  0  0  0  0  0  0  0
   10.2684   -2.6719   22.3867 H   0  0  0  0  0  0  0  0  0  0  0  0
    7.8717   -0.0016   24.7596 H   0  0  0  0  0  0  0  0  0  0  0  0
    4.3785    2.0113   17.4257 H   0  0  0  0  0  0  0  0  0  0  0  0
    5.6763    0.7332   22.0915 H   0  0  0  0  0  0  0  0  0  0  0  0
    9.5443   -4.5616   23.7817 H   0  0  0  0  0  0  0  0  0  0  0  0
    7.1921   -1.8821   26.1908 H   0  0  0  0  0  0  0  0  0  0  0  0
   13.7173   -1.3138   23.5411 H   0  0  0  0  0  0  0  0  0  0  0  0
   14.6665   -0.4168   25.8235 H   0  0  0  0  0  0  0  0  0  0  0  0
   10.7604    1.6463   24.7706 H   0  0  0  0  0  0  0  0  0  0  0  0
    8.3161   -5.6197   27.6045 H   0  0  0  0  0  0  0  0  0  0  0  0
    9.7889   -5.0164   26.7719 H   0  0  0  0  0  0  0  0  0  0  0  0
    8.8031   -3.8992   27.7753 H   0  0  0  0  0  0  0  0  0  0  0  0
    6.6586   -5.9772   26.3952 H   0  0  0  0  0  0  0  0  0  0  0  0
    5.9007   -4.5253   25.6577 H   0  0  0  0  0  0  0  0  0  0  0  0
    6.8704   -5.6459   24.6425 H   0  0  0  0  0  0  0  0  0  0  0  0
   11.5664    0.4743   21.7706 H   0  0  0  0  0  0  0  0  0  0  0  0
   11.4535   -1.2106   22.2023 H   0  0  0  0  0  0  0  0  0  0  0  0
    9.5277    0.8495   23.3908 H   0  0  0  0  0  0  0  0  0  0  0  0
    8.1038   -1.6155   21.0990 H   0  0  0  0  0  0  0  0  0  0  0  0
  1  2  1  0  0  0  0
  1  5  2  0  0  0  0
  2  6  2  0  0  0  0
  3  7  2  0  0  0  0
  3 12  1  0  0  0  0
  4  8  1  0  0  0  0
  4 12  2  0  0  0  0
  5 14  1  0  0  0  0
  6 15  1  0  0  0  0
  7 16  1  0  0  0  0
  8 16  2  0  0  0  0
  9 10  2  0  0  0  0
  9 13  1  0  0  0  0
 10 28  1  0  0  0  0
 11 13  2  0  0  0  0
 11 28  1  0  0  0  0
 12 21  1  0  0  0  0
 13 20  1  0  0  0  0
 14 15  2  0  0  0  0
 14 22  1  0  0  0  0
 15 24  1  0  0  0  0
 16 26  1  0  0  0  0
 17 21  1  0  0  0  0
 17 25  1  0  0  0  0
 17 27  2  0  0  0  0
 18 26  1  0  0  0  0
 19 26  1  0  0  0  0
 20 21  1  1  0  0  0
 22 23  2  0  0  0  0
 23 24  1  0  0  0  0
 24 25  1  0  0  0  0
  1 29  1  0  0  0  0
  2 30  1  0  0  0  0
  3 31  1  0  0  0  0
  4 32  1  0  0  0  0
  5 33  1  0  0  0  0
  6 34  1  0  0  0  0
  7 35  1  0  0  0  0
  8 36  1  0  0  0  0
  9 37  1  0  0  0  0
 10 38  1  0  0  0  0
 11 39  1  0  0  0  0
 18 40  1  0  0  0  0
 18 41  1  0  0  0  0
 18 42  1  0  0  0  0
 19 43  1  0  0  0  0
 19 44  1  0  0  0  0
 19 45  1  0  0  0  0
 20 46  1  0  0  0  0
 20 47  1  0  0  0  0
 21 48  1  0  0  0  0
 25 49  1  0  0  0  0
M  END
> <clash_score>
0.7211222562391197

> <docking_score>
-6.402408599853516

> <overlap_score>
0.8701410293579102

$$$$
BENZO_168_2
  -OEChem-08232013523D

 49 52  0     1  0  0  0  0  0999 V2000
    3.8860    2.1050   19.5250 C   0  0  0  0  0  0  0  0  0  0  0  0
    4.2460    1.7520   20.8250 C   0  0  0  0  0  0  0  0  0  0  0  0
    9.5890   -2.4950   23.2210 C   0  0  0  0  0  0  0  0  0  0  0  0
    8.2550   -1.0010   24.5520 C   0  0  0  0  0  0  0  0  0  0  0  0
    4.6610    1.7170   18.4380 C   0  0  0  0  0  0  0  0  0  0  0  0
    5.3890    1.0010   21.0690 C   0  0  0  0  0  0  0  0  0  0  0  0
    9.1890   -3.5540   24.0140 C   0  0  0  0  0  0  0  0  0  0  0  0
    7.8700   -2.0610   25.3550 C   0  0  0  0  0  0  0  0  0  0  0  0
   12.1596    0.8633   24.2577 C   0  0  0  0  0  0  0  0  0  0  0  0
   12.9999    0.8027   25.3475 C   0  0  0  0  0  0  0  0  0  0  0  0
   10.6666    1.2226   26.0024 C   0  0  0  0  0  0  0  0  0  0  0  0
    9.1280   -1.2090   23.4870 C   0  0  0  0  0  0  0  0  0  0  0  0
   10.8079    1.1067   24.6369 C   0  0  0  0  0  0  0  0  0  0  0  0
    5.7970    0.9500   18.6730 C   0  0  0  0  0  0  0  0  0  0  0  0
    6.1460    0.6070   19.9750 C   0  0  0  0  0  0  0  0  0  0  0  0
    8.3450   -3.3440   25.0980 C   0  0  0  0  0  0  0  0  0  0  0  0
    9.0430    0.2380   21.4940 C   0  0  0  0  0  0  0  0  0  0  0  0
    7.2615   -5.5563   25.3804 C   0  0  0  0  0  0  0  0  0  0  0  0
    8.3045   -4.4045   27.3385 C   0  0  0  0  0  0  0  0  0  0  0  0
    9.6654    1.2227   23.6555 C   0  0  0  0  0  0  0  0  0  0  0  0
    9.5820   -0.1080   22.7000 C   0  0  2  0  0  0  0  0  0  0  0  0
    6.7100    0.3850   17.8100 N   0  0  0  0  0  0  0  0  0  0  0  0
    7.5840   -0.2700   18.5160 N   0  0  0  0  0  0  0  0  0  0  0  0
    7.2710   -0.1460   19.8310 N   0  0  0  0  0  0  0  0  0  0  0  0
    8.0950   -0.7700   20.8440 N   0  0  0  0  0  0  0  0  0  0  0  0
    7.9717   -4.4175   25.9277 N   0  0  0  0  0  0  0  0  0  0  0  0
    9.2950    1.3000   20.9480 O   0  0  0  0  0  0  0  0  0  0  0  0
   12.1595    1.0385   26.8207 S   0  0  0  0  0  0  0  0  0  0  0  0
    2.9846    2.6932   19.3610 H   0  0  0  0  0  0  0  0  0  0  0  0
    3.6235    2.0692   21.6570 H   0  0  0  0  0  0  0  0  0  0  0  0
   10.2684   -2.6719   22.3867 H   0  0  0  0  0  0  0  0  0  0  0  0
    7.8717   -0.0016   24.7596 H   0  0  0  0  0  0  0  0  0  0  0  0
    4.3785    2.0113   17.4257 H   0  0  0  0  0  0  0  0  0  0  0  0
    5.6763    0.7332   22.0915 H   0  0  0  0  0  0  0  0  0  0  0  0
    9.5443   -4.5616   23.7817 H   0  0  0  0  0  0  0  0  0  0  0  0
    7.1921   -1.8821   26.1908 H   0  0  0  0  0  0  0  0  0  0  0  0
   12.5025    0.7379   23.2384 H   0  0  0  0  0  0  0  0  0  0  0  0
   14.0670    0.6304   25.3492 H   0  0  0  0  0  0  0  0  0  0  0  0
    9.7601    1.4054   26.5626 H   0  0  0  0  0  0  0  0  0  0  0  0
    7.0607   -6.2832   26.1812 H   0  0  0  0  0  0  0  0  0  0  0  0
    6.3096   -5.2194   24.9441 H   0  0  0  0  0  0  0  0  0  0  0  0
    7.8750   -6.0305   24.6002 H   0  0  0  0  0  0  0  0  0  0  0  0
    7.9297   -5.3236   27.8126 H   0  0  0  0  0  0  0  0  0  0  0  0
    9.3968   -4.3501   27.4569 H   0  0  0  0  0  0  0  0  0  0  0  0
    7.8398   -3.5297   27.8167 H   0  0  0  0  0  0  0  0  0  0  0  0
    8.7459    1.4099   24.2274 H   0  0  0  0  0  0  0  0  0  0  0  0
    9.8015    2.1185   23.0351 H   0  0  0  0  0  0  0  0  0  0  0  0
   10.7408   -0.2662   22.5300 H   0  0  0  0  0  0  0  0  0  0  0  0
    8.1038   -1.6155   21.0990 H   0  0  0  0  0  0  0  0  0  0  0  0
  1  2  1  0  0  0  0
  1  5  2  0  0  0  0
  2  6  2  0  0  0  0
  3  7  2  0  0  0  0
  3 12  1  0  0  0  0
  4  8  1  0  0  0  0
  4 12  2  0  0  0  0
  5 14  1  0  0  0  0
  6 15  1  0  0  0  0
  7 16  1  0  0  0  0
  8 16  2  0  0  0  0
  9 10  2  0  0  0  0
  9 13  1  0  0  0  0
 10 28  1  0  0  0  0
 11 13  2  0  0  0  0
 11 28  1  0  0  0  0
 12 21  1  0  0  0  0
 13 20  1  0  0  0  0
 14 15  2  0  0  0  0
 14 22  1  0  0  0  0
 15 24  1  0  0  0  0
 16 26  1  0  0  0  0
 17 21  1  0  0  0  0
 17 25  1  0  0  0  0
 17 27  2  0  0  0  0
 18 26  1  0  0  0  0
 19 26  1  0  0  0  0
 20 21  1  6  0  0  0
 22 23  2  0  0  0  0
 23 24  1  0  0  0  0
 24 25  1  0  0  0  0
  1 29  1  0  0  0  0
  2 30  1  0  0  0  0
  3 31  1  0  0  0  0
  4 32  1  0  0  0  0
  5 33  1  0  0  0  0
  6 34  1  0  0  0  0
  7 35  1  0  0  0  0
  8 36  1  0  0  0  0
  9 37  1  0  0  0  0
 10 38  1  0  0  0  0
 11 39  1  0  0  0  0
 18 40  1  0  0  0  0
 18 41  1  0  0  0  0
 18 42  1  0  0  0  0
 19 43  1  0  0  0  0
 19 44  1  0  0  0  0
 19 45  1  0  0  0  0
 20 46  1  0  0  0  0
 20 47  1  0  0  0  0
 21 48  1  0  0  0  0
 25 49  1  0  0  0  0
M  END
> <clash_score>
1.3866782555117099

> <docking_score>
-4.525589942932129

> <overlap_score>
0.8062805533409119

$$$$
BENZO_169_1
  -OEChem-08232013523D

 52 55  0     1  0  0  0  0  0999 V2000
   13.4143   -0.6944   26.2251 C   0  0  0  0  0  0  0  0  0  0  0  0
   13.9152   -1.2211   25.0346 C   0  0  0  0  0  0  0  0  0  0  0  0
   12.2000   -0.0079   26.2276 C   0  0  0  0  0  0  0  0  0  0  0  0
    3.8860    2.1050   19.5250 C   0  0  0  0  0  0  0  0  0  0  0  0
    4.2460    1.7520   20.8250 C   0  0  0  0  0  0  0  0  0  0  0  0
   13.2019   -1.0613   23.8466 C   0  0  0  0  0  0  0  0  0  0  0  0
   11.4867    0.1519   25.0397 C   0  0  0  0  0  0  0  0  0  0  0  0
    9.5890   -2.4950   23.2210 C   0  0  0  0  0  0  0  0  0  0  0  0
    8.2550   -1.0010   24.5520 C   0  0  0  0  0  0  0  0  0  0  0  0
    4.6610    1.7170   18.4380 C   0  0  0  0  0  0  0  0  0  0  0  0
    5.3890    1.0010   21.0690 C   0  0  0  0  0  0  0  0  0  0  0  0
    9.1890   -3.5540   24.0140 C   0  0  0  0  0  0  0  0  0  0  0  0
    7.8700   -2.0610   25.3550 C   0  0  0  0  0  0  0  0  0  0  0  0
   11.9876   -0.3748   23.8491 C   0  0  0  0  0  0  0  0  0  0  0  0
    9.1280   -1.2090   23.4870 C   0  0  0  0  0  0  0  0  0  0  0  0
    5.7970    0.9500   18.6730 C   0  0  0  0  0  0  0  0  0  0  0  0
    6.1460    0.6070   19.9750 C   0  0  0  0  0  0  0  0  0  0  0  0
    8.3450   -3.3440   25.0980 C   0  0  0  0  0  0  0  0  0  0  0  0
    9.0430    0.2380   21.4940 C   0  0  0  0  0  0  0  0  0  0  0  0
    7.2615   -5.5563   25.3804 C   0  0  0  0  0  0  0  0  0  0  0  0
    8.3045   -4.4045   27.3385 C   0  0  0  0  0  0  0  0  0  0  0  0
   11.2147   -0.2012   22.5629 C   0  0  0  0  0  0  0  0  0  0  0  0
    9.5820   -0.1080   22.7000 C   0  0  1  0  0  0  0  0  0  0  0  0
    6.7100    0.3850   17.8100 N   0  0  0  0  0  0  0  0  0  0  0  0
    7.5840   -0.2700   18.5160 N   0  0  0  0  0  0  0  0  0  0  0  0
    7.2710   -0.1460   19.8310 N   0  0  0  0  0  0  0  0  0  0  0  0
    8.0950   -0.7700   20.8440 N   0  0  0  0  0  0  0  0  0  0  0  0
    7.9717   -4.4175   25.9277 N   0  0  0  0  0  0  0  0  0  0  0  0
    9.2950    1.3000   20.9480 O   0  0  0  0  0  0  0  0  0  0  0  0
   13.9692   -0.8201   27.1503 H   0  0  0  0  0  0  0  0  0  0  0  0
   14.8602   -1.7566   25.0326 H   0  0  0  0  0  0  0  0  0  0  0  0
   11.8092    0.4013   27.1545 H   0  0  0  0  0  0  0  0  0  0  0  0
    2.9846    2.6932   19.3610 H   0  0  0  0  0  0  0  0  0  0  0  0
    3.6235    2.0692   21.6570 H   0  0  0  0  0  0  0  0  0  0  0  0
   13.6000   -1.4749   22.9238 H   0  0  0  0  0  0  0  0  0  0  0  0
   10.5416    0.6883   25.0512 H   0  0  0  0  0  0  0  0  0  0  0  0
   10.2684   -2.6719   22.3867 H   0  0  0  0  0  0  0  0  0  0  0  0
    7.8717   -0.0016   24.7596 H   0  0  0  0  0  0  0  0  0  0  0  0
    4.3785    2.0113   17.4257 H   0  0  0  0  0  0  0  0  0  0  0  0
    5.6763    0.7332   22.0915 H   0  0  0  0  0  0  0  0  0  0  0  0
    9.5443   -4.5616   23.7817 H   0  0  0  0  0  0  0  0  0  0  0  0
    7.1921   -1.8821   26.1908 H   0  0  0  0  0  0  0  0  0  0  0  0
    7.0607   -6.2832   26.1812 H   0  0  0  0  0  0  0  0  0  0  0  0
    6.3096   -5.2194   24.9441 H   0  0  0  0  0  0  0  0  0  0  0  0
    7.8750   -6.0305   24.6002 H   0  0  0  0  0  0  0  0  0  0  0  0
    7.9297   -5.3236   27.8126 H   0  0  0  0  0  0  0  0  0  0  0  0
    9.3968   -4.3501   27.4569 H   0  0  0  0  0  0  0  0  0  0  0  0
    7.8398   -3.5297   27.8167 H   0  0  0  0  0  0  0  0  0  0  0  0
   11.6025    0.6918   22.0532 H   0  0  0  0  0  0  0  0  0  0  0  0
   11.4368   -1.0349   21.8836 H   0  0  0  0  0  0  0  0  0  0  0  0
    9.5277    0.8495   23.3908 H   0  0  0  0  0  0  0  0  0  0  0  0
    8.1038   -1.6155   21.0990 H   0  0  0  0  0  0  0  0  0  0  0  0
  1  2  1  0  0  0  0
  1  3  2  0  0  0  0
  2  6  2  0  0  0  0
  3  7  1  0  0  0  0
  4  5  1  0  0  0  0
  4 10  2  0  0  0  0
  5 11  2  0  0  0  0
  6 14  1  0  0  0  0
  7 14  2  0  0  0  0
  8 12  2  0  0  0  0
  8 15  1  0  0  0  0
  9 13  1  0  0  0  0
  9 15  2  0  0  0  0
 10 16  1  0  0  0  0
 11 17  1  0  0  0  0
 12 18  1  0  0  0  0
 13 18  2  0  0  0  0
 14 22  1  0  0  0  0
 15 23  1  0  0  0  0
 16 17  2  0  0  0  0
 16 24  1  0  0  0  0
 17 26  1  0  0  0  0
 18 28  1  0  0  0  0
 19 23  1  0  0  0  0
 19 27  1  0  0  0  0
 19 29  2  0  0  0  0
 20 28  1  0  0  0  0
 21 28  1  0  0  0  0
 22 23  1  1  0  0  0
 24 25  2  0  0  0  0
 25 26  1  0  0  0  0
 26 27  1  0  0  0  0
  1 30  1  0  0  0  0
  2 31  1  0  0  0  0
  3 32  1  0  0  0  0
  4 33  1  0  0  0  0
  5 34  1  0  0  0  0
  6 35  1  0  0  0  0
  7 36  1  0  0  0  0
  8 37  1  0  0  0  0
  9 38  1  0  0  0  0
 10 39  1  0  0  0  0
 11 40  1  0  0  0  0
 12 41  1  0  0  0  0
 13 42  1  0  0  0  0
 20 43  1  0  0  0  0
 20 44  1  0  0  0  0
 20 45  1  0  0  0  0
 21 46  1  0  0  0  0
 21 47  1  0  0  0  0
 21 48  1  0  0  0  0
 22 49  1  0  0  0  0
 22 50  1  0  0  0  0
 23 51  1  0  0  0  0
 27 52  1  0  0  0  0
M  END
> <clash_score>
0

> <docking_score>
-5.9688897132873535

> <overlap_score>
0.8838323354721069

$$$$
BENZO_169_2
  -OEChem-08232013523D

 52 55  0     1  0  0  0  0  0999 V2000
   12.9183    0.8914   26.4488 C   0  0  0  0  0  0  0  0  0  0  0  0
   11.7786    1.6200   26.7891 C   0  0  0  0  0  0  0  0  0  0  0  0
   13.0029    0.2705   25.2025 C   0  0  0  0  0  0  0  0  0  0  0  0
    3.8860    2.1050   19.5250 C   0  0  0  0  0  0  0  0  0  0  0  0
    4.2460    1.7520   20.8250 C   0  0  0  0  0  0  0  0  0  0  0  0
   10.7234    1.7276   25.8832 C   0  0  0  0  0  0  0  0  0  0  0  0
   11.9477    0.3781   24.2967 C   0  0  0  0  0  0  0  0  0  0  0  0
    9.5890   -2.4950   23.2210 C   0  0  0  0  0  0  0  0  0  0  0  0
    8.2550   -1.0010   24.5520 C   0  0  0  0  0  0  0  0  0  0  0  0
    4.6610    1.7170   18.4380 C   0  0  0  0  0  0  0  0  0  0  0  0
    5.3890    1.0010   21.0690 C   0  0  0  0  0  0  0  0  0  0  0  0
    9.1890   -3.5540   24.0140 C   0  0  0  0  0  0  0  0  0  0  0  0
    7.8700   -2.0610   25.3550 C   0  0  0  0  0  0  0  0  0  0  0  0
   10.8079    1.1067   24.6369 C   0  0  0  0  0  0  0  0  0  0  0  0
    9.1280   -1.2090   23.4870 C   0  0  0  0  0  0  0  0  0  0  0  0
    5.7970    0.9500   18.6730 C   0  0  0  0  0  0  0  0  0  0  0  0
    6.1460    0.6070   19.9750 C   0  0  0  0  0  0  0  0  0  0  0  0
    8.3450   -3.3440   25.0980 C   0  0  0  0  0  0  0  0  0  0  0  0
    9.0430    0.2380   21.4940 C   0  0  0  0  0  0  0  0  0  0  0  0
    8.4623   -5.7555   25.6629 C   0  0  0  0  0  0  0  0  0  0  0  0
    7.1022   -4.1969   27.0663 C   0  0  0  0  0  0  0  0  0  0  0  0
    9.6654    1.2227   23.6555 C   0  0  0  0  0  0  0  0  0  0  0  0
    9.5820   -0.1080   22.7000 C   0  0  2  0  0  0  0  0  0  0  0  0
    6.7100    0.3850   17.8100 N   0  0  0  0  0  0  0  0  0  0  0  0
    7.5840   -0.2700   18.5160 N   0  0  0  0  0  0  0  0  0  0  0  0
    7.2710   -0.1460   19.8310 N   0  0  0  0  0  0  0  0  0  0  0  0
    8.0950   -0.7700   20.8440 N   0  0  0  0  0  0  0  0  0  0  0  0
    7.9717   -4.4175   25.9277 N   0  0  0  0  0  0  0  0  0  0  0  0
    9.2950    1.3000   20.9480 O   0  0  0  0  0  0  0  0  0  0  0  0
   13.7404    0.8088   27.1537 H   0  0  0  0  0  0  0  0  0  0  0  0
   11.7130    2.1044   27.7589 H   0  0  0  0  0  0  0  0  0  0  0  0
   13.8905   -0.2959   24.9369 H   0  0  0  0  0  0  0  0  0  0  0  0
    2.9846    2.6932   19.3610 H   0  0  0  0  0  0  0  0  0  0  0  0
    3.6235    2.0692   21.6570 H   0  0  0  0  0  0  0  0  0  0  0  0
    9.8391    2.2972   26.1570 H   0  0  0  0  0  0  0  0  0  0  0  0
   12.0224   -0.1091   23.3281 H   0  0  0  0  0  0  0  0  0  0  0  0
   10.2684   -2.6719   22.3867 H   0  0  0  0  0  0  0  0  0  0  0  0
    7.8717   -0.0016   24.7596 H   0  0  0  0  0  0  0  0  0  0  0  0
    4.3785    2.0113   17.4257 H   0  0  0  0  0  0  0  0  0  0  0  0
    5.6763    0.7332   22.0915 H   0  0  0  0  0  0  0  0  0  0  0  0
    9.5443   -4.5616   23.7817 H   0  0  0  0  0  0  0  0  0  0  0  0
    7.1921   -1.8821   26.1908 H   0  0  0  0  0  0  0  0  0  0  0  0
    8.0608   -6.4495   26.4160 H   0  0  0  0  0  0  0  0  0  0  0  0
    8.1373   -6.0734   24.6613 H   0  0  0  0  0  0  0  0  0  0  0  0
    9.5613   -5.7590   25.7101 H   0  0  0  0  0  0  0  0  0  0  0  0
    6.9276   -5.1509   27.5853 H   0  0  0  0  0  0  0  0  0  0  0  0
    7.5769   -3.4850   27.7576 H   0  0  0  0  0  0  0  0  0  0  0  0
    6.1419   -3.7869   26.7201 H   0  0  0  0  0  0  0  0  0  0  0  0
    8.7459    1.4099   24.2274 H   0  0  0  0  0  0  0  0  0  0  0  0
    9.8015    2.1185   23.0351 H   0  0  0  0  0  0  0  0  0  0  0  0
   10.7408   -0.2662   22.5300 H   0  0  0  0  0  0  0  0  0  0  0  0
    8.1038   -1.6155   21.0990 H   0  0  0  0  0  0  0  0  0  0  0  0
  1  2  1  0  0  0  0
  1  3  2  0  0  0  0
  2  6  2  0  0  0  0
  3  7  1  0  0  0  0
  4  5  1  0  0  0  0
  4 10  2  0  0  0  0
  5 11  2  0  0  0  0
  6 14  1  0  0  0  0
  7 14  2  0  0  0  0
  8 12  2  0  0  0  0
  8 15  1  0  0  0  0
  9 13  1  0  0  0  0
  9 15  2  0  0  0  0
 10 16  1  0  0  0  0
 11 17  1  0  0  0  0
 12 18  1  0  0  0  0
 13 18  2  0  0  0  0
 14 22  1  0  0  0  0
 15 23  1  0  0  0  0
 16 17  2  0  0  0  0
 16 24  1  0  0  0  0
 17 26  1  0  0  0  0
 18 28  1  0  0  0  0
 19 23  1  0  0  0  0
 19 27  1  0  0  0  0
 19 29  2  0  0  0  0
 20 28  1  0  0  0  0
 21 28  1  0  0  0  0
 22 23  1  6  0  0  0
 24 25  2  0  0  0  0
 25 26  1  0  0  0  0
 26 27  1  0  0  0  0
  1 30  1  0  0  0  0
  2 31  1  0  0  0  0
  3 32  1  0  0  0  0
  4 33  1  0  0  0  0
  5 34  1  0  0  0  0
  6 35  1  0  0  0  0
  7 36  1  0  0  0  0
  8 37  1  0  0  0  0
  9 38  1  0  0  0  0
 10 39  1  0  0  0  0
 11 40  1  0  0  0  0
 12 41  1  0  0  0  0
 13 42  1  0  0  0  0
 20 43  1  0  0  0  0
 20 44  1  0  0  0  0
 20 45  1  0  0  0  0
 21 46  1  0  0  0  0
 21 47  1  0  0  0  0
 21 48  1  0  0  0  0
 22 49  1  0  0  0  0
 22 50  1  0  0  0  0
 23 51  1  0  0  0  0
 27 52  1  0  0  0  0
M  END
> <clash_score>
4.084379441585688

> <docking_score>
-4.207812309265137

> <overlap_score>
0.8035212159156799

$$$$
BENZO_170_1
  -OEChem-08232013523D

 52 55  0     1  0  0  0  0  0999 V2000
    3.8860    2.1050   19.5250 C   0  0  0  0  0  0  0  0  0  0  0  0
    4.2460    1.7520   20.8250 C   0  0  0  0  0  0  0  0  0  0  0  0
   13.9169   -1.2205   25.0322 C   0  0  0  0  0  0  0  0  0  0  0  0
   13.2022   -1.0608   23.8451 C   0  0  0  0  0  0  0  0  0  0  0  0
    9.5890   -2.4950   23.2210 C   0  0  0  0  0  0  0  0  0  0  0  0
    8.2550   -1.0010   24.5520 C   0  0  0  0  0  0  0  0  0  0  0  0
    4.6610    1.7170   18.4380 C   0  0  0  0  0  0  0  0  0  0  0  0
    5.3890    1.0010   21.0690 C   0  0  0  0  0  0  0  0  0  0  0  0
    9.1890   -3.5540   24.0140 C   0  0  0  0  0  0  0  0  0  0  0  0
    7.8700   -2.0610   25.3550 C   0  0  0  0  0  0  0  0  0  0  0  0
   13.4171   -0.6943   26.2234 C   0  0  0  0  0  0  0  0  0  0  0  0
   11.4878    0.1514   25.0404 C   0  0  0  0  0  0  0  0  0  0  0  0
    9.1280   -1.2090   23.4870 C   0  0  0  0  0  0  0  0  0  0  0  0
   11.9876   -0.3748   23.8491 C   0  0  0  0  0  0  0  0  0  0  0  0
    5.7970    0.9500   18.6730 C   0  0  0  0  0  0  0  0  0  0  0  0
    6.1460    0.6070   19.9750 C   0  0  0  0  0  0  0  0  0  0  0  0
    8.3450   -3.3440   25.0980 C   0  0  0  0  0  0  0  0  0  0  0  0
   12.2026   -0.0084   26.2275 C   0  0  0  0  0  0  0  0  0  0  0  0
    9.0430    0.2380   21.4940 C   0  0  0  0  0  0  0  0  0  0  0  0
    7.2615   -5.5563   25.3804 C   0  0  0  0  0  0  0  0  0  0  0  0
    8.3045   -4.4045   27.3385 C   0  0  0  0  0  0  0  0  0  0  0  0
   11.2147   -0.2012   22.5629 C   0  0  0  0  0  0  0  0  0  0  0  0
    9.5820   -0.1080   22.7000 C   0  0  1  0  0  0  0  0  0  0  0  0
    6.7100    0.3850   17.8100 N   0  0  0  0  0  0  0  0  0  0  0  0
    7.5840   -0.2700   18.5160 N   0  0  0  0  0  0  0  0  0  0  0  0
    7.2710   -0.1460   19.8310 N   0  0  0  0  0  0  0  0  0  0  0  0
    8.0950   -0.7700   20.8440 N   0  0  0  0  0  0  0  0  0  0  0  0
    7.9717   -4.4175   25.9277 N   0  0  0  0  0  0  0  0  0  0  0  0
    9.2950    1.3000   20.9480 O   0  0  0  0  0  0  0  0  0  0  0  0
   11.5870    0.6416   27.6973 Cl  0  0  0  0  0  0  0  0  0  0  0  0
    2.9846    2.6932   19.3610 H   0  0  0  0  0  0  0  0  0  0  0  0
    3.6235    2.0692   21.6570 H   0  0  0  0  0  0  0  0  0  0  0  0
   14.8627   -1.7546   25.0285 H   0  0  0  0  0  0  0  0  0  0  0  0
   13.5992   -1.4740   22.9215 H   0  0  0  0  0  0  0  0  0  0  0  0
   10.2684   -2.6719   22.3867 H   0  0  0  0  0  0  0  0  0  0  0  0
    7.8717   -0.0016   24.7596 H   0  0  0  0  0  0  0  0  0  0  0  0
    4.3785    2.0113   17.4257 H   0  0  0  0  0  0  0  0  0  0  0  0
    5.6763    0.7332   22.0915 H   0  0  0  0  0  0  0  0  0  0  0  0
    9.5443   -4.5616   23.7817 H   0  0  0  0  0  0  0  0  0  0  0  0
    7.1921   -1.8821   26.1908 H   0  0  0  0  0  0  0  0  0  0  0  0
   13.9851   -0.8262   27.1411 H   0  0  0  0  0  0  0  0  0  0  0  0
   10.5401    0.6850   25.0384 H   0  0  0  0  0  0  0  0  0  0  0  0
    7.0607   -6.2832   26.1812 H   0  0  0  0  0  0  0  0  0  0  0  0
    6.3096   -5.2194   24.9441 H   0  0  0  0  0  0  0  0  0  0  0  0
    7.8750   -6.0305   24.6002 H   0  0  0  0  0  0  0  0  0  0  0  0
    7.9297   -5.3236   27.8126 H   0  0  0  0  0  0  0  0  0  0  0  0
    9.3968   -4.3501   27.4569 H   0  0  0  0  0  0  0  0  0  0  0  0
    7.8398   -3.5297   27.8167 H   0  0  0  0  0  0  0  0  0  0  0  0
   11.6025    0.6918   22.0532 H   0  0  0  0  0  0  0  0  0  0  0  0
   11.4368   -1.0349   21.8836 H   0  0  0  0  0  0  0  0  0  0  0  0
    9.5277    0.8495   23.3908 H   0  0  0  0  0  0  0  0  0  0  0  0
    8.1038   -1.6155   21.0990 H   0  0  0  0  0  0  0  0  0  0  0  0
  1  2  1  0  0  0  0
  1  7  2  0  0  0  0
  2  8  2  0  0  0  0
  3  4  2  0  0  0  0
  3 11  1  0  0  0  0
  4 14  1  0  0  0  0
  5  9  2  0  0  0  0
  5 13  1  0  0  0  0
  6 10  1  0  0  0  0
  6 13  2  0  0  0  0
  7 15  1  0  0  0  0
  8 16  1  0  0  0  0
  9 17  1  0  0  0  0
 10 17  2  0  0  0  0
 11 18  2  0  0  0  0
 12 14  2  0  0  0  0
 12 18  1  0  0  0  0
 13 23  1  0  0  0  0
 14 22  1  0  0  0  0
 15 16  2  0  0  0  0
 15 24  1  0  0  0  0
 16 26  1  0  0  0  0
 17 28  1  0  0  0  0
 18 30  1  0  0  0  0
 19 23  1  0  0  0  0
 19 27  1  0  0  0  0
 19 29  2  0  0  0  0
 20 28  1  0  0  0  0
 21 28  1  0  0  0  0
 22 23  1  1  0  0  0
 24 25  2  0  0  0  0
 25 26  1  0  0  0  0
 26 27  1  0  0  0  0
  1 31  1  0  0  0  0
  2 32  1  0  0  0  0
  3 33  1  0  0  0  0
  4 34  1  0  0  0  0
  5 35  1  0  0  0  0
  6 36  1  0  0  0  0
  7 37  1  0  0  0  0
  8 38  1  0  0  0  0
  9 39  1  0  0  0  0
 10 40  1  0  0  0  0
 11 41  1  0  0  0  0
 12 42  1  0  0  0  0
 20 43  1  0  0  0  0
 20 44  1  0  0  0  0
 20 45  1  0  0  0  0
 21 46  1  0  0  0  0
 21 47  1  0  0  0  0
 21 48  1  0  0  0  0
 22 49  1  0  0  0  0
 22 50  1  0  0  0  0
 23 51  1  0  0  0  0
 27 52  1  0  0  0  0
M  END
> <clash_score>
0.6679264720783208

> <docking_score>
-5.249007701873779

> <overlap_score>
0.882789134979248

$$$$
BENZO_170_2
  -OEChem-08232013523D

 52 55  0     1  0  0  0  0  0999 V2000
    3.8860    2.1050   19.5250 C   0  0  0  0  0  0  0  0  0  0  0  0
    4.2460    1.7520   20.8250 C   0  0  0  0  0  0  0  0  0  0  0  0
   11.7758    1.6198   26.7903 C   0  0  0  0  0  0  0  0  0  0  0  0
   10.7217    1.7274   25.8831 C   0  0  0  0  0  0  0  0  0  0  0  0
    9.5890   -2.4950   23.2210 C   0  0  0  0  0  0  0  0  0  0  0  0
    8.2550   -1.0010   24.5520 C   0  0  0  0  0  0  0  0  0  0  0  0
    4.6610    1.7170   18.4380 C   0  0  0  0  0  0  0  0  0  0  0  0
    5.3890    1.0010   21.0690 C   0  0  0  0  0  0  0  0  0  0  0  0
    9.1890   -3.5540   24.0140 C   0  0  0  0  0  0  0  0  0  0  0  0
    7.8700   -2.0610   25.3550 C   0  0  0  0  0  0  0  0  0  0  0  0
   12.9162    0.8916   26.4512 C   0  0  0  0  0  0  0  0  0  0  0  0
   11.9483    0.3784   24.2979 C   0  0  0  0  0  0  0  0  0  0  0  0
    9.1280   -1.2090   23.4870 C   0  0  0  0  0  0  0  0  0  0  0  0
   10.8079    1.1067   24.6370 C   0  0  0  0  0  0  0  0  0  0  0  0
    5.7970    0.9500   18.6730 C   0  0  0  0  0  0  0  0  0  0  0  0
    6.1460    0.6070   19.9750 C   0  0  0  0  0  0  0  0  0  0  0  0
    8.3450   -3.3440   25.0980 C   0  0  0  0  0  0  0  0  0  0  0  0
   13.0024    0.2709   25.2050 C   0  0  0  0  0  0  0  0  0  0  0  0
    9.0430    0.2380   21.4940 C   0  0  0  0  0  0  0  0  0  0  0  0
    8.4623   -5.7555   25.6629 C   0  0  0  0  0  0  0  0  0  0  0  0
    7.1022   -4.1969   27.0663 C   0  0  0  0  0  0  0  0  0  0  0  0
    9.6654    1.2227   23.6555 C   0  0  0  0  0  0  0  0  0  0  0  0
    9.5820   -0.1080   22.7000 C   0  0  2  0  0  0  0  0  0  0  0  0
    6.7100    0.3850   17.8100 N   0  0  0  0  0  0  0  0  0  0  0  0
    7.5840   -0.2700   18.5160 N   0  0  0  0  0  0  0  0  0  0  0  0
    7.2710   -0.1460   19.8310 N   0  0  0  0  0  0  0  0  0  0  0  0
    8.0950   -0.7700   20.8440 N   0  0  0  0  0  0  0  0  0  0  0  0
    7.9717   -4.4175   25.9277 N   0  0  0  0  0  0  0  0  0  0  0  0
    9.2950    1.3000   20.9480 O   0  0  0  0  0  0  0  0  0  0  0  0
   14.4091   -0.6285   24.7878 Cl  0  0  0  0  0  0  0  0  0  0  0  0
    2.9846    2.6932   19.3610 H   0  0  0  0  0  0  0  0  0  0  0  0
    3.6235    2.0692   21.6570 H   0  0  0  0  0  0  0  0  0  0  0  0
   11.7082    2.1031   27.7606 H   0  0  0  0  0  0  0  0  0  0  0  0
    9.8369    2.2967   26.1558 H   0  0  0  0  0  0  0  0  0  0  0  0
   10.2684   -2.6719   22.3867 H   0  0  0  0  0  0  0  0  0  0  0  0
    7.8717   -0.0016   24.7596 H   0  0  0  0  0  0  0  0  0  0  0  0
    4.3785    2.0113   17.4257 H   0  0  0  0  0  0  0  0  0  0  0  0
    5.6763    0.7332   22.0915 H   0  0  0  0  0  0  0  0  0  0  0  0
    9.5443   -4.5616   23.7817 H   0  0  0  0  0  0  0  0  0  0  0  0
    7.1921   -1.8821   26.1908 H   0  0  0  0  0  0  0  0  0  0  0  0
   13.7299    0.8159   27.1683 H   0  0  0  0  0  0  0  0  0  0  0  0
   12.0109   -0.1032   23.3248 H   0  0  0  0  0  0  0  0  0  0  0  0
    8.0608   -6.4495   26.4160 H   0  0  0  0  0  0  0  0  0  0  0  0
    8.1373   -6.0734   24.6613 H   0  0  0  0  0  0  0  0  0  0  0  0
    9.5613   -5.7590   25.7101 H   0  0  0  0  0  0  0  0  0  0  0  0
    6.9276   -5.1509   27.5853 H   0  0  0  0  0  0  0  0  0  0  0  0
    7.5769   -3.4850   27.7576 H   0  0  0  0  0  0  0  0  0  0  0  0
    6.1419   -3.7869   26.7201 H   0  0  0  0  0  0  0  0  0  0  0  0
    8.7459    1.4099   24.2274 H   0  0  0  0  0  0  0  0  0  0  0  0
    9.8015    2.1185   23.0351 H   0  0  0  0  0  0  0  0  0  0  0  0
   10.7408   -0.2662   22.5300 H   0  0  0  0  0  0  0  0  0  0  0  0
    8.1038   -1.6155   21.0990 H   0  0  0  0  0  0  0  0  0  0  0  0
  1  2  1  0  0  0  0
  1  7  2  0  0  0  0
  2  8  2  0  0  0  0
  3  4  2  0  0  0  0
  3 11  1  0  0  0  0
  4 14  1  0  0  0  0
  5  9  2  0  0  0  0
  5 13  1  0  0  0  0
  6 10  1  0  0  0  0
  6 13  2  0  0  0  0
  7 15  1  0  0  0  0
  8 16  1  0  0  0  0
  9 17  1  0  0  0  0
 10 17  2  0  0  0  0
 11 18  2  0  0  0  0
 12 14  2  0  0  0  0
 12 18  1  0  0  0  0
 13 23  1  0  0  0  0
 14 22  1  0  0  0  0
 15 16  2  0  0  0  0
 15 24  1  0  0  0  0
 16 26  1  0  0  0  0
 17 28  1  0  0  0  0
 18 30  1  0  0  0  0
 19 23  1  0  0  0  0
 19 27  1  0  0  0  0
 19 29  2  0  0  0  0
 20 28  1  0  0  0  0
 21 28  1  0  0  0  0
 22 23  1  6  0  0  0
 24 25  2  0  0  0  0
 25 26  1  0  0  0  0
 26 27  1  0  0  0  0
  1 31  1  0  0  0  0
  2 32  1  0  0  0  0
  3 33  1  0  0  0  0
  4 34  1  0  0  0  0
  5 35  1  0  0  0  0
  6 36  1  0  0  0  0
  7 37  1  0  0  0  0
  8 38  1  0  0  0  0
  9 39  1  0  0  0  0
 10 40  1  0  0  0  0
 11 41  1  0  0  0  0
 12 42  1  0  0  0  0
 20 43  1  0  0  0  0
 20 44  1  0  0  0  0
 20 45  1  0  0  0  0
 21 46  1  0  0  0  0
 21 47  1  0  0  0  0
 21 48  1  0  0  0  0
 22 49  1  0  0  0  0
 22 50  1  0  0  0  0
 23 51  1  0  0  0  0
 27 52  1  0  0  0  0
M  END
> <clash_score>
4.085676457920602

> <docking_score>
-3.714806079864502

> <overlap_score>
0.8163690567016602

$$$$
BENZO_171_2
  -OEChem-08232013523D

 52 55  0     1  0  0  0  0  0999 V2000
    3.8860    2.1050   19.5250 C   0  0  0  0  0  0  0  0  0  0  0  0
    4.2460    1.7520   20.8250 C   0  0  0  0  0  0  0  0  0  0  0  0
    9.5890   -2.4950   23.2210 C   0  0  0  0  0  0  0  0  0  0  0  0
    8.2550   -1.0010   24.5520 C   0  0  0  0  0  0  0  0  0  0  0  0
    4.6610    1.7170   18.4380 C   0  0  0  0  0  0  0  0  0  0  0  0
    5.3890    1.0010   21.0690 C   0  0  0  0  0  0  0  0  0  0  0  0
    9.1890   -3.5540   24.0140 C   0  0  0  0  0  0  0  0  0  0  0  0
    7.8700   -2.0610   25.3550 C   0  0  0  0  0  0  0  0  0  0  0  0
   12.0260    0.4217   24.4676 C   0  0  0  0  0  0  0  0  0  0  0  0
   10.8915    1.6496   25.8958 C   0  0  0  0  0  0  0  0  0  0  0  0
    9.1280   -1.2090   23.4870 C   0  0  0  0  0  0  0  0  0  0  0  0
   10.8079    1.1067   24.6370 C   0  0  0  0  0  0  0  0  0  0  0  0
    5.7970    0.9500   18.6730 C   0  0  0  0  0  0  0  0  0  0  0  0
    6.1460    0.6070   19.9750 C   0  0  0  0  0  0  0  0  0  0  0  0
    8.3450   -3.3440   25.0980 C   0  0  0  0  0  0  0  0  0  0  0  0
    9.0430    0.2380   21.4940 C   0  0  0  0  0  0  0  0  0  0  0  0
   12.6499    1.6036   27.6803 C   0  0  0  0  0  0  0  0  0  0  0  0
    7.2615   -5.5563   25.3804 C   0  0  0  0  0  0  0  0  0  0  0  0
    8.3045   -4.4045   27.3385 C   0  0  0  0  0  0  0  0  0  0  0  0
    9.6654    1.2227   23.6555 C   0  0  0  0  0  0  0  0  0  0  0  0
    9.5820   -0.1080   22.7000 C   0  0  2  0  0  0  0  0  0  0  0  0
   12.8250    0.5191   25.5335 N   0  0  0  0  0  0  0  0  0  0  0  0
    6.7100    0.3850   17.8100 N   0  0  0  0  0  0  0  0  0  0  0  0
    7.5840   -0.2700   18.5160 N   0  0  0  0  0  0  0  0  0  0  0  0
   12.1074    1.2718   26.3847 N   0  0  0  0  0  0  0  0  0  0  0  0
    7.2710   -0.1460   19.8310 N   0  0  0  0  0  0  0  0  0  0  0  0
    8.0950   -0.7700   20.8440 N   0  0  0  0  0  0  0  0  0  0  0  0
    7.9717   -4.4175   25.9277 N   0  0  0  0  0  0  0  0  0  0  0  0
    9.2950    1.3000   20.9480 O   0  0  0  0  0  0  0  0  0  0  0  0
    2.9846    2.6932   19.3610 H   0  0  0  0  0  0  0  0  0  0  0  0
    3.6235    2.0692   21.6570 H   0  0  0  0  0  0  0  0  0  0  0  0
   10.2684   -2.6719   22.3867 H   0  0  0  0  0  0  0  0  0  0  0  0
    7.8717   -0.0016   24.7596 H   0  0  0  0  0  0  0  0  0  0  0  0
    4.3785    2.0113   17.4257 H   0  0  0  0  0  0  0  0  0  0  0  0
    5.6763    0.7332   22.0915 H   0  0  0  0  0  0  0  0  0  0  0  0
    9.5443   -4.5616   23.7817 H   0  0  0  0  0  0  0  0  0  0  0  0
    7.1921   -1.8821   26.1908 H   0  0  0  0  0  0  0  0  0  0  0  0
   12.3675   -0.1444   23.6125 H   0  0  0  0  0  0  0  0  0  0  0  0
   10.2069    2.2586   26.4705 H   0  0  0  0  0  0  0  0  0  0  0  0
   12.3490    0.8215   28.3823 H   0  0  0  0  0  0  0  0  0  0  0  0
   13.7401    1.6600   27.6150 H   0  0  0  0  0  0  0  0  0  0  0  0
   12.2595    2.5746   27.9977 H   0  0  0  0  0  0  0  0  0  0  0  0
    7.0607   -6.2832   26.1812 H   0  0  0  0  0  0  0  0  0  0  0  0
    6.3096   -5.2194   24.9441 H   0  0  0  0  0  0  0  0  0  0  0  0
    7.8750   -6.0305   24.6002 H   0  0  0  0  0  0  0  0  0  0  0  0
    7.9297   -5.3236   27.8126 H   0  0  0  0  0  0  0  0  0  0  0  0
    9.3968   -4.3501   27.4569 H   0  0  0  0  0  0  0  0  0  0  0  0
    7.8398   -3.5297   27.8167 H   0  0  0  0  0  0  0  0  0  0  0  0
    8.7459    1.4099   24.2274 H   0  0  0  0  0  0  0  0  0  0  0  0
    9.8015    2.1185   23.0351 H   0  0  0  0  0  0  0  0  0  0  0  0
   10.7408   -0.2662   22.5300 H   0  0  0  0  0  0  0  0  0  0  0  0
    8.1038   -1.6155   21.0990 H   0  0  0  0  0  0  0  0  0  0  0  0
  1  2  1  0  0  0  0
  1  5  2  0  0  0  0
  2  6  2  0  0  0  0
  3  7  2  0  0  0  0
  3 11  1  0  0  0  0
  4  8  1  0  0  0  0
  4 11  2  0  0  0  0
  5 13  1  0  0  0  0
  6 14  1  0  0  0  0
  7 15  1  0  0  0  0
  8 15  2  0  0  0  0
  9 12  1  0  0  0  0
  9 22  2  0  0  0  0
 10 12  2  0  0  0  0
 10 25  1  0  0  0  0
 11 21  1  0  0  0  0
 12 20  1  0  0  0  0
 13 14  2  0  0  0  0
 13 23  1  0  0  0  0
 14 26  1  0  0  0  0
 15 28  1  0  0  0  0
 16 21  1  0  0  0  0
 16 27  1  0  0  0  0
 16 29  2  0  0  0  0
 17 25  1  0  0  0  0
 18 28  1  0  0  0  0
 19 28  1  0  0  0  0
 20 21  1  6  0  0  0
 22 25  1  0  0  0  0
 23 24  2  0  0  0  0
 24 26  1  0  0  0  0
 26 27  1  0  0  0  0
  1 30  1  0  0  0  0
  2 31  1  0  0  0  0
  3 32  1  0  0  0  0
  4 33  1  0  0  0  0
  5 34  1  0  0  0  0
  6 35  1  0  0  0  0
  7 36  1  0  0  0  0
  8 37  1  0  0  0  0
  9 38  1  0  0  0  0
 10 39  1  0  0  0  0
 17 40  1  0  0  0  0
 17 41  1  0  0  0  0
 17 42  1  0  0  0  0
 18 43  1  0  0  0  0
 18 44  1  0  0  0  0
 18 45  1  0  0  0  0
 19 46  1  0  0  0  0
 19 47  1  0  0  0  0
 19 48  1  0  0  0  0
 20 49  1  0  0  0  0
 20 50  1  0  0  0  0
 21 51  1  0  0  0  0
 27 52  1  0  0  0  0
M  END
> <clash_score>
2.8536368907097898

> <docking_score>
-3.3779172897338867

> <overlap_score>
0.8074781894683838

$$$$
BENZO_171_1
  -OEChem-08232013523D

 52 55  0     1  0  0  0  0  0999 V2000
    3.8860    2.1050   19.5250 C   0  0  0  0  0  0  0  0  0  0  0  0
    4.2460    1.7520   20.8250 C   0  0  0  0  0  0  0  0  0  0  0  0
    9.5890   -2.4950   23.2210 C   0  0  0  0  0  0  0  0  0  0  0  0
    8.2550   -1.0010   24.5520 C   0  0  0  0  0  0  0  0  0  0  0  0
    4.6610    1.7170   18.4380 C   0  0  0  0  0  0  0  0  0  0  0  0
    5.3890    1.0010   21.0690 C   0  0  0  0  0  0  0  0  0  0  0  0
    9.1890   -3.5540   24.0140 C   0  0  0  0  0  0  0  0  0  0  0  0
    7.8700   -2.0610   25.3550 C   0  0  0  0  0  0  0  0  0  0  0  0
   13.2198   -1.0300   24.0348 C   0  0  0  0  0  0  0  0  0  0  0  0
   11.6457    0.0746   25.1011 C   0  0  0  0  0  0  0  0  0  0  0  0
    9.1280   -1.2090   23.4870 C   0  0  0  0  0  0  0  0  0  0  0  0
   11.9876   -0.3748   23.8491 C   0  0  0  0  0  0  0  0  0  0  0  0
    5.7970    0.9500   18.6730 C   0  0  0  0  0  0  0  0  0  0  0  0
    6.1460    0.6070   19.9750 C   0  0  0  0  0  0  0  0  0  0  0  0
    8.3450   -3.3440   25.0980 C   0  0  0  0  0  0  0  0  0  0  0  0
    9.0430    0.2380   21.4940 C   0  0  0  0  0  0  0  0  0  0  0  0
   12.7431   -0.0808   27.3484 C   0  0  0  0  0  0  0  0  0  0  0  0
    7.2615   -5.5563   25.3804 C   0  0  0  0  0  0  0  0  0  0  0  0
    8.3045   -4.4045   27.3385 C   0  0  0  0  0  0  0  0  0  0  0  0
   11.2147   -0.2012   22.5629 C   0  0  0  0  0  0  0  0  0  0  0  0
    9.5820   -0.1080   22.7000 C   0  0  1  0  0  0  0  0  0  0  0  0
   13.6327   -1.0014   25.3047 N   0  0  0  0  0  0  0  0  0  0  0  0
    6.7100    0.3850   17.8100 N   0  0  0  0  0  0  0  0  0  0  0  0
    7.5840   -0.2700   18.5160 N   0  0  0  0  0  0  0  0  0  0  0  0
   12.6546   -0.3228   25.9283 N   0  0  0  0  0  0  0  0  0  0  0  0
    7.2710   -0.1460   19.8310 N   0  0  0  0  0  0  0  0  0  0  0  0
    8.0950   -0.7700   20.8440 N   0  0  0  0  0  0  0  0  0  0  0  0
    7.9717   -4.4175   25.9277 N   0  0  0  0  0  0  0  0  0  0  0  0
    9.2950    1.3000   20.9480 O   0  0  0  0  0  0  0  0  0  0  0  0
    2.9846    2.6932   19.3610 H   0  0  0  0  0  0  0  0  0  0  0  0
    3.6235    2.0692   21.6570 H   0  0  0  0  0  0  0  0  0  0  0  0
   10.2684   -2.6719   22.3867 H   0  0  0  0  0  0  0  0  0  0  0  0
    7.8717   -0.0016   24.7596 H   0  0  0  0  0  0  0  0  0  0  0  0
    4.3785    2.0113   17.4257 H   0  0  0  0  0  0  0  0  0  0  0  0
    5.6763    0.7332   22.0915 H   0  0  0  0  0  0  0  0  0  0  0  0
    9.5443   -4.5616   23.7817 H   0  0  0  0  0  0  0  0  0  0  0  0
    7.1921   -1.8821   26.1908 H   0  0  0  0  0  0  0  0  0  0  0  0
   13.8362   -1.5269   23.2991 H   0  0  0  0  0  0  0  0  0  0  0  0
   10.7922    0.6307   25.4646 H   0  0  0  0  0  0  0  0  0  0  0  0
   12.2620   -0.9164   27.8636 H   0  0  0  0  0  0  0  0  0  0  0  0
   13.7943   -0.0060   27.6402 H   0  0  0  0  0  0  0  0  0  0  0  0
   12.2374    0.8590   27.5870 H   0  0  0  0  0  0  0  0  0  0  0  0
    7.0607   -6.2832   26.1812 H   0  0  0  0  0  0  0  0  0  0  0  0
    6.3096   -5.2194   24.9441 H   0  0  0  0  0  0  0  0  0  0  0  0
    7.8750   -6.0305   24.6002 H   0  0  0  0  0  0  0  0  0  0  0  0
    7.9297   -5.3236   27.8126 H   0  0  0  0  0  0  0  0  0  0  0  0
    9.3968   -4.3501   27.4569 H   0  0  0  0  0  0  0  0  0  0  0  0
    7.8398   -3.5297   27.8167 H   0  0  0  0  0  0  0  0  0  0  0  0
   11.6025    0.6918   22.0532 H   0  0  0  0  0  0  0  0  0  0  0  0
   11.4368   -1.0349   21.8836 H   0  0  0  0  0  0  0  0  0  0  0  0
    9.5277    0.8495   23.3908 H   0  0  0  0  0  0  0  0  0  0  0  0
    8.1038   -1.6155   21.0990 H   0  0  0  0  0  0  0  0  0  0  0  0
  1  2  1  0  0  0  0
  1  5  2  0  0  0  0
  2  6  2  0  0  0  0
  3  7  2  0  0  0  0
  3 11  1  0  0  0  0
  4  8  1  0  0  0  0
  4 11  2  0  0  0  0
  5 13  1  0  0  0  0
  6 14  1  0  0  0  0
  7 15  1  0  0  0  0
  8 15  2  0  0  0  0
  9 12  1  0  0  0  0
  9 22  2  0  0  0  0
 10 12  2  0  0  0  0
 10 25  1  0  0  0  0
 11 21  1  0  0  0  0
 12 20  1  0  0  0  0
 13 14  2  0  0  0  0
 13 23  1  0  0  0  0
 14 26  1  0  0  0  0
 15 28  1  0  0  0  0
 16 21  1  0  0  0  0
 16 27  1  0  0  0  0
 16 29  2  0  0  0  0
 17 25  1  0  0  0  0
 18 28  1  0  0  0  0
 19 28  1  0  0  0  0
 20 21  1  1  0  0  0
 22 25  1  0  0  0  0
 23 24  2  0  0  0  0
 24 26  1  0  0  0  0
 26 27  1  0  0  0  0
  1 30  1  0  0  0  0
  2 31  1  0  0  0  0
  3 32  1  0  0  0  0
  4 33  1  0  0  0  0
  5 34  1  0  0  0  0
  6 35  1  0  0  0  0
  7 36  1  0  0  0  0
  8 37  1  0  0  0  0
  9 38  1  0  0  0  0
 10 39  1  0  0  0  0
 17 40  1  0  0  0  0
 17 41  1  0  0  0  0
 17 42  1  0  0  0  0
 18 43  1  0  0  0  0
 18 44  1  0  0  0  0
 18 45  1  0  0  0  0
 19 46  1  0  0  0  0
 19 47  1  0  0  0  0
 19 48  1  0  0  0  0
 20 49  1  0  0  0  0
 20 50  1  0  0  0  0
 21 51  1  0  0  0  0
 27 52  1  0  0  0  0
M  END
> <clash_score>
0

> <docking_score>
-5.657430648803711

> <overlap_score>
0.8792208433151245

$$$$
BENZO_173_2
  -OEChem-08232013523D

 54 57  0     1  0  0  0  0  0999 V2000
   12.7150    3.9139   22.2588 C   0  0  0  0  0  0  0  0  0  0  0  0
   13.0320    2.9226   23.1875 C   0  0  0  0  0  0  0  0  0  0  0  0
   11.4089    4.0323   21.7835 C   0  0  0  0  0  0  0  0  0  0  0  0
    3.8860    2.1050   19.5250 C   0  0  0  0  0  0  0  0  0  0  0  0
    4.2460    1.7520   20.8250 C   0  0  0  0  0  0  0  0  0  0  0  0
   12.0430    2.0496   23.6407 C   0  0  0  0  0  0  0  0  0  0  0  0
   10.4200    3.1593   22.2367 C   0  0  0  0  0  0  0  0  0  0  0  0
    9.5890   -2.4950   23.2210 C   0  0  0  0  0  0  0  0  0  0  0  0
    8.2550   -1.0010   24.5520 C   0  0  0  0  0  0  0  0  0  0  0  0
    4.6610    1.7170   18.4380 C   0  0  0  0  0  0  0  0  0  0  0  0
    5.3890    1.0010   21.0690 C   0  0  0  0  0  0  0  0  0  0  0  0
    9.1890   -3.5540   24.0140 C   0  0  0  0  0  0  0  0  0  0  0  0
    7.8700   -2.0610   25.3550 C   0  0  0  0  0  0  0  0  0  0  0  0
   10.7369    2.1679   23.1653 C   0  0  0  0  0  0  0  0  0  0  0  0
    9.1280   -1.2090   23.4870 C   0  0  0  0  0  0  0  0  0  0  0  0
    5.7970    0.9500   18.6730 C   0  0  0  0  0  0  0  0  0  0  0  0
    6.1460    0.6070   19.9750 C   0  0  0  0  0  0  0  0  0  0  0  0
    8.3450   -3.3440   25.0980 C   0  0  0  0  0  0  0  0  0  0  0  0
    8.2026   -4.5566   27.2975 C   0  0  0  0  0  0  0  0  0  0  0  0
    9.0430    0.2380   21.4940 C   0  0  0  0  0  0  0  0  0  0  0  0
    7.8889   -6.0881   29.2879 C   0  0  0  0  0  0  0  0  0  0  0  0
    9.6654    1.2227   23.6555 C   0  0  0  0  0  0  0  0  0  0  0  0
    7.6343   -5.8728   27.8068 C   0  0  0  0  0  0  0  0  0  0  0  0
    9.5820   -0.1080   22.7000 C   0  0  2  0  0  0  0  0  0  0  0  0
    6.7100    0.3850   17.8100 N   0  0  0  0  0  0  0  0  0  0  0  0
    7.5840   -0.2700   18.5160 N   0  0  0  0  0  0  0  0  0  0  0  0
    7.2710   -0.1460   19.8310 N   0  0  0  0  0  0  0  0  0  0  0  0
    7.9771   -4.4057   25.9197 N   0  0  0  0  0  0  0  0  0  0  0  0
    8.0950   -0.7700   20.8440 N   0  0  0  0  0  0  0  0  0  0  0  0
    8.7749   -3.7648   28.0392 O   0  0  0  0  0  0  0  0  0  0  0  0
    9.2950    1.3000   20.9480 O   0  0  0  0  0  0  0  0  0  0  0  0
   13.4849    4.5944   21.9071 H   0  0  0  0  0  0  0  0  0  0  0  0
   14.0486    2.8309   23.5586 H   0  0  0  0  0  0  0  0  0  0  0  0
   11.1616    4.8047   21.0613 H   0  0  0  0  0  0  0  0  0  0  0  0
    2.9846    2.6932   19.3610 H   0  0  0  0  0  0  0  0  0  0  0  0
    3.6235    2.0692   21.6570 H   0  0  0  0  0  0  0  0  0  0  0  0
   12.2992    1.2800   24.3642 H   0  0  0  0  0  0  0  0  0  0  0  0
    9.4052    3.2589   21.8606 H   0  0  0  0  0  0  0  0  0  0  0  0
   10.2695   -2.6718   22.3873 H   0  0  0  0  0  0  0  0  0  0  0  0
    7.8712   -0.0014   24.7587 H   0  0  0  0  0  0  0  0  0  0  0  0
    4.3785    2.0113   17.4257 H   0  0  0  0  0  0  0  0  0  0  0  0
    5.6763    0.7332   22.0915 H   0  0  0  0  0  0  0  0  0  0  0  0
    9.5431   -4.5618   23.7801 H   0  0  0  0  0  0  0  0  0  0  0  0
    7.1923   -1.8823   26.1912 H   0  0  0  0  0  0  0  0  0  0  0  0
    8.9617   -6.0835   29.5073 H   0  0  0  0  0  0  0  0  0  0  0  0
    7.4783   -7.0503   29.6092 H   0  0  0  0  0  0  0  0  0  0  0  0
    7.4206   -5.2995   29.8861 H   0  0  0  0  0  0  0  0  0  0  0  0
    9.8736    0.9928   24.7097 H   0  0  0  0  0  0  0  0  0  0  0  0
    8.6951    1.7368   23.6631 H   0  0  0  0  0  0  0  0  0  0  0  0
    6.5549   -5.8820   27.6165 H   0  0  0  0  0  0  0  0  0  0  0  0
    8.0869   -6.6912   27.2352 H   0  0  0  0  0  0  0  0  0  0  0  0
   10.7408   -0.2662   22.5300 H   0  0  0  0  0  0  0  0  0  0  0  0
    7.4775   -5.1797   25.4665 H   0  0  0  0  0  0  0  0  0  0  0  0
    8.1038   -1.6155   21.0990 H   0  0  0  0  0  0  0  0  0  0  0  0
  1  2  1  0  0  0  0
  1  3  2  0  0  0  0
  2  6  2  0  0  0  0
  3  7  1  0  0  0  0
  4  5  1  0  0  0  0
  4 10  2  0  0  0  0
  5 11  2  0  0  0  0
  6 14  1  0  0  0  0
  7 14  2  0  0  0  0
  8 12  2  0  0  0  0
  8 15  1  0  0  0  0
  9 13  1  0  0  0  0
  9 15  2  0  0  0  0
 10 16  1  0  0  0  0
 11 17  1  0  0  0  0
 12 18  1  0  0  0  0
 13 18  2  0  0  0  0
 14 22  1  0  0  0  0
 15 24  1  0  0  0  0
 16 17  2  0  0  0  0
 16 25  1  0  0  0  0
 17 27  1  0  0  0  0
 18 28  1  0  0  0  0
 19 23  1  0  0  0  0
 19 28  1  0  0  0  0
 19 30  2  0  0  0  0
 20 24  1  0  0  0  0
 20 29  1  0  0  0  0
 20 31  2  0  0  0  0
 21 23  1  0  0  0  0
 22 24  1  6  0  0  0
 25 26  2  0  0  0  0
 26 27  1  0  0  0  0
 27 29  1  0  0  0  0
  1 32  1  0  0  0  0
  2 33  1  0  0  0  0
  3 34  1  0  0  0  0
  4 35  1  0  0  0  0
  5 36  1  0  0  0  0
  6 37  1  0  0  0  0
  7 38  1  0  0  0  0
  8 39  1  0  0  0  0
  9 40  1  0  0  0  0
 10 41  1  0  0  0  0
 11 42  1  0  0  0  0
 12 43  1  0  0  0  0
 13 44  1  0  0  0  0
 21 45  1  0  0  0  0
 21 46  1  0  0  0  0
 21 47  1  0  0  0  0
 22 48  1  0  0  0  0
 22 49  1  0  0  0  0
 23 50  1  0  0  0  0
 23 51  1  0  0  0  0
 24 52  1  0  0  0  0
 28 53  1  0  0  0  0
 29 54  1  0  0  0  0
M  END
> <clash_score>
0

> <docking_score>
-6.401942729949951

> <overlap_score>
0.841859757900238

$$$$
BENZO_172_1
  -OEChem-08232013523D

 51 54  0     1  0  0  0  0  0999 V2000
    3.8860    2.1050   19.5250 C   0  0  0  0  0  0  0  0  0  0  0  0
    4.2460    1.7520   20.8250 C   0  0  0  0  0  0  0  0  0  0  0  0
    9.5890   -2.4950   23.2210 C   0  0  0  0  0  0  0  0  0  0  0  0
    8.2550   -1.0010   24.5520 C   0  0  0  0  0  0  0  0  0  0  0  0
    4.6610    1.7170   18.4380 C   0  0  0  0  0  0  0  0  0  0  0  0
    5.3890    1.0010   21.0690 C   0  0  0  0  0  0  0  0  0  0  0  0
    9.1890   -3.5540   24.0140 C   0  0  0  0  0  0  0  0  0  0  0  0
    7.8700   -2.0610   25.3550 C   0  0  0  0  0  0  0  0  0  0  0  0
   13.2367   -0.5537   24.1440 C   0  0  0  0  0  0  0  0  0  0  0  0
   13.7547   -0.1001   25.3371 C   0  0  0  0  0  0  0  0  0  0  0  0
   11.6391    1.0163   24.7648 C   0  0  0  0  0  0  0  0  0  0  0  0
    9.1280   -1.2090   23.4870 C   0  0  0  0  0  0  0  0  0  0  0  0
   12.0113    0.0931   23.8123 C   0  0  0  0  0  0  0  0  0  0  0  0
    5.7970    0.9500   18.6730 C   0  0  0  0  0  0  0  0  0  0  0  0
    6.1460    0.6070   19.9750 C   0  0  0  0  0  0  0  0  0  0  0  0
    8.3450   -3.3440   25.0980 C   0  0  0  0  0  0  0  0  0  0  0  0
    7.6607   -4.3765   27.2876 C   0  0  0  0  0  0  0  0  0  0  0  0
    9.0430    0.2380   21.4940 C   0  0  0  0  0  0  0  0  0  0  0  0
    6.9961   -5.7803   29.2859 C   0  0  0  0  0  0  0  0  0  0  0  0
   11.2147   -0.2012   22.5629 C   0  0  0  0  0  0  0  0  0  0  0  0
    7.3113   -5.7655   27.8009 C   0  0  0  0  0  0  0  0  0  0  0  0
    9.5820   -0.1080   22.7000 C   0  0  1  0  0  0  0  0  0  0  0  0
    6.7100    0.3850   17.8100 N   0  0  0  0  0  0  0  0  0  0  0  0
    7.5840   -0.2700   18.5160 N   0  0  0  0  0  0  0  0  0  0  0  0
    7.2710   -0.1460   19.8310 N   0  0  0  0  0  0  0  0  0  0  0  0
    7.9771   -4.4057   25.9197 N   0  0  0  0  0  0  0  0  0  0  0  0
    8.0950   -0.7700   20.8440 N   0  0  0  0  0  0  0  0  0  0  0  0
    7.6510   -3.3914   28.0184 O   0  0  0  0  0  0  0  0  0  0  0  0
    9.2950    1.3000   20.9480 O   0  0  0  0  0  0  0  0  0  0  0  0
   12.7651    1.1006   26.0522 S   0  0  0  0  0  0  0  0  0  0  0  0
    2.9846    2.6932   19.3610 H   0  0  0  0  0  0  0  0  0  0  0  0
    3.6235    2.0692   21.6570 H   0  0  0  0  0  0  0  0  0  0  0  0
   10.2695   -2.6718   22.3873 H   0  0  0  0  0  0  0  0  0  0  0  0
    7.8712   -0.0014   24.7587 H   0  0  0  0  0  0  0  0  0  0  0  0
    4.3785    2.0113   17.4257 H   0  0  0  0  0  0  0  0  0  0  0  0
    5.6763    0.7332   22.0915 H   0  0  0  0  0  0  0  0  0  0  0  0
    9.5431   -4.5618   23.7801 H   0  0  0  0  0  0  0  0  0  0  0  0
    7.1923   -1.8823   26.1912 H   0  0  0  0  0  0  0  0  0  0  0  0
   13.7173   -1.3138   23.5411 H   0  0  0  0  0  0  0  0  0  0  0  0
   14.6665   -0.4168   25.8235 H   0  0  0  0  0  0  0  0  0  0  0  0
   10.7604    1.6463   24.7706 H   0  0  0  0  0  0  0  0  0  0  0  0
    7.8457   -5.4146   29.8719 H   0  0  0  0  0  0  0  0  0  0  0  0
    6.7654   -6.7977   29.6164 H   0  0  0  0  0  0  0  0  0  0  0  0
    6.1341   -5.1438   29.5113 H   0  0  0  0  0  0  0  0  0  0  0  0
   11.5664    0.4743   21.7706 H   0  0  0  0  0  0  0  0  0  0  0  0
   11.4535   -1.2106   22.2023 H   0  0  0  0  0  0  0  0  0  0  0  0
    6.4454   -6.1356   27.2399 H   0  0  0  0  0  0  0  0  0  0  0  0
    8.1569   -6.4333   27.5999 H   0  0  0  0  0  0  0  0  0  0  0  0
    9.5277    0.8495   23.3908 H   0  0  0  0  0  0  0  0  0  0  0  0
    7.9296   -5.3298   25.4749 H   0  0  0  0  0  0  0  0  0  0  0  0
    8.1038   -1.6155   21.0990 H   0  0  0  0  0  0  0  0  0  0  0  0
  1  2  1  0  0  0  0
  1  5  2  0  0  0  0
  2  6  2  0  0  0  0
  3  7  2  0  0  0  0
  3 12  1  0  0  0  0
  4  8  1  0  0  0  0
  4 12  2  0  0  0  0
  5 14  1  0  0  0  0
  6 15  1  0  0  0  0
  7 16  1  0  0  0  0
  8 16  2  0  0  0  0
  9 10  2  0  0  0  0
  9 13  1  0  0  0  0
 10 30  1  0  0  0  0
 11 13  2  0  0  0  0
 11 30  1  0  0  0  0
 12 22  1  0  0  0  0
 13 20  1  0  0  0  0
 14 15  2  0  0  0  0
 14 23  1  0  0  0  0
 15 25  1  0  0  0  0
 16 26  1  0  0  0  0
 17 21  1  0  0  0  0
 17 26  1  0  0  0  0
 17 28  2  0  0  0  0
 18 22  1  0  0  0  0
 18 27  1  0  0  0  0
 18 29  2  0  0  0  0
 19 21  1  0  0  0  0
 20 22  1  1  0  0  0
 23 24  2  0  0  0  0
 24 25  1  0  0  0  0
 25 27  1  0  0  0  0
  1 31  1  0  0  0  0
  2 32  1  0  0  0  0
  3 33  1  0  0  0  0
  4 34  1  0  0  0  0
  5 35  1  0  0  0  0
  6 36  1  0  0  0  0
  7 37  1  0  0  0  0
  8 38  1  0  0  0  0
  9 39  1  0  0  0  0
 10 40  1  0  0  0  0
 11 41  1  0  0  0  0
 19 42  1  0  0  0  0
 19 43  1  0  0  0  0
 19 44  1  0  0  0  0
 20 45  1  0  0  0  0
 20 46  1  0  0  0  0
 21 47  1  0  0  0  0
 21 48  1  0  0  0  0
 22 49  1  0  0  0  0
 26 50  1  0  0  0  0
 27 51  1  0  0  0  0
M  END
> <clash_score>
0.7211222562391197

> <docking_score>
-6.904574871063232

> <overlap_score>
0.9143292903900146

$$$$
BENZO_173_1
  -OEChem-08232013523D

 54 57  0     1  0  0  0  0  0999 V2000
   13.4143   -0.6944   26.2251 C   0  0  0  0  0  0  0  0  0  0  0  0
   13.9152   -1.2211   25.0346 C   0  0  0  0  0  0  0  0  0  0  0  0
   12.2000   -0.0079   26.2276 C   0  0  0  0  0  0  0  0  0  0  0  0
    3.8860    2.1050   19.5250 C   0  0  0  0  0  0  0  0  0  0  0  0
    4.2460    1.7520   20.8250 C   0  0  0  0  0  0  0  0  0  0  0  0
   13.2019   -1.0613   23.8466 C   0  0  0  0  0  0  0  0  0  0  0  0
   11.4867    0.1519   25.0397 C   0  0  0  0  0  0  0  0  0  0  0  0
    9.5890   -2.4950   23.2210 C   0  0  0  0  0  0  0  0  0  0  0  0
    8.2550   -1.0010   24.5520 C   0  0  0  0  0  0  0  0  0  0  0  0
    4.6610    1.7170   18.4380 C   0  0  0  0  0  0  0  0  0  0  0  0
    5.3890    1.0010   21.0690 C   0  0  0  0  0  0  0  0  0  0  0  0
    9.1890   -3.5540   24.0140 C   0  0  0  0  0  0  0  0  0  0  0  0
    7.8700   -2.0610   25.3550 C   0  0  0  0  0  0  0  0  0  0  0  0
   11.9876   -0.3748   23.8491 C   0  0  0  0  0  0  0  0  0  0  0  0
    9.1280   -1.2090   23.4870 C   0  0  0  0  0  0  0  0  0  0  0  0
    5.7970    0.9500   18.6730 C   0  0  0  0  0  0  0  0  0  0  0  0
    6.1460    0.6070   19.9750 C   0  0  0  0  0  0  0  0  0  0  0  0
    8.3450   -3.3440   25.0980 C   0  0  0  0  0  0  0  0  0  0  0  0
    8.2026   -4.5566   27.2975 C   0  0  0  0  0  0  0  0  0  0  0  0
    9.0430    0.2380   21.4940 C   0  0  0  0  0  0  0  0  0  0  0  0
    7.8889   -6.0881   29.2879 C   0  0  0  0  0  0  0  0  0  0  0  0
   11.2147   -0.2012   22.5629 C   0  0  0  0  0  0  0  0  0  0  0  0
    7.6343   -5.8728   27.8068 C   0  0  0  0  0  0  0  0  0  0  0  0
    9.5820   -0.1080   22.7000 C   0  0  1  0  0  0  0  0  0  0  0  0
    6.7100    0.3850   17.8100 N   0  0  0  0  0  0  0  0  0  0  0  0
    7.5840   -0.2700   18.5160 N   0  0  0  0  0  0  0  0  0  0  0  0
    7.2710   -0.1460   19.8310 N   0  0  0  0  0  0  0  0  0  0  0  0
    7.9771   -4.4057   25.9197 N   0  0  0  0  0  0  0  0  0  0  0  0
    8.0950   -0.7700   20.8440 N   0  0  0  0  0  0  0  0  0  0  0  0
    8.7749   -3.7648   28.0392 O   0  0  0  0  0  0  0  0  0  0  0  0
    9.2950    1.3000   20.9480 O   0  0  0  0  0  0  0  0  0  0  0  0
   13.9692   -0.8201   27.1503 H   0  0  0  0  0  0  0  0  0  0  0  0
   14.8602   -1.7566   25.0326 H   0  0  0  0  0  0  0  0  0  0  0  0
   11.8092    0.4013   27.1545 H   0  0  0  0  0  0  0  0  0  0  0  0
    2.9846    2.6932   19.3610 H   0  0  0  0  0  0  0  0  0  0  0  0
    3.6235    2.0692   21.6570 H   0  0  0  0  0  0  0  0  0  0  0  0
   13.6000   -1.4749   22.9238 H   0  0  0  0  0  0  0  0  0  0  0  0
   10.5416    0.6883   25.0512 H   0  0  0  0  0  0  0  0  0  0  0  0
   10.2695   -2.6718   22.3873 H   0  0  0  0  0  0  0  0  0  0  0  0
    7.8712   -0.0014   24.7587 H   0  0  0  0  0  0  0  0  0  0  0  0
    4.3785    2.0113   17.4257 H   0  0  0  0  0  0  0  0  0  0  0  0
    5.6763    0.7332   22.0915 H   0  0  0  0  0  0  0  0  0  0  0  0
    9.5431   -4.5618   23.7801 H   0  0  0  0  0  0  0  0  0  0  0  0
    7.1923   -1.8823   26.1912 H   0  0  0  0  0  0  0  0  0  0  0  0
    8.9617   -6.0835   29.5073 H   0  0  0  0  0  0  0  0  0  0  0  0
    7.4783   -7.0503   29.6092 H   0  0  0  0  0  0  0  0  0  0  0  0
    7.4206   -5.2995   29.8861 H   0  0  0  0  0  0  0  0  0  0  0  0
   11.6025    0.6918   22.0532 H   0  0  0  0  0  0  0  0  0  0  0  0
   11.4368   -1.0349   21.8836 H   0  0  0  0  0  0  0  0  0  0  0  0
    6.5549   -5.8820   27.6165 H   0  0  0  0  0  0  0  0  0  0  0  0
    8.0869   -6.6912   27.2352 H   0  0  0  0  0  0  0  0  0  0  0  0
    9.5277    0.8495   23.3908 H   0  0  0  0  0  0  0  0  0  0  0  0
    7.4775   -5.1797   25.4665 H   0  0  0  0  0  0  0  0  0  0  0  0
    8.1038   -1.6155   21.0990 H   0  0  0  0  0  0  0  0  0  0  0  0
  1  2  1  0  0  0  0
  1  3  2  0  0  0  0
  2  6  2  0  0  0  0
  3  7  1  0  0  0  0
  4  5  1  0  0  0  0
  4 10  2  0  0  0  0
  5 11  2  0  0  0  0
  6 14  1  0  0  0  0
  7 14  2  0  0  0  0
  8 12  2  0  0  0  0
  8 15  1  0  0  0  0
  9 13  1  0  0  0  0
  9 15  2  0  0  0  0
 10 16  1  0  0  0  0
 11 17  1  0  0  0  0
 12 18  1  0  0  0  0
 13 18  2  0  0  0  0
 14 22  1  0  0  0  0
 15 24  1  0  0  0  0
 16 17  2  0  0  0  0
 16 25  1  0  0  0  0
 17 27  1  0  0  0  0
 18 28  1  0  0  0  0
 19 23  1  0  0  0  0
 19 28  1  0  0  0  0
 19 30  2  0  0  0  0
 20 24  1  0  0  0  0
 20 29  1  0  0  0  0
 20 31  2  0  0  0  0
 21 23  1  0  0  0  0
 22 24  1  1  0  0  0
 25 26  2  0  0  0  0
 26 27  1  0  0  0  0
 27 29  1  0  0  0  0
  1 32  1  0  0  0  0
  2 33  1  0  0  0  0
  3 34  1  0  0  0  0
  4 35  1  0  0  0  0
  5 36  1  0  0  0  0
  6 37  1  0  0  0  0
  7 38  1  0  0  0  0
  8 39  1  0  0  0  0
  9 40  1  0  0  0  0
 10 41  1  0  0  0  0
 11 42  1  0  0  0  0
 12 43  1  0  0  0  0
 13 44  1  0  0  0  0
 21 45  1  0  0  0  0
 21 46  1  0  0  0  0
 21 47  1  0  0  0  0
 22 48  1  0  0  0  0
 22 49  1  0  0  0  0
 23 50  1  0  0  0  0
 23 51  1  0  0  0  0
 24 52  1  0  0  0  0
 28 53  1  0  0  0  0
 29 54  1  0  0  0  0
M  END
> <clash_score>
0

> <docking_score>
-6.245016574859619

> <overlap_score>
0.9402901530265808

$$$$
BENZO_172_2
  -OEChem-08232013523D

 51 54  0     1  0  0  0  0  0999 V2000
    3.8860    2.1050   19.5250 C   0  0  0  0  0  0  0  0  0  0  0  0
    4.2460    1.7520   20.8250 C   0  0  0  0  0  0  0  0  0  0  0  0
    9.5890   -2.4950   23.2210 C   0  0  0  0  0  0  0  0  0  0  0  0
    8.2550   -1.0010   24.5520 C   0  0  0  0  0  0  0  0  0  0  0  0
    4.6610    1.7170   18.4380 C   0  0  0  0  0  0  0  0  0  0  0  0
    5.3890    1.0010   21.0690 C   0  0  0  0  0  0  0  0  0  0  0  0
    9.1890   -3.5540   24.0140 C   0  0  0  0  0  0  0  0  0  0  0  0
    7.8700   -2.0610   25.3550 C   0  0  0  0  0  0  0  0  0  0  0  0
   12.1596    0.8633   24.2577 C   0  0  0  0  0  0  0  0  0  0  0  0
   12.9999    0.8027   25.3475 C   0  0  0  0  0  0  0  0  0  0  0  0
   10.6666    1.2226   26.0024 C   0  0  0  0  0  0  0  0  0  0  0  0
    9.1280   -1.2090   23.4870 C   0  0  0  0  0  0  0  0  0  0  0  0
   10.8079    1.1067   24.6369 C   0  0  0  0  0  0  0  0  0  0  0  0
    5.7970    0.9500   18.6730 C   0  0  0  0  0  0  0  0  0  0  0  0
    6.1460    0.6070   19.9750 C   0  0  0  0  0  0  0  0  0  0  0  0
    8.3450   -3.3440   25.0980 C   0  0  0  0  0  0  0  0  0  0  0  0
    8.2026   -4.5566   27.2975 C   0  0  0  0  0  0  0  0  0  0  0  0
    9.0430    0.2380   21.4940 C   0  0  0  0  0  0  0  0  0  0  0  0
    7.8889   -6.0881   29.2879 C   0  0  0  0  0  0  0  0  0  0  0  0
    9.6654    1.2227   23.6555 C   0  0  0  0  0  0  0  0  0  0  0  0
    7.6343   -5.8728   27.8068 C   0  0  0  0  0  0  0  0  0  0  0  0
    9.5820   -0.1080   22.7000 C   0  0  2  0  0  0  0  0  0  0  0  0
    6.7100    0.3850   17.8100 N   0  0  0  0  0  0  0  0  0  0  0  0
    7.5840   -0.2700   18.5160 N   0  0  0  0  0  0  0  0  0  0  0  0
    7.2710   -0.1460   19.8310 N   0  0  0  0  0  0  0  0  0  0  0  0
    7.9771   -4.4057   25.9197 N   0  0  0  0  0  0  0  0  0  0  0  0
    8.0950   -0.7700   20.8440 N   0  0  0  0  0  0  0  0  0  0  0  0
    8.7749   -3.7648   28.0392 O   0  0  0  0  0  0  0  0  0  0  0  0
    9.2950    1.3000   20.9480 O   0  0  0  0  0  0  0  0  0  0  0  0
   12.1595    1.0385   26.8207 S   0  0  0  0  0  0  0  0  0  0  0  0
    2.9846    2.6932   19.3610 H   0  0  0  0  0  0  0  0  0  0  0  0
    3.6235    2.0692   21.6570 H   0  0  0  0  0  0  0  0  0  0  0  0
   10.2695   -2.6718   22.3873 H   0  0  0  0  0  0  0  0  0  0  0  0
    7.8712   -0.0014   24.7587 H   0  0  0  0  0  0  0  0  0  0  0  0
    4.3785    2.0113   17.4257 H   0  0  0  0  0  0  0  0  0  0  0  0
    5.6763    0.7332   22.0915 H   0  0  0  0  0  0  0  0  0  0  0  0
    9.5431   -4.5618   23.7801 H   0  0  0  0  0  0  0  0  0  0  0  0
    7.1923   -1.8823   26.1912 H   0  0  0  0  0  0  0  0  0  0  0  0
   12.5025    0.7379   23.2384 H   0  0  0  0  0  0  0  0  0  0  0  0
   14.0670    0.6304   25.3492 H   0  0  0  0  0  0  0  0  0  0  0  0
    9.7601    1.4054   26.5626 H   0  0  0  0  0  0  0  0  0  0  0  0
    8.9617   -6.0835   29.5073 H   0  0  0  0  0  0  0  0  0  0  0  0
    7.4783   -7.0503   29.6092 H   0  0  0  0  0  0  0  0  0  0  0  0
    7.4206   -5.2995   29.8861 H   0  0  0  0  0  0  0  0  0  0  0  0
    8.7459    1.4099   24.2274 H   0  0  0  0  0  0  0  0  0  0  0  0
    9.8015    2.1185   23.0351 H   0  0  0  0  0  0  0  0  0  0  0  0
    6.5549   -5.8820   27.6165 H   0  0  0  0  0  0  0  0  0  0  0  0
    8.0869   -6.6912   27.2352 H   0  0  0  0  0  0  0  0  0  0  0  0
   10.7408   -0.2662   22.5300 H   0  0  0  0  0  0  0  0  0  0  0  0
    7.4775   -5.1797   25.4665 H   0  0  0  0  0  0  0  0  0  0  0  0
    8.1038   -1.6155   21.0990 H   0  0  0  0  0  0  0  0  0  0  0  0
  1  2  1  0  0  0  0
  1  5  2  0  0  0  0
  2  6  2  0  0  0  0
  3  7  2  0  0  0  0
  3 12  1  0  0  0  0
  4  8  1  0  0  0  0
  4 12  2  0  0  0  0
  5 14  1  0  0  0  0
  6 15  1  0  0  0  0
  7 16  1  0  0  0  0
  8 16  2  0  0  0  0
  9 10  2  0  0  0  0
  9 13  1  0  0  0  0
 10 30  1  0  0  0  0
 11 13  2  0  0  0  0
 11 30  1  0  0  0  0
 12 22  1  0  0  0  0
 13 20  1  0  0  0  0
 14 15  2  0  0  0  0
 14 23  1  0  0  0  0
 15 25  1  0  0  0  0
 16 26  1  0  0  0  0
 17 21  1  0  0  0  0
 17 26  1  0  0  0  0
 17 28  2  0  0  0  0
 18 22  1  0  0  0  0
 18 27  1  0  0  0  0
 18 29  2  0  0  0  0
 19 21  1  0  0  0  0
 20 22  1  6  0  0  0
 23 24  2  0  0  0  0
 24 25  1  0  0  0  0
 25 27  1  0  0  0  0
  1 31  1  0  0  0  0
  2 32  1  0  0  0  0
  3 33  1  0  0  0  0
  4 34  1  0  0  0  0
  5 35  1  0  0  0  0
  6 36  1  0  0  0  0
  7 37  1  0  0  0  0
  8 38  1  0  0  0  0
  9 39  1  0  0  0  0
 10 40  1  0  0  0  0
 11 41  1  0  0  0  0
 19 42  1  0  0  0  0
 19 43  1  0  0  0  0
 19 44  1  0  0  0  0
 20 45  1  0  0  0  0
 20 46  1  0  0  0  0
 21 47  1  0  0  0  0
 21 48  1  0  0  0  0
 22 49  1  0  0  0  0
 26 50  1  0  0  0  0
 27 51  1  0  0  0  0
M  END
> <clash_score>
1.3866782555117099

> <docking_score>
-4.801717281341553

> <overlap_score>
0.8631049990653992

$$$$
BENZO_174_2
  -OEChem-08232013523D

 54 57  0     1  0  0  0  0  0999 V2000
    3.8860    2.1050   19.5250 C   0  0  0  0  0  0  0  0  0  0  0  0
    4.2460    1.7520   20.8250 C   0  0  0  0  0  0  0  0  0  0  0  0
   13.0328    2.9197   23.1878 C   0  0  0  0  0  0  0  0  0  0  0  0
   12.0427    2.0479   23.6409 C   0  0  0  0  0  0  0  0  0  0  0  0
    9.5890   -2.4950   23.2210 C   0  0  0  0  0  0  0  0  0  0  0  0
    8.2550   -1.0010   24.5520 C   0  0  0  0  0  0  0  0  0  0  0  0
    4.6610    1.7170   18.4380 C   0  0  0  0  0  0  0  0  0  0  0  0
    5.3890    1.0010   21.0690 C   0  0  0  0  0  0  0  0  0  0  0  0
    9.1890   -3.5540   24.0140 C   0  0  0  0  0  0  0  0  0  0  0  0
    7.8700   -2.0610   25.3550 C   0  0  0  0  0  0  0  0  0  0  0  0
   12.7172    3.9115   22.2592 C   0  0  0  0  0  0  0  0  0  0  0  0
   10.4213    3.1597   22.2367 C   0  0  0  0  0  0  0  0  0  0  0  0
    9.1280   -1.2090   23.4870 C   0  0  0  0  0  0  0  0  0  0  0  0
   10.7369    2.1679   23.1653 C   0  0  0  0  0  0  0  0  0  0  0  0
    5.7970    0.9500   18.6730 C   0  0  0  0  0  0  0  0  0  0  0  0
    6.1460    0.6070   19.9750 C   0  0  0  0  0  0  0  0  0  0  0  0
    8.3450   -3.3440   25.0980 C   0  0  0  0  0  0  0  0  0  0  0  0
   11.4114    4.0315   21.7836 C   0  0  0  0  0  0  0  0  0  0  0  0
    8.2026   -4.5566   27.2975 C   0  0  0  0  0  0  0  0  0  0  0  0
    9.0430    0.2380   21.4940 C   0  0  0  0  0  0  0  0  0  0  0  0
    7.8889   -6.0881   29.2879 C   0  0  0  0  0  0  0  0  0  0  0  0
    9.6654    1.2227   23.6555 C   0  0  0  0  0  0  0  0  0  0  0  0
    7.6343   -5.8728   27.8068 C   0  0  0  0  0  0  0  0  0  0  0  0
    9.5820   -0.1080   22.7000 C   0  0  2  0  0  0  0  0  0  0  0  0
    6.7100    0.3850   17.8100 N   0  0  0  0  0  0  0  0  0  0  0  0
    7.5840   -0.2700   18.5160 N   0  0  0  0  0  0  0  0  0  0  0  0
    7.2710   -0.1460   19.8310 N   0  0  0  0  0  0  0  0  0  0  0  0
    7.9771   -4.4057   25.9197 N   0  0  0  0  0  0  0  0  0  0  0  0
    8.0950   -0.7700   20.8440 N   0  0  0  0  0  0  0  0  0  0  0  0
    8.7749   -3.7648   28.0392 O   0  0  0  0  0  0  0  0  0  0  0  0
    9.2950    1.3000   20.9480 O   0  0  0  0  0  0  0  0  0  0  0  0
   11.0228    5.2547   20.6371 Cl  0  0  0  0  0  0  0  0  0  0  0  0
    2.9846    2.6932   19.3610 H   0  0  0  0  0  0  0  0  0  0  0  0
    3.6235    2.0692   21.6570 H   0  0  0  0  0  0  0  0  0  0  0  0
   14.0496    2.8258   23.5583 H   0  0  0  0  0  0  0  0  0  0  0  0
   12.2977    1.2780   24.3644 H   0  0  0  0  0  0  0  0  0  0  0  0
   10.2695   -2.6718   22.3873 H   0  0  0  0  0  0  0  0  0  0  0  0
    7.8712   -0.0014   24.7587 H   0  0  0  0  0  0  0  0  0  0  0  0
    4.3785    2.0113   17.4257 H   0  0  0  0  0  0  0  0  0  0  0  0
    5.6763    0.7332   22.0915 H   0  0  0  0  0  0  0  0  0  0  0  0
    9.5431   -4.5618   23.7801 H   0  0  0  0  0  0  0  0  0  0  0  0
    7.1923   -1.8823   26.1912 H   0  0  0  0  0  0  0  0  0  0  0  0
   13.4991    4.5838   21.9147 H   0  0  0  0  0  0  0  0  0  0  0  0
    9.4016    3.2495   21.8693 H   0  0  0  0  0  0  0  0  0  0  0  0
    8.9617   -6.0835   29.5073 H   0  0  0  0  0  0  0  0  0  0  0  0
    7.4783   -7.0503   29.6092 H   0  0  0  0  0  0  0  0  0  0  0  0
    7.4206   -5.2995   29.8861 H   0  0  0  0  0  0  0  0  0  0  0  0
    9.8736    0.9928   24.7097 H   0  0  0  0  0  0  0  0  0  0  0  0
    8.6951    1.7368   23.6631 H   0  0  0  0  0  0  0  0  0  0  0  0
    6.5549   -5.8820   27.6165 H   0  0  0  0  0  0  0  0  0  0  0  0
    8.0869   -6.6912   27.2352 H   0  0  0  0  0  0  0  0  0  0  0  0
   10.7408   -0.2662   22.5300 H   0  0  0  0  0  0  0  0  0  0  0  0
    7.4775   -5.1797   25.4665 H   0  0  0  0  0  0  0  0  0  0  0  0
    8.1038   -1.6155   21.0990 H   0  0  0  0  0  0  0  0  0  0  0  0
  1  2  1  0  0  0  0
  1  7  2  0  0  0  0
  2  8  2  0  0  0  0
  3  4  2  0  0  0  0
  3 11  1  0  0  0  0
  4 14  1  0  0  0  0
  5  9  2  0  0  0  0
  5 13  1  0  0  0  0
  6 10  1  0  0  0  0
  6 13  2  0  0  0  0
  7 15  1  0  0  0  0
  8 16  1  0  0  0  0
  9 17  1  0  0  0  0
 10 17  2  0  0  0  0
 11 18  2  0  0  0  0
 12 14  2  0  0  0  0
 12 18  1  0  0  0  0
 13 24  1  0  0  0  0
 14 22  1  0  0  0  0
 15 16  2  0  0  0  0
 15 25  1  0  0  0  0
 16 27  1  0  0  0  0
 17 28  1  0  0  0  0
 18 32  1  0  0  0  0
 19 23  1  0  0  0  0
 19 28  1  0  0  0  0
 19 30  2  0  0  0  0
 20 24  1  0  0  0  0
 20 29  1  0  0  0  0
 20 31  2  0  0  0  0
 21 23  1  0  0  0  0
 22 24  1  6  0  0  0
 25 26  2  0  0  0  0
 26 27  1  0  0  0  0
 27 29  1  0  0  0  0
  1 33  1  0  0  0  0
  2 34  1  0  0  0  0
  3 35  1  0  0  0  0
  4 36  1  0  0  0  0
  5 37  1  0  0  0  0
  6 38  1  0  0  0  0
  7 39  1  0  0  0  0
  8 40  1  0  0  0  0
  9 41  1  0  0  0  0
 10 42  1  0  0  0  0
 11 43  1  0  0  0  0
 12 44  1  0  0  0  0
 21 45  1  0  0  0  0
 21 46  1  0  0  0  0
 21 47  1  0  0  0  0
 22 48  1  0  0  0  0
 22 49  1  0  0  0  0
 23 50  1  0  0  0  0
 23 51  1  0  0  0  0
 24 52  1  0  0  0  0
 28 53  1  0  0  0  0
 29 54  1  0  0  0  0
M  END
> <clash_score>
1.4973916932971316

> <docking_score>
-5.690113544464111

> <overlap_score>
0.8407912850379944

$$$$
BENZO_174_1
  -OEChem-08232013523D

 54 57  0     1  0  0  0  0  0999 V2000
    3.8860    2.1050   19.5250 C   0  0  0  0  0  0  0  0  0  0  0  0
    4.2460    1.7520   20.8250 C   0  0  0  0  0  0  0  0  0  0  0  0
   13.9169   -1.2205   25.0322 C   0  0  0  0  0  0  0  0  0  0  0  0
   13.2022   -1.0608   23.8451 C   0  0  0  0  0  0  0  0  0  0  0  0
    9.5890   -2.4950   23.2210 C   0  0  0  0  0  0  0  0  0  0  0  0
    8.2550   -1.0010   24.5520 C   0  0  0  0  0  0  0  0  0  0  0  0
    4.6610    1.7170   18.4380 C   0  0  0  0  0  0  0  0  0  0  0  0
    5.3890    1.0010   21.0690 C   0  0  0  0  0  0  0  0  0  0  0  0
    9.1890   -3.5540   24.0140 C   0  0  0  0  0  0  0  0  0  0  0  0
    7.8700   -2.0610   25.3550 C   0  0  0  0  0  0  0  0  0  0  0  0
   13.4171   -0.6943   26.2234 C   0  0  0  0  0  0  0  0  0  0  0  0
   11.4878    0.1514   25.0404 C   0  0  0  0  0  0  0  0  0  0  0  0
    9.1280   -1.2090   23.4870 C   0  0  0  0  0  0  0  0  0  0  0  0
   11.9876   -0.3748   23.8491 C   0  0  0  0  0  0  0  0  0  0  0  0
    5.7970    0.9500   18.6730 C   0  0  0  0  0  0  0  0  0  0  0  0
    6.1460    0.6070   19.9750 C   0  0  0  0  0  0  0  0  0  0  0  0
    8.3450   -3.3440   25.0980 C   0  0  0  0  0  0  0  0  0  0  0  0
   12.2026   -0.0084   26.2275 C   0  0  0  0  0  0  0  0  0  0  0  0
    8.2026   -4.5566   27.2975 C   0  0  0  0  0  0  0  0  0  0  0  0
    9.0430    0.2380   21.4940 C   0  0  0  0  0  0  0  0  0  0  0  0
    7.8889   -6.0881   29.2879 C   0  0  0  0  0  0  0  0  0  0  0  0
   11.2147   -0.2012   22.5629 C   0  0  0  0  0  0  0  0  0  0  0  0
    7.6343   -5.8728   27.8068 C   0  0  0  0  0  0  0  0  0  0  0  0
    9.5820   -0.1080   22.7000 C   0  0  1  0  0  0  0  0  0  0  0  0
    6.7100    0.3850   17.8100 N   0  0  0  0  0  0  0  0  0  0  0  0
    7.5840   -0.2700   18.5160 N   0  0  0  0  0  0  0  0  0  0  0  0
    7.2710   -0.1460   19.8310 N   0  0  0  0  0  0  0  0  0  0  0  0
    7.9771   -4.4057   25.9197 N   0  0  0  0  0  0  0  0  0  0  0  0
    8.0950   -0.7700   20.8440 N   0  0  0  0  0  0  0  0  0  0  0  0
    8.7749   -3.7648   28.0392 O   0  0  0  0  0  0  0  0  0  0  0  0
    9.2950    1.3000   20.9480 O   0  0  0  0  0  0  0  0  0  0  0  0
   11.5870    0.6416   27.6973 Cl  0  0  0  0  0  0  0  0  0  0  0  0
    2.9846    2.6932   19.3610 H   0  0  0  0  0  0  0  0  0  0  0  0
    3.6235    2.0692   21.6570 H   0  0  0  0  0  0  0  0  0  0  0  0
   14.8627   -1.7546   25.0285 H   0  0  0  0  0  0  0  0  0  0  0  0
   13.5992   -1.4740   22.9215 H   0  0  0  0  0  0  0  0  0  0  0  0
   10.2695   -2.6718   22.3873 H   0  0  0  0  0  0  0  0  0  0  0  0
    7.8712   -0.0014   24.7587 H   0  0  0  0  0  0  0  0  0  0  0  0
    4.3785    2.0113   17.4257 H   0  0  0  0  0  0  0  0  0  0  0  0
    5.6763    0.7332   22.0915 H   0  0  0  0  0  0  0  0  0  0  0  0
    9.5431   -4.5618   23.7801 H   0  0  0  0  0  0  0  0  0  0  0  0
    7.1923   -1.8823   26.1912 H   0  0  0  0  0  0  0  0  0  0  0  0
   13.9851   -0.8262   27.1411 H   0  0  0  0  0  0  0  0  0  0  0  0
   10.5401    0.6850   25.0384 H   0  0  0  0  0  0  0  0  0  0  0  0
    8.9617   -6.0835   29.5073 H   0  0  0  0  0  0  0  0  0  0  0  0
    7.4783   -7.0503   29.6092 H   0  0  0  0  0  0  0  0  0  0  0  0
    7.4206   -5.2995   29.8861 H   0  0  0  0  0  0  0  0  0  0  0  0
   11.6025    0.6918   22.0532 H   0  0  0  0  0  0  0  0  0  0  0  0
   11.4368   -1.0349   21.8836 H   0  0  0  0  0  0  0  0  0  0  0  0
    6.5549   -5.8820   27.6165 H   0  0  0  0  0  0  0  0  0  0  0  0
    8.0869   -6.6912   27.2352 H   0  0  0  0  0  0  0  0  0  0  0  0
    9.5277    0.8495   23.3908 H   0  0  0  0  0  0  0  0  0  0  0  0
    7.4775   -5.1797   25.4665 H   0  0  0  0  0  0  0  0  0  0  0  0
    8.1038   -1.6155   21.0990 H   0  0  0  0  0  0  0  0  0  0  0  0
  1  2  1  0  0  0  0
  1  7  2  0  0  0  0
  2  8  2  0  0  0  0
  3  4  2  0  0  0  0
  3 11  1  0  0  0  0
  4 14  1  0  0  0  0
  5  9  2  0  0  0  0
  5 13  1  0  0  0  0
  6 10  1  0  0  0  0
  6 13  2  0  0  0  0
  7 15  1  0  0  0  0
  8 16  1  0  0  0  0
  9 17  1  0  0  0  0
 10 17  2  0  0  0  0
 11 18  2  0  0  0  0
 12 14  2  0  0  0  0
 12 18  1  0  0  0  0
 13 24  1  0  0  0  0
 14 22  1  0  0  0  0
 15 16  2  0  0  0  0
 15 25  1  0  0  0  0
 16 27  1  0  0  0  0
 17 28  1  0  0  0  0
 18 32  1  0  0  0  0
 19 23  1  0  0  0  0
 19 28  1  0  0  0  0
 19 30  2  0  0  0  0
 20 24  1  0  0  0  0
 20 29  1  0  0  0  0
 20 31  2  0  0  0  0
 21 23  1  0  0  0  0
 22 24  1  1  0  0  0
 25 26  2  0  0  0  0
 26 27  1  0  0  0  0
 27 29  1  0  0  0  0
  1 33  1  0  0  0  0
  2 34  1  0  0  0  0
  3 35  1  0  0  0  0
  4 36  1  0  0  0  0
  5 37  1  0  0  0  0
  6 38  1  0  0  0  0
  7 39  1  0  0  0  0
  8 40  1  0  0  0  0
  9 41  1  0  0  0  0
 10 42  1  0  0  0  0
 11 43  1  0  0  0  0
 12 44  1  0  0  0  0
 21 45  1  0  0  0  0
 21 46  1  0  0  0  0
 21 47  1  0  0  0  0
 22 48  1  0  0  0  0
 22 49  1  0  0  0  0
 23 50  1  0  0  0  0
 23 51  1  0  0  0  0
 24 52  1  0  0  0  0
 28 53  1  0  0  0  0
 29 54  1  0  0  0  0
M  END
> <clash_score>
0.6679264720783208

> <docking_score>
-5.52513313293457

> <overlap_score>
0.9391771554946899

$$$$
BENZO_177_1
  -OEChem-08232013533D

 59 63  0     1  0  0  0  0  0999 V2000
   11.9254    0.4022   27.2003 C   0  0  0  0  0  0  0  0  0  0  0  0
   10.9060    1.3538   27.2295 C   0  0  0  0  0  0  0  0  0  0  0  0
   12.2105   -0.2784   26.0165 C   0  0  0  0  0  0  0  0  0  0  0  0
    3.8860    2.1050   19.5250 C   0  0  0  0  0  0  0  0  0  0  0  0
    4.2460    1.7520   20.8250 C   0  0  0  0  0  0  0  0  0  0  0  0
   10.1716    1.6247   26.0750 C   0  0  0  0  0  0  0  0  0  0  0  0
   11.4760   -0.0075   24.8621 C   0  0  0  0  0  0  0  0  0  0  0  0
    9.5890   -2.4950   23.2210 C   0  0  0  0  0  0  0  0  0  0  0  0
    8.2550   -1.0010   24.5520 C   0  0  0  0  0  0  0  0  0  0  0  0
    4.6610    1.7170   18.4380 C   0  0  0  0  0  0  0  0  0  0  0  0
    5.3890    1.0010   21.0690 C   0  0  0  0  0  0  0  0  0  0  0  0
    9.1890   -3.5540   24.0140 C   0  0  0  0  0  0  0  0  0  0  0  0
    7.8700   -2.0610   25.3550 C   0  0  0  0  0  0  0  0  0  0  0  0
   10.4565    0.9440   24.8913 C   0  0  0  0  0  0  0  0  0  0  0  0
    9.1280   -1.2090   23.4870 C   0  0  0  0  0  0  0  0  0  0  0  0
    5.7970    0.9500   18.6730 C   0  0  0  0  0  0  0  0  0  0  0  0
    6.1460    0.6070   19.9750 C   0  0  0  0  0  0  0  0  0  0  0  0
    8.3450   -3.3440   25.0980 C   0  0  0  0  0  0  0  0  0  0  0  0
    9.0430    0.2380   21.4940 C   0  0  0  0  0  0  0  0  0  0  0  0
    7.1449   -6.5145   27.7138 C   0  0  0  0  0  0  0  0  0  0  0  0
    6.8467   -6.5786   26.2209 C   0  0  0  0  0  0  0  0  0  0  0  0
    8.4201   -5.7176   27.9614 C   0  0  0  0  0  0  0  0  0  0  0  0
    6.7697   -5.1840   25.6014 C   0  0  0  0  0  0  0  0  0  0  0  0
    8.3361   -4.3235   27.3439 C   0  0  0  0  0  0  0  0  0  0  0  0
    9.6614    1.2368   23.6407 C   0  0  0  0  0  0  0  0  0  0  0  0
    9.5820   -0.1080   22.7000 C   0  0  1  0  0  0  0  0  0  0  0  0
    6.7100    0.3850   17.8100 N   0  0  0  0  0  0  0  0  0  0  0  0
    7.5840   -0.2700   18.5160 N   0  0  0  0  0  0  0  0  0  0  0  0
    7.2710   -0.1460   19.8310 N   0  0  0  0  0  0  0  0  0  0  0  0
    7.9744   -4.4098   25.9218 N   0  0  0  0  0  0  0  0  0  0  0  0
    8.0950   -0.7700   20.8440 N   0  0  0  0  0  0  0  0  0  0  0  0
    9.2950    1.3000   20.9480 O   0  0  0  0  0  0  0  0  0  0  0  0
   12.4981    0.1924   28.0990 H   0  0  0  0  0  0  0  0  0  0  0  0
   10.6847    1.8847   28.1508 H   0  0  0  0  0  0  0  0  0  0  0  0
   13.0048   -1.0186   25.9932 H   0  0  0  0  0  0  0  0  0  0  0  0
    2.9846    2.6932   19.3610 H   0  0  0  0  0  0  0  0  0  0  0  0
    3.6235    2.0692   21.6570 H   0  0  0  0  0  0  0  0  0  0  0  0
    9.3790    2.3677   26.1071 H   0  0  0  0  0  0  0  0  0  0  0  0
   11.7050   -0.5428   23.9444 H   0  0  0  0  0  0  0  0  0  0  0  0
   10.2684   -2.6719   22.3867 H   0  0  0  0  0  0  0  0  0  0  0  0
    7.8717   -0.0016   24.7596 H   0  0  0  0  0  0  0  0  0  0  0  0
    4.3785    2.0113   17.4257 H   0  0  0  0  0  0  0  0  0  0  0  0
    5.6763    0.7332   22.0915 H   0  0  0  0  0  0  0  0  0  0  0  0
    9.5443   -4.5616   23.7817 H   0  0  0  0  0  0  0  0  0  0  0  0
    7.1921   -1.8821   26.1908 H   0  0  0  0  0  0  0  0  0  0  0  0
    6.3050   -6.0452   28.2404 H   0  0  0  0  0  0  0  0  0  0  0  0
    7.2543   -7.5276   28.1161 H   0  0  0  0  0  0  0  0  0  0  0  0
    7.6259   -7.1614   25.7138 H   0  0  0  0  0  0  0  0  0  0  0  0
    5.8996   -7.1050   26.0572 H   0  0  0  0  0  0  0  0  0  0  0  0
    8.5961   -5.6308   29.0396 H   0  0  0  0  0  0  0  0  0  0  0  0
    9.2795   -6.2544   27.5407 H   0  0  0  0  0  0  0  0  0  0  0  0
    6.6600   -5.2867   24.5145 H   0  0  0  0  0  0  0  0  0  0  0  0
    5.8812   -4.6597   25.9770 H   0  0  0  0  0  0  0  0  0  0  0  0
    7.5915   -3.7220   27.8810 H   0  0  0  0  0  0  0  0  0  0  0  0
    9.3083   -3.8281   27.4591 H   0  0  0  0  0  0  0  0  0  0  0  0
    8.6823    1.6307   23.9469 H   0  0  0  0  0  0  0  0  0  0  0  0
   10.1361    2.0563   23.0849 H   0  0  0  0  0  0  0  0  0  0  0  0
   10.7449   -0.2552   22.5248 H   0  0  0  0  0  0  0  0  0  0  0  0
    8.0815   -1.6117   21.0754 H   0  0  0  0  0  0  0  0  0  0  0  0
  1  2  1  0  0  0  0
  1  3  2  0  0  0  0
  2  6  2  0  0  0  0
  3  7  1  0  0  0  0
  4  5  1  0  0  0  0
  4 10  2  0  0  0  0
  5 11  2  0  0  0  0
  6 14  1  0  0  0  0
  7 14  2  0  0  0  0
  8 12  2  0  0  0  0
  8 15  1  0  0  0  0
  9 13  1  0  0  0  0
  9 15  2  0  0  0  0
 10 16  1  0  0  0  0
 11 17  1  0  0  0  0
 12 18  1  0  0  0  0
 13 18  2  0  0  0  0
 14 25  1  0  0  0  0
 15 26  1  0  0  0  0
 16 17  2  0  0  0  0
 16 27  1  0  0  0  0
 17 29  1  0  0  0  0
 18 30  1  0  0  0  0
 19 26  1  1  0  0  0
 19 31  1  0  0  0  0
 19 32  2  0  0  0  0
 20 21  1  0  0  0  0
 20 22  1  0  0  0  0
 21 23  1  0  0  0  0
 22 24  1  0  0  0  0
 23 30  1  0  0  0  0
 24 30  1  0  0  0  0
 25 26  1  0  0  0  0
 27 28  2  0  0  0  0
 28 29  1  0  0  0  0
 29 31  1  0  0  0  0
  1 33  1  0  0  0  0
  2 34  1  0  0  0  0
  3 35  1  0  0  0  0
  4 36  1  0  0  0  0
  5 37  1  0  0  0  0
  6 38  1  0  0  0  0
  7 39  1  0  0  0  0
  8 40  1  0  0  0  0
  9 41  1  0  0  0  0
 10 42  1  0  0  0  0
 11 43  1  0  0  0  0
 12 44  1  0  0  0  0
 13 45  1  0  0  0  0
 20 46  1  0  0  0  0
 20 47  1  0  0  0  0
 21 48  1  0  0  0  0
 21 49  1  0  0  0  0
 22 50  1  0  0  0  0
 22 51  1  0  0  0  0
 23 52  1  0  0  0  0
 23 53  1  0  0  0  0
 24 54  1  0  0  0  0
 24 55  1  0  0  0  0
 25 56  1  0  0  0  0
 25 57  1  0  0  0  0
 26 58  1  0  0  0  0
 31 59  1  0  0  0  0
M  END
> <clash_score>
2.326785370852029

> <docking_score>
-3.948474407196045

> <overlap_score>
0.8435165286064148

$$$$
BENZO_175_2
  -OEChem-08232013533D

 54 57  0     1  0  0  0  0  0999 V2000
    3.8860    2.1050   19.5250 C   0  0  0  0  0  0  0  0  0  0  0  0
    4.2460    1.7520   20.8250 C   0  0  0  0  0  0  0  0  0  0  0  0
    9.5890   -2.4950   23.2210 C   0  0  0  0  0  0  0  0  0  0  0  0
    8.2550   -1.0010   24.5520 C   0  0  0  0  0  0  0  0  0  0  0  0
    4.6610    1.7170   18.4380 C   0  0  0  0  0  0  0  0  0  0  0  0
    5.3890    1.0010   21.0690 C   0  0  0  0  0  0  0  0  0  0  0  0
    9.1890   -3.5540   24.0140 C   0  0  0  0  0  0  0  0  0  0  0  0
    7.8700   -2.0610   25.3550 C   0  0  0  0  0  0  0  0  0  0  0  0
   11.9282    1.8465   22.4874 C   0  0  0  0  0  0  0  0  0  0  0  0
   10.7653    3.5364   23.2793 C   0  0  0  0  0  0  0  0  0  0  0  0
    9.1280   -1.2090   23.4870 C   0  0  0  0  0  0  0  0  0  0  0  0
   10.7369    2.1679   23.1653 C   0  0  0  0  0  0  0  0  0  0  0  0
    5.7970    0.9500   18.6730 C   0  0  0  0  0  0  0  0  0  0  0  0
    6.1460    0.6070   19.9750 C   0  0  0  0  0  0  0  0  0  0  0  0
    8.3450   -3.3440   25.0980 C   0  0  0  0  0  0  0  0  0  0  0  0
    8.2026   -4.5566   27.2975 C   0  0  0  0  0  0  0  0  0  0  0  0
    9.0430    0.2380   21.4940 C   0  0  0  0  0  0  0  0  0  0  0  0
    7.8889   -6.0881   29.2879 C   0  0  0  0  0  0  0  0  0  0  0  0
   12.3991    5.2934   22.5569 C   0  0  0  0  0  0  0  0  0  0  0  0
    9.6654    1.2227   23.6555 C   0  0  0  0  0  0  0  0  0  0  0  0
    7.6343   -5.8728   27.8068 C   0  0  0  0  0  0  0  0  0  0  0  0
    9.5820   -0.1080   22.7000 C   0  0  2  0  0  0  0  0  0  0  0  0
   12.6598    2.9240   22.1915 N   0  0  0  0  0  0  0  0  0  0  0  0
    6.7100    0.3850   17.8100 N   0  0  0  0  0  0  0  0  0  0  0  0
    7.5840   -0.2700   18.5160 N   0  0  0  0  0  0  0  0  0  0  0  0
   11.9264    3.9359   22.6857 N   0  0  0  0  0  0  0  0  0  0  0  0
    7.2710   -0.1460   19.8310 N   0  0  0  0  0  0  0  0  0  0  0  0
    7.9771   -4.4057   25.9197 N   0  0  0  0  0  0  0  0  0  0  0  0
    8.0950   -0.7700   20.8440 N   0  0  0  0  0  0  0  0  0  0  0  0
    8.7749   -3.7648   28.0392 O   0  0  0  0  0  0  0  0  0  0  0  0
    9.2950    1.3000   20.9480 O   0  0  0  0  0  0  0  0  0  0  0  0
    2.9846    2.6932   19.3610 H   0  0  0  0  0  0  0  0  0  0  0  0
    3.6235    2.0692   21.6570 H   0  0  0  0  0  0  0  0  0  0  0  0
   10.2695   -2.6718   22.3873 H   0  0  0  0  0  0  0  0  0  0  0  0
    7.8712   -0.0014   24.7587 H   0  0  0  0  0  0  0  0  0  0  0  0
    4.3785    2.0113   17.4257 H   0  0  0  0  0  0  0  0  0  0  0  0
    5.6763    0.7332   22.0915 H   0  0  0  0  0  0  0  0  0  0  0  0
    9.5431   -4.5618   23.7801 H   0  0  0  0  0  0  0  0  0  0  0  0
    7.1923   -1.8823   26.1912 H   0  0  0  0  0  0  0  0  0  0  0  0
   12.2953    0.8729   22.1949 H   0  0  0  0  0  0  0  0  0  0  0  0
   10.0747    4.2424   23.7203 H   0  0  0  0  0  0  0  0  0  0  0  0
    8.9617   -6.0835   29.5073 H   0  0  0  0  0  0  0  0  0  0  0  0
    7.4783   -7.0503   29.6092 H   0  0  0  0  0  0  0  0  0  0  0  0
    7.4206   -5.2995   29.8861 H   0  0  0  0  0  0  0  0  0  0  0  0
   13.0047    5.5246   23.4371 H   0  0  0  0  0  0  0  0  0  0  0  0
   12.9975    5.3858   21.6462 H   0  0  0  0  0  0  0  0  0  0  0  0
   11.5423    5.9699   22.4925 H   0  0  0  0  0  0  0  0  0  0  0  0
    9.8736    0.9928   24.7097 H   0  0  0  0  0  0  0  0  0  0  0  0
    8.6951    1.7368   23.6631 H   0  0  0  0  0  0  0  0  0  0  0  0
    6.5549   -5.8820   27.6165 H   0  0  0  0  0  0  0  0  0  0  0  0
    8.0869   -6.6912   27.2352 H   0  0  0  0  0  0  0  0  0  0  0  0
   10.7408   -0.2662   22.5300 H   0  0  0  0  0  0  0  0  0  0  0  0
    7.4775   -5.1797   25.4665 H   0  0  0  0  0  0  0  0  0  0  0  0
    8.1038   -1.6155   21.0990 H   0  0  0  0  0  0  0  0  0  0  0  0
  1  2  1  0  0  0  0
  1  5  2  0  0  0  0
  2  6  2  0  0  0  0
  3  7  2  0  0  0  0
  3 11  1  0  0  0  0
  4  8  1  0  0  0  0
  4 11  2  0  0  0  0
  5 13  1  0  0  0  0
  6 14  1  0  0  0  0
  7 15  1  0  0  0  0
  8 15  2  0  0  0  0
  9 12  1  0  0  0  0
  9 23  2  0  0  0  0
 10 12  2  0  0  0  0
 10 26  1  0  0  0  0
 11 22  1  0  0  0  0
 12 20  1  0  0  0  0
 13 14  2  0  0  0  0
 13 24  1  0  0  0  0
 14 27  1  0  0  0  0
 15 28  1  0  0  0  0
 16 21  1  0  0  0  0
 16 28  1  0  0  0  0
 16 30  2  0  0  0  0
 17 22  1  0  0  0  0
 17 29  1  0  0  0  0
 17 31  2  0  0  0  0
 18 21  1  0  0  0  0
 19 26  1  0  0  0  0
 20 22  1  6  0  0  0
 23 26  1  0  0  0  0
 24 25  2  0  0  0  0
 25 27  1  0  0  0  0
 27 29  1  0  0  0  0
  1 32  1  0  0  0  0
  2 33  1  0  0  0  0
  3 34  1  0  0  0  0
  4 35  1  0  0  0  0
  5 36  1  0  0  0  0
  6 37  1  0  0  0  0
  7 38  1  0  0  0  0
  8 39  1  0  0  0  0
  9 40  1  0  0  0  0
 10 41  1  0  0  0  0
 18 42  1  0  0  0  0
 18 43  1  0  0  0  0
 18 44  1  0  0  0  0
 19 45  1  0  0  0  0
 19 46  1  0  0  0  0
 19 47  1  0  0  0  0
 20 48  1  0  0  0  0
 20 49  1  0  0  0  0
 21 50  1  0  0  0  0
 21 51  1  0  0  0  0
 22 52  1  0  0  0  0
 28 53  1  0  0  0  0
 29 54  1  0  0  0  0
M  END
> <clash_score>
0

> <docking_score>
-7.165641784667969

> <overlap_score>
0.8416571021080017

$$$$
BENZO_175_1
  -OEChem-08232013533D

 54 57  0     1  0  0  0  0  0999 V2000
    3.8860    2.1050   19.5250 C   0  0  0  0  0  0  0  0  0  0  0  0
    4.2460    1.7520   20.8250 C   0  0  0  0  0  0  0  0  0  0  0  0
    9.5890   -2.4950   23.2210 C   0  0  0  0  0  0  0  0  0  0  0  0
    8.2550   -1.0010   24.5520 C   0  0  0  0  0  0  0  0  0  0  0  0
    4.6610    1.7170   18.4380 C   0  0  0  0  0  0  0  0  0  0  0  0
    5.3890    1.0010   21.0690 C   0  0  0  0  0  0  0  0  0  0  0  0
    9.1890   -3.5540   24.0140 C   0  0  0  0  0  0  0  0  0  0  0  0
    7.8700   -2.0610   25.3550 C   0  0  0  0  0  0  0  0  0  0  0  0
   13.3821   -0.4784   24.0117 C   0  0  0  0  0  0  0  0  0  0  0  0
   11.4857   -0.4644   25.1245 C   0  0  0  0  0  0  0  0  0  0  0  0
    9.1280   -1.2090   23.4870 C   0  0  0  0  0  0  0  0  0  0  0  0
   11.9876   -0.3748   23.8491 C   0  0  0  0  0  0  0  0  0  0  0  0
    5.7970    0.9500   18.6730 C   0  0  0  0  0  0  0  0  0  0  0  0
    6.1460    0.6070   19.9750 C   0  0  0  0  0  0  0  0  0  0  0  0
    8.3450   -3.3440   25.0980 C   0  0  0  0  0  0  0  0  0  0  0  0
    7.6607   -4.3765   27.2876 C   0  0  0  0  0  0  0  0  0  0  0  0
    9.0430    0.2380   21.4940 C   0  0  0  0  0  0  0  0  0  0  0  0
    6.9961   -5.7803   29.2859 C   0  0  0  0  0  0  0  0  0  0  0  0
   12.5440   -0.7451   27.3784 C   0  0  0  0  0  0  0  0  0  0  0  0
   11.2147   -0.2012   22.5629 C   0  0  0  0  0  0  0  0  0  0  0  0
    7.3113   -5.7655   27.8009 C   0  0  0  0  0  0  0  0  0  0  0  0
    9.5820   -0.1080   22.7000 C   0  0  1  0  0  0  0  0  0  0  0  0
   13.7430   -0.6226   25.2896 N   0  0  0  0  0  0  0  0  0  0  0  0
    6.7100    0.3850   17.8100 N   0  0  0  0  0  0  0  0  0  0  0  0
    7.5840   -0.2700   18.5160 N   0  0  0  0  0  0  0  0  0  0  0  0
   12.5679   -0.6102   25.9416 N   0  0  0  0  0  0  0  0  0  0  0  0
    7.2710   -0.1460   19.8310 N   0  0  0  0  0  0  0  0  0  0  0  0
    7.9771   -4.4057   25.9197 N   0  0  0  0  0  0  0  0  0  0  0  0
    8.0950   -0.7700   20.8440 N   0  0  0  0  0  0  0  0  0  0  0  0
    7.6510   -3.3914   28.0184 O   0  0  0  0  0  0  0  0  0  0  0  0
    9.2950    1.3000   20.9480 O   0  0  0  0  0  0  0  0  0  0  0  0
    2.9846    2.6932   19.3610 H   0  0  0  0  0  0  0  0  0  0  0  0
    3.6235    2.0692   21.6570 H   0  0  0  0  0  0  0  0  0  0  0  0
   10.2695   -2.6718   22.3873 H   0  0  0  0  0  0  0  0  0  0  0  0
    7.8712   -0.0014   24.7587 H   0  0  0  0  0  0  0  0  0  0  0  0
    4.3785    2.0113   17.4257 H   0  0  0  0  0  0  0  0  0  0  0  0
    5.6763    0.7332   22.0915 H   0  0  0  0  0  0  0  0  0  0  0  0
    9.5431   -4.5618   23.7801 H   0  0  0  0  0  0  0  0  0  0  0  0
    7.1923   -1.8823   26.1912 H   0  0  0  0  0  0  0  0  0  0  0  0
   14.1525   -0.4543   23.2539 H   0  0  0  0  0  0  0  0  0  0  0  0
   10.4758   -0.4362   25.5107 H   0  0  0  0  0  0  0  0  0  0  0  0
    7.8457   -5.4146   29.8719 H   0  0  0  0  0  0  0  0  0  0  0  0
    6.7654   -6.7977   29.6164 H   0  0  0  0  0  0  0  0  0  0  0  0
    6.1341   -5.1438   29.5113 H   0  0  0  0  0  0  0  0  0  0  0  0
   12.4733   -1.8098   27.6160 H   0  0  0  0  0  0  0  0  0  0  0  0
   13.4591   -0.3194   27.7993 H   0  0  0  0  0  0  0  0  0  0  0  0
   11.6810   -0.2050   27.7777 H   0  0  0  0  0  0  0  0  0  0  0  0
   11.6025    0.6918   22.0532 H   0  0  0  0  0  0  0  0  0  0  0  0
   11.4368   -1.0349   21.8836 H   0  0  0  0  0  0  0  0  0  0  0  0
    6.4454   -6.1356   27.2399 H   0  0  0  0  0  0  0  0  0  0  0  0
    8.1569   -6.4333   27.5999 H   0  0  0  0  0  0  0  0  0  0  0  0
    9.5277    0.8495   23.3908 H   0  0  0  0  0  0  0  0  0  0  0  0
    7.9296   -5.3298   25.4749 H   0  0  0  0  0  0  0  0  0  0  0  0
    8.1038   -1.6155   21.0990 H   0  0  0  0  0  0  0  0  0  0  0  0
  1  2  1  0  0  0  0
  1  5  2  0  0  0  0
  2  6  2  0  0  0  0
  3  7  2  0  0  0  0
  3 11  1  0  0  0  0
  4  8  1  0  0  0  0
  4 11  2  0  0  0  0
  5 13  1  0  0  0  0
  6 14  1  0  0  0  0
  7 15  1  0  0  0  0
  8 15  2  0  0  0  0
  9 12  1  0  0  0  0
  9 23  2  0  0  0  0
 10 12  2  0  0  0  0
 10 26  1  0  0  0  0
 11 22  1  0  0  0  0
 12 20  1  0  0  0  0
 13 14  2  0  0  0  0
 13 24  1  0  0  0  0
 14 27  1  0  0  0  0
 15 28  1  0  0  0  0
 16 21  1  0  0  0  0
 16 28  1  0  0  0  0
 16 30  2  0  0  0  0
 17 22  1  0  0  0  0
 17 29  1  0  0  0  0
 17 31  2  0  0  0  0
 18 21  1  0  0  0  0
 19 26  1  0  0  0  0
 20 22  1  1  0  0  0
 23 26  1  0  0  0  0
 24 25  2  0  0  0  0
 25 27  1  0  0  0  0
 27 29  1  0  0  0  0
  1 32  1  0  0  0  0
  2 33  1  0  0  0  0
  3 34  1  0  0  0  0
  4 35  1  0  0  0  0
  5 36  1  0  0  0  0
  6 37  1  0  0  0  0
  7 38  1  0  0  0  0
  8 39  1  0  0  0  0
  9 40  1  0  0  0  0
 10 41  1  0  0  0  0
 18 42  1  0  0  0  0
 18 43  1  0  0  0  0
 18 44  1  0  0  0  0
 19 45  1  0  0  0  0
 19 46  1  0  0  0  0
 19 47  1  0  0  0  0
 20 48  1  0  0  0  0
 20 49  1  0  0  0  0
 21 50  1  0  0  0  0
 21 51  1  0  0  0  0
 22 52  1  0  0  0  0
 28 53  1  0  0  0  0
 29 54  1  0  0  0  0
M  END
> <clash_score>
0.6364249475087751

> <docking_score>
-7.221880912780762

> <overlap_score>
0.9188152551651001

$$$$
BENZO_176_1
  -OEChem-08232013533D

 56 60  0     1  0  0  0  0  0999 V2000
    3.8860    2.1050   19.5250 C   0  0  0  0  0  0  0  0  0  0  0  0
    4.2460    1.7520   20.8250 C   0  0  0  0  0  0  0  0  0  0  0  0
    9.5890   -2.4950   23.2210 C   0  0  0  0  0  0  0  0  0  0  0  0
    8.2550   -1.0010   24.5520 C   0  0  0  0  0  0  0  0  0  0  0  0
    4.6610    1.7170   18.4380 C   0  0  0  0  0  0  0  0  0  0  0  0
    5.3890    1.0010   21.0690 C   0  0  0  0  0  0  0  0  0  0  0  0
    9.1890   -3.5540   24.0140 C   0  0  0  0  0  0  0  0  0  0  0  0
    7.8700   -2.0610   25.3550 C   0  0  0  0  0  0  0  0  0  0  0  0
   12.1623    0.8696   24.2090 C   0  0  0  0  0  0  0  0  0  0  0  0
   13.0182    0.8125   25.2869 C   0  0  0  0  0  0  0  0  0  0  0  0
   10.6967    1.2482   25.9727 C   0  0  0  0  0  0  0  0  0  0  0  0
    9.1280   -1.2090   23.4870 C   0  0  0  0  0  0  0  0  0  0  0  0
   10.8175    1.1222   24.6062 C   0  0  0  0  0  0  0  0  0  0  0  0
    5.7970    0.9500   18.6730 C   0  0  0  0  0  0  0  0  0  0  0  0
    6.1460    0.6070   19.9750 C   0  0  0  0  0  0  0  0  0  0  0  0
    8.3450   -3.3440   25.0980 C   0  0  0  0  0  0  0  0  0  0  0  0
    9.0430    0.2380   21.4940 C   0  0  0  0  0  0  0  0  0  0  0  0
    7.9496   -4.9537   28.7345 C   0  0  0  0  0  0  0  0  0  0  0  0
    6.8919   -4.0607   28.0818 C   0  0  0  0  0  0  0  0  0  0  0  0
    9.2470   -4.9693   27.9230 C   0  0  0  0  0  0  0  0  0  0  0  0
    6.6889   -4.4385   26.6147 C   0  0  0  0  0  0  0  0  0  0  0  0
    8.9871   -5.3207   26.4549 C   0  0  0  0  0  0  0  0  0  0  0  0
    9.6614    1.2368   23.6407 C   0  0  0  0  0  0  0  0  0  0  0  0
    9.5820   -0.1080   22.7000 C   0  0  1  0  0  0  0  0  0  0  0  0
    6.7100    0.3850   17.8100 N   0  0  0  0  0  0  0  0  0  0  0  0
    7.5840   -0.2700   18.5160 N   0  0  0  0  0  0  0  0  0  0  0  0
    7.2710   -0.1460   19.8310 N   0  0  0  0  0  0  0  0  0  0  0  0
    7.9769   -4.4027   25.9163 N   0  0  0  0  0  0  0  0  0  0  0  0
    8.0950   -0.7700   20.8440 N   0  0  0  0  0  0  0  0  0  0  0  0
    9.2950    1.3000   20.9480 O   0  0  0  0  0  0  0  0  0  0  0  0
   12.2004    1.0627   26.7705 S   0  0  0  0  0  0  0  0  0  0  0  0
    2.9846    2.6932   19.3610 H   0  0  0  0  0  0  0  0  0  0  0  0
    3.6235    2.0692   21.6570 H   0  0  0  0  0  0  0  0  0  0  0  0
   10.2684   -2.6719   22.3867 H   0  0  0  0  0  0  0  0  0  0  0  0
    7.8717   -0.0016   24.7596 H   0  0  0  0  0  0  0  0  0  0  0  0
    4.3785    2.0113   17.4257 H   0  0  0  0  0  0  0  0  0  0  0  0
    5.6763    0.7332   22.0915 H   0  0  0  0  0  0  0  0  0  0  0  0
    9.5443   -4.5616   23.7817 H   0  0  0  0  0  0  0  0  0  0  0  0
    7.1921   -1.8821   26.1908 H   0  0  0  0  0  0  0  0  0  0  0  0
   12.4897    0.7356   23.1857 H   0  0  0  0  0  0  0  0  0  0  0  0
   14.0843    0.6352   25.2743 H   0  0  0  0  0  0  0  0  0  0  0  0
    9.7992    1.4392   26.5447 H   0  0  0  0  0  0  0  0  0  0  0  0
    8.1558   -4.5961   29.7550 H   0  0  0  0  0  0  0  0  0  0  0  0
    7.5611   -5.9778   28.8324 H   0  0  0  0  0  0  0  0  0  0  0  0
    5.9459   -4.1594   28.6209 H   0  0  0  0  0  0  0  0  0  0  0  0
    7.2011   -3.0160   28.1536 H   0  0  0  0  0  0  0  0  0  0  0  0
    9.7290   -3.9880   27.9846 H   0  0  0  0  0  0  0  0  0  0  0  0
    9.9437   -5.6964   28.3562 H   0  0  0  0  0  0  0  0  0  0  0  0
    6.2543   -5.4402   26.5659 H   0  0  0  0  0  0  0  0  0  0  0  0
    5.9909   -3.7397   26.1451 H   0  0  0  0  0  0  0  0  0  0  0  0
    9.9128   -5.2367   25.8843 H   0  0  0  0  0  0  0  0  0  0  0  0
    8.6365   -6.3517   26.3987 H   0  0  0  0  0  0  0  0  0  0  0  0
    8.7512    1.4324   24.2245 H   0  0  0  0  0  0  0  0  0  0  0  0
    9.7926    2.1276   23.0121 H   0  0  0  0  0  0  0  0  0  0  0  0
   10.7449   -0.2552   22.5248 H   0  0  0  0  0  0  0  0  0  0  0  0
    8.0815   -1.6117   21.0754 H   0  0  0  0  0  0  0  0  0  0  0  0
  1  2  1  0  0  0  0
  1  5  2  0  0  0  0
  2  6  2  0  0  0  0
  3  7  2  0  0  0  0
  3 12  1  0  0  0  0
  4  8  1  0  0  0  0
  4 12  2  0  0  0  0
  5 14  1  0  0  0  0
  6 15  1  0  0  0  0
  7 16  1  0  0  0  0
  8 16  2  0  0  0  0
  9 10  2  0  0  0  0
  9 13  1  0  0  0  0
 10 31  1  0  0  0  0
 11 13  2  0  0  0  0
 11 31  1  0  0  0  0
 12 24  1  0  0  0  0
 13 23  1  0  0  0  0
 14 15  2  0  0  0  0
 14 25  1  0  0  0  0
 15 27  1  0  0  0  0
 16 28  1  0  0  0  0
 17 24  1  1  0  0  0
 17 29  1  0  0  0  0
 17 30  2  0  0  0  0
 18 19  1  0  0  0  0
 18 20  1  0  0  0  0
 19 21  1  0  0  0  0
 20 22  1  0  0  0  0
 21 28  1  0  0  0  0
 22 28  1  0  0  0  0
 23 24  1  0  0  0  0
 25 26  2  0  0  0  0
 26 27  1  0  0  0  0
 27 29  1  0  0  0  0
  1 32  1  0  0  0  0
  2 33  1  0  0  0  0
  3 34  1  0  0  0  0
  4 35  1  0  0  0  0
  5 36  1  0  0  0  0
  6 37  1  0  0  0  0
  7 38  1  0  0  0  0
  8 39  1  0  0  0  0
  9 40  1  0  0  0  0
 10 41  1  0  0  0  0
 11 42  1  0  0  0  0
 18 43  1  0  0  0  0
 18 44  1  0  0  0  0
 19 45  1  0  0  0  0
 19 46  1  0  0  0  0
 20 47  1  0  0  0  0
 20 48  1  0  0  0  0
 21 49  1  0  0  0  0
 21 50  1  0  0  0  0
 22 51  1  0  0  0  0
 22 52  1  0  0  0  0
 23 53  1  0  0  0  0
 23 54  1  0  0  0  0
 24 55  1  0  0  0  0
 29 56  1  0  0  0  0
M  END
> <clash_score>
1.3873450973403343

> <docking_score>
-5.116885185241699

> <overlap_score>
0.8513602614402771

$$$$
BENZO_177_2
  -OEChem-08232013533D

 59 63  0     1  0  0  0  0  0999 V2000
   13.4299   -0.6303   26.2164 C   0  0  0  0  0  0  0  0  0  0  0  0
   13.9318   -1.1656   25.0302 C   0  0  0  0  0  0  0  0  0  0  0  0
   12.2107    0.0475   26.2147 C   0  0  0  0  0  0  0  0  0  0  0  0
    3.8860    2.1050   19.5250 C   0  0  0  0  0  0  0  0  0  0  0  0
    4.2460    1.7520   20.8250 C   0  0  0  0  0  0  0  0  0  0  0  0
   13.2147   -1.0232   23.8423 C   0  0  0  0  0  0  0  0  0  0  0  0
   11.4935    0.1899   25.0268 C   0  0  0  0  0  0  0  0  0  0  0  0
    9.5890   -2.4950   23.2210 C   0  0  0  0  0  0  0  0  0  0  0  0
    8.2550   -1.0010   24.5520 C   0  0  0  0  0  0  0  0  0  0  0  0
    4.6610    1.7170   18.4380 C   0  0  0  0  0  0  0  0  0  0  0  0
    5.3890    1.0010   21.0690 C   0  0  0  0  0  0  0  0  0  0  0  0
    9.1890   -3.5540   24.0140 C   0  0  0  0  0  0  0  0  0  0  0  0
    7.8700   -2.0610   25.3550 C   0  0  0  0  0  0  0  0  0  0  0  0
   11.9955   -0.3454   23.8406 C   0  0  0  0  0  0  0  0  0  0  0  0
    9.1280   -1.2090   23.4870 C   0  0  0  0  0  0  0  0  0  0  0  0
    5.7970    0.9500   18.6730 C   0  0  0  0  0  0  0  0  0  0  0  0
    6.1460    0.6070   19.9750 C   0  0  0  0  0  0  0  0  0  0  0  0
    8.3450   -3.3440   25.0980 C   0  0  0  0  0  0  0  0  0  0  0  0
    9.0430    0.2380   21.4940 C   0  0  0  0  0  0  0  0  0  0  0  0
    7.9496   -4.9537   28.7345 C   0  0  0  0  0  0  0  0  0  0  0  0
    6.8919   -4.0607   28.0818 C   0  0  0  0  0  0  0  0  0  0  0  0
    9.2470   -4.9693   27.9230 C   0  0  0  0  0  0  0  0  0  0  0  0
    6.6889   -4.4385   26.6147 C   0  0  0  0  0  0  0  0  0  0  0  0
    8.9871   -5.3207   26.4549 C   0  0  0  0  0  0  0  0  0  0  0  0
   11.2185   -0.1906   22.5545 C   0  0  0  0  0  0  0  0  0  0  0  0
    9.5820   -0.1080   22.7000 C   0  0  2  0  0  0  0  0  0  0  0  0
    6.7100    0.3850   17.8100 N   0  0  0  0  0  0  0  0  0  0  0  0
    7.5840   -0.2700   18.5160 N   0  0  0  0  0  0  0  0  0  0  0  0
    7.2710   -0.1460   19.8310 N   0  0  0  0  0  0  0  0  0  0  0  0
    7.9769   -4.4027   25.9163 N   0  0  0  0  0  0  0  0  0  0  0  0
    8.0950   -0.7700   20.8440 N   0  0  0  0  0  0  0  0  0  0  0  0
    9.2950    1.3000   20.9480 O   0  0  0  0  0  0  0  0  0  0  0  0
   13.9877   -0.7424   27.1415 H   0  0  0  0  0  0  0  0  0  0  0  0
   14.8806   -1.6943   25.0316 H   0  0  0  0  0  0  0  0  0  0  0  0
   11.8190    0.4635   27.1382 H   0  0  0  0  0  0  0  0  0  0  0  0
    2.9846    2.6932   19.3610 H   0  0  0  0  0  0  0  0  0  0  0  0
    3.6235    2.0692   21.6570 H   0  0  0  0  0  0  0  0  0  0  0  0
   13.6137   -1.4435   22.9229 H   0  0  0  0  0  0  0  0  0  0  0  0
   10.5446    0.7196   25.0350 H   0  0  0  0  0  0  0  0  0  0  0  0
   10.2684   -2.6719   22.3867 H   0  0  0  0  0  0  0  0  0  0  0  0
    7.8717   -0.0016   24.7596 H   0  0  0  0  0  0  0  0  0  0  0  0
    4.3785    2.0113   17.4257 H   0  0  0  0  0  0  0  0  0  0  0  0
    5.6763    0.7332   22.0915 H   0  0  0  0  0  0  0  0  0  0  0  0
    9.5443   -4.5616   23.7817 H   0  0  0  0  0  0  0  0  0  0  0  0
    7.1921   -1.8821   26.1908 H   0  0  0  0  0  0  0  0  0  0  0  0
    8.1558   -4.5961   29.7550 H   0  0  0  0  0  0  0  0  0  0  0  0
    7.5611   -5.9778   28.8324 H   0  0  0  0  0  0  0  0  0  0  0  0
    5.9459   -4.1594   28.6209 H   0  0  0  0  0  0  0  0  0  0  0  0
    7.2011   -3.0160   28.1536 H   0  0  0  0  0  0  0  0  0  0  0  0
    9.7290   -3.9880   27.9846 H   0  0  0  0  0  0  0  0  0  0  0  0
    9.9437   -5.6964   28.3562 H   0  0  0  0  0  0  0  0  0  0  0  0
    6.2543   -5.4402   26.5659 H   0  0  0  0  0  0  0  0  0  0  0  0
    5.9909   -3.7397   26.1451 H   0  0  0  0  0  0  0  0  0  0  0  0
    9.9128   -5.2367   25.8843 H   0  0  0  0  0  0  0  0  0  0  0  0
    8.6365   -6.3517   26.3987 H   0  0  0  0  0  0  0  0  0  0  0  0
   11.6029    0.6963   22.0317 H   0  0  0  0  0  0  0  0  0  0  0  0
   11.4403   -1.0329   21.8857 H   0  0  0  0  0  0  0  0  0  0  0  0
    9.5315    0.8594   23.3833 H   0  0  0  0  0  0  0  0  0  0  0  0
    8.0815   -1.6117   21.0754 H   0  0  0  0  0  0  0  0  0  0  0  0
  1  2  1  0  0  0  0
  1  3  2  0  0  0  0
  2  6  2  0  0  0  0
  3  7  1  0  0  0  0
  4  5  1  0  0  0  0
  4 10  2  0  0  0  0
  5 11  2  0  0  0  0
  6 14  1  0  0  0  0
  7 14  2  0  0  0  0
  8 12  2  0  0  0  0
  8 15  1  0  0  0  0
  9 13  1  0  0  0  0
  9 15  2  0  0  0  0
 10 16  1  0  0  0  0
 11 17  1  0  0  0  0
 12 18  1  0  0  0  0
 13 18  2  0  0  0  0
 14 25  1  0  0  0  0
 15 26  1  0  0  0  0
 16 17  2  0  0  0  0
 16 27  1  0  0  0  0
 17 29  1  0  0  0  0
 18 30  1  0  0  0  0
 19 26  1  6  0  0  0
 19 31  1  0  0  0  0
 19 32  2  0  0  0  0
 20 21  1  0  0  0  0
 20 22  1  0  0  0  0
 21 23  1  0  0  0  0
 22 24  1  0  0  0  0
 23 30  1  0  0  0  0
 24 30  1  0  0  0  0
 25 26  1  0  0  0  0
 27 28  2  0  0  0  0
 28 29  1  0  0  0  0
 29 31  1  0  0  0  0
  1 33  1  0  0  0  0
  2 34  1  0  0  0  0
  3 35  1  0  0  0  0
  4 36  1  0  0  0  0
  5 37  1  0  0  0  0
  6 38  1  0  0  0  0
  7 39  1  0  0  0  0
  8 40  1  0  0  0  0
  9 41  1  0  0  0  0
 10 42  1  0  0  0  0
 11 43  1  0  0  0  0
 12 44  1  0  0  0  0
 13 45  1  0  0  0  0
 20 46  1  0  0  0  0
 20 47  1  0  0  0  0
 21 48  1  0  0  0  0
 21 49  1  0  0  0  0
 22 50  1  0  0  0  0
 22 51  1  0  0  0  0
 23 52  1  0  0  0  0
 23 53  1  0  0  0  0
 24 54  1  0  0  0  0
 24 55  1  0  0  0  0
 25 56  1  0  0  0  0
 25 57  1  0  0  0  0
 26 58  1  0  0  0  0
 31 59  1  0  0  0  0
M  END
> <clash_score>
0

> <docking_score>
-6.52829647064209

> <overlap_score>
0.928070604801178

$$$$
BENZO_176_2
  -OEChem-08232013533D

 56 60  0     1  0  0  0  0  0999 V2000
    3.8860    2.1050   19.5250 C   0  0  0  0  0  0  0  0  0  0  0  0
    4.2460    1.7520   20.8250 C   0  0  0  0  0  0  0  0  0  0  0  0
    9.5890   -2.4950   23.2210 C   0  0  0  0  0  0  0  0  0  0  0  0
    8.2550   -1.0010   24.5520 C   0  0  0  0  0  0  0  0  0  0  0  0
    4.6610    1.7170   18.4380 C   0  0  0  0  0  0  0  0  0  0  0  0
    5.3890    1.0010   21.0690 C   0  0  0  0  0  0  0  0  0  0  0  0
    9.1890   -3.5540   24.0140 C   0  0  0  0  0  0  0  0  0  0  0  0
    7.8700   -2.0610   25.3550 C   0  0  0  0  0  0  0  0  0  0  0  0
   13.2435   -0.5152   24.1377 C   0  0  0  0  0  0  0  0  0  0  0  0
   13.7613   -0.0440   25.3241 C   0  0  0  0  0  0  0  0  0  0  0  0
   11.6414    1.0576   24.7394 C   0  0  0  0  0  0  0  0  0  0  0  0
    9.1280   -1.2090   23.4870 C   0  0  0  0  0  0  0  0  0  0  0  0
   12.0155    0.1230   23.7988 C   0  0  0  0  0  0  0  0  0  0  0  0
    5.7970    0.9500   18.6730 C   0  0  0  0  0  0  0  0  0  0  0  0
    6.1460    0.6070   19.9750 C   0  0  0  0  0  0  0  0  0  0  0  0
    8.3450   -3.3440   25.0980 C   0  0  0  0  0  0  0  0  0  0  0  0
    9.0430    0.2380   21.4940 C   0  0  0  0  0  0  0  0  0  0  0  0
    7.5761   -4.8248   28.7286 C   0  0  0  0  0  0  0  0  0  0  0  0
    8.9786   -4.7540   28.1202 C   0  0  0  0  0  0  0  0  0  0  0  0
    6.5567   -4.0681   27.8739 C   0  0  0  0  0  0  0  0  0  0  0  0
    8.9617   -5.1961   26.6571 C   0  0  0  0  0  0  0  0  0  0  0  0
    6.6010   -4.5235   26.4120 C   0  0  0  0  0  0  0  0  0  0  0  0
   11.2185   -0.1906   22.5545 C   0  0  0  0  0  0  0  0  0  0  0  0
    9.5820   -0.1080   22.7000 C   0  0  2  0  0  0  0  0  0  0  0  0
    6.7100    0.3850   17.8100 N   0  0  0  0  0  0  0  0  0  0  0  0
    7.5840   -0.2700   18.5160 N   0  0  0  0  0  0  0  0  0  0  0  0
    7.2710   -0.1460   19.8310 N   0  0  0  0  0  0  0  0  0  0  0  0
    7.9769   -4.4028   25.9163 N   0  0  0  0  0  0  0  0  0  0  0  0
    8.0950   -0.7700   20.8440 N   0  0  0  0  0  0  0  0  0  0  0  0
    9.2950    1.3000   20.9480 O   0  0  0  0  0  0  0  0  0  0  0  0
   12.7685    1.1628   26.0242 S   0  0  0  0  0  0  0  0  0  0  0  0
    2.9846    2.6932   19.3610 H   0  0  0  0  0  0  0  0  0  0  0  0
    3.6235    2.0692   21.6570 H   0  0  0  0  0  0  0  0  0  0  0  0
   10.2684   -2.6719   22.3867 H   0  0  0  0  0  0  0  0  0  0  0  0
    7.8717   -0.0016   24.7596 H   0  0  0  0  0  0  0  0  0  0  0  0
    4.3785    2.0113   17.4257 H   0  0  0  0  0  0  0  0  0  0  0  0
    5.6763    0.7332   22.0915 H   0  0  0  0  0  0  0  0  0  0  0  0
    9.5443   -4.5616   23.7817 H   0  0  0  0  0  0  0  0  0  0  0  0
    7.1921   -1.8821   26.1908 H   0  0  0  0  0  0  0  0  0  0  0  0
   13.7259   -1.2818   23.5445 H   0  0  0  0  0  0  0  0  0  0  0  0
   14.6747   -0.3512   25.8135 H   0  0  0  0  0  0  0  0  0  0  0  0
   10.7606    1.6847   24.7379 H   0  0  0  0  0  0  0  0  0  0  0  0
    7.2686   -5.8772   28.8258 H   0  0  0  0  0  0  0  0  0  0  0  0
    7.5913   -4.4060   29.7452 H   0  0  0  0  0  0  0  0  0  0  0  0
    9.3572   -3.7308   28.1906 H   0  0  0  0  0  0  0  0  0  0  0  0
    9.6566   -5.3928   28.6900 H   0  0  0  0  0  0  0  0  0  0  0  0
    5.5511   -4.2278   28.2766 H   0  0  0  0  0  0  0  0  0  0  0  0
    6.7568   -2.9917   27.9288 H   0  0  0  0  0  0  0  0  0  0  0  0
    9.9607   -5.0572   26.2357 H   0  0  0  0  0  0  0  0  0  0  0  0
    8.7084   -6.2581   26.5936 H   0  0  0  0  0  0  0  0  0  0  0  0
    6.2641   -5.5580   26.3358 H   0  0  0  0  0  0  0  0  0  0  0  0
    5.9273   -3.8947   25.8292 H   0  0  0  0  0  0  0  0  0  0  0  0
   11.5670    0.4754   21.7528 H   0  0  0  0  0  0  0  0  0  0  0  0
   11.4602   -1.2039   22.2071 H   0  0  0  0  0  0  0  0  0  0  0  0
    9.5315    0.8594   23.3833 H   0  0  0  0  0  0  0  0  0  0  0  0
    8.0815   -1.6117   21.0754 H   0  0  0  0  0  0  0  0  0  0  0  0
  1  2  1  0  0  0  0
  1  5  2  0  0  0  0
  2  6  2  0  0  0  0
  3  7  2  0  0  0  0
  3 12  1  0  0  0  0
  4  8  1  0  0  0  0
  4 12  2  0  0  0  0
  5 14  1  0  0  0  0
  6 15  1  0  0  0  0
  7 16  1  0  0  0  0
  8 16  2  0  0  0  0
  9 10  2  0  0  0  0
  9 13  1  0  0  0  0
 10 31  1  0  0  0  0
 11 13  2  0  0  0  0
 11 31  1  0  0  0  0
 12 24  1  0  0  0  0
 13 23  1  0  0  0  0
 14 15  2  0  0  0  0
 14 25  1  0  0  0  0
 15 27  1  0  0  0  0
 16 28  1  0  0  0  0
 17 24  1  6  0  0  0
 17 29  1  0  0  0  0
 17 30  2  0  0  0  0
 18 19  1  0  0  0  0
 18 20  1  0  0  0  0
 19 21  1  0  0  0  0
 20 22  1  0  0  0  0
 21 28  1  0  0  0  0
 22 28  1  0  0  0  0
 23 24  1  0  0  0  0
 25 26  2  0  0  0  0
 26 27  1  0  0  0  0
 27 29  1  0  0  0  0
  1 32  1  0  0  0  0
  2 33  1  0  0  0  0
  3 34  1  0  0  0  0
  4 35  1  0  0  0  0
  5 36  1  0  0  0  0
  6 37  1  0  0  0  0
  7 38  1  0  0  0  0
  8 39  1  0  0  0  0
  9 40  1  0  0  0  0
 10 41  1  0  0  0  0
 11 42  1  0  0  0  0
 18 43  1  0  0  0  0
 18 44  1  0  0  0  0
 19 45  1  0  0  0  0
 19 46  1  0  0  0  0
 20 47  1  0  0  0  0
 20 48  1  0  0  0  0
 21 49  1  0  0  0  0
 21 50  1  0  0  0  0
 22 51  1  0  0  0  0
 22 52  1  0  0  0  0
 23 53  1  0  0  0  0
 23 54  1  0  0  0  0
 24 55  1  0  0  0  0
 29 56  1  0  0  0  0
M  END
> <clash_score>
0.729516453127464

> <docking_score>
-6.8800554275512695

> <overlap_score>
0.9158695936203003

$$$$
BENZO_178_1
  -OEChem-08232013533D

 59 63  0     1  0  0  0  0  0999 V2000
    3.8860    2.1050   19.5250 C   0  0  0  0  0  0  0  0  0  0  0  0
    4.2460    1.7520   20.8250 C   0  0  0  0  0  0  0  0  0  0  0  0
   12.6929   -0.1214   25.4854 C   0  0  0  0  0  0  0  0  0  0  0  0
   11.6246   -0.0154   24.5949 C   0  0  0  0  0  0  0  0  0  0  0  0
    9.5890   -2.4950   23.2210 C   0  0  0  0  0  0  0  0  0  0  0  0
    8.2550   -1.0010   24.5520 C   0  0  0  0  0  0  0  0  0  0  0  0
    4.6610    1.7170   18.4380 C   0  0  0  0  0  0  0  0  0  0  0  0
    5.3890    1.0010   21.0690 C   0  0  0  0  0  0  0  0  0  0  0  0
    9.1890   -3.5540   24.0140 C   0  0  0  0  0  0  0  0  0  0  0  0
    7.8700   -2.0610   25.3550 C   0  0  0  0  0  0  0  0  0  0  0  0
   12.9542    0.9102   26.3872 C   0  0  0  0  0  0  0  0  0  0  0  0
   11.0787    2.1538   25.5080 C   0  0  0  0  0  0  0  0  0  0  0  0
    9.1280   -1.2090   23.4870 C   0  0  0  0  0  0  0  0  0  0  0  0
   10.8175    1.1222   24.6062 C   0  0  0  0  0  0  0  0  0  0  0  0
    5.7970    0.9500   18.6730 C   0  0  0  0  0  0  0  0  0  0  0  0
    6.1460    0.6070   19.9750 C   0  0  0  0  0  0  0  0  0  0  0  0
    8.3450   -3.3440   25.0980 C   0  0  0  0  0  0  0  0  0  0  0  0
   12.1471    2.0478   26.3985 C   0  0  0  0  0  0  0  0  0  0  0  0
    9.0430    0.2380   21.4940 C   0  0  0  0  0  0  0  0  0  0  0  0
    7.3502   -6.6216   27.6681 C   0  0  0  0  0  0  0  0  0  0  0  0
    6.9547   -6.6352   26.1968 C   0  0  0  0  0  0  0  0  0  0  0  0
    7.3963   -5.1894   28.1866 C   0  0  0  0  0  0  0  0  0  0  0  0
    7.8835   -5.7607   25.3557 C   0  0  0  0  0  0  0  0  0  0  0  0
    8.3298   -4.3215   27.3454 C   0  0  0  0  0  0  0  0  0  0  0  0
    9.6614    1.2368   23.6407 C   0  0  0  0  0  0  0  0  0  0  0  0
    9.5820   -0.1080   22.7000 C   0  0  1  0  0  0  0  0  0  0  0  0
    6.7100    0.3850   17.8100 N   0  0  0  0  0  0  0  0  0  0  0  0
    7.5840   -0.2700   18.5160 N   0  0  0  0  0  0  0  0  0  0  0  0
    7.2710   -0.1460   19.8310 N   0  0  0  0  0  0  0  0  0  0  0  0
    7.9744   -4.4100   25.9219 N   0  0  0  0  0  0  0  0  0  0  0  0
    8.0950   -0.7700   20.8440 N   0  0  0  0  0  0  0  0  0  0  0  0
    9.2950    1.3000   20.9480 O   0  0  0  0  0  0  0  0  0  0  0  0
   12.4706    3.3207   27.5106 Cl  0  0  0  0  0  0  0  0  0  0  0  0
    2.9846    2.6932   19.3610 H   0  0  0  0  0  0  0  0  0  0  0  0
    3.6235    2.0692   21.6570 H   0  0  0  0  0  0  0  0  0  0  0  0
   13.3213   -1.0074   25.4762 H   0  0  0  0  0  0  0  0  0  0  0  0
   11.4285   -0.8241   23.8956 H   0  0  0  0  0  0  0  0  0  0  0  0
   10.2684   -2.6719   22.3867 H   0  0  0  0  0  0  0  0  0  0  0  0
    7.8717   -0.0016   24.7596 H   0  0  0  0  0  0  0  0  0  0  0  0
    4.3785    2.0113   17.4257 H   0  0  0  0  0  0  0  0  0  0  0  0
    5.6763    0.7332   22.0915 H   0  0  0  0  0  0  0  0  0  0  0  0
    9.5443   -4.5616   23.7817 H   0  0  0  0  0  0  0  0  0  0  0  0
    7.1921   -1.8821   26.1908 H   0  0  0  0  0  0  0  0  0  0  0  0
   13.7905    0.8140   27.0753 H   0  0  0  0  0  0  0  0  0  0  0  0
   10.4462    3.0385   25.5132 H   0  0  0  0  0  0  0  0  0  0  0  0
    6.6285   -7.2054   28.2520 H   0  0  0  0  0  0  0  0  0  0  0  0
    8.3295   -7.0959   27.7956 H   0  0  0  0  0  0  0  0  0  0  0  0
    6.9792   -7.6647   25.8177 H   0  0  0  0  0  0  0  0  0  0  0  0
    5.9228   -6.2821   26.0899 H   0  0  0  0  0  0  0  0  0  0  0  0
    6.3877   -4.7611   28.1744 H   0  0  0  0  0  0  0  0  0  0  0  0
    7.7320   -5.1843   29.2310 H   0  0  0  0  0  0  0  0  0  0  0  0
    8.8755   -6.2287   25.3242 H   0  0  0  0  0  0  0  0  0  0  0  0
    7.5092   -5.7062   24.3249 H   0  0  0  0  0  0  0  0  0  0  0  0
    8.2701   -3.2776   27.6793 H   0  0  0  0  0  0  0  0  0  0  0  0
    9.3616   -4.6610   27.5011 H   0  0  0  0  0  0  0  0  0  0  0  0
    8.7512    1.4324   24.2245 H   0  0  0  0  0  0  0  0  0  0  0  0
    9.7926    2.1276   23.0121 H   0  0  0  0  0  0  0  0  0  0  0  0
   10.7449   -0.2552   22.5248 H   0  0  0  0  0  0  0  0  0  0  0  0
    8.0815   -1.6117   21.0754 H   0  0  0  0  0  0  0  0  0  0  0  0
  1  2  1  0  0  0  0
  1  7  2  0  0  0  0
  2  8  2  0  0  0  0
  3  4  2  0  0  0  0
  3 11  1  0  0  0  0
  4 14  1  0  0  0  0
  5  9  2  0  0  0  0
  5 13  1  0  0  0  0
  6 10  1  0  0  0  0
  6 13  2  0  0  0  0
  7 15  1  0  0  0  0
  8 16  1  0  0  0  0
  9 17  1  0  0  0  0
 10 17  2  0  0  0  0
 11 18  2  0  0  0  0
 12 14  2  0  0  0  0
 12 18  1  0  0  0  0
 13 26  1  0  0  0  0
 14 25  1  0  0  0  0
 15 16  2  0  0  0  0
 15 27  1  0  0  0  0
 16 29  1  0  0  0  0
 17 30  1  0  0  0  0
 18 33  1  0  0  0  0
 19 26  1  1  0  0  0
 19 31  1  0  0  0  0
 19 32  2  0  0  0  0
 20 21  1  0  0  0  0
 20 22  1  0  0  0  0
 21 23  1  0  0  0  0
 22 24  1  0  0  0  0
 23 30  1  0  0  0  0
 24 30  1  0  0  0  0
 25 26  1  0  0  0  0
 27 28  2  0  0  0  0
 28 29  1  0  0  0  0
 29 31  1  0  0  0  0
  1 34  1  0  0  0  0
  2 35  1  0  0  0  0
  3 36  1  0  0  0  0
  4 37  1  0  0  0  0
  5 38  1  0  0  0  0
  6 39  1  0  0  0  0
  7 40  1  0  0  0  0
  8 41  1  0  0  0  0
  9 42  1  0  0  0  0
 10 43  1  0  0  0  0
 11 44  1  0  0  0  0
 12 45  1  0  0  0  0
 20 46  1  0  0  0  0
 20 47  1  0  0  0  0
 21 48  1  0  0  0  0
 21 49  1  0  0  0  0
 22 50  1  0  0  0  0
 22 51  1  0  0  0  0
 23 52  1  0  0  0  0
 23 53  1  0  0  0  0
 24 54  1  0  0  0  0
 24 55  1  0  0  0  0
 25 56  1  0  0  0  0
 25 57  1  0  0  0  0
 26 58  1  0  0  0  0
 31 59  1  0  0  0  0
M  END
> <clash_score>
4.745541740848704

> <docking_score>
-3.4757843017578125

> <overlap_score>
0.858718991279602

$$$$
BENZO_178_2
  -OEChem-08232013533D

 59 63  0     1  0  0  0  0  0999 V2000
    3.8860    2.1050   19.5250 C   0  0  0  0  0  0  0  0  0  0  0  0
    4.2460    1.7520   20.8250 C   0  0  0  0  0  0  0  0  0  0  0  0
   13.9335   -1.1650   25.0278 C   0  0  0  0  0  0  0  0  0  0  0  0
   13.2150   -1.0227   23.8408 C   0  0  0  0  0  0  0  0  0  0  0  0
    9.5890   -2.4950   23.2210 C   0  0  0  0  0  0  0  0  0  0  0  0
    8.2550   -1.0010   24.5520 C   0  0  0  0  0  0  0  0  0  0  0  0
    4.6610    1.7170   18.4380 C   0  0  0  0  0  0  0  0  0  0  0  0
    5.3890    1.0010   21.0690 C   0  0  0  0  0  0  0  0  0  0  0  0
    9.1890   -3.5540   24.0140 C   0  0  0  0  0  0  0  0  0  0  0  0
    7.8700   -2.0610   25.3550 C   0  0  0  0  0  0  0  0  0  0  0  0
   13.4326   -0.6302   26.2147 C   0  0  0  0  0  0  0  0  0  0  0  0
   11.4946    0.1894   25.0275 C   0  0  0  0  0  0  0  0  0  0  0  0
    9.1280   -1.2090   23.4870 C   0  0  0  0  0  0  0  0  0  0  0  0
   11.9955   -0.3454   23.8406 C   0  0  0  0  0  0  0  0  0  0  0  0
    5.7970    0.9500   18.6730 C   0  0  0  0  0  0  0  0  0  0  0  0
    6.1460    0.6070   19.9750 C   0  0  0  0  0  0  0  0  0  0  0  0
    8.3450   -3.3440   25.0980 C   0  0  0  0  0  0  0  0  0  0  0  0
   12.2132    0.0471   26.2146 C   0  0  0  0  0  0  0  0  0  0  0  0
    9.0430    0.2380   21.4940 C   0  0  0  0  0  0  0  0  0  0  0  0
    7.9496   -4.9537   28.7345 C   0  0  0  0  0  0  0  0  0  0  0  0
    6.8919   -4.0607   28.0818 C   0  0  0  0  0  0  0  0  0  0  0  0
    9.2470   -4.9693   27.9230 C   0  0  0  0  0  0  0  0  0  0  0  0
    6.6889   -4.4385   26.6147 C   0  0  0  0  0  0  0  0  0  0  0  0
    8.9871   -5.3207   26.4549 C   0  0  0  0  0  0  0  0  0  0  0  0
   11.2185   -0.1906   22.5545 C   0  0  0  0  0  0  0  0  0  0  0  0
    9.5820   -0.1080   22.7000 C   0  0  2  0  0  0  0  0  0  0  0  0
    6.7100    0.3850   17.8100 N   0  0  0  0  0  0  0  0  0  0  0  0
    7.5840   -0.2700   18.5160 N   0  0  0  0  0  0  0  0  0  0  0  0
    7.2710   -0.1460   19.8310 N   0  0  0  0  0  0  0  0  0  0  0  0
    7.9769   -4.4027   25.9163 N   0  0  0  0  0  0  0  0  0  0  0  0
    8.0950   -0.7700   20.8440 N   0  0  0  0  0  0  0  0  0  0  0  0
    9.2950    1.3000   20.9480 O   0  0  0  0  0  0  0  0  0  0  0  0
   11.5963    0.7077   27.6790 Cl  0  0  0  0  0  0  0  0  0  0  0  0
    2.9846    2.6932   19.3610 H   0  0  0  0  0  0  0  0  0  0  0  0
    3.6235    2.0692   21.6570 H   0  0  0  0  0  0  0  0  0  0  0  0
   14.8831   -1.6923   25.0274 H   0  0  0  0  0  0  0  0  0  0  0  0
   13.6129   -1.4425   22.9206 H   0  0  0  0  0  0  0  0  0  0  0  0
   10.2684   -2.6719   22.3867 H   0  0  0  0  0  0  0  0  0  0  0  0
    7.8717   -0.0016   24.7596 H   0  0  0  0  0  0  0  0  0  0  0  0
    4.3785    2.0113   17.4257 H   0  0  0  0  0  0  0  0  0  0  0  0
    5.6763    0.7332   22.0915 H   0  0  0  0  0  0  0  0  0  0  0  0
    9.5443   -4.5616   23.7817 H   0  0  0  0  0  0  0  0  0  0  0  0
    7.1921   -1.8821   26.1908 H   0  0  0  0  0  0  0  0  0  0  0  0
   14.0036   -0.7485   27.1323 H   0  0  0  0  0  0  0  0  0  0  0  0
   10.5431    0.7162   25.0223 H   0  0  0  0  0  0  0  0  0  0  0  0
    8.1558   -4.5961   29.7550 H   0  0  0  0  0  0  0  0  0  0  0  0
    7.5611   -5.9778   28.8324 H   0  0  0  0  0  0  0  0  0  0  0  0
    5.9459   -4.1594   28.6209 H   0  0  0  0  0  0  0  0  0  0  0  0
    7.2011   -3.0160   28.1536 H   0  0  0  0  0  0  0  0  0  0  0  0
    9.7290   -3.9880   27.9846 H   0  0  0  0  0  0  0  0  0  0  0  0
    9.9437   -5.6964   28.3562 H   0  0  0  0  0  0  0  0  0  0  0  0
    6.2543   -5.4402   26.5659 H   0  0  0  0  0  0  0  0  0  0  0  0
    5.9909   -3.7397   26.1451 H   0  0  0  0  0  0  0  0  0  0  0  0
    9.9128   -5.2367   25.8843 H   0  0  0  0  0  0  0  0  0  0  0  0
    8.6365   -6.3517   26.3987 H   0  0  0  0  0  0  0  0  0  0  0  0
   11.6029    0.6963   22.0317 H   0  0  0  0  0  0  0  0  0  0  0  0
   11.4403   -1.0329   21.8857 H   0  0  0  0  0  0  0  0  0  0  0  0
    9.5315    0.8594   23.3833 H   0  0  0  0  0  0  0  0  0  0  0  0
    8.0815   -1.6117   21.0754 H   0  0  0  0  0  0  0  0  0  0  0  0
  1  2  1  0  0  0  0
  1  7  2  0  0  0  0
  2  8  2  0  0  0  0
  3  4  2  0  0  0  0
  3 11  1  0  0  0  0
  4 14  1  0  0  0  0
  5  9  2  0  0  0  0
  5 13  1  0  0  0  0
  6 10  1  0  0  0  0
  6 13  2  0  0  0  0
  7 15  1  0  0  0  0
  8 16  1  0  0  0  0
  9 17  1  0  0  0  0
 10 17  2  0  0  0  0
 11 18  2  0  0  0  0
 12 14  2  0  0  0  0
 12 18  1  0  0  0  0
 13 26  1  0  0  0  0
 14 25  1  0  0  0  0
 15 16  2  0  0  0  0
 15 27  1  0  0  0  0
 16 29  1  0  0  0  0
 17 30  1  0  0  0  0
 18 33  1  0  0  0  0
 19 26  1  6  0  0  0
 19 31  1  0  0  0  0
 19 32  2  0  0  0  0
 20 21  1  0  0  0  0
 20 22  1  0  0  0  0
 21 23  1  0  0  0  0
 22 24  1  0  0  0  0
 23 30  1  0  0  0  0
 24 30  1  0  0  0  0
 25 26  1  0  0  0  0
 27 28  2  0  0  0  0
 28 29  1  0  0  0  0
 29 31  1  0  0  0  0
  1 34  1  0  0  0  0
  2 35  1  0  0  0  0
  3 36  1  0  0  0  0
  4 37  1  0  0  0  0
  5 38  1  0  0  0  0
  6 39  1  0  0  0  0
  7 40  1  0  0  0  0
  8 41  1  0  0  0  0
  9 42  1  0  0  0  0
 10 43  1  0  0  0  0
 11 44  1  0  0  0  0
 12 45  1  0  0  0  0
 20 46  1  0  0  0  0
 20 47  1  0  0  0  0
 21 48  1  0  0  0  0
 21 49  1  0  0  0  0
 22 50  1  0  0  0  0
 22 51  1  0  0  0  0
 23 52  1  0  0  0  0
 23 53  1  0  0  0  0
 24 54  1  0  0  0  0
 24 55  1  0  0  0  0
 25 56  1  0  0  0  0
 25 57  1  0  0  0  0
 26 58  1  0  0  0  0
 31 59  1  0  0  0  0
M  END
> <clash_score>
0.6771844388935995

> <docking_score>
-5.8112053871154785

> <overlap_score>
0.9269747138023376

$$$$
BENZO_180_1
  -OEChem-08232013533D

 44 47  0     1  0  0  0  0  0999 V2000
    3.8860    2.1050   19.5250 C   0  0  0  0  0  0  0  0  0  0  0  0
    4.2460    1.7520   20.8250 C   0  0  0  0  0  0  0  0  0  0  0  0
    9.1890   -3.5540   24.0140 C   0  0  0  0  0  0  0  0  0  0  0  0
    7.8700   -2.0610   25.3550 C   0  0  0  0  0  0  0  0  0  0  0  0
    9.5890   -2.4950   23.2210 C   0  0  0  0  0  0  0  0  0  0  0  0
    8.2550   -1.0010   24.5520 C   0  0  0  0  0  0  0  0  0  0  0  0
    4.6610    1.7170   18.4380 C   0  0  0  0  0  0  0  0  0  0  0  0
    5.3890    1.0010   21.0690 C   0  0  0  0  0  0  0  0  0  0  0  0
   13.1880   -1.1347   23.9584 C   0  0  0  0  0  0  0  0  0  0  0  0
   13.6879   -1.1306   25.2420 C   0  0  0  0  0  0  0  0  0  0  0  0
   11.6157    0.1809   25.0536 C   0  0  0  0  0  0  0  0  0  0  0  0
    8.3450   -3.3440   25.0980 C   0  0  0  0  0  0  0  0  0  0  0  0
    9.1280   -1.2090   23.4870 C   0  0  0  0  0  0  0  0  0  0  0  0
   11.9876   -0.3748   23.8491 C   0  0  0  0  0  0  0  0  0  0  0  0
    5.7970    0.9500   18.6730 C   0  0  0  0  0  0  0  0  0  0  0  0
    6.1460    0.6070   19.9750 C   0  0  0  0  0  0  0  0  0  0  0  0
    9.0430    0.2380   21.4940 C   0  0  0  0  0  0  0  0  0  0  0  0
    7.9517   -4.4787   25.9770 C   0  0  0  0  0  0  0  0  0  0  0  0
   11.2147   -0.2012   22.5629 C   0  0  0  0  0  0  0  0  0  0  0  0
    9.5820   -0.1080   22.7000 C   0  0  1  0  0  0  0  0  0  0  0  0
    6.7100    0.3850   17.8100 N   0  0  0  0  0  0  0  0  0  0  0  0
    7.5840   -0.2700   18.5160 N   0  0  0  0  0  0  0  0  0  0  0  0
    7.2710   -0.1460   19.8310 N   0  0  0  0  0  0  0  0  0  0  0  0
    8.0950   -0.7700   20.8440 N   0  0  0  0  0  0  0  0  0  0  0  0
    9.2950    1.3000   20.9480 O   0  0  0  0  0  0  0  0  0  0  0  0
   12.7116   -0.2136   26.3089 S   0  0  0  0  0  0  0  0  0  0  0  0
    2.9846    2.6932   19.3610 H   0  0  0  0  0  0  0  0  0  0  0  0
    3.6235    2.0692   21.6570 H   0  0  0  0  0  0  0  0  0  0  0  0
    9.5416   -4.5625   23.7818 H   0  0  0  0  0  0  0  0  0  0  0  0
    7.1926   -1.8847   26.1916 H   0  0  0  0  0  0  0  0  0  0  0  0
   10.2688   -2.6720   22.3870 H   0  0  0  0  0  0  0  0  0  0  0  0
    7.8705   -0.0015   24.7579 H   0  0  0  0  0  0  0  0  0  0  0  0
    4.3785    2.0113   17.4257 H   0  0  0  0  0  0  0  0  0  0  0  0
    5.6763    0.7332   22.0915 H   0  0  0  0  0  0  0  0  0  0  0  0
   13.6639   -1.6596   23.1397 H   0  0  0  0  0  0  0  0  0  0  0  0
   14.5793   -1.6228   25.6045 H   0  0  0  0  0  0  0  0  0  0  0  0
   10.7533    0.7992   25.2610 H   0  0  0  0  0  0  0  0  0  0  0  0
    8.6661   -4.5883   26.8021 H   0  0  0  0  0  0  0  0  0  0  0  0
    6.9508   -4.3263   26.4014 H   0  0  0  0  0  0  0  0  0  0  0  0
    7.9188   -5.4228   25.4175 H   0  0  0  0  0  0  0  0  0  0  0  0
   11.6025    0.6918   22.0532 H   0  0  0  0  0  0  0  0  0  0  0  0
   11.4368   -1.0349   21.8836 H   0  0  0  0  0  0  0  0  0  0  0  0
    9.5277    0.8495   23.3908 H   0  0  0  0  0  0  0  0  0  0  0  0
    8.1038   -1.6155   21.0990 H   0  0  0  0  0  0  0  0  0  0  0  0
  1  2  1  0  0  0  0
  1  7  2  0  0  0  0
  2  8  2  0  0  0  0
  3  5  2  0  0  0  0
  3 12  1  0  0  0  0
  4  6  1  0  0  0  0
  4 12  2  0  0  0  0
  5 13  1  0  0  0  0
  6 13  2  0  0  0  0
  7 15  1  0  0  0  0
  8 16  1  0  0  0  0
  9 10  2  0  0  0  0
  9 14  1  0  0  0  0
 10 26  1  0  0  0  0
 11 14  2  0  0  0  0
 11 26  1  0  0  0  0
 12 18  1  0  0  0  0
 13 20  1  0  0  0  0
 14 19  1  0  0  0  0
 15 16  2  0  0  0  0
 15 21  1  0  0  0  0
 16 23  1  0  0  0  0
 17 20  1  0  0  0  0
 17 24  1  0  0  0  0
 17 25  2  0  0  0  0
 19 20  1  1  0  0  0
 21 22  2  0  0  0  0
 22 23  1  0  0  0  0
 23 24  1  0  0  0  0
  1 27  1  0  0  0  0
  2 28  1  0  0  0  0
  3 29  1  0  0  0  0
  4 30  1  0  0  0  0
  5 31  1  0  0  0  0
  6 32  1  0  0  0  0
  7 33  1  0  0  0  0
  8 34  1  0  0  0  0
  9 35  1  0  0  0  0
 10 36  1  0  0  0  0
 11 37  1  0  0  0  0
 18 38  1  0  0  0  0
 18 39  1  0  0  0  0
 18 40  1  0  0  0  0
 19 41  1  0  0  0  0
 19 42  1  0  0  0  0
 20 43  1  0  0  0  0
 24 44  1  0  0  0  0
M  END
> <clash_score>
0

> <docking_score>
-6.057461738586426

> <overlap_score>
0.8341811895370483

$$$$
BENZO_181_1
  -OEChem-08232013533D

 47 50  0     1  0  0  0  0  0999 V2000
   13.4143   -0.6944   26.2251 C   0  0  0  0  0  0  0  0  0  0  0  0
   13.9152   -1.2211   25.0346 C   0  0  0  0  0  0  0  0  0  0  0  0
   12.2000   -0.0079   26.2276 C   0  0  0  0  0  0  0  0  0  0  0  0
    3.8860    2.1050   19.5250 C   0  0  0  0  0  0  0  0  0  0  0  0
    4.2460    1.7520   20.8250 C   0  0  0  0  0  0  0  0  0  0  0  0
   13.2019   -1.0613   23.8466 C   0  0  0  0  0  0  0  0  0  0  0  0
   11.4867    0.1519   25.0397 C   0  0  0  0  0  0  0  0  0  0  0  0
    9.1890   -3.5540   24.0140 C   0  0  0  0  0  0  0  0  0  0  0  0
    7.8700   -2.0610   25.3550 C   0  0  0  0  0  0  0  0  0  0  0  0
    9.5890   -2.4950   23.2210 C   0  0  0  0  0  0  0  0  0  0  0  0
    8.2550   -1.0010   24.5520 C   0  0  0  0  0  0  0  0  0  0  0  0
    4.6610    1.7170   18.4380 C   0  0  0  0  0  0  0  0  0  0  0  0
    5.3890    1.0010   21.0690 C   0  0  0  0  0  0  0  0  0  0  0  0
    8.3450   -3.3440   25.0980 C   0  0  0  0  0  0  0  0  0  0  0  0
   11.9876   -0.3748   23.8491 C   0  0  0  0  0  0  0  0  0  0  0  0
    9.1280   -1.2090   23.4870 C   0  0  0  0  0  0  0  0  0  0  0  0
    5.7970    0.9500   18.6730 C   0  0  0  0  0  0  0  0  0  0  0  0
    6.1460    0.6070   19.9750 C   0  0  0  0  0  0  0  0  0  0  0  0
    9.0430    0.2380   21.4940 C   0  0  0  0  0  0  0  0  0  0  0  0
    7.9517   -4.4787   25.9770 C   0  0  0  0  0  0  0  0  0  0  0  0
   11.2147   -0.2012   22.5629 C   0  0  0  0  0  0  0  0  0  0  0  0
    9.5820   -0.1080   22.7000 C   0  0  1  0  0  0  0  0  0  0  0  0
    6.7100    0.3850   17.8100 N   0  0  0  0  0  0  0  0  0  0  0  0
    7.5840   -0.2700   18.5160 N   0  0  0  0  0  0  0  0  0  0  0  0
    7.2710   -0.1460   19.8310 N   0  0  0  0  0  0  0  0  0  0  0  0
    8.0950   -0.7700   20.8440 N   0  0  0  0  0  0  0  0  0  0  0  0
    9.2950    1.3000   20.9480 O   0  0  0  0  0  0  0  0  0  0  0  0
   13.9692   -0.8201   27.1503 H   0  0  0  0  0  0  0  0  0  0  0  0
   14.8602   -1.7566   25.0326 H   0  0  0  0  0  0  0  0  0  0  0  0
   11.8092    0.4013   27.1545 H   0  0  0  0  0  0  0  0  0  0  0  0
    2.9846    2.6932   19.3610 H   0  0  0  0  0  0  0  0  0  0  0  0
    3.6235    2.0692   21.6570 H   0  0  0  0  0  0  0  0  0  0  0  0
   13.6000   -1.4749   22.9238 H   0  0  0  0  0  0  0  0  0  0  0  0
   10.5416    0.6883   25.0512 H   0  0  0  0  0  0  0  0  0  0  0  0
    9.5416   -4.5625   23.7818 H   0  0  0  0  0  0  0  0  0  0  0  0
    7.1926   -1.8847   26.1916 H   0  0  0  0  0  0  0  0  0  0  0  0
   10.2688   -2.6720   22.3870 H   0  0  0  0  0  0  0  0  0  0  0  0
    7.8705   -0.0015   24.7579 H   0  0  0  0  0  0  0  0  0  0  0  0
    4.3785    2.0113   17.4257 H   0  0  0  0  0  0  0  0  0  0  0  0
    5.6763    0.7332   22.0915 H   0  0  0  0  0  0  0  0  0  0  0  0
    8.6661   -4.5883   26.8021 H   0  0  0  0  0  0  0  0  0  0  0  0
    6.9508   -4.3263   26.4014 H   0  0  0  0  0  0  0  0  0  0  0  0
    7.9188   -5.4228   25.4175 H   0  0  0  0  0  0  0  0  0  0  0  0
   11.6025    0.6918   22.0532 H   0  0  0  0  0  0  0  0  0  0  0  0
   11.4368   -1.0349   21.8836 H   0  0  0  0  0  0  0  0  0  0  0  0
    9.5277    0.8495   23.3908 H   0  0  0  0  0  0  0  0  0  0  0  0
    8.1038   -1.6155   21.0990 H   0  0  0  0  0  0  0  0  0  0  0  0
  1  2  1  0  0  0  0
  1  3  2  0  0  0  0
  2  6  2  0  0  0  0
  3  7  1  0  0  0  0
  4  5  1  0  0  0  0
  4 12  2  0  0  0  0
  5 13  2  0  0  0  0
  6 15  1  0  0  0  0
  7 15  2  0  0  0  0
  8 10  2  0  0  0  0
  8 14  1  0  0  0  0
  9 11  1  0  0  0  0
  9 14  2  0  0  0  0
 10 16  1  0  0  0  0
 11 16  2  0  0  0  0
 12 17  1  0  0  0  0
 13 18  1  0  0  0  0
 14 20  1  0  0  0  0
 15 21  1  0  0  0  0
 16 22  1  0  0  0  0
 17 18  2  0  0  0  0
 17 23  1  0  0  0  0
 18 25  1  0  0  0  0
 19 22  1  0  0  0  0
 19 26  1  0  0  0  0
 19 27  2  0  0  0  0
 21 22  1  1  0  0  0
 23 24  2  0  0  0  0
 24 25  1  0  0  0  0
 25 26  1  0  0  0  0
  1 28  1  0  0  0  0
  2 29  1  0  0  0  0
  3 30  1  0  0  0  0
  4 31  1  0  0  0  0
  5 32  1  0  0  0  0
  6 33  1  0  0  0  0
  7 34  1  0  0  0  0
  8 35  1  0  0  0  0
  9 36  1  0  0  0  0
 10 37  1  0  0  0  0
 11 38  1  0  0  0  0
 12 39  1  0  0  0  0
 13 40  1  0  0  0  0
 20 41  1  0  0  0  0
 20 42  1  0  0  0  0
 20 43  1  0  0  0  0
 21 44  1  0  0  0  0
 21 45  1  0  0  0  0
 22 46  1  0  0  0  0
 26 47  1  0  0  0  0
M  END
> <clash_score>
0

> <docking_score>
-5.706948280334473

> <overlap_score>
0.8390676975250244

$$$$
BENZO_179_2
  -OEChem-08232013533D

 59 63  0     1  0  0  0  0  0999 V2000
    3.8860    2.1050   19.5250 C   0  0  0  0  0  0  0  0  0  0  0  0
    4.2460    1.7520   20.8250 C   0  0  0  0  0  0  0  0  0  0  0  0
    9.5890   -2.4950   23.2210 C   0  0  0  0  0  0  0  0  0  0  0  0
    8.2550   -1.0010   24.5520 C   0  0  0  0  0  0  0  0  0  0  0  0
    4.6610    1.7170   18.4380 C   0  0  0  0  0  0  0  0  0  0  0  0
    5.3890    1.0010   21.0690 C   0  0  0  0  0  0  0  0  0  0  0  0
    9.1890   -3.5540   24.0140 C   0  0  0  0  0  0  0  0  0  0  0  0
    7.8700   -2.0610   25.3550 C   0  0  0  0  0  0  0  0  0  0  0  0
   12.0323    0.4351   24.4215 C   0  0  0  0  0  0  0  0  0  0  0  0
   10.9195    1.6685   25.8622 C   0  0  0  0  0  0  0  0  0  0  0  0
    9.1280   -1.2090   23.4870 C   0  0  0  0  0  0  0  0  0  0  0  0
   10.8175    1.1222   24.6062 C   0  0  0  0  0  0  0  0  0  0  0  0
    5.7970    0.9500   18.6730 C   0  0  0  0  0  0  0  0  0  0  0  0
    6.1460    0.6070   19.9750 C   0  0  0  0  0  0  0  0  0  0  0  0
    8.3450   -3.3440   25.0980 C   0  0  0  0  0  0  0  0  0  0  0  0
    9.0430    0.2380   21.4940 C   0  0  0  0  0  0  0  0  0  0  0  0
    7.9496   -4.9537   28.7345 C   0  0  0  0  0  0  0  0  0  0  0  0
    6.8919   -4.0607   28.0818 C   0  0  0  0  0  0  0  0  0  0  0  0
    9.2470   -4.9693   27.9230 C   0  0  0  0  0  0  0  0  0  0  0  0
    6.6889   -4.4385   26.6147 C   0  0  0  0  0  0  0  0  0  0  0  0
    8.9871   -5.3207   26.4549 C   0  0  0  0  0  0  0  0  0  0  0  0
   12.7029    1.6253   27.6218 C   0  0  0  0  0  0  0  0  0  0  0  0
    9.6614    1.2368   23.6407 C   0  0  0  0  0  0  0  0  0  0  0  0
    9.5820   -0.1080   22.7000 C   0  0  2  0  0  0  0  0  0  0  0  0
   12.8463    0.5346   25.4758 N   0  0  0  0  0  0  0  0  0  0  0  0
    6.7100    0.3850   17.8100 N   0  0  0  0  0  0  0  0  0  0  0  0
    7.5840   -0.2700   18.5160 N   0  0  0  0  0  0  0  0  0  0  0  0
   12.1417    1.2906   26.3350 N   0  0  0  0  0  0  0  0  0  0  0  0
    7.2710   -0.1460   19.8310 N   0  0  0  0  0  0  0  0  0  0  0  0
    7.9769   -4.4027   25.9163 N   0  0  0  0  0  0  0  0  0  0  0  0
    8.0950   -0.7700   20.8440 N   0  0  0  0  0  0  0  0  0  0  0  0
    9.2950    1.3000   20.9480 O   0  0  0  0  0  0  0  0  0  0  0  0
    2.9846    2.6932   19.3610 H   0  0  0  0  0  0  0  0  0  0  0  0
    3.6235    2.0692   21.6570 H   0  0  0  0  0  0  0  0  0  0  0  0
   10.2684   -2.6719   22.3867 H   0  0  0  0  0  0  0  0  0  0  0  0
    7.8717   -0.0016   24.7596 H   0  0  0  0  0  0  0  0  0  0  0  0
    4.3785    2.0113   17.4257 H   0  0  0  0  0  0  0  0  0  0  0  0
    5.6763    0.7332   22.0915 H   0  0  0  0  0  0  0  0  0  0  0  0
    9.5443   -4.5616   23.7817 H   0  0  0  0  0  0  0  0  0  0  0  0
    7.1921   -1.8821   26.1908 H   0  0  0  0  0  0  0  0  0  0  0  0
   12.3609   -0.1338   23.5633 H   0  0  0  0  0  0  0  0  0  0  0  0
   10.2438    2.2800   26.4448 H   0  0  0  0  0  0  0  0  0  0  0  0
    8.1558   -4.5961   29.7550 H   0  0  0  0  0  0  0  0  0  0  0  0
    7.5611   -5.9778   28.8324 H   0  0  0  0  0  0  0  0  0  0  0  0
    5.9459   -4.1594   28.6209 H   0  0  0  0  0  0  0  0  0  0  0  0
    7.2011   -3.0160   28.1536 H   0  0  0  0  0  0  0  0  0  0  0  0
    9.7290   -3.9880   27.9846 H   0  0  0  0  0  0  0  0  0  0  0  0
    9.9437   -5.6964   28.3562 H   0  0  0  0  0  0  0  0  0  0  0  0
    6.2543   -5.4402   26.5659 H   0  0  0  0  0  0  0  0  0  0  0  0
    5.9909   -3.7397   26.1451 H   0  0  0  0  0  0  0  0  0  0  0  0
    9.9128   -5.2367   25.8843 H   0  0  0  0  0  0  0  0  0  0  0  0
    8.6365   -6.3517   26.3987 H   0  0  0  0  0  0  0  0  0  0  0  0
   12.4111    0.8455   28.3302 H   0  0  0  0  0  0  0  0  0  0  0  0
   13.7921    1.6801   27.5409 H   0  0  0  0  0  0  0  0  0  0  0  0
   12.3182    2.5976   27.9419 H   0  0  0  0  0  0  0  0  0  0  0  0
    8.7512    1.4324   24.2245 H   0  0  0  0  0  0  0  0  0  0  0  0
    9.7926    2.1276   23.0121 H   0  0  0  0  0  0  0  0  0  0  0  0
   10.7449   -0.2552   22.5248 H   0  0  0  0  0  0  0  0  0  0  0  0
    8.0815   -1.6117   21.0754 H   0  0  0  0  0  0  0  0  0  0  0  0
  1  2  1  0  0  0  0
  1  5  2  0  0  0  0
  2  6  2  0  0  0  0
  3  7  2  0  0  0  0
  3 11  1  0  0  0  0
  4  8  1  0  0  0  0
  4 11  2  0  0  0  0
  5 13  1  0  0  0  0
  6 14  1  0  0  0  0
  7 15  1  0  0  0  0
  8 15  2  0  0  0  0
  9 12  1  0  0  0  0
  9 25  2  0  0  0  0
 10 12  2  0  0  0  0
 10 28  1  0  0  0  0
 11 24  1  0  0  0  0
 12 23  1  0  0  0  0
 13 14  2  0  0  0  0
 13 26  1  0  0  0  0
 14 29  1  0  0  0  0
 15 30  1  0  0  0  0
 16 24  1  0  0  0  0
 16 31  1  0  0  0  0
 16 32  2  0  0  0  0
 17 18  1  0  0  0  0
 17 19  1  0  0  0  0
 18 20  1  0  0  0  0
 19 21  1  0  0  0  0
 20 30  1  0  0  0  0
 21 30  1  0  0  0  0
 22 28  1  0  0  0  0
 23 24  1  6  0  0  0
 25 28  1  0  0  0  0
 26 27  2  0  0  0  0
 27 29  1  0  0  0  0
 29 31  1  0  0  0  0
  1 33  1  0  0  0  0
  2 34  1  0  0  0  0
  3 35  1  0  0  0  0
  4 36  1  0  0  0  0
  5 37  1  0  0  0  0
  6 38  1  0  0  0  0
  7 39  1  0  0  0  0
  8 40  1  0  0  0  0
  9 41  1  0  0  0  0
 10 42  1  0  0  0  0
 17 43  1  0  0  0  0
 17 44  1  0  0  0  0
 18 45  1  0  0  0  0
 18 46  1  0  0  0  0
 19 47  1  0  0  0  0
 19 48  1  0  0  0  0
 20 49  1  0  0  0  0
 20 50  1  0  0  0  0
 21 51  1  0  0  0  0
 21 52  1  0  0  0  0
 22 53  1  0  0  0  0
 22 54  1  0  0  0  0
 22 55  1  0  0  0  0
 23 56  1  0  0  0  0
 23 57  1  0  0  0  0
 24 58  1  0  0  0  0
 31 59  1  0  0  0  0
M  END
> <clash_score>
2.8628372199986925

> <docking_score>
-3.9497270584106445

> <overlap_score>
0.8526791334152222

$$$$
BENZO_181_2
  -OEChem-08232013533D

 47 50  0     1  0  0  0  0  0999 V2000
   12.9183    0.8914   26.4488 C   0  0  0  0  0  0  0  0  0  0  0  0
   11.7786    1.6200   26.7891 C   0  0  0  0  0  0  0  0  0  0  0  0
   13.0029    0.2705   25.2025 C   0  0  0  0  0  0  0  0  0  0  0  0
    3.8860    2.1050   19.5250 C   0  0  0  0  0  0  0  0  0  0  0  0
    4.2460    1.7520   20.8250 C   0  0  0  0  0  0  0  0  0  0  0  0
   10.7234    1.7276   25.8832 C   0  0  0  0  0  0  0  0  0  0  0  0
   11.9477    0.3781   24.2967 C   0  0  0  0  0  0  0  0  0  0  0  0
    9.1890   -3.5540   24.0140 C   0  0  0  0  0  0  0  0  0  0  0  0
    7.8700   -2.0610   25.3550 C   0  0  0  0  0  0  0  0  0  0  0  0
    9.5890   -2.4950   23.2210 C   0  0  0  0  0  0  0  0  0  0  0  0
    8.2550   -1.0010   24.5520 C   0  0  0  0  0  0  0  0  0  0  0  0
    4.6610    1.7170   18.4380 C   0  0  0  0  0  0  0  0  0  0  0  0
    5.3890    1.0010   21.0690 C   0  0  0  0  0  0  0  0  0  0  0  0
    8.3450   -3.3440   25.0980 C   0  0  0  0  0  0  0  0  0  0  0  0
   10.8079    1.1067   24.6369 C   0  0  0  0  0  0  0  0  0  0  0  0
    9.1280   -1.2090   23.4870 C   0  0  0  0  0  0  0  0  0  0  0  0
    5.7970    0.9500   18.6730 C   0  0  0  0  0  0  0  0  0  0  0  0
    6.1460    0.6070   19.9750 C   0  0  0  0  0  0  0  0  0  0  0  0
    9.0430    0.2380   21.4940 C   0  0  0  0  0  0  0  0  0  0  0  0
    7.9517   -4.4787   25.9770 C   0  0  0  0  0  0  0  0  0  0  0  0
    9.6654    1.2227   23.6555 C   0  0  0  0  0  0  0  0  0  0  0  0
    9.5820   -0.1080   22.7000 C   0  0  2  0  0  0  0  0  0  0  0  0
    6.7100    0.3850   17.8100 N   0  0  0  0  0  0  0  0  0  0  0  0
    7.5840   -0.2700   18.5160 N   0  0  0  0  0  0  0  0  0  0  0  0
    7.2710   -0.1460   19.8310 N   0  0  0  0  0  0  0  0  0  0  0  0
    8.0950   -0.7700   20.8440 N   0  0  0  0  0  0  0  0  0  0  0  0
    9.2950    1.3000   20.9480 O   0  0  0  0  0  0  0  0  0  0  0  0
   13.7404    0.8088   27.1537 H   0  0  0  0  0  0  0  0  0  0  0  0
   11.7130    2.1044   27.7589 H   0  0  0  0  0  0  0  0  0  0  0  0
   13.8905   -0.2959   24.9369 H   0  0  0  0  0  0  0  0  0  0  0  0
    2.9846    2.6932   19.3610 H   0  0  0  0  0  0  0  0  0  0  0  0
    3.6235    2.0692   21.6570 H   0  0  0  0  0  0  0  0  0  0  0  0
    9.8391    2.2972   26.1570 H   0  0  0  0  0  0  0  0  0  0  0  0
   12.0224   -0.1091   23.3281 H   0  0  0  0  0  0  0  0  0  0  0  0
    9.5416   -4.5625   23.7818 H   0  0  0  0  0  0  0  0  0  0  0  0
    7.1926   -1.8847   26.1916 H   0  0  0  0  0  0  0  0  0  0  0  0
   10.2688   -2.6720   22.3870 H   0  0  0  0  0  0  0  0  0  0  0  0
    7.8705   -0.0015   24.7579 H   0  0  0  0  0  0  0  0  0  0  0  0
    4.3785    2.0113   17.4257 H   0  0  0  0  0  0  0  0  0  0  0  0
    5.6763    0.7332   22.0915 H   0  0  0  0  0  0  0  0  0  0  0  0
    8.6661   -4.5883   26.8021 H   0  0  0  0  0  0  0  0  0  0  0  0
    6.9508   -4.3263   26.4014 H   0  0  0  0  0  0  0  0  0  0  0  0
    7.9188   -5.4228   25.4175 H   0  0  0  0  0  0  0  0  0  0  0  0
    8.7459    1.4099   24.2274 H   0  0  0  0  0  0  0  0  0  0  0  0
    9.8015    2.1185   23.0351 H   0  0  0  0  0  0  0  0  0  0  0  0
   10.7408   -0.2662   22.5300 H   0  0  0  0  0  0  0  0  0  0  0  0
    8.1038   -1.6155   21.0990 H   0  0  0  0  0  0  0  0  0  0  0  0
  1  2  1  0  0  0  0
  1  3  2  0  0  0  0
  2  6  2  0  0  0  0
  3  7  1  0  0  0  0
  4  5  1  0  0  0  0
  4 12  2  0  0  0  0
  5 13  2  0  0  0  0
  6 15  1  0  0  0  0
  7 15  2  0  0  0  0
  8 10  2  0  0  0  0
  8 14  1  0  0  0  0
  9 11  1  0  0  0  0
  9 14  2  0  0  0  0
 10 16  1  0  0  0  0
 11 16  2  0  0  0  0
 12 17  1  0  0  0  0
 13 18  1  0  0  0  0
 14 20  1  0  0  0  0
 15 21  1  0  0  0  0
 16 22  1  0  0  0  0
 17 18  2  0  0  0  0
 17 23  1  0  0  0  0
 18 25  1  0  0  0  0
 19 22  1  0  0  0  0
 19 26  1  0  0  0  0
 19 27  2  0  0  0  0
 21 22  1  6  0  0  0
 23 24  2  0  0  0  0
 24 25  1  0  0  0  0
 25 26  1  0  0  0  0
  1 28  1  0  0  0  0
  2 29  1  0  0  0  0
  3 30  1  0  0  0  0
  4 31  1  0  0  0  0
  5 32  1  0  0  0  0
  6 33  1  0  0  0  0
  7 34  1  0  0  0  0
  8 35  1  0  0  0  0
  9 36  1  0  0  0  0
 10 37  1  0  0  0  0
 11 38  1  0  0  0  0
 12 39  1  0  0  0  0
 13 40  1  0  0  0  0
 20 41  1  0  0  0  0
 20 42  1  0  0  0  0
 20 43  1  0  0  0  0
 21 44  1  0  0  0  0
 21 45  1  0  0  0  0
 22 46  1  0  0  0  0
 26 47  1  0  0  0  0
M  END
> <clash_score>
4.084379441585688

> <docking_score>
-4.079311847686768

> <overlap_score>
0.770836591720581

$$$$
BENZO_180_2
  -OEChem-08232013533D

 44 47  0     1  0  0  0  0  0999 V2000
    3.8860    2.1050   19.5250 C   0  0  0  0  0  0  0  0  0  0  0  0
    4.2460    1.7520   20.8250 C   0  0  0  0  0  0  0  0  0  0  0  0
    9.1890   -3.5540   24.0140 C   0  0  0  0  0  0  0  0  0  0  0  0
    7.8700   -2.0610   25.3550 C   0  0  0  0  0  0  0  0  0  0  0  0
    9.5890   -2.4950   23.2210 C   0  0  0  0  0  0  0  0  0  0  0  0
    8.2550   -1.0010   24.5520 C   0  0  0  0  0  0  0  0  0  0  0  0
    4.6610    1.7170   18.4380 C   0  0  0  0  0  0  0  0  0  0  0  0
    5.3890    1.0010   21.0690 C   0  0  0  0  0  0  0  0  0  0  0  0
   11.2216   -0.1193   25.2335 C   0  0  0  0  0  0  0  0  0  0  0  0
   12.2855    0.0555   26.0908 C   0  0  0  0  0  0  0  0  0  0  0  0
   11.5715    2.1720   25.0613 C   0  0  0  0  0  0  0  0  0  0  0  0
    8.3450   -3.3440   25.0980 C   0  0  0  0  0  0  0  0  0  0  0  0
    9.1280   -1.2090   23.4870 C   0  0  0  0  0  0  0  0  0  0  0  0
   10.8079    1.1067   24.6369 C   0  0  0  0  0  0  0  0  0  0  0  0
    5.7970    0.9500   18.6730 C   0  0  0  0  0  0  0  0  0  0  0  0
    6.1460    0.6070   19.9750 C   0  0  0  0  0  0  0  0  0  0  0  0
    9.0430    0.2380   21.4940 C   0  0  0  0  0  0  0  0  0  0  0  0
    7.9517   -4.4787   25.9770 C   0  0  0  0  0  0  0  0  0  0  0  0
    9.6654    1.2227   23.6555 C   0  0  0  0  0  0  0  0  0  0  0  0
    9.5820   -0.1080   22.7000 C   0  0  2  0  0  0  0  0  0  0  0  0
    6.7100    0.3850   17.8100 N   0  0  0  0  0  0  0  0  0  0  0  0
    7.5840   -0.2700   18.5160 N   0  0  0  0  0  0  0  0  0  0  0  0
    7.2710   -0.1460   19.8310 N   0  0  0  0  0  0  0  0  0  0  0  0
    8.0950   -0.7700   20.8440 N   0  0  0  0  0  0  0  0  0  0  0  0
    9.2950    1.3000   20.9480 O   0  0  0  0  0  0  0  0  0  0  0  0
   12.7814    1.6924   26.1741 S   0  0  0  0  0  0  0  0  0  0  0  0
    2.9846    2.6932   19.3610 H   0  0  0  0  0  0  0  0  0  0  0  0
    3.6235    2.0692   21.6570 H   0  0  0  0  0  0  0  0  0  0  0  0
    9.5416   -4.5625   23.7818 H   0  0  0  0  0  0  0  0  0  0  0  0
    7.1926   -1.8847   26.1916 H   0  0  0  0  0  0  0  0  0  0  0  0
   10.2688   -2.6720   22.3870 H   0  0  0  0  0  0  0  0  0  0  0  0
    7.8705   -0.0015   24.7579 H   0  0  0  0  0  0  0  0  0  0  0  0
    4.3785    2.0113   17.4257 H   0  0  0  0  0  0  0  0  0  0  0  0
    5.6763    0.7332   22.0915 H   0  0  0  0  0  0  0  0  0  0  0  0
   10.7645   -1.0828   25.0465 H   0  0  0  0  0  0  0  0  0  0  0  0
   12.7950   -0.6995   26.6728 H   0  0  0  0  0  0  0  0  0  0  0  0
   11.4793    3.2104   24.7745 H   0  0  0  0  0  0  0  0  0  0  0  0
    8.6661   -4.5883   26.8021 H   0  0  0  0  0  0  0  0  0  0  0  0
    6.9508   -4.3263   26.4014 H   0  0  0  0  0  0  0  0  0  0  0  0
    7.9188   -5.4228   25.4175 H   0  0  0  0  0  0  0  0  0  0  0  0
    8.7459    1.4099   24.2274 H   0  0  0  0  0  0  0  0  0  0  0  0
    9.8015    2.1185   23.0351 H   0  0  0  0  0  0  0  0  0  0  0  0
   10.7408   -0.2662   22.5300 H   0  0  0  0  0  0  0  0  0  0  0  0
    8.1038   -1.6155   21.0990 H   0  0  0  0  0  0  0  0  0  0  0  0
  1  2  1  0  0  0  0
  1  7  2  0  0  0  0
  2  8  2  0  0  0  0
  3  5  2  0  0  0  0
  3 12  1  0  0  0  0
  4  6  1  0  0  0  0
  4 12  2  0  0  0  0
  5 13  1  0  0  0  0
  6 13  2  0  0  0  0
  7 15  1  0  0  0  0
  8 16  1  0  0  0  0
  9 10  2  0  0  0  0
  9 14  1  0  0  0  0
 10 26  1  0  0  0  0
 11 14  2  0  0  0  0
 11 26  1  0  0  0  0
 12 18  1  0  0  0  0
 13 20  1  0  0  0  0
 14 19  1  0  0  0  0
 15 16  2  0  0  0  0
 15 21  1  0  0  0  0
 16 23  1  0  0  0  0
 17 20  1  0  0  0  0
 17 24  1  0  0  0  0
 17 25  2  0  0  0  0
 19 20  1  6  0  0  0
 21 22  2  0  0  0  0
 22 23  1  0  0  0  0
 23 24  1  0  0  0  0
  1 27  1  0  0  0  0
  2 28  1  0  0  0  0
  3 29  1  0  0  0  0
  4 30  1  0  0  0  0
  5 31  1  0  0  0  0
  6 32  1  0  0  0  0
  7 33  1  0  0  0  0
  8 34  1  0  0  0  0
  9 35  1  0  0  0  0
 10 36  1  0  0  0  0
 11 37  1  0  0  0  0
 18 38  1  0  0  0  0
 18 39  1  0  0  0  0
 18 40  1  0  0  0  0
 19 41  1  0  0  0  0
 19 42  1  0  0  0  0
 20 43  1  0  0  0  0
 24 44  1  0  0  0  0
M  END
> <clash_score>
1.5150201922270998

> <docking_score>
-4.5532684326171875

> <overlap_score>
0.7493899464607239

$$$$
BENZO_179_1
  -OEChem-08232013533D

 59 63  0     1  0  0  0  0  0999 V2000
    3.8860    2.1050   19.5250 C   0  0  0  0  0  0  0  0  0  0  0  0
    4.2460    1.7520   20.8250 C   0  0  0  0  0  0  0  0  0  0  0  0
    9.5890   -2.4950   23.2210 C   0  0  0  0  0  0  0  0  0  0  0  0
    8.2550   -1.0010   24.5520 C   0  0  0  0  0  0  0  0  0  0  0  0
    4.6610    1.7170   18.4380 C   0  0  0  0  0  0  0  0  0  0  0  0
    5.3890    1.0010   21.0690 C   0  0  0  0  0  0  0  0  0  0  0  0
    9.1890   -3.5540   24.0140 C   0  0  0  0  0  0  0  0  0  0  0  0
    7.8700   -2.0610   25.3550 C   0  0  0  0  0  0  0  0  0  0  0  0
   13.2946    0.1160   24.1259 C   0  0  0  0  0  0  0  0  0  0  0  0
   11.5904   -0.9670   24.9965 C   0  0  0  0  0  0  0  0  0  0  0  0
    9.1280   -1.2090   23.4870 C   0  0  0  0  0  0  0  0  0  0  0  0
   11.9955   -0.3454   23.8406 C   0  0  0  0  0  0  0  0  0  0  0  0
    5.7970    0.9500   18.6730 C   0  0  0  0  0  0  0  0  0  0  0  0
    6.1460    0.6070   19.9750 C   0  0  0  0  0  0  0  0  0  0  0  0
    8.3450   -3.3440   25.0980 C   0  0  0  0  0  0  0  0  0  0  0  0
    9.0430    0.2380   21.4940 C   0  0  0  0  0  0  0  0  0  0  0  0
    7.9496   -4.9537   28.7345 C   0  0  0  0  0  0  0  0  0  0  0  0
    6.8919   -4.0607   28.0818 C   0  0  0  0  0  0  0  0  0  0  0  0
    9.2470   -4.9693   27.9230 C   0  0  0  0  0  0  0  0  0  0  0  0
    6.6889   -4.4385   26.6147 C   0  0  0  0  0  0  0  0  0  0  0  0
    8.9871   -5.3207   26.4549 C   0  0  0  0  0  0  0  0  0  0  0  0
   12.6757   -1.3438   27.2233 C   0  0  0  0  0  0  0  0  0  0  0  0
   11.2185   -0.1906   22.5545 C   0  0  0  0  0  0  0  0  0  0  0  0
    9.5820   -0.1080   22.7000 C   0  0  1  0  0  0  0  0  0  0  0  0
   13.6885   -0.1865   25.3658 N   0  0  0  0  0  0  0  0  0  0  0  0
    6.7100    0.3850   17.8100 N   0  0  0  0  0  0  0  0  0  0  0  0
    7.5840   -0.2700   18.5160 N   0  0  0  0  0  0  0  0  0  0  0  0
   12.6307   -0.8445   25.8699 N   0  0  0  0  0  0  0  0  0  0  0  0
    7.2710   -0.1460   19.8310 N   0  0  0  0  0  0  0  0  0  0  0  0
    7.9769   -4.4027   25.9163 N   0  0  0  0  0  0  0  0  0  0  0  0
    8.0950   -0.7700   20.8440 N   0  0  0  0  0  0  0  0  0  0  0  0
    9.2950    1.3000   20.9480 O   0  0  0  0  0  0  0  0  0  0  0  0
    2.9846    2.6932   19.3610 H   0  0  0  0  0  0  0  0  0  0  0  0
    3.6235    2.0692   21.6570 H   0  0  0  0  0  0  0  0  0  0  0  0
   10.2684   -2.6719   22.3867 H   0  0  0  0  0  0  0  0  0  0  0  0
    7.8717   -0.0016   24.7596 H   0  0  0  0  0  0  0  0  0  0  0  0
    4.3785    2.0113   17.4257 H   0  0  0  0  0  0  0  0  0  0  0  0
    5.6763    0.7332   22.0915 H   0  0  0  0  0  0  0  0  0  0  0  0
    9.5443   -4.5616   23.7817 H   0  0  0  0  0  0  0  0  0  0  0  0
    7.1921   -1.8821   26.1908 H   0  0  0  0  0  0  0  0  0  0  0  0
   13.9722    0.6609   23.4839 H   0  0  0  0  0  0  0  0  0  0  0  0
   10.6727   -1.4722   25.2656 H   0  0  0  0  0  0  0  0  0  0  0  0
    8.1558   -4.5961   29.7550 H   0  0  0  0  0  0  0  0  0  0  0  0
    7.5611   -5.9778   28.8324 H   0  0  0  0  0  0  0  0  0  0  0  0
    5.9459   -4.1594   28.6209 H   0  0  0  0  0  0  0  0  0  0  0  0
    7.2011   -3.0160   28.1536 H   0  0  0  0  0  0  0  0  0  0  0  0
    9.7290   -3.9880   27.9846 H   0  0  0  0  0  0  0  0  0  0  0  0
    9.9437   -5.6964   28.3562 H   0  0  0  0  0  0  0  0  0  0  0  0
    6.2543   -5.4402   26.5659 H   0  0  0  0  0  0  0  0  0  0  0  0
    5.9909   -3.7397   26.1451 H   0  0  0  0  0  0  0  0  0  0  0  0
    9.9128   -5.2367   25.8843 H   0  0  0  0  0  0  0  0  0  0  0  0
    8.6365   -6.3517   26.3987 H   0  0  0  0  0  0  0  0  0  0  0  0
   13.0811   -2.3586   27.1952 H   0  0  0  0  0  0  0  0  0  0  0  0
   13.3128   -0.6943   27.8300 H   0  0  0  0  0  0  0  0  0  0  0  0
   11.6652   -1.3460   27.6414 H   0  0  0  0  0  0  0  0  0  0  0  0
   11.6029    0.6962   22.0317 H   0  0  0  0  0  0  0  0  0  0  0  0
   11.4403   -1.0329   21.8857 H   0  0  0  0  0  0  0  0  0  0  0  0
    9.5315    0.8594   23.3833 H   0  0  0  0  0  0  0  0  0  0  0  0
    8.0815   -1.6117   21.0754 H   0  0  0  0  0  0  0  0  0  0  0  0
  1  2  1  0  0  0  0
  1  5  2  0  0  0  0
  2  6  2  0  0  0  0
  3  7  2  0  0  0  0
  3 11  1  0  0  0  0
  4  8  1  0  0  0  0
  4 11  2  0  0  0  0
  5 13  1  0  0  0  0
  6 14  1  0  0  0  0
  7 15  1  0  0  0  0
  8 15  2  0  0  0  0
  9 12  1  0  0  0  0
  9 25  2  0  0  0  0
 10 12  2  0  0  0  0
 10 28  1  0  0  0  0
 11 24  1  0  0  0  0
 12 23  1  0  0  0  0
 13 14  2  0  0  0  0
 13 26  1  0  0  0  0
 14 29  1  0  0  0  0
 15 30  1  0  0  0  0
 16 24  1  0  0  0  0
 16 31  1  0  0  0  0
 16 32  2  0  0  0  0
 17 18  1  0  0  0  0
 17 19  1  0  0  0  0
 18 20  1  0  0  0  0
 19 21  1  0  0  0  0
 20 30  1  0  0  0  0
 21 30  1  0  0  0  0
 22 28  1  0  0  0  0
 23 24  1  1  0  0  0
 25 28  1  0  0  0  0
 26 27  2  0  0  0  0
 27 29  1  0  0  0  0
 29 31  1  0  0  0  0
  1 33  1  0  0  0  0
  2 34  1  0  0  0  0
  3 35  1  0  0  0  0
  4 36  1  0  0  0  0
  5 37  1  0  0  0  0
  6 38  1  0  0  0  0
  7 39  1  0  0  0  0
  8 40  1  0  0  0  0
  9 41  1  0  0  0  0
 10 42  1  0  0  0  0
 17 43  1  0  0  0  0
 17 44  1  0  0  0  0
 18 45  1  0  0  0  0
 18 46  1  0  0  0  0
 19 47  1  0  0  0  0
 19 48  1  0  0  0  0
 20 49  1  0  0  0  0
 20 50  1  0  0  0  0
 21 51  1  0  0  0  0
 21 52  1  0  0  0  0
 22 53  1  0  0  0  0
 22 54  1  0  0  0  0
 22 55  1  0  0  0  0
 23 56  1  0  0  0  0
 23 57  1  0  0  0  0
 24 58  1  0  0  0  0
 31 59  1  0  0  0  0
M  END
> <clash_score>
1.3152039535109838

> <docking_score>
-6.428374290466309

> <overlap_score>
0.913967490196228

$$$$
BENZO_182_1
  -OEChem-08232013533D

 47 50  0     1  0  0  0  0  0999 V2000
    3.8860    2.1050   19.5250 C   0  0  0  0  0  0  0  0  0  0  0  0
    4.2460    1.7520   20.8250 C   0  0  0  0  0  0  0  0  0  0  0  0
   13.9169   -1.2205   25.0322 C   0  0  0  0  0  0  0  0  0  0  0  0
   13.2022   -1.0608   23.8451 C   0  0  0  0  0  0  0  0  0  0  0  0
    9.1890   -3.5540   24.0140 C   0  0  0  0  0  0  0  0  0  0  0  0
    7.8700   -2.0610   25.3550 C   0  0  0  0  0  0  0  0  0  0  0  0
    9.5890   -2.4950   23.2210 C   0  0  0  0  0  0  0  0  0  0  0  0
    8.2550   -1.0010   24.5520 C   0  0  0  0  0  0  0  0  0  0  0  0
    4.6610    1.7170   18.4380 C   0  0  0  0  0  0  0  0  0  0  0  0
    5.3890    1.0010   21.0690 C   0  0  0  0  0  0  0  0  0  0  0  0
   13.4171   -0.6943   26.2234 C   0  0  0  0  0  0  0  0  0  0  0  0
   11.4878    0.1514   25.0404 C   0  0  0  0  0  0  0  0  0  0  0  0
    8.3450   -3.3440   25.0980 C   0  0  0  0  0  0  0  0  0  0  0  0
    9.1280   -1.2090   23.4870 C   0  0  0  0  0  0  0  0  0  0  0  0
   11.9876   -0.3748   23.8491 C   0  0  0  0  0  0  0  0  0  0  0  0
    5.7970    0.9500   18.6730 C   0  0  0  0  0  0  0  0  0  0  0  0
    6.1460    0.6070   19.9750 C   0  0  0  0  0  0  0  0  0  0  0  0
   12.2026   -0.0084   26.2275 C   0  0  0  0  0  0  0  0  0  0  0  0
    9.0430    0.2380   21.4940 C   0  0  0  0  0  0  0  0  0  0  0  0
    7.9517   -4.4787   25.9770 C   0  0  0  0  0  0  0  0  0  0  0  0
   11.2147   -0.2012   22.5629 C   0  0  0  0  0  0  0  0  0  0  0  0
    9.5820   -0.1080   22.7000 C   0  0  1  0  0  0  0  0  0  0  0  0
    6.7100    0.3850   17.8100 N   0  0  0  0  0  0  0  0  0  0  0  0
    7.5840   -0.2700   18.5160 N   0  0  0  0  0  0  0  0  0  0  0  0
    7.2710   -0.1460   19.8310 N   0  0  0  0  0  0  0  0  0  0  0  0
    8.0950   -0.7700   20.8440 N   0  0  0  0  0  0  0  0  0  0  0  0
    9.2950    1.3000   20.9480 O   0  0  0  0  0  0  0  0  0  0  0  0
   11.5870    0.6416   27.6973 Cl  0  0  0  0  0  0  0  0  0  0  0  0
    2.9846    2.6932   19.3610 H   0  0  0  0  0  0  0  0  0  0  0  0
    3.6235    2.0692   21.6570 H   0  0  0  0  0  0  0  0  0  0  0  0
   14.8627   -1.7546   25.0285 H   0  0  0  0  0  0  0  0  0  0  0  0
   13.5992   -1.4740   22.9215 H   0  0  0  0  0  0  0  0  0  0  0  0
    9.5416   -4.5625   23.7818 H   0  0  0  0  0  0  0  0  0  0  0  0
    7.1926   -1.8847   26.1916 H   0  0  0  0  0  0  0  0  0  0  0  0
   10.2688   -2.6720   22.3870 H   0  0  0  0  0  0  0  0  0  0  0  0
    7.8705   -0.0015   24.7579 H   0  0  0  0  0  0  0  0  0  0  0  0
    4.3785    2.0113   17.4257 H   0  0  0  0  0  0  0  0  0  0  0  0
    5.6763    0.7332   22.0915 H   0  0  0  0  0  0  0  0  0  0  0  0
   13.9851   -0.8262   27.1411 H   0  0  0  0  0  0  0  0  0  0  0  0
   10.5401    0.6850   25.0384 H   0  0  0  0  0  0  0  0  0  0  0  0
    8.6661   -4.5883   26.8021 H   0  0  0  0  0  0  0  0  0  0  0  0
    6.9508   -4.3263   26.4014 H   0  0  0  0  0  0  0  0  0  0  0  0
    7.9188   -5.4228   25.4175 H   0  0  0  0  0  0  0  0  0  0  0  0
   11.6025    0.6918   22.0532 H   0  0  0  0  0  0  0  0  0  0  0  0
   11.4368   -1.0349   21.8836 H   0  0  0  0  0  0  0  0  0  0  0  0
    9.5277    0.8495   23.3908 H   0  0  0  0  0  0  0  0  0  0  0  0
    8.1038   -1.6155   21.0990 H   0  0  0  0  0  0  0  0  0  0  0  0
  1  2  1  0  0  0  0
  1  9  2  0  0  0  0
  2 10  2  0  0  0  0
  3  4  2  0  0  0  0
  3 11  1  0  0  0  0
  4 15  1  0  0  0  0
  5  7  2  0  0  0  0
  5 13  1  0  0  0  0
  6  8  1  0  0  0  0
  6 13  2  0  0  0  0
  7 14  1  0  0  0  0
  8 14  2  0  0  0  0
  9 16  1  0  0  0  0
 10 17  1  0  0  0  0
 11 18  2  0  0  0  0
 12 15  2  0  0  0  0
 12 18  1  0  0  0  0
 13 20  1  0  0  0  0
 14 22  1  0  0  0  0
 15 21  1  0  0  0  0
 16 17  2  0  0  0  0
 16 23  1  0  0  0  0
 17 25  1  0  0  0  0
 18 28  1  0  0  0  0
 19 22  1  0  0  0  0
 19 26  1  0  0  0  0
 19 27  2  0  0  0  0
 21 22  1  1  0  0  0
 23 24  2  0  0  0  0
 24 25  1  0  0  0  0
 25 26  1  0  0  0  0
  1 29  1  0  0  0  0
  2 30  1  0  0  0  0
  3 31  1  0  0  0  0
  4 32  1  0  0  0  0
  5 33  1  0  0  0  0
  6 34  1  0  0  0  0
  7 35  1  0  0  0  0
  8 36  1  0  0  0  0
  9 37  1  0  0  0  0
 10 38  1  0  0  0  0
 11 39  1  0  0  0  0
 12 40  1  0  0  0  0
 20 41  1  0  0  0  0
 20 42  1  0  0  0  0
 20 43  1  0  0  0  0
 21 44  1  0  0  0  0
 21 45  1  0  0  0  0
 22 46  1  0  0  0  0
 26 47  1  0  0  0  0
M  END
> <clash_score>
0.6679264720783208

> <docking_score>
-4.987066268920898

> <overlap_score>
0.8380796909332275

$$$$
BENZO_182_2
  -OEChem-08232013533D

 47 50  0     1  0  0  0  0  0999 V2000
    3.8860    2.1050   19.5250 C   0  0  0  0  0  0  0  0  0  0  0  0
    4.2460    1.7520   20.8250 C   0  0  0  0  0  0  0  0  0  0  0  0
   11.7758    1.6198   26.7903 C   0  0  0  0  0  0  0  0  0  0  0  0
   10.7217    1.7274   25.8831 C   0  0  0  0  0  0  0  0  0  0  0  0
    9.1890   -3.5540   24.0140 C   0  0  0  0  0  0  0  0  0  0  0  0
    7.8700   -2.0610   25.3550 C   0  0  0  0  0  0  0  0  0  0  0  0
    9.5890   -2.4950   23.2210 C   0  0  0  0  0  0  0  0  0  0  0  0
    8.2550   -1.0010   24.5520 C   0  0  0  0  0  0  0  0  0  0  0  0
    4.6610    1.7170   18.4380 C   0  0  0  0  0  0  0  0  0  0  0  0
    5.3890    1.0010   21.0690 C   0  0  0  0  0  0  0  0  0  0  0  0
   12.9162    0.8916   26.4512 C   0  0  0  0  0  0  0  0  0  0  0  0
   11.9483    0.3784   24.2979 C   0  0  0  0  0  0  0  0  0  0  0  0
    8.3450   -3.3440   25.0980 C   0  0  0  0  0  0  0  0  0  0  0  0
    9.1280   -1.2090   23.4870 C   0  0  0  0  0  0  0  0  0  0  0  0
   10.8079    1.1067   24.6370 C   0  0  0  0  0  0  0  0  0  0  0  0
    5.7970    0.9500   18.6730 C   0  0  0  0  0  0  0  0  0  0  0  0
    6.1460    0.6070   19.9750 C   0  0  0  0  0  0  0  0  0  0  0  0
   13.0024    0.2709   25.2050 C   0  0  0  0  0  0  0  0  0  0  0  0
    9.0430    0.2380   21.4940 C   0  0  0  0  0  0  0  0  0  0  0  0
    7.9517   -4.4787   25.9770 C   0  0  0  0  0  0  0  0  0  0  0  0
    9.6654    1.2227   23.6555 C   0  0  0  0  0  0  0  0  0  0  0  0
    9.5820   -0.1080   22.7000 C   0  0  2  0  0  0  0  0  0  0  0  0
    6.7100    0.3850   17.8100 N   0  0  0  0  0  0  0  0  0  0  0  0
    7.5840   -0.2700   18.5160 N   0  0  0  0  0  0  0  0  0  0  0  0
    7.2710   -0.1460   19.8310 N   0  0  0  0  0  0  0  0  0  0  0  0
    8.0950   -0.7700   20.8440 N   0  0  0  0  0  0  0  0  0  0  0  0
    9.2950    1.3000   20.9480 O   0  0  0  0  0  0  0  0  0  0  0  0
   14.4091   -0.6285   24.7878 Cl  0  0  0  0  0  0  0  0  0  0  0  0
    2.9846    2.6932   19.3610 H   0  0  0  0  0  0  0  0  0  0  0  0
    3.6235    2.0692   21.6570 H   0  0  0  0  0  0  0  0  0  0  0  0
   11.7082    2.1031   27.7606 H   0  0  0  0  0  0  0  0  0  0  0  0
    9.8369    2.2967   26.1558 H   0  0  0  0  0  0  0  0  0  0  0  0
    9.5416   -4.5625   23.7818 H   0  0  0  0  0  0  0  0  0  0  0  0
    7.1926   -1.8847   26.1916 H   0  0  0  0  0  0  0  0  0  0  0  0
   10.2688   -2.6720   22.3870 H   0  0  0  0  0  0  0  0  0  0  0  0
    7.8705   -0.0015   24.7579 H   0  0  0  0  0  0  0  0  0  0  0  0
    4.3785    2.0113   17.4257 H   0  0  0  0  0  0  0  0  0  0  0  0
    5.6763    0.7332   22.0915 H   0  0  0  0  0  0  0  0  0  0  0  0
   13.7299    0.8159   27.1683 H   0  0  0  0  0  0  0  0  0  0  0  0
   12.0109   -0.1032   23.3248 H   0  0  0  0  0  0  0  0  0  0  0  0
    8.6661   -4.5883   26.8021 H   0  0  0  0  0  0  0  0  0  0  0  0
    6.9508   -4.3263   26.4014 H   0  0  0  0  0  0  0  0  0  0  0  0
    7.9188   -5.4228   25.4175 H   0  0  0  0  0  0  0  0  0  0  0  0
    8.7459    1.4099   24.2274 H   0  0  0  0  0  0  0  0  0  0  0  0
    9.8015    2.1185   23.0351 H   0  0  0  0  0  0  0  0  0  0  0  0
   10.7408   -0.2662   22.5300 H   0  0  0  0  0  0  0  0  0  0  0  0
    8.1038   -1.6155   21.0990 H   0  0  0  0  0  0  0  0  0  0  0  0
  1  2  1  0  0  0  0
  1  9  2  0  0  0  0
  2 10  2  0  0  0  0
  3  4  2  0  0  0  0
  3 11  1  0  0  0  0
  4 15  1  0  0  0  0
  5  7  2  0  0  0  0
  5 13  1  0  0  0  0
  6  8  1  0  0  0  0
  6 13  2  0  0  0  0
  7 14  1  0  0  0  0
  8 14  2  0  0  0  0
  9 16  1  0  0  0  0
 10 17  1  0  0  0  0
 11 18  2  0  0  0  0
 12 15  2  0  0  0  0
 12 18  1  0  0  0  0
 13 20  1  0  0  0  0
 14 22  1  0  0  0  0
 15 21  1  0  0  0  0
 16 17  2  0  0  0  0
 16 23  1  0  0  0  0
 17 25  1  0  0  0  0
 18 28  1  0  0  0  0
 19 22  1  0  0  0  0
 19 26  1  0  0  0  0
 19 27  2  0  0  0  0
 21 22  1  6  0  0  0
 23 24  2  0  0  0  0
 24 25  1  0  0  0  0
 25 26  1  0  0  0  0
  1 29  1  0  0  0  0
  2 30  1  0  0  0  0
  3 31  1  0  0  0  0
  4 32  1  0  0  0  0
  5 33  1  0  0  0  0
  6 34  1  0  0  0  0
  7 35  1  0  0  0  0
  8 36  1  0  0  0  0
  9 37  1  0  0  0  0
 10 38  1  0  0  0  0
 11 39  1  0  0  0  0
 12 40  1  0  0  0  0
 20 41  1  0  0  0  0
 20 42  1  0  0  0  0
 20 43  1  0  0  0  0
 21 44  1  0  0  0  0
 21 45  1  0  0  0  0
 22 46  1  0  0  0  0
 26 47  1  0  0  0  0
M  END
> <clash_score>
4.085676457920602

> <docking_score>
-3.5863070487976074

> <overlap_score>
0.7837685942649841

$$$$
BENZO_183_2
  -OEChem-08232013533D

 47 50  0     1  0  0  0  0  0999 V2000
    3.8860    2.1050   19.5250 C   0  0  0  0  0  0  0  0  0  0  0  0
    4.2460    1.7520   20.8250 C   0  0  0  0  0  0  0  0  0  0  0  0
    9.1890   -3.5540   24.0140 C   0  0  0  0  0  0  0  0  0  0  0  0
    7.8700   -2.0610   25.3550 C   0  0  0  0  0  0  0  0  0  0  0  0
    9.5890   -2.4950   23.2210 C   0  0  0  0  0  0  0  0  0  0  0  0
    8.2550   -1.0010   24.5520 C   0  0  0  0  0  0  0  0  0  0  0  0
    4.6610    1.7170   18.4380 C   0  0  0  0  0  0  0  0  0  0  0  0
    5.3890    1.0010   21.0690 C   0  0  0  0  0  0  0  0  0  0  0  0
   12.0260    0.4217   24.4676 C   0  0  0  0  0  0  0  0  0  0  0  0
   10.8915    1.6496   25.8958 C   0  0  0  0  0  0  0  0  0  0  0  0
    8.3450   -3.3440   25.0980 C   0  0  0  0  0  0  0  0  0  0  0  0
    9.1280   -1.2090   23.4870 C   0  0  0  0  0  0  0  0  0  0  0  0
   10.8079    1.1067   24.6370 C   0  0  0  0  0  0  0  0  0  0  0  0
    5.7970    0.9500   18.6730 C   0  0  0  0  0  0  0  0  0  0  0  0
    6.1460    0.6070   19.9750 C   0  0  0  0  0  0  0  0  0  0  0  0
    9.0430    0.2380   21.4940 C   0  0  0  0  0  0  0  0  0  0  0  0
    7.9517   -4.4787   25.9770 C   0  0  0  0  0  0  0  0  0  0  0  0
   12.6499    1.6036   27.6803 C   0  0  0  0  0  0  0  0  0  0  0  0
    9.6654    1.2227   23.6555 C   0  0  0  0  0  0  0  0  0  0  0  0
    9.5820   -0.1080   22.7000 C   0  0  2  0  0  0  0  0  0  0  0  0
   12.8250    0.5191   25.5335 N   0  0  0  0  0  0  0  0  0  0  0  0
    6.7100    0.3850   17.8100 N   0  0  0  0  0  0  0  0  0  0  0  0
    7.5840   -0.2700   18.5160 N   0  0  0  0  0  0  0  0  0  0  0  0
   12.1074    1.2718   26.3847 N   0  0  0  0  0  0  0  0  0  0  0  0
    7.2710   -0.1460   19.8310 N   0  0  0  0  0  0  0  0  0  0  0  0
    8.0950   -0.7700   20.8440 N   0  0  0  0  0  0  0  0  0  0  0  0
    9.2950    1.3000   20.9480 O   0  0  0  0  0  0  0  0  0  0  0  0
    2.9846    2.6932   19.3610 H   0  0  0  0  0  0  0  0  0  0  0  0
    3.6235    2.0692   21.6570 H   0  0  0  0  0  0  0  0  0  0  0  0
    9.5416   -4.5625   23.7818 H   0  0  0  0  0  0  0  0  0  0  0  0
    7.1926   -1.8847   26.1916 H   0  0  0  0  0  0  0  0  0  0  0  0
   10.2688   -2.6720   22.3870 H   0  0  0  0  0  0  0  0  0  0  0  0
    7.8705   -0.0015   24.7579 H   0  0  0  0  0  0  0  0  0  0  0  0
    4.3785    2.0113   17.4257 H   0  0  0  0  0  0  0  0  0  0  0  0
    5.6763    0.7332   22.0915 H   0  0  0  0  0  0  0  0  0  0  0  0
   12.3675   -0.1444   23.6125 H   0  0  0  0  0  0  0  0  0  0  0  0
   10.2069    2.2586   26.4705 H   0  0  0  0  0  0  0  0  0  0  0  0
    8.6661   -4.5883   26.8021 H   0  0  0  0  0  0  0  0  0  0  0  0
    6.9508   -4.3263   26.4014 H   0  0  0  0  0  0  0  0  0  0  0  0
    7.9188   -5.4228   25.4175 H   0  0  0  0  0  0  0  0  0  0  0  0
   12.3490    0.8215   28.3823 H   0  0  0  0  0  0  0  0  0  0  0  0
   13.7401    1.6600   27.6150 H   0  0  0  0  0  0  0  0  0  0  0  0
   12.2595    2.5746   27.9977 H   0  0  0  0  0  0  0  0  0  0  0  0
    8.7459    1.4099   24.2274 H   0  0  0  0  0  0  0  0  0  0  0  0
    9.8015    2.1185   23.0351 H   0  0  0  0  0  0  0  0  0  0  0  0
   10.7408   -0.2662   22.5300 H   0  0  0  0  0  0  0  0  0  0  0  0
    8.1038   -1.6155   21.0990 H   0  0  0  0  0  0  0  0  0  0  0  0
  1  2  1  0  0  0  0
  1  7  2  0  0  0  0
  2  8  2  0  0  0  0
  3  5  2  0  0  0  0
  3 11  1  0  0  0  0
  4  6  1  0  0  0  0
  4 11  2  0  0  0  0
  5 12  1  0  0  0  0
  6 12  2  0  0  0  0
  7 14  1  0  0  0  0
  8 15  1  0  0  0  0
  9 13  1  0  0  0  0
  9 21  2  0  0  0  0
 10 13  2  0  0  0  0
 10 24  1  0  0  0  0
 11 17  1  0  0  0  0
 12 20  1  0  0  0  0
 13 19  1  0  0  0  0
 14 15  2  0  0  0  0
 14 22  1  0  0  0  0
 15 25  1  0  0  0  0
 16 20  1  0  0  0  0
 16 26  1  0  0  0  0
 16 27  2  0  0  0  0
 18 24  1  0  0  0  0
 19 20  1  6  0  0  0
 21 24  1  0  0  0  0
 22 23  2  0  0  0  0
 23 25  1  0  0  0  0
 25 26  1  0  0  0  0
  1 28  1  0  0  0  0
  2 29  1  0  0  0  0
  3 30  1  0  0  0  0
  4 31  1  0  0  0  0
  5 32  1  0  0  0  0
  6 33  1  0  0  0  0
  7 34  1  0  0  0  0
  8 35  1  0  0  0  0
  9 36  1  0  0  0  0
 10 37  1  0  0  0  0
 17 38  1  0  0  0  0
 17 39  1  0  0  0  0
 17 40  1  0  0  0  0
 18 41  1  0  0  0  0
 18 42  1  0  0  0  0
 18 43  1  0  0  0  0
 19 44  1  0  0  0  0
 19 45  1  0  0  0  0
 20 46  1  0  0  0  0
 26 47  1  0  0  0  0
M  END
> <clash_score>
2.8536368907097898

> <docking_score>
-3.1159768104553223

> <overlap_score>
0.7624844312667847

$$$$
BENZO_183_1
  -OEChem-08232013533D

 47 50  0     1  0  0  0  0  0999 V2000
    3.8860    2.1050   19.5250 C   0  0  0  0  0  0  0  0  0  0  0  0
    4.2460    1.7520   20.8250 C   0  0  0  0  0  0  0  0  0  0  0  0
    9.1890   -3.5540   24.0140 C   0  0  0  0  0  0  0  0  0  0  0  0
    7.8700   -2.0610   25.3550 C   0  0  0  0  0  0  0  0  0  0  0  0
    9.5890   -2.4950   23.2210 C   0  0  0  0  0  0  0  0  0  0  0  0
    8.2550   -1.0010   24.5520 C   0  0  0  0  0  0  0  0  0  0  0  0
    4.6610    1.7170   18.4380 C   0  0  0  0  0  0  0  0  0  0  0  0
    5.3890    1.0010   21.0690 C   0  0  0  0  0  0  0  0  0  0  0  0
   13.2198   -1.0300   24.0348 C   0  0  0  0  0  0  0  0  0  0  0  0
   11.6457    0.0746   25.1011 C   0  0  0  0  0  0  0  0  0  0  0  0
    8.3450   -3.3440   25.0980 C   0  0  0  0  0  0  0  0  0  0  0  0
    9.1280   -1.2090   23.4870 C   0  0  0  0  0  0  0  0  0  0  0  0
   11.9876   -0.3748   23.8491 C   0  0  0  0  0  0  0  0  0  0  0  0
    5.7970    0.9500   18.6730 C   0  0  0  0  0  0  0  0  0  0  0  0
    6.1460    0.6070   19.9750 C   0  0  0  0  0  0  0  0  0  0  0  0
    9.0430    0.2380   21.4940 C   0  0  0  0  0  0  0  0  0  0  0  0
    7.9517   -4.4787   25.9770 C   0  0  0  0  0  0  0  0  0  0  0  0
   12.7431   -0.0808   27.3484 C   0  0  0  0  0  0  0  0  0  0  0  0
   11.2147   -0.2012   22.5629 C   0  0  0  0  0  0  0  0  0  0  0  0
    9.5820   -0.1080   22.7000 C   0  0  1  0  0  0  0  0  0  0  0  0
   13.6327   -1.0014   25.3047 N   0  0  0  0  0  0  0  0  0  0  0  0
    6.7100    0.3850   17.8100 N   0  0  0  0  0  0  0  0  0  0  0  0
    7.5840   -0.2700   18.5160 N   0  0  0  0  0  0  0  0  0  0  0  0
   12.6546   -0.3228   25.9283 N   0  0  0  0  0  0  0  0  0  0  0  0
    7.2710   -0.1460   19.8310 N   0  0  0  0  0  0  0  0  0  0  0  0
    8.0950   -0.7700   20.8440 N   0  0  0  0  0  0  0  0  0  0  0  0
    9.2950    1.3000   20.9480 O   0  0  0  0  0  0  0  0  0  0  0  0
    2.9846    2.6932   19.3610 H   0  0  0  0  0  0  0  0  0  0  0  0
    3.6235    2.0692   21.6570 H   0  0  0  0  0  0  0  0  0  0  0  0
    9.5416   -4.5625   23.7818 H   0  0  0  0  0  0  0  0  0  0  0  0
    7.1926   -1.8847   26.1916 H   0  0  0  0  0  0  0  0  0  0  0  0
   10.2688   -2.6720   22.3870 H   0  0  0  0  0  0  0  0  0  0  0  0
    7.8705   -0.0015   24.7579 H   0  0  0  0  0  0  0  0  0  0  0  0
    4.3785    2.0113   17.4257 H   0  0  0  0  0  0  0  0  0  0  0  0
    5.6763    0.7332   22.0915 H   0  0  0  0  0  0  0  0  0  0  0  0
   13.8362   -1.5269   23.2991 H   0  0  0  0  0  0  0  0  0  0  0  0
   10.7922    0.6307   25.4646 H   0  0  0  0  0  0  0  0  0  0  0  0
    8.6661   -4.5883   26.8021 H   0  0  0  0  0  0  0  0  0  0  0  0
    6.9508   -4.3263   26.4014 H   0  0  0  0  0  0  0  0  0  0  0  0
    7.9188   -5.4228   25.4175 H   0  0  0  0  0  0  0  0  0  0  0  0
   12.2620   -0.9164   27.8636 H   0  0  0  0  0  0  0  0  0  0  0  0
   13.7943   -0.0060   27.6402 H   0  0  0  0  0  0  0  0  0  0  0  0
   12.2374    0.8590   27.5870 H   0  0  0  0  0  0  0  0  0  0  0  0
   11.6025    0.6918   22.0532 H   0  0  0  0  0  0  0  0  0  0  0  0
   11.4368   -1.0349   21.8836 H   0  0  0  0  0  0  0  0  0  0  0  0
    9.5277    0.8495   23.3908 H   0  0  0  0  0  0  0  0  0  0  0  0
    8.1038   -1.6155   21.0990 H   0  0  0  0  0  0  0  0  0  0  0  0
  1  2  1  0  0  0  0
  1  7  2  0  0  0  0
  2  8  2  0  0  0  0
  3  5  2  0  0  0  0
  3 11  1  0  0  0  0
  4  6  1  0  0  0  0
  4 11  2  0  0  0  0
  5 12  1  0  0  0  0
  6 12  2  0  0  0  0
  7 14  1  0  0  0  0
  8 15  1  0  0  0  0
  9 13  1  0  0  0  0
  9 21  2  0  0  0  0
 10 13  2  0  0  0  0
 10 24  1  0  0  0  0
 11 17  1  0  0  0  0
 12 20  1  0  0  0  0
 13 19  1  0  0  0  0
 14 15  2  0  0  0  0
 14 22  1  0  0  0  0
 15 25  1  0  0  0  0
 16 20  1  0  0  0  0
 16 26  1  0  0  0  0
 16 27  2  0  0  0  0
 18 24  1  0  0  0  0
 19 20  1  1  0  0  0
 21 24  1  0  0  0  0
 22 23  2  0  0  0  0
 23 25  1  0  0  0  0
 25 26  1  0  0  0  0
  1 28  1  0  0  0  0
  2 29  1  0  0  0  0
  3 30  1  0  0  0  0
  4 31  1  0  0  0  0
  5 32  1  0  0  0  0
  6 33  1  0  0  0  0
  7 34  1  0  0  0  0
  8 35  1  0  0  0  0
  9 36  1  0  0  0  0
 10 37  1  0  0  0  0
 17 38  1  0  0  0  0
 17 39  1  0  0  0  0
 17 40  1  0  0  0  0
 18 41  1  0  0  0  0
 18 42  1  0  0  0  0
 18 43  1  0  0  0  0
 19 44  1  0  0  0  0
 19 45  1  0  0  0  0
 20 46  1  0  0  0  0
 26 47  1  0  0  0  0
M  END
> <clash_score>
0

> <docking_score>
-5.39548921585083

> <overlap_score>
0.8344545364379883

$$$$
BENZO_185_1
  -OEChem-08232013533D

 48 51  0     1  0  0  0  0  0999 V2000
   13.4143   -0.6944   26.2251 C   0  0  0  0  0  0  0  0  0  0  0  0
   13.9152   -1.2211   25.0346 C   0  0  0  0  0  0  0  0  0  0  0  0
   12.2000   -0.0079   26.2276 C   0  0  0  0  0  0  0  0  0  0  0  0
    3.8860    2.1050   19.5250 C   0  0  0  0  0  0  0  0  0  0  0  0
    4.2460    1.7520   20.8250 C   0  0  0  0  0  0  0  0  0  0  0  0
   13.2019   -1.0613   23.8466 C   0  0  0  0  0  0  0  0  0  0  0  0
   11.4867    0.1519   25.0397 C   0  0  0  0  0  0  0  0  0  0  0  0
    9.5890   -2.4950   23.2210 C   0  0  0  0  0  0  0  0  0  0  0  0
    8.2550   -1.0010   24.5520 C   0  0  0  0  0  0  0  0  0  0  0  0
    4.6610    1.7170   18.4380 C   0  0  0  0  0  0  0  0  0  0  0  0
    5.3890    1.0010   21.0690 C   0  0  0  0  0  0  0  0  0  0  0  0
    9.1890   -3.5540   24.0140 C   0  0  0  0  0  0  0  0  0  0  0  0
    7.8700   -2.0610   25.3550 C   0  0  0  0  0  0  0  0  0  0  0  0
   11.9876   -0.3748   23.8491 C   0  0  0  0  0  0  0  0  0  0  0  0
    9.1280   -1.2090   23.4870 C   0  0  0  0  0  0  0  0  0  0  0  0
    5.7970    0.9500   18.6730 C   0  0  0  0  0  0  0  0  0  0  0  0
    6.1460    0.6070   19.9750 C   0  0  0  0  0  0  0  0  0  0  0  0
    8.3450   -3.3440   25.0980 C   0  0  0  0  0  0  0  0  0  0  0  0
    9.0430    0.2380   21.4940 C   0  0  0  0  0  0  0  0  0  0  0  0
    8.5106   -5.6662   25.5724 C   0  0  0  0  0  0  0  0  0  0  0  0
   11.2147   -0.2012   22.5629 C   0  0  0  0  0  0  0  0  0  0  0  0
    9.5820   -0.1080   22.7000 C   0  0  1  0  0  0  0  0  0  0  0  0
    6.7100    0.3850   17.8100 N   0  0  0  0  0  0  0  0  0  0  0  0
    7.5840   -0.2700   18.5160 N   0  0  0  0  0  0  0  0  0  0  0  0
    7.2710   -0.1460   19.8310 N   0  0  0  0  0  0  0  0  0  0  0  0
    8.0950   -0.7700   20.8440 N   0  0  0  0  0  0  0  0  0  0  0  0
    9.2950    1.3000   20.9480 O   0  0  0  0  0  0  0  0  0  0  0  0
    7.9856   -4.3803   25.8987 O   0  0  0  0  0  0  0  0  0  0  0  0
   13.9692   -0.8201   27.1503 H   0  0  0  0  0  0  0  0  0  0  0  0
   14.8602   -1.7566   25.0326 H   0  0  0  0  0  0  0  0  0  0  0  0
   11.8092    0.4013   27.1545 H   0  0  0  0  0  0  0  0  0  0  0  0
    2.9846    2.6932   19.3610 H   0  0  0  0  0  0  0  0  0  0  0  0
    3.6235    2.0692   21.6570 H   0  0  0  0  0  0  0  0  0  0  0  0
   13.6000   -1.4749   22.9238 H   0  0  0  0  0  0  0  0  0  0  0  0
   10.5416    0.6883   25.0512 H   0  0  0  0  0  0  0  0  0  0  0  0
   10.2677   -2.6721   22.3861 H   0  0  0  0  0  0  0  0  0  0  0  0
    7.8705   -0.0015   24.7586 H   0  0  0  0  0  0  0  0  0  0  0  0
    4.3785    2.0113   17.4257 H   0  0  0  0  0  0  0  0  0  0  0  0
    5.6763    0.7332   22.0915 H   0  0  0  0  0  0  0  0  0  0  0  0
    9.5403   -4.5634   23.7844 H   0  0  0  0  0  0  0  0  0  0  0  0
    7.1918   -1.8874   26.1909 H   0  0  0  0  0  0  0  0  0  0  0  0
    8.1445   -6.4032   26.2914 H   0  0  0  0  0  0  0  0  0  0  0  0
    9.6027   -5.6312   25.5944 H   0  0  0  0  0  0  0  0  0  0  0  0
    8.1770   -5.9422   24.5693 H   0  0  0  0  0  0  0  0  0  0  0  0
   11.6025    0.6918   22.0532 H   0  0  0  0  0  0  0  0  0  0  0  0
   11.4368   -1.0349   21.8836 H   0  0  0  0  0  0  0  0  0  0  0  0
    9.5277    0.8495   23.3908 H   0  0  0  0  0  0  0  0  0  0  0  0
    8.1038   -1.6155   21.0990 H   0  0  0  0  0  0  0  0  0  0  0  0
  1  2  1  0  0  0  0
  1  3  2  0  0  0  0
  2  6  2  0  0  0  0
  3  7  1  0  0  0  0
  4  5  1  0  0  0  0
  4 10  2  0  0  0  0
  5 11  2  0  0  0  0
  6 14  1  0  0  0  0
  7 14  2  0  0  0  0
  8 12  2  0  0  0  0
  8 15  1  0  0  0  0
  9 13  1  0  0  0  0
  9 15  2  0  0  0  0
 10 16  1  0  0  0  0
 11 17  1  0  0  0  0
 12 18  1  0  0  0  0
 13 18  2  0  0  0  0
 14 21  1  0  0  0  0
 15 22  1  0  0  0  0
 16 17  2  0  0  0  0
 16 23  1  0  0  0  0
 17 25  1  0  0  0  0
 18 28  1  0  0  0  0
 19 22  1  0  0  0  0
 19 26  1  0  0  0  0
 19 27  2  0  0  0  0
 20 28  1  0  0  0  0
 21 22  1  1  0  0  0
 23 24  2  0  0  0  0
 24 25  1  0  0  0  0
 25 26  1  0  0  0  0
  1 29  1  0  0  0  0
  2 30  1  0  0  0  0
  3 31  1  0  0  0  0
  4 32  1  0  0  0  0
  5 33  1  0  0  0  0
  6 34  1  0  0  0  0
  7 35  1  0  0  0  0
  8 36  1  0  0  0  0
  9 37  1  0  0  0  0
 10 38  1  0  0  0  0
 11 39  1  0  0  0  0
 12 40  1  0  0  0  0
 13 41  1  0  0  0  0
 20 42  1  0  0  0  0
 20 43  1  0  0  0  0
 20 44  1  0  0  0  0
 21 45  1  0  0  0  0
 21 46  1  0  0  0  0
 22 47  1  0  0  0  0
 26 48  1  0  0  0  0
M  END
> <clash_score>
0

> <docking_score>
-5.826514720916748

> <overlap_score>
0.8524119257926941

$$$$
BENZO_184_1
  -OEChem-08232013533D

 45 48  0     1  0  0  0  0  0999 V2000
    3.8860    2.1050   19.5250 C   0  0  0  0  0  0  0  0  0  0  0  0
    4.2460    1.7520   20.8250 C   0  0  0  0  0  0  0  0  0  0  0  0
    9.5890   -2.4950   23.2210 C   0  0  0  0  0  0  0  0  0  0  0  0
    8.2550   -1.0010   24.5520 C   0  0  0  0  0  0  0  0  0  0  0  0
    4.6610    1.7170   18.4380 C   0  0  0  0  0  0  0  0  0  0  0  0
    5.3890    1.0010   21.0690 C   0  0  0  0  0  0  0  0  0  0  0  0
    9.1890   -3.5540   24.0140 C   0  0  0  0  0  0  0  0  0  0  0  0
    7.8700   -2.0610   25.3550 C   0  0  0  0  0  0  0  0  0  0  0  0
   13.1880   -1.1347   23.9584 C   0  0  0  0  0  0  0  0  0  0  0  0
   13.6879   -1.1306   25.2420 C   0  0  0  0  0  0  0  0  0  0  0  0
   11.6157    0.1809   25.0536 C   0  0  0  0  0  0  0  0  0  0  0  0
    9.1280   -1.2090   23.4870 C   0  0  0  0  0  0  0  0  0  0  0  0
   11.9876   -0.3748   23.8491 C   0  0  0  0  0  0  0  0  0  0  0  0
    5.7970    0.9500   18.6730 C   0  0  0  0  0  0  0  0  0  0  0  0
    6.1460    0.6070   19.9750 C   0  0  0  0  0  0  0  0  0  0  0  0
    8.3450   -3.3440   25.0980 C   0  0  0  0  0  0  0  0  0  0  0  0
    9.0430    0.2380   21.4940 C   0  0  0  0  0  0  0  0  0  0  0  0
    7.1165   -4.0862   26.9914 C   0  0  0  0  0  0  0  0  0  0  0  0
   11.2147   -0.2012   22.5629 C   0  0  0  0  0  0  0  0  0  0  0  0
    9.5820   -0.1080   22.7000 C   0  0  1  0  0  0  0  0  0  0  0  0
    6.7100    0.3850   17.8100 N   0  0  0  0  0  0  0  0  0  0  0  0
    7.5840   -0.2700   18.5160 N   0  0  0  0  0  0  0  0  0  0  0  0
    7.2710   -0.1460   19.8310 N   0  0  0  0  0  0  0  0  0  0  0  0
    8.0950   -0.7700   20.8440 N   0  0  0  0  0  0  0  0  0  0  0  0
    9.2950    1.3000   20.9480 O   0  0  0  0  0  0  0  0  0  0  0  0
    7.9856   -4.3803   25.8987 O   0  0  0  0  0  0  0  0  0  0  0  0
   12.7116   -0.2136   26.3089 S   0  0  0  0  0  0  0  0  0  0  0  0
    2.9846    2.6932   19.3610 H   0  0  0  0  0  0  0  0  0  0  0  0
    3.6235    2.0692   21.6570 H   0  0  0  0  0  0  0  0  0  0  0  0
   10.2677   -2.6721   22.3861 H   0  0  0  0  0  0  0  0  0  0  0  0
    7.8705   -0.0015   24.7586 H   0  0  0  0  0  0  0  0  0  0  0  0
    4.3785    2.0113   17.4257 H   0  0  0  0  0  0  0  0  0  0  0  0
    5.6763    0.7332   22.0915 H   0  0  0  0  0  0  0  0  0  0  0  0
    9.5403   -4.5634   23.7844 H   0  0  0  0  0  0  0  0  0  0  0  0
    7.1918   -1.8874   26.1909 H   0  0  0  0  0  0  0  0  0  0  0  0
   13.6639   -1.6596   23.1397 H   0  0  0  0  0  0  0  0  0  0  0  0
   14.5793   -1.6228   25.6045 H   0  0  0  0  0  0  0  0  0  0  0  0
   10.7533    0.7992   25.2610 H   0  0  0  0  0  0  0  0  0  0  0  0
    6.9092   -5.0024   27.5498 H   0  0  0  0  0  0  0  0  0  0  0  0
    6.1847   -3.6591   26.6123 H   0  0  0  0  0  0  0  0  0  0  0  0
    7.6049   -3.3637   27.6496 H   0  0  0  0  0  0  0  0  0  0  0  0
   11.6025    0.6918   22.0532 H   0  0  0  0  0  0  0  0  0  0  0  0
   11.4368   -1.0349   21.8836 H   0  0  0  0  0  0  0  0  0  0  0  0
    9.5277    0.8495   23.3908 H   0  0  0  0  0  0  0  0  0  0  0  0
    8.1038   -1.6155   21.0990 H   0  0  0  0  0  0  0  0  0  0  0  0
  1  2  1  0  0  0  0
  1  5  2  0  0  0  0
  2  6  2  0  0  0  0
  3  7  2  0  0  0  0
  3 12  1  0  0  0  0
  4  8  1  0  0  0  0
  4 12  2  0  0  0  0
  5 14  1  0  0  0  0
  6 15  1  0  0  0  0
  7 16  1  0  0  0  0
  8 16  2  0  0  0  0
  9 10  2  0  0  0  0
  9 13  1  0  0  0  0
 10 27  1  0  0  0  0
 11 13  2  0  0  0  0
 11 27  1  0  0  0  0
 12 20  1  0  0  0  0
 13 19  1  0  0  0  0
 14 15  2  0  0  0  0
 14 21  1  0  0  0  0
 15 23  1  0  0  0  0
 16 26  1  0  0  0  0
 17 20  1  0  0  0  0
 17 24  1  0  0  0  0
 17 25  2  0  0  0  0
 18 26  1  0  0  0  0
 19 20  1  1  0  0  0
 21 22  2  0  0  0  0
 22 23  1  0  0  0  0
 23 24  1  0  0  0  0
  1 28  1  0  0  0  0
  2 29  1  0  0  0  0
  3 30  1  0  0  0  0
  4 31  1  0  0  0  0
  5 32  1  0  0  0  0
  6 33  1  0  0  0  0
  7 34  1  0  0  0  0
  8 35  1  0  0  0  0
  9 36  1  0  0  0  0
 10 37  1  0  0  0  0
 11 38  1  0  0  0  0
 18 39  1  0  0  0  0
 18 40  1  0  0  0  0
 18 41  1  0  0  0  0
 19 42  1  0  0  0  0
 19 43  1  0  0  0  0
 20 44  1  0  0  0  0
 24 45  1  0  0  0  0
M  END
> <clash_score>
0

> <docking_score>
-5.596221446990967

> <overlap_score>
0.8539302349090576

$$$$
BENZO_184_2
  -OEChem-08232013533D

 45 48  0     1  0  0  0  0  0999 V2000
    3.8860    2.1050   19.5250 C   0  0  0  0  0  0  0  0  0  0  0  0
    4.2460    1.7520   20.8250 C   0  0  0  0  0  0  0  0  0  0  0  0
    9.5890   -2.4950   23.2210 C   0  0  0  0  0  0  0  0  0  0  0  0
    8.2550   -1.0010   24.5520 C   0  0  0  0  0  0  0  0  0  0  0  0
    4.6610    1.7170   18.4380 C   0  0  0  0  0  0  0  0  0  0  0  0
    5.3890    1.0010   21.0690 C   0  0  0  0  0  0  0  0  0  0  0  0
    9.1890   -3.5540   24.0140 C   0  0  0  0  0  0  0  0  0  0  0  0
    7.8700   -2.0610   25.3550 C   0  0  0  0  0  0  0  0  0  0  0  0
   12.1596    0.8633   24.2577 C   0  0  0  0  0  0  0  0  0  0  0  0
   12.9999    0.8027   25.3475 C   0  0  0  0  0  0  0  0  0  0  0  0
   10.6666    1.2226   26.0024 C   0  0  0  0  0  0  0  0  0  0  0  0
    9.1280   -1.2090   23.4870 C   0  0  0  0  0  0  0  0  0  0  0  0
   10.8079    1.1067   24.6369 C   0  0  0  0  0  0  0  0  0  0  0  0
    5.7970    0.9500   18.6730 C   0  0  0  0  0  0  0  0  0  0  0  0
    6.1460    0.6070   19.9750 C   0  0  0  0  0  0  0  0  0  0  0  0
    8.3450   -3.3440   25.0980 C   0  0  0  0  0  0  0  0  0  0  0  0
    9.0430    0.2380   21.4940 C   0  0  0  0  0  0  0  0  0  0  0  0
    7.1165   -4.0862   26.9914 C   0  0  0  0  0  0  0  0  0  0  0  0
    9.6654    1.2227   23.6555 C   0  0  0  0  0  0  0  0  0  0  0  0
    9.5820   -0.1080   22.7000 C   0  0  2  0  0  0  0  0  0  0  0  0
    6.7100    0.3850   17.8100 N   0  0  0  0  0  0  0  0  0  0  0  0
    7.5840   -0.2700   18.5160 N   0  0  0  0  0  0  0  0  0  0  0  0
    7.2710   -0.1460   19.8310 N   0  0  0  0  0  0  0  0  0  0  0  0
    8.0950   -0.7700   20.8440 N   0  0  0  0  0  0  0  0  0  0  0  0
    9.2950    1.3000   20.9480 O   0  0  0  0  0  0  0  0  0  0  0  0
    7.9856   -4.3803   25.8987 O   0  0  0  0  0  0  0  0  0  0  0  0
   12.1595    1.0385   26.8207 S   0  0  0  0  0  0  0  0  0  0  0  0
    2.9846    2.6932   19.3610 H   0  0  0  0  0  0  0  0  0  0  0  0
    3.6235    2.0692   21.6570 H   0  0  0  0  0  0  0  0  0  0  0  0
   10.2677   -2.6721   22.3861 H   0  0  0  0  0  0  0  0  0  0  0  0
    7.8705   -0.0015   24.7586 H   0  0  0  0  0  0  0  0  0  0  0  0
    4.3785    2.0113   17.4257 H   0  0  0  0  0  0  0  0  0  0  0  0
    5.6763    0.7332   22.0915 H   0  0  0  0  0  0  0  0  0  0  0  0
    9.5403   -4.5634   23.7844 H   0  0  0  0  0  0  0  0  0  0  0  0
    7.1918   -1.8874   26.1909 H   0  0  0  0  0  0  0  0  0  0  0  0
   12.5025    0.7379   23.2384 H   0  0  0  0  0  0  0  0  0  0  0  0
   14.0670    0.6304   25.3492 H   0  0  0  0  0  0  0  0  0  0  0  0
    9.7601    1.4054   26.5626 H   0  0  0  0  0  0  0  0  0  0  0  0
    6.9092   -5.0024   27.5498 H   0  0  0  0  0  0  0  0  0  0  0  0
    6.1847   -3.6591   26.6123 H   0  0  0  0  0  0  0  0  0  0  0  0
    7.6049   -3.3637   27.6496 H   0  0  0  0  0  0  0  0  0  0  0  0
    8.7459    1.4099   24.2274 H   0  0  0  0  0  0  0  0  0  0  0  0
    9.8015    2.1185   23.0351 H   0  0  0  0  0  0  0  0  0  0  0  0
   10.7408   -0.2662   22.5300 H   0  0  0  0  0  0  0  0  0  0  0  0
    8.1038   -1.6155   21.0990 H   0  0  0  0  0  0  0  0  0  0  0  0
  1  2  1  0  0  0  0
  1  5  2  0  0  0  0
  2  6  2  0  0  0  0
  3  7  2  0  0  0  0
  3 12  1  0  0  0  0
  4  8  1  0  0  0  0
  4 12  2  0  0  0  0
  5 14  1  0  0  0  0
  6 15  1  0  0  0  0
  7 16  1  0  0  0  0
  8 16  2  0  0  0  0
  9 10  2  0  0  0  0
  9 13  1  0  0  0  0
 10 27  1  0  0  0  0
 11 13  2  0  0  0  0
 11 27  1  0  0  0  0
 12 20  1  0  0  0  0
 13 19  1  0  0  0  0
 14 15  2  0  0  0  0
 14 21  1  0  0  0  0
 15 23  1  0  0  0  0
 16 26  1  0  0  0  0
 17 20  1  0  0  0  0
 17 24  1  0  0  0  0
 17 25  2  0  0  0  0
 18 26  1  0  0  0  0
 19 20  1  6  0  0  0
 21 22  2  0  0  0  0
 22 23  1  0  0  0  0
 23 24  1  0  0  0  0
  1 28  1  0  0  0  0
  2 29  1  0  0  0  0
  3 30  1  0  0  0  0
  4 31  1  0  0  0  0
  5 32  1  0  0  0  0
  6 33  1  0  0  0  0
  7 34  1  0  0  0  0
  8 35  1  0  0  0  0
  9 36  1  0  0  0  0
 10 37  1  0  0  0  0
 11 38  1  0  0  0  0
 18 39  1  0  0  0  0
 18 40  1  0  0  0  0
 18 41  1  0  0  0  0
 19 42  1  0  0  0  0
 19 43  1  0  0  0  0
 20 44  1  0  0  0  0
 24 45  1  0  0  0  0
M  END
> <clash_score>
1.3866782555117099

> <docking_score>
-3.8024096488952637

> <overlap_score>
0.7810453772544861

$$$$
BENZO_185_2
  -OEChem-08232013533D

 48 51  0     1  0  0  0  0  0999 V2000
   12.9183    0.8914   26.4488 C   0  0  0  0  0  0  0  0  0  0  0  0
   11.7786    1.6200   26.7891 C   0  0  0  0  0  0  0  0  0  0  0  0
   13.0029    0.2705   25.2025 C   0  0  0  0  0  0  0  0  0  0  0  0
    3.8860    2.1050   19.5250 C   0  0  0  0  0  0  0  0  0  0  0  0
    4.2460    1.7520   20.8250 C   0  0  0  0  0  0  0  0  0  0  0  0
   10.7234    1.7276   25.8832 C   0  0  0  0  0  0  0  0  0  0  0  0
   11.9477    0.3781   24.2967 C   0  0  0  0  0  0  0  0  0  0  0  0
    9.5890   -2.4950   23.2210 C   0  0  0  0  0  0  0  0  0  0  0  0
    8.2550   -1.0010   24.5520 C   0  0  0  0  0  0  0  0  0  0  0  0
    4.6610    1.7170   18.4380 C   0  0  0  0  0  0  0  0  0  0  0  0
    5.3890    1.0010   21.0690 C   0  0  0  0  0  0  0  0  0  0  0  0
    9.1890   -3.5540   24.0140 C   0  0  0  0  0  0  0  0  0  0  0  0
    7.8700   -2.0610   25.3550 C   0  0  0  0  0  0  0  0  0  0  0  0
   10.8079    1.1067   24.6369 C   0  0  0  0  0  0  0  0  0  0  0  0
    9.1280   -1.2090   23.4870 C   0  0  0  0  0  0  0  0  0  0  0  0
    5.7970    0.9500   18.6730 C   0  0  0  0  0  0  0  0  0  0  0  0
    6.1460    0.6070   19.9750 C   0  0  0  0  0  0  0  0  0  0  0  0
    8.3450   -3.3440   25.0980 C   0  0  0  0  0  0  0  0  0  0  0  0
    9.0430    0.2380   21.4940 C   0  0  0  0  0  0  0  0  0  0  0  0
    8.5106   -5.6662   25.5724 C   0  0  0  0  0  0  0  0  0  0  0  0
    9.6654    1.2227   23.6555 C   0  0  0  0  0  0  0  0  0  0  0  0
    9.5820   -0.1080   22.7000 C   0  0  2  0  0  0  0  0  0  0  0  0
    6.7100    0.3850   17.8100 N   0  0  0  0  0  0  0  0  0  0  0  0
    7.5840   -0.2700   18.5160 N   0  0  0  0  0  0  0  0  0  0  0  0
    7.2710   -0.1460   19.8310 N   0  0  0  0  0  0  0  0  0  0  0  0
    8.0950   -0.7700   20.8440 N   0  0  0  0  0  0  0  0  0  0  0  0
    9.2950    1.3000   20.9480 O   0  0  0  0  0  0  0  0  0  0  0  0
    7.9856   -4.3803   25.8987 O   0  0  0  0  0  0  0  0  0  0  0  0
   13.7404    0.8088   27.1537 H   0  0  0  0  0  0  0  0  0  0  0  0
   11.7130    2.1044   27.7589 H   0  0  0  0  0  0  0  0  0  0  0  0
   13.8905   -0.2959   24.9369 H   0  0  0  0  0  0  0  0  0  0  0  0
    2.9846    2.6932   19.3610 H   0  0  0  0  0  0  0  0  0  0  0  0
    3.6235    2.0692   21.6570 H   0  0  0  0  0  0  0  0  0  0  0  0
    9.8391    2.2972   26.1570 H   0  0  0  0  0  0  0  0  0  0  0  0
   12.0224   -0.1091   23.3281 H   0  0  0  0  0  0  0  0  0  0  0  0
   10.2677   -2.6721   22.3861 H   0  0  0  0  0  0  0  0  0  0  0  0
    7.8705   -0.0015   24.7586 H   0  0  0  0  0  0  0  0  0  0  0  0
    4.3785    2.0113   17.4257 H   0  0  0  0  0  0  0  0  0  0  0  0
    5.6763    0.7332   22.0915 H   0  0  0  0  0  0  0  0  0  0  0  0
    9.5403   -4.5634   23.7844 H   0  0  0  0  0  0  0  0  0  0  0  0
    7.1918   -1.8874   26.1909 H   0  0  0  0  0  0  0  0  0  0  0  0
    8.1445   -6.4032   26.2914 H   0  0  0  0  0  0  0  0  0  0  0  0
    9.6027   -5.6312   25.5944 H   0  0  0  0  0  0  0  0  0  0  0  0
    8.1770   -5.9422   24.5693 H   0  0  0  0  0  0  0  0  0  0  0  0
    8.7459    1.4099   24.2274 H   0  0  0  0  0  0  0  0  0  0  0  0
    9.8015    2.1185   23.0351 H   0  0  0  0  0  0  0  0  0  0  0  0
   10.7408   -0.2662   22.5300 H   0  0  0  0  0  0  0  0  0  0  0  0
    8.1038   -1.6155   21.0990 H   0  0  0  0  0  0  0  0  0  0  0  0
  1  2  1  0  0  0  0
  1  3  2  0  0  0  0
  2  6  2  0  0  0  0
  3  7  1  0  0  0  0
  4  5  1  0  0  0  0
  4 10  2  0  0  0  0
  5 11  2  0  0  0  0
  6 14  1  0  0  0  0
  7 14  2  0  0  0  0
  8 12  2  0  0  0  0
  8 15  1  0  0  0  0
  9 13  1  0  0  0  0
  9 15  2  0  0  0  0
 10 16  1  0  0  0  0
 11 17  1  0  0  0  0
 12 18  1  0  0  0  0
 13 18  2  0  0  0  0
 14 21  1  0  0  0  0
 15 22  1  0  0  0  0
 16 17  2  0  0  0  0
 16 23  1  0  0  0  0
 17 25  1  0  0  0  0
 18 28  1  0  0  0  0
 19 22  1  0  0  0  0
 19 26  1  0  0  0  0
 19 27  2  0  0  0  0
 20 28  1  0  0  0  0
 21 22  1  6  0  0  0
 23 24  2  0  0  0  0
 24 25  1  0  0  0  0
 25 26  1  0  0  0  0
  1 29  1  0  0  0  0
  2 30  1  0  0  0  0
  3 31  1  0  0  0  0
  4 32  1  0  0  0  0
  5 33  1  0  0  0  0
  6 34  1  0  0  0  0
  7 35  1  0  0  0  0
  8 36  1  0  0  0  0
  9 37  1  0  0  0  0
 10 38  1  0  0  0  0
 11 39  1  0  0  0  0
 12 40  1  0  0  0  0
 13 41  1  0  0  0  0
 20 42  1  0  0  0  0
 20 43  1  0  0  0  0
 20 44  1  0  0  0  0
 21 45  1  0  0  0  0
 21 46  1  0  0  0  0
 22 47  1  0  0  0  0
 26 48  1  0  0  0  0
M  END
> <clash_score>
4.084379441585688

> <docking_score>
-4.198879241943359

> <overlap_score>
0.7842985391616821

$$$$
BENZO_186_1
  -OEChem-08232013533D

 48 51  0     1  0  0  0  0  0999 V2000
    3.8860    2.1050   19.5250 C   0  0  0  0  0  0  0  0  0  0  0  0
    4.2460    1.7520   20.8250 C   0  0  0  0  0  0  0  0  0  0  0  0
   13.9169   -1.2205   25.0322 C   0  0  0  0  0  0  0  0  0  0  0  0
   13.2022   -1.0608   23.8451 C   0  0  0  0  0  0  0  0  0  0  0  0
    9.5890   -2.4950   23.2210 C   0  0  0  0  0  0  0  0  0  0  0  0
    8.2550   -1.0010   24.5520 C   0  0  0  0  0  0  0  0  0  0  0  0
    4.6610    1.7170   18.4380 C   0  0  0  0  0  0  0  0  0  0  0  0
    5.3890    1.0010   21.0690 C   0  0  0  0  0  0  0  0  0  0  0  0
    9.1890   -3.5540   24.0140 C   0  0  0  0  0  0  0  0  0  0  0  0
    7.8700   -2.0610   25.3550 C   0  0  0  0  0  0  0  0  0  0  0  0
   13.4171   -0.6943   26.2234 C   0  0  0  0  0  0  0  0  0  0  0  0
   11.4878    0.1514   25.0404 C   0  0  0  0  0  0  0  0  0  0  0  0
    9.1280   -1.2090   23.4870 C   0  0  0  0  0  0  0  0  0  0  0  0
   11.9876   -0.3748   23.8491 C   0  0  0  0  0  0  0  0  0  0  0  0
    5.7970    0.9500   18.6730 C   0  0  0  0  0  0  0  0  0  0  0  0
    6.1460    0.6070   19.9750 C   0  0  0  0  0  0  0  0  0  0  0  0
    8.3450   -3.3440   25.0980 C   0  0  0  0  0  0  0  0  0  0  0  0
   12.2026   -0.0084   26.2275 C   0  0  0  0  0  0  0  0  0  0  0  0
    9.0430    0.2380   21.4940 C   0  0  0  0  0  0  0  0  0  0  0  0
    8.5106   -5.6662   25.5724 C   0  0  0  0  0  0  0  0  0  0  0  0
   11.2147   -0.2012   22.5629 C   0  0  0  0  0  0  0  0  0  0  0  0
    9.5820   -0.1080   22.7000 C   0  0  1  0  0  0  0  0  0  0  0  0
    6.7100    0.3850   17.8100 N   0  0  0  0  0  0  0  0  0  0  0  0
    7.5840   -0.2700   18.5160 N   0  0  0  0  0  0  0  0  0  0  0  0
    7.2710   -0.1460   19.8310 N   0  0  0  0  0  0  0  0  0  0  0  0
    8.0950   -0.7700   20.8440 N   0  0  0  0  0  0  0  0  0  0  0  0
    9.2950    1.3000   20.9480 O   0  0  0  0  0  0  0  0  0  0  0  0
    7.9856   -4.3803   25.8987 O   0  0  0  0  0  0  0  0  0  0  0  0
   11.5870    0.6416   27.6973 Cl  0  0  0  0  0  0  0  0  0  0  0  0
    2.9846    2.6932   19.3610 H   0  0  0  0  0  0  0  0  0  0  0  0
    3.6235    2.0692   21.6570 H   0  0  0  0  0  0  0  0  0  0  0  0
   14.8627   -1.7546   25.0285 H   0  0  0  0  0  0  0  0  0  0  0  0
   13.5992   -1.4740   22.9215 H   0  0  0  0  0  0  0  0  0  0  0  0
   10.2677   -2.6721   22.3861 H   0  0  0  0  0  0  0  0  0  0  0  0
    7.8705   -0.0015   24.7586 H   0  0  0  0  0  0  0  0  0  0  0  0
    4.3785    2.0113   17.4257 H   0  0  0  0  0  0  0  0  0  0  0  0
    5.6763    0.7332   22.0915 H   0  0  0  0  0  0  0  0  0  0  0  0
    9.5403   -4.5634   23.7844 H   0  0  0  0  0  0  0  0  0  0  0  0
    7.1918   -1.8874   26.1909 H   0  0  0  0  0  0  0  0  0  0  0  0
   13.9851   -0.8262   27.1411 H   0  0  0  0  0  0  0  0  0  0  0  0
   10.5401    0.6850   25.0384 H   0  0  0  0  0  0  0  0  0  0  0  0
    8.1445   -6.4032   26.2914 H   0  0  0  0  0  0  0  0  0  0  0  0
    9.6027   -5.6312   25.5944 H   0  0  0  0  0  0  0  0  0  0  0  0
    8.1770   -5.9422   24.5693 H   0  0  0  0  0  0  0  0  0  0  0  0
   11.6025    0.6918   22.0532 H   0  0  0  0  0  0  0  0  0  0  0  0
   11.4368   -1.0349   21.8836 H   0  0  0  0  0  0  0  0  0  0  0  0
    9.5277    0.8495   23.3908 H   0  0  0  0  0  0  0  0  0  0  0  0
    8.1038   -1.6155   21.0990 H   0  0  0  0  0  0  0  0  0  0  0  0
  1  2  1  0  0  0  0
  1  7  2  0  0  0  0
  2  8  2  0  0  0  0
  3  4  2  0  0  0  0
  3 11  1  0  0  0  0
  4 14  1  0  0  0  0
  5  9  2  0  0  0  0
  5 13  1  0  0  0  0
  6 10  1  0  0  0  0
  6 13  2  0  0  0  0
  7 15  1  0  0  0  0
  8 16  1  0  0  0  0
  9 17  1  0  0  0  0
 10 17  2  0  0  0  0
 11 18  2  0  0  0  0
 12 14  2  0  0  0  0
 12 18  1  0  0  0  0
 13 22  1  0  0  0  0
 14 21  1  0  0  0  0
 15 16  2  0  0  0  0
 15 23  1  0  0  0  0
 16 25  1  0  0  0  0
 17 28  1  0  0  0  0
 18 29  1  0  0  0  0
 19 22  1  0  0  0  0
 19 26  1  0  0  0  0
 19 27  2  0  0  0  0
 20 28  1  0  0  0  0
 21 22  1  1  0  0  0
 23 24  2  0  0  0  0
 24 25  1  0  0  0  0
 25 26  1  0  0  0  0
  1 30  1  0  0  0  0
  2 31  1  0  0  0  0
  3 32  1  0  0  0  0
  4 33  1  0  0  0  0
  5 34  1  0  0  0  0
  6 35  1  0  0  0  0
  7 36  1  0  0  0  0
  8 37  1  0  0  0  0
  9 38  1  0  0  0  0
 10 39  1  0  0  0  0
 11 40  1  0  0  0  0
 12 41  1  0  0  0  0
 20 42  1  0  0  0  0
 20 43  1  0  0  0  0
 20 44  1  0  0  0  0
 21 45  1  0  0  0  0
 21 46  1  0  0  0  0
 22 47  1  0  0  0  0
 26 48  1  0  0  0  0
M  END
> <clash_score>
0.6679264720783208

> <docking_score>
-5.106632709503174

> <overlap_score>
0.8514082431793213

$$$$
BENZO_187_1
  -OEChem-08232013533D

 48 51  0     1  0  0  0  0  0999 V2000
    3.8860    2.1050   19.5250 C   0  0  0  0  0  0  0  0  0  0  0  0
    4.2460    1.7520   20.8250 C   0  0  0  0  0  0  0  0  0  0  0  0
    9.5890   -2.4950   23.2210 C   0  0  0  0  0  0  0  0  0  0  0  0
    8.2550   -1.0010   24.5520 C   0  0  0  0  0  0  0  0  0  0  0  0
    4.6610    1.7170   18.4380 C   0  0  0  0  0  0  0  0  0  0  0  0
    5.3890    1.0010   21.0690 C   0  0  0  0  0  0  0  0  0  0  0  0
    9.1890   -3.5540   24.0140 C   0  0  0  0  0  0  0  0  0  0  0  0
    7.8700   -2.0610   25.3550 C   0  0  0  0  0  0  0  0  0  0  0  0
   13.2198   -1.0300   24.0348 C   0  0  0  0  0  0  0  0  0  0  0  0
   11.6457    0.0746   25.1011 C   0  0  0  0  0  0  0  0  0  0  0  0
    9.1280   -1.2090   23.4870 C   0  0  0  0  0  0  0  0  0  0  0  0
   11.9876   -0.3748   23.8491 C   0  0  0  0  0  0  0  0  0  0  0  0
    5.7970    0.9500   18.6730 C   0  0  0  0  0  0  0  0  0  0  0  0
    6.1460    0.6070   19.9750 C   0  0  0  0  0  0  0  0  0  0  0  0
    8.3450   -3.3440   25.0980 C   0  0  0  0  0  0  0  0  0  0  0  0
    9.0430    0.2380   21.4940 C   0  0  0  0  0  0  0  0  0  0  0  0
   12.7431   -0.0808   27.3484 C   0  0  0  0  0  0  0  0  0  0  0  0
    8.5106   -5.6662   25.5724 C   0  0  0  0  0  0  0  0  0  0  0  0
   11.2147   -0.2012   22.5629 C   0  0  0  0  0  0  0  0  0  0  0  0
    9.5820   -0.1080   22.7000 C   0  0  1  0  0  0  0  0  0  0  0  0
   13.6327   -1.0014   25.3047 N   0  0  0  0  0  0  0  0  0  0  0  0
    6.7100    0.3850   17.8100 N   0  0  0  0  0  0  0  0  0  0  0  0
    7.5840   -0.2700   18.5160 N   0  0  0  0  0  0  0  0  0  0  0  0
   12.6546   -0.3228   25.9283 N   0  0  0  0  0  0  0  0  0  0  0  0
    7.2710   -0.1460   19.8310 N   0  0  0  0  0  0  0  0  0  0  0  0
    8.0950   -0.7700   20.8440 N   0  0  0  0  0  0  0  0  0  0  0  0
    9.2950    1.3000   20.9480 O   0  0  0  0  0  0  0  0  0  0  0  0
    7.9856   -4.3803   25.8987 O   0  0  0  0  0  0  0  0  0  0  0  0
    2.9846    2.6932   19.3610 H   0  0  0  0  0  0  0  0  0  0  0  0
    3.6235    2.0692   21.6570 H   0  0  0  0  0  0  0  0  0  0  0  0
   10.2677   -2.6721   22.3861 H   0  0  0  0  0  0  0  0  0  0  0  0
    7.8705   -0.0015   24.7586 H   0  0  0  0  0  0  0  0  0  0  0  0
    4.3785    2.0113   17.4257 H   0  0  0  0  0  0  0  0  0  0  0  0
    5.6763    0.7332   22.0915 H   0  0  0  0  0  0  0  0  0  0  0  0
    9.5403   -4.5634   23.7844 H   0  0  0  0  0  0  0  0  0  0  0  0
    7.1918   -1.8874   26.1909 H   0  0  0  0  0  0  0  0  0  0  0  0
   13.8362   -1.5269   23.2991 H   0  0  0  0  0  0  0  0  0  0  0  0
   10.7922    0.6307   25.4646 H   0  0  0  0  0  0  0  0  0  0  0  0
   12.2620   -0.9164   27.8636 H   0  0  0  0  0  0  0  0  0  0  0  0
   13.7943   -0.0060   27.6402 H   0  0  0  0  0  0  0  0  0  0  0  0
   12.2374    0.8590   27.5870 H   0  0  0  0  0  0  0  0  0  0  0  0
    8.1445   -6.4032   26.2914 H   0  0  0  0  0  0  0  0  0  0  0  0
    9.6027   -5.6312   25.5944 H   0  0  0  0  0  0  0  0  0  0  0  0
    8.1770   -5.9422   24.5693 H   0  0  0  0  0  0  0  0  0  0  0  0
   11.6025    0.6918   22.0532 H   0  0  0  0  0  0  0  0  0  0  0  0
   11.4368   -1.0349   21.8836 H   0  0  0  0  0  0  0  0  0  0  0  0
    9.5277    0.8495   23.3908 H   0  0  0  0  0  0  0  0  0  0  0  0
    8.1038   -1.6155   21.0990 H   0  0  0  0  0  0  0  0  0  0  0  0
  1  2  1  0  0  0  0
  1  5  2  0  0  0  0
  2  6  2  0  0  0  0
  3  7  2  0  0  0  0
  3 11  1  0  0  0  0
  4  8  1  0  0  0  0
  4 11  2  0  0  0  0
  5 13  1  0  0  0  0
  6 14  1  0  0  0  0
  7 15  1  0  0  0  0
  8 15  2  0  0  0  0
  9 12  1  0  0  0  0
  9 21  2  0  0  0  0
 10 12  2  0  0  0  0
 10 24  1  0  0  0  0
 11 20  1  0  0  0  0
 12 19  1  0  0  0  0
 13 14  2  0  0  0  0
 13 22  1  0  0  0  0
 14 25  1  0  0  0  0
 15 28  1  0  0  0  0
 16 20  1  0  0  0  0
 16 26  1  0  0  0  0
 16 27  2  0  0  0  0
 17 24  1  0  0  0  0
 18 28  1  0  0  0  0
 19 20  1  1  0  0  0
 21 24  1  0  0  0  0
 22 23  2  0  0  0  0
 23 25  1  0  0  0  0
 25 26  1  0  0  0  0
  1 29  1  0  0  0  0
  2 30  1  0  0  0  0
  3 31  1  0  0  0  0
  4 32  1  0  0  0  0
  5 33  1  0  0  0  0
  6 34  1  0  0  0  0
  7 35  1  0  0  0  0
  8 36  1  0  0  0  0
  9 37  1  0  0  0  0
 10 38  1  0  0  0  0
 17 39  1  0  0  0  0
 17 40  1  0  0  0  0
 17 41  1  0  0  0  0
 18 42  1  0  0  0  0
 18 43  1  0  0  0  0
 18 44  1  0  0  0  0
 19 45  1  0  0  0  0
 19 46  1  0  0  0  0
 20 47  1  0  0  0  0
 26 48  1  0  0  0  0
M  END
> <clash_score>
0

> <docking_score>
-5.515056133270264

> <overlap_score>
0.8478028774261475

$$$$
BENZO_187_2
  -OEChem-08232013533D

 48 51  0     1  0  0  0  0  0999 V2000
    3.8860    2.1050   19.5250 C   0  0  0  0  0  0  0  0  0  0  0  0
    4.2460    1.7520   20.8250 C   0  0  0  0  0  0  0  0  0  0  0  0
    9.5890   -2.4950   23.2210 C   0  0  0  0  0  0  0  0  0  0  0  0
    8.2550   -1.0010   24.5520 C   0  0  0  0  0  0  0  0  0  0  0  0
    4.6610    1.7170   18.4380 C   0  0  0  0  0  0  0  0  0  0  0  0
    5.3890    1.0010   21.0690 C   0  0  0  0  0  0  0  0  0  0  0  0
    9.1890   -3.5540   24.0140 C   0  0  0  0  0  0  0  0  0  0  0  0
    7.8700   -2.0610   25.3550 C   0  0  0  0  0  0  0  0  0  0  0  0
   12.0260    0.4217   24.4676 C   0  0  0  0  0  0  0  0  0  0  0  0
   10.8915    1.6496   25.8958 C   0  0  0  0  0  0  0  0  0  0  0  0
    9.1280   -1.2090   23.4870 C   0  0  0  0  0  0  0  0  0  0  0  0
   10.8079    1.1067   24.6370 C   0  0  0  0  0  0  0  0  0  0  0  0
    5.7970    0.9500   18.6730 C   0  0  0  0  0  0  0  0  0  0  0  0
    6.1460    0.6070   19.9750 C   0  0  0  0  0  0  0  0  0  0  0  0
    8.3450   -3.3440   25.0980 C   0  0  0  0  0  0  0  0  0  0  0  0
    9.0430    0.2380   21.4940 C   0  0  0  0  0  0  0  0  0  0  0  0
   12.6499    1.6036   27.6803 C   0  0  0  0  0  0  0  0  0  0  0  0
    8.5106   -5.6662   25.5724 C   0  0  0  0  0  0  0  0  0  0  0  0
    9.6654    1.2227   23.6555 C   0  0  0  0  0  0  0  0  0  0  0  0
    9.5820   -0.1080   22.7000 C   0  0  2  0  0  0  0  0  0  0  0  0
   12.8250    0.5191   25.5335 N   0  0  0  0  0  0  0  0  0  0  0  0
    6.7100    0.3850   17.8100 N   0  0  0  0  0  0  0  0  0  0  0  0
    7.5840   -0.2700   18.5160 N   0  0  0  0  0  0  0  0  0  0  0  0
   12.1074    1.2718   26.3847 N   0  0  0  0  0  0  0  0  0  0  0  0
    7.2710   -0.1460   19.8310 N   0  0  0  0  0  0  0  0  0  0  0  0
    8.0950   -0.7700   20.8440 N   0  0  0  0  0  0  0  0  0  0  0  0
    9.2950    1.3000   20.9480 O   0  0  0  0  0  0  0  0  0  0  0  0
    7.9856   -4.3803   25.8987 O   0  0  0  0  0  0  0  0  0  0  0  0
    2.9846    2.6932   19.3610 H   0  0  0  0  0  0  0  0  0  0  0  0
    3.6235    2.0692   21.6570 H   0  0  0  0  0  0  0  0  0  0  0  0
   10.2677   -2.6721   22.3861 H   0  0  0  0  0  0  0  0  0  0  0  0
    7.8705   -0.0015   24.7586 H   0  0  0  0  0  0  0  0  0  0  0  0
    4.3785    2.0113   17.4257 H   0  0  0  0  0  0  0  0  0  0  0  0
    5.6763    0.7332   22.0915 H   0  0  0  0  0  0  0  0  0  0  0  0
    9.5403   -4.5634   23.7844 H   0  0  0  0  0  0  0  0  0  0  0  0
    7.1918   -1.8874   26.1909 H   0  0  0  0  0  0  0  0  0  0  0  0
   12.3675   -0.1444   23.6125 H   0  0  0  0  0  0  0  0  0  0  0  0
   10.2069    2.2586   26.4705 H   0  0  0  0  0  0  0  0  0  0  0  0
   12.3490    0.8215   28.3823 H   0  0  0  0  0  0  0  0  0  0  0  0
   13.7401    1.6600   27.6150 H   0  0  0  0  0  0  0  0  0  0  0  0
   12.2595    2.5746   27.9977 H   0  0  0  0  0  0  0  0  0  0  0  0
    8.1445   -6.4032   26.2914 H   0  0  0  0  0  0  0  0  0  0  0  0
    9.6027   -5.6312   25.5944 H   0  0  0  0  0  0  0  0  0  0  0  0
    8.1770   -5.9422   24.5693 H   0  0  0  0  0  0  0  0  0  0  0  0
    8.7459    1.4099   24.2274 H   0  0  0  0  0  0  0  0  0  0  0  0
    9.8015    2.1185   23.0351 H   0  0  0  0  0  0  0  0  0  0  0  0
   10.7408   -0.2662   22.5300 H   0  0  0  0  0  0  0  0  0  0  0  0
    8.1038   -1.6155   21.0990 H   0  0  0  0  0  0  0  0  0  0  0  0
  1  2  1  0  0  0  0
  1  5  2  0  0  0  0
  2  6  2  0  0  0  0
  3  7  2  0  0  0  0
  3 11  1  0  0  0  0
  4  8  1  0  0  0  0
  4 11  2  0  0  0  0
  5 13  1  0  0  0  0
  6 14  1  0  0  0  0
  7 15  1  0  0  0  0
  8 15  2  0  0  0  0
  9 12  1  0  0  0  0
  9 21  2  0  0  0  0
 10 12  2  0  0  0  0
 10 24  1  0  0  0  0
 11 20  1  0  0  0  0
 12 19  1  0  0  0  0
 13 14  2  0  0  0  0
 13 22  1  0  0  0  0
 14 25  1  0  0  0  0
 15 28  1  0  0  0  0
 16 20  1  0  0  0  0
 16 26  1  0  0  0  0
 16 27  2  0  0  0  0
 17 24  1  0  0  0  0
 18 28  1  0  0  0  0
 19 20  1  6  0  0  0
 21 24  1  0  0  0  0
 22 23  2  0  0  0  0
 23 25  1  0  0  0  0
 25 26  1  0  0  0  0
  1 29  1  0  0  0  0
  2 30  1  0  0  0  0
  3 31  1  0  0  0  0
  4 32  1  0  0  0  0
  5 33  1  0  0  0  0
  6 34  1  0  0  0  0
  7 35  1  0  0  0  0
  8 36  1  0  0  0  0
  9 37  1  0  0  0  0
 10 38  1  0  0  0  0
 17 39  1  0  0  0  0
 17 40  1  0  0  0  0
 17 41  1  0  0  0  0
 18 42  1  0  0  0  0
 18 43  1  0  0  0  0
 18 44  1  0  0  0  0
 19 45  1  0  0  0  0
 19 46  1  0  0  0  0
 20 47  1  0  0  0  0
 26 48  1  0  0  0  0
M  END
> <clash_score>
2.8536368907097898

> <docking_score>
-3.2355432510375977

> <overlap_score>
0.7759568691253662

$$$$
BENZO_186_2
  -OEChem-08232013533D

 48 51  0     1  0  0  0  0  0999 V2000
    3.8860    2.1050   19.5250 C   0  0  0  0  0  0  0  0  0  0  0  0
    4.2460    1.7520   20.8250 C   0  0  0  0  0  0  0  0  0  0  0  0
   11.7758    1.6198   26.7903 C   0  0  0  0  0  0  0  0  0  0  0  0
   10.7217    1.7274   25.8831 C   0  0  0  0  0  0  0  0  0  0  0  0
    9.5890   -2.4950   23.2210 C   0  0  0  0  0  0  0  0  0  0  0  0
    8.2550   -1.0010   24.5520 C   0  0  0  0  0  0  0  0  0  0  0  0
    4.6610    1.7170   18.4380 C   0  0  0  0  0  0  0  0  0  0  0  0
    5.3890    1.0010   21.0690 C   0  0  0  0  0  0  0  0  0  0  0  0
    9.1890   -3.5540   24.0140 C   0  0  0  0  0  0  0  0  0  0  0  0
    7.8700   -2.0610   25.3550 C   0  0  0  0  0  0  0  0  0  0  0  0
   12.9162    0.8916   26.4512 C   0  0  0  0  0  0  0  0  0  0  0  0
   11.9483    0.3784   24.2979 C   0  0  0  0  0  0  0  0  0  0  0  0
    9.1280   -1.2090   23.4870 C   0  0  0  0  0  0  0  0  0  0  0  0
   10.8079    1.1067   24.6370 C   0  0  0  0  0  0  0  0  0  0  0  0
    5.7970    0.9500   18.6730 C   0  0  0  0  0  0  0  0  0  0  0  0
    6.1460    0.6070   19.9750 C   0  0  0  0  0  0  0  0  0  0  0  0
    8.3450   -3.3440   25.0980 C   0  0  0  0  0  0  0  0  0  0  0  0
   13.0024    0.2709   25.2050 C   0  0  0  0  0  0  0  0  0  0  0  0
    9.0430    0.2380   21.4940 C   0  0  0  0  0  0  0  0  0  0  0  0
    8.5106   -5.6662   25.5724 C   0  0  0  0  0  0  0  0  0  0  0  0
    9.6654    1.2227   23.6555 C   0  0  0  0  0  0  0  0  0  0  0  0
    9.5820   -0.1080   22.7000 C   0  0  2  0  0  0  0  0  0  0  0  0
    6.7100    0.3850   17.8100 N   0  0  0  0  0  0  0  0  0  0  0  0
    7.5840   -0.2700   18.5160 N   0  0  0  0  0  0  0  0  0  0  0  0
    7.2710   -0.1460   19.8310 N   0  0  0  0  0  0  0  0  0  0  0  0
    8.0950   -0.7700   20.8440 N   0  0  0  0  0  0  0  0  0  0  0  0
    9.2950    1.3000   20.9480 O   0  0  0  0  0  0  0  0  0  0  0  0
    7.9856   -4.3803   25.8987 O   0  0  0  0  0  0  0  0  0  0  0  0
   14.4091   -0.6285   24.7878 Cl  0  0  0  0  0  0  0  0  0  0  0  0
    2.9846    2.6932   19.3610 H   0  0  0  0  0  0  0  0  0  0  0  0
    3.6235    2.0692   21.6570 H   0  0  0  0  0  0  0  0  0  0  0  0
   11.7082    2.1031   27.7606 H   0  0  0  0  0  0  0  0  0  0  0  0
    9.8369    2.2967   26.1558 H   0  0  0  0  0  0  0  0  0  0  0  0
   10.2677   -2.6721   22.3861 H   0  0  0  0  0  0  0  0  0  0  0  0
    7.8705   -0.0015   24.7586 H   0  0  0  0  0  0  0  0  0  0  0  0
    4.3785    2.0113   17.4257 H   0  0  0  0  0  0  0  0  0  0  0  0
    5.6763    0.7332   22.0915 H   0  0  0  0  0  0  0  0  0  0  0  0
    9.5403   -4.5634   23.7844 H   0  0  0  0  0  0  0  0  0  0  0  0
    7.1918   -1.8874   26.1909 H   0  0  0  0  0  0  0  0  0  0  0  0
   13.7299    0.8159   27.1683 H   0  0  0  0  0  0  0  0  0  0  0  0
   12.0109   -0.1032   23.3248 H   0  0  0  0  0  0  0  0  0  0  0  0
    8.1445   -6.4032   26.2914 H   0  0  0  0  0  0  0  0  0  0  0  0
    9.6027   -5.6312   25.5944 H   0  0  0  0  0  0  0  0  0  0  0  0
    8.1770   -5.9422   24.5693 H   0  0  0  0  0  0  0  0  0  0  0  0
    8.7459    1.4099   24.2274 H   0  0  0  0  0  0  0  0  0  0  0  0
    9.8015    2.1185   23.0351 H   0  0  0  0  0  0  0  0  0  0  0  0
   10.7408   -0.2662   22.5300 H   0  0  0  0  0  0  0  0  0  0  0  0
    8.1038   -1.6155   21.0990 H   0  0  0  0  0  0  0  0  0  0  0  0
  1  2  1  0  0  0  0
  1  7  2  0  0  0  0
  2  8  2  0  0  0  0
  3  4  2  0  0  0  0
  3 11  1  0  0  0  0
  4 14  1  0  0  0  0
  5  9  2  0  0  0  0
  5 13  1  0  0  0  0
  6 10  1  0  0  0  0
  6 13  2  0  0  0  0
  7 15  1  0  0  0  0
  8 16  1  0  0  0  0
  9 17  1  0  0  0  0
 10 17  2  0  0  0  0
 11 18  2  0  0  0  0
 12 14  2  0  0  0  0
 12 18  1  0  0  0  0
 13 22  1  0  0  0  0
 14 21  1  0  0  0  0
 15 16  2  0  0  0  0
 15 23  1  0  0  0  0
 16 25  1  0  0  0  0
 17 28  1  0  0  0  0
 18 29  1  0  0  0  0
 19 22  1  0  0  0  0
 19 26  1  0  0  0  0
 19 27  2  0  0  0  0
 20 28  1  0  0  0  0
 21 22  1  6  0  0  0
 23 24  2  0  0  0  0
 24 25  1  0  0  0  0
 25 26  1  0  0  0  0
  1 30  1  0  0  0  0
  2 31  1  0  0  0  0
  3 32  1  0  0  0  0
  4 33  1  0  0  0  0
  5 34  1  0  0  0  0
  6 35  1  0  0  0  0
  7 36  1  0  0  0  0
  8 37  1  0  0  0  0
  9 38  1  0  0  0  0
 10 39  1  0  0  0  0
 11 40  1  0  0  0  0
 12 41  1  0  0  0  0
 20 42  1  0  0  0  0
 20 43  1  0  0  0  0
 20 44  1  0  0  0  0
 21 45  1  0  0  0  0
 21 46  1  0  0  0  0
 22 47  1  0  0  0  0
 26 48  1  0  0  0  0
M  END
> <clash_score>
4.085676457920602

> <docking_score>
-3.705874443054199

> <overlap_score>
0.7971907258033752

$$$$
BENZO_189_1
  -OEChem-08232013533D

 58 62  0     1  0  0  0  0  0999 V2000
   12.9530    0.9093   26.3887 C   0  0  0  0  0  0  0  0  0  0  0  0
   11.8190    1.6402   26.7430 C   0  0  0  0  0  0  0  0  0  0  0  0
   13.0192    0.2848   25.1432 C   0  0  0  0  0  0  0  0  0  0  0  0
    3.8860    2.1050   19.5250 C   0  0  0  0  0  0  0  0  0  0  0  0
    4.2460    1.7520   20.8250 C   0  0  0  0  0  0  0  0  0  0  0  0
   10.7513    1.7466   25.8518 C   0  0  0  0  0  0  0  0  0  0  0  0
   11.9515    0.3912   24.2520 C   0  0  0  0  0  0  0  0  0  0  0  0
    9.5890   -2.4950   23.2210 C   0  0  0  0  0  0  0  0  0  0  0  0
    8.2550   -1.0010   24.5520 C   0  0  0  0  0  0  0  0  0  0  0  0
    4.6610    1.7170   18.4380 C   0  0  0  0  0  0  0  0  0  0  0  0
    5.3890    1.0010   21.0690 C   0  0  0  0  0  0  0  0  0  0  0  0
    9.1890   -3.5540   24.0140 C   0  0  0  0  0  0  0  0  0  0  0  0
    7.8700   -2.0610   25.3550 C   0  0  0  0  0  0  0  0  0  0  0  0
   10.8175    1.1221   24.6062 C   0  0  0  0  0  0  0  0  0  0  0  0
    9.1280   -1.2090   23.4870 C   0  0  0  0  0  0  0  0  0  0  0  0
    5.7970    0.9500   18.6730 C   0  0  0  0  0  0  0  0  0  0  0  0
    6.1460    0.6070   19.9750 C   0  0  0  0  0  0  0  0  0  0  0  0
    8.3450   -3.3440   25.0980 C   0  0  0  0  0  0  0  0  0  0  0  0
    7.6777   -4.2365   27.3114 C   0  0  0  0  0  0  0  0  0  0  0  0
    9.0430    0.2380   21.4940 C   0  0  0  0  0  0  0  0  0  0  0  0
    7.0008   -5.3819   28.0445 C   0  0  0  0  0  0  0  0  0  0  0  0
    7.4106   -6.7604   27.5741 C   0  0  0  0  0  0  0  0  0  0  0  0
    7.2148   -6.8411   26.0763 C   0  0  0  0  0  0  0  0  0  0  0  0
    8.0979   -5.8053   25.4011 C   0  0  0  0  0  0  0  0  0  0  0  0
    9.6614    1.2367   23.6407 C   0  0  0  0  0  0  0  0  0  0  0  0
    9.5820   -0.1080   22.7000 C   0  0  1  0  0  0  0  0  0  0  0  0
    6.7100    0.3850   17.8100 N   0  0  0  0  0  0  0  0  0  0  0  0
    7.5840   -0.2700   18.5160 N   0  0  0  0  0  0  0  0  0  0  0  0
    7.2710   -0.1460   19.8310 N   0  0  0  0  0  0  0  0  0  0  0  0
    7.9635   -4.4451   25.9501 N   0  0  0  0  0  0  0  0  0  0  0  0
    8.0950   -0.7700   20.8440 N   0  0  0  0  0  0  0  0  0  0  0  0
    7.8778   -3.1892   27.9327 O   0  0  0  0  0  0  0  0  0  0  0  0
    9.2950    1.3000   20.9480 O   0  0  0  0  0  0  0  0  0  0  0  0
   13.7848    0.8277   27.0822 H   0  0  0  0  0  0  0  0  0  0  0  0
   11.7677    2.1275   27.7123 H   0  0  0  0  0  0  0  0  0  0  0  0
   13.9023   -0.2834   24.8666 H   0  0  0  0  0  0  0  0  0  0  0  0
    2.9846    2.6932   19.3610 H   0  0  0  0  0  0  0  0  0  0  0  0
    3.6235    2.0692   21.6570 H   0  0  0  0  0  0  0  0  0  0  0  0
    9.8717    2.3181   26.1364 H   0  0  0  0  0  0  0  0  0  0  0  0
   12.0118   -0.0988   23.2838 H   0  0  0  0  0  0  0  0  0  0  0  0
   10.2695   -2.6718   22.3873 H   0  0  0  0  0  0  0  0  0  0  0  0
    7.8712   -0.0014   24.7587 H   0  0  0  0  0  0  0  0  0  0  0  0
    4.3785    2.0113   17.4257 H   0  0  0  0  0  0  0  0  0  0  0  0
    5.6763    0.7332   22.0915 H   0  0  0  0  0  0  0  0  0  0  0  0
    9.5431   -4.5618   23.7801 H   0  0  0  0  0  0  0  0  0  0  0  0
    7.1923   -1.8823   26.1912 H   0  0  0  0  0  0  0  0  0  0  0  0
    7.2290   -5.2845   29.1121 H   0  0  0  0  0  0  0  0  0  0  0  0
    5.9188   -5.2480   27.9251 H   0  0  0  0  0  0  0  0  0  0  0  0
    8.4598   -6.9525   27.8289 H   0  0  0  0  0  0  0  0  0  0  0  0
    6.8062   -7.5226   28.0776 H   0  0  0  0  0  0  0  0  0  0  0  0
    7.4789   -7.8416   25.7161 H   0  0  0  0  0  0  0  0  0  0  0  0
    6.1634   -6.6702   25.8155 H   0  0  0  0  0  0  0  0  0  0  0  0
    9.1520   -6.0895   25.5127 H   0  0  0  0  0  0  0  0  0  0  0  0
    7.8696   -5.7728   24.3290 H   0  0  0  0  0  0  0  0  0  0  0  0
    8.7512    1.4324   24.2245 H   0  0  0  0  0  0  0  0  0  0  0  0
    9.7926    2.1276   23.0121 H   0  0  0  0  0  0  0  0  0  0  0  0
   10.7449   -0.2552   22.5248 H   0  0  0  0  0  0  0  0  0  0  0  0
    8.0815   -1.6117   21.0754 H   0  0  0  0  0  0  0  0  0  0  0  0
  1  2  1  0  0  0  0
  1  3  2  0  0  0  0
  2  6  2  0  0  0  0
  3  7  1  0  0  0  0
  4  5  1  0  0  0  0
  4 10  2  0  0  0  0
  5 11  2  0  0  0  0
  6 14  1  0  0  0  0
  7 14  2  0  0  0  0
  8 12  2  0  0  0  0
  8 15  1  0  0  0  0
  9 13  1  0  0  0  0
  9 15  2  0  0  0  0
 10 16  1  0  0  0  0
 11 17  1  0  0  0  0
 12 18  1  0  0  0  0
 13 18  2  0  0  0  0
 14 25  1  0  0  0  0
 15 26  1  0  0  0  0
 16 17  2  0  0  0  0
 16 27  1  0  0  0  0
 17 29  1  0  0  0  0
 18 30  1  0  0  0  0
 19 21  1  0  0  0  0
 19 30  1  0  0  0  0
 19 32  2  0  0  0  0
 20 26  1  1  0  0  0
 20 31  1  0  0  0  0
 20 33  2  0  0  0  0
 21 22  1  0  0  0  0
 22 23  1  0  0  0  0
 23 24  1  0  0  0  0
 24 30  1  0  0  0  0
 25 26  1  0  0  0  0
 27 28  2  0  0  0  0
 28 29  1  0  0  0  0
 29 31  1  0  0  0  0
  1 34  1  0  0  0  0
  2 35  1  0  0  0  0
  3 36  1  0  0  0  0
  4 37  1  0  0  0  0
  5 38  1  0  0  0  0
  6 39  1  0  0  0  0
  7 40  1  0  0  0  0
  8 41  1  0  0  0  0
  9 42  1  0  0  0  0
 10 43  1  0  0  0  0
 11 44  1  0  0  0  0
 12 45  1  0  0  0  0
 13 46  1  0  0  0  0
 21 47  1  0  0  0  0
 21 48  1  0  0  0  0
 22 49  1  0  0  0  0
 22 50  1  0  0  0  0
 23 51  1  0  0  0  0
 23 52  1  0  0  0  0
 24 53  1  0  0  0  0
 24 54  1  0  0  0  0
 25 55  1  0  0  0  0
 25 56  1  0  0  0  0
 26 57  1  0  0  0  0
 31 58  1  0  0  0  0
M  END
> <clash_score>
3.451542081220477

> <docking_score>
-4.182366371154785

> <overlap_score>
0.8685343265533447

$$$$
BENZO_189_2
  -OEChem-08232013533D

 58 62  0     1  0  0  0  0  0999 V2000
   13.4298   -0.6304   26.2164 C   0  0  0  0  0  0  0  0  0  0  0  0
   13.9318   -1.1657   25.0303 C   0  0  0  0  0  0  0  0  0  0  0  0
   12.2106    0.0474   26.2147 C   0  0  0  0  0  0  0  0  0  0  0  0
    3.8860    2.1050   19.5250 C   0  0  0  0  0  0  0  0  0  0  0  0
    4.2460    1.7520   20.8250 C   0  0  0  0  0  0  0  0  0  0  0  0
   13.2147   -1.0233   23.8424 C   0  0  0  0  0  0  0  0  0  0  0  0
   11.4935    0.1898   25.0268 C   0  0  0  0  0  0  0  0  0  0  0  0
    9.5890   -2.4950   23.2210 C   0  0  0  0  0  0  0  0  0  0  0  0
    8.2550   -1.0010   24.5520 C   0  0  0  0  0  0  0  0  0  0  0  0
    4.6610    1.7170   18.4380 C   0  0  0  0  0  0  0  0  0  0  0  0
    5.3890    1.0010   21.0690 C   0  0  0  0  0  0  0  0  0  0  0  0
    9.1890   -3.5540   24.0140 C   0  0  0  0  0  0  0  0  0  0  0  0
    7.8700   -2.0610   25.3550 C   0  0  0  0  0  0  0  0  0  0  0  0
   11.9955   -0.3455   23.8406 C   0  0  0  0  0  0  0  0  0  0  0  0
    9.1280   -1.2090   23.4870 C   0  0  0  0  0  0  0  0  0  0  0  0
    5.7970    0.9500   18.6730 C   0  0  0  0  0  0  0  0  0  0  0  0
    6.1460    0.6070   19.9750 C   0  0  0  0  0  0  0  0  0  0  0  0
    8.3450   -3.3440   25.0980 C   0  0  0  0  0  0  0  0  0  0  0  0
    6.6194   -4.8191   26.1158 C   0  0  0  0  0  0  0  0  0  0  0  0
    9.0430    0.2380   21.4940 C   0  0  0  0  0  0  0  0  0  0  0  0
    6.4366   -5.9938   27.0605 C   0  0  0  0  0  0  0  0  0  0  0  0
    7.2458   -5.7947   28.3299 C   0  0  0  0  0  0  0  0  0  0  0  0
    8.7184   -5.5215   28.0404 C   0  0  0  0  0  0  0  0  0  0  0  0
    9.0024   -5.2744   26.5596 C   0  0  0  0  0  0  0  0  0  0  0  0
   11.2185   -0.1906   22.5545 C   0  0  0  0  0  0  0  0  0  0  0  0
    9.5820   -0.1080   22.7000 C   0  0  2  0  0  0  0  0  0  0  0  0
    6.7100    0.3850   17.8100 N   0  0  0  0  0  0  0  0  0  0  0  0
    7.5840   -0.2700   18.5160 N   0  0  0  0  0  0  0  0  0  0  0  0
    7.2710   -0.1460   19.8310 N   0  0  0  0  0  0  0  0  0  0  0  0
    7.9658   -4.4384   25.9449 N   0  0  0  0  0  0  0  0  0  0  0  0
    8.0950   -0.7700   20.8440 N   0  0  0  0  0  0  0  0  0  0  0  0
    5.6415   -4.3469   25.5373 O   0  0  0  0  0  0  0  0  0  0  0  0
    9.2950    1.3000   20.9480 O   0  0  0  0  0  0  0  0  0  0  0  0
   13.9877   -0.7426   27.1415 H   0  0  0  0  0  0  0  0  0  0  0  0
   14.8805   -1.6944   25.0316 H   0  0  0  0  0  0  0  0  0  0  0  0
   11.8190    0.4634   27.1383 H   0  0  0  0  0  0  0  0  0  0  0  0
    2.9846    2.6932   19.3610 H   0  0  0  0  0  0  0  0  0  0  0  0
    3.6235    2.0692   21.6570 H   0  0  0  0  0  0  0  0  0  0  0  0
   13.6136   -1.4435   22.9229 H   0  0  0  0  0  0  0  0  0  0  0  0
   10.5446    0.7196   25.0350 H   0  0  0  0  0  0  0  0  0  0  0  0
   10.2695   -2.6718   22.3873 H   0  0  0  0  0  0  0  0  0  0  0  0
    7.8712   -0.0014   24.7587 H   0  0  0  0  0  0  0  0  0  0  0  0
    4.3785    2.0113   17.4257 H   0  0  0  0  0  0  0  0  0  0  0  0
    5.6763    0.7332   22.0915 H   0  0  0  0  0  0  0  0  0  0  0  0
    9.5431   -4.5618   23.7801 H   0  0  0  0  0  0  0  0  0  0  0  0
    7.1923   -1.8823   26.1912 H   0  0  0  0  0  0  0  0  0  0  0  0
    5.3901   -6.0734   27.3117 H   0  0  0  0  0  0  0  0  0  0  0  0
    6.7606   -6.8843   26.5429 H   0  0  0  0  0  0  0  0  0  0  0  0
    6.8221   -4.9563   28.9212 H   0  0  0  0  0  0  0  0  0  0  0  0
    7.1526   -6.6910   28.9757 H   0  0  0  0  0  0  0  0  0  0  0  0
    9.0539   -4.6418   28.6288 H   0  0  0  0  0  0  0  0  0  0  0  0
    9.3393   -6.3684   28.4053 H   0  0  0  0  0  0  0  0  0  0  0  0
    9.9475   -4.7506   26.4523 H   0  0  0  0  0  0  0  0  0  0  0  0
    9.0509   -6.2236   26.0372 H   0  0  0  0  0  0  0  0  0  0  0  0
   11.6029    0.6962   22.0317 H   0  0  0  0  0  0  0  0  0  0  0  0
   11.4403   -1.0329   21.8857 H   0  0  0  0  0  0  0  0  0  0  0  0
    9.5315    0.8594   23.3834 H   0  0  0  0  0  0  0  0  0  0  0  0
    8.0815   -1.6117   21.0754 H   0  0  0  0  0  0  0  0  0  0  0  0
  1  2  1  0  0  0  0
  1  3  2  0  0  0  0
  2  6  2  0  0  0  0
  3  7  1  0  0  0  0
  4  5  1  0  0  0  0
  4 10  2  0  0  0  0
  5 11  2  0  0  0  0
  6 14  1  0  0  0  0
  7 14  2  0  0  0  0
  8 12  2  0  0  0  0
  8 15  1  0  0  0  0
  9 13  1  0  0  0  0
  9 15  2  0  0  0  0
 10 16  1  0  0  0  0
 11 17  1  0  0  0  0
 12 18  1  0  0  0  0
 13 18  2  0  0  0  0
 14 25  1  0  0  0  0
 15 26  1  0  0  0  0
 16 17  2  0  0  0  0
 16 27  1  0  0  0  0
 17 29  1  0  0  0  0
 18 30  1  0  0  0  0
 19 21  1  0  0  0  0
 19 30  1  0  0  0  0
 19 32  2  0  0  0  0
 20 26  1  6  0  0  0
 20 31  1  0  0  0  0
 20 33  2  0  0  0  0
 21 22  1  0  0  0  0
 22 23  1  0  0  0  0
 23 24  1  0  0  0  0
 24 30  1  0  0  0  0
 25 26  1  0  0  0  0
 27 28  2  0  0  0  0
 28 29  1  0  0  0  0
 29 31  1  0  0  0  0
  1 34  1  0  0  0  0
  2 35  1  0  0  0  0
  3 36  1  0  0  0  0
  4 37  1  0  0  0  0
  5 38  1  0  0  0  0
  6 39  1  0  0  0  0
  7 40  1  0  0  0  0
  8 41  1  0  0  0  0
  9 42  1  0  0  0  0
 10 43  1  0  0  0  0
 11 44  1  0  0  0  0
 12 45  1  0  0  0  0
 13 46  1  0  0  0  0
 21 47  1  0  0  0  0
 21 48  1  0  0  0  0
 22 49  1  0  0  0  0
 22 50  1  0  0  0  0
 23 51  1  0  0  0  0
 23 52  1  0  0  0  0
 24 53  1  0  0  0  0
 24 54  1  0  0  0  0
 25 55  1  0  0  0  0
 25 56  1  0  0  0  0
 26 57  1  0  0  0  0
 31 58  1  0  0  0  0
M  END
> <clash_score>
0

> <docking_score>
-6.6493964195251465

> <overlap_score>
0.9334016442298889

$$$$
BENZO_188_1
  -OEChem-08232013533D

 55 59  0     1  0  0  0  0  0999 V2000
    3.8860    2.1050   19.5250 C   0  0  0  0  0  0  0  0  0  0  0  0
    4.2460    1.7520   20.8250 C   0  0  0  0  0  0  0  0  0  0  0  0
    9.5890   -2.4950   23.2210 C   0  0  0  0  0  0  0  0  0  0  0  0
    8.2550   -1.0010   24.5520 C   0  0  0  0  0  0  0  0  0  0  0  0
    4.6610    1.7170   18.4380 C   0  0  0  0  0  0  0  0  0  0  0  0
    5.3890    1.0010   21.0690 C   0  0  0  0  0  0  0  0  0  0  0  0
    9.1890   -3.5540   24.0140 C   0  0  0  0  0  0  0  0  0  0  0  0
    7.8700   -2.0610   25.3550 C   0  0  0  0  0  0  0  0  0  0  0  0
   12.1623    0.8696   24.2091 C   0  0  0  0  0  0  0  0  0  0  0  0
   13.0182    0.8125   25.2870 C   0  0  0  0  0  0  0  0  0  0  0  0
   10.6966    1.2482   25.9728 C   0  0  0  0  0  0  0  0  0  0  0  0
    9.1280   -1.2090   23.4870 C   0  0  0  0  0  0  0  0  0  0  0  0
   10.8175    1.1221   24.6062 C   0  0  0  0  0  0  0  0  0  0  0  0
    5.7970    0.9500   18.6730 C   0  0  0  0  0  0  0  0  0  0  0  0
    6.1460    0.6070   19.9750 C   0  0  0  0  0  0  0  0  0  0  0  0
    8.3450   -3.3440   25.0980 C   0  0  0  0  0  0  0  0  0  0  0  0
    7.6777   -4.2365   27.3114 C   0  0  0  0  0  0  0  0  0  0  0  0
    9.0430    0.2380   21.4940 C   0  0  0  0  0  0  0  0  0  0  0  0
    7.0008   -5.3819   28.0445 C   0  0  0  0  0  0  0  0  0  0  0  0
    7.4106   -6.7604   27.5741 C   0  0  0  0  0  0  0  0  0  0  0  0
    7.2148   -6.8411   26.0763 C   0  0  0  0  0  0  0  0  0  0  0  0
    8.0979   -5.8053   25.4011 C   0  0  0  0  0  0  0  0  0  0  0  0
    9.6614    1.2367   23.6407 C   0  0  0  0  0  0  0  0  0  0  0  0
    9.5820   -0.1080   22.7000 C   0  0  1  0  0  0  0  0  0  0  0  0
    6.7100    0.3850   17.8100 N   0  0  0  0  0  0  0  0  0  0  0  0
    7.5840   -0.2700   18.5160 N   0  0  0  0  0  0  0  0  0  0  0  0
    7.2710   -0.1460   19.8310 N   0  0  0  0  0  0  0  0  0  0  0  0
    7.9635   -4.4451   25.9501 N   0  0  0  0  0  0  0  0  0  0  0  0
    8.0950   -0.7700   20.8440 N   0  0  0  0  0  0  0  0  0  0  0  0
    7.8778   -3.1892   27.9327 O   0  0  0  0  0  0  0  0  0  0  0  0
    9.2950    1.3000   20.9480 O   0  0  0  0  0  0  0  0  0  0  0  0
   12.2004    1.0626   26.7706 S   0  0  0  0  0  0  0  0  0  0  0  0
    2.9846    2.6932   19.3610 H   0  0  0  0  0  0  0  0  0  0  0  0
    3.6235    2.0692   21.6570 H   0  0  0  0  0  0  0  0  0  0  0  0
   10.2695   -2.6718   22.3873 H   0  0  0  0  0  0  0  0  0  0  0  0
    7.8712   -0.0014   24.7587 H   0  0  0  0  0  0  0  0  0  0  0  0
    4.3785    2.0113   17.4257 H   0  0  0  0  0  0  0  0  0  0  0  0
    5.6763    0.7332   22.0915 H   0  0  0  0  0  0  0  0  0  0  0  0
    9.5431   -4.5618   23.7801 H   0  0  0  0  0  0  0  0  0  0  0  0
    7.1923   -1.8823   26.1912 H   0  0  0  0  0  0  0  0  0  0  0  0
   12.4898    0.7356   23.1858 H   0  0  0  0  0  0  0  0  0  0  0  0
   14.0843    0.6352   25.2744 H   0  0  0  0  0  0  0  0  0  0  0  0
    9.7992    1.4392   26.5448 H   0  0  0  0  0  0  0  0  0  0  0  0
    7.2290   -5.2845   29.1121 H   0  0  0  0  0  0  0  0  0  0  0  0
    5.9188   -5.2480   27.9251 H   0  0  0  0  0  0  0  0  0  0  0  0
    8.4598   -6.9525   27.8289 H   0  0  0  0  0  0  0  0  0  0  0  0
    6.8062   -7.5226   28.0776 H   0  0  0  0  0  0  0  0  0  0  0  0
    7.4789   -7.8416   25.7161 H   0  0  0  0  0  0  0  0  0  0  0  0
    6.1634   -6.6702   25.8155 H   0  0  0  0  0  0  0  0  0  0  0  0
    9.1520   -6.0895   25.5127 H   0  0  0  0  0  0  0  0  0  0  0  0
    7.8696   -5.7728   24.3290 H   0  0  0  0  0  0  0  0  0  0  0  0
    8.7512    1.4324   24.2245 H   0  0  0  0  0  0  0  0  0  0  0  0
    9.7926    2.1276   23.0121 H   0  0  0  0  0  0  0  0  0  0  0  0
   10.7449   -0.2552   22.5248 H   0  0  0  0  0  0  0  0  0  0  0  0
    8.0815   -1.6117   21.0754 H   0  0  0  0  0  0  0  0  0  0  0  0
  1  2  1  0  0  0  0
  1  5  2  0  0  0  0
  2  6  2  0  0  0  0
  3  7  2  0  0  0  0
  3 12  1  0  0  0  0
  4  8  1  0  0  0  0
  4 12  2  0  0  0  0
  5 14  1  0  0  0  0
  6 15  1  0  0  0  0
  7 16  1  0  0  0  0
  8 16  2  0  0  0  0
  9 10  2  0  0  0  0
  9 13  1  0  0  0  0
 10 32  1  0  0  0  0
 11 13  2  0  0  0  0
 11 32  1  0  0  0  0
 12 24  1  0  0  0  0
 13 23  1  0  0  0  0
 14 15  2  0  0  0  0
 14 25  1  0  0  0  0
 15 27  1  0  0  0  0
 16 28  1  0  0  0  0
 17 19  1  0  0  0  0
 17 28  1  0  0  0  0
 17 30  2  0  0  0  0
 18 24  1  1  0  0  0
 18 29  1  0  0  0  0
 18 31  2  0  0  0  0
 19 20  1  0  0  0  0
 20 21  1  0  0  0  0
 21 22  1  0  0  0  0
 22 28  1  0  0  0  0
 23 24  1  0  0  0  0
 25 26  2  0  0  0  0
 26 27  1  0  0  0  0
 27 29  1  0  0  0  0
  1 33  1  0  0  0  0
  2 34  1  0  0  0  0
  3 35  1  0  0  0  0
  4 36  1  0  0  0  0
  5 37  1  0  0  0  0
  6 38  1  0  0  0  0
  7 39  1  0  0  0  0
  8 40  1  0  0  0  0
  9 41  1  0  0  0  0
 10 42  1  0  0  0  0
 11 43  1  0  0  0  0
 19 44  1  0  0  0  0
 19 45  1  0  0  0  0
 20 46  1  0  0  0  0
 20 47  1  0  0  0  0
 21 48  1  0  0  0  0
 21 49  1  0  0  0  0
 22 50  1  0  0  0  0
 22 51  1  0  0  0  0
 23 52  1  0  0  0  0
 23 53  1  0  0  0  0
 24 54  1  0  0  0  0
 29 55  1  0  0  0  0
M  END
> <clash_score>
1.3873436286698058

> <docking_score>
-4.388643264770508

> <overlap_score>
0.8587609529495239

$$$$
BENZO_188_2
  -OEChem-08232013533D

 55 59  0     1  0  0  0  0  0999 V2000
    3.8860    2.1050   19.5250 C   0  0  0  0  0  0  0  0  0  0  0  0
    4.2460    1.7520   20.8250 C   0  0  0  0  0  0  0  0  0  0  0  0
    9.5890   -2.4950   23.2210 C   0  0  0  0  0  0  0  0  0  0  0  0
    8.2550   -1.0010   24.5520 C   0  0  0  0  0  0  0  0  0  0  0  0
    4.6610    1.7170   18.4380 C   0  0  0  0  0  0  0  0  0  0  0  0
    5.3890    1.0010   21.0690 C   0  0  0  0  0  0  0  0  0  0  0  0
    9.1890   -3.5540   24.0140 C   0  0  0  0  0  0  0  0  0  0  0  0
    7.8700   -2.0610   25.3550 C   0  0  0  0  0  0  0  0  0  0  0  0
   13.1978   -1.1013   23.9565 C   0  0  0  0  0  0  0  0  0  0  0  0
   13.7015   -1.0791   25.2384 C   0  0  0  0  0  0  0  0  0  0  0  0
   11.6260    0.2255   25.0387 C   0  0  0  0  0  0  0  0  0  0  0  0
    9.1280   -1.2090   23.4870 C   0  0  0  0  0  0  0  0  0  0  0  0
   11.9955   -0.3455   23.8406 C   0  0  0  0  0  0  0  0  0  0  0  0
    5.7970    0.9500   18.6730 C   0  0  0  0  0  0  0  0  0  0  0  0
    6.1460    0.6070   19.9750 C   0  0  0  0  0  0  0  0  0  0  0  0
    8.3450   -3.3440   25.0980 C   0  0  0  0  0  0  0  0  0  0  0  0
    6.6194   -4.8191   26.1158 C   0  0  0  0  0  0  0  0  0  0  0  0
    9.0430    0.2380   21.4940 C   0  0  0  0  0  0  0  0  0  0  0  0
    6.4366   -5.9938   27.0605 C   0  0  0  0  0  0  0  0  0  0  0  0
    7.2458   -5.7947   28.3299 C   0  0  0  0  0  0  0  0  0  0  0  0
    8.7184   -5.5215   28.0404 C   0  0  0  0  0  0  0  0  0  0  0  0
    9.0024   -5.2744   26.5596 C   0  0  0  0  0  0  0  0  0  0  0  0
   11.2185   -0.1906   22.5545 C   0  0  0  0  0  0  0  0  0  0  0  0
    9.5820   -0.1080   22.7000 C   0  0  2  0  0  0  0  0  0  0  0  0
    6.7100    0.3850   17.8100 N   0  0  0  0  0  0  0  0  0  0  0  0
    7.5840   -0.2700   18.5160 N   0  0  0  0  0  0  0  0  0  0  0  0
    7.2710   -0.1460   19.8310 N   0  0  0  0  0  0  0  0  0  0  0  0
    7.9658   -4.4384   25.9449 N   0  0  0  0  0  0  0  0  0  0  0  0
    8.0950   -0.7700   20.8440 N   0  0  0  0  0  0  0  0  0  0  0  0
    5.6415   -4.3469   25.5373 O   0  0  0  0  0  0  0  0  0  0  0  0
    9.2950    1.3000   20.9480 O   0  0  0  0  0  0  0  0  0  0  0  0
   12.7264   -0.1499   26.2958 S   0  0  0  0  0  0  0  0  0  0  0  0
    2.9846    2.6932   19.3610 H   0  0  0  0  0  0  0  0  0  0  0  0
    3.6235    2.0692   21.6570 H   0  0  0  0  0  0  0  0  0  0  0  0
   10.2695   -2.6718   22.3873 H   0  0  0  0  0  0  0  0  0  0  0  0
    7.8712   -0.0014   24.7587 H   0  0  0  0  0  0  0  0  0  0  0  0
    4.3785    2.0113   17.4257 H   0  0  0  0  0  0  0  0  0  0  0  0
    5.6763    0.7332   22.0915 H   0  0  0  0  0  0  0  0  0  0  0  0
    9.5431   -4.5618   23.7801 H   0  0  0  0  0  0  0  0  0  0  0  0
    7.1923   -1.8823   26.1912 H   0  0  0  0  0  0  0  0  0  0  0  0
   13.6723   -1.6362   23.1434 H   0  0  0  0  0  0  0  0  0  0  0  0
   14.5949   -1.5646   25.6049 H   0  0  0  0  0  0  0  0  0  0  0  0
   10.7629    0.8447   25.2404 H   0  0  0  0  0  0  0  0  0  0  0  0
    5.3901   -6.0734   27.3117 H   0  0  0  0  0  0  0  0  0  0  0  0
    6.7606   -6.8843   26.5429 H   0  0  0  0  0  0  0  0  0  0  0  0
    6.8221   -4.9563   28.9212 H   0  0  0  0  0  0  0  0  0  0  0  0
    7.1526   -6.6910   28.9757 H   0  0  0  0  0  0  0  0  0  0  0  0
    9.0539   -4.6418   28.6288 H   0  0  0  0  0  0  0  0  0  0  0  0
    9.3393   -6.3684   28.4053 H   0  0  0  0  0  0  0  0  0  0  0  0
    9.9475   -4.7506   26.4523 H   0  0  0  0  0  0  0  0  0  0  0  0
    9.0509   -6.2236   26.0372 H   0  0  0  0  0  0  0  0  0  0  0  0
   11.6029    0.6962   22.0317 H   0  0  0  0  0  0  0  0  0  0  0  0
   11.4403   -1.0329   21.8857 H   0  0  0  0  0  0  0  0  0  0  0  0
    9.5315    0.8594   23.3834 H   0  0  0  0  0  0  0  0  0  0  0  0
    8.0815   -1.6117   21.0754 H   0  0  0  0  0  0  0  0  0  0  0  0
  1  2  1  0  0  0  0
  1  5  2  0  0  0  0
  2  6  2  0  0  0  0
  3  7  2  0  0  0  0
  3 12  1  0  0  0  0
  4  8  1  0  0  0  0
  4 12  2  0  0  0  0
  5 14  1  0  0  0  0
  6 15  1  0  0  0  0
  7 16  1  0  0  0  0
  8 16  2  0  0  0  0
  9 10  2  0  0  0  0
  9 13  1  0  0  0  0
 10 32  1  0  0  0  0
 11 13  2  0  0  0  0
 11 32  1  0  0  0  0
 12 24  1  0  0  0  0
 13 23  1  0  0  0  0
 14 15  2  0  0  0  0
 14 25  1  0  0  0  0
 15 27  1  0  0  0  0
 16 28  1  0  0  0  0
 17 19  1  0  0  0  0
 17 28  1  0  0  0  0
 17 30  2  0  0  0  0
 18 24  1  6  0  0  0
 18 29  1  0  0  0  0
 18 31  2  0  0  0  0
 19 20  1  0  0  0  0
 20 21  1  0  0  0  0
 21 22  1  0  0  0  0
 22 28  1  0  0  0  0
 23 24  1  0  0  0  0
 25 26  2  0  0  0  0
 26 27  1  0  0  0  0
 27 29  1  0  0  0  0
  1 33  1  0  0  0  0
  2 34  1  0  0  0  0
  3 35  1  0  0  0  0
  4 36  1  0  0  0  0
  5 37  1  0  0  0  0
  6 38  1  0  0  0  0
  7 39  1  0  0  0  0
  8 40  1  0  0  0  0
  9 41  1  0  0  0  0
 10 42  1  0  0  0  0
 11 43  1  0  0  0  0
 19 44  1  0  0  0  0
 19 45  1  0  0  0  0
 20 46  1  0  0  0  0
 20 47  1  0  0  0  0
 21 48  1  0  0  0  0
 21 49  1  0  0  0  0
 22 50  1  0  0  0  0
 22 51  1  0  0  0  0
 23 52  1  0  0  0  0
 23 53  1  0  0  0  0
 24 54  1  0  0  0  0
 29 55  1  0  0  0  0
M  END
> <clash_score>
0

> <docking_score>
-6.994774341583252

> <overlap_score>
0.9287575483322144

$$$$
BENZO_190_1
  -OEChem-08232013533D

 58 62  0     1  0  0  0  0  0999 V2000
    3.8860    2.1050   19.5250 C   0  0  0  0  0  0  0  0  0  0  0  0
    4.2460    1.7520   20.8250 C   0  0  0  0  0  0  0  0  0  0  0  0
   12.2120   -0.2767   26.0159 C   0  0  0  0  0  0  0  0  0  0  0  0
   11.4767   -0.0068   24.8618 C   0  0  0  0  0  0  0  0  0  0  0  0
    9.5890   -2.4950   23.2210 C   0  0  0  0  0  0  0  0  0  0  0  0
    8.2550   -1.0010   24.5520 C   0  0  0  0  0  0  0  0  0  0  0  0
    4.6610    1.7170   18.4380 C   0  0  0  0  0  0  0  0  0  0  0  0
    5.3890    1.0010   21.0690 C   0  0  0  0  0  0  0  0  0  0  0  0
    9.1890   -3.5540   24.0140 C   0  0  0  0  0  0  0  0  0  0  0  0
    7.8700   -2.0610   25.3550 C   0  0  0  0  0  0  0  0  0  0  0  0
   11.9272    0.4040   27.1996 C   0  0  0  0  0  0  0  0  0  0  0  0
   10.1717    1.6249   26.0750 C   0  0  0  0  0  0  0  0  0  0  0  0
    9.1280   -1.2090   23.4870 C   0  0  0  0  0  0  0  0  0  0  0  0
   10.4565    0.9440   24.8913 C   0  0  0  0  0  0  0  0  0  0  0  0
    5.7970    0.9500   18.6730 C   0  0  0  0  0  0  0  0  0  0  0  0
    6.1460    0.6070   19.9750 C   0  0  0  0  0  0  0  0  0  0  0  0
    8.3450   -3.3440   25.0980 C   0  0  0  0  0  0  0  0  0  0  0  0
   10.9070    1.3549   27.2291 C   0  0  0  0  0  0  0  0  0  0  0  0
    8.2612   -4.4533   27.3232 C   0  0  0  0  0  0  0  0  0  0  0  0
    9.0430    0.2380   21.4940 C   0  0  0  0  0  0  0  0  0  0  0  0
    7.7639   -5.6979   28.0369 C   0  0  0  0  0  0  0  0  0  0  0  0
    6.3258   -5.9996   27.6538 C   0  0  0  0  0  0  0  0  0  0  0  0
    6.1385   -6.0983   26.1431 C   0  0  0  0  0  0  0  0  0  0  0  0
    7.3646   -5.6395   25.3553 C   0  0  0  0  0  0  0  0  0  0  0  0
    9.6614    1.2367   23.6407 C   0  0  0  0  0  0  0  0  0  0  0  0
    9.5820   -0.1080   22.7000 C   0  0  1  0  0  0  0  0  0  0  0  0
    6.7100    0.3850   17.8100 N   0  0  0  0  0  0  0  0  0  0  0  0
    7.5840   -0.2700   18.5160 N   0  0  0  0  0  0  0  0  0  0  0  0
    7.2710   -0.1460   19.8310 N   0  0  0  0  0  0  0  0  0  0  0  0
    7.9658   -4.4385   25.9450 N   0  0  0  0  0  0  0  0  0  0  0  0
    8.0950   -0.7700   20.8440 N   0  0  0  0  0  0  0  0  0  0  0  0
    8.9160   -3.6176   27.9452 O   0  0  0  0  0  0  0  0  0  0  0  0
    9.2950    1.3000   20.9480 O   0  0  0  0  0  0  0  0  0  0  0  0
   10.5568    2.1953   28.6895 Cl  0  0  0  0  0  0  0  0  0  0  0  0
    2.9846    2.6932   19.3610 H   0  0  0  0  0  0  0  0  0  0  0  0
    3.6235    2.0692   21.6570 H   0  0  0  0  0  0  0  0  0  0  0  0
   13.0065   -1.0171   25.9925 H   0  0  0  0  0  0  0  0  0  0  0  0
   11.7056   -0.5420   23.9439 H   0  0  0  0  0  0  0  0  0  0  0  0
   10.2695   -2.6718   22.3873 H   0  0  0  0  0  0  0  0  0  0  0  0
    7.8712   -0.0014   24.7587 H   0  0  0  0  0  0  0  0  0  0  0  0
    4.3785    2.0113   17.4257 H   0  0  0  0  0  0  0  0  0  0  0  0
    5.6763    0.7332   22.0915 H   0  0  0  0  0  0  0  0  0  0  0  0
    9.5431   -4.5618   23.7801 H   0  0  0  0  0  0  0  0  0  0  0  0
    7.1923   -1.8823   26.1912 H   0  0  0  0  0  0  0  0  0  0  0  0
   12.5087    0.1836   28.0914 H   0  0  0  0  0  0  0  0  0  0  0  0
    9.3749    2.3649   26.0930 H   0  0  0  0  0  0  0  0  0  0  0  0
    8.3914   -6.5295   27.7556 H   0  0  0  0  0  0  0  0  0  0  0  0
    7.8414   -5.5198   29.0990 H   0  0  0  0  0  0  0  0  0  0  0  0
    5.9977   -6.9465   28.1311 H   0  0  0  0  0  0  0  0  0  0  0  0
    5.6587   -5.2139   28.0619 H   0  0  0  0  0  0  0  0  0  0  0  0
    5.8986   -7.1470   25.8680 H   0  0  0  0  0  0  0  0  0  0  0  0
    5.2500   -5.5067   25.8324 H   0  0  0  0  0  0  0  0  0  0  0  0
    8.1195   -6.4201   25.3688 H   0  0  0  0  0  0  0  0  0  0  0  0
    7.0780   -5.4282   24.3307 H   0  0  0  0  0  0  0  0  0  0  0  0
    8.6823    1.6307   23.9469 H   0  0  0  0  0  0  0  0  0  0  0  0
   10.1362    2.0563   23.0850 H   0  0  0  0  0  0  0  0  0  0  0  0
   10.7449   -0.2552   22.5248 H   0  0  0  0  0  0  0  0  0  0  0  0
    8.0815   -1.6117   21.0754 H   0  0  0  0  0  0  0  0  0  0  0  0
  1  2  1  0  0  0  0
  1  7  2  0  0  0  0
  2  8  2  0  0  0  0
  3  4  2  0  0  0  0
  3 11  1  0  0  0  0
  4 14  1  0  0  0  0
  5  9  2  0  0  0  0
  5 13  1  0  0  0  0
  6 10  1  0  0  0  0
  6 13  2  0  0  0  0
  7 15  1  0  0  0  0
  8 16  1  0  0  0  0
  9 17  1  0  0  0  0
 10 17  2  0  0  0  0
 11 18  2  0  0  0  0
 12 14  2  0  0  0  0
 12 18  1  0  0  0  0
 13 26  1  0  0  0  0
 14 25  1  0  0  0  0
 15 16  2  0  0  0  0
 15 27  1  0  0  0  0
 16 29  1  0  0  0  0
 17 30  1  0  0  0  0
 18 34  1  0  0  0  0
 19 21  1  0  0  0  0
 19 30  1  0  0  0  0
 19 32  2  0  0  0  0
 20 26  1  1  0  0  0
 20 31  1  0  0  0  0
 20 33  2  0  0  0  0
 21 22  1  0  0  0  0
 22 23  1  0  0  0  0
 23 24  1  0  0  0  0
 24 30  1  0  0  0  0
 25 26  1  0  0  0  0
 27 28  2  0  0  0  0
 28 29  1  0  0  0  0
 29 31  1  0  0  0  0
  1 35  1  0  0  0  0
  2 36  1  0  0  0  0
  3 37  1  0  0  0  0
  4 38  1  0  0  0  0
  5 39  1  0  0  0  0
  6 40  1  0  0  0  0
  7 41  1  0  0  0  0
  8 42  1  0  0  0  0
  9 43  1  0  0  0  0
 10 44  1  0  0  0  0
 11 45  1  0  0  0  0
 12 46  1  0  0  0  0
 21 47  1  0  0  0  0
 21 48  1  0  0  0  0
 22 49  1  0  0  0  0
 22 50  1  0  0  0  0
 23 51  1  0  0  0  0
 23 52  1  0  0  0  0
 24 53  1  0  0  0  0
 24 54  1  0  0  0  0
 25 55  1  0  0  0  0
 25 56  1  0  0  0  0
 26 57  1  0  0  0  0
 31 58  1  0  0  0  0
M  END
> <clash_score>
4.842562894006987

> <docking_score>
-3.9068565368652344

> <overlap_score>
0.8608948588371277

$$$$
BENZO_191_2
  -OEChem-08232013533D

 58 62  0     1  0  0  0  0  0999 V2000
    3.8860    2.1050   19.5250 C   0  0  0  0  0  0  0  0  0  0  0  0
    4.2460    1.7520   20.8250 C   0  0  0  0  0  0  0  0  0  0  0  0
    9.5890   -2.4950   23.2210 C   0  0  0  0  0  0  0  0  0  0  0  0
    8.2550   -1.0010   24.5520 C   0  0  0  0  0  0  0  0  0  0  0  0
    4.6610    1.7170   18.4380 C   0  0  0  0  0  0  0  0  0  0  0  0
    5.3890    1.0010   21.0690 C   0  0  0  0  0  0  0  0  0  0  0  0
    9.1890   -3.5540   24.0140 C   0  0  0  0  0  0  0  0  0  0  0  0
    7.8700   -2.0610   25.3550 C   0  0  0  0  0  0  0  0  0  0  0  0
   12.0323    0.4351   24.4216 C   0  0  0  0  0  0  0  0  0  0  0  0
   10.9195    1.6685   25.8623 C   0  0  0  0  0  0  0  0  0  0  0  0
    9.1280   -1.2090   23.4870 C   0  0  0  0  0  0  0  0  0  0  0  0
   10.8175    1.1221   24.6062 C   0  0  0  0  0  0  0  0  0  0  0  0
    5.7970    0.9500   18.6730 C   0  0  0  0  0  0  0  0  0  0  0  0
    6.1460    0.6070   19.9750 C   0  0  0  0  0  0  0  0  0  0  0  0
    8.3450   -3.3440   25.0980 C   0  0  0  0  0  0  0  0  0  0  0  0
    6.6194   -4.8191   26.1158 C   0  0  0  0  0  0  0  0  0  0  0  0
    9.0430    0.2380   21.4940 C   0  0  0  0  0  0  0  0  0  0  0  0
    6.4366   -5.9938   27.0605 C   0  0  0  0  0  0  0  0  0  0  0  0
    7.2458   -5.7947   28.3299 C   0  0  0  0  0  0  0  0  0  0  0  0
    8.7184   -5.5215   28.0404 C   0  0  0  0  0  0  0  0  0  0  0  0
    9.0024   -5.2744   26.5596 C   0  0  0  0  0  0  0  0  0  0  0  0
   12.7029    1.6253   27.6219 C   0  0  0  0  0  0  0  0  0  0  0  0
    9.6614    1.2367   23.6407 C   0  0  0  0  0  0  0  0  0  0  0  0
    9.5820   -0.1080   22.7000 C   0  0  2  0  0  0  0  0  0  0  0  0
   12.8463    0.5345   25.4759 N   0  0  0  0  0  0  0  0  0  0  0  0
    6.7100    0.3850   17.8100 N   0  0  0  0  0  0  0  0  0  0  0  0
    7.5840   -0.2700   18.5160 N   0  0  0  0  0  0  0  0  0  0  0  0
   12.1417    1.2905   26.3350 N   0  0  0  0  0  0  0  0  0  0  0  0
    7.2710   -0.1460   19.8310 N   0  0  0  0  0  0  0  0  0  0  0  0
    7.9658   -4.4384   25.9449 N   0  0  0  0  0  0  0  0  0  0  0  0
    8.0950   -0.7700   20.8440 N   0  0  0  0  0  0  0  0  0  0  0  0
    5.6415   -4.3469   25.5373 O   0  0  0  0  0  0  0  0  0  0  0  0
    9.2950    1.3000   20.9480 O   0  0  0  0  0  0  0  0  0  0  0  0
    2.9846    2.6932   19.3610 H   0  0  0  0  0  0  0  0  0  0  0  0
    3.6235    2.0692   21.6570 H   0  0  0  0  0  0  0  0  0  0  0  0
   10.2695   -2.6718   22.3873 H   0  0  0  0  0  0  0  0  0  0  0  0
    7.8712   -0.0014   24.7587 H   0  0  0  0  0  0  0  0  0  0  0  0
    4.3785    2.0113   17.4257 H   0  0  0  0  0  0  0  0  0  0  0  0
    5.6763    0.7332   22.0915 H   0  0  0  0  0  0  0  0  0  0  0  0
    9.5431   -4.5618   23.7801 H   0  0  0  0  0  0  0  0  0  0  0  0
    7.1923   -1.8823   26.1912 H   0  0  0  0  0  0  0  0  0  0  0  0
   12.3609   -0.1338   23.5634 H   0  0  0  0  0  0  0  0  0  0  0  0
   10.2438    2.2799   26.4449 H   0  0  0  0  0  0  0  0  0  0  0  0
    5.3901   -6.0734   27.3117 H   0  0  0  0  0  0  0  0  0  0  0  0
    6.7606   -6.8843   26.5429 H   0  0  0  0  0  0  0  0  0  0  0  0
    6.8221   -4.9563   28.9212 H   0  0  0  0  0  0  0  0  0  0  0  0
    7.1526   -6.6910   28.9757 H   0  0  0  0  0  0  0  0  0  0  0  0
    9.0539   -4.6418   28.6288 H   0  0  0  0  0  0  0  0  0  0  0  0
    9.3393   -6.3684   28.4053 H   0  0  0  0  0  0  0  0  0  0  0  0
    9.9475   -4.7506   26.4523 H   0  0  0  0  0  0  0  0  0  0  0  0
    9.0509   -6.2236   26.0372 H   0  0  0  0  0  0  0  0  0  0  0  0
   12.4110    0.8455   28.3303 H   0  0  0  0  0  0  0  0  0  0  0  0
   13.7921    1.6801   27.5410 H   0  0  0  0  0  0  0  0  0  0  0  0
   12.3182    2.5976   27.9420 H   0  0  0  0  0  0  0  0  0  0  0  0
    8.7512    1.4323   24.2245 H   0  0  0  0  0  0  0  0  0  0  0  0
    9.7926    2.1276   23.0121 H   0  0  0  0  0  0  0  0  0  0  0  0
   10.7449   -0.2552   22.5248 H   0  0  0  0  0  0  0  0  0  0  0  0
    8.0815   -1.6117   21.0754 H   0  0  0  0  0  0  0  0  0  0  0  0
  1  2  1  0  0  0  0
  1  5  2  0  0  0  0
  2  6  2  0  0  0  0
  3  7  2  0  0  0  0
  3 11  1  0  0  0  0
  4  8  1  0  0  0  0
  4 11  2  0  0  0  0
  5 13  1  0  0  0  0
  6 14  1  0  0  0  0
  7 15  1  0  0  0  0
  8 15  2  0  0  0  0
  9 12  1  0  0  0  0
  9 25  2  0  0  0  0
 10 12  2  0  0  0  0
 10 28  1  0  0  0  0
 11 24  1  0  0  0  0
 12 23  1  0  0  0  0
 13 14  2  0  0  0  0
 13 26  1  0  0  0  0
 14 29  1  0  0  0  0
 15 30  1  0  0  0  0
 16 18  1  0  0  0  0
 16 30  1  0  0  0  0
 16 32  2  0  0  0  0
 17 24  1  0  0  0  0
 17 31  1  0  0  0  0
 17 33  2  0  0  0  0
 18 19  1  0  0  0  0
 19 20  1  0  0  0  0
 20 21  1  0  0  0  0
 21 30  1  0  0  0  0
 22 28  1  0  0  0  0
 23 24  1  6  0  0  0
 25 28  1  0  0  0  0
 26 27  2  0  0  0  0
 27 29  1  0  0  0  0
 29 31  1  0  0  0  0
  1 34  1  0  0  0  0
  2 35  1  0  0  0  0
  3 36  1  0  0  0  0
  4 37  1  0  0  0  0
  5 38  1  0  0  0  0
  6 39  1  0  0  0  0
  7 40  1  0  0  0  0
  8 41  1  0  0  0  0
  9 42  1  0  0  0  0
 10 43  1  0  0  0  0
 18 44  1  0  0  0  0
 18 45  1  0  0  0  0
 19 46  1  0  0  0  0
 19 47  1  0  0  0  0
 20 48  1  0  0  0  0
 20 49  1  0  0  0  0
 21 50  1  0  0  0  0
 21 51  1  0  0  0  0
 22 52  1  0  0  0  0
 22 53  1  0  0  0  0
 22 54  1  0  0  0  0
 23 55  1  0  0  0  0
 23 56  1  0  0  0  0
 24 57  1  0  0  0  0
 31 58  1  0  0  0  0
M  END
> <clash_score>
2.8628259509788334

> <docking_score>
-4.070812702178955

> <overlap_score>
0.8581464886665344

$$$$
BENZO_190_2
  -OEChem-08232013533D

 58 62  0     1  0  0  0  0  0999 V2000
    3.8860    2.1050   19.5250 C   0  0  0  0  0  0  0  0  0  0  0  0
    4.2460    1.7520   20.8250 C   0  0  0  0  0  0  0  0  0  0  0  0
   13.9335   -1.1651   25.0278 C   0  0  0  0  0  0  0  0  0  0  0  0
   13.2149   -1.0228   23.8408 C   0  0  0  0  0  0  0  0  0  0  0  0
    9.5890   -2.4950   23.2210 C   0  0  0  0  0  0  0  0  0  0  0  0
    8.2550   -1.0010   24.5520 C   0  0  0  0  0  0  0  0  0  0  0  0
    4.6610    1.7170   18.4380 C   0  0  0  0  0  0  0  0  0  0  0  0
    5.3890    1.0010   21.0690 C   0  0  0  0  0  0  0  0  0  0  0  0
    9.1890   -3.5540   24.0140 C   0  0  0  0  0  0  0  0  0  0  0  0
    7.8700   -2.0610   25.3550 C   0  0  0  0  0  0  0  0  0  0  0  0
   13.4326   -0.6303   26.2147 C   0  0  0  0  0  0  0  0  0  0  0  0
   11.4946    0.1894   25.0276 C   0  0  0  0  0  0  0  0  0  0  0  0
    9.1280   -1.2090   23.4870 C   0  0  0  0  0  0  0  0  0  0  0  0
   11.9955   -0.3455   23.8406 C   0  0  0  0  0  0  0  0  0  0  0  0
    5.7970    0.9500   18.6730 C   0  0  0  0  0  0  0  0  0  0  0  0
    6.1460    0.6070   19.9750 C   0  0  0  0  0  0  0  0  0  0  0  0
    8.3450   -3.3440   25.0980 C   0  0  0  0  0  0  0  0  0  0  0  0
   12.2132    0.0470   26.2146 C   0  0  0  0  0  0  0  0  0  0  0  0
    6.6194   -4.8191   26.1158 C   0  0  0  0  0  0  0  0  0  0  0  0
    9.0430    0.2380   21.4940 C   0  0  0  0  0  0  0  0  0  0  0  0
    6.4366   -5.9938   27.0605 C   0  0  0  0  0  0  0  0  0  0  0  0
    7.2458   -5.7947   28.3299 C   0  0  0  0  0  0  0  0  0  0  0  0
    8.7184   -5.5215   28.0404 C   0  0  0  0  0  0  0  0  0  0  0  0
    9.0024   -5.2744   26.5596 C   0  0  0  0  0  0  0  0  0  0  0  0
   11.2185   -0.1906   22.5545 C   0  0  0  0  0  0  0  0  0  0  0  0
    9.5820   -0.1080   22.7000 C   0  0  2  0  0  0  0  0  0  0  0  0
    6.7100    0.3850   17.8100 N   0  0  0  0  0  0  0  0  0  0  0  0
    7.5840   -0.2700   18.5160 N   0  0  0  0  0  0  0  0  0  0  0  0
    7.2710   -0.1460   19.8310 N   0  0  0  0  0  0  0  0  0  0  0  0
    7.9658   -4.4384   25.9449 N   0  0  0  0  0  0  0  0  0  0  0  0
    8.0950   -0.7700   20.8440 N   0  0  0  0  0  0  0  0  0  0  0  0
    5.6415   -4.3469   25.5373 O   0  0  0  0  0  0  0  0  0  0  0  0
    9.2950    1.3000   20.9480 O   0  0  0  0  0  0  0  0  0  0  0  0
   11.5963    0.7076   27.6791 Cl  0  0  0  0  0  0  0  0  0  0  0  0
    2.9846    2.6932   19.3610 H   0  0  0  0  0  0  0  0  0  0  0  0
    3.6235    2.0692   21.6570 H   0  0  0  0  0  0  0  0  0  0  0  0
   14.8831   -1.6924   25.0274 H   0  0  0  0  0  0  0  0  0  0  0  0
   13.6129   -1.4426   22.9206 H   0  0  0  0  0  0  0  0  0  0  0  0
   10.2695   -2.6718   22.3873 H   0  0  0  0  0  0  0  0  0  0  0  0
    7.8712   -0.0014   24.7587 H   0  0  0  0  0  0  0  0  0  0  0  0
    4.3785    2.0113   17.4257 H   0  0  0  0  0  0  0  0  0  0  0  0
    5.6763    0.7332   22.0915 H   0  0  0  0  0  0  0  0  0  0  0  0
    9.5431   -4.5618   23.7801 H   0  0  0  0  0  0  0  0  0  0  0  0
    7.1923   -1.8823   26.1912 H   0  0  0  0  0  0  0  0  0  0  0  0
   14.0036   -0.7486   27.1323 H   0  0  0  0  0  0  0  0  0  0  0  0
   10.5431    0.7161   25.0223 H   0  0  0  0  0  0  0  0  0  0  0  0
    5.3901   -6.0734   27.3117 H   0  0  0  0  0  0  0  0  0  0  0  0
    6.7606   -6.8843   26.5429 H   0  0  0  0  0  0  0  0  0  0  0  0
    6.8221   -4.9563   28.9212 H   0  0  0  0  0  0  0  0  0  0  0  0
    7.1526   -6.6910   28.9757 H   0  0  0  0  0  0  0  0  0  0  0  0
    9.0539   -4.6418   28.6288 H   0  0  0  0  0  0  0  0  0  0  0  0
    9.3393   -6.3684   28.4053 H   0  0  0  0  0  0  0  0  0  0  0  0
    9.9475   -4.7506   26.4523 H   0  0  0  0  0  0  0  0  0  0  0  0
    9.0509   -6.2236   26.0372 H   0  0  0  0  0  0  0  0  0  0  0  0
   11.6029    0.6962   22.0317 H   0  0  0  0  0  0  0  0  0  0  0  0
   11.4403   -1.0329   21.8857 H   0  0  0  0  0  0  0  0  0  0  0  0
    9.5315    0.8594   23.3834 H   0  0  0  0  0  0  0  0  0  0  0  0
    8.0815   -1.6117   21.0754 H   0  0  0  0  0  0  0  0  0  0  0  0
  1  2  1  0  0  0  0
  1  7  2  0  0  0  0
  2  8  2  0  0  0  0
  3  4  2  0  0  0  0
  3 11  1  0  0  0  0
  4 14  1  0  0  0  0
  5  9  2  0  0  0  0
  5 13  1  0  0  0  0
  6 10  1  0  0  0  0
  6 13  2  0  0  0  0
  7 15  1  0  0  0  0
  8 16  1  0  0  0  0
  9 17  1  0  0  0  0
 10 17  2  0  0  0  0
 11 18  2  0  0  0  0
 12 14  2  0  0  0  0
 12 18  1  0  0  0  0
 13 26  1  0  0  0  0
 14 25  1  0  0  0  0
 15 16  2  0  0  0  0
 15 27  1  0  0  0  0
 16 29  1  0  0  0  0
 17 30  1  0  0  0  0
 18 34  1  0  0  0  0
 19 21  1  0  0  0  0
 19 30  1  0  0  0  0
 19 32  2  0  0  0  0
 20 26  1  6  0  0  0
 20 31  1  0  0  0  0
 20 33  2  0  0  0  0
 21 22  1  0  0  0  0
 22 23  1  0  0  0  0
 23 24  1  0  0  0  0
 24 30  1  0  0  0  0
 25 26  1  0  0  0  0
 27 28  2  0  0  0  0
 28 29  1  0  0  0  0
 29 31  1  0  0  0  0
  1 35  1  0  0  0  0
  2 36  1  0  0  0  0
  3 37  1  0  0  0  0
  4 38  1  0  0  0  0
  5 39  1  0  0  0  0
  6 40  1  0  0  0  0
  7 41  1  0  0  0  0
  8 42  1  0  0  0  0
  9 43  1  0  0  0  0
 10 44  1  0  0  0  0
 11 45  1  0  0  0  0
 12 46  1  0  0  0  0
 21 47  1  0  0  0  0
 21 48  1  0  0  0  0
 22 49  1  0  0  0  0
 22 50  1  0  0  0  0
 23 51  1  0  0  0  0
 23 52  1  0  0  0  0
 24 53  1  0  0  0  0
 24 54  1  0  0  0  0
 25 55  1  0  0  0  0
 25 56  1  0  0  0  0
 26 57  1  0  0  0  0
 31 58  1  0  0  0  0
M  END
> <clash_score>
0.6771712252894265

> <docking_score>
-5.9322943687438965

> <overlap_score>
0.9323006272315979

$$$$
BENZO_191_1
  -OEChem-08232013533D

 58 62  0     1  0  0  0  0  0999 V2000
    3.8860    2.1050   19.5250 C   0  0  0  0  0  0  0  0  0  0  0  0
    4.2460    1.7520   20.8250 C   0  0  0  0  0  0  0  0  0  0  0  0
    9.5890   -2.4950   23.2210 C   0  0  0  0  0  0  0  0  0  0  0  0
    8.2550   -1.0010   24.5520 C   0  0  0  0  0  0  0  0  0  0  0  0
    4.6610    1.7170   18.4380 C   0  0  0  0  0  0  0  0  0  0  0  0
    5.3890    1.0010   21.0690 C   0  0  0  0  0  0  0  0  0  0  0  0
    9.1890   -3.5540   24.0140 C   0  0  0  0  0  0  0  0  0  0  0  0
    7.8700   -2.0610   25.3550 C   0  0  0  0  0  0  0  0  0  0  0  0
   13.3911   -0.4374   24.0010 C   0  0  0  0  0  0  0  0  0  0  0  0
   11.4971   -0.4255   25.1180 C   0  0  0  0  0  0  0  0  0  0  0  0
    9.1280   -1.2090   23.4870 C   0  0  0  0  0  0  0  0  0  0  0  0
   11.9955   -0.3455   23.8406 C   0  0  0  0  0  0  0  0  0  0  0  0
    5.7970    0.9500   18.6730 C   0  0  0  0  0  0  0  0  0  0  0  0
    6.1460    0.6070   19.9750 C   0  0  0  0  0  0  0  0  0  0  0  0
    8.3450   -3.3440   25.0980 C   0  0  0  0  0  0  0  0  0  0  0  0
    8.2612   -4.4533   27.3232 C   0  0  0  0  0  0  0  0  0  0  0  0
    9.0430    0.2380   21.4940 C   0  0  0  0  0  0  0  0  0  0  0  0
    7.7639   -5.6979   28.0369 C   0  0  0  0  0  0  0  0  0  0  0  0
    6.3258   -5.9996   27.6538 C   0  0  0  0  0  0  0  0  0  0  0  0
    6.1385   -6.0983   26.1431 C   0  0  0  0  0  0  0  0  0  0  0  0
    7.3646   -5.6395   25.3553 C   0  0  0  0  0  0  0  0  0  0  0  0
   12.5625   -0.6754   27.3722 C   0  0  0  0  0  0  0  0  0  0  0  0
   11.2185   -0.1906   22.5545 C   0  0  0  0  0  0  0  0  0  0  0  0
    9.5820   -0.1080   22.7000 C   0  0  1  0  0  0  0  0  0  0  0  0
   13.7559   -0.5659   25.2794 N   0  0  0  0  0  0  0  0  0  0  0  0
    6.7100    0.3850   17.8100 N   0  0  0  0  0  0  0  0  0  0  0  0
    7.5840   -0.2700   18.5160 N   0  0  0  0  0  0  0  0  0  0  0  0
   12.5822   -0.5551   25.9341 N   0  0  0  0  0  0  0  0  0  0  0  0
    7.2710   -0.1460   19.8310 N   0  0  0  0  0  0  0  0  0  0  0  0
    7.9658   -4.4385   25.9450 N   0  0  0  0  0  0  0  0  0  0  0  0
    8.0950   -0.7700   20.8440 N   0  0  0  0  0  0  0  0  0  0  0  0
    8.9160   -3.6176   27.9452 O   0  0  0  0  0  0  0  0  0  0  0  0
    9.2950    1.3000   20.9480 O   0  0  0  0  0  0  0  0  0  0  0  0
    2.9846    2.6932   19.3610 H   0  0  0  0  0  0  0  0  0  0  0  0
    3.6235    2.0692   21.6570 H   0  0  0  0  0  0  0  0  0  0  0  0
   10.2695   -2.6718   22.3873 H   0  0  0  0  0  0  0  0  0  0  0  0
    7.8712   -0.0014   24.7587 H   0  0  0  0  0  0  0  0  0  0  0  0
    4.3785    2.0113   17.4257 H   0  0  0  0  0  0  0  0  0  0  0  0
    5.6763    0.7332   22.0915 H   0  0  0  0  0  0  0  0  0  0  0  0
    9.5431   -4.5618   23.7801 H   0  0  0  0  0  0  0  0  0  0  0  0
    7.1923   -1.8823   26.1912 H   0  0  0  0  0  0  0  0  0  0  0  0
   14.1595   -0.4155   23.2412 H   0  0  0  0  0  0  0  0  0  0  0  0
   10.4879   -0.4006   25.5063 H   0  0  0  0  0  0  0  0  0  0  0  0
    8.3914   -6.5295   27.7556 H   0  0  0  0  0  0  0  0  0  0  0  0
    7.8414   -5.5198   29.0990 H   0  0  0  0  0  0  0  0  0  0  0  0
    5.9977   -6.9465   28.1311 H   0  0  0  0  0  0  0  0  0  0  0  0
    5.6587   -5.2139   28.0619 H   0  0  0  0  0  0  0  0  0  0  0  0
    5.8986   -7.1470   25.8680 H   0  0  0  0  0  0  0  0  0  0  0  0
    5.2500   -5.5067   25.8324 H   0  0  0  0  0  0  0  0  0  0  0  0
    8.1195   -6.4201   25.3688 H   0  0  0  0  0  0  0  0  0  0  0  0
    7.0780   -5.4282   24.3307 H   0  0  0  0  0  0  0  0  0  0  0  0
   12.5000   -1.7381   27.6209 H   0  0  0  0  0  0  0  0  0  0  0  0
   13.4755   -0.2388   27.7866 H   0  0  0  0  0  0  0  0  0  0  0  0
   11.6966   -0.1374   27.7680 H   0  0  0  0  0  0  0  0  0  0  0  0
   11.6029    0.6962   22.0317 H   0  0  0  0  0  0  0  0  0  0  0  0
   11.4403   -1.0329   21.8857 H   0  0  0  0  0  0  0  0  0  0  0  0
    9.5315    0.8594   23.3834 H   0  0  0  0  0  0  0  0  0  0  0  0
    8.0815   -1.6117   21.0754 H   0  0  0  0  0  0  0  0  0  0  0  0
  1  2  1  0  0  0  0
  1  5  2  0  0  0  0
  2  6  2  0  0  0  0
  3  7  2  0  0  0  0
  3 11  1  0  0  0  0
  4  8  1  0  0  0  0
  4 11  2  0  0  0  0
  5 13  1  0  0  0  0
  6 14  1  0  0  0  0
  7 15  1  0  0  0  0
  8 15  2  0  0  0  0
  9 12  1  0  0  0  0
  9 25  2  0  0  0  0
 10 12  2  0  0  0  0
 10 28  1  0  0  0  0
 11 24  1  0  0  0  0
 12 23  1  0  0  0  0
 13 14  2  0  0  0  0
 13 26  1  0  0  0  0
 14 29  1  0  0  0  0
 15 30  1  0  0  0  0
 16 18  1  0  0  0  0
 16 30  1  0  0  0  0
 16 32  2  0  0  0  0
 17 24  1  0  0  0  0
 17 31  1  0  0  0  0
 17 33  2  0  0  0  0
 18 19  1  0  0  0  0
 19 20  1  0  0  0  0
 20 21  1  0  0  0  0
 21 30  1  0  0  0  0
 22 28  1  0  0  0  0
 23 24  1  1  0  0  0
 25 28  1  0  0  0  0
 26 27  2  0  0  0  0
 27 29  1  0  0  0  0
 29 31  1  0  0  0  0
  1 34  1  0  0  0  0
  2 35  1  0  0  0  0
  3 36  1  0  0  0  0
  4 37  1  0  0  0  0
  5 38  1  0  0  0  0
  6 39  1  0  0  0  0
  7 40  1  0  0  0  0
  8 41  1  0  0  0  0
  9 42  1  0  0  0  0
 10 43  1  0  0  0  0
 18 44  1  0  0  0  0
 18 45  1  0  0  0  0
 19 46  1  0  0  0  0
 19 47  1  0  0  0  0
 20 48  1  0  0  0  0
 20 49  1  0  0  0  0
 21 50  1  0  0  0  0
 21 51  1  0  0  0  0
 22 52  1  0  0  0  0
 22 53  1  0  0  0  0
 22 54  1  0  0  0  0
 23 55  1  0  0  0  0
 23 56  1  0  0  0  0
 24 57  1  0  0  0  0
 31 58  1  0  0  0  0
M  END
> <clash_score>
0.6225230947833892

> <docking_score>
-7.154598712921143

> <overlap_score>
0.9438189268112183

$$$$
BENZO_193_1
  -OEChem-08232013533D

 57 61  0     1  0  0  0  0  0999 V2000
   12.9530    0.9093   26.3886 C   0  0  0  0  0  0  0  0  0  0  0  0
   11.8191    1.6403   26.7429 C   0  0  0  0  0  0  0  0  0  0  0  0
   13.0192    0.2848   25.1431 C   0  0  0  0  0  0  0  0  0  0  0  0
    3.8860    2.1050   19.5250 C   0  0  0  0  0  0  0  0  0  0  0  0
    4.2460    1.7520   20.8250 C   0  0  0  0  0  0  0  0  0  0  0  0
   10.7513    1.7467   25.8517 C   0  0  0  0  0  0  0  0  0  0  0  0
   11.9515    0.3912   24.2519 C   0  0  0  0  0  0  0  0  0  0  0  0
    9.5890   -2.4950   23.2210 C   0  0  0  0  0  0  0  0  0  0  0  0
    8.2550   -1.0010   24.5520 C   0  0  0  0  0  0  0  0  0  0  0  0
    4.6610    1.7170   18.4380 C   0  0  0  0  0  0  0  0  0  0  0  0
    5.3890    1.0010   21.0690 C   0  0  0  0  0  0  0  0  0  0  0  0
    9.1890   -3.5540   24.0140 C   0  0  0  0  0  0  0  0  0  0  0  0
    7.8700   -2.0610   25.3550 C   0  0  0  0  0  0  0  0  0  0  0  0
   10.8175    1.1222   24.6062 C   0  0  0  0  0  0  0  0  0  0  0  0
    9.1280   -1.2090   23.4870 C   0  0  0  0  0  0  0  0  0  0  0  0
    5.7970    0.9500   18.6730 C   0  0  0  0  0  0  0  0  0  0  0  0
    6.1460    0.6070   19.9750 C   0  0  0  0  0  0  0  0  0  0  0  0
    8.3450   -3.3440   25.0980 C   0  0  0  0  0  0  0  0  0  0  0  0
    9.0430    0.2380   21.4940 C   0  0  0  0  0  0  0  0  0  0  0  0
    8.3252   -4.3381   27.3461 C   0  0  0  0  0  0  0  0  0  0  0  0
    7.8819   -5.7639   25.3670 C   0  0  0  0  0  0  0  0  0  0  0  0
    7.4311   -5.2808   28.1434 C   0  0  0  0  0  0  0  0  0  0  0  0
    7.0119   -6.6310   26.2702 C   0  0  0  0  0  0  0  0  0  0  0  0
    9.6614    1.2368   23.6407 C   0  0  0  0  0  0  0  0  0  0  0  0
    9.5820   -0.1080   22.7000 C   0  0  1  0  0  0  0  0  0  0  0  0
    6.7100    0.3850   17.8100 N   0  0  0  0  0  0  0  0  0  0  0  0
    7.5840   -0.2700   18.5160 N   0  0  0  0  0  0  0  0  0  0  0  0
    7.2710   -0.1460   19.8310 N   0  0  0  0  0  0  0  0  0  0  0  0
    7.9748   -4.4087   25.9209 N   0  0  0  0  0  0  0  0  0  0  0  0
    8.0950   -0.7700   20.8440 N   0  0  0  0  0  0  0  0  0  0  0  0
    9.2950    1.3000   20.9480 O   0  0  0  0  0  0  0  0  0  0  0  0
    7.5000   -6.6034   27.6110 O   0  0  0  0  0  0  0  0  0  0  0  0
   13.7849    0.8277   27.0821 H   0  0  0  0  0  0  0  0  0  0  0  0
   11.7678    2.1275   27.7122 H   0  0  0  0  0  0  0  0  0  0  0  0
   13.9023   -0.2834   24.8665 H   0  0  0  0  0  0  0  0  0  0  0  0
    2.9846    2.6932   19.3610 H   0  0  0  0  0  0  0  0  0  0  0  0
    3.6235    2.0692   21.6570 H   0  0  0  0  0  0  0  0  0  0  0  0
    9.8717    2.3181   26.1364 H   0  0  0  0  0  0  0  0  0  0  0  0
   12.0118   -0.0988   23.2837 H   0  0  0  0  0  0  0  0  0  0  0  0
   10.2684   -2.6719   22.3867 H   0  0  0  0  0  0  0  0  0  0  0  0
    7.8717   -0.0016   24.7596 H   0  0  0  0  0  0  0  0  0  0  0  0
    4.3785    2.0113   17.4257 H   0  0  0  0  0  0  0  0  0  0  0  0
    5.6763    0.7332   22.0915 H   0  0  0  0  0  0  0  0  0  0  0  0
    9.5443   -4.5616   23.7817 H   0  0  0  0  0  0  0  0  0  0  0  0
    7.1922   -1.8821   26.1908 H   0  0  0  0  0  0  0  0  0  0  0  0
    8.2083   -3.3157   27.7244 H   0  0  0  0  0  0  0  0  0  0  0  0
    9.3746   -4.6338   27.4718 H   0  0  0  0  0  0  0  0  0  0  0  0
    8.8893   -6.1956   25.3037 H   0  0  0  0  0  0  0  0  0  0  0  0
    7.4544   -5.7434   24.3576 H   0  0  0  0  0  0  0  0  0  0  0  0
    7.7715   -5.3226   29.1831 H   0  0  0  0  0  0  0  0  0  0  0  0
    6.3897   -4.9373   28.1518 H   0  0  0  0  0  0  0  0  0  0  0  0
    5.9637   -6.3086   26.2493 H   0  0  0  0  0  0  0  0  0  0  0  0
    7.0429   -7.6698   25.9261 H   0  0  0  0  0  0  0  0  0  0  0  0
    8.7512    1.4324   24.2245 H   0  0  0  0  0  0  0  0  0  0  0  0
    9.7926    2.1276   23.0121 H   0  0  0  0  0  0  0  0  0  0  0  0
   10.7449   -0.2552   22.5248 H   0  0  0  0  0  0  0  0  0  0  0  0
    8.0815   -1.6117   21.0754 H   0  0  0  0  0  0  0  0  0  0  0  0
  1  2  1  0  0  0  0
  1  3  2  0  0  0  0
  2  6  2  0  0  0  0
  3  7  1  0  0  0  0
  4  5  1  0  0  0  0
  4 10  2  0  0  0  0
  5 11  2  0  0  0  0
  6 14  1  0  0  0  0
  7 14  2  0  0  0  0
  8 12  2  0  0  0  0
  8 15  1  0  0  0  0
  9 13  1  0  0  0  0
  9 15  2  0  0  0  0
 10 16  1  0  0  0  0
 11 17  1  0  0  0  0
 12 18  1  0  0  0  0
 13 18  2  0  0  0  0
 14 24  1  0  0  0  0
 15 25  1  0  0  0  0
 16 17  2  0  0  0  0
 16 26  1  0  0  0  0
 17 28  1  0  0  0  0
 18 29  1  0  0  0  0
 19 25  1  1  0  0  0
 19 30  1  0  0  0  0
 19 31  2  0  0  0  0
 20 22  1  0  0  0  0
 20 29  1  0  0  0  0
 21 23  1  0  0  0  0
 21 29  1  0  0  0  0
 22 32  1  0  0  0  0
 23 32  1  0  0  0  0
 24 25  1  0  0  0  0
 26 27  2  0  0  0  0
 27 28  1  0  0  0  0
 28 30  1  0  0  0  0
  1 33  1  0  0  0  0
  2 34  1  0  0  0  0
  3 35  1  0  0  0  0
  4 36  1  0  0  0  0
  5 37  1  0  0  0  0
  6 38  1  0  0  0  0
  7 39  1  0  0  0  0
  8 40  1  0  0  0  0
  9 41  1  0  0  0  0
 10 42  1  0  0  0  0
 11 43  1  0  0  0  0
 12 44  1  0  0  0  0
 13 45  1  0  0  0  0
 20 46  1  0  0  0  0
 20 47  1  0  0  0  0
 21 48  1  0  0  0  0
 21 49  1  0  0  0  0
 22 50  1  0  0  0  0
 22 51  1  0  0  0  0
 23 52  1  0  0  0  0
 23 53  1  0  0  0  0
 24 54  1  0  0  0  0
 24 55  1  0  0  0  0
 25 56  1  0  0  0  0
 30 57  1  0  0  0  0
M  END
> <clash_score>
3.4515176716122156

> <docking_score>
-4.243640422821045

> <overlap_score>
0.8684496879577637

$$$$
BENZO_192_1
  -OEChem-08232013533D

 54 58  0     1  0  0  0  0  0999 V2000
    3.8860    2.1050   19.5250 C   0  0  0  0  0  0  0  0  0  0  0  0
    4.2460    1.7520   20.8250 C   0  0  0  0  0  0  0  0  0  0  0  0
    9.5890   -2.4950   23.2210 C   0  0  0  0  0  0  0  0  0  0  0  0
    8.2550   -1.0010   24.5520 C   0  0  0  0  0  0  0  0  0  0  0  0
    4.6610    1.7170   18.4380 C   0  0  0  0  0  0  0  0  0  0  0  0
    5.3890    1.0010   21.0690 C   0  0  0  0  0  0  0  0  0  0  0  0
    9.1890   -3.5540   24.0140 C   0  0  0  0  0  0  0  0  0  0  0  0
    7.8700   -2.0610   25.3550 C   0  0  0  0  0  0  0  0  0  0  0  0
   12.1623    0.8696   24.2090 C   0  0  0  0  0  0  0  0  0  0  0  0
   13.0182    0.8125   25.2869 C   0  0  0  0  0  0  0  0  0  0  0  0
   10.6967    1.2482   25.9727 C   0  0  0  0  0  0  0  0  0  0  0  0
    9.1280   -1.2090   23.4870 C   0  0  0  0  0  0  0  0  0  0  0  0
   10.8175    1.1222   24.6062 C   0  0  0  0  0  0  0  0  0  0  0  0
    5.7970    0.9500   18.6730 C   0  0  0  0  0  0  0  0  0  0  0  0
    6.1460    0.6070   19.9750 C   0  0  0  0  0  0  0  0  0  0  0  0
    8.3450   -3.3440   25.0980 C   0  0  0  0  0  0  0  0  0  0  0  0
    9.0430    0.2380   21.4940 C   0  0  0  0  0  0  0  0  0  0  0  0
    8.9526   -5.2008   26.6600 C   0  0  0  0  0  0  0  0  0  0  0  0
    6.6115   -4.5057   26.4392 C   0  0  0  0  0  0  0  0  0  0  0  0
    8.9053   -4.7827   28.1257 C   0  0  0  0  0  0  0  0  0  0  0  0
    6.6391   -4.1219   27.9194 C   0  0  0  0  0  0  0  0  0  0  0  0
    9.6614    1.2368   23.6407 C   0  0  0  0  0  0  0  0  0  0  0  0
    9.5820   -0.1080   22.7000 C   0  0  1  0  0  0  0  0  0  0  0  0
    6.7100    0.3850   17.8100 N   0  0  0  0  0  0  0  0  0  0  0  0
    7.5840   -0.2700   18.5160 N   0  0  0  0  0  0  0  0  0  0  0  0
    7.2710   -0.1460   19.8310 N   0  0  0  0  0  0  0  0  0  0  0  0
    7.9774   -4.4013   25.9152 N   0  0  0  0  0  0  0  0  0  0  0  0
    8.0950   -0.7700   20.8440 N   0  0  0  0  0  0  0  0  0  0  0  0
    9.2950    1.3000   20.9480 O   0  0  0  0  0  0  0  0  0  0  0  0
    7.5748   -4.9364   28.6347 O   0  0  0  0  0  0  0  0  0  0  0  0
   12.2005    1.0627   26.7705 S   0  0  0  0  0  0  0  0  0  0  0  0
    2.9846    2.6932   19.3610 H   0  0  0  0  0  0  0  0  0  0  0  0
    3.6235    2.0692   21.6570 H   0  0  0  0  0  0  0  0  0  0  0  0
   10.2684   -2.6719   22.3867 H   0  0  0  0  0  0  0  0  0  0  0  0
    7.8717   -0.0016   24.7596 H   0  0  0  0  0  0  0  0  0  0  0  0
    4.3785    2.0113   17.4257 H   0  0  0  0  0  0  0  0  0  0  0  0
    5.6763    0.7332   22.0915 H   0  0  0  0  0  0  0  0  0  0  0  0
    9.5443   -4.5616   23.7817 H   0  0  0  0  0  0  0  0  0  0  0  0
    7.1921   -1.8821   26.1908 H   0  0  0  0  0  0  0  0  0  0  0  0
   12.4897    0.7356   23.1857 H   0  0  0  0  0  0  0  0  0  0  0  0
   14.0843    0.6352   25.2743 H   0  0  0  0  0  0  0  0  0  0  0  0
    9.7992    1.4392   26.5447 H   0  0  0  0  0  0  0  0  0  0  0  0
    9.9614   -5.0503   26.2701 H   0  0  0  0  0  0  0  0  0  0  0  0
    8.6932   -6.2593   26.5731 H   0  0  0  0  0  0  0  0  0  0  0  0
    6.2625   -5.5339   26.3355 H   0  0  0  0  0  0  0  0  0  0  0  0
    5.9348   -3.8414   25.9036 H   0  0  0  0  0  0  0  0  0  0  0  0
    9.5615   -5.4255   28.7162 H   0  0  0  0  0  0  0  0  0  0  0  0
    9.2365   -3.7494   28.2620 H   0  0  0  0  0  0  0  0  0  0  0  0
    6.8895   -3.0633   28.0551 H   0  0  0  0  0  0  0  0  0  0  0  0
    5.6514   -4.2861   28.3610 H   0  0  0  0  0  0  0  0  0  0  0  0
    8.7512    1.4324   24.2245 H   0  0  0  0  0  0  0  0  0  0  0  0
    9.7926    2.1276   23.0121 H   0  0  0  0  0  0  0  0  0  0  0  0
   10.7449   -0.2552   22.5248 H   0  0  0  0  0  0  0  0  0  0  0  0
    8.0815   -1.6117   21.0754 H   0  0  0  0  0  0  0  0  0  0  0  0
  1  2  1  0  0  0  0
  1  5  2  0  0  0  0
  2  6  2  0  0  0  0
  3  7  2  0  0  0  0
  3 12  1  0  0  0  0
  4  8  1  0  0  0  0
  4 12  2  0  0  0  0
  5 14  1  0  0  0  0
  6 15  1  0  0  0  0
  7 16  1  0  0  0  0
  8 16  2  0  0  0  0
  9 10  2  0  0  0  0
  9 13  1  0  0  0  0
 10 31  1  0  0  0  0
 11 13  2  0  0  0  0
 11 31  1  0  0  0  0
 12 23  1  0  0  0  0
 13 22  1  0  0  0  0
 14 15  2  0  0  0  0
 14 24  1  0  0  0  0
 15 26  1  0  0  0  0
 16 27  1  0  0  0  0
 17 23  1  1  0  0  0
 17 28  1  0  0  0  0
 17 29  2  0  0  0  0
 18 20  1  0  0  0  0
 18 27  1  0  0  0  0
 19 21  1  0  0  0  0
 19 27  1  0  0  0  0
 20 30  1  0  0  0  0
 21 30  1  0  0  0  0
 22 23  1  0  0  0  0
 24 25  2  0  0  0  0
 25 26  1  0  0  0  0
 26 28  1  0  0  0  0
  1 32  1  0  0  0  0
  2 33  1  0  0  0  0
  3 34  1  0  0  0  0
  4 35  1  0  0  0  0
  5 36  1  0  0  0  0
  6 37  1  0  0  0  0
  7 38  1  0  0  0  0
  8 39  1  0  0  0  0
  9 40  1  0  0  0  0
 10 41  1  0  0  0  0
 11 42  1  0  0  0  0
 18 43  1  0  0  0  0
 18 44  1  0  0  0  0
 19 45  1  0  0  0  0
 19 46  1  0  0  0  0
 20 47  1  0  0  0  0
 20 48  1  0  0  0  0
 21 49  1  0  0  0  0
 21 50  1  0  0  0  0
 22 51  1  0  0  0  0
 22 52  1  0  0  0  0
 23 53  1  0  0  0  0
 28 54  1  0  0  0  0
M  END
> <clash_score>
1.3873464742468136

> <docking_score>
-5.38212251663208

> <overlap_score>
0.8554503321647644

$$$$
BENZO_193_2
  -OEChem-08232013533D

 57 61  0     1  0  0  0  0  0999 V2000
   13.4299   -0.6303   26.2164 C   0  0  0  0  0  0  0  0  0  0  0  0
   13.9318   -1.1656   25.0302 C   0  0  0  0  0  0  0  0  0  0  0  0
   12.2107    0.0475   26.2147 C   0  0  0  0  0  0  0  0  0  0  0  0
    3.8860    2.1050   19.5250 C   0  0  0  0  0  0  0  0  0  0  0  0
    4.2460    1.7520   20.8250 C   0  0  0  0  0  0  0  0  0  0  0  0
   13.2147   -1.0232   23.8423 C   0  0  0  0  0  0  0  0  0  0  0  0
   11.4935    0.1899   25.0268 C   0  0  0  0  0  0  0  0  0  0  0  0
    9.5890   -2.4950   23.2210 C   0  0  0  0  0  0  0  0  0  0  0  0
    8.2550   -1.0010   24.5520 C   0  0  0  0  0  0  0  0  0  0  0  0
    4.6610    1.7170   18.4380 C   0  0  0  0  0  0  0  0  0  0  0  0
    5.3890    1.0010   21.0690 C   0  0  0  0  0  0  0  0  0  0  0  0
    9.1890   -3.5540   24.0140 C   0  0  0  0  0  0  0  0  0  0  0  0
    7.8700   -2.0610   25.3550 C   0  0  0  0  0  0  0  0  0  0  0  0
   11.9955   -0.3454   23.8406 C   0  0  0  0  0  0  0  0  0  0  0  0
    9.1280   -1.2090   23.4870 C   0  0  0  0  0  0  0  0  0  0  0  0
    5.7970    0.9500   18.6730 C   0  0  0  0  0  0  0  0  0  0  0  0
    6.1460    0.6070   19.9750 C   0  0  0  0  0  0  0  0  0  0  0  0
    8.3450   -3.3440   25.0980 C   0  0  0  0  0  0  0  0  0  0  0  0
    9.0430    0.2380   21.4940 C   0  0  0  0  0  0  0  0  0  0  0  0
    8.9526   -5.2008   26.6600 C   0  0  0  0  0  0  0  0  0  0  0  0
    6.6115   -4.5057   26.4392 C   0  0  0  0  0  0  0  0  0  0  0  0
    8.9053   -4.7827   28.1257 C   0  0  0  0  0  0  0  0  0  0  0  0
    6.6391   -4.1219   27.9194 C   0  0  0  0  0  0  0  0  0  0  0  0
   11.2185   -0.1906   22.5545 C   0  0  0  0  0  0  0  0  0  0  0  0
    9.5820   -0.1080   22.7000 C   0  0  2  0  0  0  0  0  0  0  0  0
    6.7100    0.3850   17.8100 N   0  0  0  0  0  0  0  0  0  0  0  0
    7.5840   -0.2700   18.5160 N   0  0  0  0  0  0  0  0  0  0  0  0
    7.2710   -0.1460   19.8310 N   0  0  0  0  0  0  0  0  0  0  0  0
    7.9774   -4.4013   25.9152 N   0  0  0  0  0  0  0  0  0  0  0  0
    8.0950   -0.7700   20.8440 N   0  0  0  0  0  0  0  0  0  0  0  0
    9.2950    1.3000   20.9480 O   0  0  0  0  0  0  0  0  0  0  0  0
    7.5748   -4.9364   28.6347 O   0  0  0  0  0  0  0  0  0  0  0  0
   13.9877   -0.7424   27.1415 H   0  0  0  0  0  0  0  0  0  0  0  0
   14.8806   -1.6943   25.0316 H   0  0  0  0  0  0  0  0  0  0  0  0
   11.8190    0.4635   27.1382 H   0  0  0  0  0  0  0  0  0  0  0  0
    2.9846    2.6932   19.3610 H   0  0  0  0  0  0  0  0  0  0  0  0
    3.6235    2.0692   21.6570 H   0  0  0  0  0  0  0  0  0  0  0  0
   13.6137   -1.4434   22.9229 H   0  0  0  0  0  0  0  0  0  0  0  0
   10.5446    0.7196   25.0350 H   0  0  0  0  0  0  0  0  0  0  0  0
   10.2684   -2.6719   22.3867 H   0  0  0  0  0  0  0  0  0  0  0  0
    7.8717   -0.0016   24.7596 H   0  0  0  0  0  0  0  0  0  0  0  0
    4.3785    2.0113   17.4257 H   0  0  0  0  0  0  0  0  0  0  0  0
    5.6763    0.7332   22.0915 H   0  0  0  0  0  0  0  0  0  0  0  0
    9.5443   -4.5616   23.7817 H   0  0  0  0  0  0  0  0  0  0  0  0
    7.1921   -1.8821   26.1908 H   0  0  0  0  0  0  0  0  0  0  0  0
    9.9614   -5.0503   26.2701 H   0  0  0  0  0  0  0  0  0  0  0  0
    8.6932   -6.2593   26.5731 H   0  0  0  0  0  0  0  0  0  0  0  0
    6.2625   -5.5339   26.3355 H   0  0  0  0  0  0  0  0  0  0  0  0
    5.9348   -3.8414   25.9036 H   0  0  0  0  0  0  0  0  0  0  0  0
    9.5615   -5.4255   28.7162 H   0  0  0  0  0  0  0  0  0  0  0  0
    9.2365   -3.7494   28.2620 H   0  0  0  0  0  0  0  0  0  0  0  0
    6.8895   -3.0633   28.0551 H   0  0  0  0  0  0  0  0  0  0  0  0
    5.6514   -4.2861   28.3610 H   0  0  0  0  0  0  0  0  0  0  0  0
   11.6029    0.6963   22.0317 H   0  0  0  0  0  0  0  0  0  0  0  0
   11.4403   -1.0329   21.8857 H   0  0  0  0  0  0  0  0  0  0  0  0
    9.5315    0.8594   23.3833 H   0  0  0  0  0  0  0  0  0  0  0  0
    8.0815   -1.6117   21.0754 H   0  0  0  0  0  0  0  0  0  0  0  0
  1  2  1  0  0  0  0
  1  3  2  0  0  0  0
  2  6  2  0  0  0  0
  3  7  1  0  0  0  0
  4  5  1  0  0  0  0
  4 10  2  0  0  0  0
  5 11  2  0  0  0  0
  6 14  1  0  0  0  0
  7 14  2  0  0  0  0
  8 12  2  0  0  0  0
  8 15  1  0  0  0  0
  9 13  1  0  0  0  0
  9 15  2  0  0  0  0
 10 16  1  0  0  0  0
 11 17  1  0  0  0  0
 12 18  1  0  0  0  0
 13 18  2  0  0  0  0
 14 24  1  0  0  0  0
 15 25  1  0  0  0  0
 16 17  2  0  0  0  0
 16 26  1  0  0  0  0
 17 28  1  0  0  0  0
 18 29  1  0  0  0  0
 19 25  1  6  0  0  0
 19 30  1  0  0  0  0
 19 31  2  0  0  0  0
 20 22  1  0  0  0  0
 20 29  1  0  0  0  0
 21 23  1  0  0  0  0
 21 29  1  0  0  0  0
 22 32  1  0  0  0  0
 23 32  1  0  0  0  0
 24 25  1  0  0  0  0
 26 27  2  0  0  0  0
 27 28  1  0  0  0  0
 28 30  1  0  0  0  0
  1 33  1  0  0  0  0
  2 34  1  0  0  0  0
  3 35  1  0  0  0  0
  4 36  1  0  0  0  0
  5 37  1  0  0  0  0
  6 38  1  0  0  0  0
  7 39  1  0  0  0  0
  8 40  1  0  0  0  0
  9 41  1  0  0  0  0
 10 42  1  0  0  0  0
 11 43  1  0  0  0  0
 12 44  1  0  0  0  0
 13 45  1  0  0  0  0
 20 46  1  0  0  0  0
 20 47  1  0  0  0  0
 21 48  1  0  0  0  0
 21 49  1  0  0  0  0
 22 50  1  0  0  0  0
 22 51  1  0  0  0  0
 23 52  1  0  0  0  0
 23 53  1  0  0  0  0
 24 54  1  0  0  0  0
 24 55  1  0  0  0  0
 25 56  1  0  0  0  0
 30 57  1  0  0  0  0
M  END
> <clash_score>
0

> <docking_score>
-6.793542385101318

> <overlap_score>
0.932131826877594

$$$$
BENZO_192_2
  -OEChem-08232013533D

 54 58  0     1  0  0  0  0  0999 V2000
    3.8860    2.1050   19.5250 C   0  0  0  0  0  0  0  0  0  0  0  0
    4.2460    1.7520   20.8250 C   0  0  0  0  0  0  0  0  0  0  0  0
    9.5890   -2.4950   23.2210 C   0  0  0  0  0  0  0  0  0  0  0  0
    8.2550   -1.0010   24.5520 C   0  0  0  0  0  0  0  0  0  0  0  0
    4.6610    1.7170   18.4380 C   0  0  0  0  0  0  0  0  0  0  0  0
    5.3890    1.0010   21.0690 C   0  0  0  0  0  0  0  0  0  0  0  0
    9.1890   -3.5540   24.0140 C   0  0  0  0  0  0  0  0  0  0  0  0
    7.8700   -2.0610   25.3550 C   0  0  0  0  0  0  0  0  0  0  0  0
   13.1978   -1.1013   23.9565 C   0  0  0  0  0  0  0  0  0  0  0  0
   13.7015   -1.0790   25.2384 C   0  0  0  0  0  0  0  0  0  0  0  0
   11.6260    0.2256   25.0387 C   0  0  0  0  0  0  0  0  0  0  0  0
    9.1280   -1.2090   23.4870 C   0  0  0  0  0  0  0  0  0  0  0  0
   11.9955   -0.3454   23.8406 C   0  0  0  0  0  0  0  0  0  0  0  0
    5.7970    0.9500   18.6730 C   0  0  0  0  0  0  0  0  0  0  0  0
    6.1460    0.6070   19.9750 C   0  0  0  0  0  0  0  0  0  0  0  0
    8.3450   -3.3440   25.0980 C   0  0  0  0  0  0  0  0  0  0  0  0
    9.0430    0.2380   21.4940 C   0  0  0  0  0  0  0  0  0  0  0  0
    8.9526   -5.2008   26.6600 C   0  0  0  0  0  0  0  0  0  0  0  0
    6.6115   -4.5057   26.4392 C   0  0  0  0  0  0  0  0  0  0  0  0
    8.9053   -4.7827   28.1257 C   0  0  0  0  0  0  0  0  0  0  0  0
    6.6391   -4.1219   27.9194 C   0  0  0  0  0  0  0  0  0  0  0  0
   11.2185   -0.1906   22.5545 C   0  0  0  0  0  0  0  0  0  0  0  0
    9.5820   -0.1080   22.7000 C   0  0  2  0  0  0  0  0  0  0  0  0
    6.7100    0.3850   17.8100 N   0  0  0  0  0  0  0  0  0  0  0  0
    7.5840   -0.2700   18.5160 N   0  0  0  0  0  0  0  0  0  0  0  0
    7.2710   -0.1460   19.8310 N   0  0  0  0  0  0  0  0  0  0  0  0
    7.9774   -4.4013   25.9152 N   0  0  0  0  0  0  0  0  0  0  0  0
    8.0950   -0.7700   20.8440 N   0  0  0  0  0  0  0  0  0  0  0  0
    9.2950    1.3000   20.9480 O   0  0  0  0  0  0  0  0  0  0  0  0
    7.5748   -4.9364   28.6347 O   0  0  0  0  0  0  0  0  0  0  0  0
   12.7264   -0.1498   26.2958 S   0  0  0  0  0  0  0  0  0  0  0  0
    2.9846    2.6932   19.3610 H   0  0  0  0  0  0  0  0  0  0  0  0
    3.6235    2.0692   21.6570 H   0  0  0  0  0  0  0  0  0  0  0  0
   10.2684   -2.6719   22.3867 H   0  0  0  0  0  0  0  0  0  0  0  0
    7.8717   -0.0016   24.7596 H   0  0  0  0  0  0  0  0  0  0  0  0
    4.3785    2.0113   17.4257 H   0  0  0  0  0  0  0  0  0  0  0  0
    5.6763    0.7332   22.0915 H   0  0  0  0  0  0  0  0  0  0  0  0
    9.5443   -4.5616   23.7817 H   0  0  0  0  0  0  0  0  0  0  0  0
    7.1921   -1.8821   26.1908 H   0  0  0  0  0  0  0  0  0  0  0  0
   13.6723   -1.6361   23.1435 H   0  0  0  0  0  0  0  0  0  0  0  0
   14.5949   -1.5645   25.6049 H   0  0  0  0  0  0  0  0  0  0  0  0
   10.7629    0.8448   25.2404 H   0  0  0  0  0  0  0  0  0  0  0  0
    9.9614   -5.0503   26.2701 H   0  0  0  0  0  0  0  0  0  0  0  0
    8.6932   -6.2593   26.5731 H   0  0  0  0  0  0  0  0  0  0  0  0
    6.2625   -5.5339   26.3355 H   0  0  0  0  0  0  0  0  0  0  0  0
    5.9348   -3.8414   25.9036 H   0  0  0  0  0  0  0  0  0  0  0  0
    9.5615   -5.4255   28.7162 H   0  0  0  0  0  0  0  0  0  0  0  0
    9.2365   -3.7494   28.2620 H   0  0  0  0  0  0  0  0  0  0  0  0
    6.8895   -3.0633   28.0551 H   0  0  0  0  0  0  0  0  0  0  0  0
    5.6514   -4.2861   28.3610 H   0  0  0  0  0  0  0  0  0  0  0  0
   11.6029    0.6963   22.0317 H   0  0  0  0  0  0  0  0  0  0  0  0
   11.4403   -1.0329   21.8857 H   0  0  0  0  0  0  0  0  0  0  0  0
    9.5315    0.8594   23.3833 H   0  0  0  0  0  0  0  0  0  0  0  0
    8.0815   -1.6117   21.0754 H   0  0  0  0  0  0  0  0  0  0  0  0
  1  2  1  0  0  0  0
  1  5  2  0  0  0  0
  2  6  2  0  0  0  0
  3  7  2  0  0  0  0
  3 12  1  0  0  0  0
  4  8  1  0  0  0  0
  4 12  2  0  0  0  0
  5 14  1  0  0  0  0
  6 15  1  0  0  0  0
  7 16  1  0  0  0  0
  8 16  2  0  0  0  0
  9 10  2  0  0  0  0
  9 13  1  0  0  0  0
 10 31  1  0  0  0  0
 11 13  2  0  0  0  0
 11 31  1  0  0  0  0
 12 23  1  0  0  0  0
 13 22  1  0  0  0  0
 14 15  2  0  0  0  0
 14 24  1  0  0  0  0
 15 26  1  0  0  0  0
 16 27  1  0  0  0  0
 17 23  1  6  0  0  0
 17 28  1  0  0  0  0
 17 29  2  0  0  0  0
 18 20  1  0  0  0  0
 18 27  1  0  0  0  0
 19 21  1  0  0  0  0
 19 27  1  0  0  0  0
 20 30  1  0  0  0  0
 21 30  1  0  0  0  0
 22 23  1  0  0  0  0
 24 25  2  0  0  0  0
 25 26  1  0  0  0  0
 26 28  1  0  0  0  0
  1 32  1  0  0  0  0
  2 33  1  0  0  0  0
  3 34  1  0  0  0  0
  4 35  1  0  0  0  0
  5 36  1  0  0  0  0
  6 37  1  0  0  0  0
  7 38  1  0  0  0  0
  8 39  1  0  0  0  0
  9 40  1  0  0  0  0
 10 41  1  0  0  0  0
 11 42  1  0  0  0  0
 18 43  1  0  0  0  0
 18 44  1  0  0  0  0
 19 45  1  0  0  0  0
 19 46  1  0  0  0  0
 20 47  1  0  0  0  0
 20 48  1  0  0  0  0
 21 49  1  0  0  0  0
 21 50  1  0  0  0  0
 22 51  1  0  0  0  0
 22 52  1  0  0  0  0
 23 53  1  0  0  0  0
 28 54  1  0  0  0  0
M  END
> <clash_score>
0

> <docking_score>
-7.13889217376709

> <overlap_score>
0.9274774193763733

$$$$
BENZO_194_1
  -OEChem-08232013533D

 57 61  0     1  0  0  0  0  0999 V2000
    3.8860    2.1050   19.5250 C   0  0  0  0  0  0  0  0  0  0  0  0
    4.2460    1.7520   20.8250 C   0  0  0  0  0  0  0  0  0  0  0  0
   10.9030    1.3542   27.2299 C   0  0  0  0  0  0  0  0  0  0  0  0
   10.1700    1.6248   26.0745 C   0  0  0  0  0  0  0  0  0  0  0  0
    9.5890   -2.4950   23.2210 C   0  0  0  0  0  0  0  0  0  0  0  0
    8.2550   -1.0010   24.5520 C   0  0  0  0  0  0  0  0  0  0  0  0
    4.6610    1.7170   18.4380 C   0  0  0  0  0  0  0  0  0  0  0  0
    5.3890    1.0010   21.0690 C   0  0  0  0  0  0  0  0  0  0  0  0
    9.1890   -3.5540   24.0140 C   0  0  0  0  0  0  0  0  0  0  0  0
    7.8700   -2.0610   25.3550 C   0  0  0  0  0  0  0  0  0  0  0  0
   11.9228    0.4029   27.2021 C   0  0  0  0  0  0  0  0  0  0  0  0
   11.4763   -0.0073   24.8634 C   0  0  0  0  0  0  0  0  0  0  0  0
    9.1280   -1.2090   23.4870 C   0  0  0  0  0  0  0  0  0  0  0  0
   10.4565    0.9440   24.8913 C   0  0  0  0  0  0  0  0  0  0  0  0
    5.7970    0.9500   18.6730 C   0  0  0  0  0  0  0  0  0  0  0  0
    6.1460    0.6070   19.9750 C   0  0  0  0  0  0  0  0  0  0  0  0
    8.3450   -3.3440   25.0980 C   0  0  0  0  0  0  0  0  0  0  0  0
   12.2094   -0.2779   26.0188 C   0  0  0  0  0  0  0  0  0  0  0  0
    9.0430    0.2380   21.4940 C   0  0  0  0  0  0  0  0  0  0  0  0
    8.9526   -5.2008   26.6600 C   0  0  0  0  0  0  0  0  0  0  0  0
    6.6115   -4.5057   26.4392 C   0  0  0  0  0  0  0  0  0  0  0  0
    8.9053   -4.7827   28.1257 C   0  0  0  0  0  0  0  0  0  0  0  0
    6.6391   -4.1219   27.9194 C   0  0  0  0  0  0  0  0  0  0  0  0
    9.6614    1.2368   23.6407 C   0  0  0  0  0  0  0  0  0  0  0  0
    9.5820   -0.1080   22.7000 C   0  0  1  0  0  0  0  0  0  0  0  0
    6.7100    0.3850   17.8100 N   0  0  0  0  0  0  0  0  0  0  0  0
    7.5840   -0.2700   18.5160 N   0  0  0  0  0  0  0  0  0  0  0  0
    7.2710   -0.1460   19.8310 N   0  0  0  0  0  0  0  0  0  0  0  0
    7.9774   -4.4013   25.9152 N   0  0  0  0  0  0  0  0  0  0  0  0
    8.0950   -0.7700   20.8440 N   0  0  0  0  0  0  0  0  0  0  0  0
    9.2950    1.3000   20.9480 O   0  0  0  0  0  0  0  0  0  0  0  0
    7.5748   -4.9364   28.6347 O   0  0  0  0  0  0  0  0  0  0  0  0
   13.4669   -1.4524   25.9854 Cl  0  0  0  0  0  0  0  0  0  0  0  0
    2.9846    2.6932   19.3610 H   0  0  0  0  0  0  0  0  0  0  0  0
    3.6235    2.0692   21.6570 H   0  0  0  0  0  0  0  0  0  0  0  0
   10.6795    1.8844   28.1511 H   0  0  0  0  0  0  0  0  0  0  0  0
    9.3771    2.3676   26.1054 H   0  0  0  0  0  0  0  0  0  0  0  0
   10.2684   -2.6719   22.3867 H   0  0  0  0  0  0  0  0  0  0  0  0
    7.8717   -0.0016   24.7596 H   0  0  0  0  0  0  0  0  0  0  0  0
    4.3785    2.0113   17.4257 H   0  0  0  0  0  0  0  0  0  0  0  0
    5.6763    0.7332   22.0915 H   0  0  0  0  0  0  0  0  0  0  0  0
    9.5443   -4.5616   23.7817 H   0  0  0  0  0  0  0  0  0  0  0  0
    7.1921   -1.8821   26.1908 H   0  0  0  0  0  0  0  0  0  0  0  0
   12.4858    0.2020   28.1103 H   0  0  0  0  0  0  0  0  0  0  0  0
   11.6962   -0.5350   23.9382 H   0  0  0  0  0  0  0  0  0  0  0  0
    9.9614   -5.0503   26.2701 H   0  0  0  0  0  0  0  0  0  0  0  0
    8.6932   -6.2593   26.5731 H   0  0  0  0  0  0  0  0  0  0  0  0
    6.2625   -5.5339   26.3355 H   0  0  0  0  0  0  0  0  0  0  0  0
    5.9348   -3.8414   25.9036 H   0  0  0  0  0  0  0  0  0  0  0  0
    9.5615   -5.4255   28.7162 H   0  0  0  0  0  0  0  0  0  0  0  0
    9.2365   -3.7494   28.2620 H   0  0  0  0  0  0  0  0  0  0  0  0
    6.8895   -3.0633   28.0551 H   0  0  0  0  0  0  0  0  0  0  0  0
    5.6514   -4.2861   28.3610 H   0  0  0  0  0  0  0  0  0  0  0  0
    8.6823    1.6307   23.9469 H   0  0  0  0  0  0  0  0  0  0  0  0
   10.1361    2.0563   23.0849 H   0  0  0  0  0  0  0  0  0  0  0  0
   10.7449   -0.2552   22.5248 H   0  0  0  0  0  0  0  0  0  0  0  0
    8.0815   -1.6117   21.0754 H   0  0  0  0  0  0  0  0  0  0  0  0
  1  2  1  0  0  0  0
  1  7  2  0  0  0  0
  2  8  2  0  0  0  0
  3  4  2  0  0  0  0
  3 11  1  0  0  0  0
  4 14  1  0  0  0  0
  5  9  2  0  0  0  0
  5 13  1  0  0  0  0
  6 10  1  0  0  0  0
  6 13  2  0  0  0  0
  7 15  1  0  0  0  0
  8 16  1  0  0  0  0
  9 17  1  0  0  0  0
 10 17  2  0  0  0  0
 11 18  2  0  0  0  0
 12 14  2  0  0  0  0
 12 18  1  0  0  0  0
 13 25  1  0  0  0  0
 14 24  1  0  0  0  0
 15 16  2  0  0  0  0
 15 26  1  0  0  0  0
 16 28  1  0  0  0  0
 17 29  1  0  0  0  0
 18 33  1  0  0  0  0
 19 25  1  1  0  0  0
 19 30  1  0  0  0  0
 19 31  2  0  0  0  0
 20 22  1  0  0  0  0
 20 29  1  0  0  0  0
 21 23  1  0  0  0  0
 21 29  1  0  0  0  0
 22 32  1  0  0  0  0
 23 32  1  0  0  0  0
 24 25  1  0  0  0  0
 26 27  2  0  0  0  0
 27 28  1  0  0  0  0
 28 30  1  0  0  0  0
  1 34  1  0  0  0  0
  2 35  1  0  0  0  0
  3 36  1  0  0  0  0
  4 37  1  0  0  0  0
  5 38  1  0  0  0  0
  6 39  1  0  0  0  0
  7 40  1  0  0  0  0
  8 41  1  0  0  0  0
  9 42  1  0  0  0  0
 10 43  1  0  0  0  0
 11 44  1  0  0  0  0
 12 45  1  0  0  0  0
 20 46  1  0  0  0  0
 20 47  1  0  0  0  0
 21 48  1  0  0  0  0
 21 49  1  0  0  0  0
 22 50  1  0  0  0  0
 22 51  1  0  0  0  0
 23 52  1  0  0  0  0
 23 53  1  0  0  0  0
 24 54  1  0  0  0  0
 24 55  1  0  0  0  0
 25 56  1  0  0  0  0
 30 57  1  0  0  0  0
M  END
> <clash_score>
2.3274979316341153

> <docking_score>
-4.034363746643066

> <overlap_score>
0.8464049696922302

$$$$
BENZO_197_1
  -OEChem-08232013533D

 53 56  0     1  0  0  0  0  0999 V2000
   13.4143   -0.6944   26.2251 C   0  0  0  0  0  0  0  0  0  0  0  0
   13.9152   -1.2211   25.0346 C   0  0  0  0  0  0  0  0  0  0  0  0
   12.2000   -0.0079   26.2276 C   0  0  0  0  0  0  0  0  0  0  0  0
    3.8860    2.1050   19.5250 C   0  0  0  0  0  0  0  0  0  0  0  0
    4.2460    1.7520   20.8250 C   0  0  0  0  0  0  0  0  0  0  0  0
   13.2019   -1.0613   23.8466 C   0  0  0  0  0  0  0  0  0  0  0  0
   11.4867    0.1519   25.0397 C   0  0  0  0  0  0  0  0  0  0  0  0
    9.5890   -2.4950   23.2210 C   0  0  0  0  0  0  0  0  0  0  0  0
    8.2550   -1.0010   24.5520 C   0  0  0  0  0  0  0  0  0  0  0  0
    4.6610    1.7170   18.4380 C   0  0  0  0  0  0  0  0  0  0  0  0
    5.3890    1.0010   21.0690 C   0  0  0  0  0  0  0  0  0  0  0  0
    9.1890   -3.5540   24.0140 C   0  0  0  0  0  0  0  0  0  0  0  0
    7.8700   -2.0610   25.3550 C   0  0  0  0  0  0  0  0  0  0  0  0
    7.5840   -0.2700   18.5160 C   0  0  0  0  0  0  0  0  0  0  0  0
   11.9876   -0.3748   23.8491 C   0  0  0  0  0  0  0  0  0  0  0  0
    9.1280   -1.2090   23.4870 C   0  0  0  0  0  0  0  0  0  0  0  0
    5.7970    0.9500   18.6730 C   0  0  0  0  0  0  0  0  0  0  0  0
    6.1460    0.6070   19.9750 C   0  0  0  0  0  0  0  0  0  0  0  0
    8.3450   -3.3440   25.0980 C   0  0  0  0  0  0  0  0  0  0  0  0
    9.0430    0.2380   21.4940 C   0  0  0  0  0  0  0  0  0  0  0  0
    7.2615   -5.5559   25.3795 C   0  0  0  0  0  0  0  0  0  0  0  0
    8.3042   -4.4055   27.3386 C   0  0  0  0  0  0  0  0  0  0  0  0
   11.2147   -0.2012   22.5629 C   0  0  0  0  0  0  0  0  0  0  0  0
    9.5820   -0.1080   22.7000 C   0  0  1  0  0  0  0  0  0  0  0  0
    6.7100    0.3850   17.8100 N   0  0  0  0  0  0  0  0  0  0  0  0
    7.2710   -0.1460   19.8310 N   0  0  0  0  0  0  0  0  0  0  0  0
    8.0950   -0.7700   20.8440 N   0  0  0  0  0  0  0  0  0  0  0  0
    7.9717   -4.4175   25.9277 N   0  0  0  0  0  0  0  0  0  0  0  0
    9.2950    1.3000   20.9480 O   0  0  0  0  0  0  0  0  0  0  0  0
   13.9692   -0.8201   27.1503 H   0  0  0  0  0  0  0  0  0  0  0  0
   14.8601   -1.7566   25.0326 H   0  0  0  0  0  0  0  0  0  0  0  0
   11.8092    0.4013   27.1545 H   0  0  0  0  0  0  0  0  0  0  0  0
    2.9844    2.6927   19.3613 H   0  0  0  0  0  0  0  0  0  0  0  0
    3.6214    2.0680   21.6561 H   0  0  0  0  0  0  0  0  0  0  0  0
   13.6000   -1.4749   22.9238 H   0  0  0  0  0  0  0  0  0  0  0  0
   10.5416    0.6883   25.0512 H   0  0  0  0  0  0  0  0  0  0  0  0
   10.2684   -2.6719   22.3867 H   0  0  0  0  0  0  0  0  0  0  0  0
    7.8717   -0.0016   24.7596 H   0  0  0  0  0  0  0  0  0  0  0  0
    4.3780    2.0103   17.4276 H   0  0  0  0  0  0  0  0  0  0  0  0
    5.6758    0.7336   22.0897 H   0  0  0  0  0  0  0  0  0  0  0  0
    9.5443   -4.5616   23.7817 H   0  0  0  0  0  0  0  0  0  0  0  0
    7.1921   -1.8821   26.1908 H   0  0  0  0  0  0  0  0  0  0  0  0
    8.4213   -0.8245   18.1548 H   0  0  0  0  0  0  0  0  0  0  0  0
    7.0604   -6.2833   26.1797 H   0  0  0  0  0  0  0  0  0  0  0  0
    6.3097   -5.2186   24.9432 H   0  0  0  0  0  0  0  0  0  0  0  0
    7.8751   -6.0296   24.5991 H   0  0  0  0  0  0  0  0  0  0  0  0
    7.9292   -5.3249   27.8120 H   0  0  0  0  0  0  0  0  0  0  0  0
    9.3964   -4.3513   27.4573 H   0  0  0  0  0  0  0  0  0  0  0  0
    7.8395   -3.5309   27.8172 H   0  0  0  0  0  0  0  0  0  0  0  0
   11.6025    0.6918   22.0532 H   0  0  0  0  0  0  0  0  0  0  0  0
   11.4368   -1.0349   21.8836 H   0  0  0  0  0  0  0  0  0  0  0  0
    9.5277    0.8495   23.3908 H   0  0  0  0  0  0  0  0  0  0  0  0
    8.1074   -1.6160   21.1028 H   0  0  0  0  0  0  0  0  0  0  0  0
  1  2  1  0  0  0  0
  1  3  2  0  0  0  0
  2  6  2  0  0  0  0
  3  7  1  0  0  0  0
  4  5  1  0  0  0  0
  4 10  2  0  0  0  0
  5 11  2  0  0  0  0
  6 15  1  0  0  0  0
  7 15  2  0  0  0  0
  8 12  2  0  0  0  0
  8 16  1  0  0  0  0
  9 13  1  0  0  0  0
  9 16  2  0  0  0  0
 10 17  1  0  0  0  0
 11 18  1  0  0  0  0
 12 19  1  0  0  0  0
 13 19  2  0  0  0  0
 14 25  2  0  0  0  0
 14 26  1  0  0  0  0
 15 23  1  0  0  0  0
 16 24  1  0  0  0  0
 17 18  2  0  0  0  0
 17 25  1  0  0  0  0
 18 26  1  0  0  0  0
 19 28  1  0  0  0  0
 20 24  1  0  0  0  0
 20 27  1  0  0  0  0
 20 29  2  0  0  0  0
 21 28  1  0  0  0  0
 22 28  1  0  0  0  0
 23 24  1  1  0  0  0
 26 27  1  0  0  0  0
  1 30  1  0  0  0  0
  2 31  1  0  0  0  0
  3 32  1  0  0  0  0
  4 33  1  0  0  0  0
  5 34  1  0  0  0  0
  6 35  1  0  0  0  0
  7 36  1  0  0  0  0
  8 37  1  0  0  0  0
  9 38  1  0  0  0  0
 10 39  1  0  0  0  0
 11 40  1  0  0  0  0
 12 41  1  0  0  0  0
 13 42  1  0  0  0  0
 14 43  1  0  0  0  0
 21 44  1  0  0  0  0
 21 45  1  0  0  0  0
 21 46  1  0  0  0  0
 22 47  1  0  0  0  0
 22 48  1  0  0  0  0
 22 49  1  0  0  0  0
 23 50  1  0  0  0  0
 23 51  1  0  0  0  0
 24 52  1  0  0  0  0
 27 53  1  0  0  0  0
M  END
> <clash_score>
0

> <docking_score>
-6.335305213928223

> <overlap_score>
0.8838329315185547

$$$$
BENZO_197_2
  -OEChem-08232013533D

 53 56  0     1  0  0  0  0  0999 V2000
   12.9183    0.8914   26.4488 C   0  0  0  0  0  0  0  0  0  0  0  0
   11.7786    1.6200   26.7891 C   0  0  0  0  0  0  0  0  0  0  0  0
   13.0029    0.2705   25.2025 C   0  0  0  0  0  0  0  0  0  0  0  0
    3.8860    2.1050   19.5250 C   0  0  0  0  0  0  0  0  0  0  0  0
    4.2460    1.7520   20.8250 C   0  0  0  0  0  0  0  0  0  0  0  0
   10.7234    1.7276   25.8832 C   0  0  0  0  0  0  0  0  0  0  0  0
   11.9477    0.3781   24.2967 C   0  0  0  0  0  0  0  0  0  0  0  0
    9.5890   -2.4950   23.2210 C   0  0  0  0  0  0  0  0  0  0  0  0
    8.2550   -1.0010   24.5520 C   0  0  0  0  0  0  0  0  0  0  0  0
    4.6610    1.7170   18.4380 C   0  0  0  0  0  0  0  0  0  0  0  0
    5.3890    1.0010   21.0690 C   0  0  0  0  0  0  0  0  0  0  0  0
    9.1890   -3.5540   24.0140 C   0  0  0  0  0  0  0  0  0  0  0  0
    7.8700   -2.0610   25.3550 C   0  0  0  0  0  0  0  0  0  0  0  0
    7.5840   -0.2700   18.5160 C   0  0  0  0  0  0  0  0  0  0  0  0
   10.8079    1.1067   24.6370 C   0  0  0  0  0  0  0  0  0  0  0  0
    9.1280   -1.2090   23.4870 C   0  0  0  0  0  0  0  0  0  0  0  0
    5.7970    0.9500   18.6730 C   0  0  0  0  0  0  0  0  0  0  0  0
    6.1460    0.6070   19.9750 C   0  0  0  0  0  0  0  0  0  0  0  0
    8.3450   -3.3440   25.0980 C   0  0  0  0  0  0  0  0  0  0  0  0
    9.0430    0.2380   21.4940 C   0  0  0  0  0  0  0  0  0  0  0  0
    8.4628   -5.7551   25.6621 C   0  0  0  0  0  0  0  0  0  0  0  0
    7.1023   -4.1978   27.0666 C   0  0  0  0  0  0  0  0  0  0  0  0
    9.6654    1.2227   23.6555 C   0  0  0  0  0  0  0  0  0  0  0  0
    9.5820   -0.1080   22.7000 C   0  0  2  0  0  0  0  0  0  0  0  0
    6.7100    0.3850   17.8100 N   0  0  0  0  0  0  0  0  0  0  0  0
    7.2710   -0.1460   19.8310 N   0  0  0  0  0  0  0  0  0  0  0  0
    8.0950   -0.7700   20.8440 N   0  0  0  0  0  0  0  0  0  0  0  0
    7.9717   -4.4175   25.9277 N   0  0  0  0  0  0  0  0  0  0  0  0
    9.2950    1.3000   20.9480 O   0  0  0  0  0  0  0  0  0  0  0  0
   13.7404    0.8088   27.1537 H   0  0  0  0  0  0  0  0  0  0  0  0
   11.7130    2.1044   27.7589 H   0  0  0  0  0  0  0  0  0  0  0  0
   13.8905   -0.2959   24.9369 H   0  0  0  0  0  0  0  0  0  0  0  0
    2.9844    2.6927   19.3613 H   0  0  0  0  0  0  0  0  0  0  0  0
    3.6214    2.0680   21.6561 H   0  0  0  0  0  0  0  0  0  0  0  0
    9.8391    2.2972   26.1570 H   0  0  0  0  0  0  0  0  0  0  0  0
   12.0224   -0.1091   23.3281 H   0  0  0  0  0  0  0  0  0  0  0  0
   10.2684   -2.6719   22.3867 H   0  0  0  0  0  0  0  0  0  0  0  0
    7.8717   -0.0016   24.7596 H   0  0  0  0  0  0  0  0  0  0  0  0
    4.3780    2.0103   17.4276 H   0  0  0  0  0  0  0  0  0  0  0  0
    5.6758    0.7336   22.0897 H   0  0  0  0  0  0  0  0  0  0  0  0
    9.5443   -4.5616   23.7817 H   0  0  0  0  0  0  0  0  0  0  0  0
    7.1921   -1.8821   26.1908 H   0  0  0  0  0  0  0  0  0  0  0  0
    8.4213   -0.8245   18.1548 H   0  0  0  0  0  0  0  0  0  0  0  0
    8.0618   -6.4497   26.4150 H   0  0  0  0  0  0  0  0  0  0  0  0
    8.1377   -6.0727   24.6604 H   0  0  0  0  0  0  0  0  0  0  0  0
    9.5618   -5.7582   25.7091 H   0  0  0  0  0  0  0  0  0  0  0  0
    6.9283   -5.1522   27.5852 H   0  0  0  0  0  0  0  0  0  0  0  0
    7.5769   -3.4861   27.7581 H   0  0  0  0  0  0  0  0  0  0  0  0
    6.1418   -3.7881   26.7208 H   0  0  0  0  0  0  0  0  0  0  0  0
    8.7459    1.4099   24.2274 H   0  0  0  0  0  0  0  0  0  0  0  0
    9.8015    2.1185   23.0351 H   0  0  0  0  0  0  0  0  0  0  0  0
   10.7408   -0.2662   22.5300 H   0  0  0  0  0  0  0  0  0  0  0  0
    8.1074   -1.6160   21.1028 H   0  0  0  0  0  0  0  0  0  0  0  0
  1  2  1  0  0  0  0
  1  3  2  0  0  0  0
  2  6  2  0  0  0  0
  3  7  1  0  0  0  0
  4  5  1  0  0  0  0
  4 10  2  0  0  0  0
  5 11  2  0  0  0  0
  6 15  1  0  0  0  0
  7 15  2  0  0  0  0
  8 12  2  0  0  0  0
  8 16  1  0  0  0  0
  9 13  1  0  0  0  0
  9 16  2  0  0  0  0
 10 17  1  0  0  0  0
 11 18  1  0  0  0  0
 12 19  1  0  0  0  0
 13 19  2  0  0  0  0
 14 25  2  0  0  0  0
 14 26  1  0  0  0  0
 15 23  1  0  0  0  0
 16 24  1  0  0  0  0
 17 18  2  0  0  0  0
 17 25  1  0  0  0  0
 18 26  1  0  0  0  0
 19 28  1  0  0  0  0
 20 24  1  0  0  0  0
 20 27  1  0  0  0  0
 20 29  2  0  0  0  0
 21 28  1  0  0  0  0
 22 28  1  0  0  0  0
 23 24  1  6  0  0  0
 26 27  1  0  0  0  0
  1 30  1  0  0  0  0
  2 31  1  0  0  0  0
  3 32  1  0  0  0  0
  4 33  1  0  0  0  0
  5 34  1  0  0  0  0
  6 35  1  0  0  0  0
  7 36  1  0  0  0  0
  8 37  1  0  0  0  0
  9 38  1  0  0  0  0
 10 39  1  0  0  0  0
 11 40  1  0  0  0  0
 12 41  1  0  0  0  0
 13 42  1  0  0  0  0
 14 43  1  0  0  0  0
 21 44  1  0  0  0  0
 21 45  1  0  0  0  0
 21 46  1  0  0  0  0
 22 47  1  0  0  0  0
 22 48  1  0  0  0  0
 22 49  1  0  0  0  0
 23 50  1  0  0  0  0
 23 51  1  0  0  0  0
 24 52  1  0  0  0  0
 27 53  1  0  0  0  0
M  END
> <clash_score>
4.084377930952702

> <docking_score>
-4.574591159820557

> <overlap_score>
0.803525984287262

$$$$
BENZO_196_1
  -OEChem-08232013533D

 50 53  0     1  0  0  0  0  0999 V2000
    3.8860    2.1050   19.5250 C   0  0  0  0  0  0  0  0  0  0  0  0
    4.2460    1.7520   20.8250 C   0  0  0  0  0  0  0  0  0  0  0  0
    9.5890   -2.4950   23.2210 C   0  0  0  0  0  0  0  0  0  0  0  0
    8.2550   -1.0010   24.5520 C   0  0  0  0  0  0  0  0  0  0  0  0
    4.6610    1.7170   18.4380 C   0  0  0  0  0  0  0  0  0  0  0  0
    5.3890    1.0010   21.0690 C   0  0  0  0  0  0  0  0  0  0  0  0
    9.1890   -3.5540   24.0140 C   0  0  0  0  0  0  0  0  0  0  0  0
    7.8700   -2.0610   25.3550 C   0  0  0  0  0  0  0  0  0  0  0  0
   13.2367   -0.5537   24.1440 C   0  0  0  0  0  0  0  0  0  0  0  0
   13.7547   -0.1001   25.3371 C   0  0  0  0  0  0  0  0  0  0  0  0
   11.6391    1.0163   24.7648 C   0  0  0  0  0  0  0  0  0  0  0  0
    7.5840   -0.2700   18.5160 C   0  0  0  0  0  0  0  0  0  0  0  0
    9.1280   -1.2090   23.4870 C   0  0  0  0  0  0  0  0  0  0  0  0
   12.0113    0.0931   23.8123 C   0  0  0  0  0  0  0  0  0  0  0  0
    5.7970    0.9500   18.6730 C   0  0  0  0  0  0  0  0  0  0  0  0
    6.1460    0.6070   19.9750 C   0  0  0  0  0  0  0  0  0  0  0  0
    8.3450   -3.3440   25.0980 C   0  0  0  0  0  0  0  0  0  0  0  0
    9.0430    0.2380   21.4940 C   0  0  0  0  0  0  0  0  0  0  0  0
    8.7685   -4.7581   27.0897 C   0  0  0  0  0  0  0  0  0  0  0  0
    6.7786   -5.1884   25.6393 C   0  0  0  0  0  0  0  0  0  0  0  0
   11.2147   -0.2012   22.5629 C   0  0  0  0  0  0  0  0  0  0  0  0
    9.5820   -0.1080   22.7000 C   0  0  1  0  0  0  0  0  0  0  0  0
    6.7100    0.3850   17.8100 N   0  0  0  0  0  0  0  0  0  0  0  0
    7.2710   -0.1460   19.8310 N   0  0  0  0  0  0  0  0  0  0  0  0
    8.0950   -0.7700   20.8440 N   0  0  0  0  0  0  0  0  0  0  0  0
    7.9717   -4.4175   25.9277 N   0  0  0  0  0  0  0  0  0  0  0  0
    9.2950    1.3000   20.9480 O   0  0  0  0  0  0  0  0  0  0  0  0
   12.7651    1.1006   26.0522 S   0  0  0  0  0  0  0  0  0  0  0  0
    2.9844    2.6927   19.3613 H   0  0  0  0  0  0  0  0  0  0  0  0
    3.6214    2.0680   21.6561 H   0  0  0  0  0  0  0  0  0  0  0  0
   10.2684   -2.6719   22.3867 H   0  0  0  0  0  0  0  0  0  0  0  0
    7.8717   -0.0016   24.7596 H   0  0  0  0  0  0  0  0  0  0  0  0
    4.3780    2.0103   17.4276 H   0  0  0  0  0  0  0  0  0  0  0  0
    5.6758    0.7336   22.0897 H   0  0  0  0  0  0  0  0  0  0  0  0
    9.5443   -4.5616   23.7817 H   0  0  0  0  0  0  0  0  0  0  0  0
    7.1921   -1.8821   26.1908 H   0  0  0  0  0  0  0  0  0  0  0  0
   13.7173   -1.3138   23.5411 H   0  0  0  0  0  0  0  0  0  0  0  0
   14.6665   -0.4168   25.8235 H   0  0  0  0  0  0  0  0  0  0  0  0
   10.7604    1.6463   24.7706 H   0  0  0  0  0  0  0  0  0  0  0  0
    8.4213   -0.8245   18.1548 H   0  0  0  0  0  0  0  0  0  0  0  0
    8.3172   -5.6188   27.6049 H   0  0  0  0  0  0  0  0  0  0  0  0
    9.7895   -5.0155   26.7713 H   0  0  0  0  0  0  0  0  0  0  0  0
    8.8038   -3.8981   27.7747 H   0  0  0  0  0  0  0  0  0  0  0  0
    6.6592   -5.9774   26.3965 H   0  0  0  0  0  0  0  0  0  0  0  0
    5.9006   -4.5260   25.6587 H   0  0  0  0  0  0  0  0  0  0  0  0
    6.8702   -5.6468   24.6436 H   0  0  0  0  0  0  0  0  0  0  0  0
   11.5664    0.4743   21.7706 H   0  0  0  0  0  0  0  0  0  0  0  0
   11.4535   -1.2106   22.2023 H   0  0  0  0  0  0  0  0  0  0  0  0
    9.5277    0.8495   23.3908 H   0  0  0  0  0  0  0  0  0  0  0  0
    8.1074   -1.6160   21.1028 H   0  0  0  0  0  0  0  0  0  0  0  0
  1  2  1  0  0  0  0
  1  5  2  0  0  0  0
  2  6  2  0  0  0  0
  3  7  2  0  0  0  0
  3 13  1  0  0  0  0
  4  8  1  0  0  0  0
  4 13  2  0  0  0  0
  5 15  1  0  0  0  0
  6 16  1  0  0  0  0
  7 17  1  0  0  0  0
  8 17  2  0  0  0  0
  9 10  2  0  0  0  0
  9 14  1  0  0  0  0
 10 28  1  0  0  0  0
 11 14  2  0  0  0  0
 11 28  1  0  0  0  0
 12 23  2  0  0  0  0
 12 24  1  0  0  0  0
 13 22  1  0  0  0  0
 14 21  1  0  0  0  0
 15 16  2  0  0  0  0
 15 23  1  0  0  0  0
 16 24  1  0  0  0  0
 17 26  1  0  0  0  0
 18 22  1  0  0  0  0
 18 25  1  0  0  0  0
 18 27  2  0  0  0  0
 19 26  1  0  0  0  0
 20 26  1  0  0  0  0
 21 22  1  1  0  0  0
 24 25  1  0  0  0  0
  1 29  1  0  0  0  0
  2 30  1  0  0  0  0
  3 31  1  0  0  0  0
  4 32  1  0  0  0  0
  5 33  1  0  0  0  0
  6 34  1  0  0  0  0
  7 35  1  0  0  0  0
  8 36  1  0  0  0  0
  9 37  1  0  0  0  0
 10 38  1  0  0  0  0
 11 39  1  0  0  0  0
 12 40  1  0  0  0  0
 19 41  1  0  0  0  0
 19 42  1  0  0  0  0
 19 43  1  0  0  0  0
 20 44  1  0  0  0  0
 20 45  1  0  0  0  0
 20 46  1  0  0  0  0
 21 47  1  0  0  0  0
 21 48  1  0  0  0  0
 22 49  1  0  0  0  0
 25 50  1  0  0  0  0
M  END
> <clash_score>
0.721121872360026

> <docking_score>
-6.768568992614746

> <overlap_score>
0.8701401948928833

$$$$
BENZO_196_2
  -OEChem-08232013533D

 50 53  0     1  0  0  0  0  0999 V2000
    3.8860    2.1050   19.5250 C   0  0  0  0  0  0  0  0  0  0  0  0
    4.2460    1.7520   20.8250 C   0  0  0  0  0  0  0  0  0  0  0  0
    9.5890   -2.4950   23.2210 C   0  0  0  0  0  0  0  0  0  0  0  0
    8.2550   -1.0010   24.5520 C   0  0  0  0  0  0  0  0  0  0  0  0
    4.6610    1.7170   18.4380 C   0  0  0  0  0  0  0  0  0  0  0  0
    5.3890    1.0010   21.0690 C   0  0  0  0  0  0  0  0  0  0  0  0
    9.1890   -3.5540   24.0140 C   0  0  0  0  0  0  0  0  0  0  0  0
    7.8700   -2.0610   25.3550 C   0  0  0  0  0  0  0  0  0  0  0  0
   12.1596    0.8633   24.2577 C   0  0  0  0  0  0  0  0  0  0  0  0
   12.9999    0.8027   25.3475 C   0  0  0  0  0  0  0  0  0  0  0  0
   10.6666    1.2226   26.0024 C   0  0  0  0  0  0  0  0  0  0  0  0
    7.5840   -0.2700   18.5160 C   0  0  0  0  0  0  0  0  0  0  0  0
    9.1280   -1.2090   23.4870 C   0  0  0  0  0  0  0  0  0  0  0  0
   10.8079    1.1067   24.6370 C   0  0  0  0  0  0  0  0  0  0  0  0
    5.7970    0.9500   18.6730 C   0  0  0  0  0  0  0  0  0  0  0  0
    6.1460    0.6070   19.9750 C   0  0  0  0  0  0  0  0  0  0  0  0
    8.3450   -3.3440   25.0980 C   0  0  0  0  0  0  0  0  0  0  0  0
    9.0430    0.2380   21.4940 C   0  0  0  0  0  0  0  0  0  0  0  0
    7.2615   -5.5559   25.3795 C   0  0  0  0  0  0  0  0  0  0  0  0
    8.3042   -4.4055   27.3386 C   0  0  0  0  0  0  0  0  0  0  0  0
    9.6654    1.2227   23.6555 C   0  0  0  0  0  0  0  0  0  0  0  0
    9.5820   -0.1080   22.7000 C   0  0  2  0  0  0  0  0  0  0  0  0
    6.7100    0.3850   17.8100 N   0  0  0  0  0  0  0  0  0  0  0  0
    7.2710   -0.1460   19.8310 N   0  0  0  0  0  0  0  0  0  0  0  0
    8.0950   -0.7700   20.8440 N   0  0  0  0  0  0  0  0  0  0  0  0
    7.9717   -4.4175   25.9277 N   0  0  0  0  0  0  0  0  0  0  0  0
    9.2950    1.3000   20.9480 O   0  0  0  0  0  0  0  0  0  0  0  0
   12.1595    1.0385   26.8207 S   0  0  0  0  0  0  0  0  0  0  0  0
    2.9844    2.6927   19.3613 H   0  0  0  0  0  0  0  0  0  0  0  0
    3.6214    2.0680   21.6561 H   0  0  0  0  0  0  0  0  0  0  0  0
   10.2684   -2.6719   22.3867 H   0  0  0  0  0  0  0  0  0  0  0  0
    7.8717   -0.0016   24.7596 H   0  0  0  0  0  0  0  0  0  0  0  0
    4.3780    2.0103   17.4276 H   0  0  0  0  0  0  0  0  0  0  0  0
    5.6758    0.7336   22.0897 H   0  0  0  0  0  0  0  0  0  0  0  0
    9.5443   -4.5616   23.7817 H   0  0  0  0  0  0  0  0  0  0  0  0
    7.1921   -1.8821   26.1908 H   0  0  0  0  0  0  0  0  0  0  0  0
   12.5025    0.7379   23.2384 H   0  0  0  0  0  0  0  0  0  0  0  0
   14.0670    0.6304   25.3492 H   0  0  0  0  0  0  0  0  0  0  0  0
    9.7601    1.4054   26.5626 H   0  0  0  0  0  0  0  0  0  0  0  0
    8.4213   -0.8245   18.1548 H   0  0  0  0  0  0  0  0  0  0  0  0
    7.0604   -6.2833   26.1797 H   0  0  0  0  0  0  0  0  0  0  0  0
    6.3097   -5.2186   24.9432 H   0  0  0  0  0  0  0  0  0  0  0  0
    7.8751   -6.0296   24.5991 H   0  0  0  0  0  0  0  0  0  0  0  0
    7.9292   -5.3249   27.8120 H   0  0  0  0  0  0  0  0  0  0  0  0
    9.3964   -4.3513   27.4573 H   0  0  0  0  0  0  0  0  0  0  0  0
    7.8395   -3.5309   27.8172 H   0  0  0  0  0  0  0  0  0  0  0  0
    8.7459    1.4099   24.2274 H   0  0  0  0  0  0  0  0  0  0  0  0
    9.8015    2.1185   23.0351 H   0  0  0  0  0  0  0  0  0  0  0  0
   10.7408   -0.2662   22.5300 H   0  0  0  0  0  0  0  0  0  0  0  0
    8.1074   -1.6160   21.1028 H   0  0  0  0  0  0  0  0  0  0  0  0
  1  2  1  0  0  0  0
  1  5  2  0  0  0  0
  2  6  2  0  0  0  0
  3  7  2  0  0  0  0
  3 13  1  0  0  0  0
  4  8  1  0  0  0  0
  4 13  2  0  0  0  0
  5 15  1  0  0  0  0
  6 16  1  0  0  0  0
  7 17  1  0  0  0  0
  8 17  2  0  0  0  0
  9 10  2  0  0  0  0
  9 14  1  0  0  0  0
 10 28  1  0  0  0  0
 11 14  2  0  0  0  0
 11 28  1  0  0  0  0
 12 23  2  0  0  0  0
 12 24  1  0  0  0  0
 13 22  1  0  0  0  0
 14 21  1  0  0  0  0
 15 16  2  0  0  0  0
 15 23  1  0  0  0  0
 16 24  1  0  0  0  0
 17 26  1  0  0  0  0
 18 22  1  0  0  0  0
 18 25  1  0  0  0  0
 18 27  2  0  0  0  0
 19 26  1  0  0  0  0
 20 26  1  0  0  0  0
 21 22  1  6  0  0  0
 24 25  1  0  0  0  0
  1 29  1  0  0  0  0
  2 30  1  0  0  0  0
  3 31  1  0  0  0  0
  4 32  1  0  0  0  0
  5 33  1  0  0  0  0
  6 34  1  0  0  0  0
  7 35  1  0  0  0  0
  8 36  1  0  0  0  0
  9 37  1  0  0  0  0
 10 38  1  0  0  0  0
 11 39  1  0  0  0  0
 12 40  1  0  0  0  0
 19 41  1  0  0  0  0
 19 42  1  0  0  0  0
 19 43  1  0  0  0  0
 20 44  1  0  0  0  0
 20 45  1  0  0  0  0
 20 46  1  0  0  0  0
 21 47  1  0  0  0  0
 21 48  1  0  0  0  0
 22 49  1  0  0  0  0
 25 50  1  0  0  0  0
M  END
> <clash_score>
1.386676729289627

> <docking_score>
-4.892006874084473

> <overlap_score>
0.806281328201294

$$$$
BENZO_194_2
  -OEChem-08232013533D

 57 61  0     1  0  0  0  0  0999 V2000
    3.8860    2.1050   19.5250 C   0  0  0  0  0  0  0  0  0  0  0  0
    4.2460    1.7520   20.8250 C   0  0  0  0  0  0  0  0  0  0  0  0
   13.9335   -1.1650   25.0278 C   0  0  0  0  0  0  0  0  0  0  0  0
   13.2149   -1.0227   23.8408 C   0  0  0  0  0  0  0  0  0  0  0  0
    9.5890   -2.4950   23.2210 C   0  0  0  0  0  0  0  0  0  0  0  0
    8.2550   -1.0010   24.5520 C   0  0  0  0  0  0  0  0  0  0  0  0
    4.6610    1.7170   18.4380 C   0  0  0  0  0  0  0  0  0  0  0  0
    5.3890    1.0010   21.0690 C   0  0  0  0  0  0  0  0  0  0  0  0
    9.1890   -3.5540   24.0140 C   0  0  0  0  0  0  0  0  0  0  0  0
    7.8700   -2.0610   25.3550 C   0  0  0  0  0  0  0  0  0  0  0  0
   13.4326   -0.6302   26.2147 C   0  0  0  0  0  0  0  0  0  0  0  0
   11.4946    0.1894   25.0275 C   0  0  0  0  0  0  0  0  0  0  0  0
    9.1280   -1.2090   23.4870 C   0  0  0  0  0  0  0  0  0  0  0  0
   11.9955   -0.3454   23.8406 C   0  0  0  0  0  0  0  0  0  0  0  0
    5.7970    0.9500   18.6730 C   0  0  0  0  0  0  0  0  0  0  0  0
    6.1460    0.6070   19.9750 C   0  0  0  0  0  0  0  0  0  0  0  0
    8.3450   -3.3440   25.0980 C   0  0  0  0  0  0  0  0  0  0  0  0
   12.2132    0.0471   26.2146 C   0  0  0  0  0  0  0  0  0  0  0  0
    9.0430    0.2380   21.4940 C   0  0  0  0  0  0  0  0  0  0  0  0
    8.9526   -5.2008   26.6600 C   0  0  0  0  0  0  0  0  0  0  0  0
    6.6115   -4.5057   26.4392 C   0  0  0  0  0  0  0  0  0  0  0  0
    8.9053   -4.7827   28.1257 C   0  0  0  0  0  0  0  0  0  0  0  0
    6.6391   -4.1219   27.9194 C   0  0  0  0  0  0  0  0  0  0  0  0
   11.2185   -0.1906   22.5545 C   0  0  0  0  0  0  0  0  0  0  0  0
    9.5820   -0.1080   22.7000 C   0  0  2  0  0  0  0  0  0  0  0  0
    6.7100    0.3850   17.8100 N   0  0  0  0  0  0  0  0  0  0  0  0
    7.5840   -0.2700   18.5160 N   0  0  0  0  0  0  0  0  0  0  0  0
    7.2710   -0.1460   19.8310 N   0  0  0  0  0  0  0  0  0  0  0  0
    7.9774   -4.4013   25.9152 N   0  0  0  0  0  0  0  0  0  0  0  0
    8.0950   -0.7700   20.8440 N   0  0  0  0  0  0  0  0  0  0  0  0
    9.2950    1.3000   20.9480 O   0  0  0  0  0  0  0  0  0  0  0  0
    7.5748   -4.9364   28.6347 O   0  0  0  0  0  0  0  0  0  0  0  0
   11.5963    0.7077   27.6790 Cl  0  0  0  0  0  0  0  0  0  0  0  0
    2.9846    2.6932   19.3610 H   0  0  0  0  0  0  0  0  0  0  0  0
    3.6235    2.0692   21.6570 H   0  0  0  0  0  0  0  0  0  0  0  0
   14.8831   -1.6923   25.0274 H   0  0  0  0  0  0  0  0  0  0  0  0
   13.6129   -1.4425   22.9206 H   0  0  0  0  0  0  0  0  0  0  0  0
   10.2684   -2.6719   22.3867 H   0  0  0  0  0  0  0  0  0  0  0  0
    7.8717   -0.0016   24.7596 H   0  0  0  0  0  0  0  0  0  0  0  0
    4.3785    2.0113   17.4257 H   0  0  0  0  0  0  0  0  0  0  0  0
    5.6763    0.7332   22.0915 H   0  0  0  0  0  0  0  0  0  0  0  0
    9.5443   -4.5616   23.7817 H   0  0  0  0  0  0  0  0  0  0  0  0
    7.1921   -1.8821   26.1908 H   0  0  0  0  0  0  0  0  0  0  0  0
   14.0036   -0.7485   27.1323 H   0  0  0  0  0  0  0  0  0  0  0  0
   10.5431    0.7162   25.0223 H   0  0  0  0  0  0  0  0  0  0  0  0
    9.9614   -5.0503   26.2701 H   0  0  0  0  0  0  0  0  0  0  0  0
    8.6932   -6.2593   26.5731 H   0  0  0  0  0  0  0  0  0  0  0  0
    6.2625   -5.5339   26.3355 H   0  0  0  0  0  0  0  0  0  0  0  0
    5.9348   -3.8414   25.9036 H   0  0  0  0  0  0  0  0  0  0  0  0
    9.5615   -5.4255   28.7162 H   0  0  0  0  0  0  0  0  0  0  0  0
    9.2365   -3.7494   28.2620 H   0  0  0  0  0  0  0  0  0  0  0  0
    6.8895   -3.0633   28.0551 H   0  0  0  0  0  0  0  0  0  0  0  0
    5.6514   -4.2861   28.3610 H   0  0  0  0  0  0  0  0  0  0  0  0
   11.6029    0.6962   22.0317 H   0  0  0  0  0  0  0  0  0  0  0  0
   11.4403   -1.0329   21.8857 H   0  0  0  0  0  0  0  0  0  0  0  0
    9.5315    0.8594   23.3833 H   0  0  0  0  0  0  0  0  0  0  0  0
    8.0815   -1.6117   21.0754 H   0  0  0  0  0  0  0  0  0  0  0  0
  1  2  1  0  0  0  0
  1  7  2  0  0  0  0
  2  8  2  0  0  0  0
  3  4  2  0  0  0  0
  3 11  1  0  0  0  0
  4 14  1  0  0  0  0
  5  9  2  0  0  0  0
  5 13  1  0  0  0  0
  6 10  1  0  0  0  0
  6 13  2  0  0  0  0
  7 15  1  0  0  0  0
  8 16  1  0  0  0  0
  9 17  1  0  0  0  0
 10 17  2  0  0  0  0
 11 18  2  0  0  0  0
 12 14  2  0  0  0  0
 12 18  1  0  0  0  0
 13 25  1  0  0  0  0
 14 24  1  0  0  0  0
 15 16  2  0  0  0  0
 15 26  1  0  0  0  0
 16 28  1  0  0  0  0
 17 29  1  0  0  0  0
 18 33  1  0  0  0  0
 19 25  1  6  0  0  0
 19 30  1  0  0  0  0
 19 31  2  0  0  0  0
 20 22  1  0  0  0  0
 20 29  1  0  0  0  0
 21 23  1  0  0  0  0
 21 29  1  0  0  0  0
 22 32  1  0  0  0  0
 23 32  1  0  0  0  0
 24 25  1  0  0  0  0
 26 27  2  0  0  0  0
 27 28  1  0  0  0  0
 28 30  1  0  0  0  0
  1 34  1  0  0  0  0
  2 35  1  0  0  0  0
  3 36  1  0  0  0  0
  4 37  1  0  0  0  0
  5 38  1  0  0  0  0
  6 39  1  0  0  0  0
  7 40  1  0  0  0  0
  8 41  1  0  0  0  0
  9 42  1  0  0  0  0
 10 43  1  0  0  0  0
 11 44  1  0  0  0  0
 12 45  1  0  0  0  0
 20 46  1  0  0  0  0
 20 47  1  0  0  0  0
 21 48  1  0  0  0  0
 21 49  1  0  0  0  0
 22 50  1  0  0  0  0
 22 51  1  0  0  0  0
 23 52  1  0  0  0  0
 23 53  1  0  0  0  0
 24 54  1  0  0  0  0
 24 55  1  0  0  0  0
 25 56  1  0  0  0  0
 30 57  1  0  0  0  0
M  END
> <clash_score>
0.6771872581564249

> <docking_score>
-6.0764336585998535

> <overlap_score>
0.9310305714607239

$$$$
BENZO_195_2
  -OEChem-08232013533D

 57 61  0     1  0  0  0  0  0999 V2000
    3.8860    2.1050   19.5250 C   0  0  0  0  0  0  0  0  0  0  0  0
    4.2460    1.7520   20.8250 C   0  0  0  0  0  0  0  0  0  0  0  0
    9.5890   -2.4950   23.2210 C   0  0  0  0  0  0  0  0  0  0  0  0
    8.2550   -1.0010   24.5520 C   0  0  0  0  0  0  0  0  0  0  0  0
    4.6610    1.7170   18.4380 C   0  0  0  0  0  0  0  0  0  0  0  0
    5.3890    1.0010   21.0690 C   0  0  0  0  0  0  0  0  0  0  0  0
    9.1890   -3.5540   24.0140 C   0  0  0  0  0  0  0  0  0  0  0  0
    7.8700   -2.0610   25.3550 C   0  0  0  0  0  0  0  0  0  0  0  0
   12.0323    0.4351   24.4215 C   0  0  0  0  0  0  0  0  0  0  0  0
   10.9195    1.6685   25.8622 C   0  0  0  0  0  0  0  0  0  0  0  0
    9.1280   -1.2090   23.4870 C   0  0  0  0  0  0  0  0  0  0  0  0
   10.8175    1.1222   24.6062 C   0  0  0  0  0  0  0  0  0  0  0  0
    5.7970    0.9500   18.6730 C   0  0  0  0  0  0  0  0  0  0  0  0
    6.1460    0.6070   19.9750 C   0  0  0  0  0  0  0  0  0  0  0  0
    8.3450   -3.3440   25.0980 C   0  0  0  0  0  0  0  0  0  0  0  0
    9.0430    0.2380   21.4940 C   0  0  0  0  0  0  0  0  0  0  0  0
    8.9526   -5.2008   26.6600 C   0  0  0  0  0  0  0  0  0  0  0  0
    6.6115   -4.5057   26.4392 C   0  0  0  0  0  0  0  0  0  0  0  0
    8.9053   -4.7827   28.1257 C   0  0  0  0  0  0  0  0  0  0  0  0
    6.6391   -4.1219   27.9194 C   0  0  0  0  0  0  0  0  0  0  0  0
   12.7029    1.6253   27.6218 C   0  0  0  0  0  0  0  0  0  0  0  0
    9.6614    1.2368   23.6407 C   0  0  0  0  0  0  0  0  0  0  0  0
    9.5820   -0.1080   22.7000 C   0  0  2  0  0  0  0  0  0  0  0  0
   12.8463    0.5346   25.4758 N   0  0  0  0  0  0  0  0  0  0  0  0
    6.7100    0.3850   17.8100 N   0  0  0  0  0  0  0  0  0  0  0  0
    7.5840   -0.2700   18.5160 N   0  0  0  0  0  0  0  0  0  0  0  0
   12.1417    1.2906   26.3350 N   0  0  0  0  0  0  0  0  0  0  0  0
    7.2710   -0.1460   19.8310 N   0  0  0  0  0  0  0  0  0  0  0  0
    7.9774   -4.4013   25.9152 N   0  0  0  0  0  0  0  0  0  0  0  0
    8.0950   -0.7700   20.8440 N   0  0  0  0  0  0  0  0  0  0  0  0
    9.2950    1.3000   20.9480 O   0  0  0  0  0  0  0  0  0  0  0  0
    7.5748   -4.9364   28.6347 O   0  0  0  0  0  0  0  0  0  0  0  0
    2.9846    2.6932   19.3610 H   0  0  0  0  0  0  0  0  0  0  0  0
    3.6235    2.0692   21.6570 H   0  0  0  0  0  0  0  0  0  0  0  0
   10.2684   -2.6719   22.3867 H   0  0  0  0  0  0  0  0  0  0  0  0
    7.8717   -0.0016   24.7596 H   0  0  0  0  0  0  0  0  0  0  0  0
    4.3785    2.0113   17.4257 H   0  0  0  0  0  0  0  0  0  0  0  0
    5.6763    0.7332   22.0915 H   0  0  0  0  0  0  0  0  0  0  0  0
    9.5443   -4.5616   23.7817 H   0  0  0  0  0  0  0  0  0  0  0  0
    7.1921   -1.8821   26.1908 H   0  0  0  0  0  0  0  0  0  0  0  0
   12.3609   -0.1338   23.5633 H   0  0  0  0  0  0  0  0  0  0  0  0
   10.2438    2.2800   26.4448 H   0  0  0  0  0  0  0  0  0  0  0  0
    9.9614   -5.0503   26.2701 H   0  0  0  0  0  0  0  0  0  0  0  0
    8.6932   -6.2593   26.5731 H   0  0  0  0  0  0  0  0  0  0  0  0
    6.2625   -5.5339   26.3355 H   0  0  0  0  0  0  0  0  0  0  0  0
    5.9348   -3.8414   25.9036 H   0  0  0  0  0  0  0  0  0  0  0  0
    9.5615   -5.4255   28.7162 H   0  0  0  0  0  0  0  0  0  0  0  0
    9.2365   -3.7494   28.2620 H   0  0  0  0  0  0  0  0  0  0  0  0
    6.8895   -3.0633   28.0551 H   0  0  0  0  0  0  0  0  0  0  0  0
    5.6514   -4.2861   28.3610 H   0  0  0  0  0  0  0  0  0  0  0  0
   12.4111    0.8455   28.3302 H   0  0  0  0  0  0  0  0  0  0  0  0
   13.7921    1.6801   27.5409 H   0  0  0  0  0  0  0  0  0  0  0  0
   12.3182    2.5976   27.9419 H   0  0  0  0  0  0  0  0  0  0  0  0
    8.7512    1.4324   24.2245 H   0  0  0  0  0  0  0  0  0  0  0  0
    9.7926    2.1276   23.0121 H   0  0  0  0  0  0  0  0  0  0  0  0
   10.7449   -0.2552   22.5248 H   0  0  0  0  0  0  0  0  0  0  0  0
    8.0815   -1.6117   21.0754 H   0  0  0  0  0  0  0  0  0  0  0  0
  1  2  1  0  0  0  0
  1  5  2  0  0  0  0
  2  6  2  0  0  0  0
  3  7  2  0  0  0  0
  3 11  1  0  0  0  0
  4  8  1  0  0  0  0
  4 11  2  0  0  0  0
  5 13  1  0  0  0  0
  6 14  1  0  0  0  0
  7 15  1  0  0  0  0
  8 15  2  0  0  0  0
  9 12  1  0  0  0  0
  9 24  2  0  0  0  0
 10 12  2  0  0  0  0
 10 27  1  0  0  0  0
 11 23  1  0  0  0  0
 12 22  1  0  0  0  0
 13 14  2  0  0  0  0
 13 25  1  0  0  0  0
 14 28  1  0  0  0  0
 15 29  1  0  0  0  0
 16 23  1  0  0  0  0
 16 30  1  0  0  0  0
 16 31  2  0  0  0  0
 17 19  1  0  0  0  0
 17 29  1  0  0  0  0
 18 20  1  0  0  0  0
 18 29  1  0  0  0  0
 19 32  1  0  0  0  0
 20 32  1  0  0  0  0
 21 27  1  0  0  0  0
 22 23  1  6  0  0  0
 24 27  1  0  0  0  0
 25 26  2  0  0  0  0
 26 28  1  0  0  0  0
 28 30  1  0  0  0  0
  1 33  1  0  0  0  0
  2 34  1  0  0  0  0
  3 35  1  0  0  0  0
  4 36  1  0  0  0  0
  5 37  1  0  0  0  0
  6 38  1  0  0  0  0
  7 39  1  0  0  0  0
  8 40  1  0  0  0  0
  9 41  1  0  0  0  0
 10 42  1  0  0  0  0
 17 43  1  0  0  0  0
 17 44  1  0  0  0  0
 18 45  1  0  0  0  0
 18 46  1  0  0  0  0
 19 47  1  0  0  0  0
 19 48  1  0  0  0  0
 20 49  1  0  0  0  0
 20 50  1  0  0  0  0
 21 51  1  0  0  0  0
 21 52  1  0  0  0  0
 21 53  1  0  0  0  0
 22 54  1  0  0  0  0
 22 55  1  0  0  0  0
 23 56  1  0  0  0  0
 30 57  1  0  0  0  0
M  END
> <clash_score>
2.862844012264298

> <docking_score>
-4.2149529457092285

> <overlap_score>
0.8567584753036499

$$$$
BENZO_195_1
  -OEChem-08232013533D

 57 61  0     1  0  0  0  0  0999 V2000
    3.8860    2.1050   19.5250 C   0  0  0  0  0  0  0  0  0  0  0  0
    4.2460    1.7520   20.8250 C   0  0  0  0  0  0  0  0  0  0  0  0
    9.5890   -2.4950   23.2210 C   0  0  0  0  0  0  0  0  0  0  0  0
    8.2550   -1.0010   24.5520 C   0  0  0  0  0  0  0  0  0  0  0  0
    4.6610    1.7170   18.4380 C   0  0  0  0  0  0  0  0  0  0  0  0
    5.3890    1.0010   21.0690 C   0  0  0  0  0  0  0  0  0  0  0  0
    9.1890   -3.5540   24.0140 C   0  0  0  0  0  0  0  0  0  0  0  0
    7.8700   -2.0610   25.3550 C   0  0  0  0  0  0  0  0  0  0  0  0
   13.3911   -0.4374   24.0010 C   0  0  0  0  0  0  0  0  0  0  0  0
   11.4972   -0.4255   25.1180 C   0  0  0  0  0  0  0  0  0  0  0  0
    9.1280   -1.2090   23.4870 C   0  0  0  0  0  0  0  0  0  0  0  0
   11.9955   -0.3454   23.8406 C   0  0  0  0  0  0  0  0  0  0  0  0
    5.7970    0.9500   18.6730 C   0  0  0  0  0  0  0  0  0  0  0  0
    6.1460    0.6070   19.9750 C   0  0  0  0  0  0  0  0  0  0  0  0
    8.3450   -3.3440   25.0980 C   0  0  0  0  0  0  0  0  0  0  0  0
    9.0430    0.2380   21.4940 C   0  0  0  0  0  0  0  0  0  0  0  0
    8.8181   -4.7107   27.0857 C   0  0  0  0  0  0  0  0  0  0  0  0
    7.2576   -5.5563   25.3547 C   0  0  0  0  0  0  0  0  0  0  0  0
    8.0193   -5.5151   28.1049 C   0  0  0  0  0  0  0  0  0  0  0  0
    6.5423   -6.3161   26.4664 C   0  0  0  0  0  0  0  0  0  0  0  0
   12.5626   -0.6753   27.3722 C   0  0  0  0  0  0  0  0  0  0  0  0
   11.2185   -0.1906   22.5545 C   0  0  0  0  0  0  0  0  0  0  0  0
    9.5820   -0.1080   22.7000 C   0  0  1  0  0  0  0  0  0  0  0  0
   13.7559   -0.5658   25.2794 N   0  0  0  0  0  0  0  0  0  0  0  0
    6.7100    0.3850   17.8100 N   0  0  0  0  0  0  0  0  0  0  0  0
    7.5840   -0.2700   18.5160 N   0  0  0  0  0  0  0  0  0  0  0  0
   12.5823   -0.5550   25.9340 N   0  0  0  0  0  0  0  0  0  0  0  0
    7.2710   -0.1460   19.8310 N   0  0  0  0  0  0  0  0  0  0  0  0
    7.9748   -4.4087   25.9209 N   0  0  0  0  0  0  0  0  0  0  0  0
    8.0950   -0.7700   20.8440 N   0  0  0  0  0  0  0  0  0  0  0  0
    9.2950    1.3000   20.9480 O   0  0  0  0  0  0  0  0  0  0  0  0
    7.4618   -6.6794   27.4955 O   0  0  0  0  0  0  0  0  0  0  0  0
    2.9846    2.6932   19.3610 H   0  0  0  0  0  0  0  0  0  0  0  0
    3.6235    2.0692   21.6570 H   0  0  0  0  0  0  0  0  0  0  0  0
   10.2684   -2.6719   22.3867 H   0  0  0  0  0  0  0  0  0  0  0  0
    7.8717   -0.0016   24.7596 H   0  0  0  0  0  0  0  0  0  0  0  0
    4.3785    2.0113   17.4257 H   0  0  0  0  0  0  0  0  0  0  0  0
    5.6763    0.7332   22.0915 H   0  0  0  0  0  0  0  0  0  0  0  0
    9.5443   -4.5616   23.7817 H   0  0  0  0  0  0  0  0  0  0  0  0
    7.1922   -1.8821   26.1908 H   0  0  0  0  0  0  0  0  0  0  0  0
   14.1595   -0.4155   23.2412 H   0  0  0  0  0  0  0  0  0  0  0  0
   10.4879   -0.4005   25.5063 H   0  0  0  0  0  0  0  0  0  0  0  0
    9.1812   -3.7873   27.5519 H   0  0  0  0  0  0  0  0  0  0  0  0
    9.6869   -5.2951   26.7566 H   0  0  0  0  0  0  0  0  0  0  0  0
    7.9776   -6.2212   24.8604 H   0  0  0  0  0  0  0  0  0  0  0  0
    6.5260   -5.2277   24.6071 H   0  0  0  0  0  0  0  0  0  0  0  0
    8.6785   -5.8462   28.9137 H   0  0  0  0  0  0  0  0  0  0  0  0
    7.2212   -4.9136   28.5564 H   0  0  0  0  0  0  0  0  0  0  0  0
    5.7209   -5.7272   26.8924 H   0  0  0  0  0  0  0  0  0  0  0  0
    6.1110   -7.2387   26.0647 H   0  0  0  0  0  0  0  0  0  0  0  0
   12.5001   -1.7380   27.6209 H   0  0  0  0  0  0  0  0  0  0  0  0
   13.4755   -0.2387   27.7866 H   0  0  0  0  0  0  0  0  0  0  0  0
   11.6966   -0.1373   27.7680 H   0  0  0  0  0  0  0  0  0  0  0  0
   11.6029    0.6963   22.0317 H   0  0  0  0  0  0  0  0  0  0  0  0
   11.4403   -1.0329   21.8857 H   0  0  0  0  0  0  0  0  0  0  0  0
    9.5315    0.8594   23.3833 H   0  0  0  0  0  0  0  0  0  0  0  0
    8.0815   -1.6117   21.0754 H   0  0  0  0  0  0  0  0  0  0  0  0
  1  2  1  0  0  0  0
  1  5  2  0  0  0  0
  2  6  2  0  0  0  0
  3  7  2  0  0  0  0
  3 11  1  0  0  0  0
  4  8  1  0  0  0  0
  4 11  2  0  0  0  0
  5 13  1  0  0  0  0
  6 14  1  0  0  0  0
  7 15  1  0  0  0  0
  8 15  2  0  0  0  0
  9 12  1  0  0  0  0
  9 24  2  0  0  0  0
 10 12  2  0  0  0  0
 10 27  1  0  0  0  0
 11 23  1  0  0  0  0
 12 22  1  0  0  0  0
 13 14  2  0  0  0  0
 13 25  1  0  0  0  0
 14 28  1  0  0  0  0
 15 29  1  0  0  0  0
 16 23  1  0  0  0  0
 16 30  1  0  0  0  0
 16 31  2  0  0  0  0
 17 19  1  0  0  0  0
 17 29  1  0  0  0  0
 18 20  1  0  0  0  0
 18 29  1  0  0  0  0
 19 32  1  0  0  0  0
 20 32  1  0  0  0  0
 21 27  1  0  0  0  0
 22 23  1  1  0  0  0
 24 27  1  0  0  0  0
 25 26  2  0  0  0  0
 26 28  1  0  0  0  0
 28 30  1  0  0  0  0
  1 33  1  0  0  0  0
  2 34  1  0  0  0  0
  3 35  1  0  0  0  0
  4 36  1  0  0  0  0
  5 37  1  0  0  0  0
  6 38  1  0  0  0  0
  7 39  1  0  0  0  0
  8 40  1  0  0  0  0
  9 41  1  0  0  0  0
 10 42  1  0  0  0  0
 17 43  1  0  0  0  0
 17 44  1  0  0  0  0
 18 45  1  0  0  0  0
 18 46  1  0  0  0  0
 19 47  1  0  0  0  0
 19 48  1  0  0  0  0
 20 49  1  0  0  0  0
 20 50  1  0  0  0  0
 21 51  1  0  0  0  0
 21 52  1  0  0  0  0
 21 53  1  0  0  0  0
 22 54  1  0  0  0  0
 22 55  1  0  0  0  0
 23 56  1  0  0  0  0
 30 57  1  0  0  0  0
M  END
> <clash_score>
0.6225019506143823

> <docking_score>
-7.163382053375244

> <overlap_score>
0.925007164478302

$$$$
BENZO_198_1
  -OEChem-08232013533D

 53 56  0     1  0  0  0  0  0999 V2000
    3.8860    2.1050   19.5250 C   0  0  0  0  0  0  0  0  0  0  0  0
    4.2460    1.7520   20.8250 C   0  0  0  0  0  0  0  0  0  0  0  0
   13.9169   -1.2205   25.0322 C   0  0  0  0  0  0  0  0  0  0  0  0
   13.2022   -1.0608   23.8451 C   0  0  0  0  0  0  0  0  0  0  0  0
    9.5890   -2.4950   23.2210 C   0  0  0  0  0  0  0  0  0  0  0  0
    8.2550   -1.0010   24.5520 C   0  0  0  0  0  0  0  0  0  0  0  0
    4.6610    1.7170   18.4380 C   0  0  0  0  0  0  0  0  0  0  0  0
    5.3890    1.0010   21.0690 C   0  0  0  0  0  0  0  0  0  0  0  0
    9.1890   -3.5540   24.0140 C   0  0  0  0  0  0  0  0  0  0  0  0
    7.8700   -2.0610   25.3550 C   0  0  0  0  0  0  0  0  0  0  0  0
   13.4171   -0.6943   26.2234 C   0  0  0  0  0  0  0  0  0  0  0  0
   11.4878    0.1514   25.0404 C   0  0  0  0  0  0  0  0  0  0  0  0
    7.5840   -0.2700   18.5160 C   0  0  0  0  0  0  0  0  0  0  0  0
    9.1280   -1.2090   23.4870 C   0  0  0  0  0  0  0  0  0  0  0  0
   11.9876   -0.3748   23.8491 C   0  0  0  0  0  0  0  0  0  0  0  0
    5.7970    0.9500   18.6730 C   0  0  0  0  0  0  0  0  0  0  0  0
    6.1460    0.6070   19.9750 C   0  0  0  0  0  0  0  0  0  0  0  0
    8.3450   -3.3440   25.0980 C   0  0  0  0  0  0  0  0  0  0  0  0
   12.2026   -0.0084   26.2275 C   0  0  0  0  0  0  0  0  0  0  0  0
    9.0430    0.2380   21.4940 C   0  0  0  0  0  0  0  0  0  0  0  0
    7.2615   -5.5559   25.3795 C   0  0  0  0  0  0  0  0  0  0  0  0
    8.3042   -4.4055   27.3386 C   0  0  0  0  0  0  0  0  0  0  0  0
   11.2147   -0.2012   22.5629 C   0  0  0  0  0  0  0  0  0  0  0  0
    9.5820   -0.1080   22.7000 C   0  0  1  0  0  0  0  0  0  0  0  0
    6.7100    0.3850   17.8100 N   0  0  0  0  0  0  0  0  0  0  0  0
    7.2710   -0.1460   19.8310 N   0  0  0  0  0  0  0  0  0  0  0  0
    8.0950   -0.7700   20.8440 N   0  0  0  0  0  0  0  0  0  0  0  0
    7.9717   -4.4175   25.9277 N   0  0  0  0  0  0  0  0  0  0  0  0
    9.2950    1.3000   20.9480 O   0  0  0  0  0  0  0  0  0  0  0  0
   11.5870    0.6416   27.6973 Cl  0  0  0  0  0  0  0  0  0  0  0  0
    2.9844    2.6927   19.3613 H   0  0  0  0  0  0  0  0  0  0  0  0
    3.6214    2.0680   21.6561 H   0  0  0  0  0  0  0  0  0  0  0  0
   14.8627   -1.7546   25.0285 H   0  0  0  0  0  0  0  0  0  0  0  0
   13.5992   -1.4740   22.9215 H   0  0  0  0  0  0  0  0  0  0  0  0
   10.2684   -2.6719   22.3867 H   0  0  0  0  0  0  0  0  0  0  0  0
    7.8717   -0.0016   24.7596 H   0  0  0  0  0  0  0  0  0  0  0  0
    4.3780    2.0103   17.4276 H   0  0  0  0  0  0  0  0  0  0  0  0
    5.6758    0.7336   22.0897 H   0  0  0  0  0  0  0  0  0  0  0  0
    9.5443   -4.5616   23.7817 H   0  0  0  0  0  0  0  0  0  0  0  0
    7.1921   -1.8821   26.1908 H   0  0  0  0  0  0  0  0  0  0  0  0
   13.9851   -0.8262   27.1411 H   0  0  0  0  0  0  0  0  0  0  0  0
   10.5401    0.6850   25.0384 H   0  0  0  0  0  0  0  0  0  0  0  0
    8.4213   -0.8245   18.1548 H   0  0  0  0  0  0  0  0  0  0  0  0
    7.0604   -6.2833   26.1797 H   0  0  0  0  0  0  0  0  0  0  0  0
    6.3097   -5.2186   24.9432 H   0  0  0  0  0  0  0  0  0  0  0  0
    7.8751   -6.0296   24.5991 H   0  0  0  0  0  0  0  0  0  0  0  0
    7.9292   -5.3249   27.8120 H   0  0  0  0  0  0  0  0  0  0  0  0
    9.3964   -4.3513   27.4573 H   0  0  0  0  0  0  0  0  0  0  0  0
    7.8395   -3.5309   27.8172 H   0  0  0  0  0  0  0  0  0  0  0  0
   11.6025    0.6918   22.0532 H   0  0  0  0  0  0  0  0  0  0  0  0
   11.4368   -1.0349   21.8836 H   0  0  0  0  0  0  0  0  0  0  0  0
    9.5277    0.8495   23.3908 H   0  0  0  0  0  0  0  0  0  0  0  0
    8.1074   -1.6160   21.1028 H   0  0  0  0  0  0  0  0  0  0  0  0
  1  2  1  0  0  0  0
  1  7  2  0  0  0  0
  2  8  2  0  0  0  0
  3  4  2  0  0  0  0
  3 11  1  0  0  0  0
  4 15  1  0  0  0  0
  5  9  2  0  0  0  0
  5 14  1  0  0  0  0
  6 10  1  0  0  0  0
  6 14  2  0  0  0  0
  7 16  1  0  0  0  0
  8 17  1  0  0  0  0
  9 18  1  0  0  0  0
 10 18  2  0  0  0  0
 11 19  2  0  0  0  0
 12 15  2  0  0  0  0
 12 19  1  0  0  0  0
 13 25  2  0  0  0  0
 13 26  1  0  0  0  0
 14 24  1  0  0  0  0
 15 23  1  0  0  0  0
 16 17  2  0  0  0  0
 16 25  1  0  0  0  0
 17 26  1  0  0  0  0
 18 28  1  0  0  0  0
 19 30  1  0  0  0  0
 20 24  1  0  0  0  0
 20 27  1  0  0  0  0
 20 29  2  0  0  0  0
 21 28  1  0  0  0  0
 22 28  1  0  0  0  0
 23 24  1  1  0  0  0
 26 27  1  0  0  0  0
  1 31  1  0  0  0  0
  2 32  1  0  0  0  0
  3 33  1  0  0  0  0
  4 34  1  0  0  0  0
  5 35  1  0  0  0  0
  6 36  1  0  0  0  0
  7 37  1  0  0  0  0
  8 38  1  0  0  0  0
  9 39  1  0  0  0  0
 10 40  1  0  0  0  0
 11 41  1  0  0  0  0
 12 42  1  0  0  0  0
 13 43  1  0  0  0  0
 21 44  1  0  0  0  0
 21 45  1  0  0  0  0
 21 46  1  0  0  0  0
 22 47  1  0  0  0  0
 22 48  1  0  0  0  0
 22 49  1  0  0  0  0
 23 50  1  0  0  0  0
 23 51  1  0  0  0  0
 24 52  1  0  0  0  0
 27 53  1  0  0  0  0
M  END
> <clash_score>
0.6679267402109753

> <docking_score>
-5.615416526794434

> <overlap_score>
0.8827897310256958

$$$$
BENZO_199_1
  -OEChem-08232013533D

 53 56  0     1  0  0  0  0  0999 V2000
    3.8860    2.1050   19.5250 C   0  0  0  0  0  0  0  0  0  0  0  0
    4.2460    1.7520   20.8250 C   0  0  0  0  0  0  0  0  0  0  0  0
    9.5890   -2.4950   23.2210 C   0  0  0  0  0  0  0  0  0  0  0  0
    8.2550   -1.0010   24.5520 C   0  0  0  0  0  0  0  0  0  0  0  0
    4.6610    1.7170   18.4380 C   0  0  0  0  0  0  0  0  0  0  0  0
    5.3890    1.0010   21.0690 C   0  0  0  0  0  0  0  0  0  0  0  0
    9.1890   -3.5540   24.0140 C   0  0  0  0  0  0  0  0  0  0  0  0
    7.8700   -2.0610   25.3550 C   0  0  0  0  0  0  0  0  0  0  0  0
   13.2198   -1.0300   24.0348 C   0  0  0  0  0  0  0  0  0  0  0  0
   11.6457    0.0746   25.1011 C   0  0  0  0  0  0  0  0  0  0  0  0
    7.5840   -0.2700   18.5160 C   0  0  0  0  0  0  0  0  0  0  0  0
    9.1280   -1.2090   23.4870 C   0  0  0  0  0  0  0  0  0  0  0  0
   11.9876   -0.3748   23.8491 C   0  0  0  0  0  0  0  0  0  0  0  0
    5.7970    0.9500   18.6730 C   0  0  0  0  0  0  0  0  0  0  0  0
    6.1460    0.6070   19.9750 C   0  0  0  0  0  0  0  0  0  0  0  0
    8.3450   -3.3440   25.0980 C   0  0  0  0  0  0  0  0  0  0  0  0
    9.0430    0.2380   21.4940 C   0  0  0  0  0  0  0  0  0  0  0  0
   12.7431   -0.0808   27.3484 C   0  0  0  0  0  0  0  0  0  0  0  0
    7.2615   -5.5559   25.3795 C   0  0  0  0  0  0  0  0  0  0  0  0
    8.3042   -4.4055   27.3386 C   0  0  0  0  0  0  0  0  0  0  0  0
   11.2147   -0.2012   22.5629 C   0  0  0  0  0  0  0  0  0  0  0  0
    9.5820   -0.1080   22.7000 C   0  0  1  0  0  0  0  0  0  0  0  0
   13.6327   -1.0014   25.3047 N   0  0  0  0  0  0  0  0  0  0  0  0
    6.7100    0.3850   17.8100 N   0  0  0  0  0  0  0  0  0  0  0  0
   12.6546   -0.3228   25.9283 N   0  0  0  0  0  0  0  0  0  0  0  0
    7.2710   -0.1460   19.8310 N   0  0  0  0  0  0  0  0  0  0  0  0
    8.0950   -0.7700   20.8440 N   0  0  0  0  0  0  0  0  0  0  0  0
    7.9717   -4.4175   25.9277 N   0  0  0  0  0  0  0  0  0  0  0  0
    9.2950    1.3000   20.9480 O   0  0  0  0  0  0  0  0  0  0  0  0
    2.9844    2.6927   19.3613 H   0  0  0  0  0  0  0  0  0  0  0  0
    3.6214    2.0680   21.6561 H   0  0  0  0  0  0  0  0  0  0  0  0
   10.2684   -2.6719   22.3867 H   0  0  0  0  0  0  0  0  0  0  0  0
    7.8717   -0.0016   24.7596 H   0  0  0  0  0  0  0  0  0  0  0  0
    4.3780    2.0103   17.4276 H   0  0  0  0  0  0  0  0  0  0  0  0
    5.6758    0.7336   22.0897 H   0  0  0  0  0  0  0  0  0  0  0  0
    9.5443   -4.5616   23.7817 H   0  0  0  0  0  0  0  0  0  0  0  0
    7.1921   -1.8821   26.1908 H   0  0  0  0  0  0  0  0  0  0  0  0
   13.8362   -1.5269   23.2991 H   0  0  0  0  0  0  0  0  0  0  0  0
   10.7922    0.6307   25.4647 H   0  0  0  0  0  0  0  0  0  0  0  0
    8.4213   -0.8245   18.1548 H   0  0  0  0  0  0  0  0  0  0  0  0
   12.2620   -0.9164   27.8636 H   0  0  0  0  0  0  0  0  0  0  0  0
   13.7943   -0.0060   27.6402 H   0  0  0  0  0  0  0  0  0  0  0  0
   12.2374    0.8590   27.5870 H   0  0  0  0  0  0  0  0  0  0  0  0
    7.0604   -6.2833   26.1797 H   0  0  0  0  0  0  0  0  0  0  0  0
    6.3097   -5.2186   24.9432 H   0  0  0  0  0  0  0  0  0  0  0  0
    7.8751   -6.0296   24.5991 H   0  0  0  0  0  0  0  0  0  0  0  0
    7.9292   -5.3249   27.8120 H   0  0  0  0  0  0  0  0  0  0  0  0
    9.3964   -4.3513   27.4573 H   0  0  0  0  0  0  0  0  0  0  0  0
    7.8395   -3.5309   27.8172 H   0  0  0  0  0  0  0  0  0  0  0  0
   11.6025    0.6918   22.0532 H   0  0  0  0  0  0  0  0  0  0  0  0
   11.4368   -1.0349   21.8836 H   0  0  0  0  0  0  0  0  0  0  0  0
    9.5277    0.8495   23.3908 H   0  0  0  0  0  0  0  0  0  0  0  0
    8.1074   -1.6160   21.1028 H   0  0  0  0  0  0  0  0  0  0  0  0
  1  2  1  0  0  0  0
  1  5  2  0  0  0  0
  2  6  2  0  0  0  0
  3  7  2  0  0  0  0
  3 12  1  0  0  0  0
  4  8  1  0  0  0  0
  4 12  2  0  0  0  0
  5 14  1  0  0  0  0
  6 15  1  0  0  0  0
  7 16  1  0  0  0  0
  8 16  2  0  0  0  0
  9 13  1  0  0  0  0
  9 23  2  0  0  0  0
 10 13  2  0  0  0  0
 10 25  1  0  0  0  0
 11 24  2  0  0  0  0
 11 26  1  0  0  0  0
 12 22  1  0  0  0  0
 13 21  1  0  0  0  0
 14 15  2  0  0  0  0
 14 24  1  0  0  0  0
 15 26  1  0  0  0  0
 16 28  1  0  0  0  0
 17 22  1  0  0  0  0
 17 27  1  0  0  0  0
 17 29  2  0  0  0  0
 18 25  1  0  0  0  0
 19 28  1  0  0  0  0
 20 28  1  0  0  0  0
 21 22  1  1  0  0  0
 23 25  1  0  0  0  0
 26 27  1  0  0  0  0
  1 30  1  0  0  0  0
  2 31  1  0  0  0  0
  3 32  1  0  0  0  0
  4 33  1  0  0  0  0
  5 34  1  0  0  0  0
  6 35  1  0  0  0  0
  7 36  1  0  0  0  0
  8 37  1  0  0  0  0
  9 38  1  0  0  0  0
 10 39  1  0  0  0  0
 11 40  1  0  0  0  0
 18 41  1  0  0  0  0
 18 42  1  0  0  0  0
 18 43  1  0  0  0  0
 19 44  1  0  0  0  0
 19 45  1  0  0  0  0
 19 46  1  0  0  0  0
 20 47  1  0  0  0  0
 20 48  1  0  0  0  0
 20 49  1  0  0  0  0
 21 50  1  0  0  0  0
 21 51  1  0  0  0  0
 22 52  1  0  0  0  0
 27 53  1  0  0  0  0
M  END
> <clash_score>
0

> <docking_score>
-6.023855209350586

> <overlap_score>
0.8792216181755066

$$$$
BENZO_199_2
  -OEChem-08232013533D

 53 56  0     1  0  0  0  0  0999 V2000
    3.8860    2.1050   19.5250 C   0  0  0  0  0  0  0  0  0  0  0  0
    4.2460    1.7520   20.8250 C   0  0  0  0  0  0  0  0  0  0  0  0
    9.5890   -2.4950   23.2210 C   0  0  0  0  0  0  0  0  0  0  0  0
    8.2550   -1.0010   24.5520 C   0  0  0  0  0  0  0  0  0  0  0  0
    4.6610    1.7170   18.4380 C   0  0  0  0  0  0  0  0  0  0  0  0
    5.3890    1.0010   21.0690 C   0  0  0  0  0  0  0  0  0  0  0  0
    9.1890   -3.5540   24.0140 C   0  0  0  0  0  0  0  0  0  0  0  0
    7.8700   -2.0610   25.3550 C   0  0  0  0  0  0  0  0  0  0  0  0
   12.0261    0.4217   24.4676 C   0  0  0  0  0  0  0  0  0  0  0  0
   10.8915    1.6496   25.8958 C   0  0  0  0  0  0  0  0  0  0  0  0
    7.5840   -0.2700   18.5160 C   0  0  0  0  0  0  0  0  0  0  0  0
    9.1280   -1.2090   23.4870 C   0  0  0  0  0  0  0  0  0  0  0  0
   10.8079    1.1067   24.6370 C   0  0  0  0  0  0  0  0  0  0  0  0
    5.7970    0.9500   18.6730 C   0  0  0  0  0  0  0  0  0  0  0  0
    6.1460    0.6070   19.9750 C   0  0  0  0  0  0  0  0  0  0  0  0
    8.3450   -3.3440   25.0980 C   0  0  0  0  0  0  0  0  0  0  0  0
    9.0430    0.2380   21.4940 C   0  0  0  0  0  0  0  0  0  0  0  0
   12.6499    1.6036   27.6803 C   0  0  0  0  0  0  0  0  0  0  0  0
    7.2615   -5.5559   25.3795 C   0  0  0  0  0  0  0  0  0  0  0  0
    8.3042   -4.4055   27.3386 C   0  0  0  0  0  0  0  0  0  0  0  0
    9.6654    1.2227   23.6555 C   0  0  0  0  0  0  0  0  0  0  0  0
    9.5820   -0.1080   22.7000 C   0  0  2  0  0  0  0  0  0  0  0  0
   12.8250    0.5191   25.5335 N   0  0  0  0  0  0  0  0  0  0  0  0
    6.7100    0.3850   17.8100 N   0  0  0  0  0  0  0  0  0  0  0  0
   12.1074    1.2718   26.3847 N   0  0  0  0  0  0  0  0  0  0  0  0
    7.2710   -0.1460   19.8310 N   0  0  0  0  0  0  0  0  0  0  0  0
    8.0950   -0.7700   20.8440 N   0  0  0  0  0  0  0  0  0  0  0  0
    7.9717   -4.4175   25.9277 N   0  0  0  0  0  0  0  0  0  0  0  0
    9.2950    1.3000   20.9480 O   0  0  0  0  0  0  0  0  0  0  0  0
    2.9844    2.6927   19.3613 H   0  0  0  0  0  0  0  0  0  0  0  0
    3.6214    2.0680   21.6561 H   0  0  0  0  0  0  0  0  0  0  0  0
   10.2684   -2.6719   22.3867 H   0  0  0  0  0  0  0  0  0  0  0  0
    7.8717   -0.0016   24.7596 H   0  0  0  0  0  0  0  0  0  0  0  0
    4.3780    2.0103   17.4276 H   0  0  0  0  0  0  0  0  0  0  0  0
    5.6758    0.7336   22.0897 H   0  0  0  0  0  0  0  0  0  0  0  0
    9.5443   -4.5616   23.7817 H   0  0  0  0  0  0  0  0  0  0  0  0
    7.1921   -1.8821   26.1908 H   0  0  0  0  0  0  0  0  0  0  0  0
   12.3675   -0.1444   23.6125 H   0  0  0  0  0  0  0  0  0  0  0  0
   10.2069    2.2586   26.4706 H   0  0  0  0  0  0  0  0  0  0  0  0
    8.4213   -0.8245   18.1548 H   0  0  0  0  0  0  0  0  0  0  0  0
   12.3491    0.8215   28.3823 H   0  0  0  0  0  0  0  0  0  0  0  0
   13.7401    1.6599   27.6150 H   0  0  0  0  0  0  0  0  0  0  0  0
   12.2595    2.5745   27.9977 H   0  0  0  0  0  0  0  0  0  0  0  0
    7.0604   -6.2833   26.1797 H   0  0  0  0  0  0  0  0  0  0  0  0
    6.3097   -5.2186   24.9432 H   0  0  0  0  0  0  0  0  0  0  0  0
    7.8751   -6.0296   24.5991 H   0  0  0  0  0  0  0  0  0  0  0  0
    7.9292   -5.3249   27.8120 H   0  0  0  0  0  0  0  0  0  0  0  0
    9.3964   -4.3513   27.4573 H   0  0  0  0  0  0  0  0  0  0  0  0
    7.8395   -3.5309   27.8172 H   0  0  0  0  0  0  0  0  0  0  0  0
    8.7459    1.4099   24.2274 H   0  0  0  0  0  0  0  0  0  0  0  0
    9.8015    2.1185   23.0351 H   0  0  0  0  0  0  0  0  0  0  0  0
   10.7408   -0.2662   22.5300 H   0  0  0  0  0  0  0  0  0  0  0  0
    8.1074   -1.6160   21.1028 H   0  0  0  0  0  0  0  0  0  0  0  0
  1  2  1  0  0  0  0
  1  5  2  0  0  0  0
  2  6  2  0  0  0  0
  3  7  2  0  0  0  0
  3 12  1  0  0  0  0
  4  8  1  0  0  0  0
  4 12  2  0  0  0  0
  5 14  1  0  0  0  0
  6 15  1  0  0  0  0
  7 16  1  0  0  0  0
  8 16  2  0  0  0  0
  9 13  1  0  0  0  0
  9 23  2  0  0  0  0
 10 13  2  0  0  0  0
 10 25  1  0  0  0  0
 11 24  2  0  0  0  0
 11 26  1  0  0  0  0
 12 22  1  0  0  0  0
 13 21  1  0  0  0  0
 14 15  2  0  0  0  0
 14 24  1  0  0  0  0
 15 26  1  0  0  0  0
 16 28  1  0  0  0  0
 17 22  1  0  0  0  0
 17 27  1  0  0  0  0
 17 29  2  0  0  0  0
 18 25  1  0  0  0  0
 19 28  1  0  0  0  0
 20 28  1  0  0  0  0
 21 22  1  6  0  0  0
 23 25  1  0  0  0  0
 26 27  1  0  0  0  0
  1 30  1  0  0  0  0
  2 31  1  0  0  0  0
  3 32  1  0  0  0  0
  4 33  1  0  0  0  0
  5 34  1  0  0  0  0
  6 35  1  0  0  0  0
  7 36  1  0  0  0  0
  8 37  1  0  0  0  0
  9 38  1  0  0  0  0
 10 39  1  0  0  0  0
 11 40  1  0  0  0  0
 18 41  1  0  0  0  0
 18 42  1  0  0  0  0
 18 43  1  0  0  0  0
 19 44  1  0  0  0  0
 19 45  1  0  0  0  0
 19 46  1  0  0  0  0
 20 47  1  0  0  0  0
 20 48  1  0  0  0  0
 20 49  1  0  0  0  0
 21 50  1  0  0  0  0
 21 51  1  0  0  0  0
 22 52  1  0  0  0  0
 27 53  1  0  0  0  0
M  END
> <clash_score>
2.853629731621518

> <docking_score>
-3.7443466186523438

> <overlap_score>
0.8074793219566345

$$$$
BENZO_198_2
  -OEChem-08232013533D

 53 56  0     1  0  0  0  0  0999 V2000
    3.8860    2.1050   19.5250 C   0  0  0  0  0  0  0  0  0  0  0  0
    4.2460    1.7520   20.8250 C   0  0  0  0  0  0  0  0  0  0  0  0
   11.7758    1.6198   26.7903 C   0  0  0  0  0  0  0  0  0  0  0  0
   10.7217    1.7274   25.8831 C   0  0  0  0  0  0  0  0  0  0  0  0
    9.5890   -2.4950   23.2210 C   0  0  0  0  0  0  0  0  0  0  0  0
    8.2550   -1.0010   24.5520 C   0  0  0  0  0  0  0  0  0  0  0  0
    4.6610    1.7170   18.4380 C   0  0  0  0  0  0  0  0  0  0  0  0
    5.3890    1.0010   21.0690 C   0  0  0  0  0  0  0  0  0  0  0  0
    9.1890   -3.5540   24.0140 C   0  0  0  0  0  0  0  0  0  0  0  0
    7.8700   -2.0610   25.3550 C   0  0  0  0  0  0  0  0  0  0  0  0
   12.9162    0.8915   26.4512 C   0  0  0  0  0  0  0  0  0  0  0  0
   11.9483    0.3784   24.2979 C   0  0  0  0  0  0  0  0  0  0  0  0
    7.5840   -0.2700   18.5160 C   0  0  0  0  0  0  0  0  0  0  0  0
    9.1280   -1.2090   23.4870 C   0  0  0  0  0  0  0  0  0  0  0  0
   10.8079    1.1067   24.6370 C   0  0  0  0  0  0  0  0  0  0  0  0
    5.7970    0.9500   18.6730 C   0  0  0  0  0  0  0  0  0  0  0  0
    6.1460    0.6070   19.9750 C   0  0  0  0  0  0  0  0  0  0  0  0
    8.3450   -3.3440   25.0980 C   0  0  0  0  0  0  0  0  0  0  0  0
   13.0024    0.2709   25.2050 C   0  0  0  0  0  0  0  0  0  0  0  0
    9.0430    0.2380   21.4940 C   0  0  0  0  0  0  0  0  0  0  0  0
    8.4628   -5.7551   25.6621 C   0  0  0  0  0  0  0  0  0  0  0  0
    7.1023   -4.1978   27.0666 C   0  0  0  0  0  0  0  0  0  0  0  0
    9.6654    1.2227   23.6555 C   0  0  0  0  0  0  0  0  0  0  0  0
    9.5820   -0.1080   22.7000 C   0  0  2  0  0  0  0  0  0  0  0  0
    6.7100    0.3850   17.8100 N   0  0  0  0  0  0  0  0  0  0  0  0
    7.2710   -0.1460   19.8310 N   0  0  0  0  0  0  0  0  0  0  0  0
    8.0950   -0.7700   20.8440 N   0  0  0  0  0  0  0  0  0  0  0  0
    7.9717   -4.4175   25.9277 N   0  0  0  0  0  0  0  0  0  0  0  0
    9.2950    1.3000   20.9480 O   0  0  0  0  0  0  0  0  0  0  0  0
   14.4091   -0.6285   24.7878 Cl  0  0  0  0  0  0  0  0  0  0  0  0
    2.9844    2.6927   19.3613 H   0  0  0  0  0  0  0  0  0  0  0  0
    3.6214    2.0680   21.6561 H   0  0  0  0  0  0  0  0  0  0  0  0
   11.7082    2.1031   27.7606 H   0  0  0  0  0  0  0  0  0  0  0  0
    9.8369    2.2967   26.1558 H   0  0  0  0  0  0  0  0  0  0  0  0
   10.2684   -2.6719   22.3867 H   0  0  0  0  0  0  0  0  0  0  0  0
    7.8717   -0.0016   24.7596 H   0  0  0  0  0  0  0  0  0  0  0  0
    4.3780    2.0103   17.4276 H   0  0  0  0  0  0  0  0  0  0  0  0
    5.6758    0.7336   22.0897 H   0  0  0  0  0  0  0  0  0  0  0  0
    9.5443   -4.5616   23.7817 H   0  0  0  0  0  0  0  0  0  0  0  0
    7.1921   -1.8821   26.1908 H   0  0  0  0  0  0  0  0  0  0  0  0
   13.7299    0.8159   27.1683 H   0  0  0  0  0  0  0  0  0  0  0  0
   12.0109   -0.1032   23.3248 H   0  0  0  0  0  0  0  0  0  0  0  0
    8.4213   -0.8245   18.1548 H   0  0  0  0  0  0  0  0  0  0  0  0
    8.0618   -6.4497   26.4150 H   0  0  0  0  0  0  0  0  0  0  0  0
    8.1377   -6.0727   24.6604 H   0  0  0  0  0  0  0  0  0  0  0  0
    9.5618   -5.7582   25.7091 H   0  0  0  0  0  0  0  0  0  0  0  0
    6.9283   -5.1522   27.5852 H   0  0  0  0  0  0  0  0  0  0  0  0
    7.5769   -3.4861   27.7581 H   0  0  0  0  0  0  0  0  0  0  0  0
    6.1418   -3.7881   26.7208 H   0  0  0  0  0  0  0  0  0  0  0  0
    8.7459    1.4099   24.2274 H   0  0  0  0  0  0  0  0  0  0  0  0
    9.8015    2.1185   23.0351 H   0  0  0  0  0  0  0  0  0  0  0  0
   10.7408   -0.2662   22.5300 H   0  0  0  0  0  0  0  0  0  0  0  0
    8.1074   -1.6160   21.1028 H   0  0  0  0  0  0  0  0  0  0  0  0
  1  2  1  0  0  0  0
  1  7  2  0  0  0  0
  2  8  2  0  0  0  0
  3  4  2  0  0  0  0
  3 11  1  0  0  0  0
  4 15  1  0  0  0  0
  5  9  2  0  0  0  0
  5 14  1  0  0  0  0
  6 10  1  0  0  0  0
  6 14  2  0  0  0  0
  7 16  1  0  0  0  0
  8 17  1  0  0  0  0
  9 18  1  0  0  0  0
 10 18  2  0  0  0  0
 11 19  2  0  0  0  0
 12 15  2  0  0  0  0
 12 19  1  0  0  0  0
 13 25  2  0  0  0  0
 13 26  1  0  0  0  0
 14 24  1  0  0  0  0
 15 23  1  0  0  0  0
 16 17  2  0  0  0  0
 16 25  1  0  0  0  0
 17 26  1  0  0  0  0
 18 28  1  0  0  0  0
 19 30  1  0  0  0  0
 20 24  1  0  0  0  0
 20 27  1  0  0  0  0
 20 29  2  0  0  0  0
 21 28  1  0  0  0  0
 22 28  1  0  0  0  0
 23 24  1  6  0  0  0
 26 27  1  0  0  0  0
  1 31  1  0  0  0  0
  2 32  1  0  0  0  0
  3 33  1  0  0  0  0
  4 34  1  0  0  0  0
  5 35  1  0  0  0  0
  6 36  1  0  0  0  0
  7 37  1  0  0  0  0
  8 38  1  0  0  0  0
  9 39  1  0  0  0  0
 10 40  1  0  0  0  0
 11 41  1  0  0  0  0
 12 42  1  0  0  0  0
 13 43  1  0  0  0  0
 21 44  1  0  0  0  0
 21 45  1  0  0  0  0
 21 46  1  0  0  0  0
 22 47  1  0  0  0  0
 22 48  1  0  0  0  0
 22 49  1  0  0  0  0
 23 50  1  0  0  0  0
 23 51  1  0  0  0  0
 24 52  1  0  0  0  0
 27 53  1  0  0  0  0
M  END
> <clash_score>
4.085678172074543

> <docking_score>
-4.08158540725708

> <overlap_score>
0.8163738250732422

$$$$
BENZO_201_2
  -OEChem-08232013533D

 55 58  0     1  0  0  0  0  0999 V2000
   12.7150    3.9139   22.2588 C   0  0  0  0  0  0  0  0  0  0  0  0
   13.0320    2.9226   23.1875 C   0  0  0  0  0  0  0  0  0  0  0  0
   11.4089    4.0323   21.7835 C   0  0  0  0  0  0  0  0  0  0  0  0
    3.8860    2.1050   19.5250 C   0  0  0  0  0  0  0  0  0  0  0  0
    4.2460    1.7520   20.8250 C   0  0  0  0  0  0  0  0  0  0  0  0
   12.0430    2.0496   23.6407 C   0  0  0  0  0  0  0  0  0  0  0  0
   10.4200    3.1593   22.2367 C   0  0  0  0  0  0  0  0  0  0  0  0
    9.5890   -2.4950   23.2210 C   0  0  0  0  0  0  0  0  0  0  0  0
    8.2550   -1.0010   24.5520 C   0  0  0  0  0  0  0  0  0  0  0  0
    4.6610    1.7170   18.4380 C   0  0  0  0  0  0  0  0  0  0  0  0
    5.3890    1.0010   21.0690 C   0  0  0  0  0  0  0  0  0  0  0  0
    9.1890   -3.5540   24.0140 C   0  0  0  0  0  0  0  0  0  0  0  0
    7.8700   -2.0610   25.3550 C   0  0  0  0  0  0  0  0  0  0  0  0
    7.5840   -0.2700   18.5160 C   0  0  0  0  0  0  0  0  0  0  0  0
   10.7369    2.1679   23.1653 C   0  0  0  0  0  0  0  0  0  0  0  0
    9.1280   -1.2090   23.4870 C   0  0  0  0  0  0  0  0  0  0  0  0
    5.7970    0.9500   18.6730 C   0  0  0  0  0  0  0  0  0  0  0  0
    6.1460    0.6070   19.9750 C   0  0  0  0  0  0  0  0  0  0  0  0
    8.3450   -3.3440   25.0980 C   0  0  0  0  0  0  0  0  0  0  0  0
    8.2024   -4.5567   27.2976 C   0  0  0  0  0  0  0  0  0  0  0  0
    9.0430    0.2380   21.4940 C   0  0  0  0  0  0  0  0  0  0  0  0
    7.8884   -6.0886   29.2877 C   0  0  0  0  0  0  0  0  0  0  0  0
    9.6654    1.2227   23.6555 C   0  0  0  0  0  0  0  0  0  0  0  0
    7.6340   -5.8731   27.8066 C   0  0  0  0  0  0  0  0  0  0  0  0
    9.5820   -0.1080   22.7000 C   0  0  2  0  0  0  0  0  0  0  0  0
    6.7100    0.3850   17.8100 N   0  0  0  0  0  0  0  0  0  0  0  0
    7.2710   -0.1460   19.8310 N   0  0  0  0  0  0  0  0  0  0  0  0
    7.9771   -4.4057   25.9197 N   0  0  0  0  0  0  0  0  0  0  0  0
    8.0950   -0.7700   20.8440 N   0  0  0  0  0  0  0  0  0  0  0  0
    8.7745   -3.7650   28.0394 O   0  0  0  0  0  0  0  0  0  0  0  0
    9.2950    1.3000   20.9480 O   0  0  0  0  0  0  0  0  0  0  0  0
   13.4849    4.5944   21.9071 H   0  0  0  0  0  0  0  0  0  0  0  0
   14.0486    2.8309   23.5586 H   0  0  0  0  0  0  0  0  0  0  0  0
   11.1616    4.8047   21.0613 H   0  0  0  0  0  0  0  0  0  0  0  0
    2.9844    2.6927   19.3613 H   0  0  0  0  0  0  0  0  0  0  0  0
    3.6214    2.0680   21.6561 H   0  0  0  0  0  0  0  0  0  0  0  0
   12.2992    1.2800   24.3642 H   0  0  0  0  0  0  0  0  0  0  0  0
    9.4052    3.2589   21.8606 H   0  0  0  0  0  0  0  0  0  0  0  0
   10.2695   -2.6718   22.3873 H   0  0  0  0  0  0  0  0  0  0  0  0
    7.8712   -0.0014   24.7587 H   0  0  0  0  0  0  0  0  0  0  0  0
    4.3780    2.0103   17.4276 H   0  0  0  0  0  0  0  0  0  0  0  0
    5.6758    0.7336   22.0897 H   0  0  0  0  0  0  0  0  0  0  0  0
    9.5431   -4.5618   23.7801 H   0  0  0  0  0  0  0  0  0  0  0  0
    7.1923   -1.8823   26.1912 H   0  0  0  0  0  0  0  0  0  0  0  0
    8.4213   -0.8245   18.1548 H   0  0  0  0  0  0  0  0  0  0  0  0
    8.9611   -6.0840   29.5072 H   0  0  0  0  0  0  0  0  0  0  0  0
    7.4778   -7.0508   29.6088 H   0  0  0  0  0  0  0  0  0  0  0  0
    7.4200   -5.3000   29.8858 H   0  0  0  0  0  0  0  0  0  0  0  0
    9.8736    0.9928   24.7097 H   0  0  0  0  0  0  0  0  0  0  0  0
    8.6951    1.7368   23.6631 H   0  0  0  0  0  0  0  0  0  0  0  0
    6.5546   -5.8823   27.6161 H   0  0  0  0  0  0  0  0  0  0  0  0
    8.0868   -6.6914   27.2350 H   0  0  0  0  0  0  0  0  0  0  0  0
   10.7408   -0.2662   22.5300 H   0  0  0  0  0  0  0  0  0  0  0  0
    7.4775   -5.1796   25.4663 H   0  0  0  0  0  0  0  0  0  0  0  0
    8.1074   -1.6160   21.1028 H   0  0  0  0  0  0  0  0  0  0  0  0
  1  2  1  0  0  0  0
  1  3  2  0  0  0  0
  2  6  2  0  0  0  0
  3  7  1  0  0  0  0
  4  5  1  0  0  0  0
  4 10  2  0  0  0  0
  5 11  2  0  0  0  0
  6 15  1  0  0  0  0
  7 15  2  0  0  0  0
  8 12  2  0  0  0  0
  8 16  1  0  0  0  0
  9 13  1  0  0  0  0
  9 16  2  0  0  0  0
 10 17  1  0  0  0  0
 11 18  1  0  0  0  0
 12 19  1  0  0  0  0
 13 19  2  0  0  0  0
 14 26  2  0  0  0  0
 14 27  1  0  0  0  0
 15 23  1  0  0  0  0
 16 25  1  0  0  0  0
 17 18  2  0  0  0  0
 17 26  1  0  0  0  0
 18 27  1  0  0  0  0
 19 28  1  0  0  0  0
 20 24  1  0  0  0  0
 20 28  1  0  0  0  0
 20 30  2  0  0  0  0
 21 25  1  0  0  0  0
 21 29  1  0  0  0  0
 21 31  2  0  0  0  0
 22 24  1  0  0  0  0
 23 25  1  6  0  0  0
 27 29  1  0  0  0  0
  1 32  1  0  0  0  0
  2 33  1  0  0  0  0
  3 34  1  0  0  0  0
  4 35  1  0  0  0  0
  5 36  1  0  0  0  0
  6 37  1  0  0  0  0
  7 38  1  0  0  0  0
  8 39  1  0  0  0  0
  9 40  1  0  0  0  0
 10 41  1  0  0  0  0
 11 42  1  0  0  0  0
 12 43  1  0  0  0  0
 13 44  1  0  0  0  0
 14 45  1  0  0  0  0
 22 46  1  0  0  0  0
 22 47  1  0  0  0  0
 22 48  1  0  0  0  0
 23 49  1  0  0  0  0
 23 50  1  0  0  0  0
 24 51  1  0  0  0  0
 24 52  1  0  0  0  0
 25 53  1  0  0  0  0
 28 54  1  0  0  0  0
 29 55  1  0  0  0  0
M  END
> <clash_score>
0

> <docking_score>
-6.769433975219727

> <overlap_score>
0.8418617844581604

$$$$
BENZO_201_1
  -OEChem-08232013533D

 55 58  0     1  0  0  0  0  0999 V2000
   13.4143   -0.6944   26.2251 C   0  0  0  0  0  0  0  0  0  0  0  0
   13.9152   -1.2211   25.0346 C   0  0  0  0  0  0  0  0  0  0  0  0
   12.2000   -0.0079   26.2276 C   0  0  0  0  0  0  0  0  0  0  0  0
    3.8860    2.1050   19.5250 C   0  0  0  0  0  0  0  0  0  0  0  0
    4.2460    1.7520   20.8250 C   0  0  0  0  0  0  0  0  0  0  0  0
   13.2019   -1.0613   23.8466 C   0  0  0  0  0  0  0  0  0  0  0  0
   11.4867    0.1519   25.0397 C   0  0  0  0  0  0  0  0  0  0  0  0
    9.5890   -2.4950   23.2210 C   0  0  0  0  0  0  0  0  0  0  0  0
    8.2550   -1.0010   24.5520 C   0  0  0  0  0  0  0  0  0  0  0  0
    4.6610    1.7170   18.4380 C   0  0  0  0  0  0  0  0  0  0  0  0
    5.3890    1.0010   21.0690 C   0  0  0  0  0  0  0  0  0  0  0  0
    9.1890   -3.5540   24.0140 C   0  0  0  0  0  0  0  0  0  0  0  0
    7.8700   -2.0610   25.3550 C   0  0  0  0  0  0  0  0  0  0  0  0
    7.5840   -0.2700   18.5160 C   0  0  0  0  0  0  0  0  0  0  0  0
   11.9876   -0.3748   23.8491 C   0  0  0  0  0  0  0  0  0  0  0  0
    9.1280   -1.2090   23.4870 C   0  0  0  0  0  0  0  0  0  0  0  0
    5.7970    0.9500   18.6730 C   0  0  0  0  0  0  0  0  0  0  0  0
    6.1460    0.6070   19.9750 C   0  0  0  0  0  0  0  0  0  0  0  0
    8.3450   -3.3440   25.0980 C   0  0  0  0  0  0  0  0  0  0  0  0
    8.2024   -4.5567   27.2976 C   0  0  0  0  0  0  0  0  0  0  0  0
    9.0430    0.2380   21.4940 C   0  0  0  0  0  0  0  0  0  0  0  0
    7.8884   -6.0886   29.2877 C   0  0  0  0  0  0  0  0  0  0  0  0
   11.2147   -0.2012   22.5629 C   0  0  0  0  0  0  0  0  0  0  0  0
    7.6340   -5.8731   27.8066 C   0  0  0  0  0  0  0  0  0  0  0  0
    9.5820   -0.1080   22.7000 C   0  0  1  0  0  0  0  0  0  0  0  0
    6.7100    0.3850   17.8100 N   0  0  0  0  0  0  0  0  0  0  0  0
    7.2710   -0.1460   19.8310 N   0  0  0  0  0  0  0  0  0  0  0  0
    7.9771   -4.4057   25.9197 N   0  0  0  0  0  0  0  0  0  0  0  0
    8.0950   -0.7700   20.8440 N   0  0  0  0  0  0  0  0  0  0  0  0
    8.7745   -3.7650   28.0394 O   0  0  0  0  0  0  0  0  0  0  0  0
    9.2950    1.3000   20.9480 O   0  0  0  0  0  0  0  0  0  0  0  0
   13.9692   -0.8201   27.1503 H   0  0  0  0  0  0  0  0  0  0  0  0
   14.8601   -1.7566   25.0326 H   0  0  0  0  0  0  0  0  0  0  0  0
   11.8092    0.4013   27.1545 H   0  0  0  0  0  0  0  0  0  0  0  0
    2.9844    2.6927   19.3613 H   0  0  0  0  0  0  0  0  0  0  0  0
    3.6214    2.0680   21.6561 H   0  0  0  0  0  0  0  0  0  0  0  0
   13.6000   -1.4749   22.9238 H   0  0  0  0  0  0  0  0  0  0  0  0
   10.5416    0.6883   25.0512 H   0  0  0  0  0  0  0  0  0  0  0  0
   10.2695   -2.6718   22.3873 H   0  0  0  0  0  0  0  0  0  0  0  0
    7.8712   -0.0014   24.7587 H   0  0  0  0  0  0  0  0  0  0  0  0
    4.3780    2.0103   17.4276 H   0  0  0  0  0  0  0  0  0  0  0  0
    5.6758    0.7336   22.0897 H   0  0  0  0  0  0  0  0  0  0  0  0
    9.5431   -4.5618   23.7801 H   0  0  0  0  0  0  0  0  0  0  0  0
    7.1923   -1.8823   26.1912 H   0  0  0  0  0  0  0  0  0  0  0  0
    8.4213   -0.8245   18.1548 H   0  0  0  0  0  0  0  0  0  0  0  0
    8.9611   -6.0840   29.5072 H   0  0  0  0  0  0  0  0  0  0  0  0
    7.4778   -7.0508   29.6088 H   0  0  0  0  0  0  0  0  0  0  0  0
    7.4200   -5.3000   29.8858 H   0  0  0  0  0  0  0  0  0  0  0  0
   11.6025    0.6918   22.0532 H   0  0  0  0  0  0  0  0  0  0  0  0
   11.4368   -1.0349   21.8836 H   0  0  0  0  0  0  0  0  0  0  0  0
    6.5546   -5.8823   27.6161 H   0  0  0  0  0  0  0  0  0  0  0  0
    8.0868   -6.6914   27.2350 H   0  0  0  0  0  0  0  0  0  0  0  0
    9.5277    0.8495   23.3908 H   0  0  0  0  0  0  0  0  0  0  0  0
    7.4775   -5.1796   25.4663 H   0  0  0  0  0  0  0  0  0  0  0  0
    8.1074   -1.6160   21.1028 H   0  0  0  0  0  0  0  0  0  0  0  0
  1  2  1  0  0  0  0
  1  3  2  0  0  0  0
  2  6  2  0  0  0  0
  3  7  1  0  0  0  0
  4  5  1  0  0  0  0
  4 10  2  0  0  0  0
  5 11  2  0  0  0  0
  6 15  1  0  0  0  0
  7 15  2  0  0  0  0
  8 12  2  0  0  0  0
  8 16  1  0  0  0  0
  9 13  1  0  0  0  0
  9 16  2  0  0  0  0
 10 17  1  0  0  0  0
 11 18  1  0  0  0  0
 12 19  1  0  0  0  0
 13 19  2  0  0  0  0
 14 26  2  0  0  0  0
 14 27  1  0  0  0  0
 15 23  1  0  0  0  0
 16 25  1  0  0  0  0
 17 18  2  0  0  0  0
 17 26  1  0  0  0  0
 18 27  1  0  0  0  0
 19 28  1  0  0  0  0
 20 24  1  0  0  0  0
 20 28  1  0  0  0  0
 20 30  2  0  0  0  0
 21 25  1  0  0  0  0
 21 29  1  0  0  0  0
 21 31  2  0  0  0  0
 22 24  1  0  0  0  0
 23 25  1  1  0  0  0
 27 29  1  0  0  0  0
  1 32  1  0  0  0  0
  2 33  1  0  0  0  0
  3 34  1  0  0  0  0
  4 35  1  0  0  0  0
  5 36  1  0  0  0  0
  6 37  1  0  0  0  0
  7 38  1  0  0  0  0
  8 39  1  0  0  0  0
  9 40  1  0  0  0  0
 10 41  1  0  0  0  0
 11 42  1  0  0  0  0
 12 43  1  0  0  0  0
 13 44  1  0  0  0  0
 14 45  1  0  0  0  0
 22 46  1  0  0  0  0
 22 47  1  0  0  0  0
 22 48  1  0  0  0  0
 23 49  1  0  0  0  0
 23 50  1  0  0  0  0
 24 51  1  0  0  0  0
 24 52  1  0  0  0  0
 25 53  1  0  0  0  0
 28 54  1  0  0  0  0
 29 55  1  0  0  0  0
M  END
> <clash_score>
0

> <docking_score>
-6.6125078201293945

> <overlap_score>
0.9402921795845032

$$$$
BENZO_200_2
  -OEChem-08232013533D

 52 55  0     1  0  0  0  0  0999 V2000
    3.8860    2.1050   19.5250 C   0  0  0  0  0  0  0  0  0  0  0  0
    4.2460    1.7520   20.8250 C   0  0  0  0  0  0  0  0  0  0  0  0
    9.5890   -2.4950   23.2210 C   0  0  0  0  0  0  0  0  0  0  0  0
    8.2550   -1.0010   24.5520 C   0  0  0  0  0  0  0  0  0  0  0  0
    4.6610    1.7170   18.4380 C   0  0  0  0  0  0  0  0  0  0  0  0
    5.3890    1.0010   21.0690 C   0  0  0  0  0  0  0  0  0  0  0  0
    9.1890   -3.5540   24.0140 C   0  0  0  0  0  0  0  0  0  0  0  0
    7.8700   -2.0610   25.3550 C   0  0  0  0  0  0  0  0  0  0  0  0
   12.1596    0.8633   24.2577 C   0  0  0  0  0  0  0  0  0  0  0  0
   12.9999    0.8027   25.3475 C   0  0  0  0  0  0  0  0  0  0  0  0
   10.6666    1.2226   26.0024 C   0  0  0  0  0  0  0  0  0  0  0  0
    7.5840   -0.2700   18.5160 C   0  0  0  0  0  0  0  0  0  0  0  0
    9.1280   -1.2090   23.4870 C   0  0  0  0  0  0  0  0  0  0  0  0
   10.8079    1.1067   24.6370 C   0  0  0  0  0  0  0  0  0  0  0  0
    5.7970    0.9500   18.6730 C   0  0  0  0  0  0  0  0  0  0  0  0
    6.1460    0.6070   19.9750 C   0  0  0  0  0  0  0  0  0  0  0  0
    8.3450   -3.3440   25.0980 C   0  0  0  0  0  0  0  0  0  0  0  0
    8.2024   -4.5567   27.2976 C   0  0  0  0  0  0  0  0  0  0  0  0
    9.0430    0.2380   21.4940 C   0  0  0  0  0  0  0  0  0  0  0  0
    7.8884   -6.0886   29.2877 C   0  0  0  0  0  0  0  0  0  0  0  0
    9.6654    1.2227   23.6555 C   0  0  0  0  0  0  0  0  0  0  0  0
    7.6340   -5.8731   27.8066 C   0  0  0  0  0  0  0  0  0  0  0  0
    9.5820   -0.1080   22.7000 C   0  0  2  0  0  0  0  0  0  0  0  0
    6.7100    0.3850   17.8100 N   0  0  0  0  0  0  0  0  0  0  0  0
    7.2710   -0.1460   19.8310 N   0  0  0  0  0  0  0  0  0  0  0  0
    7.9771   -4.4057   25.9197 N   0  0  0  0  0  0  0  0  0  0  0  0
    8.0950   -0.7700   20.8440 N   0  0  0  0  0  0  0  0  0  0  0  0
    8.7745   -3.7650   28.0394 O   0  0  0  0  0  0  0  0  0  0  0  0
    9.2950    1.3000   20.9480 O   0  0  0  0  0  0  0  0  0  0  0  0
   12.1595    1.0385   26.8207 S   0  0  0  0  0  0  0  0  0  0  0  0
    2.9844    2.6927   19.3613 H   0  0  0  0  0  0  0  0  0  0  0  0
    3.6214    2.0680   21.6561 H   0  0  0  0  0  0  0  0  0  0  0  0
   10.2695   -2.6718   22.3873 H   0  0  0  0  0  0  0  0  0  0  0  0
    7.8712   -0.0014   24.7587 H   0  0  0  0  0  0  0  0  0  0  0  0
    4.3780    2.0103   17.4276 H   0  0  0  0  0  0  0  0  0  0  0  0
    5.6758    0.7336   22.0897 H   0  0  0  0  0  0  0  0  0  0  0  0
    9.5431   -4.5618   23.7801 H   0  0  0  0  0  0  0  0  0  0  0  0
    7.1923   -1.8823   26.1912 H   0  0  0  0  0  0  0  0  0  0  0  0
   12.5025    0.7379   23.2384 H   0  0  0  0  0  0  0  0  0  0  0  0
   14.0670    0.6304   25.3492 H   0  0  0  0  0  0  0  0  0  0  0  0
    9.7601    1.4054   26.5626 H   0  0  0  0  0  0  0  0  0  0  0  0
    8.4213   -0.8245   18.1548 H   0  0  0  0  0  0  0  0  0  0  0  0
    8.9611   -6.0840   29.5072 H   0  0  0  0  0  0  0  0  0  0  0  0
    7.4778   -7.0508   29.6088 H   0  0  0  0  0  0  0  0  0  0  0  0
    7.4200   -5.3000   29.8858 H   0  0  0  0  0  0  0  0  0  0  0  0
    8.7459    1.4099   24.2274 H   0  0  0  0  0  0  0  0  0  0  0  0
    9.8015    2.1185   23.0351 H   0  0  0  0  0  0  0  0  0  0  0  0
    6.5546   -5.8823   27.6161 H   0  0  0  0  0  0  0  0  0  0  0  0
    8.0868   -6.6914   27.2350 H   0  0  0  0  0  0  0  0  0  0  0  0
   10.7408   -0.2662   22.5300 H   0  0  0  0  0  0  0  0  0  0  0  0
    7.4775   -5.1796   25.4663 H   0  0  0  0  0  0  0  0  0  0  0  0
    8.1074   -1.6160   21.1028 H   0  0  0  0  0  0  0  0  0  0  0  0
  1  2  1  0  0  0  0
  1  5  2  0  0  0  0
  2  6  2  0  0  0  0
  3  7  2  0  0  0  0
  3 13  1  0  0  0  0
  4  8  1  0  0  0  0
  4 13  2  0  0  0  0
  5 15  1  0  0  0  0
  6 16  1  0  0  0  0
  7 17  1  0  0  0  0
  8 17  2  0  0  0  0
  9 10  2  0  0  0  0
  9 14  1  0  0  0  0
 10 30  1  0  0  0  0
 11 14  2  0  0  0  0
 11 30  1  0  0  0  0
 12 24  2  0  0  0  0
 12 25  1  0  0  0  0
 13 23  1  0  0  0  0
 14 21  1  0  0  0  0
 15 16  2  0  0  0  0
 15 24  1  0  0  0  0
 16 25  1  0  0  0  0
 17 26  1  0  0  0  0
 18 22  1  0  0  0  0
 18 26  1  0  0  0  0
 18 28  2  0  0  0  0
 19 23  1  0  0  0  0
 19 27  1  0  0  0  0
 19 29  2  0  0  0  0
 20 22  1  0  0  0  0
 21 23  1  6  0  0  0
 25 27  1  0  0  0  0
  1 31  1  0  0  0  0
  2 32  1  0  0  0  0
  3 33  1  0  0  0  0
  4 34  1  0  0  0  0
  5 35  1  0  0  0  0
  6 36  1  0  0  0  0
  7 37  1  0  0  0  0
  8 38  1  0  0  0  0
  9 39  1  0  0  0  0
 10 40  1  0  0  0  0
 11 41  1  0  0  0  0
 12 42  1  0  0  0  0
 20 43  1  0  0  0  0
 20 44  1  0  0  0  0
 20 45  1  0  0  0  0
 21 46  1  0  0  0  0
 21 47  1  0  0  0  0
 22 48  1  0  0  0  0
 22 49  1  0  0  0  0
 23 50  1  0  0  0  0
 26 51  1  0  0  0  0
 27 52  1  0  0  0  0
M  END
> <clash_score>
1.386676729289627

> <docking_score>
-5.1692094802856445

> <overlap_score>
0.8631071448326111

$$$$
BENZO_200_1
  -OEChem-08232013533D

 52 55  0     1  0  0  0  0  0999 V2000
    3.8860    2.1050   19.5250 C   0  0  0  0  0  0  0  0  0  0  0  0
    4.2460    1.7520   20.8250 C   0  0  0  0  0  0  0  0  0  0  0  0
    9.5890   -2.4950   23.2210 C   0  0  0  0  0  0  0  0  0  0  0  0
    8.2550   -1.0010   24.5520 C   0  0  0  0  0  0  0  0  0  0  0  0
    4.6610    1.7170   18.4380 C   0  0  0  0  0  0  0  0  0  0  0  0
    5.3890    1.0010   21.0690 C   0  0  0  0  0  0  0  0  0  0  0  0
    9.1890   -3.5540   24.0140 C   0  0  0  0  0  0  0  0  0  0  0  0
    7.8700   -2.0610   25.3550 C   0  0  0  0  0  0  0  0  0  0  0  0
   13.2367   -0.5537   24.1440 C   0  0  0  0  0  0  0  0  0  0  0  0
   13.7547   -0.1001   25.3371 C   0  0  0  0  0  0  0  0  0  0  0  0
   11.6391    1.0163   24.7648 C   0  0  0  0  0  0  0  0  0  0  0  0
    7.5840   -0.2700   18.5160 C   0  0  0  0  0  0  0  0  0  0  0  0
    9.1280   -1.2090   23.4870 C   0  0  0  0  0  0  0  0  0  0  0  0
   12.0113    0.0931   23.8123 C   0  0  0  0  0  0  0  0  0  0  0  0
    5.7970    0.9500   18.6730 C   0  0  0  0  0  0  0  0  0  0  0  0
    6.1460    0.6070   19.9750 C   0  0  0  0  0  0  0  0  0  0  0  0
    8.3450   -3.3440   25.0980 C   0  0  0  0  0  0  0  0  0  0  0  0
    7.6605   -4.3767   27.2875 C   0  0  0  0  0  0  0  0  0  0  0  0
    9.0430    0.2380   21.4940 C   0  0  0  0  0  0  0  0  0  0  0  0
    6.9959   -5.7809   29.2856 C   0  0  0  0  0  0  0  0  0  0  0  0
   11.2147   -0.2012   22.5629 C   0  0  0  0  0  0  0  0  0  0  0  0
    7.3112   -5.7658   27.8006 C   0  0  0  0  0  0  0  0  0  0  0  0
    9.5820   -0.1080   22.7000 C   0  0  1  0  0  0  0  0  0  0  0  0
    6.7100    0.3850   17.8100 N   0  0  0  0  0  0  0  0  0  0  0  0
    7.2710   -0.1460   19.8310 N   0  0  0  0  0  0  0  0  0  0  0  0
    7.9771   -4.4057   25.9197 N   0  0  0  0  0  0  0  0  0  0  0  0
    8.0950   -0.7700   20.8440 N   0  0  0  0  0  0  0  0  0  0  0  0
    7.6507   -3.3918   28.0185 O   0  0  0  0  0  0  0  0  0  0  0  0
    9.2950    1.3000   20.9480 O   0  0  0  0  0  0  0  0  0  0  0  0
   12.7651    1.1006   26.0522 S   0  0  0  0  0  0  0  0  0  0  0  0
    2.9844    2.6927   19.3613 H   0  0  0  0  0  0  0  0  0  0  0  0
    3.6214    2.0680   21.6561 H   0  0  0  0  0  0  0  0  0  0  0  0
   10.2695   -2.6718   22.3873 H   0  0  0  0  0  0  0  0  0  0  0  0
    7.8712   -0.0014   24.7587 H   0  0  0  0  0  0  0  0  0  0  0  0
    4.3780    2.0103   17.4276 H   0  0  0  0  0  0  0  0  0  0  0  0
    5.6758    0.7336   22.0897 H   0  0  0  0  0  0  0  0  0  0  0  0
    9.5431   -4.5618   23.7801 H   0  0  0  0  0  0  0  0  0  0  0  0
    7.1923   -1.8823   26.1912 H   0  0  0  0  0  0  0  0  0  0  0  0
   13.7173   -1.3138   23.5411 H   0  0  0  0  0  0  0  0  0  0  0  0
   14.6665   -0.4168   25.8235 H   0  0  0  0  0  0  0  0  0  0  0  0
   10.7604    1.6463   24.7706 H   0  0  0  0  0  0  0  0  0  0  0  0
    8.4213   -0.8245   18.1548 H   0  0  0  0  0  0  0  0  0  0  0  0
    7.8454   -5.4152   29.8718 H   0  0  0  0  0  0  0  0  0  0  0  0
    6.7652   -6.7984   29.6159 H   0  0  0  0  0  0  0  0  0  0  0  0
    6.1338   -5.1445   29.5109 H   0  0  0  0  0  0  0  0  0  0  0  0
   11.5664    0.4743   21.7706 H   0  0  0  0  0  0  0  0  0  0  0  0
   11.4535   -1.2106   22.2023 H   0  0  0  0  0  0  0  0  0  0  0  0
    6.4454   -6.1359   27.2395 H   0  0  0  0  0  0  0  0  0  0  0  0
    8.1569   -6.4335   27.5996 H   0  0  0  0  0  0  0  0  0  0  0  0
    9.5277    0.8495   23.3908 H   0  0  0  0  0  0  0  0  0  0  0  0
    7.9296   -5.3297   25.4748 H   0  0  0  0  0  0  0  0  0  0  0  0
    8.1074   -1.6160   21.1028 H   0  0  0  0  0  0  0  0  0  0  0  0
  1  2  1  0  0  0  0
  1  5  2  0  0  0  0
  2  6  2  0  0  0  0
  3  7  2  0  0  0  0
  3 13  1  0  0  0  0
  4  8  1  0  0  0  0
  4 13  2  0  0  0  0
  5 15  1  0  0  0  0
  6 16  1  0  0  0  0
  7 17  1  0  0  0  0
  8 17  2  0  0  0  0
  9 10  2  0  0  0  0
  9 14  1  0  0  0  0
 10 30  1  0  0  0  0
 11 14  2  0  0  0  0
 11 30  1  0  0  0  0
 12 24  2  0  0  0  0
 12 25  1  0  0  0  0
 13 23  1  0  0  0  0
 14 21  1  0  0  0  0
 15 16  2  0  0  0  0
 15 24  1  0  0  0  0
 16 25  1  0  0  0  0
 17 26  1  0  0  0  0
 18 22  1  0  0  0  0
 18 26  1  0  0  0  0
 18 28  2  0  0  0  0
 19 23  1  0  0  0  0
 19 27  1  0  0  0  0
 19 29  2  0  0  0  0
 20 22  1  0  0  0  0
 21 23  1  1  0  0  0
 25 27  1  0  0  0  0
  1 31  1  0  0  0  0
  2 32  1  0  0  0  0
  3 33  1  0  0  0  0
  4 34  1  0  0  0  0
  5 35  1  0  0  0  0
  6 36  1  0  0  0  0
  7 37  1  0  0  0  0
  8 38  1  0  0  0  0
  9 39  1  0  0  0  0
 10 40  1  0  0  0  0
 11 41  1  0  0  0  0
 12 42  1  0  0  0  0
 20 43  1  0  0  0  0
 20 44  1  0  0  0  0
 20 45  1  0  0  0  0
 21 46  1  0  0  0  0
 21 47  1  0  0  0  0
 22 48  1  0  0  0  0
 22 49  1  0  0  0  0
 23 50  1  0  0  0  0
 26 51  1  0  0  0  0
 27 52  1  0  0  0  0
M  END
> <clash_score>
0.721121872360026

> <docking_score>
-7.270628929138184

> <overlap_score>
0.9143284559249878

$$$$
BENZO_202_1
  -OEChem-08232013533D

 55 58  0     1  0  0  0  0  0999 V2000
    3.8860    2.1050   19.5250 C   0  0  0  0  0  0  0  0  0  0  0  0
    4.2460    1.7520   20.8250 C   0  0  0  0  0  0  0  0  0  0  0  0
   13.9169   -1.2205   25.0322 C   0  0  0  0  0  0  0  0  0  0  0  0
   13.2022   -1.0608   23.8451 C   0  0  0  0  0  0  0  0  0  0  0  0
    9.5890   -2.4950   23.2210 C   0  0  0  0  0  0  0  0  0  0  0  0
    8.2550   -1.0010   24.5520 C   0  0  0  0  0  0  0  0  0  0  0  0
    4.6610    1.7170   18.4380 C   0  0  0  0  0  0  0  0  0  0  0  0
    5.3890    1.0010   21.0690 C   0  0  0  0  0  0  0  0  0  0  0  0
    9.1890   -3.5540   24.0140 C   0  0  0  0  0  0  0  0  0  0  0  0
    7.8700   -2.0610   25.3550 C   0  0  0  0  0  0  0  0  0  0  0  0
   13.4171   -0.6943   26.2234 C   0  0  0  0  0  0  0  0  0  0  0  0
   11.4878    0.1514   25.0404 C   0  0  0  0  0  0  0  0  0  0  0  0
    7.5840   -0.2700   18.5160 C   0  0  0  0  0  0  0  0  0  0  0  0
    9.1280   -1.2090   23.4870 C   0  0  0  0  0  0  0  0  0  0  0  0
   11.9876   -0.3748   23.8491 C   0  0  0  0  0  0  0  0  0  0  0  0
    5.7970    0.9500   18.6730 C   0  0  0  0  0  0  0  0  0  0  0  0
    6.1460    0.6070   19.9750 C   0  0  0  0  0  0  0  0  0  0  0  0
    8.3450   -3.3440   25.0980 C   0  0  0  0  0  0  0  0  0  0  0  0
   12.2026   -0.0084   26.2275 C   0  0  0  0  0  0  0  0  0  0  0  0
    8.2024   -4.5567   27.2976 C   0  0  0  0  0  0  0  0  0  0  0  0
    9.0430    0.2380   21.4940 C   0  0  0  0  0  0  0  0  0  0  0  0
    7.8884   -6.0886   29.2877 C   0  0  0  0  0  0  0  0  0  0  0  0
   11.2147   -0.2012   22.5629 C   0  0  0  0  0  0  0  0  0  0  0  0
    7.6340   -5.8731   27.8066 C   0  0  0  0  0  0  0  0  0  0  0  0
    9.5820   -0.1080   22.7000 C   0  0  1  0  0  0  0  0  0  0  0  0
    6.7100    0.3850   17.8100 N   0  0  0  0  0  0  0  0  0  0  0  0
    7.2710   -0.1460   19.8310 N   0  0  0  0  0  0  0  0  0  0  0  0
    7.9771   -4.4057   25.9197 N   0  0  0  0  0  0  0  0  0  0  0  0
    8.0950   -0.7700   20.8440 N   0  0  0  0  0  0  0  0  0  0  0  0
    8.7745   -3.7650   28.0394 O   0  0  0  0  0  0  0  0  0  0  0  0
    9.2950    1.3000   20.9480 O   0  0  0  0  0  0  0  0  0  0  0  0
   11.5870    0.6416   27.6973 Cl  0  0  0  0  0  0  0  0  0  0  0  0
    2.9844    2.6927   19.3613 H   0  0  0  0  0  0  0  0  0  0  0  0
    3.6214    2.0680   21.6561 H   0  0  0  0  0  0  0  0  0  0  0  0
   14.8627   -1.7546   25.0285 H   0  0  0  0  0  0  0  0  0  0  0  0
   13.5992   -1.4740   22.9215 H   0  0  0  0  0  0  0  0  0  0  0  0
   10.2695   -2.6718   22.3873 H   0  0  0  0  0  0  0  0  0  0  0  0
    7.8712   -0.0014   24.7587 H   0  0  0  0  0  0  0  0  0  0  0  0
    4.3780    2.0103   17.4276 H   0  0  0  0  0  0  0  0  0  0  0  0
    5.6758    0.7336   22.0897 H   0  0  0  0  0  0  0  0  0  0  0  0
    9.5431   -4.5618   23.7801 H   0  0  0  0  0  0  0  0  0  0  0  0
    7.1923   -1.8823   26.1912 H   0  0  0  0  0  0  0  0  0  0  0  0
   13.9851   -0.8262   27.1411 H   0  0  0  0  0  0  0  0  0  0  0  0
   10.5401    0.6850   25.0384 H   0  0  0  0  0  0  0  0  0  0  0  0
    8.4213   -0.8245   18.1548 H   0  0  0  0  0  0  0  0  0  0  0  0
    8.9611   -6.0840   29.5072 H   0  0  0  0  0  0  0  0  0  0  0  0
    7.4778   -7.0508   29.6088 H   0  0  0  0  0  0  0  0  0  0  0  0
    7.4200   -5.3000   29.8858 H   0  0  0  0  0  0  0  0  0  0  0  0
   11.6025    0.6918   22.0532 H   0  0  0  0  0  0  0  0  0  0  0  0
   11.4368   -1.0349   21.8836 H   0  0  0  0  0  0  0  0  0  0  0  0
    6.5546   -5.8823   27.6161 H   0  0  0  0  0  0  0  0  0  0  0  0
    8.0868   -6.6914   27.2350 H   0  0  0  0  0  0  0  0  0  0  0  0
    9.5277    0.8495   23.3908 H   0  0  0  0  0  0  0  0  0  0  0  0
    7.4775   -5.1796   25.4663 H   0  0  0  0  0  0  0  0  0  0  0  0
    8.1074   -1.6160   21.1028 H   0  0  0  0  0  0  0  0  0  0  0  0
  1  2  1  0  0  0  0
  1  7  2  0  0  0  0
  2  8  2  0  0  0  0
  3  4  2  0  0  0  0
  3 11  1  0  0  0  0
  4 15  1  0  0  0  0
  5  9  2  0  0  0  0
  5 14  1  0  0  0  0
  6 10  1  0  0  0  0
  6 14  2  0  0  0  0
  7 16  1  0  0  0  0
  8 17  1  0  0  0  0
  9 18  1  0  0  0  0
 10 18  2  0  0  0  0
 11 19  2  0  0  0  0
 12 15  2  0  0  0  0
 12 19  1  0  0  0  0
 13 26  2  0  0  0  0
 13 27  1  0  0  0  0
 14 25  1  0  0  0  0
 15 23  1  0  0  0  0
 16 17  2  0  0  0  0
 16 26  1  0  0  0  0
 17 27  1  0  0  0  0
 18 28  1  0  0  0  0
 19 32  1  0  0  0  0
 20 24  1  0  0  0  0
 20 28  1  0  0  0  0
 20 30  2  0  0  0  0
 21 25  1  0  0  0  0
 21 29  1  0  0  0  0
 21 31  2  0  0  0  0
 22 24  1  0  0  0  0
 23 25  1  1  0  0  0
 27 29  1  0  0  0  0
  1 33  1  0  0  0  0
  2 34  1  0  0  0  0
  3 35  1  0  0  0  0
  4 36  1  0  0  0  0
  5 37  1  0  0  0  0
  6 38  1  0  0  0  0
  7 39  1  0  0  0  0
  8 40  1  0  0  0  0
  9 41  1  0  0  0  0
 10 42  1  0  0  0  0
 11 43  1  0  0  0  0
 12 44  1  0  0  0  0
 13 45  1  0  0  0  0
 22 46  1  0  0  0  0
 22 47  1  0  0  0  0
 22 48  1  0  0  0  0
 23 49  1  0  0  0  0
 23 50  1  0  0  0  0
 24 51  1  0  0  0  0
 24 52  1  0  0  0  0
 25 53  1  0  0  0  0
 28 54  1  0  0  0  0
 29 55  1  0  0  0  0
M  END
> <clash_score>
0.6679267402109753

> <docking_score>
-5.892618179321289

> <overlap_score>
0.9391791224479675

$$$$
BENZO_202_2
  -OEChem-08232013533D

 55 58  0     1  0  0  0  0  0999 V2000
    3.8860    2.1050   19.5250 C   0  0  0  0  0  0  0  0  0  0  0  0
    4.2460    1.7520   20.8250 C   0  0  0  0  0  0  0  0  0  0  0  0
   13.0328    2.9196   23.1878 C   0  0  0  0  0  0  0  0  0  0  0  0
   12.0427    2.0479   23.6409 C   0  0  0  0  0  0  0  0  0  0  0  0
    9.5890   -2.4950   23.2210 C   0  0  0  0  0  0  0  0  0  0  0  0
    8.2550   -1.0010   24.5520 C   0  0  0  0  0  0  0  0  0  0  0  0
    4.6610    1.7170   18.4380 C   0  0  0  0  0  0  0  0  0  0  0  0
    5.3890    1.0010   21.0690 C   0  0  0  0  0  0  0  0  0  0  0  0
    9.1890   -3.5540   24.0140 C   0  0  0  0  0  0  0  0  0  0  0  0
    7.8700   -2.0610   25.3550 C   0  0  0  0  0  0  0  0  0  0  0  0
   12.7172    3.9115   22.2592 C   0  0  0  0  0  0  0  0  0  0  0  0
   10.4213    3.1597   22.2367 C   0  0  0  0  0  0  0  0  0  0  0  0
    7.5840   -0.2700   18.5160 C   0  0  0  0  0  0  0  0  0  0  0  0
    9.1280   -1.2090   23.4870 C   0  0  0  0  0  0  0  0  0  0  0  0
   10.7369    2.1679   23.1653 C   0  0  0  0  0  0  0  0  0  0  0  0
    5.7970    0.9500   18.6730 C   0  0  0  0  0  0  0  0  0  0  0  0
    6.1460    0.6070   19.9750 C   0  0  0  0  0  0  0  0  0  0  0  0
    8.3450   -3.3440   25.0980 C   0  0  0  0  0  0  0  0  0  0  0  0
   11.4114    4.0315   21.7836 C   0  0  0  0  0  0  0  0  0  0  0  0
    8.2024   -4.5567   27.2976 C   0  0  0  0  0  0  0  0  0  0  0  0
    9.0430    0.2380   21.4940 C   0  0  0  0  0  0  0  0  0  0  0  0
    7.8884   -6.0886   29.2877 C   0  0  0  0  0  0  0  0  0  0  0  0
    9.6654    1.2227   23.6555 C   0  0  0  0  0  0  0  0  0  0  0  0
    7.6340   -5.8731   27.8066 C   0  0  0  0  0  0  0  0  0  0  0  0
    9.5820   -0.1080   22.7000 C   0  0  2  0  0  0  0  0  0  0  0  0
    6.7100    0.3850   17.8100 N   0  0  0  0  0  0  0  0  0  0  0  0
    7.2710   -0.1460   19.8310 N   0  0  0  0  0  0  0  0  0  0  0  0
    7.9771   -4.4057   25.9197 N   0  0  0  0  0  0  0  0  0  0  0  0
    8.0950   -0.7700   20.8440 N   0  0  0  0  0  0  0  0  0  0  0  0
    8.7745   -3.7650   28.0394 O   0  0  0  0  0  0  0  0  0  0  0  0
    9.2950    1.3000   20.9480 O   0  0  0  0  0  0  0  0  0  0  0  0
   11.0228    5.2547   20.6371 Cl  0  0  0  0  0  0  0  0  0  0  0  0
    2.9844    2.6927   19.3613 H   0  0  0  0  0  0  0  0  0  0  0  0
    3.6214    2.0680   21.6561 H   0  0  0  0  0  0  0  0  0  0  0  0
   14.0496    2.8258   23.5583 H   0  0  0  0  0  0  0  0  0  0  0  0
   12.2977    1.2780   24.3644 H   0  0  0  0  0  0  0  0  0  0  0  0
   10.2695   -2.6718   22.3873 H   0  0  0  0  0  0  0  0  0  0  0  0
    7.8712   -0.0014   24.7587 H   0  0  0  0  0  0  0  0  0  0  0  0
    4.3780    2.0103   17.4276 H   0  0  0  0  0  0  0  0  0  0  0  0
    5.6758    0.7336   22.0897 H   0  0  0  0  0  0  0  0  0  0  0  0
    9.5431   -4.5618   23.7801 H   0  0  0  0  0  0  0  0  0  0  0  0
    7.1923   -1.8823   26.1912 H   0  0  0  0  0  0  0  0  0  0  0  0
   13.4991    4.5838   21.9147 H   0  0  0  0  0  0  0  0  0  0  0  0
    9.4016    3.2495   21.8693 H   0  0  0  0  0  0  0  0  0  0  0  0
    8.4213   -0.8245   18.1548 H   0  0  0  0  0  0  0  0  0  0  0  0
    8.9611   -6.0840   29.5072 H   0  0  0  0  0  0  0  0  0  0  0  0
    7.4778   -7.0508   29.6088 H   0  0  0  0  0  0  0  0  0  0  0  0
    7.4200   -5.3000   29.8858 H   0  0  0  0  0  0  0  0  0  0  0  0
    9.8736    0.9928   24.7097 H   0  0  0  0  0  0  0  0  0  0  0  0
    8.6951    1.7368   23.6631 H   0  0  0  0  0  0  0  0  0  0  0  0
    6.5546   -5.8823   27.6161 H   0  0  0  0  0  0  0  0  0  0  0  0
    8.0868   -6.6914   27.2350 H   0  0  0  0  0  0  0  0  0  0  0  0
   10.7408   -0.2662   22.5300 H   0  0  0  0  0  0  0  0  0  0  0  0
    7.4775   -5.1796   25.4663 H   0  0  0  0  0  0  0  0  0  0  0  0
    8.1074   -1.6160   21.1028 H   0  0  0  0  0  0  0  0  0  0  0  0
  1  2  1  0  0  0  0
  1  7  2  0  0  0  0
  2  8  2  0  0  0  0
  3  4  2  0  0  0  0
  3 11  1  0  0  0  0
  4 15  1  0  0  0  0
  5  9  2  0  0  0  0
  5 14  1  0  0  0  0
  6 10  1  0  0  0  0
  6 14  2  0  0  0  0
  7 16  1  0  0  0  0
  8 17  1  0  0  0  0
  9 18  1  0  0  0  0
 10 18  2  0  0  0  0
 11 19  2  0  0  0  0
 12 15  2  0  0  0  0
 12 19  1  0  0  0  0
 13 26  2  0  0  0  0
 13 27  1  0  0  0  0
 14 25  1  0  0  0  0
 15 23  1  0  0  0  0
 16 17  2  0  0  0  0
 16 26  1  0  0  0  0
 17 27  1  0  0  0  0
 18 28  1  0  0  0  0
 19 32  1  0  0  0  0
 20 24  1  0  0  0  0
 20 28  1  0  0  0  0
 20 30  2  0  0  0  0
 21 25  1  0  0  0  0
 21 29  1  0  0  0  0
 21 31  2  0  0  0  0
 22 24  1  0  0  0  0
 23 25  1  6  0  0  0
 27 29  1  0  0  0  0
  1 33  1  0  0  0  0
  2 34  1  0  0  0  0
  3 35  1  0  0  0  0
  4 36  1  0  0  0  0
  5 37  1  0  0  0  0
  6 38  1  0  0  0  0
  7 39  1  0  0  0  0
  8 40  1  0  0  0  0
  9 41  1  0  0  0  0
 10 42  1  0  0  0  0
 11 43  1  0  0  0  0
 12 44  1  0  0  0  0
 13 45  1  0  0  0  0
 22 46  1  0  0  0  0
 22 47  1  0  0  0  0
 22 48  1  0  0  0  0
 23 49  1  0  0  0  0
 23 50  1  0  0  0  0
 24 51  1  0  0  0  0
 24 52  1  0  0  0  0
 25 53  1  0  0  0  0
 28 54  1  0  0  0  0
 29 55  1  0  0  0  0
M  END
> <clash_score>
1.4973923316061561

> <docking_score>
-6.057602882385254

> <overlap_score>
0.8407933115959167

$$$$
BENZO_205_1
  -OEChem-08232013533D

 60 64  0     1  0  0  0  0  0999 V2000
   11.9254    0.4022   27.2003 C   0  0  0  0  0  0  0  0  0  0  0  0
   10.9060    1.3538   27.2295 C   0  0  0  0  0  0  0  0  0  0  0  0
   12.2105   -0.2784   26.0165 C   0  0  0  0  0  0  0  0  0  0  0  0
    3.8860    2.1050   19.5250 C   0  0  0  0  0  0  0  0  0  0  0  0
    4.2460    1.7520   20.8250 C   0  0  0  0  0  0  0  0  0  0  0  0
   10.1716    1.6247   26.0750 C   0  0  0  0  0  0  0  0  0  0  0  0
   11.4760   -0.0075   24.8621 C   0  0  0  0  0  0  0  0  0  0  0  0
    9.5890   -2.4950   23.2210 C   0  0  0  0  0  0  0  0  0  0  0  0
    8.2550   -1.0010   24.5520 C   0  0  0  0  0  0  0  0  0  0  0  0
    4.6610    1.7170   18.4380 C   0  0  0  0  0  0  0  0  0  0  0  0
    5.3890    1.0010   21.0690 C   0  0  0  0  0  0  0  0  0  0  0  0
    9.1890   -3.5540   24.0140 C   0  0  0  0  0  0  0  0  0  0  0  0
    7.8700   -2.0610   25.3550 C   0  0  0  0  0  0  0  0  0  0  0  0
    7.5840   -0.2700   18.5160 C   0  0  0  0  0  0  0  0  0  0  0  0
   10.4565    0.9440   24.8913 C   0  0  0  0  0  0  0  0  0  0  0  0
    9.1280   -1.2090   23.4870 C   0  0  0  0  0  0  0  0  0  0  0  0
    5.7970    0.9500   18.6730 C   0  0  0  0  0  0  0  0  0  0  0  0
    6.1460    0.6070   19.9750 C   0  0  0  0  0  0  0  0  0  0  0  0
    8.3450   -3.3440   25.0980 C   0  0  0  0  0  0  0  0  0  0  0  0
    9.0430    0.2380   21.4940 C   0  0  0  0  0  0  0  0  0  0  0  0
    7.1449   -6.5145   27.7138 C   0  0  0  0  0  0  0  0  0  0  0  0
    6.8467   -6.5786   26.2209 C   0  0  0  0  0  0  0  0  0  0  0  0
    8.4201   -5.7176   27.9614 C   0  0  0  0  0  0  0  0  0  0  0  0
    6.7697   -5.1840   25.6014 C   0  0  0  0  0  0  0  0  0  0  0  0
    8.3361   -4.3235   27.3439 C   0  0  0  0  0  0  0  0  0  0  0  0
    9.6614    1.2368   23.6407 C   0  0  0  0  0  0  0  0  0  0  0  0
    9.5820   -0.1080   22.7000 C   0  0  1  0  0  0  0  0  0  0  0  0
    6.7100    0.3850   17.8100 N   0  0  0  0  0  0  0  0  0  0  0  0
    7.2710   -0.1460   19.8310 N   0  0  0  0  0  0  0  0  0  0  0  0
    7.9744   -4.4098   25.9218 N   0  0  0  0  0  0  0  0  0  0  0  0
    8.0950   -0.7700   20.8440 N   0  0  0  0  0  0  0  0  0  0  0  0
    9.2950    1.3000   20.9480 O   0  0  0  0  0  0  0  0  0  0  0  0
   12.4981    0.1924   28.0990 H   0  0  0  0  0  0  0  0  0  0  0  0
   10.6847    1.8847   28.1508 H   0  0  0  0  0  0  0  0  0  0  0  0
   13.0048   -1.0186   25.9932 H   0  0  0  0  0  0  0  0  0  0  0  0
    2.9844    2.6927   19.3613 H   0  0  0  0  0  0  0  0  0  0  0  0
    3.6214    2.0680   21.6561 H   0  0  0  0  0  0  0  0  0  0  0  0
    9.3790    2.3677   26.1071 H   0  0  0  0  0  0  0  0  0  0  0  0
   11.7050   -0.5428   23.9444 H   0  0  0  0  0  0  0  0  0  0  0  0
   10.2684   -2.6719   22.3867 H   0  0  0  0  0  0  0  0  0  0  0  0
    7.8717   -0.0016   24.7596 H   0  0  0  0  0  0  0  0  0  0  0  0
    4.3780    2.0103   17.4276 H   0  0  0  0  0  0  0  0  0  0  0  0
    5.6758    0.7335   22.0897 H   0  0  0  0  0  0  0  0  0  0  0  0
    9.5443   -4.5616   23.7817 H   0  0  0  0  0  0  0  0  0  0  0  0
    7.1921   -1.8821   26.1908 H   0  0  0  0  0  0  0  0  0  0  0  0
    8.4213   -0.8245   18.1548 H   0  0  0  0  0  0  0  0  0  0  0  0
    6.3050   -6.0452   28.2404 H   0  0  0  0  0  0  0  0  0  0  0  0
    7.2543   -7.5276   28.1161 H   0  0  0  0  0  0  0  0  0  0  0  0
    7.6259   -7.1614   25.7138 H   0  0  0  0  0  0  0  0  0  0  0  0
    5.8996   -7.1050   26.0572 H   0  0  0  0  0  0  0  0  0  0  0  0
    8.5961   -5.6308   29.0396 H   0  0  0  0  0  0  0  0  0  0  0  0
    9.2795   -6.2544   27.5407 H   0  0  0  0  0  0  0  0  0  0  0  0
    6.6600   -5.2867   24.5145 H   0  0  0  0  0  0  0  0  0  0  0  0
    5.8812   -4.6597   25.9770 H   0  0  0  0  0  0  0  0  0  0  0  0
    7.5915   -3.7220   27.8810 H   0  0  0  0  0  0  0  0  0  0  0  0
    9.3083   -3.8281   27.4591 H   0  0  0  0  0  0  0  0  0  0  0  0
    8.6823    1.6307   23.9469 H   0  0  0  0  0  0  0  0  0  0  0  0
   10.1361    2.0563   23.0849 H   0  0  0  0  0  0  0  0  0  0  0  0
   10.7449   -0.2552   22.5248 H   0  0  0  0  0  0  0  0  0  0  0  0
    8.0815   -1.6117   21.0754 H   0  0  0  0  0  0  0  0  0  0  0  0
  1  2  1  0  0  0  0
  1  3  2  0  0  0  0
  2  6  2  0  0  0  0
  3  7  1  0  0  0  0
  4  5  1  0  0  0  0
  4 10  2  0  0  0  0
  5 11  2  0  0  0  0
  6 15  1  0  0  0  0
  7 15  2  0  0  0  0
  8 12  2  0  0  0  0
  8 16  1  0  0  0  0
  9 13  1  0  0  0  0
  9 16  2  0  0  0  0
 10 17  1  0  0  0  0
 11 18  1  0  0  0  0
 12 19  1  0  0  0  0
 13 19  2  0  0  0  0
 14 28  2  0  0  0  0
 14 29  1  0  0  0  0
 15 26  1  0  0  0  0
 16 27  1  0  0  0  0
 17 18  2  0  0  0  0
 17 28  1  0  0  0  0
 18 29  1  0  0  0  0
 19 30  1  0  0  0  0
 20 27  1  1  0  0  0
 20 31  1  0  0  0  0
 20 32  2  0  0  0  0
 21 22  1  0  0  0  0
 21 23  1  0  0  0  0
 22 24  1  0  0  0  0
 23 25  1  0  0  0  0
 24 30  1  0  0  0  0
 25 30  1  0  0  0  0
 26 27  1  0  0  0  0
 29 31  1  0  0  0  0
  1 33  1  0  0  0  0
  2 34  1  0  0  0  0
  3 35  1  0  0  0  0
  4 36  1  0  0  0  0
  5 37  1  0  0  0  0
  6 38  1  0  0  0  0
  7 39  1  0  0  0  0
  8 40  1  0  0  0  0
  9 41  1  0  0  0  0
 10 42  1  0  0  0  0
 11 43  1  0  0  0  0
 12 44  1  0  0  0  0
 13 45  1  0  0  0  0
 14 46  1  0  0  0  0
 21 47  1  0  0  0  0
 21 48  1  0  0  0  0
 22 49  1  0  0  0  0
 22 50  1  0  0  0  0
 23 51  1  0  0  0  0
 23 52  1  0  0  0  0
 24 53  1  0  0  0  0
 24 54  1  0  0  0  0
 25 55  1  0  0  0  0
 25 56  1  0  0  0  0
 26 57  1  0  0  0  0
 26 58  1  0  0  0  0
 27 59  1  0  0  0  0
 31 60  1  0  0  0  0
M  END
> <clash_score>
2.326785370852029

> <docking_score>
-4.314927101135254

> <overlap_score>
0.8435165286064148

$$$$
BENZO_204_1
  -OEChem-08232013533D

 57 61  0     1  0  0  0  0  0999 V2000
    3.8860    2.1050   19.5250 C   0  0  0  0  0  0  0  0  0  0  0  0
    4.2460    1.7520   20.8250 C   0  0  0  0  0  0  0  0  0  0  0  0
    9.5890   -2.4950   23.2210 C   0  0  0  0  0  0  0  0  0  0  0  0
    8.2550   -1.0010   24.5520 C   0  0  0  0  0  0  0  0  0  0  0  0
    4.6610    1.7170   18.4380 C   0  0  0  0  0  0  0  0  0  0  0  0
    5.3890    1.0010   21.0690 C   0  0  0  0  0  0  0  0  0  0  0  0
    9.1890   -3.5540   24.0140 C   0  0  0  0  0  0  0  0  0  0  0  0
    7.8700   -2.0610   25.3550 C   0  0  0  0  0  0  0  0  0  0  0  0
   12.1623    0.8696   24.2090 C   0  0  0  0  0  0  0  0  0  0  0  0
   13.0182    0.8125   25.2869 C   0  0  0  0  0  0  0  0  0  0  0  0
   10.6967    1.2482   25.9727 C   0  0  0  0  0  0  0  0  0  0  0  0
    7.5840   -0.2700   18.5160 C   0  0  0  0  0  0  0  0  0  0  0  0
    9.1280   -1.2090   23.4870 C   0  0  0  0  0  0  0  0  0  0  0  0
   10.8175    1.1222   24.6062 C   0  0  0  0  0  0  0  0  0  0  0  0
    5.7970    0.9500   18.6730 C   0  0  0  0  0  0  0  0  0  0  0  0
    6.1460    0.6070   19.9750 C   0  0  0  0  0  0  0  0  0  0  0  0
    8.3450   -3.3440   25.0980 C   0  0  0  0  0  0  0  0  0  0  0  0
    9.0430    0.2380   21.4940 C   0  0  0  0  0  0  0  0  0  0  0  0
    7.9496   -4.9537   28.7345 C   0  0  0  0  0  0  0  0  0  0  0  0
    6.8919   -4.0607   28.0818 C   0  0  0  0  0  0  0  0  0  0  0  0
    9.2470   -4.9693   27.9230 C   0  0  0  0  0  0  0  0  0  0  0  0
    6.6889   -4.4385   26.6147 C   0  0  0  0  0  0  0  0  0  0  0  0
    8.9871   -5.3207   26.4549 C   0  0  0  0  0  0  0  0  0  0  0  0
    9.6614    1.2368   23.6407 C   0  0  0  0  0  0  0  0  0  0  0  0
    9.5820   -0.1080   22.7000 C   0  0  1  0  0  0  0  0  0  0  0  0
    6.7100    0.3850   17.8100 N   0  0  0  0  0  0  0  0  0  0  0  0
    7.2710   -0.1460   19.8310 N   0  0  0  0  0  0  0  0  0  0  0  0
    7.9769   -4.4027   25.9163 N   0  0  0  0  0  0  0  0  0  0  0  0
    8.0950   -0.7700   20.8440 N   0  0  0  0  0  0  0  0  0  0  0  0
    9.2950    1.3000   20.9480 O   0  0  0  0  0  0  0  0  0  0  0  0
   12.2004    1.0627   26.7705 S   0  0  0  0  0  0  0  0  0  0  0  0
    2.9844    2.6927   19.3613 H   0  0  0  0  0  0  0  0  0  0  0  0
    3.6214    2.0680   21.6561 H   0  0  0  0  0  0  0  0  0  0  0  0
   10.2684   -2.6719   22.3867 H   0  0  0  0  0  0  0  0  0  0  0  0
    7.8717   -0.0016   24.7596 H   0  0  0  0  0  0  0  0  0  0  0  0
    4.3780    2.0103   17.4276 H   0  0  0  0  0  0  0  0  0  0  0  0
    5.6758    0.7335   22.0897 H   0  0  0  0  0  0  0  0  0  0  0  0
    9.5443   -4.5616   23.7817 H   0  0  0  0  0  0  0  0  0  0  0  0
    7.1921   -1.8821   26.1908 H   0  0  0  0  0  0  0  0  0  0  0  0
   12.4897    0.7356   23.1857 H   0  0  0  0  0  0  0  0  0  0  0  0
   14.0843    0.6352   25.2743 H   0  0  0  0  0  0  0  0  0  0  0  0
    9.7992    1.4392   26.5447 H   0  0  0  0  0  0  0  0  0  0  0  0
    8.4213   -0.8245   18.1548 H   0  0  0  0  0  0  0  0  0  0  0  0
    8.1558   -4.5961   29.7550 H   0  0  0  0  0  0  0  0  0  0  0  0
    7.5611   -5.9778   28.8324 H   0  0  0  0  0  0  0  0  0  0  0  0
    5.9459   -4.1594   28.6209 H   0  0  0  0  0  0  0  0  0  0  0  0
    7.2011   -3.0160   28.1536 H   0  0  0  0  0  0  0  0  0  0  0  0
    9.7290   -3.9880   27.9846 H   0  0  0  0  0  0  0  0  0  0  0  0
    9.9437   -5.6964   28.3562 H   0  0  0  0  0  0  0  0  0  0  0  0
    6.2543   -5.4402   26.5659 H   0  0  0  0  0  0  0  0  0  0  0  0
    5.9909   -3.7397   26.1451 H   0  0  0  0  0  0  0  0  0  0  0  0
    9.9128   -5.2367   25.8843 H   0  0  0  0  0  0  0  0  0  0  0  0
    8.6365   -6.3517   26.3987 H   0  0  0  0  0  0  0  0  0  0  0  0
    8.7512    1.4324   24.2245 H   0  0  0  0  0  0  0  0  0  0  0  0
    9.7926    2.1276   23.0121 H   0  0  0  0  0  0  0  0  0  0  0  0
   10.7449   -0.2552   22.5248 H   0  0  0  0  0  0  0  0  0  0  0  0
    8.0815   -1.6117   21.0754 H   0  0  0  0  0  0  0  0  0  0  0  0
  1  2  1  0  0  0  0
  1  5  2  0  0  0  0
  2  6  2  0  0  0  0
  3  7  2  0  0  0  0
  3 13  1  0  0  0  0
  4  8  1  0  0  0  0
  4 13  2  0  0  0  0
  5 15  1  0  0  0  0
  6 16  1  0  0  0  0
  7 17  1  0  0  0  0
  8 17  2  0  0  0  0
  9 10  2  0  0  0  0
  9 14  1  0  0  0  0
 10 31  1  0  0  0  0
 11 14  2  0  0  0  0
 11 31  1  0  0  0  0
 12 26  2  0  0  0  0
 12 27  1  0  0  0  0
 13 25  1  0  0  0  0
 14 24  1  0  0  0  0
 15 16  2  0  0  0  0
 15 26  1  0  0  0  0
 16 27  1  0  0  0  0
 17 28  1  0  0  0  0
 18 25  1  1  0  0  0
 18 29  1  0  0  0  0
 18 30  2  0  0  0  0
 19 20  1  0  0  0  0
 19 21  1  0  0  0  0
 20 22  1  0  0  0  0
 21 23  1  0  0  0  0
 22 28  1  0  0  0  0
 23 28  1  0  0  0  0
 24 25  1  0  0  0  0
 27 29  1  0  0  0  0
  1 32  1  0  0  0  0
  2 33  1  0  0  0  0
  3 34  1  0  0  0  0
  4 35  1  0  0  0  0
  5 36  1  0  0  0  0
  6 37  1  0  0  0  0
  7 38  1  0  0  0  0
  8 39  1  0  0  0  0
  9 40  1  0  0  0  0
 10 41  1  0  0  0  0
 11 42  1  0  0  0  0
 12 43  1  0  0  0  0
 19 44  1  0  0  0  0
 19 45  1  0  0  0  0
 20 46  1  0  0  0  0
 20 47  1  0  0  0  0
 21 48  1  0  0  0  0
 21 49  1  0  0  0  0
 22 50  1  0  0  0  0
 22 51  1  0  0  0  0
 23 52  1  0  0  0  0
 23 53  1  0  0  0  0
 24 54  1  0  0  0  0
 24 55  1  0  0  0  0
 25 56  1  0  0  0  0
 29 57  1  0  0  0  0
M  END
> <clash_score>
1.3873450973403343

> <docking_score>
-5.483339786529541

> <overlap_score>
0.8513602614402771

$$$$
BENZO_203_1
  -OEChem-08232013533D

 55 58  0     1  0  0  0  0  0999 V2000
    3.8860    2.1050   19.5250 C   0  0  0  0  0  0  0  0  0  0  0  0
    4.2460    1.7520   20.8250 C   0  0  0  0  0  0  0  0  0  0  0  0
    9.5890   -2.4950   23.2210 C   0  0  0  0  0  0  0  0  0  0  0  0
    8.2550   -1.0010   24.5520 C   0  0  0  0  0  0  0  0  0  0  0  0
    4.6610    1.7170   18.4380 C   0  0  0  0  0  0  0  0  0  0  0  0
    5.3890    1.0010   21.0690 C   0  0  0  0  0  0  0  0  0  0  0  0
    9.1890   -3.5540   24.0140 C   0  0  0  0  0  0  0  0  0  0  0  0
    7.8700   -2.0610   25.3550 C   0  0  0  0  0  0  0  0  0  0  0  0
   13.3821   -0.4784   24.0117 C   0  0  0  0  0  0  0  0  0  0  0  0
   11.4857   -0.4644   25.1245 C   0  0  0  0  0  0  0  0  0  0  0  0
    7.5840   -0.2700   18.5160 C   0  0  0  0  0  0  0  0  0  0  0  0
    9.1280   -1.2090   23.4870 C   0  0  0  0  0  0  0  0  0  0  0  0
   11.9876   -0.3748   23.8491 C   0  0  0  0  0  0  0  0  0  0  0  0
    5.7970    0.9500   18.6730 C   0  0  0  0  0  0  0  0  0  0  0  0
    6.1460    0.6070   19.9750 C   0  0  0  0  0  0  0  0  0  0  0  0
    8.3450   -3.3440   25.0980 C   0  0  0  0  0  0  0  0  0  0  0  0
    7.6605   -4.3767   27.2875 C   0  0  0  0  0  0  0  0  0  0  0  0
    9.0430    0.2380   21.4940 C   0  0  0  0  0  0  0  0  0  0  0  0
    6.9959   -5.7809   29.2856 C   0  0  0  0  0  0  0  0  0  0  0  0
   12.5440   -0.7451   27.3783 C   0  0  0  0  0  0  0  0  0  0  0  0
   11.2147   -0.2012   22.5629 C   0  0  0  0  0  0  0  0  0  0  0  0
    7.3112   -5.7658   27.8006 C   0  0  0  0  0  0  0  0  0  0  0  0
    9.5820   -0.1080   22.7000 C   0  0  1  0  0  0  0  0  0  0  0  0
   13.7430   -0.6226   25.2896 N   0  0  0  0  0  0  0  0  0  0  0  0
    6.7100    0.3850   17.8100 N   0  0  0  0  0  0  0  0  0  0  0  0
   12.5679   -0.6102   25.9416 N   0  0  0  0  0  0  0  0  0  0  0  0
    7.2710   -0.1460   19.8310 N   0  0  0  0  0  0  0  0  0  0  0  0
    7.9771   -4.4057   25.9197 N   0  0  0  0  0  0  0  0  0  0  0  0
    8.0950   -0.7700   20.8440 N   0  0  0  0  0  0  0  0  0  0  0  0
    7.6507   -3.3918   28.0185 O   0  0  0  0  0  0  0  0  0  0  0  0
    9.2950    1.3000   20.9480 O   0  0  0  0  0  0  0  0  0  0  0  0
    2.9844    2.6927   19.3613 H   0  0  0  0  0  0  0  0  0  0  0  0
    3.6214    2.0680   21.6561 H   0  0  0  0  0  0  0  0  0  0  0  0
   10.2695   -2.6718   22.3873 H   0  0  0  0  0  0  0  0  0  0  0  0
    7.8712   -0.0014   24.7587 H   0  0  0  0  0  0  0  0  0  0  0  0
    4.3780    2.0103   17.4276 H   0  0  0  0  0  0  0  0  0  0  0  0
    5.6758    0.7336   22.0897 H   0  0  0  0  0  0  0  0  0  0  0  0
    9.5431   -4.5618   23.7801 H   0  0  0  0  0  0  0  0  0  0  0  0
    7.1923   -1.8823   26.1912 H   0  0  0  0  0  0  0  0  0  0  0  0
   14.1525   -0.4543   23.2539 H   0  0  0  0  0  0  0  0  0  0  0  0
   10.4758   -0.4362   25.5107 H   0  0  0  0  0  0  0  0  0  0  0  0
    8.4213   -0.8245   18.1548 H   0  0  0  0  0  0  0  0  0  0  0  0
    7.8454   -5.4152   29.8718 H   0  0  0  0  0  0  0  0  0  0  0  0
    6.7652   -6.7984   29.6159 H   0  0  0  0  0  0  0  0  0  0  0  0
    6.1338   -5.1445   29.5109 H   0  0  0  0  0  0  0  0  0  0  0  0
   12.4733   -1.8098   27.6160 H   0  0  0  0  0  0  0  0  0  0  0  0
   13.4591   -0.3194   27.7993 H   0  0  0  0  0  0  0  0  0  0  0  0
   11.6811   -0.2050   27.7777 H   0  0  0  0  0  0  0  0  0  0  0  0
   11.6025    0.6918   22.0532 H   0  0  0  0  0  0  0  0  0  0  0  0
   11.4368   -1.0349   21.8836 H   0  0  0  0  0  0  0  0  0  0  0  0
    6.4454   -6.1359   27.2395 H   0  0  0  0  0  0  0  0  0  0  0  0
    8.1569   -6.4335   27.5996 H   0  0  0  0  0  0  0  0  0  0  0  0
    9.5277    0.8495   23.3908 H   0  0  0  0  0  0  0  0  0  0  0  0
    7.9296   -5.3297   25.4748 H   0  0  0  0  0  0  0  0  0  0  0  0
    8.1074   -1.6160   21.1028 H   0  0  0  0  0  0  0  0  0  0  0  0
  1  2  1  0  0  0  0
  1  5  2  0  0  0  0
  2  6  2  0  0  0  0
  3  7  2  0  0  0  0
  3 12  1  0  0  0  0
  4  8  1  0  0  0  0
  4 12  2  0  0  0  0
  5 14  1  0  0  0  0
  6 15  1  0  0  0  0
  7 16  1  0  0  0  0
  8 16  2  0  0  0  0
  9 13  1  0  0  0  0
  9 24  2  0  0  0  0
 10 13  2  0  0  0  0
 10 26  1  0  0  0  0
 11 25  2  0  0  0  0
 11 27  1  0  0  0  0
 12 23  1  0  0  0  0
 13 21  1  0  0  0  0
 14 15  2  0  0  0  0
 14 25  1  0  0  0  0
 15 27  1  0  0  0  0
 16 28  1  0  0  0  0
 17 22  1  0  0  0  0
 17 28  1  0  0  0  0
 17 30  2  0  0  0  0
 18 23  1  0  0  0  0
 18 29  1  0  0  0  0
 18 31  2  0  0  0  0
 19 22  1  0  0  0  0
 20 26  1  0  0  0  0
 21 23  1  1  0  0  0
 24 26  1  0  0  0  0
 27 29  1  0  0  0  0
  1 32  1  0  0  0  0
  2 33  1  0  0  0  0
  3 34  1  0  0  0  0
  4 35  1  0  0  0  0
  5 36  1  0  0  0  0
  6 37  1  0  0  0  0
  7 38  1  0  0  0  0
  8 39  1  0  0  0  0
  9 40  1  0  0  0  0
 10 41  1  0  0  0  0
 11 42  1  0  0  0  0
 19 43  1  0  0  0  0
 19 44  1  0  0  0  0
 19 45  1  0  0  0  0
 20 46  1  0  0  0  0
 20 47  1  0  0  0  0
 20 48  1  0  0  0  0
 21 49  1  0  0  0  0
 21 50  1  0  0  0  0
 22 51  1  0  0  0  0
 22 52  1  0  0  0  0
 23 53  1  0  0  0  0
 28 54  1  0  0  0  0
 29 55  1  0  0  0  0
M  END
> <clash_score>
0.636424545452287

> <docking_score>
-7.587933540344238

> <overlap_score>
0.9188145995140076

$$$$
BENZO_203_2
  -OEChem-08232013533D

 55 58  0     1  0  0  0  0  0999 V2000
    3.8860    2.1050   19.5250 C   0  0  0  0  0  0  0  0  0  0  0  0
    4.2460    1.7520   20.8250 C   0  0  0  0  0  0  0  0  0  0  0  0
    9.5890   -2.4950   23.2210 C   0  0  0  0  0  0  0  0  0  0  0  0
    8.2550   -1.0010   24.5520 C   0  0  0  0  0  0  0  0  0  0  0  0
    4.6610    1.7170   18.4380 C   0  0  0  0  0  0  0  0  0  0  0  0
    5.3890    1.0010   21.0690 C   0  0  0  0  0  0  0  0  0  0  0  0
    9.1890   -3.5540   24.0140 C   0  0  0  0  0  0  0  0  0  0  0  0
    7.8700   -2.0610   25.3550 C   0  0  0  0  0  0  0  0  0  0  0  0
   11.9282    1.8465   22.4874 C   0  0  0  0  0  0  0  0  0  0  0  0
   10.7653    3.5364   23.2793 C   0  0  0  0  0  0  0  0  0  0  0  0
    7.5840   -0.2700   18.5160 C   0  0  0  0  0  0  0  0  0  0  0  0
    9.1280   -1.2090   23.4870 C   0  0  0  0  0  0  0  0  0  0  0  0
   10.7369    2.1679   23.1653 C   0  0  0  0  0  0  0  0  0  0  0  0
    5.7970    0.9500   18.6730 C   0  0  0  0  0  0  0  0  0  0  0  0
    6.1460    0.6070   19.9750 C   0  0  0  0  0  0  0  0  0  0  0  0
    8.3450   -3.3440   25.0980 C   0  0  0  0  0  0  0  0  0  0  0  0
    8.2024   -4.5567   27.2976 C   0  0  0  0  0  0  0  0  0  0  0  0
    9.0430    0.2380   21.4940 C   0  0  0  0  0  0  0  0  0  0  0  0
    7.8884   -6.0886   29.2877 C   0  0  0  0  0  0  0  0  0  0  0  0
   12.3991    5.2934   22.5569 C   0  0  0  0  0  0  0  0  0  0  0  0
    9.6654    1.2227   23.6555 C   0  0  0  0  0  0  0  0  0  0  0  0
    7.6340   -5.8731   27.8066 C   0  0  0  0  0  0  0  0  0  0  0  0
    9.5820   -0.1080   22.7000 C   0  0  2  0  0  0  0  0  0  0  0  0
   12.6598    2.9240   22.1915 N   0  0  0  0  0  0  0  0  0  0  0  0
    6.7100    0.3850   17.8100 N   0  0  0  0  0  0  0  0  0  0  0  0
   11.9264    3.9359   22.6856 N   0  0  0  0  0  0  0  0  0  0  0  0
    7.2710   -0.1460   19.8310 N   0  0  0  0  0  0  0  0  0  0  0  0
    7.9771   -4.4057   25.9197 N   0  0  0  0  0  0  0  0  0  0  0  0
    8.0950   -0.7700   20.8440 N   0  0  0  0  0  0  0  0  0  0  0  0
    8.7745   -3.7650   28.0394 O   0  0  0  0  0  0  0  0  0  0  0  0
    9.2950    1.3000   20.9480 O   0  0  0  0  0  0  0  0  0  0  0  0
    2.9844    2.6927   19.3613 H   0  0  0  0  0  0  0  0  0  0  0  0
    3.6214    2.0680   21.6561 H   0  0  0  0  0  0  0  0  0  0  0  0
   10.2695   -2.6718   22.3873 H   0  0  0  0  0  0  0  0  0  0  0  0
    7.8712   -0.0014   24.7587 H   0  0  0  0  0  0  0  0  0  0  0  0
    4.3780    2.0103   17.4276 H   0  0  0  0  0  0  0  0  0  0  0  0
    5.6758    0.7336   22.0897 H   0  0  0  0  0  0  0  0  0  0  0  0
    9.5431   -4.5618   23.7801 H   0  0  0  0  0  0  0  0  0  0  0  0
    7.1923   -1.8823   26.1912 H   0  0  0  0  0  0  0  0  0  0  0  0
   12.2953    0.8729   22.1949 H   0  0  0  0  0  0  0  0  0  0  0  0
   10.0747    4.2424   23.7203 H   0  0  0  0  0  0  0  0  0  0  0  0
    8.4213   -0.8245   18.1548 H   0  0  0  0  0  0  0  0  0  0  0  0
    8.9611   -6.0840   29.5072 H   0  0  0  0  0  0  0  0  0  0  0  0
    7.4778   -7.0508   29.6088 H   0  0  0  0  0  0  0  0  0  0  0  0
    7.4200   -5.3000   29.8858 H   0  0  0  0  0  0  0  0  0  0  0  0
   13.0047    5.5246   23.4371 H   0  0  0  0  0  0  0  0  0  0  0  0
   12.9975    5.3858   21.6462 H   0  0  0  0  0  0  0  0  0  0  0  0
   11.5423    5.9699   22.4925 H   0  0  0  0  0  0  0  0  0  0  0  0
    9.8736    0.9928   24.7097 H   0  0  0  0  0  0  0  0  0  0  0  0
    8.6951    1.7368   23.6631 H   0  0  0  0  0  0  0  0  0  0  0  0
    6.5546   -5.8823   27.6161 H   0  0  0  0  0  0  0  0  0  0  0  0
    8.0868   -6.6914   27.2350 H   0  0  0  0  0  0  0  0  0  0  0  0
   10.7408   -0.2662   22.5300 H   0  0  0  0  0  0  0  0  0  0  0  0
    7.4775   -5.1796   25.4663 H   0  0  0  0  0  0  0  0  0  0  0  0
    8.1074   -1.6160   21.1028 H   0  0  0  0  0  0  0  0  0  0  0  0
  1  2  1  0  0  0  0
  1  5  2  0  0  0  0
  2  6  2  0  0  0  0
  3  7  2  0  0  0  0
  3 12  1  0  0  0  0
  4  8  1  0  0  0  0
  4 12  2  0  0  0  0
  5 14  1  0  0  0  0
  6 15  1  0  0  0  0
  7 16  1  0  0  0  0
  8 16  2  0  0  0  0
  9 13  1  0  0  0  0
  9 24  2  0  0  0  0
 10 13  2  0  0  0  0
 10 26  1  0  0  0  0
 11 25  2  0  0  0  0
 11 27  1  0  0  0  0
 12 23  1  0  0  0  0
 13 21  1  0  0  0  0
 14 15  2  0  0  0  0
 14 25  1  0  0  0  0
 15 27  1  0  0  0  0
 16 28  1  0  0  0  0
 17 22  1  0  0  0  0
 17 28  1  0  0  0  0
 17 30  2  0  0  0  0
 18 23  1  0  0  0  0
 18 29  1  0  0  0  0
 18 31  2  0  0  0  0
 19 22  1  0  0  0  0
 20 26  1  0  0  0  0
 21 23  1  6  0  0  0
 24 26  1  0  0  0  0
 27 29  1  0  0  0  0
  1 32  1  0  0  0  0
  2 33  1  0  0  0  0
  3 34  1  0  0  0  0
  4 35  1  0  0  0  0
  5 36  1  0  0  0  0
  6 37  1  0  0  0  0
  7 38  1  0  0  0  0
  8 39  1  0  0  0  0
  9 40  1  0  0  0  0
 10 41  1  0  0  0  0
 11 42  1  0  0  0  0
 19 43  1  0  0  0  0
 19 44  1  0  0  0  0
 19 45  1  0  0  0  0
 20 46  1  0  0  0  0
 20 47  1  0  0  0  0
 20 48  1  0  0  0  0
 21 49  1  0  0  0  0
 21 50  1  0  0  0  0
 22 51  1  0  0  0  0
 22 52  1  0  0  0  0
 23 53  1  0  0  0  0
 28 54  1  0  0  0  0
 29 55  1  0  0  0  0
M  END
> <clash_score>
0

> <docking_score>
-7.533110618591309

> <overlap_score>
0.8416591286659241

$$$$
BENZO_205_2
  -OEChem-08232013533D

 60 64  0     1  0  0  0  0  0999 V2000
   13.4299   -0.6303   26.2164 C   0  0  0  0  0  0  0  0  0  0  0  0
   13.9318   -1.1656   25.0302 C   0  0  0  0  0  0  0  0  0  0  0  0
   12.2107    0.0475   26.2147 C   0  0  0  0  0  0  0  0  0  0  0  0
    3.8860    2.1050   19.5250 C   0  0  0  0  0  0  0  0  0  0  0  0
    4.2460    1.7520   20.8250 C   0  0  0  0  0  0  0  0  0  0  0  0
   13.2147   -1.0232   23.8423 C   0  0  0  0  0  0  0  0  0  0  0  0
   11.4935    0.1899   25.0268 C   0  0  0  0  0  0  0  0  0  0  0  0
    9.5890   -2.4950   23.2210 C   0  0  0  0  0  0  0  0  0  0  0  0
    8.2550   -1.0010   24.5520 C   0  0  0  0  0  0  0  0  0  0  0  0
    4.6610    1.7170   18.4380 C   0  0  0  0  0  0  0  0  0  0  0  0
    5.3890    1.0010   21.0690 C   0  0  0  0  0  0  0  0  0  0  0  0
    9.1890   -3.5540   24.0140 C   0  0  0  0  0  0  0  0  0  0  0  0
    7.8700   -2.0610   25.3550 C   0  0  0  0  0  0  0  0  0  0  0  0
    7.5840   -0.2700   18.5160 C   0  0  0  0  0  0  0  0  0  0  0  0
   11.9955   -0.3454   23.8406 C   0  0  0  0  0  0  0  0  0  0  0  0
    9.1280   -1.2090   23.4870 C   0  0  0  0  0  0  0  0  0  0  0  0
    5.7970    0.9500   18.6730 C   0  0  0  0  0  0  0  0  0  0  0  0
    6.1460    0.6070   19.9750 C   0  0  0  0  0  0  0  0  0  0  0  0
    8.3450   -3.3440   25.0980 C   0  0  0  0  0  0  0  0  0  0  0  0
    9.0430    0.2380   21.4940 C   0  0  0  0  0  0  0  0  0  0  0  0
    7.9496   -4.9537   28.7345 C   0  0  0  0  0  0  0  0  0  0  0  0
    6.8919   -4.0607   28.0818 C   0  0  0  0  0  0  0  0  0  0  0  0
    9.2470   -4.9693   27.9230 C   0  0  0  0  0  0  0  0  0  0  0  0
    6.6889   -4.4385   26.6147 C   0  0  0  0  0  0  0  0  0  0  0  0
    8.9871   -5.3207   26.4549 C   0  0  0  0  0  0  0  0  0  0  0  0
   11.2185   -0.1906   22.5545 C   0  0  0  0  0  0  0  0  0  0  0  0
    9.5820   -0.1080   22.7000 C   0  0  2  0  0  0  0  0  0  0  0  0
    6.7100    0.3850   17.8100 N   0  0  0  0  0  0  0  0  0  0  0  0
    7.2710   -0.1460   19.8310 N   0  0  0  0  0  0  0  0  0  0  0  0
    7.9769   -4.4027   25.9163 N   0  0  0  0  0  0  0  0  0  0  0  0
    8.0950   -0.7700   20.8440 N   0  0  0  0  0  0  0  0  0  0  0  0
    9.2950    1.3000   20.9480 O   0  0  0  0  0  0  0  0  0  0  0  0
   13.9877   -0.7424   27.1415 H   0  0  0  0  0  0  0  0  0  0  0  0
   14.8806   -1.6943   25.0316 H   0  0  0  0  0  0  0  0  0  0  0  0
   11.8190    0.4635   27.1382 H   0  0  0  0  0  0  0  0  0  0  0  0
    2.9844    2.6927   19.3613 H   0  0  0  0  0  0  0  0  0  0  0  0
    3.6214    2.0680   21.6561 H   0  0  0  0  0  0  0  0  0  0  0  0
   13.6137   -1.4435   22.9229 H   0  0  0  0  0  0  0  0  0  0  0  0
   10.5446    0.7196   25.0350 H   0  0  0  0  0  0  0  0  0  0  0  0
   10.2684   -2.6719   22.3867 H   0  0  0  0  0  0  0  0  0  0  0  0
    7.8717   -0.0016   24.7596 H   0  0  0  0  0  0  0  0  0  0  0  0
    4.3780    2.0103   17.4276 H   0  0  0  0  0  0  0  0  0  0  0  0
    5.6758    0.7336   22.0897 H   0  0  0  0  0  0  0  0  0  0  0  0
    9.5443   -4.5616   23.7817 H   0  0  0  0  0  0  0  0  0  0  0  0
    7.1921   -1.8821   26.1908 H   0  0  0  0  0  0  0  0  0  0  0  0
    8.4213   -0.8245   18.1548 H   0  0  0  0  0  0  0  0  0  0  0  0
    8.1558   -4.5961   29.7550 H   0  0  0  0  0  0  0  0  0  0  0  0
    7.5611   -5.9778   28.8324 H   0  0  0  0  0  0  0  0  0  0  0  0
    5.9459   -4.1594   28.6209 H   0  0  0  0  0  0  0  0  0  0  0  0
    7.2011   -3.0160   28.1536 H   0  0  0  0  0  0  0  0  0  0  0  0
    9.7290   -3.9880   27.9846 H   0  0  0  0  0  0  0  0  0  0  0  0
    9.9437   -5.6964   28.3562 H   0  0  0  0  0  0  0  0  0  0  0  0
    6.2543   -5.4402   26.5659 H   0  0  0  0  0  0  0  0  0  0  0  0
    5.9909   -3.7397   26.1451 H   0  0  0  0  0  0  0  0  0  0  0  0
    9.9128   -5.2367   25.8843 H   0  0  0  0  0  0  0  0  0  0  0  0
    8.6365   -6.3517   26.3987 H   0  0  0  0  0  0  0  0  0  0  0  0
   11.6029    0.6963   22.0317 H   0  0  0  0  0  0  0  0  0  0  0  0
   11.4403   -1.0329   21.8857 H   0  0  0  0  0  0  0  0  0  0  0  0
    9.5315    0.8594   23.3833 H   0  0  0  0  0  0  0  0  0  0  0  0
    8.0815   -1.6117   21.0754 H   0  0  0  0  0  0  0  0  0  0  0  0
  1  2  1  0  0  0  0
  1  3  2  0  0  0  0
  2  6  2  0  0  0  0
  3  7  1  0  0  0  0
  4  5  1  0  0  0  0
  4 10  2  0  0  0  0
  5 11  2  0  0  0  0
  6 15  1  0  0  0  0
  7 15  2  0  0  0  0
  8 12  2  0  0  0  0
  8 16  1  0  0  0  0
  9 13  1  0  0  0  0
  9 16  2  0  0  0  0
 10 17  1  0  0  0  0
 11 18  1  0  0  0  0
 12 19  1  0  0  0  0
 13 19  2  0  0  0  0
 14 28  2  0  0  0  0
 14 29  1  0  0  0  0
 15 26  1  0  0  0  0
 16 27  1  0  0  0  0
 17 18  2  0  0  0  0
 17 28  1  0  0  0  0
 18 29  1  0  0  0  0
 19 30  1  0  0  0  0
 20 27  1  6  0  0  0
 20 31  1  0  0  0  0
 20 32  2  0  0  0  0
 21 22  1  0  0  0  0
 21 23  1  0  0  0  0
 22 24  1  0  0  0  0
 23 25  1  0  0  0  0
 24 30  1  0  0  0  0
 25 30  1  0  0  0  0
 26 27  1  0  0  0  0
 29 31  1  0  0  0  0
  1 33  1  0  0  0  0
  2 34  1  0  0  0  0
  3 35  1  0  0  0  0
  4 36  1  0  0  0  0
  5 37  1  0  0  0  0
  6 38  1  0  0  0  0
  7 39  1  0  0  0  0
  8 40  1  0  0  0  0
  9 41  1  0  0  0  0
 10 42  1  0  0  0  0
 11 43  1  0  0  0  0
 12 44  1  0  0  0  0
 13 45  1  0  0  0  0
 14 46  1  0  0  0  0
 21 47  1  0  0  0  0
 21 48  1  0  0  0  0
 22 49  1  0  0  0  0
 22 50  1  0  0  0  0
 23 51  1  0  0  0  0
 23 52  1  0  0  0  0
 24 53  1  0  0  0  0
 24 54  1  0  0  0  0
 25 55  1  0  0  0  0
 25 56  1  0  0  0  0
 26 57  1  0  0  0  0
 26 58  1  0  0  0  0
 27 59  1  0  0  0  0
 31 60  1  0  0  0  0
M  END
> <clash_score>
0

> <docking_score>
-6.894748687744141

> <overlap_score>
0.928070604801178

$$$$
BENZO_204_2
  -OEChem-08232013533D

 57 61  0     1  0  0  0  0  0999 V2000
    3.8860    2.1050   19.5250 C   0  0  0  0  0  0  0  0  0  0  0  0
    4.2460    1.7520   20.8250 C   0  0  0  0  0  0  0  0  0  0  0  0
    9.5890   -2.4950   23.2210 C   0  0  0  0  0  0  0  0  0  0  0  0
    8.2550   -1.0010   24.5520 C   0  0  0  0  0  0  0  0  0  0  0  0
    4.6610    1.7170   18.4380 C   0  0  0  0  0  0  0  0  0  0  0  0
    5.3890    1.0010   21.0690 C   0  0  0  0  0  0  0  0  0  0  0  0
    9.1890   -3.5540   24.0140 C   0  0  0  0  0  0  0  0  0  0  0  0
    7.8700   -2.0610   25.3550 C   0  0  0  0  0  0  0  0  0  0  0  0
   13.2435   -0.5152   24.1377 C   0  0  0  0  0  0  0  0  0  0  0  0
   13.7613   -0.0440   25.3241 C   0  0  0  0  0  0  0  0  0  0  0  0
   11.6414    1.0576   24.7394 C   0  0  0  0  0  0  0  0  0  0  0  0
    7.5840   -0.2700   18.5160 C   0  0  0  0  0  0  0  0  0  0  0  0
    9.1280   -1.2090   23.4870 C   0  0  0  0  0  0  0  0  0  0  0  0
   12.0155    0.1230   23.7988 C   0  0  0  0  0  0  0  0  0  0  0  0
    5.7970    0.9500   18.6730 C   0  0  0  0  0  0  0  0  0  0  0  0
    6.1460    0.6070   19.9750 C   0  0  0  0  0  0  0  0  0  0  0  0
    8.3450   -3.3440   25.0980 C   0  0  0  0  0  0  0  0  0  0  0  0
    9.0430    0.2380   21.4940 C   0  0  0  0  0  0  0  0  0  0  0  0
    7.5761   -4.8248   28.7286 C   0  0  0  0  0  0  0  0  0  0  0  0
    8.9786   -4.7540   28.1202 C   0  0  0  0  0  0  0  0  0  0  0  0
    6.5567   -4.0681   27.8739 C   0  0  0  0  0  0  0  0  0  0  0  0
    8.9617   -5.1961   26.6571 C   0  0  0  0  0  0  0  0  0  0  0  0
    6.6010   -4.5235   26.4120 C   0  0  0  0  0  0  0  0  0  0  0  0
   11.2185   -0.1906   22.5545 C   0  0  0  0  0  0  0  0  0  0  0  0
    9.5820   -0.1080   22.7000 C   0  0  2  0  0  0  0  0  0  0  0  0
    6.7100    0.3850   17.8100 N   0  0  0  0  0  0  0  0  0  0  0  0
    7.2710   -0.1460   19.8310 N   0  0  0  0  0  0  0  0  0  0  0  0
    7.9769   -4.4028   25.9163 N   0  0  0  0  0  0  0  0  0  0  0  0
    8.0950   -0.7700   20.8440 N   0  0  0  0  0  0  0  0  0  0  0  0
    9.2950    1.3000   20.9480 O   0  0  0  0  0  0  0  0  0  0  0  0
   12.7685    1.1628   26.0242 S   0  0  0  0  0  0  0  0  0  0  0  0
    2.9844    2.6927   19.3613 H   0  0  0  0  0  0  0  0  0  0  0  0
    3.6214    2.0680   21.6561 H   0  0  0  0  0  0  0  0  0  0  0  0
   10.2684   -2.6719   22.3867 H   0  0  0  0  0  0  0  0  0  0  0  0
    7.8717   -0.0016   24.7596 H   0  0  0  0  0  0  0  0  0  0  0  0
    4.3780    2.0103   17.4276 H   0  0  0  0  0  0  0  0  0  0  0  0
    5.6758    0.7336   22.0897 H   0  0  0  0  0  0  0  0  0  0  0  0
    9.5443   -4.5616   23.7817 H   0  0  0  0  0  0  0  0  0  0  0  0
    7.1921   -1.8821   26.1908 H   0  0  0  0  0  0  0  0  0  0  0  0
   13.7259   -1.2818   23.5445 H   0  0  0  0  0  0  0  0  0  0  0  0
   14.6747   -0.3512   25.8135 H   0  0  0  0  0  0  0  0  0  0  0  0
   10.7606    1.6847   24.7379 H   0  0  0  0  0  0  0  0  0  0  0  0
    8.4213   -0.8245   18.1548 H   0  0  0  0  0  0  0  0  0  0  0  0
    7.2686   -5.8772   28.8258 H   0  0  0  0  0  0  0  0  0  0  0  0
    7.5913   -4.4060   29.7452 H   0  0  0  0  0  0  0  0  0  0  0  0
    9.3572   -3.7308   28.1906 H   0  0  0  0  0  0  0  0  0  0  0  0
    9.6566   -5.3928   28.6900 H   0  0  0  0  0  0  0  0  0  0  0  0
    5.5511   -4.2278   28.2766 H   0  0  0  0  0  0  0  0  0  0  0  0
    6.7568   -2.9917   27.9288 H   0  0  0  0  0  0  0  0  0  0  0  0
    9.9607   -5.0572   26.2357 H   0  0  0  0  0  0  0  0  0  0  0  0
    8.7084   -6.2581   26.5936 H   0  0  0  0  0  0  0  0  0  0  0  0
    6.2641   -5.5580   26.3358 H   0  0  0  0  0  0  0  0  0  0  0  0
    5.9273   -3.8947   25.8292 H   0  0  0  0  0  0  0  0  0  0  0  0
   11.5670    0.4754   21.7528 H   0  0  0  0  0  0  0  0  0  0  0  0
   11.4602   -1.2039   22.2071 H   0  0  0  0  0  0  0  0  0  0  0  0
    9.5315    0.8594   23.3833 H   0  0  0  0  0  0  0  0  0  0  0  0
    8.0815   -1.6117   21.0754 H   0  0  0  0  0  0  0  0  0  0  0  0
  1  2  1  0  0  0  0
  1  5  2  0  0  0  0
  2  6  2  0  0  0  0
  3  7  2  0  0  0  0
  3 13  1  0  0  0  0
  4  8  1  0  0  0  0
  4 13  2  0  0  0  0
  5 15  1  0  0  0  0
  6 16  1  0  0  0  0
  7 17  1  0  0  0  0
  8 17  2  0  0  0  0
  9 10  2  0  0  0  0
  9 14  1  0  0  0  0
 10 31  1  0  0  0  0
 11 14  2  0  0  0  0
 11 31  1  0  0  0  0
 12 26  2  0  0  0  0
 12 27  1  0  0  0  0
 13 25  1  0  0  0  0
 14 24  1  0  0  0  0
 15 16  2  0  0  0  0
 15 26  1  0  0  0  0
 16 27  1  0  0  0  0
 17 28  1  0  0  0  0
 18 25  1  6  0  0  0
 18 29  1  0  0  0  0
 18 30  2  0  0  0  0
 19 20  1  0  0  0  0
 19 21  1  0  0  0  0
 20 22  1  0  0  0  0
 21 23  1  0  0  0  0
 22 28  1  0  0  0  0
 23 28  1  0  0  0  0
 24 25  1  0  0  0  0
 27 29  1  0  0  0  0
  1 32  1  0  0  0  0
  2 33  1  0  0  0  0
  3 34  1  0  0  0  0
  4 35  1  0  0  0  0
  5 36  1  0  0  0  0
  6 37  1  0  0  0  0
  7 38  1  0  0  0  0
  8 39  1  0  0  0  0
  9 40  1  0  0  0  0
 10 41  1  0  0  0  0
 11 42  1  0  0  0  0
 12 43  1  0  0  0  0
 19 44  1  0  0  0  0
 19 45  1  0  0  0  0
 20 46  1  0  0  0  0
 20 47  1  0  0  0  0
 21 48  1  0  0  0  0
 21 49  1  0  0  0  0
 22 50  1  0  0  0  0
 22 51  1  0  0  0  0
 23 52  1  0  0  0  0
 23 53  1  0  0  0  0
 24 54  1  0  0  0  0
 24 55  1  0  0  0  0
 25 56  1  0  0  0  0
 29 57  1  0  0  0  0
M  END
> <clash_score>
0.729516453127464

> <docking_score>
-7.2465105056762695

> <overlap_score>
0.9158695936203003

$$$$
BENZO_209_1
  -OEChem-08232013533D

 48 51  0     1  0  0  0  0  0999 V2000
   13.4143   -0.6944   26.2251 C   0  0  0  0  0  0  0  0  0  0  0  0
   13.9152   -1.2211   25.0346 C   0  0  0  0  0  0  0  0  0  0  0  0
   12.2000   -0.0079   26.2276 C   0  0  0  0  0  0  0  0  0  0  0  0
    3.8860    2.1050   19.5250 C   0  0  0  0  0  0  0  0  0  0  0  0
    4.2460    1.7520   20.8250 C   0  0  0  0  0  0  0  0  0  0  0  0
   13.2019   -1.0613   23.8466 C   0  0  0  0  0  0  0  0  0  0  0  0
   11.4867    0.1519   25.0397 C   0  0  0  0  0  0  0  0  0  0  0  0
    9.1890   -3.5540   24.0140 C   0  0  0  0  0  0  0  0  0  0  0  0
    7.8700   -2.0610   25.3550 C   0  0  0  0  0  0  0  0  0  0  0  0
    9.5890   -2.4950   23.2210 C   0  0  0  0  0  0  0  0  0  0  0  0
    8.2550   -1.0010   24.5520 C   0  0  0  0  0  0  0  0  0  0  0  0
    4.6610    1.7170   18.4380 C   0  0  0  0  0  0  0  0  0  0  0  0
    5.3890    1.0010   21.0690 C   0  0  0  0  0  0  0  0  0  0  0  0
    7.5840   -0.2700   18.5160 C   0  0  0  0  0  0  0  0  0  0  0  0
    8.3450   -3.3440   25.0980 C   0  0  0  0  0  0  0  0  0  0  0  0
   11.9876   -0.3748   23.8491 C   0  0  0  0  0  0  0  0  0  0  0  0
    9.1280   -1.2090   23.4870 C   0  0  0  0  0  0  0  0  0  0  0  0
    5.7970    0.9500   18.6730 C   0  0  0  0  0  0  0  0  0  0  0  0
    6.1460    0.6070   19.9750 C   0  0  0  0  0  0  0  0  0  0  0  0
    9.0430    0.2380   21.4940 C   0  0  0  0  0  0  0  0  0  0  0  0
    7.9517   -4.4787   25.9770 C   0  0  0  0  0  0  0  0  0  0  0  0
   11.2147   -0.2012   22.5629 C   0  0  0  0  0  0  0  0  0  0  0  0
    9.5820   -0.1080   22.7000 C   0  0  1  0  0  0  0  0  0  0  0  0
    6.7100    0.3850   17.8100 N   0  0  0  0  0  0  0  0  0  0  0  0
    7.2710   -0.1460   19.8310 N   0  0  0  0  0  0  0  0  0  0  0  0
    8.0950   -0.7700   20.8440 N   0  0  0  0  0  0  0  0  0  0  0  0
    9.2950    1.3000   20.9480 O   0  0  0  0  0  0  0  0  0  0  0  0
   13.9692   -0.8201   27.1503 H   0  0  0  0  0  0  0  0  0  0  0  0
   14.8601   -1.7566   25.0326 H   0  0  0  0  0  0  0  0  0  0  0  0
   11.8092    0.4013   27.1545 H   0  0  0  0  0  0  0  0  0  0  0  0
    2.9844    2.6927   19.3613 H   0  0  0  0  0  0  0  0  0  0  0  0
    3.6214    2.0680   21.6561 H   0  0  0  0  0  0  0  0  0  0  0  0
   13.6000   -1.4749   22.9238 H   0  0  0  0  0  0  0  0  0  0  0  0
   10.5416    0.6883   25.0512 H   0  0  0  0  0  0  0  0  0  0  0  0
    9.5416   -4.5625   23.7818 H   0  0  0  0  0  0  0  0  0  0  0  0
    7.1926   -1.8847   26.1916 H   0  0  0  0  0  0  0  0  0  0  0  0
   10.2688   -2.6720   22.3870 H   0  0  0  0  0  0  0  0  0  0  0  0
    7.8705   -0.0015   24.7579 H   0  0  0  0  0  0  0  0  0  0  0  0
    4.3780    2.0103   17.4276 H   0  0  0  0  0  0  0  0  0  0  0  0
    5.6758    0.7336   22.0897 H   0  0  0  0  0  0  0  0  0  0  0  0
    8.4213   -0.8245   18.1548 H   0  0  0  0  0  0  0  0  0  0  0  0
    8.6661   -4.5883   26.8021 H   0  0  0  0  0  0  0  0  0  0  0  0
    6.9508   -4.3263   26.4014 H   0  0  0  0  0  0  0  0  0  0  0  0
    7.9188   -5.4228   25.4175 H   0  0  0  0  0  0  0  0  0  0  0  0
   11.6025    0.6918   22.0532 H   0  0  0  0  0  0  0  0  0  0  0  0
   11.4368   -1.0349   21.8836 H   0  0  0  0  0  0  0  0  0  0  0  0
    9.5277    0.8495   23.3908 H   0  0  0  0  0  0  0  0  0  0  0  0
    8.1074   -1.6160   21.1028 H   0  0  0  0  0  0  0  0  0  0  0  0
  1  2  1  0  0  0  0
  1  3  2  0  0  0  0
  2  6  2  0  0  0  0
  3  7  1  0  0  0  0
  4  5  1  0  0  0  0
  4 12  2  0  0  0  0
  5 13  2  0  0  0  0
  6 16  1  0  0  0  0
  7 16  2  0  0  0  0
  8 10  2  0  0  0  0
  8 15  1  0  0  0  0
  9 11  1  0  0  0  0
  9 15  2  0  0  0  0
 10 17  1  0  0  0  0
 11 17  2  0  0  0  0
 12 18  1  0  0  0  0
 13 19  1  0  0  0  0
 14 24  2  0  0  0  0
 14 25  1  0  0  0  0
 15 21  1  0  0  0  0
 16 22  1  0  0  0  0
 17 23  1  0  0  0  0
 18 19  2  0  0  0  0
 18 24  1  0  0  0  0
 19 25  1  0  0  0  0
 20 23  1  0  0  0  0
 20 26  1  0  0  0  0
 20 27  2  0  0  0  0
 22 23  1  1  0  0  0
 25 26  1  0  0  0  0
  1 28  1  0  0  0  0
  2 29  1  0  0  0  0
  3 30  1  0  0  0  0
  4 31  1  0  0  0  0
  5 32  1  0  0  0  0
  6 33  1  0  0  0  0
  7 34  1  0  0  0  0
  8 35  1  0  0  0  0
  9 36  1  0  0  0  0
 10 37  1  0  0  0  0
 11 38  1  0  0  0  0
 12 39  1  0  0  0  0
 13 40  1  0  0  0  0
 14 41  1  0  0  0  0
 21 42  1  0  0  0  0
 21 43  1  0  0  0  0
 21 44  1  0  0  0  0
 22 45  1  0  0  0  0
 22 46  1  0  0  0  0
 23 47  1  0  0  0  0
 26 48  1  0  0  0  0
M  END
> <clash_score>
0

> <docking_score>
-6.0734052658081055

> <overlap_score>
0.8390676975250244

$$$$
BENZO_209_2
  -OEChem-08232013533D

 48 51  0     1  0  0  0  0  0999 V2000
   12.9183    0.8914   26.4488 C   0  0  0  0  0  0  0  0  0  0  0  0
   11.7786    1.6200   26.7891 C   0  0  0  0  0  0  0  0  0  0  0  0
   13.0029    0.2705   25.2025 C   0  0  0  0  0  0  0  0  0  0  0  0
    3.8860    2.1050   19.5250 C   0  0  0  0  0  0  0  0  0  0  0  0
    4.2460    1.7520   20.8250 C   0  0  0  0  0  0  0  0  0  0  0  0
   10.7234    1.7276   25.8832 C   0  0  0  0  0  0  0  0  0  0  0  0
   11.9477    0.3781   24.2967 C   0  0  0  0  0  0  0  0  0  0  0  0
    9.1890   -3.5540   24.0140 C   0  0  0  0  0  0  0  0  0  0  0  0
    7.8700   -2.0610   25.3550 C   0  0  0  0  0  0  0  0  0  0  0  0
    9.5890   -2.4950   23.2210 C   0  0  0  0  0  0  0  0  0  0  0  0
    8.2550   -1.0010   24.5520 C   0  0  0  0  0  0  0  0  0  0  0  0
    4.6610    1.7170   18.4380 C   0  0  0  0  0  0  0  0  0  0  0  0
    5.3890    1.0010   21.0690 C   0  0  0  0  0  0  0  0  0  0  0  0
    7.5840   -0.2700   18.5160 C   0  0  0  0  0  0  0  0  0  0  0  0
    8.3450   -3.3440   25.0980 C   0  0  0  0  0  0  0  0  0  0  0  0
   10.8079    1.1067   24.6370 C   0  0  0  0  0  0  0  0  0  0  0  0
    9.1280   -1.2090   23.4870 C   0  0  0  0  0  0  0  0  0  0  0  0
    5.7970    0.9500   18.6730 C   0  0  0  0  0  0  0  0  0  0  0  0
    6.1460    0.6070   19.9750 C   0  0  0  0  0  0  0  0  0  0  0  0
    9.0430    0.2380   21.4940 C   0  0  0  0  0  0  0  0  0  0  0  0
    7.9517   -4.4787   25.9770 C   0  0  0  0  0  0  0  0  0  0  0  0
    9.6654    1.2227   23.6555 C   0  0  0  0  0  0  0  0  0  0  0  0
    9.5820   -0.1080   22.7000 C   0  0  2  0  0  0  0  0  0  0  0  0
    6.7100    0.3850   17.8100 N   0  0  0  0  0  0  0  0  0  0  0  0
    7.2710   -0.1460   19.8310 N   0  0  0  0  0  0  0  0  0  0  0  0
    8.0950   -0.7700   20.8440 N   0  0  0  0  0  0  0  0  0  0  0  0
    9.2950    1.3000   20.9480 O   0  0  0  0  0  0  0  0  0  0  0  0
   13.7404    0.8088   27.1537 H   0  0  0  0  0  0  0  0  0  0  0  0
   11.7130    2.1044   27.7589 H   0  0  0  0  0  0  0  0  0  0  0  0
   13.8905   -0.2959   24.9369 H   0  0  0  0  0  0  0  0  0  0  0  0
    2.9844    2.6927   19.3613 H   0  0  0  0  0  0  0  0  0  0  0  0
    3.6214    2.0680   21.6561 H   0  0  0  0  0  0  0  0  0  0  0  0
    9.8391    2.2972   26.1570 H   0  0  0  0  0  0  0  0  0  0  0  0
   12.0224   -0.1091   23.3281 H   0  0  0  0  0  0  0  0  0  0  0  0
    9.5416   -4.5625   23.7818 H   0  0  0  0  0  0  0  0  0  0  0  0
    7.1926   -1.8847   26.1916 H   0  0  0  0  0  0  0  0  0  0  0  0
   10.2688   -2.6720   22.3870 H   0  0  0  0  0  0  0  0  0  0  0  0
    7.8705   -0.0015   24.7579 H   0  0  0  0  0  0  0  0  0  0  0  0
    4.3780    2.0103   17.4276 H   0  0  0  0  0  0  0  0  0  0  0  0
    5.6758    0.7336   22.0897 H   0  0  0  0  0  0  0  0  0  0  0  0
    8.4213   -0.8245   18.1548 H   0  0  0  0  0  0  0  0  0  0  0  0
    8.6661   -4.5883   26.8021 H   0  0  0  0  0  0  0  0  0  0  0  0
    6.9508   -4.3263   26.4014 H   0  0  0  0  0  0  0  0  0  0  0  0
    7.9188   -5.4228   25.4175 H   0  0  0  0  0  0  0  0  0  0  0  0
    8.7459    1.4099   24.2274 H   0  0  0  0  0  0  0  0  0  0  0  0
    9.8015    2.1185   23.0351 H   0  0  0  0  0  0  0  0  0  0  0  0
   10.7408   -0.2662   22.5300 H   0  0  0  0  0  0  0  0  0  0  0  0
    8.1074   -1.6160   21.1028 H   0  0  0  0  0  0  0  0  0  0  0  0
  1  2  1  0  0  0  0
  1  3  2  0  0  0  0
  2  6  2  0  0  0  0
  3  7  1  0  0  0  0
  4  5  1  0  0  0  0
  4 12  2  0  0  0  0
  5 13  2  0  0  0  0
  6 16  1  0  0  0  0
  7 16  2  0  0  0  0
  8 10  2  0  0  0  0
  8 15  1  0  0  0  0
  9 11  1  0  0  0  0
  9 15  2  0  0  0  0
 10 17  1  0  0  0  0
 11 17  2  0  0  0  0
 12 18  1  0  0  0  0
 13 19  1  0  0  0  0
 14 24  2  0  0  0  0
 14 25  1  0  0  0  0
 15 21  1  0  0  0  0
 16 22  1  0  0  0  0
 17 23  1  0  0  0  0
 18 19  2  0  0  0  0
 18 24  1  0  0  0  0
 19 25  1  0  0  0  0
 20 23  1  0  0  0  0
 20 26  1  0  0  0  0
 20 27  2  0  0  0  0
 22 23  1  6  0  0  0
 25 26  1  0  0  0  0
  1 28  1  0  0  0  0
  2 29  1  0  0  0  0
  3 30  1  0  0  0  0
  4 31  1  0  0  0  0
  5 32  1  0  0  0  0
  6 33  1  0  0  0  0
  7 34  1  0  0  0  0
  8 35  1  0  0  0  0
  9 36  1  0  0  0  0
 10 37  1  0  0  0  0
 11 38  1  0  0  0  0
 12 39  1  0  0  0  0
 13 40  1  0  0  0  0
 14 41  1  0  0  0  0
 21 42  1  0  0  0  0
 21 43  1  0  0  0  0
 21 44  1  0  0  0  0
 22 45  1  0  0  0  0
 22 46  1  0  0  0  0
 23 47  1  0  0  0  0
 26 48  1  0  0  0  0
M  END
> <clash_score>
4.084377930952702

> <docking_score>
-4.445764541625977

> <overlap_score>
0.770836591720581

$$$$
BENZO_206_1
  -OEChem-08232013533D

 60 64  0     1  0  0  0  0  0999 V2000
    3.8860    2.1050   19.5250 C   0  0  0  0  0  0  0  0  0  0  0  0
    4.2460    1.7520   20.8250 C   0  0  0  0  0  0  0  0  0  0  0  0
   12.6929   -0.1214   25.4854 C   0  0  0  0  0  0  0  0  0  0  0  0
   11.6246   -0.0154   24.5949 C   0  0  0  0  0  0  0  0  0  0  0  0
    9.5890   -2.4950   23.2210 C   0  0  0  0  0  0  0  0  0  0  0  0
    8.2550   -1.0010   24.5520 C   0  0  0  0  0  0  0  0  0  0  0  0
    4.6610    1.7170   18.4380 C   0  0  0  0  0  0  0  0  0  0  0  0
    5.3890    1.0010   21.0690 C   0  0  0  0  0  0  0  0  0  0  0  0
    9.1890   -3.5540   24.0140 C   0  0  0  0  0  0  0  0  0  0  0  0
    7.8700   -2.0610   25.3550 C   0  0  0  0  0  0  0  0  0  0  0  0
   12.9542    0.9102   26.3872 C   0  0  0  0  0  0  0  0  0  0  0  0
   11.0787    2.1538   25.5080 C   0  0  0  0  0  0  0  0  0  0  0  0
    7.5840   -0.2700   18.5160 C   0  0  0  0  0  0  0  0  0  0  0  0
    9.1280   -1.2090   23.4870 C   0  0  0  0  0  0  0  0  0  0  0  0
   10.8175    1.1222   24.6062 C   0  0  0  0  0  0  0  0  0  0  0  0
    5.7970    0.9500   18.6730 C   0  0  0  0  0  0  0  0  0  0  0  0
    6.1460    0.6070   19.9750 C   0  0  0  0  0  0  0  0  0  0  0  0
    8.3450   -3.3440   25.0980 C   0  0  0  0  0  0  0  0  0  0  0  0
   12.1471    2.0478   26.3985 C   0  0  0  0  0  0  0  0  0  0  0  0
    9.0430    0.2380   21.4940 C   0  0  0  0  0  0  0  0  0  0  0  0
    7.3502   -6.6216   27.6681 C   0  0  0  0  0  0  0  0  0  0  0  0
    6.9547   -6.6352   26.1968 C   0  0  0  0  0  0  0  0  0  0  0  0
    7.3963   -5.1894   28.1866 C   0  0  0  0  0  0  0  0  0  0  0  0
    7.8835   -5.7607   25.3557 C   0  0  0  0  0  0  0  0  0  0  0  0
    8.3298   -4.3215   27.3454 C   0  0  0  0  0  0  0  0  0  0  0  0
    9.6614    1.2368   23.6407 C   0  0  0  0  0  0  0  0  0  0  0  0
    9.5820   -0.1080   22.7000 C   0  0  1  0  0  0  0  0  0  0  0  0
    6.7100    0.3850   17.8100 N   0  0  0  0  0  0  0  0  0  0  0  0
    7.2710   -0.1460   19.8310 N   0  0  0  0  0  0  0  0  0  0  0  0
    7.9744   -4.4100   25.9219 N   0  0  0  0  0  0  0  0  0  0  0  0
    8.0950   -0.7700   20.8440 N   0  0  0  0  0  0  0  0  0  0  0  0
    9.2950    1.3000   20.9480 O   0  0  0  0  0  0  0  0  0  0  0  0
   12.4706    3.3207   27.5106 Cl  0  0  0  0  0  0  0  0  0  0  0  0
    2.9844    2.6927   19.3613 H   0  0  0  0  0  0  0  0  0  0  0  0
    3.6214    2.0680   21.6561 H   0  0  0  0  0  0  0  0  0  0  0  0
   13.3213   -1.0074   25.4762 H   0  0  0  0  0  0  0  0  0  0  0  0
   11.4285   -0.8241   23.8956 H   0  0  0  0  0  0  0  0  0  0  0  0
   10.2684   -2.6719   22.3867 H   0  0  0  0  0  0  0  0  0  0  0  0
    7.8717   -0.0016   24.7596 H   0  0  0  0  0  0  0  0  0  0  0  0
    4.3780    2.0103   17.4276 H   0  0  0  0  0  0  0  0  0  0  0  0
    5.6758    0.7335   22.0897 H   0  0  0  0  0  0  0  0  0  0  0  0
    9.5443   -4.5616   23.7817 H   0  0  0  0  0  0  0  0  0  0  0  0
    7.1921   -1.8821   26.1908 H   0  0  0  0  0  0  0  0  0  0  0  0
   13.7905    0.8140   27.0753 H   0  0  0  0  0  0  0  0  0  0  0  0
   10.4462    3.0385   25.5132 H   0  0  0  0  0  0  0  0  0  0  0  0
    8.4213   -0.8245   18.1548 H   0  0  0  0  0  0  0  0  0  0  0  0
    6.6285   -7.2054   28.2520 H   0  0  0  0  0  0  0  0  0  0  0  0
    8.3295   -7.0959   27.7956 H   0  0  0  0  0  0  0  0  0  0  0  0
    6.9792   -7.6647   25.8177 H   0  0  0  0  0  0  0  0  0  0  0  0
    5.9228   -6.2821   26.0899 H   0  0  0  0  0  0  0  0  0  0  0  0
    6.3877   -4.7611   28.1744 H   0  0  0  0  0  0  0  0  0  0  0  0
    7.7320   -5.1843   29.2310 H   0  0  0  0  0  0  0  0  0  0  0  0
    8.8755   -6.2287   25.3242 H   0  0  0  0  0  0  0  0  0  0  0  0
    7.5092   -5.7062   24.3249 H   0  0  0  0  0  0  0  0  0  0  0  0
    8.2701   -3.2776   27.6793 H   0  0  0  0  0  0  0  0  0  0  0  0
    9.3616   -4.6610   27.5011 H   0  0  0  0  0  0  0  0  0  0  0  0
    8.7512    1.4324   24.2245 H   0  0  0  0  0  0  0  0  0  0  0  0
    9.7926    2.1276   23.0121 H   0  0  0  0  0  0  0  0  0  0  0  0
   10.7449   -0.2552   22.5248 H   0  0  0  0  0  0  0  0  0  0  0  0
    8.0815   -1.6117   21.0754 H   0  0  0  0  0  0  0  0  0  0  0  0
  1  2  1  0  0  0  0
  1  7  2  0  0  0  0
  2  8  2  0  0  0  0
  3  4  2  0  0  0  0
  3 11  1  0  0  0  0
  4 15  1  0  0  0  0
  5  9  2  0  0  0  0
  5 14  1  0  0  0  0
  6 10  1  0  0  0  0
  6 14  2  0  0  0  0
  7 16  1  0  0  0  0
  8 17  1  0  0  0  0
  9 18  1  0  0  0  0
 10 18  2  0  0  0  0
 11 19  2  0  0  0  0
 12 15  2  0  0  0  0
 12 19  1  0  0  0  0
 13 28  2  0  0  0  0
 13 29  1  0  0  0  0
 14 27  1  0  0  0  0
 15 26  1  0  0  0  0
 16 17  2  0  0  0  0
 16 28  1  0  0  0  0
 17 29  1  0  0  0  0
 18 30  1  0  0  0  0
 19 33  1  0  0  0  0
 20 27  1  1  0  0  0
 20 31  1  0  0  0  0
 20 32  2  0  0  0  0
 21 22  1  0  0  0  0
 21 23  1  0  0  0  0
 22 24  1  0  0  0  0
 23 25  1  0  0  0  0
 24 30  1  0  0  0  0
 25 30  1  0  0  0  0
 26 27  1  0  0  0  0
 29 31  1  0  0  0  0
  1 34  1  0  0  0  0
  2 35  1  0  0  0  0
  3 36  1  0  0  0  0
  4 37  1  0  0  0  0
  5 38  1  0  0  0  0
  6 39  1  0  0  0  0
  7 40  1  0  0  0  0
  8 41  1  0  0  0  0
  9 42  1  0  0  0  0
 10 43  1  0  0  0  0
 11 44  1  0  0  0  0
 12 45  1  0  0  0  0
 13 46  1  0  0  0  0
 21 47  1  0  0  0  0
 21 48  1  0  0  0  0
 22 49  1  0  0  0  0
 22 50  1  0  0  0  0
 23 51  1  0  0  0  0
 23 52  1  0  0  0  0
 24 53  1  0  0  0  0
 24 54  1  0  0  0  0
 25 55  1  0  0  0  0
 25 56  1  0  0  0  0
 26 57  1  0  0  0  0
 26 58  1  0  0  0  0
 27 59  1  0  0  0  0
 31 60  1  0  0  0  0
M  END
> <clash_score>
4.745541740848704

> <docking_score>
-3.842236042022705

> <overlap_score>
0.858718991279602

$$$$
BENZO_208_1
  -OEChem-08232013533D

 45 48  0     1  0  0  0  0  0999 V2000
    3.8860    2.1050   19.5250 C   0  0  0  0  0  0  0  0  0  0  0  0
    4.2460    1.7520   20.8250 C   0  0  0  0  0  0  0  0  0  0  0  0
    9.1890   -3.5540   24.0140 C   0  0  0  0  0  0  0  0  0  0  0  0
    7.8700   -2.0610   25.3550 C   0  0  0  0  0  0  0  0  0  0  0  0
    9.5890   -2.4950   23.2210 C   0  0  0  0  0  0  0  0  0  0  0  0
    8.2550   -1.0010   24.5520 C   0  0  0  0  0  0  0  0  0  0  0  0
    4.6610    1.7170   18.4380 C   0  0  0  0  0  0  0  0  0  0  0  0
    5.3890    1.0010   21.0690 C   0  0  0  0  0  0  0  0  0  0  0  0
   13.1880   -1.1347   23.9584 C   0  0  0  0  0  0  0  0  0  0  0  0
   13.6879   -1.1306   25.2420 C   0  0  0  0  0  0  0  0  0  0  0  0
   11.6157    0.1809   25.0536 C   0  0  0  0  0  0  0  0  0  0  0  0
    7.5840   -0.2700   18.5160 C   0  0  0  0  0  0  0  0  0  0  0  0
    8.3450   -3.3440   25.0980 C   0  0  0  0  0  0  0  0  0  0  0  0
    9.1280   -1.2090   23.4870 C   0  0  0  0  0  0  0  0  0  0  0  0
   11.9876   -0.3748   23.8491 C   0  0  0  0  0  0  0  0  0  0  0  0
    5.7970    0.9500   18.6730 C   0  0  0  0  0  0  0  0  0  0  0  0
    6.1460    0.6070   19.9750 C   0  0  0  0  0  0  0  0  0  0  0  0
    9.0430    0.2380   21.4940 C   0  0  0  0  0  0  0  0  0  0  0  0
    7.9517   -4.4787   25.9770 C   0  0  0  0  0  0  0  0  0  0  0  0
   11.2147   -0.2012   22.5629 C   0  0  0  0  0  0  0  0  0  0  0  0
    9.5820   -0.1080   22.7000 C   0  0  1  0  0  0  0  0  0  0  0  0
    6.7100    0.3850   17.8100 N   0  0  0  0  0  0  0  0  0  0  0  0
    7.2710   -0.1460   19.8310 N   0  0  0  0  0  0  0  0  0  0  0  0
    8.0950   -0.7700   20.8440 N   0  0  0  0  0  0  0  0  0  0  0  0
    9.2950    1.3000   20.9480 O   0  0  0  0  0  0  0  0  0  0  0  0
   12.7116   -0.2136   26.3089 S   0  0  0  0  0  0  0  0  0  0  0  0
    2.9844    2.6927   19.3613 H   0  0  0  0  0  0  0  0  0  0  0  0
    3.6214    2.0680   21.6561 H   0  0  0  0  0  0  0  0  0  0  0  0
    9.5416   -4.5625   23.7818 H   0  0  0  0  0  0  0  0  0  0  0  0
    7.1926   -1.8847   26.1916 H   0  0  0  0  0  0  0  0  0  0  0  0
   10.2688   -2.6720   22.3870 H   0  0  0  0  0  0  0  0  0  0  0  0
    7.8705   -0.0015   24.7579 H   0  0  0  0  0  0  0  0  0  0  0  0
    4.3780    2.0103   17.4276 H   0  0  0  0  0  0  0  0  0  0  0  0
    5.6758    0.7336   22.0897 H   0  0  0  0  0  0  0  0  0  0  0  0
   13.6639   -1.6596   23.1397 H   0  0  0  0  0  0  0  0  0  0  0  0
   14.5793   -1.6228   25.6045 H   0  0  0  0  0  0  0  0  0  0  0  0
   10.7533    0.7992   25.2610 H   0  0  0  0  0  0  0  0  0  0  0  0
    8.4213   -0.8245   18.1548 H   0  0  0  0  0  0  0  0  0  0  0  0
    8.6661   -4.5883   26.8021 H   0  0  0  0  0  0  0  0  0  0  0  0
    6.9508   -4.3263   26.4014 H   0  0  0  0  0  0  0  0  0  0  0  0
    7.9188   -5.4228   25.4175 H   0  0  0  0  0  0  0  0  0  0  0  0
   11.6025    0.6918   22.0532 H   0  0  0  0  0  0  0  0  0  0  0  0
   11.4368   -1.0349   21.8836 H   0  0  0  0  0  0  0  0  0  0  0  0
    9.5277    0.8495   23.3908 H   0  0  0  0  0  0  0  0  0  0  0  0
    8.1074   -1.6160   21.1028 H   0  0  0  0  0  0  0  0  0  0  0  0
  1  2  1  0  0  0  0
  1  7  2  0  0  0  0
  2  8  2  0  0  0  0
  3  5  2  0  0  0  0
  3 13  1  0  0  0  0
  4  6  1  0  0  0  0
  4 13  2  0  0  0  0
  5 14  1  0  0  0  0
  6 14  2  0  0  0  0
  7 16  1  0  0  0  0
  8 17  1  0  0  0  0
  9 10  2  0  0  0  0
  9 15  1  0  0  0  0
 10 26  1  0  0  0  0
 11 15  2  0  0  0  0
 11 26  1  0  0  0  0
 12 22  2  0  0  0  0
 12 23  1  0  0  0  0
 13 19  1  0  0  0  0
 14 21  1  0  0  0  0
 15 20  1  0  0  0  0
 16 17  2  0  0  0  0
 16 22  1  0  0  0  0
 17 23  1  0  0  0  0
 18 21  1  0  0  0  0
 18 24  1  0  0  0  0
 18 25  2  0  0  0  0
 20 21  1  1  0  0  0
 23 24  1  0  0  0  0
  1 27  1  0  0  0  0
  2 28  1  0  0  0  0
  3 29  1  0  0  0  0
  4 30  1  0  0  0  0
  5 31  1  0  0  0  0
  6 32  1  0  0  0  0
  7 33  1  0  0  0  0
  8 34  1  0  0  0  0
  9 35  1  0  0  0  0
 10 36  1  0  0  0  0
 11 37  1  0  0  0  0
 12 38  1  0  0  0  0
 19 39  1  0  0  0  0
 19 40  1  0  0  0  0
 19 41  1  0  0  0  0
 20 42  1  0  0  0  0
 20 43  1  0  0  0  0
 21 44  1  0  0  0  0
 24 45  1  0  0  0  0
M  END
> <clash_score>
0

> <docking_score>
-6.423915863037109

> <overlap_score>
0.8341811895370483

$$$$
BENZO_208_2
  -OEChem-08232013533D

 45 48  0     1  0  0  0  0  0999 V2000
    3.8860    2.1050   19.5250 C   0  0  0  0  0  0  0  0  0  0  0  0
    4.2460    1.7520   20.8250 C   0  0  0  0  0  0  0  0  0  0  0  0
    9.1890   -3.5540   24.0140 C   0  0  0  0  0  0  0  0  0  0  0  0
    7.8700   -2.0610   25.3550 C   0  0  0  0  0  0  0  0  0  0  0  0
    9.5890   -2.4950   23.2210 C   0  0  0  0  0  0  0  0  0  0  0  0
    8.2550   -1.0010   24.5520 C   0  0  0  0  0  0  0  0  0  0  0  0
    4.6610    1.7170   18.4380 C   0  0  0  0  0  0  0  0  0  0  0  0
    5.3890    1.0010   21.0690 C   0  0  0  0  0  0  0  0  0  0  0  0
   11.2216   -0.1193   25.2335 C   0  0  0  0  0  0  0  0  0  0  0  0
   12.2855    0.0555   26.0908 C   0  0  0  0  0  0  0  0  0  0  0  0
   11.5715    2.1720   25.0613 C   0  0  0  0  0  0  0  0  0  0  0  0
    7.5840   -0.2700   18.5160 C   0  0  0  0  0  0  0  0  0  0  0  0
    8.3450   -3.3440   25.0980 C   0  0  0  0  0  0  0  0  0  0  0  0
    9.1280   -1.2090   23.4870 C   0  0  0  0  0  0  0  0  0  0  0  0
   10.8079    1.1067   24.6370 C   0  0  0  0  0  0  0  0  0  0  0  0
    5.7970    0.9500   18.6730 C   0  0  0  0  0  0  0  0  0  0  0  0
    6.1460    0.6070   19.9750 C   0  0  0  0  0  0  0  0  0  0  0  0
    9.0430    0.2380   21.4940 C   0  0  0  0  0  0  0  0  0  0  0  0
    7.9517   -4.4787   25.9770 C   0  0  0  0  0  0  0  0  0  0  0  0
    9.6654    1.2227   23.6555 C   0  0  0  0  0  0  0  0  0  0  0  0
    9.5820   -0.1080   22.7000 C   0  0  2  0  0  0  0  0  0  0  0  0
    6.7100    0.3850   17.8100 N   0  0  0  0  0  0  0  0  0  0  0  0
    7.2710   -0.1460   19.8310 N   0  0  0  0  0  0  0  0  0  0  0  0
    8.0950   -0.7700   20.8440 N   0  0  0  0  0  0  0  0  0  0  0  0
    9.2950    1.3000   20.9480 O   0  0  0  0  0  0  0  0  0  0  0  0
   12.7814    1.6924   26.1741 S   0  0  0  0  0  0  0  0  0  0  0  0
    2.9844    2.6927   19.3613 H   0  0  0  0  0  0  0  0  0  0  0  0
    3.6214    2.0680   21.6561 H   0  0  0  0  0  0  0  0  0  0  0  0
    9.5416   -4.5625   23.7818 H   0  0  0  0  0  0  0  0  0  0  0  0
    7.1926   -1.8847   26.1916 H   0  0  0  0  0  0  0  0  0  0  0  0
   10.2688   -2.6720   22.3870 H   0  0  0  0  0  0  0  0  0  0  0  0
    7.8705   -0.0015   24.7579 H   0  0  0  0  0  0  0  0  0  0  0  0
    4.3780    2.0103   17.4276 H   0  0  0  0  0  0  0  0  0  0  0  0
    5.6758    0.7336   22.0897 H   0  0  0  0  0  0  0  0  0  0  0  0
   10.7644   -1.0828   25.0465 H   0  0  0  0  0  0  0  0  0  0  0  0
   12.7950   -0.6995   26.6728 H   0  0  0  0  0  0  0  0  0  0  0  0
   11.4793    3.2104   24.7745 H   0  0  0  0  0  0  0  0  0  0  0  0
    8.4213   -0.8245   18.1548 H   0  0  0  0  0  0  0  0  0  0  0  0
    8.6661   -4.5883   26.8021 H   0  0  0  0  0  0  0  0  0  0  0  0
    6.9508   -4.3263   26.4014 H   0  0  0  0  0  0  0  0  0  0  0  0
    7.9188   -5.4228   25.4175 H   0  0  0  0  0  0  0  0  0  0  0  0
    8.7459    1.4099   24.2274 H   0  0  0  0  0  0  0  0  0  0  0  0
    9.8015    2.1185   23.0351 H   0  0  0  0  0  0  0  0  0  0  0  0
   10.7408   -0.2662   22.5300 H   0  0  0  0  0  0  0  0  0  0  0  0
    8.1074   -1.6160   21.1028 H   0  0  0  0  0  0  0  0  0  0  0  0
  1  2  1  0  0  0  0
  1  7  2  0  0  0  0
  2  8  2  0  0  0  0
  3  5  2  0  0  0  0
  3 13  1  0  0  0  0
  4  6  1  0  0  0  0
  4 13  2  0  0  0  0
  5 14  1  0  0  0  0
  6 14  2  0  0  0  0
  7 16  1  0  0  0  0
  8 17  1  0  0  0  0
  9 10  2  0  0  0  0
  9 15  1  0  0  0  0
 10 26  1  0  0  0  0
 11 15  2  0  0  0  0
 11 26  1  0  0  0  0
 12 22  2  0  0  0  0
 12 23  1  0  0  0  0
 13 19  1  0  0  0  0
 14 21  1  0  0  0  0
 15 20  1  0  0  0  0
 16 17  2  0  0  0  0
 16 22  1  0  0  0  0
 17 23  1  0  0  0  0
 18 21  1  0  0  0  0
 18 24  1  0  0  0  0
 18 25  2  0  0  0  0
 20 21  1  6  0  0  0
 23 24  1  0  0  0  0
  1 27  1  0  0  0  0
  2 28  1  0  0  0  0
  3 29  1  0  0  0  0
  4 30  1  0  0  0  0
  5 31  1  0  0  0  0
  6 32  1  0  0  0  0
  7 33  1  0  0  0  0
  8 34  1  0  0  0  0
  9 35  1  0  0  0  0
 10 36  1  0  0  0  0
 11 37  1  0  0  0  0
 12 38  1  0  0  0  0
 19 39  1  0  0  0  0
 19 40  1  0  0  0  0
 19 41  1  0  0  0  0
 20 42  1  0  0  0  0
 20 43  1  0  0  0  0
 21 44  1  0  0  0  0
 24 45  1  0  0  0  0
M  END
> <clash_score>
1.5150189897147874

> <docking_score>
-4.919724941253662

> <overlap_score>
0.7493899464607239

$$$$
BENZO_207_2
  -OEChem-08232013533D

 60 64  0     1  0  0  0  0  0999 V2000
    3.8860    2.1050   19.5250 C   0  0  0  0  0  0  0  0  0  0  0  0
    4.2460    1.7520   20.8250 C   0  0  0  0  0  0  0  0  0  0  0  0
    9.5890   -2.4950   23.2210 C   0  0  0  0  0  0  0  0  0  0  0  0
    8.2550   -1.0010   24.5520 C   0  0  0  0  0  0  0  0  0  0  0  0
    4.6610    1.7170   18.4380 C   0  0  0  0  0  0  0  0  0  0  0  0
    5.3890    1.0010   21.0690 C   0  0  0  0  0  0  0  0  0  0  0  0
    9.1890   -3.5540   24.0140 C   0  0  0  0  0  0  0  0  0  0  0  0
    7.8700   -2.0610   25.3550 C   0  0  0  0  0  0  0  0  0  0  0  0
   12.0323    0.4351   24.4215 C   0  0  0  0  0  0  0  0  0  0  0  0
   10.9195    1.6685   25.8622 C   0  0  0  0  0  0  0  0  0  0  0  0
    7.5840   -0.2700   18.5160 C   0  0  0  0  0  0  0  0  0  0  0  0
    9.1280   -1.2090   23.4870 C   0  0  0  0  0  0  0  0  0  0  0  0
   10.8175    1.1222   24.6062 C   0  0  0  0  0  0  0  0  0  0  0  0
    5.7970    0.9500   18.6730 C   0  0  0  0  0  0  0  0  0  0  0  0
    6.1460    0.6070   19.9750 C   0  0  0  0  0  0  0  0  0  0  0  0
    8.3450   -3.3440   25.0980 C   0  0  0  0  0  0  0  0  0  0  0  0
    9.0430    0.2380   21.4940 C   0  0  0  0  0  0  0  0  0  0  0  0
    7.9496   -4.9537   28.7345 C   0  0  0  0  0  0  0  0  0  0  0  0
    6.8919   -4.0607   28.0818 C   0  0  0  0  0  0  0  0  0  0  0  0
    9.2470   -4.9693   27.9230 C   0  0  0  0  0  0  0  0  0  0  0  0
    6.6889   -4.4385   26.6147 C   0  0  0  0  0  0  0  0  0  0  0  0
    8.9871   -5.3207   26.4549 C   0  0  0  0  0  0  0  0  0  0  0  0
   12.7029    1.6253   27.6218 C   0  0  0  0  0  0  0  0  0  0  0  0
    9.6614    1.2368   23.6407 C   0  0  0  0  0  0  0  0  0  0  0  0
    9.5820   -0.1080   22.7000 C   0  0  2  0  0  0  0  0  0  0  0  0
   12.8463    0.5346   25.4758 N   0  0  0  0  0  0  0  0  0  0  0  0
    6.7100    0.3850   17.8100 N   0  0  0  0  0  0  0  0  0  0  0  0
   12.1417    1.2906   26.3350 N   0  0  0  0  0  0  0  0  0  0  0  0
    7.2710   -0.1460   19.8310 N   0  0  0  0  0  0  0  0  0  0  0  0
    7.9769   -4.4027   25.9163 N   0  0  0  0  0  0  0  0  0  0  0  0
    8.0950   -0.7700   20.8440 N   0  0  0  0  0  0  0  0  0  0  0  0
    9.2950    1.3000   20.9480 O   0  0  0  0  0  0  0  0  0  0  0  0
    2.9844    2.6927   19.3613 H   0  0  0  0  0  0  0  0  0  0  0  0
    3.6214    2.0680   21.6561 H   0  0  0  0  0  0  0  0  0  0  0  0
   10.2684   -2.6719   22.3867 H   0  0  0  0  0  0  0  0  0  0  0  0
    7.8717   -0.0016   24.7596 H   0  0  0  0  0  0  0  0  0  0  0  0
    4.3780    2.0103   17.4276 H   0  0  0  0  0  0  0  0  0  0  0  0
    5.6758    0.7335   22.0897 H   0  0  0  0  0  0  0  0  0  0  0  0
    9.5443   -4.5616   23.7817 H   0  0  0  0  0  0  0  0  0  0  0  0
    7.1921   -1.8821   26.1908 H   0  0  0  0  0  0  0  0  0  0  0  0
   12.3609   -0.1338   23.5633 H   0  0  0  0  0  0  0  0  0  0  0  0
   10.2438    2.2800   26.4448 H   0  0  0  0  0  0  0  0  0  0  0  0
    8.4213   -0.8245   18.1548 H   0  0  0  0  0  0  0  0  0  0  0  0
    8.1558   -4.5961   29.7550 H   0  0  0  0  0  0  0  0  0  0  0  0
    7.5611   -5.9778   28.8324 H   0  0  0  0  0  0  0  0  0  0  0  0
    5.9459   -4.1594   28.6209 H   0  0  0  0  0  0  0  0  0  0  0  0
    7.2011   -3.0160   28.1536 H   0  0  0  0  0  0  0  0  0  0  0  0
    9.7290   -3.9880   27.9846 H   0  0  0  0  0  0  0  0  0  0  0  0
    9.9437   -5.6964   28.3562 H   0  0  0  0  0  0  0  0  0  0  0  0
    6.2543   -5.4402   26.5659 H   0  0  0  0  0  0  0  0  0  0  0  0
    5.9909   -3.7397   26.1451 H   0  0  0  0  0  0  0  0  0  0  0  0
    9.9128   -5.2367   25.8843 H   0  0  0  0  0  0  0  0  0  0  0  0
    8.6365   -6.3517   26.3987 H   0  0  0  0  0  0  0  0  0  0  0  0
   12.4111    0.8455   28.3302 H   0  0  0  0  0  0  0  0  0  0  0  0
   13.7921    1.6801   27.5409 H   0  0  0  0  0  0  0  0  0  0  0  0
   12.3182    2.5976   27.9419 H   0  0  0  0  0  0  0  0  0  0  0  0
    8.7512    1.4324   24.2245 H   0  0  0  0  0  0  0  0  0  0  0  0
    9.7926    2.1276   23.0121 H   0  0  0  0  0  0  0  0  0  0  0  0
   10.7449   -0.2552   22.5248 H   0  0  0  0  0  0  0  0  0  0  0  0
    8.0815   -1.6117   21.0754 H   0  0  0  0  0  0  0  0  0  0  0  0
  1  2  1  0  0  0  0
  1  5  2  0  0  0  0
  2  6  2  0  0  0  0
  3  7  2  0  0  0  0
  3 12  1  0  0  0  0
  4  8  1  0  0  0  0
  4 12  2  0  0  0  0
  5 14  1  0  0  0  0
  6 15  1  0  0  0  0
  7 16  1  0  0  0  0
  8 16  2  0  0  0  0
  9 13  1  0  0  0  0
  9 26  2  0  0  0  0
 10 13  2  0  0  0  0
 10 28  1  0  0  0  0
 11 27  2  0  0  0  0
 11 29  1  0  0  0  0
 12 25  1  0  0  0  0
 13 24  1  0  0  0  0
 14 15  2  0  0  0  0
 14 27  1  0  0  0  0
 15 29  1  0  0  0  0
 16 30  1  0  0  0  0
 17 25  1  0  0  0  0
 17 31  1  0  0  0  0
 17 32  2  0  0  0  0
 18 19  1  0  0  0  0
 18 20  1  0  0  0  0
 19 21  1  0  0  0  0
 20 22  1  0  0  0  0
 21 30  1  0  0  0  0
 22 30  1  0  0  0  0
 23 28  1  0  0  0  0
 24 25  1  6  0  0  0
 26 28  1  0  0  0  0
 29 31  1  0  0  0  0
  1 33  1  0  0  0  0
  2 34  1  0  0  0  0
  3 35  1  0  0  0  0
  4 36  1  0  0  0  0
  5 37  1  0  0  0  0
  6 38  1  0  0  0  0
  7 39  1  0  0  0  0
  8 40  1  0  0  0  0
  9 41  1  0  0  0  0
 10 42  1  0  0  0  0
 11 43  1  0  0  0  0
 18 44  1  0  0  0  0
 18 45  1  0  0  0  0
 19 46  1  0  0  0  0
 19 47  1  0  0  0  0
 20 48  1  0  0  0  0
 20 49  1  0  0  0  0
 21 50  1  0  0  0  0
 21 51  1  0  0  0  0
 22 52  1  0  0  0  0
 22 53  1  0  0  0  0
 23 54  1  0  0  0  0
 23 55  1  0  0  0  0
 23 56  1  0  0  0  0
 24 57  1  0  0  0  0
 24 58  1  0  0  0  0
 25 59  1  0  0  0  0
 31 60  1  0  0  0  0
M  END
> <clash_score>
2.8628372199986925

> <docking_score>
-4.3161797523498535

> <overlap_score>
0.8526791334152222

$$$$
BENZO_206_2
  -OEChem-08232013533D

 60 64  0     1  0  0  0  0  0999 V2000
    3.8860    2.1050   19.5250 C   0  0  0  0  0  0  0  0  0  0  0  0
    4.2460    1.7520   20.8250 C   0  0  0  0  0  0  0  0  0  0  0  0
   13.9335   -1.1650   25.0278 C   0  0  0  0  0  0  0  0  0  0  0  0
   13.2150   -1.0227   23.8408 C   0  0  0  0  0  0  0  0  0  0  0  0
    9.5890   -2.4950   23.2210 C   0  0  0  0  0  0  0  0  0  0  0  0
    8.2550   -1.0010   24.5520 C   0  0  0  0  0  0  0  0  0  0  0  0
    4.6610    1.7170   18.4380 C   0  0  0  0  0  0  0  0  0  0  0  0
    5.3890    1.0010   21.0690 C   0  0  0  0  0  0  0  0  0  0  0  0
    9.1890   -3.5540   24.0140 C   0  0  0  0  0  0  0  0  0  0  0  0
    7.8700   -2.0610   25.3550 C   0  0  0  0  0  0  0  0  0  0  0  0
   13.4326   -0.6302   26.2147 C   0  0  0  0  0  0  0  0  0  0  0  0
   11.4946    0.1894   25.0275 C   0  0  0  0  0  0  0  0  0  0  0  0
    7.5840   -0.2700   18.5160 C   0  0  0  0  0  0  0  0  0  0  0  0
    9.1280   -1.2090   23.4870 C   0  0  0  0  0  0  0  0  0  0  0  0
   11.9955   -0.3454   23.8406 C   0  0  0  0  0  0  0  0  0  0  0  0
    5.7970    0.9500   18.6730 C   0  0  0  0  0  0  0  0  0  0  0  0
    6.1460    0.6070   19.9750 C   0  0  0  0  0  0  0  0  0  0  0  0
    8.3450   -3.3440   25.0980 C   0  0  0  0  0  0  0  0  0  0  0  0
   12.2132    0.0471   26.2146 C   0  0  0  0  0  0  0  0  0  0  0  0
    9.0430    0.2380   21.4940 C   0  0  0  0  0  0  0  0  0  0  0  0
    7.9496   -4.9537   28.7345 C   0  0  0  0  0  0  0  0  0  0  0  0
    6.8919   -4.0607   28.0818 C   0  0  0  0  0  0  0  0  0  0  0  0
    9.2470   -4.9693   27.9230 C   0  0  0  0  0  0  0  0  0  0  0  0
    6.6889   -4.4385   26.6147 C   0  0  0  0  0  0  0  0  0  0  0  0
    8.9871   -5.3207   26.4549 C   0  0  0  0  0  0  0  0  0  0  0  0
   11.2185   -0.1906   22.5545 C   0  0  0  0  0  0  0  0  0  0  0  0
    9.5820   -0.1080   22.7000 C   0  0  2  0  0  0  0  0  0  0  0  0
    6.7100    0.3850   17.8100 N   0  0  0  0  0  0  0  0  0  0  0  0
    7.2710   -0.1460   19.8310 N   0  0  0  0  0  0  0  0  0  0  0  0
    7.9769   -4.4027   25.9163 N   0  0  0  0  0  0  0  0  0  0  0  0
    8.0950   -0.7700   20.8440 N   0  0  0  0  0  0  0  0  0  0  0  0
    9.2950    1.3000   20.9480 O   0  0  0  0  0  0  0  0  0  0  0  0
   11.5963    0.7077   27.6790 Cl  0  0  0  0  0  0  0  0  0  0  0  0
    2.9844    2.6927   19.3613 H   0  0  0  0  0  0  0  0  0  0  0  0
    3.6214    2.0680   21.6561 H   0  0  0  0  0  0  0  0  0  0  0  0
   14.8831   -1.6923   25.0274 H   0  0  0  0  0  0  0  0  0  0  0  0
   13.6129   -1.4425   22.9206 H   0  0  0  0  0  0  0  0  0  0  0  0
   10.2684   -2.6719   22.3867 H   0  0  0  0  0  0  0  0  0  0  0  0
    7.8717   -0.0016   24.7596 H   0  0  0  0  0  0  0  0  0  0  0  0
    4.3780    2.0103   17.4276 H   0  0  0  0  0  0  0  0  0  0  0  0
    5.6758    0.7336   22.0897 H   0  0  0  0  0  0  0  0  0  0  0  0
    9.5443   -4.5616   23.7817 H   0  0  0  0  0  0  0  0  0  0  0  0
    7.1921   -1.8821   26.1908 H   0  0  0  0  0  0  0  0  0  0  0  0
   14.0036   -0.7485   27.1323 H   0  0  0  0  0  0  0  0  0  0  0  0
   10.5431    0.7162   25.0223 H   0  0  0  0  0  0  0  0  0  0  0  0
    8.4213   -0.8245   18.1548 H   0  0  0  0  0  0  0  0  0  0  0  0
    8.1558   -4.5961   29.7550 H   0  0  0  0  0  0  0  0  0  0  0  0
    7.5611   -5.9778   28.8324 H   0  0  0  0  0  0  0  0  0  0  0  0
    5.9459   -4.1594   28.6209 H   0  0  0  0  0  0  0  0  0  0  0  0
    7.2011   -3.0160   28.1536 H   0  0  0  0  0  0  0  0  0  0  0  0
    9.7290   -3.9880   27.9846 H   0  0  0  0  0  0  0  0  0  0  0  0
    9.9437   -5.6964   28.3562 H   0  0  0  0  0  0  0  0  0  0  0  0
    6.2543   -5.4402   26.5659 H   0  0  0  0  0  0  0  0  0  0  0  0
    5.9909   -3.7397   26.1451 H   0  0  0  0  0  0  0  0  0  0  0  0
    9.9128   -5.2367   25.8843 H   0  0  0  0  0  0  0  0  0  0  0  0
    8.6365   -6.3517   26.3987 H   0  0  0  0  0  0  0  0  0  0  0  0
   11.6029    0.6963   22.0317 H   0  0  0  0  0  0  0  0  0  0  0  0
   11.4403   -1.0329   21.8857 H   0  0  0  0  0  0  0  0  0  0  0  0
    9.5315    0.8594   23.3833 H   0  0  0  0  0  0  0  0  0  0  0  0
    8.0815   -1.6117   21.0754 H   0  0  0  0  0  0  0  0  0  0  0  0
  1  2  1  0  0  0  0
  1  7  2  0  0  0  0
  2  8  2  0  0  0  0
  3  4  2  0  0  0  0
  3 11  1  0  0  0  0
  4 15  1  0  0  0  0
  5  9  2  0  0  0  0
  5 14  1  0  0  0  0
  6 10  1  0  0  0  0
  6 14  2  0  0  0  0
  7 16  1  0  0  0  0
  8 17  1  0  0  0  0
  9 18  1  0  0  0  0
 10 18  2  0  0  0  0
 11 19  2  0  0  0  0
 12 15  2  0  0  0  0
 12 19  1  0  0  0  0
 13 28  2  0  0  0  0
 13 29  1  0  0  0  0
 14 27  1  0  0  0  0
 15 26  1  0  0  0  0
 16 17  2  0  0  0  0
 16 28  1  0  0  0  0
 17 29  1  0  0  0  0
 18 30  1  0  0  0  0
 19 33  1  0  0  0  0
 20 27  1  6  0  0  0
 20 31  1  0  0  0  0
 20 32  2  0  0  0  0
 21 22  1  0  0  0  0
 21 23  1  0  0  0  0
 22 24  1  0  0  0  0
 23 25  1  0  0  0  0
 24 30  1  0  0  0  0
 25 30  1  0  0  0  0
 26 27  1  0  0  0  0
 29 31  1  0  0  0  0
  1 34  1  0  0  0  0
  2 35  1  0  0  0  0
  3 36  1  0  0  0  0
  4 37  1  0  0  0  0
  5 38  1  0  0  0  0
  6 39  1  0  0  0  0
  7 40  1  0  0  0  0
  8 41  1  0  0  0  0
  9 42  1  0  0  0  0
 10 43  1  0  0  0  0
 11 44  1  0  0  0  0
 12 45  1  0  0  0  0
 13 46  1  0  0  0  0
 21 47  1  0  0  0  0
 21 48  1  0  0  0  0
 22 49  1  0  0  0  0
 22 50  1  0  0  0  0
 23 51  1  0  0  0  0
 23 52  1  0  0  0  0
 24 53  1  0  0  0  0
 24 54  1  0  0  0  0
 25 55  1  0  0  0  0
 25 56  1  0  0  0  0
 26 57  1  0  0  0  0
 26 58  1  0  0  0  0
 27 59  1  0  0  0  0
 31 60  1  0  0  0  0
M  END
> <clash_score>
0.6771844388935995

> <docking_score>
-6.177657127380371

> <overlap_score>
0.9269747138023376

$$$$
BENZO_207_1
  -OEChem-08232013533D

 60 64  0     1  0  0  0  0  0999 V2000
    3.8860    2.1050   19.5250 C   0  0  0  0  0  0  0  0  0  0  0  0
    4.2460    1.7520   20.8250 C   0  0  0  0  0  0  0  0  0  0  0  0
    9.5890   -2.4950   23.2210 C   0  0  0  0  0  0  0  0  0  0  0  0
    8.2550   -1.0010   24.5520 C   0  0  0  0  0  0  0  0  0  0  0  0
    4.6610    1.7170   18.4380 C   0  0  0  0  0  0  0  0  0  0  0  0
    5.3890    1.0010   21.0690 C   0  0  0  0  0  0  0  0  0  0  0  0
    9.1890   -3.5540   24.0140 C   0  0  0  0  0  0  0  0  0  0  0  0
    7.8700   -2.0610   25.3550 C   0  0  0  0  0  0  0  0  0  0  0  0
   13.2946    0.1160   24.1259 C   0  0  0  0  0  0  0  0  0  0  0  0
   11.5904   -0.9670   24.9965 C   0  0  0  0  0  0  0  0  0  0  0  0
    7.5840   -0.2700   18.5160 C   0  0  0  0  0  0  0  0  0  0  0  0
    9.1280   -1.2090   23.4870 C   0  0  0  0  0  0  0  0  0  0  0  0
   11.9955   -0.3454   23.8406 C   0  0  0  0  0  0  0  0  0  0  0  0
    5.7970    0.9500   18.6730 C   0  0  0  0  0  0  0  0  0  0  0  0
    6.1460    0.6070   19.9750 C   0  0  0  0  0  0  0  0  0  0  0  0
    8.3450   -3.3440   25.0980 C   0  0  0  0  0  0  0  0  0  0  0  0
    9.0430    0.2380   21.4940 C   0  0  0  0  0  0  0  0  0  0  0  0
    7.9496   -4.9537   28.7345 C   0  0  0  0  0  0  0  0  0  0  0  0
    6.8919   -4.0607   28.0818 C   0  0  0  0  0  0  0  0  0  0  0  0
    9.2470   -4.9693   27.9230 C   0  0  0  0  0  0  0  0  0  0  0  0
    6.6889   -4.4385   26.6147 C   0  0  0  0  0  0  0  0  0  0  0  0
    8.9871   -5.3207   26.4549 C   0  0  0  0  0  0  0  0  0  0  0  0
   12.6757   -1.3438   27.2233 C   0  0  0  0  0  0  0  0  0  0  0  0
   11.2185   -0.1906   22.5545 C   0  0  0  0  0  0  0  0  0  0  0  0
    9.5820   -0.1080   22.7000 C   0  0  1  0  0  0  0  0  0  0  0  0
   13.6885   -0.1865   25.3658 N   0  0  0  0  0  0  0  0  0  0  0  0
    6.7100    0.3850   17.8100 N   0  0  0  0  0  0  0  0  0  0  0  0
   12.6307   -0.8445   25.8699 N   0  0  0  0  0  0  0  0  0  0  0  0
    7.2710   -0.1460   19.8310 N   0  0  0  0  0  0  0  0  0  0  0  0
    7.9769   -4.4027   25.9163 N   0  0  0  0  0  0  0  0  0  0  0  0
    8.0950   -0.7700   20.8440 N   0  0  0  0  0  0  0  0  0  0  0  0
    9.2950    1.3000   20.9480 O   0  0  0  0  0  0  0  0  0  0  0  0
    2.9844    2.6927   19.3613 H   0  0  0  0  0  0  0  0  0  0  0  0
    3.6214    2.0680   21.6561 H   0  0  0  0  0  0  0  0  0  0  0  0
   10.2684   -2.6719   22.3867 H   0  0  0  0  0  0  0  0  0  0  0  0
    7.8717   -0.0016   24.7596 H   0  0  0  0  0  0  0  0  0  0  0  0
    4.3780    2.0103   17.4276 H   0  0  0  0  0  0  0  0  0  0  0  0
    5.6758    0.7336   22.0897 H   0  0  0  0  0  0  0  0  0  0  0  0
    9.5443   -4.5616   23.7817 H   0  0  0  0  0  0  0  0  0  0  0  0
    7.1921   -1.8821   26.1908 H   0  0  0  0  0  0  0  0  0  0  0  0
   13.9722    0.6609   23.4839 H   0  0  0  0  0  0  0  0  0  0  0  0
   10.6727   -1.4722   25.2656 H   0  0  0  0  0  0  0  0  0  0  0  0
    8.4213   -0.8245   18.1548 H   0  0  0  0  0  0  0  0  0  0  0  0
    8.1558   -4.5961   29.7550 H   0  0  0  0  0  0  0  0  0  0  0  0
    7.5611   -5.9778   28.8324 H   0  0  0  0  0  0  0  0  0  0  0  0
    5.9459   -4.1594   28.6209 H   0  0  0  0  0  0  0  0  0  0  0  0
    7.2011   -3.0160   28.1536 H   0  0  0  0  0  0  0  0  0  0  0  0
    9.7290   -3.9880   27.9846 H   0  0  0  0  0  0  0  0  0  0  0  0
    9.9437   -5.6964   28.3562 H   0  0  0  0  0  0  0  0  0  0  0  0
    6.2543   -5.4402   26.5659 H   0  0  0  0  0  0  0  0  0  0  0  0
    5.9909   -3.7397   26.1451 H   0  0  0  0  0  0  0  0  0  0  0  0
    9.9128   -5.2367   25.8843 H   0  0  0  0  0  0  0  0  0  0  0  0
    8.6365   -6.3517   26.3987 H   0  0  0  0  0  0  0  0  0  0  0  0
   13.0811   -2.3586   27.1952 H   0  0  0  0  0  0  0  0  0  0  0  0
   13.3128   -0.6943   27.8300 H   0  0  0  0  0  0  0  0  0  0  0  0
   11.6652   -1.3460   27.6414 H   0  0  0  0  0  0  0  0  0  0  0  0
   11.6029    0.6962   22.0317 H   0  0  0  0  0  0  0  0  0  0  0  0
   11.4403   -1.0329   21.8857 H   0  0  0  0  0  0  0  0  0  0  0  0
    9.5315    0.8594   23.3833 H   0  0  0  0  0  0  0  0  0  0  0  0
    8.0815   -1.6117   21.0754 H   0  0  0  0  0  0  0  0  0  0  0  0
  1  2  1  0  0  0  0
  1  5  2  0  0  0  0
  2  6  2  0  0  0  0
  3  7  2  0  0  0  0
  3 12  1  0  0  0  0
  4  8  1  0  0  0  0
  4 12  2  0  0  0  0
  5 14  1  0  0  0  0
  6 15  1  0  0  0  0
  7 16  1  0  0  0  0
  8 16  2  0  0  0  0
  9 13  1  0  0  0  0
  9 26  2  0  0  0  0
 10 13  2  0  0  0  0
 10 28  1  0  0  0  0
 11 27  2  0  0  0  0
 11 29  1  0  0  0  0
 12 25  1  0  0  0  0
 13 24  1  0  0  0  0
 14 15  2  0  0  0  0
 14 27  1  0  0  0  0
 15 29  1  0  0  0  0
 16 30  1  0  0  0  0
 17 25  1  0  0  0  0
 17 31  1  0  0  0  0
 17 32  2  0  0  0  0
 18 19  1  0  0  0  0
 18 20  1  0  0  0  0
 19 21  1  0  0  0  0
 20 22  1  0  0  0  0
 21 30  1  0  0  0  0
 22 30  1  0  0  0  0
 23 28  1  0  0  0  0
 24 25  1  1  0  0  0
 26 28  1  0  0  0  0
 29 31  1  0  0  0  0
  1 33  1  0  0  0  0
  2 34  1  0  0  0  0
  3 35  1  0  0  0  0
  4 36  1  0  0  0  0
  5 37  1  0  0  0  0
  6 38  1  0  0  0  0
  7 39  1  0  0  0  0
  8 40  1  0  0  0  0
  9 41  1  0  0  0  0
 10 42  1  0  0  0  0
 11 43  1  0  0  0  0
 18 44  1  0  0  0  0
 18 45  1  0  0  0  0
 19 46  1  0  0  0  0
 19 47  1  0  0  0  0
 20 48  1  0  0  0  0
 20 49  1  0  0  0  0
 21 50  1  0  0  0  0
 21 51  1  0  0  0  0
 22 52  1  0  0  0  0
 22 53  1  0  0  0  0
 23 54  1  0  0  0  0
 23 55  1  0  0  0  0
 23 56  1  0  0  0  0
 24 57  1  0  0  0  0
 24 58  1  0  0  0  0
 25 59  1  0  0  0  0
 31 60  1  0  0  0  0
M  END
> <clash_score>
1.3152039535109838

> <docking_score>
-6.794829845428467

> <overlap_score>
0.913967490196228

$$$$
BENZO_211_1
  -OEChem-08232013533D

 48 51  0     1  0  0  0  0  0999 V2000
    3.8860    2.1050   19.5250 C   0  0  0  0  0  0  0  0  0  0  0  0
    4.2460    1.7520   20.8250 C   0  0  0  0  0  0  0  0  0  0  0  0
    9.1890   -3.5540   24.0140 C   0  0  0  0  0  0  0  0  0  0  0  0
    7.8700   -2.0610   25.3550 C   0  0  0  0  0  0  0  0  0  0  0  0
    9.5890   -2.4950   23.2210 C   0  0  0  0  0  0  0  0  0  0  0  0
    8.2550   -1.0010   24.5520 C   0  0  0  0  0  0  0  0  0  0  0  0
    4.6610    1.7170   18.4380 C   0  0  0  0  0  0  0  0  0  0  0  0
    5.3890    1.0010   21.0690 C   0  0  0  0  0  0  0  0  0  0  0  0
   13.2198   -1.0300   24.0348 C   0  0  0  0  0  0  0  0  0  0  0  0
   11.6457    0.0746   25.1011 C   0  0  0  0  0  0  0  0  0  0  0  0
    7.5840   -0.2700   18.5160 C   0  0  0  0  0  0  0  0  0  0  0  0
    8.3450   -3.3440   25.0980 C   0  0  0  0  0  0  0  0  0  0  0  0
    9.1280   -1.2090   23.4870 C   0  0  0  0  0  0  0  0  0  0  0  0
   11.9876   -0.3748   23.8491 C   0  0  0  0  0  0  0  0  0  0  0  0
    5.7970    0.9500   18.6730 C   0  0  0  0  0  0  0  0  0  0  0  0
    6.1460    0.6070   19.9750 C   0  0  0  0  0  0  0  0  0  0  0  0
    9.0430    0.2380   21.4940 C   0  0  0  0  0  0  0  0  0  0  0  0
    7.9517   -4.4787   25.9770 C   0  0  0  0  0  0  0  0  0  0  0  0
   12.7431   -0.0808   27.3484 C   0  0  0  0  0  0  0  0  0  0  0  0
   11.2147   -0.2012   22.5629 C   0  0  0  0  0  0  0  0  0  0  0  0
    9.5820   -0.1080   22.7000 C   0  0  1  0  0  0  0  0  0  0  0  0
   13.6327   -1.0014   25.3047 N   0  0  0  0  0  0  0  0  0  0  0  0
    6.7100    0.3850   17.8100 N   0  0  0  0  0  0  0  0  0  0  0  0
   12.6546   -0.3228   25.9283 N   0  0  0  0  0  0  0  0  0  0  0  0
    7.2710   -0.1460   19.8310 N   0  0  0  0  0  0  0  0  0  0  0  0
    8.0950   -0.7700   20.8440 N   0  0  0  0  0  0  0  0  0  0  0  0
    9.2950    1.3000   20.9480 O   0  0  0  0  0  0  0  0  0  0  0  0
    2.9844    2.6927   19.3613 H   0  0  0  0  0  0  0  0  0  0  0  0
    3.6214    2.0680   21.6561 H   0  0  0  0  0  0  0  0  0  0  0  0
    9.5416   -4.5625   23.7818 H   0  0  0  0  0  0  0  0  0  0  0  0
    7.1926   -1.8847   26.1916 H   0  0  0  0  0  0  0  0  0  0  0  0
   10.2688   -2.6720   22.3870 H   0  0  0  0  0  0  0  0  0  0  0  0
    7.8705   -0.0015   24.7579 H   0  0  0  0  0  0  0  0  0  0  0  0
    4.3780    2.0103   17.4276 H   0  0  0  0  0  0  0  0  0  0  0  0
    5.6758    0.7336   22.0897 H   0  0  0  0  0  0  0  0  0  0  0  0
   13.8362   -1.5269   23.2991 H   0  0  0  0  0  0  0  0  0  0  0  0
   10.7922    0.6307   25.4647 H   0  0  0  0  0  0  0  0  0  0  0  0
    8.4213   -0.8245   18.1548 H   0  0  0  0  0  0  0  0  0  0  0  0
    8.6661   -4.5883   26.8021 H   0  0  0  0  0  0  0  0  0  0  0  0
    6.9508   -4.3263   26.4014 H   0  0  0  0  0  0  0  0  0  0  0  0
    7.9188   -5.4228   25.4175 H   0  0  0  0  0  0  0  0  0  0  0  0
   12.2620   -0.9164   27.8636 H   0  0  0  0  0  0  0  0  0  0  0  0
   13.7943   -0.0060   27.6402 H   0  0  0  0  0  0  0  0  0  0  0  0
   12.2374    0.8590   27.5870 H   0  0  0  0  0  0  0  0  0  0  0  0
   11.6025    0.6918   22.0532 H   0  0  0  0  0  0  0  0  0  0  0  0
   11.4368   -1.0349   21.8836 H   0  0  0  0  0  0  0  0  0  0  0  0
    9.5277    0.8495   23.3908 H   0  0  0  0  0  0  0  0  0  0  0  0
    8.1074   -1.6160   21.1028 H   0  0  0  0  0  0  0  0  0  0  0  0
  1  2  1  0  0  0  0
  1  7  2  0  0  0  0
  2  8  2  0  0  0  0
  3  5  2  0  0  0  0
  3 12  1  0  0  0  0
  4  6  1  0  0  0  0
  4 12  2  0  0  0  0
  5 13  1  0  0  0  0
  6 13  2  0  0  0  0
  7 15  1  0  0  0  0
  8 16  1  0  0  0  0
  9 14  1  0  0  0  0
  9 22  2  0  0  0  0
 10 14  2  0  0  0  0
 10 24  1  0  0  0  0
 11 23  2  0  0  0  0
 11 25  1  0  0  0  0
 12 18  1  0  0  0  0
 13 21  1  0  0  0  0
 14 20  1  0  0  0  0
 15 16  2  0  0  0  0
 15 23  1  0  0  0  0
 16 25  1  0  0  0  0
 17 21  1  0  0  0  0
 17 26  1  0  0  0  0
 17 27  2  0  0  0  0
 19 24  1  0  0  0  0
 20 21  1  1  0  0  0
 22 24  1  0  0  0  0
 25 26  1  0  0  0  0
  1 28  1  0  0  0  0
  2 29  1  0  0  0  0
  3 30  1  0  0  0  0
  4 31  1  0  0  0  0
  5 32  1  0  0  0  0
  6 33  1  0  0  0  0
  7 34  1  0  0  0  0
  8 35  1  0  0  0  0
  9 36  1  0  0  0  0
 10 37  1  0  0  0  0
 11 38  1  0  0  0  0
 18 39  1  0  0  0  0
 18 40  1  0  0  0  0
 18 41  1  0  0  0  0
 19 42  1  0  0  0  0
 19 43  1  0  0  0  0
 19 44  1  0  0  0  0
 20 45  1  0  0  0  0
 20 46  1  0  0  0  0
 21 47  1  0  0  0  0
 26 48  1  0  0  0  0
M  END
> <clash_score>
0

> <docking_score>
-5.761953353881836

> <overlap_score>
0.8344547152519226

$$$$
BENZO_211_2
  -OEChem-08232013533D

 48 51  0     1  0  0  0  0  0999 V2000
    3.8860    2.1050   19.5250 C   0  0  0  0  0  0  0  0  0  0  0  0
    4.2460    1.7520   20.8250 C   0  0  0  0  0  0  0  0  0  0  0  0
    9.1890   -3.5540   24.0140 C   0  0  0  0  0  0  0  0  0  0  0  0
    7.8700   -2.0610   25.3550 C   0  0  0  0  0  0  0  0  0  0  0  0
    9.5890   -2.4950   23.2210 C   0  0  0  0  0  0  0  0  0  0  0  0
    8.2550   -1.0010   24.5520 C   0  0  0  0  0  0  0  0  0  0  0  0
    4.6610    1.7170   18.4380 C   0  0  0  0  0  0  0  0  0  0  0  0
    5.3890    1.0010   21.0690 C   0  0  0  0  0  0  0  0  0  0  0  0
   12.0261    0.4217   24.4676 C   0  0  0  0  0  0  0  0  0  0  0  0
   10.8915    1.6496   25.8958 C   0  0  0  0  0  0  0  0  0  0  0  0
    7.5840   -0.2700   18.5160 C   0  0  0  0  0  0  0  0  0  0  0  0
    8.3450   -3.3440   25.0980 C   0  0  0  0  0  0  0  0  0  0  0  0
    9.1280   -1.2090   23.4870 C   0  0  0  0  0  0  0  0  0  0  0  0
   10.8079    1.1067   24.6370 C   0  0  0  0  0  0  0  0  0  0  0  0
    5.7970    0.9500   18.6730 C   0  0  0  0  0  0  0  0  0  0  0  0
    6.1460    0.6070   19.9750 C   0  0  0  0  0  0  0  0  0  0  0  0
    9.0430    0.2380   21.4940 C   0  0  0  0  0  0  0  0  0  0  0  0
    7.9517   -4.4787   25.9770 C   0  0  0  0  0  0  0  0  0  0  0  0
   12.6499    1.6036   27.6803 C   0  0  0  0  0  0  0  0  0  0  0  0
    9.6654    1.2227   23.6555 C   0  0  0  0  0  0  0  0  0  0  0  0
    9.5820   -0.1080   22.7000 C   0  0  2  0  0  0  0  0  0  0  0  0
   12.8250    0.5191   25.5335 N   0  0  0  0  0  0  0  0  0  0  0  0
    6.7100    0.3850   17.8100 N   0  0  0  0  0  0  0  0  0  0  0  0
   12.1074    1.2718   26.3847 N   0  0  0  0  0  0  0  0  0  0  0  0
    7.2710   -0.1460   19.8310 N   0  0  0  0  0  0  0  0  0  0  0  0
    8.0950   -0.7700   20.8440 N   0  0  0  0  0  0  0  0  0  0  0  0
    9.2950    1.3000   20.9480 O   0  0  0  0  0  0  0  0  0  0  0  0
    2.9844    2.6927   19.3613 H   0  0  0  0  0  0  0  0  0  0  0  0
    3.6214    2.0680   21.6561 H   0  0  0  0  0  0  0  0  0  0  0  0
    9.5416   -4.5625   23.7818 H   0  0  0  0  0  0  0  0  0  0  0  0
    7.1926   -1.8847   26.1916 H   0  0  0  0  0  0  0  0  0  0  0  0
   10.2688   -2.6720   22.3870 H   0  0  0  0  0  0  0  0  0  0  0  0
    7.8705   -0.0015   24.7579 H   0  0  0  0  0  0  0  0  0  0  0  0
    4.3780    2.0103   17.4276 H   0  0  0  0  0  0  0  0  0  0  0  0
    5.6758    0.7336   22.0897 H   0  0  0  0  0  0  0  0  0  0  0  0
   12.3675   -0.1444   23.6125 H   0  0  0  0  0  0  0  0  0  0  0  0
   10.2069    2.2586   26.4706 H   0  0  0  0  0  0  0  0  0  0  0  0
    8.4213   -0.8245   18.1548 H   0  0  0  0  0  0  0  0  0  0  0  0
    8.6661   -4.5883   26.8021 H   0  0  0  0  0  0  0  0  0  0  0  0
    6.9508   -4.3263   26.4014 H   0  0  0  0  0  0  0  0  0  0  0  0
    7.9188   -5.4228   25.4175 H   0  0  0  0  0  0  0  0  0  0  0  0
   12.3491    0.8215   28.3823 H   0  0  0  0  0  0  0  0  0  0  0  0
   13.7401    1.6599   27.6150 H   0  0  0  0  0  0  0  0  0  0  0  0
   12.2595    2.5745   27.9977 H   0  0  0  0  0  0  0  0  0  0  0  0
    8.7459    1.4099   24.2274 H   0  0  0  0  0  0  0  0  0  0  0  0
    9.8015    2.1185   23.0351 H   0  0  0  0  0  0  0  0  0  0  0  0
   10.7408   -0.2662   22.5300 H   0  0  0  0  0  0  0  0  0  0  0  0
    8.1074   -1.6160   21.1028 H   0  0  0  0  0  0  0  0  0  0  0  0
  1  2  1  0  0  0  0
  1  7  2  0  0  0  0
  2  8  2  0  0  0  0
  3  5  2  0  0  0  0
  3 12  1  0  0  0  0
  4  6  1  0  0  0  0
  4 12  2  0  0  0  0
  5 13  1  0  0  0  0
  6 13  2  0  0  0  0
  7 15  1  0  0  0  0
  8 16  1  0  0  0  0
  9 14  1  0  0  0  0
  9 22  2  0  0  0  0
 10 14  2  0  0  0  0
 10 24  1  0  0  0  0
 11 23  2  0  0  0  0
 11 25  1  0  0  0  0
 12 18  1  0  0  0  0
 13 21  1  0  0  0  0
 14 20  1  0  0  0  0
 15 16  2  0  0  0  0
 15 23  1  0  0  0  0
 16 25  1  0  0  0  0
 17 21  1  0  0  0  0
 17 26  1  0  0  0  0
 17 27  2  0  0  0  0
 19 24  1  0  0  0  0
 20 21  1  6  0  0  0
 22 24  1  0  0  0  0
 25 26  1  0  0  0  0
  1 28  1  0  0  0  0
  2 29  1  0  0  0  0
  3 30  1  0  0  0  0
  4 31  1  0  0  0  0
  5 32  1  0  0  0  0
  6 33  1  0  0  0  0
  7 34  1  0  0  0  0
  8 35  1  0  0  0  0
  9 36  1  0  0  0  0
 10 37  1  0  0  0  0
 11 38  1  0  0  0  0
 18 39  1  0  0  0  0
 18 40  1  0  0  0  0
 18 41  1  0  0  0  0
 19 42  1  0  0  0  0
 19 43  1  0  0  0  0
 19 44  1  0  0  0  0
 20 45  1  0  0  0  0
 20 46  1  0  0  0  0
 21 47  1  0  0  0  0
 26 48  1  0  0  0  0
M  END
> <clash_score>
2.853629731621518

> <docking_score>
-3.4824447631835938

> <overlap_score>
0.7624847888946533

$$$$
BENZO_210_2
  -OEChem-08232013533D

 48 51  0     1  0  0  0  0  0999 V2000
    3.8860    2.1050   19.5250 C   0  0  0  0  0  0  0  0  0  0  0  0
    4.2460    1.7520   20.8250 C   0  0  0  0  0  0  0  0  0  0  0  0
   11.7758    1.6198   26.7903 C   0  0  0  0  0  0  0  0  0  0  0  0
   10.7217    1.7274   25.8831 C   0  0  0  0  0  0  0  0  0  0  0  0
    9.1890   -3.5540   24.0140 C   0  0  0  0  0  0  0  0  0  0  0  0
    7.8700   -2.0610   25.3550 C   0  0  0  0  0  0  0  0  0  0  0  0
    9.5890   -2.4950   23.2210 C   0  0  0  0  0  0  0  0  0  0  0  0
    8.2550   -1.0010   24.5520 C   0  0  0  0  0  0  0  0  0  0  0  0
    4.6610    1.7170   18.4380 C   0  0  0  0  0  0  0  0  0  0  0  0
    5.3890    1.0010   21.0690 C   0  0  0  0  0  0  0  0  0  0  0  0
   12.9162    0.8915   26.4512 C   0  0  0  0  0  0  0  0  0  0  0  0
   11.9483    0.3784   24.2979 C   0  0  0  0  0  0  0  0  0  0  0  0
    7.5840   -0.2700   18.5160 C   0  0  0  0  0  0  0  0  0  0  0  0
    8.3450   -3.3440   25.0980 C   0  0  0  0  0  0  0  0  0  0  0  0
    9.1280   -1.2090   23.4870 C   0  0  0  0  0  0  0  0  0  0  0  0
   10.8079    1.1067   24.6370 C   0  0  0  0  0  0  0  0  0  0  0  0
    5.7970    0.9500   18.6730 C   0  0  0  0  0  0  0  0  0  0  0  0
    6.1460    0.6070   19.9750 C   0  0  0  0  0  0  0  0  0  0  0  0
   13.0024    0.2709   25.2050 C   0  0  0  0  0  0  0  0  0  0  0  0
    9.0430    0.2380   21.4940 C   0  0  0  0  0  0  0  0  0  0  0  0
    7.9517   -4.4787   25.9770 C   0  0  0  0  0  0  0  0  0  0  0  0
    9.6654    1.2227   23.6555 C   0  0  0  0  0  0  0  0  0  0  0  0
    9.5820   -0.1080   22.7000 C   0  0  2  0  0  0  0  0  0  0  0  0
    6.7100    0.3850   17.8100 N   0  0  0  0  0  0  0  0  0  0  0  0
    7.2710   -0.1460   19.8310 N   0  0  0  0  0  0  0  0  0  0  0  0
    8.0950   -0.7700   20.8440 N   0  0  0  0  0  0  0  0  0  0  0  0
    9.2950    1.3000   20.9480 O   0  0  0  0  0  0  0  0  0  0  0  0
   14.4091   -0.6285   24.7878 Cl  0  0  0  0  0  0  0  0  0  0  0  0
    2.9844    2.6927   19.3613 H   0  0  0  0  0  0  0  0  0  0  0  0
    3.6214    2.0680   21.6561 H   0  0  0  0  0  0  0  0  0  0  0  0
   11.7082    2.1031   27.7606 H   0  0  0  0  0  0  0  0  0  0  0  0
    9.8369    2.2967   26.1558 H   0  0  0  0  0  0  0  0  0  0  0  0
    9.5416   -4.5625   23.7818 H   0  0  0  0  0  0  0  0  0  0  0  0
    7.1926   -1.8847   26.1916 H   0  0  0  0  0  0  0  0  0  0  0  0
   10.2688   -2.6720   22.3870 H   0  0  0  0  0  0  0  0  0  0  0  0
    7.8705   -0.0015   24.7579 H   0  0  0  0  0  0  0  0  0  0  0  0
    4.3780    2.0103   17.4276 H   0  0  0  0  0  0  0  0  0  0  0  0
    5.6758    0.7336   22.0897 H   0  0  0  0  0  0  0  0  0  0  0  0
   13.7299    0.8159   27.1683 H   0  0  0  0  0  0  0  0  0  0  0  0
   12.0109   -0.1032   23.3248 H   0  0  0  0  0  0  0  0  0  0  0  0
    8.4213   -0.8245   18.1548 H   0  0  0  0  0  0  0  0  0  0  0  0
    8.6661   -4.5883   26.8021 H   0  0  0  0  0  0  0  0  0  0  0  0
    6.9508   -4.3263   26.4014 H   0  0  0  0  0  0  0  0  0  0  0  0
    7.9188   -5.4228   25.4175 H   0  0  0  0  0  0  0  0  0  0  0  0
    8.7459    1.4099   24.2274 H   0  0  0  0  0  0  0  0  0  0  0  0
    9.8015    2.1185   23.0351 H   0  0  0  0  0  0  0  0  0  0  0  0
   10.7408   -0.2662   22.5300 H   0  0  0  0  0  0  0  0  0  0  0  0
    8.1074   -1.6160   21.1028 H   0  0  0  0  0  0  0  0  0  0  0  0
  1  2  1  0  0  0  0
  1  9  2  0  0  0  0
  2 10  2  0  0  0  0
  3  4  2  0  0  0  0
  3 11  1  0  0  0  0
  4 16  1  0  0  0  0
  5  7  2  0  0  0  0
  5 14  1  0  0  0  0
  6  8  1  0  0  0  0
  6 14  2  0  0  0  0
  7 15  1  0  0  0  0
  8 15  2  0  0  0  0
  9 17  1  0  0  0  0
 10 18  1  0  0  0  0
 11 19  2  0  0  0  0
 12 16  2  0  0  0  0
 12 19  1  0  0  0  0
 13 24  2  0  0  0  0
 13 25  1  0  0  0  0
 14 21  1  0  0  0  0
 15 23  1  0  0  0  0
 16 22  1  0  0  0  0
 17 18  2  0  0  0  0
 17 24  1  0  0  0  0
 18 25  1  0  0  0  0
 19 28  1  0  0  0  0
 20 23  1  0  0  0  0
 20 26  1  0  0  0  0
 20 27  2  0  0  0  0
 22 23  1  6  0  0  0
 25 26  1  0  0  0  0
  1 29  1  0  0  0  0
  2 30  1  0  0  0  0
  3 31  1  0  0  0  0
  4 32  1  0  0  0  0
  5 33  1  0  0  0  0
  6 34  1  0  0  0  0
  7 35  1  0  0  0  0
  8 36  1  0  0  0  0
  9 37  1  0  0  0  0
 10 38  1  0  0  0  0
 11 39  1  0  0  0  0
 12 40  1  0  0  0  0
 13 41  1  0  0  0  0
 21 42  1  0  0  0  0
 21 43  1  0  0  0  0
 21 44  1  0  0  0  0
 22 45  1  0  0  0  0
 22 46  1  0  0  0  0
 23 47  1  0  0  0  0
 26 48  1  0  0  0  0
M  END
> <clash_score>
4.085678172074543

> <docking_score>
-3.9527597427368164

> <overlap_score>
0.7837685942649841

$$$$
BENZO_210_1
  -OEChem-08232013533D

 48 51  0     1  0  0  0  0  0999 V2000
    3.8860    2.1050   19.5250 C   0  0  0  0  0  0  0  0  0  0  0  0
    4.2460    1.7520   20.8250 C   0  0  0  0  0  0  0  0  0  0  0  0
   13.9169   -1.2205   25.0322 C   0  0  0  0  0  0  0  0  0  0  0  0
   13.2022   -1.0608   23.8451 C   0  0  0  0  0  0  0  0  0  0  0  0
    9.1890   -3.5540   24.0140 C   0  0  0  0  0  0  0  0  0  0  0  0
    7.8700   -2.0610   25.3550 C   0  0  0  0  0  0  0  0  0  0  0  0
    9.5890   -2.4950   23.2210 C   0  0  0  0  0  0  0  0  0  0  0  0
    8.2550   -1.0010   24.5520 C   0  0  0  0  0  0  0  0  0  0  0  0
    4.6610    1.7170   18.4380 C   0  0  0  0  0  0  0  0  0  0  0  0
    5.3890    1.0010   21.0690 C   0  0  0  0  0  0  0  0  0  0  0  0
   13.4171   -0.6943   26.2234 C   0  0  0  0  0  0  0  0  0  0  0  0
   11.4878    0.1514   25.0404 C   0  0  0  0  0  0  0  0  0  0  0  0
    7.5840   -0.2700   18.5160 C   0  0  0  0  0  0  0  0  0  0  0  0
    8.3450   -3.3440   25.0980 C   0  0  0  0  0  0  0  0  0  0  0  0
    9.1280   -1.2090   23.4870 C   0  0  0  0  0  0  0  0  0  0  0  0
   11.9876   -0.3748   23.8491 C   0  0  0  0  0  0  0  0  0  0  0  0
    5.7970    0.9500   18.6730 C   0  0  0  0  0  0  0  0  0  0  0  0
    6.1460    0.6070   19.9750 C   0  0  0  0  0  0  0  0  0  0  0  0
   12.2026   -0.0084   26.2275 C   0  0  0  0  0  0  0  0  0  0  0  0
    9.0430    0.2380   21.4940 C   0  0  0  0  0  0  0  0  0  0  0  0
    7.9517   -4.4787   25.9770 C   0  0  0  0  0  0  0  0  0  0  0  0
   11.2147   -0.2012   22.5629 C   0  0  0  0  0  0  0  0  0  0  0  0
    9.5820   -0.1080   22.7000 C   0  0  1  0  0  0  0  0  0  0  0  0
    6.7100    0.3850   17.8100 N   0  0  0  0  0  0  0  0  0  0  0  0
    7.2710   -0.1460   19.8310 N   0  0  0  0  0  0  0  0  0  0  0  0
    8.0950   -0.7700   20.8440 N   0  0  0  0  0  0  0  0  0  0  0  0
    9.2950    1.3000   20.9480 O   0  0  0  0  0  0  0  0  0  0  0  0
   11.5870    0.6416   27.6973 Cl  0  0  0  0  0  0  0  0  0  0  0  0
    2.9844    2.6927   19.3613 H   0  0  0  0  0  0  0  0  0  0  0  0
    3.6214    2.0680   21.6561 H   0  0  0  0  0  0  0  0  0  0  0  0
   14.8627   -1.7546   25.0285 H   0  0  0  0  0  0  0  0  0  0  0  0
   13.5992   -1.4740   22.9215 H   0  0  0  0  0  0  0  0  0  0  0  0
    9.5416   -4.5625   23.7818 H   0  0  0  0  0  0  0  0  0  0  0  0
    7.1926   -1.8847   26.1916 H   0  0  0  0  0  0  0  0  0  0  0  0
   10.2688   -2.6720   22.3870 H   0  0  0  0  0  0  0  0  0  0  0  0
    7.8705   -0.0015   24.7579 H   0  0  0  0  0  0  0  0  0  0  0  0
    4.3780    2.0103   17.4276 H   0  0  0  0  0  0  0  0  0  0  0  0
    5.6758    0.7336   22.0897 H   0  0  0  0  0  0  0  0  0  0  0  0
   13.9851   -0.8262   27.1411 H   0  0  0  0  0  0  0  0  0  0  0  0
   10.5401    0.6850   25.0384 H   0  0  0  0  0  0  0  0  0  0  0  0
    8.4213   -0.8245   18.1548 H   0  0  0  0  0  0  0  0  0  0  0  0
    8.6661   -4.5883   26.8021 H   0  0  0  0  0  0  0  0  0  0  0  0
    6.9508   -4.3263   26.4014 H   0  0  0  0  0  0  0  0  0  0  0  0
    7.9188   -5.4228   25.4175 H   0  0  0  0  0  0  0  0  0  0  0  0
   11.6025    0.6918   22.0532 H   0  0  0  0  0  0  0  0  0  0  0  0
   11.4368   -1.0349   21.8836 H   0  0  0  0  0  0  0  0  0  0  0  0
    9.5277    0.8495   23.3908 H   0  0  0  0  0  0  0  0  0  0  0  0
    8.1074   -1.6160   21.1028 H   0  0  0  0  0  0  0  0  0  0  0  0
  1  2  1  0  0  0  0
  1  9  2  0  0  0  0
  2 10  2  0  0  0  0
  3  4  2  0  0  0  0
  3 11  1  0  0  0  0
  4 16  1  0  0  0  0
  5  7  2  0  0  0  0
  5 14  1  0  0  0  0
  6  8  1  0  0  0  0
  6 14  2  0  0  0  0
  7 15  1  0  0  0  0
  8 15  2  0  0  0  0
  9 17  1  0  0  0  0
 10 18  1  0  0  0  0
 11 19  2  0  0  0  0
 12 16  2  0  0  0  0
 12 19  1  0  0  0  0
 13 24  2  0  0  0  0
 13 25  1  0  0  0  0
 14 21  1  0  0  0  0
 15 23  1  0  0  0  0
 16 22  1  0  0  0  0
 17 18  2  0  0  0  0
 17 24  1  0  0  0  0
 18 25  1  0  0  0  0
 19 28  1  0  0  0  0
 20 23  1  0  0  0  0
 20 26  1  0  0  0  0
 20 27  2  0  0  0  0
 22 23  1  1  0  0  0
 25 26  1  0  0  0  0
  1 29  1  0  0  0  0
  2 30  1  0  0  0  0
  3 31  1  0  0  0  0
  4 32  1  0  0  0  0
  5 33  1  0  0  0  0
  6 34  1  0  0  0  0
  7 35  1  0  0  0  0
  8 36  1  0  0  0  0
  9 37  1  0  0  0  0
 10 38  1  0  0  0  0
 11 39  1  0  0  0  0
 12 40  1  0  0  0  0
 13 41  1  0  0  0  0
 21 42  1  0  0  0  0
 21 43  1  0  0  0  0
 21 44  1  0  0  0  0
 22 45  1  0  0  0  0
 22 46  1  0  0  0  0
 23 47  1  0  0  0  0
 26 48  1  0  0  0  0
M  END
> <clash_score>
0.6679267402109753

> <docking_score>
-5.353513717651367

> <overlap_score>
0.8380796909332275

$$$$
BENZO_212_1
  -OEChem-08232013533D

 46 49  0     1  0  0  0  0  0999 V2000
    3.8860    2.1050   19.5250 C   0  0  0  0  0  0  0  0  0  0  0  0
    4.2460    1.7520   20.8250 C   0  0  0  0  0  0  0  0  0  0  0  0
    9.5890   -2.4950   23.2210 C   0  0  0  0  0  0  0  0  0  0  0  0
    8.2550   -1.0010   24.5520 C   0  0  0  0  0  0  0  0  0  0  0  0
    4.6610    1.7170   18.4380 C   0  0  0  0  0  0  0  0  0  0  0  0
    5.3890    1.0010   21.0690 C   0  0  0  0  0  0  0  0  0  0  0  0
    9.1890   -3.5540   24.0140 C   0  0  0  0  0  0  0  0  0  0  0  0
    7.8700   -2.0610   25.3550 C   0  0  0  0  0  0  0  0  0  0  0  0
   13.1880   -1.1347   23.9584 C   0  0  0  0  0  0  0  0  0  0  0  0
   13.6879   -1.1306   25.2420 C   0  0  0  0  0  0  0  0  0  0  0  0
   11.6157    0.1809   25.0536 C   0  0  0  0  0  0  0  0  0  0  0  0
    7.5840   -0.2700   18.5160 C   0  0  0  0  0  0  0  0  0  0  0  0
    9.1280   -1.2090   23.4870 C   0  0  0  0  0  0  0  0  0  0  0  0
   11.9876   -0.3748   23.8491 C   0  0  0  0  0  0  0  0  0  0  0  0
    5.7970    0.9500   18.6730 C   0  0  0  0  0  0  0  0  0  0  0  0
    6.1460    0.6070   19.9750 C   0  0  0  0  0  0  0  0  0  0  0  0
    8.3450   -3.3440   25.0980 C   0  0  0  0  0  0  0  0  0  0  0  0
    9.0430    0.2380   21.4940 C   0  0  0  0  0  0  0  0  0  0  0  0
    7.1165   -4.0862   26.9914 C   0  0  0  0  0  0  0  0  0  0  0  0
   11.2147   -0.2012   22.5629 C   0  0  0  0  0  0  0  0  0  0  0  0
    9.5820   -0.1080   22.7000 C   0  0  1  0  0  0  0  0  0  0  0  0
    6.7100    0.3850   17.8100 N   0  0  0  0  0  0  0  0  0  0  0  0
    7.2710   -0.1460   19.8310 N   0  0  0  0  0  0  0  0  0  0  0  0
    8.0950   -0.7700   20.8440 N   0  0  0  0  0  0  0  0  0  0  0  0
    9.2950    1.3000   20.9480 O   0  0  0  0  0  0  0  0  0  0  0  0
    7.9856   -4.3803   25.8987 O   0  0  0  0  0  0  0  0  0  0  0  0
   12.7116   -0.2136   26.3089 S   0  0  0  0  0  0  0  0  0  0  0  0
    2.9844    2.6927   19.3613 H   0  0  0  0  0  0  0  0  0  0  0  0
    3.6214    2.0680   21.6561 H   0  0  0  0  0  0  0  0  0  0  0  0
   10.2677   -2.6721   22.3861 H   0  0  0  0  0  0  0  0  0  0  0  0
    7.8705   -0.0015   24.7586 H   0  0  0  0  0  0  0  0  0  0  0  0
    4.3780    2.0103   17.4276 H   0  0  0  0  0  0  0  0  0  0  0  0
    5.6758    0.7336   22.0897 H   0  0  0  0  0  0  0  0  0  0  0  0
    9.5403   -4.5634   23.7844 H   0  0  0  0  0  0  0  0  0  0  0  0
    7.1918   -1.8874   26.1909 H   0  0  0  0  0  0  0  0  0  0  0  0
   13.6639   -1.6596   23.1397 H   0  0  0  0  0  0  0  0  0  0  0  0
   14.5793   -1.6228   25.6045 H   0  0  0  0  0  0  0  0  0  0  0  0
   10.7533    0.7992   25.2610 H   0  0  0  0  0  0  0  0  0  0  0  0
    8.4213   -0.8245   18.1548 H   0  0  0  0  0  0  0  0  0  0  0  0
    6.9092   -5.0023   27.5498 H   0  0  0  0  0  0  0  0  0  0  0  0
    6.1847   -3.6591   26.6123 H   0  0  0  0  0  0  0  0  0  0  0  0
    7.6049   -3.3636   27.6495 H   0  0  0  0  0  0  0  0  0  0  0  0
   11.6025    0.6918   22.0532 H   0  0  0  0  0  0  0  0  0  0  0  0
   11.4368   -1.0349   21.8836 H   0  0  0  0  0  0  0  0  0  0  0  0
    9.5277    0.8495   23.3908 H   0  0  0  0  0  0  0  0  0  0  0  0
    8.1074   -1.6160   21.1028 H   0  0  0  0  0  0  0  0  0  0  0  0
  1  2  1  0  0  0  0
  1  5  2  0  0  0  0
  2  6  2  0  0  0  0
  3  7  2  0  0  0  0
  3 13  1  0  0  0  0
  4  8  1  0  0  0  0
  4 13  2  0  0  0  0
  5 15  1  0  0  0  0
  6 16  1  0  0  0  0
  7 17  1  0  0  0  0
  8 17  2  0  0  0  0
  9 10  2  0  0  0  0
  9 14  1  0  0  0  0
 10 27  1  0  0  0  0
 11 14  2  0  0  0  0
 11 27  1  0  0  0  0
 12 22  2  0  0  0  0
 12 23  1  0  0  0  0
 13 21  1  0  0  0  0
 14 20  1  0  0  0  0
 15 16  2  0  0  0  0
 15 22  1  0  0  0  0
 16 23  1  0  0  0  0
 17 26  1  0  0  0  0
 18 21  1  0  0  0  0
 18 24  1  0  0  0  0
 18 25  2  0  0  0  0
 19 26  1  0  0  0  0
 20 21  1  1  0  0  0
 23 24  1  0  0  0  0
  1 28  1  0  0  0  0
  2 29  1  0  0  0  0
  3 30  1  0  0  0  0
  4 31  1  0  0  0  0
  5 32  1  0  0  0  0
  6 33  1  0  0  0  0
  7 34  1  0  0  0  0
  8 35  1  0  0  0  0
  9 36  1  0  0  0  0
 10 37  1  0  0  0  0
 11 38  1  0  0  0  0
 12 39  1  0  0  0  0
 19 40  1  0  0  0  0
 19 41  1  0  0  0  0
 19 42  1  0  0  0  0
 20 43  1  0  0  0  0
 20 44  1  0  0  0  0
 21 45  1  0  0  0  0
 24 46  1  0  0  0  0
M  END
> <clash_score>
0

> <docking_score>
-5.962679386138916

> <overlap_score>
0.8539299964904785

$$$$
BENZO_213_1
  -OEChem-08232013533D

 49 52  0     1  0  0  0  0  0999 V2000
   13.4143   -0.6944   26.2251 C   0  0  0  0  0  0  0  0  0  0  0  0
   13.9152   -1.2211   25.0346 C   0  0  0  0  0  0  0  0  0  0  0  0
   12.2000   -0.0079   26.2276 C   0  0  0  0  0  0  0  0  0  0  0  0
    3.8860    2.1050   19.5250 C   0  0  0  0  0  0  0  0  0  0  0  0
    4.2460    1.7520   20.8250 C   0  0  0  0  0  0  0  0  0  0  0  0
   13.2019   -1.0613   23.8466 C   0  0  0  0  0  0  0  0  0  0  0  0
   11.4867    0.1519   25.0397 C   0  0  0  0  0  0  0  0  0  0  0  0
    9.5890   -2.4950   23.2210 C   0  0  0  0  0  0  0  0  0  0  0  0
    8.2550   -1.0010   24.5520 C   0  0  0  0  0  0  0  0  0  0  0  0
    4.6610    1.7170   18.4380 C   0  0  0  0  0  0  0  0  0  0  0  0
    5.3890    1.0010   21.0690 C   0  0  0  0  0  0  0  0  0  0  0  0
    9.1890   -3.5540   24.0140 C   0  0  0  0  0  0  0  0  0  0  0  0
    7.8700   -2.0610   25.3550 C   0  0  0  0  0  0  0  0  0  0  0  0
    7.5840   -0.2700   18.5160 C   0  0  0  0  0  0  0  0  0  0  0  0
   11.9876   -0.3748   23.8491 C   0  0  0  0  0  0  0  0  0  0  0  0
    9.1280   -1.2090   23.4870 C   0  0  0  0  0  0  0  0  0  0  0  0
    5.7970    0.9500   18.6730 C   0  0  0  0  0  0  0  0  0  0  0  0
    6.1460    0.6070   19.9750 C   0  0  0  0  0  0  0  0  0  0  0  0
    8.3450   -3.3440   25.0980 C   0  0  0  0  0  0  0  0  0  0  0  0
    9.0430    0.2380   21.4940 C   0  0  0  0  0  0  0  0  0  0  0  0
    8.5106   -5.6662   25.5724 C   0  0  0  0  0  0  0  0  0  0  0  0
   11.2147   -0.2012   22.5629 C   0  0  0  0  0  0  0  0  0  0  0  0
    9.5820   -0.1080   22.7000 C   0  0  1  0  0  0  0  0  0  0  0  0
    6.7100    0.3850   17.8100 N   0  0  0  0  0  0  0  0  0  0  0  0
    7.2710   -0.1460   19.8310 N   0  0  0  0  0  0  0  0  0  0  0  0
    8.0950   -0.7700   20.8440 N   0  0  0  0  0  0  0  0  0  0  0  0
    9.2950    1.3000   20.9480 O   0  0  0  0  0  0  0  0  0  0  0  0
    7.9856   -4.3803   25.8987 O   0  0  0  0  0  0  0  0  0  0  0  0
   13.9692   -0.8201   27.1503 H   0  0  0  0  0  0  0  0  0  0  0  0
   14.8601   -1.7566   25.0326 H   0  0  0  0  0  0  0  0  0  0  0  0
   11.8092    0.4013   27.1545 H   0  0  0  0  0  0  0  0  0  0  0  0
    2.9844    2.6927   19.3613 H   0  0  0  0  0  0  0  0  0  0  0  0
    3.6214    2.0680   21.6561 H   0  0  0  0  0  0  0  0  0  0  0  0
   13.6000   -1.4749   22.9238 H   0  0  0  0  0  0  0  0  0  0  0  0
   10.5416    0.6883   25.0512 H   0  0  0  0  0  0  0  0  0  0  0  0
   10.2677   -2.6721   22.3861 H   0  0  0  0  0  0  0  0  0  0  0  0
    7.8705   -0.0015   24.7586 H   0  0  0  0  0  0  0  0  0  0  0  0
    4.3780    2.0103   17.4276 H   0  0  0  0  0  0  0  0  0  0  0  0
    5.6758    0.7336   22.0897 H   0  0  0  0  0  0  0  0  0  0  0  0
    9.5403   -4.5634   23.7844 H   0  0  0  0  0  0  0  0  0  0  0  0
    7.1918   -1.8874   26.1909 H   0  0  0  0  0  0  0  0  0  0  0  0
    8.4213   -0.8245   18.1548 H   0  0  0  0  0  0  0  0  0  0  0  0
    8.1445   -6.4032   26.2913 H   0  0  0  0  0  0  0  0  0  0  0  0
    9.6027   -5.6311   25.5944 H   0  0  0  0  0  0  0  0  0  0  0  0
    8.1771   -5.9422   24.5692 H   0  0  0  0  0  0  0  0  0  0  0  0
   11.6025    0.6918   22.0532 H   0  0  0  0  0  0  0  0  0  0  0  0
   11.4368   -1.0349   21.8836 H   0  0  0  0  0  0  0  0  0  0  0  0
    9.5277    0.8495   23.3908 H   0  0  0  0  0  0  0  0  0  0  0  0
    8.1074   -1.6160   21.1028 H   0  0  0  0  0  0  0  0  0  0  0  0
  1  2  1  0  0  0  0
  1  3  2  0  0  0  0
  2  6  2  0  0  0  0
  3  7  1  0  0  0  0
  4  5  1  0  0  0  0
  4 10  2  0  0  0  0
  5 11  2  0  0  0  0
  6 15  1  0  0  0  0
  7 15  2  0  0  0  0
  8 12  2  0  0  0  0
  8 16  1  0  0  0  0
  9 13  1  0  0  0  0
  9 16  2  0  0  0  0
 10 17  1  0  0  0  0
 11 18  1  0  0  0  0
 12 19  1  0  0  0  0
 13 19  2  0  0  0  0
 14 24  2  0  0  0  0
 14 25  1  0  0  0  0
 15 22  1  0  0  0  0
 16 23  1  0  0  0  0
 17 18  2  0  0  0  0
 17 24  1  0  0  0  0
 18 25  1  0  0  0  0
 19 28  1  0  0  0  0
 20 23  1  0  0  0  0
 20 26  1  0  0  0  0
 20 27  2  0  0  0  0
 21 28  1  0  0  0  0
 22 23  1  1  0  0  0
 25 26  1  0  0  0  0
  1 29  1  0  0  0  0
  2 30  1  0  0  0  0
  3 31  1  0  0  0  0
  4 32  1  0  0  0  0
  5 33  1  0  0  0  0
  6 34  1  0  0  0  0
  7 35  1  0  0  0  0
  8 36  1  0  0  0  0
  9 37  1  0  0  0  0
 10 38  1  0  0  0  0
 11 39  1  0  0  0  0
 12 40  1  0  0  0  0
 13 41  1  0  0  0  0
 14 42  1  0  0  0  0
 21 43  1  0  0  0  0
 21 44  1  0  0  0  0
 21 45  1  0  0  0  0
 22 46  1  0  0  0  0
 22 47  1  0  0  0  0
 23 48  1  0  0  0  0
 26 49  1  0  0  0  0
M  END
> <clash_score>
0

> <docking_score>
-6.1929826736450195

> <overlap_score>
0.8524118065834045

$$$$
BENZO_213_2
  -OEChem-08232013533D

 49 52  0     1  0  0  0  0  0999 V2000
   12.9183    0.8914   26.4488 C   0  0  0  0  0  0  0  0  0  0  0  0
   11.7786    1.6200   26.7891 C   0  0  0  0  0  0  0  0  0  0  0  0
   13.0029    0.2705   25.2025 C   0  0  0  0  0  0  0  0  0  0  0  0
    3.8860    2.1050   19.5250 C   0  0  0  0  0  0  0  0  0  0  0  0
    4.2460    1.7520   20.8250 C   0  0  0  0  0  0  0  0  0  0  0  0
   10.7234    1.7276   25.8832 C   0  0  0  0  0  0  0  0  0  0  0  0
   11.9477    0.3781   24.2967 C   0  0  0  0  0  0  0  0  0  0  0  0
    9.5890   -2.4950   23.2210 C   0  0  0  0  0  0  0  0  0  0  0  0
    8.2550   -1.0010   24.5520 C   0  0  0  0  0  0  0  0  0  0  0  0
    4.6610    1.7170   18.4380 C   0  0  0  0  0  0  0  0  0  0  0  0
    5.3890    1.0010   21.0690 C   0  0  0  0  0  0  0  0  0  0  0  0
    9.1890   -3.5540   24.0140 C   0  0  0  0  0  0  0  0  0  0  0  0
    7.8700   -2.0610   25.3550 C   0  0  0  0  0  0  0  0  0  0  0  0
    7.5840   -0.2700   18.5160 C   0  0  0  0  0  0  0  0  0  0  0  0
   10.8079    1.1067   24.6370 C   0  0  0  0  0  0  0  0  0  0  0  0
    9.1280   -1.2090   23.4870 C   0  0  0  0  0  0  0  0  0  0  0  0
    5.7970    0.9500   18.6730 C   0  0  0  0  0  0  0  0  0  0  0  0
    6.1460    0.6070   19.9750 C   0  0  0  0  0  0  0  0  0  0  0  0
    8.3450   -3.3440   25.0980 C   0  0  0  0  0  0  0  0  0  0  0  0
    9.0430    0.2380   21.4940 C   0  0  0  0  0  0  0  0  0  0  0  0
    8.5106   -5.6662   25.5724 C   0  0  0  0  0  0  0  0  0  0  0  0
    9.6654    1.2227   23.6555 C   0  0  0  0  0  0  0  0  0  0  0  0
    9.5820   -0.1080   22.7000 C   0  0  2  0  0  0  0  0  0  0  0  0
    6.7100    0.3850   17.8100 N   0  0  0  0  0  0  0  0  0  0  0  0
    7.2710   -0.1460   19.8310 N   0  0  0  0  0  0  0  0  0  0  0  0
    8.0950   -0.7700   20.8440 N   0  0  0  0  0  0  0  0  0  0  0  0
    9.2950    1.3000   20.9480 O   0  0  0  0  0  0  0  0  0  0  0  0
    7.9856   -4.3803   25.8987 O   0  0  0  0  0  0  0  0  0  0  0  0
   13.7404    0.8088   27.1537 H   0  0  0  0  0  0  0  0  0  0  0  0
   11.7130    2.1044   27.7589 H   0  0  0  0  0  0  0  0  0  0  0  0
   13.8905   -0.2959   24.9369 H   0  0  0  0  0  0  0  0  0  0  0  0
    2.9844    2.6927   19.3613 H   0  0  0  0  0  0  0  0  0  0  0  0
    3.6214    2.0680   21.6561 H   0  0  0  0  0  0  0  0  0  0  0  0
    9.8391    2.2972   26.1570 H   0  0  0  0  0  0  0  0  0  0  0  0
   12.0224   -0.1091   23.3281 H   0  0  0  0  0  0  0  0  0  0  0  0
   10.2677   -2.6721   22.3861 H   0  0  0  0  0  0  0  0  0  0  0  0
    7.8705   -0.0015   24.7586 H   0  0  0  0  0  0  0  0  0  0  0  0
    4.3780    2.0103   17.4276 H   0  0  0  0  0  0  0  0  0  0  0  0
    5.6758    0.7336   22.0897 H   0  0  0  0  0  0  0  0  0  0  0  0
    9.5403   -4.5634   23.7844 H   0  0  0  0  0  0  0  0  0  0  0  0
    7.1918   -1.8874   26.1909 H   0  0  0  0  0  0  0  0  0  0  0  0
    8.4213   -0.8245   18.1548 H   0  0  0  0  0  0  0  0  0  0  0  0
    8.1445   -6.4032   26.2913 H   0  0  0  0  0  0  0  0  0  0  0  0
    9.6027   -5.6311   25.5944 H   0  0  0  0  0  0  0  0  0  0  0  0
    8.1771   -5.9422   24.5692 H   0  0  0  0  0  0  0  0  0  0  0  0
    8.7459    1.4099   24.2274 H   0  0  0  0  0  0  0  0  0  0  0  0
    9.8015    2.1185   23.0351 H   0  0  0  0  0  0  0  0  0  0  0  0
   10.7408   -0.2662   22.5300 H   0  0  0  0  0  0  0  0  0  0  0  0
    8.1074   -1.6160   21.1028 H   0  0  0  0  0  0  0  0  0  0  0  0
  1  2  1  0  0  0  0
  1  3  2  0  0  0  0
  2  6  2  0  0  0  0
  3  7  1  0  0  0  0
  4  5  1  0  0  0  0
  4 10  2  0  0  0  0
  5 11  2  0  0  0  0
  6 15  1  0  0  0  0
  7 15  2  0  0  0  0
  8 12  2  0  0  0  0
  8 16  1  0  0  0  0
  9 13  1  0  0  0  0
  9 16  2  0  0  0  0
 10 17  1  0  0  0  0
 11 18  1  0  0  0  0
 12 19  1  0  0  0  0
 13 19  2  0  0  0  0
 14 24  2  0  0  0  0
 14 25  1  0  0  0  0
 15 22  1  0  0  0  0
 16 23  1  0  0  0  0
 17 18  2  0  0  0  0
 17 24  1  0  0  0  0
 18 25  1  0  0  0  0
 19 28  1  0  0  0  0
 20 23  1  0  0  0  0
 20 26  1  0  0  0  0
 20 27  2  0  0  0  0
 21 28  1  0  0  0  0
 22 23  1  6  0  0  0
 25 26  1  0  0  0  0
  1 29  1  0  0  0  0
  2 30  1  0  0  0  0
  3 31  1  0  0  0  0
  4 32  1  0  0  0  0
  5 33  1  0  0  0  0
  6 34  1  0  0  0  0
  7 35  1  0  0  0  0
  8 36  1  0  0  0  0
  9 37  1  0  0  0  0
 10 38  1  0  0  0  0
 11 39  1  0  0  0  0
 12 40  1  0  0  0  0
 13 41  1  0  0  0  0
 14 42  1  0  0  0  0
 21 43  1  0  0  0  0
 21 44  1  0  0  0  0
 21 45  1  0  0  0  0
 22 46  1  0  0  0  0
 22 47  1  0  0  0  0
 23 48  1  0  0  0  0
 26 49  1  0  0  0  0
M  END
> <clash_score>
4.084377930952702

> <docking_score>
-4.565342903137207

> <overlap_score>
0.7842983603477478

$$$$
BENZO_212_2
  -OEChem-08232013533D

 46 49  0     1  0  0  0  0  0999 V2000
    3.8860    2.1050   19.5250 C   0  0  0  0  0  0  0  0  0  0  0  0
    4.2460    1.7520   20.8250 C   0  0  0  0  0  0  0  0  0  0  0  0
    9.5890   -2.4950   23.2210 C   0  0  0  0  0  0  0  0  0  0  0  0
    8.2550   -1.0010   24.5520 C   0  0  0  0  0  0  0  0  0  0  0  0
    4.6610    1.7170   18.4380 C   0  0  0  0  0  0  0  0  0  0  0  0
    5.3890    1.0010   21.0690 C   0  0  0  0  0  0  0  0  0  0  0  0
    9.1890   -3.5540   24.0140 C   0  0  0  0  0  0  0  0  0  0  0  0
    7.8700   -2.0610   25.3550 C   0  0  0  0  0  0  0  0  0  0  0  0
   12.1596    0.8633   24.2577 C   0  0  0  0  0  0  0  0  0  0  0  0
   12.9999    0.8027   25.3475 C   0  0  0  0  0  0  0  0  0  0  0  0
   10.6666    1.2226   26.0024 C   0  0  0  0  0  0  0  0  0  0  0  0
    7.5840   -0.2700   18.5160 C   0  0  0  0  0  0  0  0  0  0  0  0
    9.1280   -1.2090   23.4870 C   0  0  0  0  0  0  0  0  0  0  0  0
   10.8079    1.1067   24.6370 C   0  0  0  0  0  0  0  0  0  0  0  0
    5.7970    0.9500   18.6730 C   0  0  0  0  0  0  0  0  0  0  0  0
    6.1460    0.6070   19.9750 C   0  0  0  0  0  0  0  0  0  0  0  0
    8.3450   -3.3440   25.0980 C   0  0  0  0  0  0  0  0  0  0  0  0
    9.0430    0.2380   21.4940 C   0  0  0  0  0  0  0  0  0  0  0  0
    7.1165   -4.0862   26.9914 C   0  0  0  0  0  0  0  0  0  0  0  0
    9.6654    1.2227   23.6555 C   0  0  0  0  0  0  0  0  0  0  0  0
    9.5820   -0.1080   22.7000 C   0  0  2  0  0  0  0  0  0  0  0  0
    6.7100    0.3850   17.8100 N   0  0  0  0  0  0  0  0  0  0  0  0
    7.2710   -0.1460   19.8310 N   0  0  0  0  0  0  0  0  0  0  0  0
    8.0950   -0.7700   20.8440 N   0  0  0  0  0  0  0  0  0  0  0  0
    9.2950    1.3000   20.9480 O   0  0  0  0  0  0  0  0  0  0  0  0
    7.9856   -4.3803   25.8987 O   0  0  0  0  0  0  0  0  0  0  0  0
   12.1595    1.0385   26.8207 S   0  0  0  0  0  0  0  0  0  0  0  0
    2.9844    2.6927   19.3613 H   0  0  0  0  0  0  0  0  0  0  0  0
    3.6214    2.0680   21.6561 H   0  0  0  0  0  0  0  0  0  0  0  0
   10.2677   -2.6721   22.3861 H   0  0  0  0  0  0  0  0  0  0  0  0
    7.8705   -0.0015   24.7586 H   0  0  0  0  0  0  0  0  0  0  0  0
    4.3780    2.0103   17.4276 H   0  0  0  0  0  0  0  0  0  0  0  0
    5.6758    0.7336   22.0897 H   0  0  0  0  0  0  0  0  0  0  0  0
    9.5403   -4.5634   23.7844 H   0  0  0  0  0  0  0  0  0  0  0  0
    7.1918   -1.8874   26.1909 H   0  0  0  0  0  0  0  0  0  0  0  0
   12.5025    0.7379   23.2384 H   0  0  0  0  0  0  0  0  0  0  0  0
   14.0670    0.6304   25.3492 H   0  0  0  0  0  0  0  0  0  0  0  0
    9.7601    1.4054   26.5626 H   0  0  0  0  0  0  0  0  0  0  0  0
    8.4213   -0.8245   18.1548 H   0  0  0  0  0  0  0  0  0  0  0  0
    6.9092   -5.0023   27.5498 H   0  0  0  0  0  0  0  0  0  0  0  0
    6.1847   -3.6591   26.6123 H   0  0  0  0  0  0  0  0  0  0  0  0
    7.6049   -3.3636   27.6495 H   0  0  0  0  0  0  0  0  0  0  0  0
    8.7459    1.4099   24.2274 H   0  0  0  0  0  0  0  0  0  0  0  0
    9.8015    2.1185   23.0351 H   0  0  0  0  0  0  0  0  0  0  0  0
   10.7408   -0.2662   22.5300 H   0  0  0  0  0  0  0  0  0  0  0  0
    8.1074   -1.6160   21.1028 H   0  0  0  0  0  0  0  0  0  0  0  0
  1  2  1  0  0  0  0
  1  5  2  0  0  0  0
  2  6  2  0  0  0  0
  3  7  2  0  0  0  0
  3 13  1  0  0  0  0
  4  8  1  0  0  0  0
  4 13  2  0  0  0  0
  5 15  1  0  0  0  0
  6 16  1  0  0  0  0
  7 17  1  0  0  0  0
  8 17  2  0  0  0  0
  9 10  2  0  0  0  0
  9 14  1  0  0  0  0
 10 27  1  0  0  0  0
 11 14  2  0  0  0  0
 11 27  1  0  0  0  0
 12 22  2  0  0  0  0
 12 23  1  0  0  0  0
 13 21  1  0  0  0  0
 14 20  1  0  0  0  0
 15 16  2  0  0  0  0
 15 22  1  0  0  0  0
 16 23  1  0  0  0  0
 17 26  1  0  0  0  0
 18 21  1  0  0  0  0
 18 24  1  0  0  0  0
 18 25  2  0  0  0  0
 19 26  1  0  0  0  0
 20 21  1  6  0  0  0
 23 24  1  0  0  0  0
  1 28  1  0  0  0  0
  2 29  1  0  0  0  0
  3 30  1  0  0  0  0
  4 31  1  0  0  0  0
  5 32  1  0  0  0  0
  6 33  1  0  0  0  0
  7 34  1  0  0  0  0
  8 35  1  0  0  0  0
  9 36  1  0  0  0  0
 10 37  1  0  0  0  0
 11 38  1  0  0  0  0
 12 39  1  0  0  0  0
 19 40  1  0  0  0  0
 19 41  1  0  0  0  0
 19 42  1  0  0  0  0
 20 43  1  0  0  0  0
 20 44  1  0  0  0  0
 21 45  1  0  0  0  0
 24 46  1  0  0  0  0
M  END
> <clash_score>
1.386676729289627

> <docking_score>
-4.168868541717529

> <overlap_score>
0.7810452580451965

$$$$
BENZO_215_1
  -OEChem-08232013533D

 49 52  0     1  0  0  0  0  0999 V2000
    3.8860    2.1050   19.5250 C   0  0  0  0  0  0  0  0  0  0  0  0
    4.2460    1.7520   20.8250 C   0  0  0  0  0  0  0  0  0  0  0  0
    9.5890   -2.4950   23.2210 C   0  0  0  0  0  0  0  0  0  0  0  0
    8.2550   -1.0010   24.5520 C   0  0  0  0  0  0  0  0  0  0  0  0
    4.6610    1.7170   18.4380 C   0  0  0  0  0  0  0  0  0  0  0  0
    5.3890    1.0010   21.0690 C   0  0  0  0  0  0  0  0  0  0  0  0
    9.1890   -3.5540   24.0140 C   0  0  0  0  0  0  0  0  0  0  0  0
    7.8700   -2.0610   25.3550 C   0  0  0  0  0  0  0  0  0  0  0  0
   13.2198   -1.0300   24.0348 C   0  0  0  0  0  0  0  0  0  0  0  0
   11.6457    0.0746   25.1011 C   0  0  0  0  0  0  0  0  0  0  0  0
    7.5840   -0.2700   18.5160 C   0  0  0  0  0  0  0  0  0  0  0  0
    9.1280   -1.2090   23.4870 C   0  0  0  0  0  0  0  0  0  0  0  0
   11.9876   -0.3748   23.8491 C   0  0  0  0  0  0  0  0  0  0  0  0
    5.7970    0.9500   18.6730 C   0  0  0  0  0  0  0  0  0  0  0  0
    6.1460    0.6070   19.9750 C   0  0  0  0  0  0  0  0  0  0  0  0
    8.3450   -3.3440   25.0980 C   0  0  0  0  0  0  0  0  0  0  0  0
    9.0430    0.2380   21.4940 C   0  0  0  0  0  0  0  0  0  0  0  0
   12.7431   -0.0808   27.3484 C   0  0  0  0  0  0  0  0  0  0  0  0
    8.5106   -5.6662   25.5724 C   0  0  0  0  0  0  0  0  0  0  0  0
   11.2147   -0.2012   22.5629 C   0  0  0  0  0  0  0  0  0  0  0  0
    9.5820   -0.1080   22.7000 C   0  0  1  0  0  0  0  0  0  0  0  0
   13.6327   -1.0014   25.3047 N   0  0  0  0  0  0  0  0  0  0  0  0
    6.7100    0.3850   17.8100 N   0  0  0  0  0  0  0  0  0  0  0  0
   12.6546   -0.3228   25.9283 N   0  0  0  0  0  0  0  0  0  0  0  0
    7.2710   -0.1460   19.8310 N   0  0  0  0  0  0  0  0  0  0  0  0
    8.0950   -0.7700   20.8440 N   0  0  0  0  0  0  0  0  0  0  0  0
    9.2950    1.3000   20.9480 O   0  0  0  0  0  0  0  0  0  0  0  0
    7.9856   -4.3803   25.8987 O   0  0  0  0  0  0  0  0  0  0  0  0
    2.9844    2.6927   19.3613 H   0  0  0  0  0  0  0  0  0  0  0  0
    3.6214    2.0680   21.6561 H   0  0  0  0  0  0  0  0  0  0  0  0
   10.2677   -2.6721   22.3861 H   0  0  0  0  0  0  0  0  0  0  0  0
    7.8705   -0.0015   24.7586 H   0  0  0  0  0  0  0  0  0  0  0  0
    4.3780    2.0103   17.4276 H   0  0  0  0  0  0  0  0  0  0  0  0
    5.6758    0.7336   22.0897 H   0  0  0  0  0  0  0  0  0  0  0  0
    9.5403   -4.5634   23.7844 H   0  0  0  0  0  0  0  0  0  0  0  0
    7.1918   -1.8874   26.1909 H   0  0  0  0  0  0  0  0  0  0  0  0
   13.8362   -1.5269   23.2991 H   0  0  0  0  0  0  0  0  0  0  0  0
   10.7922    0.6307   25.4647 H   0  0  0  0  0  0  0  0  0  0  0  0
    8.4213   -0.8245   18.1548 H   0  0  0  0  0  0  0  0  0  0  0  0
   12.2620   -0.9164   27.8636 H   0  0  0  0  0  0  0  0  0  0  0  0
   13.7943   -0.0060   27.6402 H   0  0  0  0  0  0  0  0  0  0  0  0
   12.2374    0.8590   27.5870 H   0  0  0  0  0  0  0  0  0  0  0  0
    8.1445   -6.4032   26.2913 H   0  0  0  0  0  0  0  0  0  0  0  0
    9.6027   -5.6311   25.5944 H   0  0  0  0  0  0  0  0  0  0  0  0
    8.1771   -5.9422   24.5692 H   0  0  0  0  0  0  0  0  0  0  0  0
   11.6025    0.6918   22.0532 H   0  0  0  0  0  0  0  0  0  0  0  0
   11.4368   -1.0349   21.8836 H   0  0  0  0  0  0  0  0  0  0  0  0
    9.5277    0.8495   23.3908 H   0  0  0  0  0  0  0  0  0  0  0  0
    8.1074   -1.6160   21.1028 H   0  0  0  0  0  0  0  0  0  0  0  0
  1  2  1  0  0  0  0
  1  5  2  0  0  0  0
  2  6  2  0  0  0  0
  3  7  2  0  0  0  0
  3 12  1  0  0  0  0
  4  8  1  0  0  0  0
  4 12  2  0  0  0  0
  5 14  1  0  0  0  0
  6 15  1  0  0  0  0
  7 16  1  0  0  0  0
  8 16  2  0  0  0  0
  9 13  1  0  0  0  0
  9 22  2  0  0  0  0
 10 13  2  0  0  0  0
 10 24  1  0  0  0  0
 11 23  2  0  0  0  0
 11 25  1  0  0  0  0
 12 21  1  0  0  0  0
 13 20  1  0  0  0  0
 14 15  2  0  0  0  0
 14 23  1  0  0  0  0
 15 25  1  0  0  0  0
 16 28  1  0  0  0  0
 17 21  1  0  0  0  0
 17 26  1  0  0  0  0
 17 27  2  0  0  0  0
 18 24  1  0  0  0  0
 19 28  1  0  0  0  0
 20 21  1  1  0  0  0
 22 24  1  0  0  0  0
 25 26  1  0  0  0  0
  1 29  1  0  0  0  0
  2 30  1  0  0  0  0
  3 31  1  0  0  0  0
  4 32  1  0  0  0  0
  5 33  1  0  0  0  0
  6 34  1  0  0  0  0
  7 35  1  0  0  0  0
  8 36  1  0  0  0  0
  9 37  1  0  0  0  0
 10 38  1  0  0  0  0
 11 39  1  0  0  0  0
 18 40  1  0  0  0  0
 18 41  1  0  0  0  0
 18 42  1  0  0  0  0
 19 43  1  0  0  0  0
 19 44  1  0  0  0  0
 19 45  1  0  0  0  0
 20 46  1  0  0  0  0
 20 47  1  0  0  0  0
 21 48  1  0  0  0  0
 26 49  1  0  0  0  0
M  END
> <clash_score>
0

> <docking_score>
-5.88153076171875

> <overlap_score>
0.8478028774261475

$$$$
BENZO_215_2
  -OEChem-08232013533D

 49 52  0     1  0  0  0  0  0999 V2000
    3.8860    2.1050   19.5250 C   0  0  0  0  0  0  0  0  0  0  0  0
    4.2460    1.7520   20.8250 C   0  0  0  0  0  0  0  0  0  0  0  0
    9.5890   -2.4950   23.2210 C   0  0  0  0  0  0  0  0  0  0  0  0
    8.2550   -1.0010   24.5520 C   0  0  0  0  0  0  0  0  0  0  0  0
    4.6610    1.7170   18.4380 C   0  0  0  0  0  0  0  0  0  0  0  0
    5.3890    1.0010   21.0690 C   0  0  0  0  0  0  0  0  0  0  0  0
    9.1890   -3.5540   24.0140 C   0  0  0  0  0  0  0  0  0  0  0  0
    7.8700   -2.0610   25.3550 C   0  0  0  0  0  0  0  0  0  0  0  0
   12.0261    0.4217   24.4676 C   0  0  0  0  0  0  0  0  0  0  0  0
   10.8915    1.6496   25.8958 C   0  0  0  0  0  0  0  0  0  0  0  0
    7.5840   -0.2700   18.5160 C   0  0  0  0  0  0  0  0  0  0  0  0
    9.1280   -1.2090   23.4870 C   0  0  0  0  0  0  0  0  0  0  0  0
   10.8079    1.1067   24.6370 C   0  0  0  0  0  0  0  0  0  0  0  0
    5.7970    0.9500   18.6730 C   0  0  0  0  0  0  0  0  0  0  0  0
    6.1460    0.6070   19.9750 C   0  0  0  0  0  0  0  0  0  0  0  0
    8.3450   -3.3440   25.0980 C   0  0  0  0  0  0  0  0  0  0  0  0
    9.0430    0.2380   21.4940 C   0  0  0  0  0  0  0  0  0  0  0  0
   12.6499    1.6036   27.6803 C   0  0  0  0  0  0  0  0  0  0  0  0
    8.5106   -5.6662   25.5724 C   0  0  0  0  0  0  0  0  0  0  0  0
    9.6654    1.2227   23.6555 C   0  0  0  0  0  0  0  0  0  0  0  0
    9.5820   -0.1080   22.7000 C   0  0  2  0  0  0  0  0  0  0  0  0
   12.8250    0.5191   25.5335 N   0  0  0  0  0  0  0  0  0  0  0  0
    6.7100    0.3850   17.8100 N   0  0  0  0  0  0  0  0  0  0  0  0
   12.1074    1.2718   26.3847 N   0  0  0  0  0  0  0  0  0  0  0  0
    7.2710   -0.1460   19.8310 N   0  0  0  0  0  0  0  0  0  0  0  0
    8.0950   -0.7700   20.8440 N   0  0  0  0  0  0  0  0  0  0  0  0
    9.2950    1.3000   20.9480 O   0  0  0  0  0  0  0  0  0  0  0  0
    7.9856   -4.3803   25.8987 O   0  0  0  0  0  0  0  0  0  0  0  0
    2.9844    2.6927   19.3613 H   0  0  0  0  0  0  0  0  0  0  0  0
    3.6214    2.0680   21.6561 H   0  0  0  0  0  0  0  0  0  0  0  0
   10.2677   -2.6721   22.3861 H   0  0  0  0  0  0  0  0  0  0  0  0
    7.8705   -0.0015   24.7586 H   0  0  0  0  0  0  0  0  0  0  0  0
    4.3780    2.0103   17.4276 H   0  0  0  0  0  0  0  0  0  0  0  0
    5.6758    0.7336   22.0897 H   0  0  0  0  0  0  0  0  0  0  0  0
    9.5403   -4.5634   23.7844 H   0  0  0  0  0  0  0  0  0  0  0  0
    7.1918   -1.8874   26.1909 H   0  0  0  0  0  0  0  0  0  0  0  0
   12.3675   -0.1444   23.6125 H   0  0  0  0  0  0  0  0  0  0  0  0
   10.2069    2.2586   26.4706 H   0  0  0  0  0  0  0  0  0  0  0  0
    8.4213   -0.8245   18.1548 H   0  0  0  0  0  0  0  0  0  0  0  0
   12.3491    0.8215   28.3823 H   0  0  0  0  0  0  0  0  0  0  0  0
   13.7401    1.6599   27.6150 H   0  0  0  0  0  0  0  0  0  0  0  0
   12.2595    2.5745   27.9977 H   0  0  0  0  0  0  0  0  0  0  0  0
    8.1445   -6.4032   26.2913 H   0  0  0  0  0  0  0  0  0  0  0  0
    9.6027   -5.6311   25.5944 H   0  0  0  0  0  0  0  0  0  0  0  0
    8.1771   -5.9422   24.5692 H   0  0  0  0  0  0  0  0  0  0  0  0
    8.7459    1.4099   24.2274 H   0  0  0  0  0  0  0  0  0  0  0  0
    9.8015    2.1185   23.0351 H   0  0  0  0  0  0  0  0  0  0  0  0
   10.7408   -0.2662   22.5300 H   0  0  0  0  0  0  0  0  0  0  0  0
    8.1074   -1.6160   21.1028 H   0  0  0  0  0  0  0  0  0  0  0  0
  1  2  1  0  0  0  0
  1  5  2  0  0  0  0
  2  6  2  0  0  0  0
  3  7  2  0  0  0  0
  3 12  1  0  0  0  0
  4  8  1  0  0  0  0
  4 12  2  0  0  0  0
  5 14  1  0  0  0  0
  6 15  1  0  0  0  0
  7 16  1  0  0  0  0
  8 16  2  0  0  0  0
  9 13  1  0  0  0  0
  9 22  2  0  0  0  0
 10 13  2  0  0  0  0
 10 24  1  0  0  0  0
 11 23  2  0  0  0  0
 11 25  1  0  0  0  0
 12 21  1  0  0  0  0
 13 20  1  0  0  0  0
 14 15  2  0  0  0  0
 14 23  1  0  0  0  0
 15 25  1  0  0  0  0
 16 28  1  0  0  0  0
 17 21  1  0  0  0  0
 17 26  1  0  0  0  0
 17 27  2  0  0  0  0
 18 24  1  0  0  0  0
 19 28  1  0  0  0  0
 20 21  1  6  0  0  0
 22 24  1  0  0  0  0
 25 26  1  0  0  0  0
  1 29  1  0  0  0  0
  2 30  1  0  0  0  0
  3 31  1  0  0  0  0
  4 32  1  0  0  0  0
  5 33  1  0  0  0  0
  6 34  1  0  0  0  0
  7 35  1  0  0  0  0
  8 36  1  0  0  0  0
  9 37  1  0  0  0  0
 10 38  1  0  0  0  0
 11 39  1  0  0  0  0
 18 40  1  0  0  0  0
 18 41  1  0  0  0  0
 18 42  1  0  0  0  0
 19 43  1  0  0  0  0
 19 44  1  0  0  0  0
 19 45  1  0  0  0  0
 20 46  1  0  0  0  0
 20 47  1  0  0  0  0
 21 48  1  0  0  0  0
 26 49  1  0  0  0  0
M  END
> <clash_score>
2.853629731621518

> <docking_score>
-3.6020216941833496

> <overlap_score>
0.7759571075439453

$$$$
BENZO_214_1
  -OEChem-08232013533D

 49 52  0     1  0  0  0  0  0999 V2000
    3.8860    2.1050   19.5250 C   0  0  0  0  0  0  0  0  0  0  0  0
    4.2460    1.7520   20.8250 C   0  0  0  0  0  0  0  0  0  0  0  0
   13.9169   -1.2205   25.0322 C   0  0  0  0  0  0  0  0  0  0  0  0
   13.2022   -1.0608   23.8451 C   0  0  0  0  0  0  0  0  0  0  0  0
    9.5890   -2.4950   23.2210 C   0  0  0  0  0  0  0  0  0  0  0  0
    8.2550   -1.0010   24.5520 C   0  0  0  0  0  0  0  0  0  0  0  0
    4.6610    1.7170   18.4380 C   0  0  0  0  0  0  0  0  0  0  0  0
    5.3890    1.0010   21.0690 C   0  0  0  0  0  0  0  0  0  0  0  0
    9.1890   -3.5540   24.0140 C   0  0  0  0  0  0  0  0  0  0  0  0
    7.8700   -2.0610   25.3550 C   0  0  0  0  0  0  0  0  0  0  0  0
   13.4171   -0.6943   26.2234 C   0  0  0  0  0  0  0  0  0  0  0  0
   11.4878    0.1514   25.0404 C   0  0  0  0  0  0  0  0  0  0  0  0
    7.5840   -0.2700   18.5160 C   0  0  0  0  0  0  0  0  0  0  0  0
    9.1280   -1.2090   23.4870 C   0  0  0  0  0  0  0  0  0  0  0  0
   11.9876   -0.3748   23.8491 C   0  0  0  0  0  0  0  0  0  0  0  0
    5.7970    0.9500   18.6730 C   0  0  0  0  0  0  0  0  0  0  0  0
    6.1460    0.6070   19.9750 C   0  0  0  0  0  0  0  0  0  0  0  0
    8.3450   -3.3440   25.0980 C   0  0  0  0  0  0  0  0  0  0  0  0
   12.2026   -0.0084   26.2275 C   0  0  0  0  0  0  0  0  0  0  0  0
    9.0430    0.2380   21.4940 C   0  0  0  0  0  0  0  0  0  0  0  0
    8.5106   -5.6662   25.5724 C   0  0  0  0  0  0  0  0  0  0  0  0
   11.2147   -0.2012   22.5629 C   0  0  0  0  0  0  0  0  0  0  0  0
    9.5820   -0.1080   22.7000 C   0  0  1  0  0  0  0  0  0  0  0  0
    6.7100    0.3850   17.8100 N   0  0  0  0  0  0  0  0  0  0  0  0
    7.2710   -0.1460   19.8310 N   0  0  0  0  0  0  0  0  0  0  0  0
    8.0950   -0.7700   20.8440 N   0  0  0  0  0  0  0  0  0  0  0  0
    9.2950    1.3000   20.9480 O   0  0  0  0  0  0  0  0  0  0  0  0
    7.9856   -4.3803   25.8987 O   0  0  0  0  0  0  0  0  0  0  0  0
   11.5870    0.6416   27.6973 Cl  0  0  0  0  0  0  0  0  0  0  0  0
    2.9844    2.6927   19.3613 H   0  0  0  0  0  0  0  0  0  0  0  0
    3.6214    2.0680   21.6561 H   0  0  0  0  0  0  0  0  0  0  0  0
   14.8627   -1.7546   25.0285 H   0  0  0  0  0  0  0  0  0  0  0  0
   13.5992   -1.4740   22.9215 H   0  0  0  0  0  0  0  0  0  0  0  0
   10.2677   -2.6721   22.3861 H   0  0  0  0  0  0  0  0  0  0  0  0
    7.8705   -0.0015   24.7586 H   0  0  0  0  0  0  0  0  0  0  0  0
    4.3780    2.0103   17.4276 H   0  0  0  0  0  0  0  0  0  0  0  0
    5.6758    0.7336   22.0897 H   0  0  0  0  0  0  0  0  0  0  0  0
    9.5403   -4.5634   23.7844 H   0  0  0  0  0  0  0  0  0  0  0  0
    7.1918   -1.8874   26.1909 H   0  0  0  0  0  0  0  0  0  0  0  0
   13.9851   -0.8262   27.1411 H   0  0  0  0  0  0  0  0  0  0  0  0
   10.5401    0.6850   25.0384 H   0  0  0  0  0  0  0  0  0  0  0  0
    8.4213   -0.8245   18.1548 H   0  0  0  0  0  0  0  0  0  0  0  0
    8.1445   -6.4032   26.2913 H   0  0  0  0  0  0  0  0  0  0  0  0
    9.6027   -5.6311   25.5944 H   0  0  0  0  0  0  0  0  0  0  0  0
    8.1771   -5.9422   24.5692 H   0  0  0  0  0  0  0  0  0  0  0  0
   11.6025    0.6918   22.0532 H   0  0  0  0  0  0  0  0  0  0  0  0
   11.4368   -1.0349   21.8836 H   0  0  0  0  0  0  0  0  0  0  0  0
    9.5277    0.8495   23.3908 H   0  0  0  0  0  0  0  0  0  0  0  0
    8.1074   -1.6160   21.1028 H   0  0  0  0  0  0  0  0  0  0  0  0
  1  2  1  0  0  0  0
  1  7  2  0  0  0  0
  2  8  2  0  0  0  0
  3  4  2  0  0  0  0
  3 11  1  0  0  0  0
  4 15  1  0  0  0  0
  5  9  2  0  0  0  0
  5 14  1  0  0  0  0
  6 10  1  0  0  0  0
  6 14  2  0  0  0  0
  7 16  1  0  0  0  0
  8 17  1  0  0  0  0
  9 18  1  0  0  0  0
 10 18  2  0  0  0  0
 11 19  2  0  0  0  0
 12 15  2  0  0  0  0
 12 19  1  0  0  0  0
 13 24  2  0  0  0  0
 13 25  1  0  0  0  0
 14 23  1  0  0  0  0
 15 22  1  0  0  0  0
 16 17  2  0  0  0  0
 16 24  1  0  0  0  0
 17 25  1  0  0  0  0
 18 28  1  0  0  0  0
 19 29  1  0  0  0  0
 20 23  1  0  0  0  0
 20 26  1  0  0  0  0
 20 27  2  0  0  0  0
 21 28  1  0  0  0  0
 22 23  1  1  0  0  0
 25 26  1  0  0  0  0
  1 30  1  0  0  0  0
  2 31  1  0  0  0  0
  3 32  1  0  0  0  0
  4 33  1  0  0  0  0
  5 34  1  0  0  0  0
  6 35  1  0  0  0  0
  7 36  1  0  0  0  0
  8 37  1  0  0  0  0
  9 38  1  0  0  0  0
 10 39  1  0  0  0  0
 11 40  1  0  0  0  0
 12 41  1  0  0  0  0
 13 42  1  0  0  0  0
 21 43  1  0  0  0  0
 21 44  1  0  0  0  0
 21 45  1  0  0  0  0
 22 46  1  0  0  0  0
 22 47  1  0  0  0  0
 23 48  1  0  0  0  0
 26 49  1  0  0  0  0
M  END
> <clash_score>
0.6679267402109753

> <docking_score>
-5.4730916023254395

> <overlap_score>
0.8514079451560974

$$$$
BENZO_214_2
  -OEChem-08232013533D

 49 52  0     1  0  0  0  0  0999 V2000
    3.8860    2.1050   19.5250 C   0  0  0  0  0  0  0  0  0  0  0  0
    4.2460    1.7520   20.8250 C   0  0  0  0  0  0  0  0  0  0  0  0
   11.7758    1.6198   26.7903 C   0  0  0  0  0  0  0  0  0  0  0  0
   10.7217    1.7274   25.8831 C   0  0  0  0  0  0  0  0  0  0  0  0
    9.5890   -2.4950   23.2210 C   0  0  0  0  0  0  0  0  0  0  0  0
    8.2550   -1.0010   24.5520 C   0  0  0  0  0  0  0  0  0  0  0  0
    4.6610    1.7170   18.4380 C   0  0  0  0  0  0  0  0  0  0  0  0
    5.3890    1.0010   21.0690 C   0  0  0  0  0  0  0  0  0  0  0  0
    9.1890   -3.5540   24.0140 C   0  0  0  0  0  0  0  0  0  0  0  0
    7.8700   -2.0610   25.3550 C   0  0  0  0  0  0  0  0  0  0  0  0
   12.9162    0.8915   26.4512 C   0  0  0  0  0  0  0  0  0  0  0  0
   11.9483    0.3784   24.2979 C   0  0  0  0  0  0  0  0  0  0  0  0
    7.5840   -0.2700   18.5160 C   0  0  0  0  0  0  0  0  0  0  0  0
    9.1280   -1.2090   23.4870 C   0  0  0  0  0  0  0  0  0  0  0  0
   10.8079    1.1067   24.6370 C   0  0  0  0  0  0  0  0  0  0  0  0
    5.7970    0.9500   18.6730 C   0  0  0  0  0  0  0  0  0  0  0  0
    6.1460    0.6070   19.9750 C   0  0  0  0  0  0  0  0  0  0  0  0
    8.3450   -3.3440   25.0980 C   0  0  0  0  0  0  0  0  0  0  0  0
   13.0024    0.2709   25.2050 C   0  0  0  0  0  0  0  0  0  0  0  0
    9.0430    0.2380   21.4940 C   0  0  0  0  0  0  0  0  0  0  0  0
    8.5106   -5.6662   25.5724 C   0  0  0  0  0  0  0  0  0  0  0  0
    9.6654    1.2227   23.6555 C   0  0  0  0  0  0  0  0  0  0  0  0
    9.5820   -0.1080   22.7000 C   0  0  2  0  0  0  0  0  0  0  0  0
    6.7100    0.3850   17.8100 N   0  0  0  0  0  0  0  0  0  0  0  0
    7.2710   -0.1460   19.8310 N   0  0  0  0  0  0  0  0  0  0  0  0
    8.0950   -0.7700   20.8440 N   0  0  0  0  0  0  0  0  0  0  0  0
    9.2950    1.3000   20.9480 O   0  0  0  0  0  0  0  0  0  0  0  0
    7.9856   -4.3803   25.8987 O   0  0  0  0  0  0  0  0  0  0  0  0
   14.4091   -0.6285   24.7878 Cl  0  0  0  0  0  0  0  0  0  0  0  0
    2.9844    2.6927   19.3613 H   0  0  0  0  0  0  0  0  0  0  0  0
    3.6214    2.0680   21.6561 H   0  0  0  0  0  0  0  0  0  0  0  0
   11.7082    2.1031   27.7606 H   0  0  0  0  0  0  0  0  0  0  0  0
    9.8369    2.2967   26.1558 H   0  0  0  0  0  0  0  0  0  0  0  0
   10.2677   -2.6721   22.3861 H   0  0  0  0  0  0  0  0  0  0  0  0
    7.8705   -0.0015   24.7586 H   0  0  0  0  0  0  0  0  0  0  0  0
    4.3780    2.0103   17.4276 H   0  0  0  0  0  0  0  0  0  0  0  0
    5.6758    0.7336   22.0897 H   0  0  0  0  0  0  0  0  0  0  0  0
    9.5403   -4.5634   23.7844 H   0  0  0  0  0  0  0  0  0  0  0  0
    7.1918   -1.8874   26.1909 H   0  0  0  0  0  0  0  0  0  0  0  0
   13.7299    0.8159   27.1683 H   0  0  0  0  0  0  0  0  0  0  0  0
   12.0109   -0.1032   23.3248 H   0  0  0  0  0  0  0  0  0  0  0  0
    8.4213   -0.8245   18.1548 H   0  0  0  0  0  0  0  0  0  0  0  0
    8.1445   -6.4032   26.2913 H   0  0  0  0  0  0  0  0  0  0  0  0
    9.6027   -5.6311   25.5944 H   0  0  0  0  0  0  0  0  0  0  0  0
    8.1771   -5.9422   24.5692 H   0  0  0  0  0  0  0  0  0  0  0  0
    8.7459    1.4099   24.2274 H   0  0  0  0  0  0  0  0  0  0  0  0
    9.8015    2.1185   23.0351 H   0  0  0  0  0  0  0  0  0  0  0  0
   10.7408   -0.2662   22.5300 H   0  0  0  0  0  0  0  0  0  0  0  0
    8.1074   -1.6160   21.1028 H   0  0  0  0  0  0  0  0  0  0  0  0
  1  2  1  0  0  0  0
  1  7  2  0  0  0  0
  2  8  2  0  0  0  0
  3  4  2  0  0  0  0
  3 11  1  0  0  0  0
  4 15  1  0  0  0  0
  5  9  2  0  0  0  0
  5 14  1  0  0  0  0
  6 10  1  0  0  0  0
  6 14  2  0  0  0  0
  7 16  1  0  0  0  0
  8 17  1  0  0  0  0
  9 18  1  0  0  0  0
 10 18  2  0  0  0  0
 11 19  2  0  0  0  0
 12 15  2  0  0  0  0
 12 19  1  0  0  0  0
 13 24  2  0  0  0  0
 13 25  1  0  0  0  0
 14 23  1  0  0  0  0
 15 22  1  0  0  0  0
 16 17  2  0  0  0  0
 16 24  1  0  0  0  0
 17 25  1  0  0  0  0
 18 28  1  0  0  0  0
 19 29  1  0  0  0  0
 20 23  1  0  0  0  0
 20 26  1  0  0  0  0
 20 27  2  0  0  0  0
 21 28  1  0  0  0  0
 22 23  1  6  0  0  0
 25 26  1  0  0  0  0
  1 30  1  0  0  0  0
  2 31  1  0  0  0  0
  3 32  1  0  0  0  0
  4 33  1  0  0  0  0
  5 34  1  0  0  0  0
  6 35  1  0  0  0  0
  7 36  1  0  0  0  0
  8 37  1  0  0  0  0
  9 38  1  0  0  0  0
 10 39  1  0  0  0  0
 11 40  1  0  0  0  0
 12 41  1  0  0  0  0
 13 42  1  0  0  0  0
 21 43  1  0  0  0  0
 21 44  1  0  0  0  0
 21 45  1  0  0  0  0
 22 46  1  0  0  0  0
 22 47  1  0  0  0  0
 23 48  1  0  0  0  0
 26 49  1  0  0  0  0
M  END
> <clash_score>
4.085678172074543

> <docking_score>
-4.072337627410889

> <overlap_score>
0.7971905469894409

$$$$
BENZO_217_1
  -OEChem-08232013533D

 59 63  0     1  0  0  0  0  0999 V2000
   12.9530    0.9093   26.3887 C   0  0  0  0  0  0  0  0  0  0  0  0
   11.8190    1.6402   26.7430 C   0  0  0  0  0  0  0  0  0  0  0  0
   13.0192    0.2848   25.1432 C   0  0  0  0  0  0  0  0  0  0  0  0
    3.8860    2.1050   19.5250 C   0  0  0  0  0  0  0  0  0  0  0  0
    4.2460    1.7520   20.8250 C   0  0  0  0  0  0  0  0  0  0  0  0
   10.7513    1.7466   25.8518 C   0  0  0  0  0  0  0  0  0  0  0  0
   11.9515    0.3912   24.2520 C   0  0  0  0  0  0  0  0  0  0  0  0
    9.5890   -2.4950   23.2210 C   0  0  0  0  0  0  0  0  0  0  0  0
    8.2550   -1.0010   24.5520 C   0  0  0  0  0  0  0  0  0  0  0  0
    4.6610    1.7170   18.4380 C   0  0  0  0  0  0  0  0  0  0  0  0
    5.3890    1.0010   21.0690 C   0  0  0  0  0  0  0  0  0  0  0  0
    9.1890   -3.5540   24.0140 C   0  0  0  0  0  0  0  0  0  0  0  0
    7.8700   -2.0610   25.3550 C   0  0  0  0  0  0  0  0  0  0  0  0
    7.5840   -0.2700   18.5160 C   0  0  0  0  0  0  0  0  0  0  0  0
   10.8175    1.1221   24.6062 C   0  0  0  0  0  0  0  0  0  0  0  0
    9.1280   -1.2090   23.4870 C   0  0  0  0  0  0  0  0  0  0  0  0
    5.7970    0.9500   18.6730 C   0  0  0  0  0  0  0  0  0  0  0  0
    6.1460    0.6070   19.9750 C   0  0  0  0  0  0  0  0  0  0  0  0
    8.3450   -3.3440   25.0980 C   0  0  0  0  0  0  0  0  0  0  0  0
    7.6777   -4.2365   27.3114 C   0  0  0  0  0  0  0  0  0  0  0  0
    9.0430    0.2380   21.4940 C   0  0  0  0  0  0  0  0  0  0  0  0
    7.0008   -5.3819   28.0445 C   0  0  0  0  0  0  0  0  0  0  0  0
    7.4106   -6.7604   27.5741 C   0  0  0  0  0  0  0  0  0  0  0  0
    7.2148   -6.8411   26.0763 C   0  0  0  0  0  0  0  0  0  0  0  0
    8.0979   -5.8053   25.4011 C   0  0  0  0  0  0  0  0  0  0  0  0
    9.6614    1.2367   23.6407 C   0  0  0  0  0  0  0  0  0  0  0  0
    9.5820   -0.1080   22.7000 C   0  0  1  0  0  0  0  0  0  0  0  0
    6.7100    0.3850   17.8100 N   0  0  0  0  0  0  0  0  0  0  0  0
    7.2710   -0.1460   19.8310 N   0  0  0  0  0  0  0  0  0  0  0  0
    7.9635   -4.4451   25.9501 N   0  0  0  0  0  0  0  0  0  0  0  0
    8.0950   -0.7700   20.8440 N   0  0  0  0  0  0  0  0  0  0  0  0
    7.8778   -3.1892   27.9327 O   0  0  0  0  0  0  0  0  0  0  0  0
    9.2950    1.3000   20.9480 O   0  0  0  0  0  0  0  0  0  0  0  0
   13.7848    0.8277   27.0822 H   0  0  0  0  0  0  0  0  0  0  0  0
   11.7677    2.1275   27.7123 H   0  0  0  0  0  0  0  0  0  0  0  0
   13.9023   -0.2834   24.8666 H   0  0  0  0  0  0  0  0  0  0  0  0
    2.9844    2.6927   19.3613 H   0  0  0  0  0  0  0  0  0  0  0  0
    3.6214    2.0680   21.6561 H   0  0  0  0  0  0  0  0  0  0  0  0
    9.8717    2.3181   26.1364 H   0  0  0  0  0  0  0  0  0  0  0  0
   12.0118   -0.0988   23.2838 H   0  0  0  0  0  0  0  0  0  0  0  0
   10.2695   -2.6718   22.3873 H   0  0  0  0  0  0  0  0  0  0  0  0
    7.8712   -0.0014   24.7587 H   0  0  0  0  0  0  0  0  0  0  0  0
    4.3780    2.0103   17.4276 H   0  0  0  0  0  0  0  0  0  0  0  0
    5.6758    0.7336   22.0897 H   0  0  0  0  0  0  0  0  0  0  0  0
    9.5431   -4.5618   23.7801 H   0  0  0  0  0  0  0  0  0  0  0  0
    7.1923   -1.8823   26.1912 H   0  0  0  0  0  0  0  0  0  0  0  0
    8.4213   -0.8245   18.1548 H   0  0  0  0  0  0  0  0  0  0  0  0
    7.2290   -5.2845   29.1121 H   0  0  0  0  0  0  0  0  0  0  0  0
    5.9188   -5.2480   27.9251 H   0  0  0  0  0  0  0  0  0  0  0  0
    8.4598   -6.9525   27.8289 H   0  0  0  0  0  0  0  0  0  0  0  0
    6.8062   -7.5226   28.0776 H   0  0  0  0  0  0  0  0  0  0  0  0
    7.4789   -7.8416   25.7161 H   0  0  0  0  0  0  0  0  0  0  0  0
    6.1634   -6.6702   25.8155 H   0  0  0  0  0  0  0  0  0  0  0  0
    9.1520   -6.0895   25.5127 H   0  0  0  0  0  0  0  0  0  0  0  0
    7.8696   -5.7728   24.3290 H   0  0  0  0  0  0  0  0  0  0  0  0
    8.7512    1.4324   24.2245 H   0  0  0  0  0  0  0  0  0  0  0  0
    9.7926    2.1276   23.0121 H   0  0  0  0  0  0  0  0  0  0  0  0
   10.7449   -0.2552   22.5248 H   0  0  0  0  0  0  0  0  0  0  0  0
    8.0815   -1.6117   21.0754 H   0  0  0  0  0  0  0  0  0  0  0  0
  1  2  1  0  0  0  0
  1  3  2  0  0  0  0
  2  6  2  0  0  0  0
  3  7  1  0  0  0  0
  4  5  1  0  0  0  0
  4 10  2  0  0  0  0
  5 11  2  0  0  0  0
  6 15  1  0  0  0  0
  7 15  2  0  0  0  0
  8 12  2  0  0  0  0
  8 16  1  0  0  0  0
  9 13  1  0  0  0  0
  9 16  2  0  0  0  0
 10 17  1  0  0  0  0
 11 18  1  0  0  0  0
 12 19  1  0  0  0  0
 13 19  2  0  0  0  0
 14 28  2  0  0  0  0
 14 29  1  0  0  0  0
 15 26  1  0  0  0  0
 16 27  1  0  0  0  0
 17 18  2  0  0  0  0
 17 28  1  0  0  0  0
 18 29  1  0  0  0  0
 19 30  1  0  0  0  0
 20 22  1  0  0  0  0
 20 30  1  0  0  0  0
 20 32  2  0  0  0  0
 21 27  1  1  0  0  0
 21 31  1  0  0  0  0
 21 33  2  0  0  0  0
 22 23  1  0  0  0  0
 23 24  1  0  0  0  0
 24 25  1  0  0  0  0
 25 30  1  0  0  0  0
 26 27  1  0  0  0  0
 29 31  1  0  0  0  0
  1 34  1  0  0  0  0
  2 35  1  0  0  0  0
  3 36  1  0  0  0  0
  4 37  1  0  0  0  0
  5 38  1  0  0  0  0
  6 39  1  0  0  0  0
  7 40  1  0  0  0  0
  8 41  1  0  0  0  0
  9 42  1  0  0  0  0
 10 43  1  0  0  0  0
 11 44  1  0  0  0  0
 12 45  1  0  0  0  0
 13 46  1  0  0  0  0
 14 47  1  0  0  0  0
 22 48  1  0  0  0  0
 22 49  1  0  0  0  0
 23 50  1  0  0  0  0
 23 51  1  0  0  0  0
 24 52  1  0  0  0  0
 24 53  1  0  0  0  0
 25 54  1  0  0  0  0
 25 55  1  0  0  0  0
 26 56  1  0  0  0  0
 26 57  1  0  0  0  0
 27 58  1  0  0  0  0
 31 59  1  0  0  0  0
M  END
> <clash_score>
3.451542081220477

> <docking_score>
-4.548821449279785

> <overlap_score>
0.8685343265533447

$$$$
BENZO_216_1
  -OEChem-08232013533D

 56 60  0     1  0  0  0  0  0999 V2000
    3.8860    2.1050   19.5250 C   0  0  0  0  0  0  0  0  0  0  0  0
    4.2460    1.7520   20.8250 C   0  0  0  0  0  0  0  0  0  0  0  0
    9.5890   -2.4950   23.2210 C   0  0  0  0  0  0  0  0  0  0  0  0
    8.2550   -1.0010   24.5520 C   0  0  0  0  0  0  0  0  0  0  0  0
    4.6610    1.7170   18.4380 C   0  0  0  0  0  0  0  0  0  0  0  0
    5.3890    1.0010   21.0690 C   0  0  0  0  0  0  0  0  0  0  0  0
    9.1890   -3.5540   24.0140 C   0  0  0  0  0  0  0  0  0  0  0  0
    7.8700   -2.0610   25.3550 C   0  0  0  0  0  0  0  0  0  0  0  0
   12.1623    0.8696   24.2091 C   0  0  0  0  0  0  0  0  0  0  0  0
   13.0182    0.8125   25.2870 C   0  0  0  0  0  0  0  0  0  0  0  0
   10.6966    1.2482   25.9728 C   0  0  0  0  0  0  0  0  0  0  0  0
    7.5840   -0.2700   18.5160 C   0  0  0  0  0  0  0  0  0  0  0  0
    9.1280   -1.2090   23.4870 C   0  0  0  0  0  0  0  0  0  0  0  0
   10.8175    1.1221   24.6062 C   0  0  0  0  0  0  0  0  0  0  0  0
    5.7970    0.9500   18.6730 C   0  0  0  0  0  0  0  0  0  0  0  0
    6.1460    0.6070   19.9750 C   0  0  0  0  0  0  0  0  0  0  0  0
    8.3450   -3.3440   25.0980 C   0  0  0  0  0  0  0  0  0  0  0  0
    7.6777   -4.2365   27.3114 C   0  0  0  0  0  0  0  0  0  0  0  0
    9.0430    0.2380   21.4940 C   0  0  0  0  0  0  0  0  0  0  0  0
    7.0008   -5.3819   28.0445 C   0  0  0  0  0  0  0  0  0  0  0  0
    7.4106   -6.7604   27.5741 C   0  0  0  0  0  0  0  0  0  0  0  0
    7.2148   -6.8411   26.0763 C   0  0  0  0  0  0  0  0  0  0  0  0
    8.0979   -5.8053   25.4011 C   0  0  0  0  0  0  0  0  0  0  0  0
    9.6614    1.2367   23.6407 C   0  0  0  0  0  0  0  0  0  0  0  0
    9.5820   -0.1080   22.7000 C   0  0  1  0  0  0  0  0  0  0  0  0
    6.7100    0.3850   17.8100 N   0  0  0  0  0  0  0  0  0  0  0  0
    7.2710   -0.1460   19.8310 N   0  0  0  0  0  0  0  0  0  0  0  0
    7.9635   -4.4451   25.9501 N   0  0  0  0  0  0  0  0  0  0  0  0
    8.0950   -0.7700   20.8440 N   0  0  0  0  0  0  0  0  0  0  0  0
    7.8778   -3.1892   27.9327 O   0  0  0  0  0  0  0  0  0  0  0  0
    9.2950    1.3000   20.9480 O   0  0  0  0  0  0  0  0  0  0  0  0
   12.2004    1.0626   26.7706 S   0  0  0  0  0  0  0  0  0  0  0  0
    2.9844    2.6927   19.3613 H   0  0  0  0  0  0  0  0  0  0  0  0
    3.6214    2.0680   21.6561 H   0  0  0  0  0  0  0  0  0  0  0  0
   10.2695   -2.6718   22.3873 H   0  0  0  0  0  0  0  0  0  0  0  0
    7.8712   -0.0014   24.7587 H   0  0  0  0  0  0  0  0  0  0  0  0
    4.3780    2.0103   17.4276 H   0  0  0  0  0  0  0  0  0  0  0  0
    5.6758    0.7336   22.0897 H   0  0  0  0  0  0  0  0  0  0  0  0
    9.5431   -4.5618   23.7801 H   0  0  0  0  0  0  0  0  0  0  0  0
    7.1923   -1.8823   26.1912 H   0  0  0  0  0  0  0  0  0  0  0  0
   12.4898    0.7356   23.1858 H   0  0  0  0  0  0  0  0  0  0  0  0
   14.0843    0.6352   25.2744 H   0  0  0  0  0  0  0  0  0  0  0  0
    9.7992    1.4392   26.5448 H   0  0  0  0  0  0  0  0  0  0  0  0
    8.4213   -0.8245   18.1548 H   0  0  0  0  0  0  0  0  0  0  0  0
    7.2290   -5.2845   29.1121 H   0  0  0  0  0  0  0  0  0  0  0  0
    5.9188   -5.2480   27.9251 H   0  0  0  0  0  0  0  0  0  0  0  0
    8.4598   -6.9525   27.8289 H   0  0  0  0  0  0  0  0  0  0  0  0
    6.8062   -7.5226   28.0776 H   0  0  0  0  0  0  0  0  0  0  0  0
    7.4789   -7.8416   25.7161 H   0  0  0  0  0  0  0  0  0  0  0  0
    6.1634   -6.6702   25.8155 H   0  0  0  0  0  0  0  0  0  0  0  0
    9.1520   -6.0895   25.5127 H   0  0  0  0  0  0  0  0  0  0  0  0
    7.8696   -5.7728   24.3290 H   0  0  0  0  0  0  0  0  0  0  0  0
    8.7512    1.4324   24.2245 H   0  0  0  0  0  0  0  0  0  0  0  0
    9.7926    2.1276   23.0121 H   0  0  0  0  0  0  0  0  0  0  0  0
   10.7449   -0.2552   22.5248 H   0  0  0  0  0  0  0  0  0  0  0  0
    8.0815   -1.6117   21.0754 H   0  0  0  0  0  0  0  0  0  0  0  0
  1  2  1  0  0  0  0
  1  5  2  0  0  0  0
  2  6  2  0  0  0  0
  3  7  2  0  0  0  0
  3 13  1  0  0  0  0
  4  8  1  0  0  0  0
  4 13  2  0  0  0  0
  5 15  1  0  0  0  0
  6 16  1  0  0  0  0
  7 17  1  0  0  0  0
  8 17  2  0  0  0  0
  9 10  2  0  0  0  0
  9 14  1  0  0  0  0
 10 32  1  0  0  0  0
 11 14  2  0  0  0  0
 11 32  1  0  0  0  0
 12 26  2  0  0  0  0
 12 27  1  0  0  0  0
 13 25  1  0  0  0  0
 14 24  1  0  0  0  0
 15 16  2  0  0  0  0
 15 26  1  0  0  0  0
 16 27  1  0  0  0  0
 17 28  1  0  0  0  0
 18 20  1  0  0  0  0
 18 28  1  0  0  0  0
 18 30  2  0  0  0  0
 19 25  1  1  0  0  0
 19 29  1  0  0  0  0
 19 31  2  0  0  0  0
 20 21  1  0  0  0  0
 21 22  1  0  0  0  0
 22 23  1  0  0  0  0
 23 28  1  0  0  0  0
 24 25  1  0  0  0  0
 27 29  1  0  0  0  0
  1 33  1  0  0  0  0
  2 34  1  0  0  0  0
  3 35  1  0  0  0  0
  4 36  1  0  0  0  0
  5 37  1  0  0  0  0
  6 38  1  0  0  0  0
  7 39  1  0  0  0  0
  8 40  1  0  0  0  0
  9 41  1  0  0  0  0
 10 42  1  0  0  0  0
 11 43  1  0  0  0  0
 12 44  1  0  0  0  0
 20 45  1  0  0  0  0
 20 46  1  0  0  0  0
 21 47  1  0  0  0  0
 21 48  1  0  0  0  0
 22 49  1  0  0  0  0
 22 50  1  0  0  0  0
 23 51  1  0  0  0  0
 23 52  1  0  0  0  0
 24 53  1  0  0  0  0
 24 54  1  0  0  0  0
 25 55  1  0  0  0  0
 29 56  1  0  0  0  0
M  END
> <clash_score>
1.3873436286698058

> <docking_score>
-4.755096912384033

> <overlap_score>
0.8587609529495239

$$$$
BENZO_217_2
  -OEChem-08232013533D

 59 63  0     1  0  0  0  0  0999 V2000
   13.4298   -0.6304   26.2164 C   0  0  0  0  0  0  0  0  0  0  0  0
   13.9318   -1.1657   25.0303 C   0  0  0  0  0  0  0  0  0  0  0  0
   12.2106    0.0474   26.2147 C   0  0  0  0  0  0  0  0  0  0  0  0
    3.8860    2.1050   19.5250 C   0  0  0  0  0  0  0  0  0  0  0  0
    4.2460    1.7520   20.8250 C   0  0  0  0  0  0  0  0  0  0  0  0
   13.2147   -1.0233   23.8424 C   0  0  0  0  0  0  0  0  0  0  0  0
   11.4935    0.1898   25.0268 C   0  0  0  0  0  0  0  0  0  0  0  0
    9.5890   -2.4950   23.2210 C   0  0  0  0  0  0  0  0  0  0  0  0
    8.2550   -1.0010   24.5520 C   0  0  0  0  0  0  0  0  0  0  0  0
    4.6610    1.7170   18.4380 C   0  0  0  0  0  0  0  0  0  0  0  0
    5.3890    1.0010   21.0690 C   0  0  0  0  0  0  0  0  0  0  0  0
    9.1890   -3.5540   24.0140 C   0  0  0  0  0  0  0  0  0  0  0  0
    7.8700   -2.0610   25.3550 C   0  0  0  0  0  0  0  0  0  0  0  0
    7.5840   -0.2700   18.5160 C   0  0  0  0  0  0  0  0  0  0  0  0
   11.9955   -0.3455   23.8406 C   0  0  0  0  0  0  0  0  0  0  0  0
    9.1280   -1.2090   23.4870 C   0  0  0  0  0  0  0  0  0  0  0  0
    5.7970    0.9500   18.6730 C   0  0  0  0  0  0  0  0  0  0  0  0
    6.1460    0.6070   19.9750 C   0  0  0  0  0  0  0  0  0  0  0  0
    8.3450   -3.3440   25.0980 C   0  0  0  0  0  0  0  0  0  0  0  0
    6.6194   -4.8191   26.1158 C   0  0  0  0  0  0  0  0  0  0  0  0
    9.0430    0.2380   21.4940 C   0  0  0  0  0  0  0  0  0  0  0  0
    6.4366   -5.9938   27.0605 C   0  0  0  0  0  0  0  0  0  0  0  0
    7.2458   -5.7947   28.3299 C   0  0  0  0  0  0  0  0  0  0  0  0
    8.7184   -5.5215   28.0404 C   0  0  0  0  0  0  0  0  0  0  0  0
    9.0024   -5.2744   26.5596 C   0  0  0  0  0  0  0  0  0  0  0  0
   11.2185   -0.1906   22.5545 C   0  0  0  0  0  0  0  0  0  0  0  0
    9.5820   -0.1080   22.7000 C   0  0  2  0  0  0  0  0  0  0  0  0
    6.7100    0.3850   17.8100 N   0  0  0  0  0  0  0  0  0  0  0  0
    7.2710   -0.1460   19.8310 N   0  0  0  0  0  0  0  0  0  0  0  0
    7.9658   -4.4384   25.9449 N   0  0  0  0  0  0  0  0  0  0  0  0
    8.0950   -0.7700   20.8440 N   0  0  0  0  0  0  0  0  0  0  0  0
    5.6415   -4.3469   25.5373 O   0  0  0  0  0  0  0  0  0  0  0  0
    9.2950    1.3000   20.9480 O   0  0  0  0  0  0  0  0  0  0  0  0
   13.9877   -0.7426   27.1415 H   0  0  0  0  0  0  0  0  0  0  0  0
   14.8805   -1.6944   25.0316 H   0  0  0  0  0  0  0  0  0  0  0  0
   11.8190    0.4634   27.1383 H   0  0  0  0  0  0  0  0  0  0  0  0
    2.9844    2.6927   19.3613 H   0  0  0  0  0  0  0  0  0  0  0  0
    3.6214    2.0680   21.6561 H   0  0  0  0  0  0  0  0  0  0  0  0
   13.6136   -1.4435   22.9229 H   0  0  0  0  0  0  0  0  0  0  0  0
   10.5446    0.7196   25.0350 H   0  0  0  0  0  0  0  0  0  0  0  0
   10.2695   -2.6718   22.3873 H   0  0  0  0  0  0  0  0  0  0  0  0
    7.8712   -0.0014   24.7587 H   0  0  0  0  0  0  0  0  0  0  0  0
    4.3780    2.0103   17.4276 H   0  0  0  0  0  0  0  0  0  0  0  0
    5.6758    0.7336   22.0897 H   0  0  0  0  0  0  0  0  0  0  0  0
    9.5431   -4.5618   23.7801 H   0  0  0  0  0  0  0  0  0  0  0  0
    7.1923   -1.8823   26.1912 H   0  0  0  0  0  0  0  0  0  0  0  0
    8.4213   -0.8245   18.1548 H   0  0  0  0  0  0  0  0  0  0  0  0
    5.3901   -6.0734   27.3117 H   0  0  0  0  0  0  0  0  0  0  0  0
    6.7606   -6.8843   26.5429 H   0  0  0  0  0  0  0  0  0  0  0  0
    6.8221   -4.9563   28.9212 H   0  0  0  0  0  0  0  0  0  0  0  0
    7.1526   -6.6910   28.9757 H   0  0  0  0  0  0  0  0  0  0  0  0
    9.0539   -4.6418   28.6288 H   0  0  0  0  0  0  0  0  0  0  0  0
    9.3393   -6.3684   28.4053 H   0  0  0  0  0  0  0  0  0  0  0  0
    9.9475   -4.7506   26.4523 H   0  0  0  0  0  0  0  0  0  0  0  0
    9.0509   -6.2236   26.0372 H   0  0  0  0  0  0  0  0  0  0  0  0
   11.6029    0.6962   22.0317 H   0  0  0  0  0  0  0  0  0  0  0  0
   11.4403   -1.0329   21.8857 H   0  0  0  0  0  0  0  0  0  0  0  0
    9.5315    0.8594   23.3834 H   0  0  0  0  0  0  0  0  0  0  0  0
    8.0815   -1.6117   21.0754 H   0  0  0  0  0  0  0  0  0  0  0  0
  1  2  1  0  0  0  0
  1  3  2  0  0  0  0
  2  6  2  0  0  0  0
  3  7  1  0  0  0  0
  4  5  1  0  0  0  0
  4 10  2  0  0  0  0
  5 11  2  0  0  0  0
  6 15  1  0  0  0  0
  7 15  2  0  0  0  0
  8 12  2  0  0  0  0
  8 16  1  0  0  0  0
  9 13  1  0  0  0  0
  9 16  2  0  0  0  0
 10 17  1  0  0  0  0
 11 18  1  0  0  0  0
 12 19  1  0  0  0  0
 13 19  2  0  0  0  0
 14 28  2  0  0  0  0
 14 29  1  0  0  0  0
 15 26  1  0  0  0  0
 16 27  1  0  0  0  0
 17 18  2  0  0  0  0
 17 28  1  0  0  0  0
 18 29  1  0  0  0  0
 19 30  1  0  0  0  0
 20 22  1  0  0  0  0
 20 30  1  0  0  0  0
 20 32  2  0  0  0  0
 21 27  1  6  0  0  0
 21 31  1  0  0  0  0
 21 33  2  0  0  0  0
 22 23  1  0  0  0  0
 23 24  1  0  0  0  0
 24 25  1  0  0  0  0
 25 30  1  0  0  0  0
 26 27  1  0  0  0  0
 29 31  1  0  0  0  0
  1 34  1  0  0  0  0
  2 35  1  0  0  0  0
  3 36  1  0  0  0  0
  4 37  1  0  0  0  0
  5 38  1  0  0  0  0
  6 39  1  0  0  0  0
  7 40  1  0  0  0  0
  8 41  1  0  0  0  0
  9 42  1  0  0  0  0
 10 43  1  0  0  0  0
 11 44  1  0  0  0  0
 12 45  1  0  0  0  0
 13 46  1  0  0  0  0
 14 47  1  0  0  0  0
 22 48  1  0  0  0  0
 22 49  1  0  0  0  0
 23 50  1  0  0  0  0
 23 51  1  0  0  0  0
 24 52  1  0  0  0  0
 24 53  1  0  0  0  0
 25 54  1  0  0  0  0
 25 55  1  0  0  0  0
 26 56  1  0  0  0  0
 26 57  1  0  0  0  0
 27 58  1  0  0  0  0
 31 59  1  0  0  0  0
M  END
> <clash_score>
0

> <docking_score>
-7.015851020812988

> <overlap_score>
0.9334016442298889

$$$$
BENZO_216_2
  -OEChem-08232013533D

 56 60  0     1  0  0  0  0  0999 V2000
    3.8860    2.1050   19.5250 C   0  0  0  0  0  0  0  0  0  0  0  0
    4.2460    1.7520   20.8250 C   0  0  0  0  0  0  0  0  0  0  0  0
    9.5890   -2.4950   23.2210 C   0  0  0  0  0  0  0  0  0  0  0  0
    8.2550   -1.0010   24.5520 C   0  0  0  0  0  0  0  0  0  0  0  0
    4.6610    1.7170   18.4380 C   0  0  0  0  0  0  0  0  0  0  0  0
    5.3890    1.0010   21.0690 C   0  0  0  0  0  0  0  0  0  0  0  0
    9.1890   -3.5540   24.0140 C   0  0  0  0  0  0  0  0  0  0  0  0
    7.8700   -2.0610   25.3550 C   0  0  0  0  0  0  0  0  0  0  0  0
   13.1978   -1.1013   23.9565 C   0  0  0  0  0  0  0  0  0  0  0  0
   13.7015   -1.0791   25.2384 C   0  0  0  0  0  0  0  0  0  0  0  0
   11.6260    0.2255   25.0387 C   0  0  0  0  0  0  0  0  0  0  0  0
    7.5840   -0.2700   18.5160 C   0  0  0  0  0  0  0  0  0  0  0  0
    9.1280   -1.2090   23.4870 C   0  0  0  0  0  0  0  0  0  0  0  0
   11.9955   -0.3455   23.8406 C   0  0  0  0  0  0  0  0  0  0  0  0
    5.7970    0.9500   18.6730 C   0  0  0  0  0  0  0  0  0  0  0  0
    6.1460    0.6070   19.9750 C   0  0  0  0  0  0  0  0  0  0  0  0
    8.3450   -3.3440   25.0980 C   0  0  0  0  0  0  0  0  0  0  0  0
    6.6194   -4.8191   26.1158 C   0  0  0  0  0  0  0  0  0  0  0  0
    9.0430    0.2380   21.4940 C   0  0  0  0  0  0  0  0  0  0  0  0
    6.4366   -5.9938   27.0605 C   0  0  0  0  0  0  0  0  0  0  0  0
    7.2458   -5.7947   28.3299 C   0  0  0  0  0  0  0  0  0  0  0  0
    8.7184   -5.5215   28.0404 C   0  0  0  0  0  0  0  0  0  0  0  0
    9.0024   -5.2744   26.5596 C   0  0  0  0  0  0  0  0  0  0  0  0
   11.2185   -0.1906   22.5545 C   0  0  0  0  0  0  0  0  0  0  0  0
    9.5820   -0.1080   22.7000 C   0  0  2  0  0  0  0  0  0  0  0  0
    6.7100    0.3850   17.8100 N   0  0  0  0  0  0  0  0  0  0  0  0
    7.2710   -0.1460   19.8310 N   0  0  0  0  0  0  0  0  0  0  0  0
    7.9658   -4.4384   25.9449 N   0  0  0  0  0  0  0  0  0  0  0  0
    8.0950   -0.7700   20.8440 N   0  0  0  0  0  0  0  0  0  0  0  0
    5.6415   -4.3469   25.5373 O   0  0  0  0  0  0  0  0  0  0  0  0
    9.2950    1.3000   20.9480 O   0  0  0  0  0  0  0  0  0  0  0  0
   12.7264   -0.1499   26.2958 S   0  0  0  0  0  0  0  0  0  0  0  0
    2.9844    2.6927   19.3613 H   0  0  0  0  0  0  0  0  0  0  0  0
    3.6214    2.0680   21.6561 H   0  0  0  0  0  0  0  0  0  0  0  0
   10.2695   -2.6718   22.3873 H   0  0  0  0  0  0  0  0  0  0  0  0
    7.8712   -0.0014   24.7587 H   0  0  0  0  0  0  0  0  0  0  0  0
    4.3780    2.0103   17.4276 H   0  0  0  0  0  0  0  0  0  0  0  0
    5.6758    0.7336   22.0897 H   0  0  0  0  0  0  0  0  0  0  0  0
    9.5431   -4.5618   23.7801 H   0  0  0  0  0  0  0  0  0  0  0  0
    7.1923   -1.8823   26.1912 H   0  0  0  0  0  0  0  0  0  0  0  0
   13.6723   -1.6362   23.1434 H   0  0  0  0  0  0  0  0  0  0  0  0
   14.5949   -1.5646   25.6049 H   0  0  0  0  0  0  0  0  0  0  0  0
   10.7629    0.8447   25.2404 H   0  0  0  0  0  0  0  0  0  0  0  0
    8.4213   -0.8245   18.1548 H   0  0  0  0  0  0  0  0  0  0  0  0
    5.3901   -6.0734   27.3117 H   0  0  0  0  0  0  0  0  0  0  0  0
    6.7606   -6.8843   26.5429 H   0  0  0  0  0  0  0  0  0  0  0  0
    6.8221   -4.9563   28.9212 H   0  0  0  0  0  0  0  0  0  0  0  0
    7.1526   -6.6910   28.9757 H   0  0  0  0  0  0  0  0  0  0  0  0
    9.0539   -4.6418   28.6288 H   0  0  0  0  0  0  0  0  0  0  0  0
    9.3393   -6.3684   28.4053 H   0  0  0  0  0  0  0  0  0  0  0  0
    9.9475   -4.7506   26.4523 H   0  0  0  0  0  0  0  0  0  0  0  0
    9.0509   -6.2236   26.0372 H   0  0  0  0  0  0  0  0  0  0  0  0
   11.6029    0.6962   22.0317 H   0  0  0  0  0  0  0  0  0  0  0  0
   11.4403   -1.0329   21.8857 H   0  0  0  0  0  0  0  0  0  0  0  0
    9.5315    0.8594   23.3834 H   0  0  0  0  0  0  0  0  0  0  0  0
    8.0815   -1.6117   21.0754 H   0  0  0  0  0  0  0  0  0  0  0  0
  1  2  1  0  0  0  0
  1  5  2  0  0  0  0
  2  6  2  0  0  0  0
  3  7  2  0  0  0  0
  3 13  1  0  0  0  0
  4  8  1  0  0  0  0
  4 13  2  0  0  0  0
  5 15  1  0  0  0  0
  6 16  1  0  0  0  0
  7 17  1  0  0  0  0
  8 17  2  0  0  0  0
  9 10  2  0  0  0  0
  9 14  1  0  0  0  0
 10 32  1  0  0  0  0
 11 14  2  0  0  0  0
 11 32  1  0  0  0  0
 12 26  2  0  0  0  0
 12 27  1  0  0  0  0
 13 25  1  0  0  0  0
 14 24  1  0  0  0  0
 15 16  2  0  0  0  0
 15 26  1  0  0  0  0
 16 27  1  0  0  0  0
 17 28  1  0  0  0  0
 18 20  1  0  0  0  0
 18 28  1  0  0  0  0
 18 30  2  0  0  0  0
 19 25  1  6  0  0  0
 19 29  1  0  0  0  0
 19 31  2  0  0  0  0
 20 21  1  0  0  0  0
 21 22  1  0  0  0  0
 22 23  1  0  0  0  0
 23 28  1  0  0  0  0
 24 25  1  0  0  0  0
 27 29  1  0  0  0  0
  1 33  1  0  0  0  0
  2 34  1  0  0  0  0
  3 35  1  0  0  0  0
  4 36  1  0  0  0  0
  5 37  1  0  0  0  0
  6 38  1  0  0  0  0
  7 39  1  0  0  0  0
  8 40  1  0  0  0  0
  9 41  1  0  0  0  0
 10 42  1  0  0  0  0
 11 43  1  0  0  0  0
 12 44  1  0  0  0  0
 20 45  1  0  0  0  0
 20 46  1  0  0  0  0
 21 47  1  0  0  0  0
 21 48  1  0  0  0  0
 22 49  1  0  0  0  0
 22 50  1  0  0  0  0
 23 51  1  0  0  0  0
 23 52  1  0  0  0  0
 24 53  1  0  0  0  0
 24 54  1  0  0  0  0
 25 55  1  0  0  0  0
 29 56  1  0  0  0  0
M  END
> <clash_score>
0

> <docking_score>
-7.361226558685303

> <overlap_score>
0.9287575483322144

$$$$
BENZO_218_1
  -OEChem-08232013533D

 59 63  0     1  0  0  0  0  0999 V2000
    3.8860    2.1050   19.5250 C   0  0  0  0  0  0  0  0  0  0  0  0
    4.2460    1.7520   20.8250 C   0  0  0  0  0  0  0  0  0  0  0  0
   12.2120   -0.2767   26.0159 C   0  0  0  0  0  0  0  0  0  0  0  0
   11.4767   -0.0068   24.8618 C   0  0  0  0  0  0  0  0  0  0  0  0
    9.5890   -2.4950   23.2210 C   0  0  0  0  0  0  0  0  0  0  0  0
    8.2550   -1.0010   24.5520 C   0  0  0  0  0  0  0  0  0  0  0  0
    4.6610    1.7170   18.4380 C   0  0  0  0  0  0  0  0  0  0  0  0
    5.3890    1.0010   21.0690 C   0  0  0  0  0  0  0  0  0  0  0  0
    9.1890   -3.5540   24.0140 C   0  0  0  0  0  0  0  0  0  0  0  0
    7.8700   -2.0610   25.3550 C   0  0  0  0  0  0  0  0  0  0  0  0
   11.9272    0.4040   27.1996 C   0  0  0  0  0  0  0  0  0  0  0  0
   10.1717    1.6249   26.0750 C   0  0  0  0  0  0  0  0  0  0  0  0
    7.5840   -0.2700   18.5160 C   0  0  0  0  0  0  0  0  0  0  0  0
    9.1280   -1.2090   23.4870 C   0  0  0  0  0  0  0  0  0  0  0  0
   10.4565    0.9440   24.8913 C   0  0  0  0  0  0  0  0  0  0  0  0
    5.7970    0.9500   18.6730 C   0  0  0  0  0  0  0  0  0  0  0  0
    6.1460    0.6070   19.9750 C   0  0  0  0  0  0  0  0  0  0  0  0
    8.3450   -3.3440   25.0980 C   0  0  0  0  0  0  0  0  0  0  0  0
   10.9070    1.3549   27.2291 C   0  0  0  0  0  0  0  0  0  0  0  0
    8.2612   -4.4533   27.3232 C   0  0  0  0  0  0  0  0  0  0  0  0
    9.0430    0.2380   21.4940 C   0  0  0  0  0  0  0  0  0  0  0  0
    7.7639   -5.6979   28.0369 C   0  0  0  0  0  0  0  0  0  0  0  0
    6.3258   -5.9996   27.6538 C   0  0  0  0  0  0  0  0  0  0  0  0
    6.1385   -6.0983   26.1431 C   0  0  0  0  0  0  0  0  0  0  0  0
    7.3646   -5.6395   25.3553 C   0  0  0  0  0  0  0  0  0  0  0  0
    9.6614    1.2367   23.6407 C   0  0  0  0  0  0  0  0  0  0  0  0
    9.5820   -0.1080   22.7000 C   0  0  1  0  0  0  0  0  0  0  0  0
    6.7100    0.3850   17.8100 N   0  0  0  0  0  0  0  0  0  0  0  0
    7.2710   -0.1460   19.8310 N   0  0  0  0  0  0  0  0  0  0  0  0
    7.9658   -4.4385   25.9450 N   0  0  0  0  0  0  0  0  0  0  0  0
    8.0950   -0.7700   20.8440 N   0  0  0  0  0  0  0  0  0  0  0  0
    8.9160   -3.6176   27.9452 O   0  0  0  0  0  0  0  0  0  0  0  0
    9.2950    1.3000   20.9480 O   0  0  0  0  0  0  0  0  0  0  0  0
   10.5568    2.1953   28.6895 Cl  0  0  0  0  0  0  0  0  0  0  0  0
    2.9844    2.6927   19.3613 H   0  0  0  0  0  0  0  0  0  0  0  0
    3.6214    2.0680   21.6561 H   0  0  0  0  0  0  0  0  0  0  0  0
   13.0065   -1.0171   25.9925 H   0  0  0  0  0  0  0  0  0  0  0  0
   11.7056   -0.5420   23.9439 H   0  0  0  0  0  0  0  0  0  0  0  0
   10.2695   -2.6718   22.3873 H   0  0  0  0  0  0  0  0  0  0  0  0
    7.8712   -0.0014   24.7587 H   0  0  0  0  0  0  0  0  0  0  0  0
    4.3780    2.0103   17.4276 H   0  0  0  0  0  0  0  0  0  0  0  0
    5.6758    0.7336   22.0897 H   0  0  0  0  0  0  0  0  0  0  0  0
    9.5431   -4.5618   23.7801 H   0  0  0  0  0  0  0  0  0  0  0  0
    7.1923   -1.8823   26.1912 H   0  0  0  0  0  0  0  0  0  0  0  0
   12.5087    0.1836   28.0914 H   0  0  0  0  0  0  0  0  0  0  0  0
    9.3749    2.3649   26.0930 H   0  0  0  0  0  0  0  0  0  0  0  0
    8.4213   -0.8245   18.1548 H   0  0  0  0  0  0  0  0  0  0  0  0
    8.3914   -6.5295   27.7556 H   0  0  0  0  0  0  0  0  0  0  0  0
    7.8414   -5.5198   29.0990 H   0  0  0  0  0  0  0  0  0  0  0  0
    5.9977   -6.9465   28.1311 H   0  0  0  0  0  0  0  0  0  0  0  0
    5.6587   -5.2139   28.0619 H   0  0  0  0  0  0  0  0  0  0  0  0
    5.8986   -7.1470   25.8680 H   0  0  0  0  0  0  0  0  0  0  0  0
    5.2500   -5.5067   25.8324 H   0  0  0  0  0  0  0  0  0  0  0  0
    8.1195   -6.4201   25.3688 H   0  0  0  0  0  0  0  0  0  0  0  0
    7.0780   -5.4282   24.3307 H   0  0  0  0  0  0  0  0  0  0  0  0
    8.6823    1.6307   23.9469 H   0  0  0  0  0  0  0  0  0  0  0  0
   10.1362    2.0563   23.0850 H   0  0  0  0  0  0  0  0  0  0  0  0
   10.7449   -0.2552   22.5248 H   0  0  0  0  0  0  0  0  0  0  0  0
    8.0815   -1.6117   21.0754 H   0  0  0  0  0  0  0  0  0  0  0  0
  1  2  1  0  0  0  0
  1  7  2  0  0  0  0
  2  8  2  0  0  0  0
  3  4  2  0  0  0  0
  3 11  1  0  0  0  0
  4 15  1  0  0  0  0
  5  9  2  0  0  0  0
  5 14  1  0  0  0  0
  6 10  1  0  0  0  0
  6 14  2  0  0  0  0
  7 16  1  0  0  0  0
  8 17  1  0  0  0  0
  9 18  1  0  0  0  0
 10 18  2  0  0  0  0
 11 19  2  0  0  0  0
 12 15  2  0  0  0  0
 12 19  1  0  0  0  0
 13 28  2  0  0  0  0
 13 29  1  0  0  0  0
 14 27  1  0  0  0  0
 15 26  1  0  0  0  0
 16 17  2  0  0  0  0
 16 28  1  0  0  0  0
 17 29  1  0  0  0  0
 18 30  1  0  0  0  0
 19 34  1  0  0  0  0
 20 22  1  0  0  0  0
 20 30  1  0  0  0  0
 20 32  2  0  0  0  0
 21 27  1  1  0  0  0
 21 31  1  0  0  0  0
 21 33  2  0  0  0  0
 22 23  1  0  0  0  0
 23 24  1  0  0  0  0
 24 25  1  0  0  0  0
 25 30  1  0  0  0  0
 26 27  1  0  0  0  0
 29 31  1  0  0  0  0
  1 35  1  0  0  0  0
  2 36  1  0  0  0  0
  3 37  1  0  0  0  0
  4 38  1  0  0  0  0
  5 39  1  0  0  0  0
  6 40  1  0  0  0  0
  7 41  1  0  0  0  0
  8 42  1  0  0  0  0
  9 43  1  0  0  0  0
 10 44  1  0  0  0  0
 11 45  1  0  0  0  0
 12 46  1  0  0  0  0
 13 47  1  0  0  0  0
 22 48  1  0  0  0  0
 22 49  1  0  0  0  0
 23 50  1  0  0  0  0
 23 51  1  0  0  0  0
 24 52  1  0  0  0  0
 24 53  1  0  0  0  0
 25 54  1  0  0  0  0
 25 55  1  0  0  0  0
 26 56  1  0  0  0  0
 26 57  1  0  0  0  0
 27 58  1  0  0  0  0
 31 59  1  0  0  0  0
M  END
> <clash_score>
4.842562894006987

> <docking_score>
-4.273309707641602

> <overlap_score>
0.8608948588371277

$$$$
BENZO_219_2
  -OEChem-08232013533D

 59 63  0     1  0  0  0  0  0999 V2000
    3.8860    2.1050   19.5250 C   0  0  0  0  0  0  0  0  0  0  0  0
    4.2460    1.7520   20.8250 C   0  0  0  0  0  0  0  0  0  0  0  0
    9.5890   -2.4950   23.2210 C   0  0  0  0  0  0  0  0  0  0  0  0
    8.2550   -1.0010   24.5520 C   0  0  0  0  0  0  0  0  0  0  0  0
    4.6610    1.7170   18.4380 C   0  0  0  0  0  0  0  0  0  0  0  0
    5.3890    1.0010   21.0690 C   0  0  0  0  0  0  0  0  0  0  0  0
    9.1890   -3.5540   24.0140 C   0  0  0  0  0  0  0  0  0  0  0  0
    7.8700   -2.0610   25.3550 C   0  0  0  0  0  0  0  0  0  0  0  0
   12.0323    0.4351   24.4216 C   0  0  0  0  0  0  0  0  0  0  0  0
   10.9195    1.6685   25.8623 C   0  0  0  0  0  0  0  0  0  0  0  0
    7.5840   -0.2700   18.5160 C   0  0  0  0  0  0  0  0  0  0  0  0
    9.1280   -1.2090   23.4870 C   0  0  0  0  0  0  0  0  0  0  0  0
   10.8175    1.1221   24.6062 C   0  0  0  0  0  0  0  0  0  0  0  0
    5.7970    0.9500   18.6730 C   0  0  0  0  0  0  0  0  0  0  0  0
    6.1460    0.6070   19.9750 C   0  0  0  0  0  0  0  0  0  0  0  0
    8.3450   -3.3440   25.0980 C   0  0  0  0  0  0  0  0  0  0  0  0
    6.6194   -4.8191   26.1158 C   0  0  0  0  0  0  0  0  0  0  0  0
    9.0430    0.2380   21.4940 C   0  0  0  0  0  0  0  0  0  0  0  0
    6.4366   -5.9938   27.0605 C   0  0  0  0  0  0  0  0  0  0  0  0
    7.2458   -5.7947   28.3299 C   0  0  0  0  0  0  0  0  0  0  0  0
    8.7184   -5.5215   28.0404 C   0  0  0  0  0  0  0  0  0  0  0  0
    9.0024   -5.2744   26.5596 C   0  0  0  0  0  0  0  0  0  0  0  0
   12.7029    1.6253   27.6219 C   0  0  0  0  0  0  0  0  0  0  0  0
    9.6614    1.2367   23.6407 C   0  0  0  0  0  0  0  0  0  0  0  0
    9.5820   -0.1080   22.7000 C   0  0  2  0  0  0  0  0  0  0  0  0
   12.8463    0.5345   25.4759 N   0  0  0  0  0  0  0  0  0  0  0  0
    6.7100    0.3850   17.8100 N   0  0  0  0  0  0  0  0  0  0  0  0
   12.1417    1.2905   26.3350 N   0  0  0  0  0  0  0  0  0  0  0  0
    7.2710   -0.1460   19.8310 N   0  0  0  0  0  0  0  0  0  0  0  0
    7.9658   -4.4384   25.9449 N   0  0  0  0  0  0  0  0  0  0  0  0
    8.0950   -0.7700   20.8440 N   0  0  0  0  0  0  0  0  0  0  0  0
    5.6415   -4.3469   25.5373 O   0  0  0  0  0  0  0  0  0  0  0  0
    9.2950    1.3000   20.9480 O   0  0  0  0  0  0  0  0  0  0  0  0
    2.9844    2.6927   19.3613 H   0  0  0  0  0  0  0  0  0  0  0  0
    3.6214    2.0680   21.6561 H   0  0  0  0  0  0  0  0  0  0  0  0
   10.2695   -2.6718   22.3873 H   0  0  0  0  0  0  0  0  0  0  0  0
    7.8712   -0.0014   24.7587 H   0  0  0  0  0  0  0  0  0  0  0  0
    4.3780    2.0103   17.4276 H   0  0  0  0  0  0  0  0  0  0  0  0
    5.6758    0.7336   22.0897 H   0  0  0  0  0  0  0  0  0  0  0  0
    9.5431   -4.5618   23.7801 H   0  0  0  0  0  0  0  0  0  0  0  0
    7.1923   -1.8823   26.1912 H   0  0  0  0  0  0  0  0  0  0  0  0
   12.3609   -0.1338   23.5634 H   0  0  0  0  0  0  0  0  0  0  0  0
   10.2438    2.2799   26.4449 H   0  0  0  0  0  0  0  0  0  0  0  0
    8.4213   -0.8245   18.1548 H   0  0  0  0  0  0  0  0  0  0  0  0
    5.3901   -6.0734   27.3117 H   0  0  0  0  0  0  0  0  0  0  0  0
    6.7606   -6.8843   26.5429 H   0  0  0  0  0  0  0  0  0  0  0  0
    6.8221   -4.9563   28.9212 H   0  0  0  0  0  0  0  0  0  0  0  0
    7.1526   -6.6910   28.9757 H   0  0  0  0  0  0  0  0  0  0  0  0
    9.0539   -4.6418   28.6288 H   0  0  0  0  0  0  0  0  0  0  0  0
    9.3393   -6.3684   28.4053 H   0  0  0  0  0  0  0  0  0  0  0  0
    9.9475   -4.7506   26.4523 H   0  0  0  0  0  0  0  0  0  0  0  0
    9.0509   -6.2236   26.0372 H   0  0  0  0  0  0  0  0  0  0  0  0
   12.4110    0.8455   28.3303 H   0  0  0  0  0  0  0  0  0  0  0  0
   13.7921    1.6801   27.5410 H   0  0  0  0  0  0  0  0  0  0  0  0
   12.3182    2.5976   27.9420 H   0  0  0  0  0  0  0  0  0  0  0  0
    8.7512    1.4323   24.2245 H   0  0  0  0  0  0  0  0  0  0  0  0
    9.7926    2.1276   23.0121 H   0  0  0  0  0  0  0  0  0  0  0  0
   10.7449   -0.2552   22.5248 H   0  0  0  0  0  0  0  0  0  0  0  0
    8.0815   -1.6117   21.0754 H   0  0  0  0  0  0  0  0  0  0  0  0
  1  2  1  0  0  0  0
  1  5  2  0  0  0  0
  2  6  2  0  0  0  0
  3  7  2  0  0  0  0
  3 12  1  0  0  0  0
  4  8  1  0  0  0  0
  4 12  2  0  0  0  0
  5 14  1  0  0  0  0
  6 15  1  0  0  0  0
  7 16  1  0  0  0  0
  8 16  2  0  0  0  0
  9 13  1  0  0  0  0
  9 26  2  0  0  0  0
 10 13  2  0  0  0  0
 10 28  1  0  0  0  0
 11 27  2  0  0  0  0
 11 29  1  0  0  0  0
 12 25  1  0  0  0  0
 13 24  1  0  0  0  0
 14 15  2  0  0  0  0
 14 27  1  0  0  0  0
 15 29  1  0  0  0  0
 16 30  1  0  0  0  0
 17 19  1  0  0  0  0
 17 30  1  0  0  0  0
 17 32  2  0  0  0  0
 18 25  1  0  0  0  0
 18 31  1  0  0  0  0
 18 33  2  0  0  0  0
 19 20  1  0  0  0  0
 20 21  1  0  0  0  0
 21 22  1  0  0  0  0
 22 30  1  0  0  0  0
 23 28  1  0  0  0  0
 24 25  1  6  0  0  0
 26 28  1  0  0  0  0
 29 31  1  0  0  0  0
  1 34  1  0  0  0  0
  2 35  1  0  0  0  0
  3 36  1  0  0  0  0
  4 37  1  0  0  0  0
  5 38  1  0  0  0  0
  6 39  1  0  0  0  0
  7 40  1  0  0  0  0
  8 41  1  0  0  0  0
  9 42  1  0  0  0  0
 10 43  1  0  0  0  0
 11 44  1  0  0  0  0
 19 45  1  0  0  0  0
 19 46  1  0  0  0  0
 20 47  1  0  0  0  0
 20 48  1  0  0  0  0
 21 49  1  0  0  0  0
 21 50  1  0  0  0  0
 22 51  1  0  0  0  0
 22 52  1  0  0  0  0
 23 53  1  0  0  0  0
 23 54  1  0  0  0  0
 23 55  1  0  0  0  0
 24 56  1  0  0  0  0
 24 57  1  0  0  0  0
 25 58  1  0  0  0  0
 31 59  1  0  0  0  0
M  END
> <clash_score>
2.8628259509788334

> <docking_score>
-4.4372663497924805

> <overlap_score>
0.8581464886665344

$$$$
BENZO_221_1
  -OEChem-08232013533D

 58 62  0     1  0  0  0  0  0999 V2000
   12.9530    0.9093   26.3886 C   0  0  0  0  0  0  0  0  0  0  0  0
   11.8191    1.6403   26.7429 C   0  0  0  0  0  0  0  0  0  0  0  0
   13.0192    0.2848   25.1431 C   0  0  0  0  0  0  0  0  0  0  0  0
    3.8860    2.1050   19.5250 C   0  0  0  0  0  0  0  0  0  0  0  0
    4.2460    1.7520   20.8250 C   0  0  0  0  0  0  0  0  0  0  0  0
   10.7513    1.7467   25.8517 C   0  0  0  0  0  0  0  0  0  0  0  0
   11.9515    0.3912   24.2519 C   0  0  0  0  0  0  0  0  0  0  0  0
    9.5890   -2.4950   23.2210 C   0  0  0  0  0  0  0  0  0  0  0  0
    8.2550   -1.0010   24.5520 C   0  0  0  0  0  0  0  0  0  0  0  0
    4.6610    1.7170   18.4380 C   0  0  0  0  0  0  0  0  0  0  0  0
    5.3890    1.0010   21.0690 C   0  0  0  0  0  0  0  0  0  0  0  0
    9.1890   -3.5540   24.0140 C   0  0  0  0  0  0  0  0  0  0  0  0
    7.8700   -2.0610   25.3550 C   0  0  0  0  0  0  0  0  0  0  0  0
    7.5840   -0.2700   18.5160 C   0  0  0  0  0  0  0  0  0  0  0  0
   10.8175    1.1222   24.6062 C   0  0  0  0  0  0  0  0  0  0  0  0
    9.1280   -1.2090   23.4870 C   0  0  0  0  0  0  0  0  0  0  0  0
    5.7970    0.9500   18.6730 C   0  0  0  0  0  0  0  0  0  0  0  0
    6.1460    0.6070   19.9750 C   0  0  0  0  0  0  0  0  0  0  0  0
    8.3450   -3.3440   25.0980 C   0  0  0  0  0  0  0  0  0  0  0  0
    9.0430    0.2380   21.4940 C   0  0  0  0  0  0  0  0  0  0  0  0
    8.3252   -4.3381   27.3461 C   0  0  0  0  0  0  0  0  0  0  0  0
    7.8819   -5.7639   25.3670 C   0  0  0  0  0  0  0  0  0  0  0  0
    7.4311   -5.2808   28.1434 C   0  0  0  0  0  0  0  0  0  0  0  0
    7.0119   -6.6310   26.2702 C   0  0  0  0  0  0  0  0  0  0  0  0
    9.6614    1.2368   23.6407 C   0  0  0  0  0  0  0  0  0  0  0  0
    9.5820   -0.1080   22.7000 C   0  0  1  0  0  0  0  0  0  0  0  0
    6.7100    0.3850   17.8100 N   0  0  0  0  0  0  0  0  0  0  0  0
    7.2710   -0.1460   19.8310 N   0  0  0  0  0  0  0  0  0  0  0  0
    7.9748   -4.4087   25.9209 N   0  0  0  0  0  0  0  0  0  0  0  0
    8.0950   -0.7700   20.8440 N   0  0  0  0  0  0  0  0  0  0  0  0
    9.2950    1.3000   20.9480 O   0  0  0  0  0  0  0  0  0  0  0  0
    7.5000   -6.6034   27.6110 O   0  0  0  0  0  0  0  0  0  0  0  0
   13.7849    0.8277   27.0821 H   0  0  0  0  0  0  0  0  0  0  0  0
   11.7678    2.1275   27.7122 H   0  0  0  0  0  0  0  0  0  0  0  0
   13.9023   -0.2834   24.8665 H   0  0  0  0  0  0  0  0  0  0  0  0
    2.9844    2.6927   19.3613 H   0  0  0  0  0  0  0  0  0  0  0  0
    3.6214    2.0680   21.6561 H   0  0  0  0  0  0  0  0  0  0  0  0
    9.8717    2.3181   26.1364 H   0  0  0  0  0  0  0  0  0  0  0  0
   12.0118   -0.0988   23.2837 H   0  0  0  0  0  0  0  0  0  0  0  0
   10.2684   -2.6719   22.3867 H   0  0  0  0  0  0  0  0  0  0  0  0
    7.8717   -0.0016   24.7596 H   0  0  0  0  0  0  0  0  0  0  0  0
    4.3780    2.0103   17.4276 H   0  0  0  0  0  0  0  0  0  0  0  0
    5.6758    0.7335   22.0897 H   0  0  0  0  0  0  0  0  0  0  0  0
    9.5443   -4.5616   23.7817 H   0  0  0  0  0  0  0  0  0  0  0  0
    7.1922   -1.8821   26.1908 H   0  0  0  0  0  0  0  0  0  0  0  0
    8.4213   -0.8245   18.1548 H   0  0  0  0  0  0  0  0  0  0  0  0
    8.2083   -3.3157   27.7244 H   0  0  0  0  0  0  0  0  0  0  0  0
    9.3746   -4.6338   27.4718 H   0  0  0  0  0  0  0  0  0  0  0  0
    8.8893   -6.1956   25.3037 H   0  0  0  0  0  0  0  0  0  0  0  0
    7.4544   -5.7434   24.3576 H   0  0  0  0  0  0  0  0  0  0  0  0
    7.7715   -5.3226   29.1831 H   0  0  0  0  0  0  0  0  0  0  0  0
    6.3897   -4.9373   28.1518 H   0  0  0  0  0  0  0  0  0  0  0  0
    5.9637   -6.3086   26.2493 H   0  0  0  0  0  0  0  0  0  0  0  0
    7.0429   -7.6698   25.9261 H   0  0  0  0  0  0  0  0  0  0  0  0
    8.7512    1.4324   24.2245 H   0  0  0  0  0  0  0  0  0  0  0  0
    9.7926    2.1276   23.0121 H   0  0  0  0  0  0  0  0  0  0  0  0
   10.7449   -0.2552   22.5248 H   0  0  0  0  0  0  0  0  0  0  0  0
    8.0815   -1.6117   21.0754 H   0  0  0  0  0  0  0  0  0  0  0  0
  1  2  1  0  0  0  0
  1  3  2  0  0  0  0
  2  6  2  0  0  0  0
  3  7  1  0  0  0  0
  4  5  1  0  0  0  0
  4 10  2  0  0  0  0
  5 11  2  0  0  0  0
  6 15  1  0  0  0  0
  7 15  2  0  0  0  0
  8 12  2  0  0  0  0
  8 16  1  0  0  0  0
  9 13  1  0  0  0  0
  9 16  2  0  0  0  0
 10 17  1  0  0  0  0
 11 18  1  0  0  0  0
 12 19  1  0  0  0  0
 13 19  2  0  0  0  0
 14 27  2  0  0  0  0
 14 28  1  0  0  0  0
 15 25  1  0  0  0  0
 16 26  1  0  0  0  0
 17 18  2  0  0  0  0
 17 27  1  0  0  0  0
 18 28  1  0  0  0  0
 19 29  1  0  0  0  0
 20 26  1  1  0  0  0
 20 30  1  0  0  0  0
 20 31  2  0  0  0  0
 21 23  1  0  0  0  0
 21 29  1  0  0  0  0
 22 24  1  0  0  0  0
 22 29  1  0  0  0  0
 23 32  1  0  0  0  0
 24 32  1  0  0  0  0
 25 26  1  0  0  0  0
 28 30  1  0  0  0  0
  1 33  1  0  0  0  0
  2 34  1  0  0  0  0
  3 35  1  0  0  0  0
  4 36  1  0  0  0  0
  5 37  1  0  0  0  0
  6 38  1  0  0  0  0
  7 39  1  0  0  0  0
  8 40  1  0  0  0  0
  9 41  1  0  0  0  0
 10 42  1  0  0  0  0
 11 43  1  0  0  0  0
 12 44  1  0  0  0  0
 13 45  1  0  0  0  0
 14 46  1  0  0  0  0
 21 47  1  0  0  0  0
 21 48  1  0  0  0  0
 22 49  1  0  0  0  0
 22 50  1  0  0  0  0
 23 51  1  0  0  0  0
 23 52  1  0  0  0  0
 24 53  1  0  0  0  0
 24 54  1  0  0  0  0
 25 55  1  0  0  0  0
 25 56  1  0  0  0  0
 26 57  1  0  0  0  0
 30 58  1  0  0  0  0
M  END
> <clash_score>
3.4515176716122156

> <docking_score>
-4.610093116760254

> <overlap_score>
0.8684496879577637

$$$$
BENZO_220_1
  -OEChem-08232013533D

 55 59  0     1  0  0  0  0  0999 V2000
    3.8860    2.1050   19.5250 C   0  0  0  0  0  0  0  0  0  0  0  0
    4.2460    1.7520   20.8250 C   0  0  0  0  0  0  0  0  0  0  0  0
    9.5890   -2.4950   23.2210 C   0  0  0  0  0  0  0  0  0  0  0  0
    8.2550   -1.0010   24.5520 C   0  0  0  0  0  0  0  0  0  0  0  0
    4.6610    1.7170   18.4380 C   0  0  0  0  0  0  0  0  0  0  0  0
    5.3890    1.0010   21.0690 C   0  0  0  0  0  0  0  0  0  0  0  0
    9.1890   -3.5540   24.0140 C   0  0  0  0  0  0  0  0  0  0  0  0
    7.8700   -2.0610   25.3550 C   0  0  0  0  0  0  0  0  0  0  0  0
   12.1623    0.8696   24.2090 C   0  0  0  0  0  0  0  0  0  0  0  0
   13.0182    0.8125   25.2869 C   0  0  0  0  0  0  0  0  0  0  0  0
   10.6967    1.2482   25.9727 C   0  0  0  0  0  0  0  0  0  0  0  0
    7.5840   -0.2700   18.5160 C   0  0  0  0  0  0  0  0  0  0  0  0
    9.1280   -1.2090   23.4870 C   0  0  0  0  0  0  0  0  0  0  0  0
   10.8175    1.1222   24.6062 C   0  0  0  0  0  0  0  0  0  0  0  0
    5.7970    0.9500   18.6730 C   0  0  0  0  0  0  0  0  0  0  0  0
    6.1460    0.6070   19.9750 C   0  0  0  0  0  0  0  0  0  0  0  0
    8.3450   -3.3440   25.0980 C   0  0  0  0  0  0  0  0  0  0  0  0
    9.0430    0.2380   21.4940 C   0  0  0  0  0  0  0  0  0  0  0  0
    8.9526   -5.2008   26.6600 C   0  0  0  0  0  0  0  0  0  0  0  0
    6.6115   -4.5057   26.4392 C   0  0  0  0  0  0  0  0  0  0  0  0
    8.9053   -4.7827   28.1257 C   0  0  0  0  0  0  0  0  0  0  0  0
    6.6391   -4.1219   27.9194 C   0  0  0  0  0  0  0  0  0  0  0  0
    9.6614    1.2368   23.6407 C   0  0  0  0  0  0  0  0  0  0  0  0
    9.5820   -0.1080   22.7000 C   0  0  1  0  0  0  0  0  0  0  0  0
    6.7100    0.3850   17.8100 N   0  0  0  0  0  0  0  0  0  0  0  0
    7.2710   -0.1460   19.8310 N   0  0  0  0  0  0  0  0  0  0  0  0
    7.9774   -4.4013   25.9152 N   0  0  0  0  0  0  0  0  0  0  0  0
    8.0950   -0.7700   20.8440 N   0  0  0  0  0  0  0  0  0  0  0  0
    9.2950    1.3000   20.9480 O   0  0  0  0  0  0  0  0  0  0  0  0
    7.5748   -4.9364   28.6347 O   0  0  0  0  0  0  0  0  0  0  0  0
   12.2005    1.0627   26.7705 S   0  0  0  0  0  0  0  0  0  0  0  0
    2.9844    2.6927   19.3613 H   0  0  0  0  0  0  0  0  0  0  0  0
    3.6214    2.0680   21.6561 H   0  0  0  0  0  0  0  0  0  0  0  0
   10.2684   -2.6719   22.3867 H   0  0  0  0  0  0  0  0  0  0  0  0
    7.8717   -0.0016   24.7596 H   0  0  0  0  0  0  0  0  0  0  0  0
    4.3780    2.0103   17.4276 H   0  0  0  0  0  0  0  0  0  0  0  0
    5.6758    0.7335   22.0897 H   0  0  0  0  0  0  0  0  0  0  0  0
    9.5443   -4.5616   23.7817 H   0  0  0  0  0  0  0  0  0  0  0  0
    7.1921   -1.8821   26.1908 H   0  0  0  0  0  0  0  0  0  0  0  0
   12.4897    0.7356   23.1857 H   0  0  0  0  0  0  0  0  0  0  0  0
   14.0843    0.6352   25.2743 H   0  0  0  0  0  0  0  0  0  0  0  0
    9.7992    1.4392   26.5447 H   0  0  0  0  0  0  0  0  0  0  0  0
    8.4213   -0.8245   18.1548 H   0  0  0  0  0  0  0  0  0  0  0  0
    9.9614   -5.0503   26.2701 H   0  0  0  0  0  0  0  0  0  0  0  0
    8.6932   -6.2593   26.5731 H   0  0  0  0  0  0  0  0  0  0  0  0
    6.2625   -5.5339   26.3355 H   0  0  0  0  0  0  0  0  0  0  0  0
    5.9348   -3.8414   25.9036 H   0  0  0  0  0  0  0  0  0  0  0  0
    9.5615   -5.4255   28.7162 H   0  0  0  0  0  0  0  0  0  0  0  0
    9.2365   -3.7494   28.2620 H   0  0  0  0  0  0  0  0  0  0  0  0
    6.8895   -3.0633   28.0551 H   0  0  0  0  0  0  0  0  0  0  0  0
    5.6514   -4.2861   28.3610 H   0  0  0  0  0  0  0  0  0  0  0  0
    8.7512    1.4324   24.2245 H   0  0  0  0  0  0  0  0  0  0  0  0
    9.7926    2.1276   23.0121 H   0  0  0  0  0  0  0  0  0  0  0  0
   10.7449   -0.2552   22.5248 H   0  0  0  0  0  0  0  0  0  0  0  0
    8.0815   -1.6117   21.0754 H   0  0  0  0  0  0  0  0  0  0  0  0
  1  2  1  0  0  0  0
  1  5  2  0  0  0  0
  2  6  2  0  0  0  0
  3  7  2  0  0  0  0
  3 13  1  0  0  0  0
  4  8  1  0  0  0  0
  4 13  2  0  0  0  0
  5 15  1  0  0  0  0
  6 16  1  0  0  0  0
  7 17  1  0  0  0  0
  8 17  2  0  0  0  0
  9 10  2  0  0  0  0
  9 14  1  0  0  0  0
 10 31  1  0  0  0  0
 11 14  2  0  0  0  0
 11 31  1  0  0  0  0
 12 25  2  0  0  0  0
 12 26  1  0  0  0  0
 13 24  1  0  0  0  0
 14 23  1  0  0  0  0
 15 16  2  0  0  0  0
 15 25  1  0  0  0  0
 16 26  1  0  0  0  0
 17 27  1  0  0  0  0
 18 24  1  1  0  0  0
 18 28  1  0  0  0  0
 18 29  2  0  0  0  0
 19 21  1  0  0  0  0
 19 27  1  0  0  0  0
 20 22  1  0  0  0  0
 20 27  1  0  0  0  0
 21 30  1  0  0  0  0
 22 30  1  0  0  0  0
 23 24  1  0  0  0  0
 26 28  1  0  0  0  0
  1 32  1  0  0  0  0
  2 33  1  0  0  0  0
  3 34  1  0  0  0  0
  4 35  1  0  0  0  0
  5 36  1  0  0  0  0
  6 37  1  0  0  0  0
  7 38  1  0  0  0  0
  8 39  1  0  0  0  0
  9 40  1  0  0  0  0
 10 41  1  0  0  0  0
 11 42  1  0  0  0  0
 12 43  1  0  0  0  0
 19 44  1  0  0  0  0
 19 45  1  0  0  0  0
 20 46  1  0  0  0  0
 20 47  1  0  0  0  0
 21 48  1  0  0  0  0
 21 49  1  0  0  0  0
 22 50  1  0  0  0  0
 22 51  1  0  0  0  0
 23 52  1  0  0  0  0
 23 53  1  0  0  0  0
 24 54  1  0  0  0  0
 28 55  1  0  0  0  0
M  END
> <clash_score>
1.3873464742468136

> <docking_score>
-5.748576641082764

> <overlap_score>
0.8554503321647644

$$$$
BENZO_219_1
  -OEChem-08232013533D

 59 63  0     1  0  0  0  0  0999 V2000
    3.8860    2.1050   19.5250 C   0  0  0  0  0  0  0  0  0  0  0  0
    4.2460    1.7520   20.8250 C   0  0  0  0  0  0  0  0  0  0  0  0
    9.5890   -2.4950   23.2210 C   0  0  0  0  0  0  0  0  0  0  0  0
    8.2550   -1.0010   24.5520 C   0  0  0  0  0  0  0  0  0  0  0  0
    4.6610    1.7170   18.4380 C   0  0  0  0  0  0  0  0  0  0  0  0
    5.3890    1.0010   21.0690 C   0  0  0  0  0  0  0  0  0  0  0  0
    9.1890   -3.5540   24.0140 C   0  0  0  0  0  0  0  0  0  0  0  0
    7.8700   -2.0610   25.3550 C   0  0  0  0  0  0  0  0  0  0  0  0
   13.3911   -0.4374   24.0010 C   0  0  0  0  0  0  0  0  0  0  0  0
   11.4971   -0.4255   25.1180 C   0  0  0  0  0  0  0  0  0  0  0  0
    7.5840   -0.2700   18.5160 C   0  0  0  0  0  0  0  0  0  0  0  0
    9.1280   -1.2090   23.4870 C   0  0  0  0  0  0  0  0  0  0  0  0
   11.9955   -0.3455   23.8406 C   0  0  0  0  0  0  0  0  0  0  0  0
    5.7970    0.9500   18.6730 C   0  0  0  0  0  0  0  0  0  0  0  0
    6.1460    0.6070   19.9750 C   0  0  0  0  0  0  0  0  0  0  0  0
    8.3450   -3.3440   25.0980 C   0  0  0  0  0  0  0  0  0  0  0  0
    8.2612   -4.4533   27.3232 C   0  0  0  0  0  0  0  0  0  0  0  0
    9.0430    0.2380   21.4940 C   0  0  0  0  0  0  0  0  0  0  0  0
    7.7639   -5.6979   28.0369 C   0  0  0  0  0  0  0  0  0  0  0  0
    6.3258   -5.9996   27.6538 C   0  0  0  0  0  0  0  0  0  0  0  0
    6.1385   -6.0983   26.1431 C   0  0  0  0  0  0  0  0  0  0  0  0
    7.3646   -5.6395   25.3553 C   0  0  0  0  0  0  0  0  0  0  0  0
   12.5625   -0.6754   27.3722 C   0  0  0  0  0  0  0  0  0  0  0  0
   11.2185   -0.1906   22.5545 C   0  0  0  0  0  0  0  0  0  0  0  0
    9.5820   -0.1080   22.7000 C   0  0  1  0  0  0  0  0  0  0  0  0
   13.7559   -0.5659   25.2794 N   0  0  0  0  0  0  0  0  0  0  0  0
    6.7100    0.3850   17.8100 N   0  0  0  0  0  0  0  0  0  0  0  0
   12.5822   -0.5551   25.9341 N   0  0  0  0  0  0  0  0  0  0  0  0
    7.2710   -0.1460   19.8310 N   0  0  0  0  0  0  0  0  0  0  0  0
    7.9658   -4.4385   25.9450 N   0  0  0  0  0  0  0  0  0  0  0  0
    8.0950   -0.7700   20.8440 N   0  0  0  0  0  0  0  0  0  0  0  0
    8.9160   -3.6176   27.9452 O   0  0  0  0  0  0  0  0  0  0  0  0
    9.2950    1.3000   20.9480 O   0  0  0  0  0  0  0  0  0  0  0  0
    2.9844    2.6927   19.3613 H   0  0  0  0  0  0  0  0  0  0  0  0
    3.6214    2.0680   21.6561 H   0  0  0  0  0  0  0  0  0  0  0  0
   10.2695   -2.6718   22.3873 H   0  0  0  0  0  0  0  0  0  0  0  0
    7.8712   -0.0014   24.7587 H   0  0  0  0  0  0  0  0  0  0  0  0
    4.3780    2.0103   17.4276 H   0  0  0  0  0  0  0  0  0  0  0  0
    5.6758    0.7336   22.0897 H   0  0  0  0  0  0  0  0  0  0  0  0
    9.5431   -4.5618   23.7801 H   0  0  0  0  0  0  0  0  0  0  0  0
    7.1923   -1.8823   26.1912 H   0  0  0  0  0  0  0  0  0  0  0  0
   14.1595   -0.4155   23.2412 H   0  0  0  0  0  0  0  0  0  0  0  0
   10.4879   -0.4006   25.5063 H   0  0  0  0  0  0  0  0  0  0  0  0
    8.4213   -0.8245   18.1548 H   0  0  0  0  0  0  0  0  0  0  0  0
    8.3914   -6.5295   27.7556 H   0  0  0  0  0  0  0  0  0  0  0  0
    7.8414   -5.5198   29.0990 H   0  0  0  0  0  0  0  0  0  0  0  0
    5.9977   -6.9465   28.1311 H   0  0  0  0  0  0  0  0  0  0  0  0
    5.6587   -5.2139   28.0619 H   0  0  0  0  0  0  0  0  0  0  0  0
    5.8986   -7.1470   25.8680 H   0  0  0  0  0  0  0  0  0  0  0  0
    5.2500   -5.5067   25.8324 H   0  0  0  0  0  0  0  0  0  0  0  0
    8.1195   -6.4201   25.3688 H   0  0  0  0  0  0  0  0  0  0  0  0
    7.0780   -5.4282   24.3307 H   0  0  0  0  0  0  0  0  0  0  0  0
   12.5000   -1.7381   27.6209 H   0  0  0  0  0  0  0  0  0  0  0  0
   13.4755   -0.2388   27.7866 H   0  0  0  0  0  0  0  0  0  0  0  0
   11.6966   -0.1374   27.7680 H   0  0  0  0  0  0  0  0  0  0  0  0
   11.6029    0.6962   22.0317 H   0  0  0  0  0  0  0  0  0  0  0  0
   11.4403   -1.0329   21.8857 H   0  0  0  0  0  0  0  0  0  0  0  0
    9.5315    0.8594   23.3834 H   0  0  0  0  0  0  0  0  0  0  0  0
    8.0815   -1.6117   21.0754 H   0  0  0  0  0  0  0  0  0  0  0  0
  1  2  1  0  0  0  0
  1  5  2  0  0  0  0
  2  6  2  0  0  0  0
  3  7  2  0  0  0  0
  3 12  1  0  0  0  0
  4  8  1  0  0  0  0
  4 12  2  0  0  0  0
  5 14  1  0  0  0  0
  6 15  1  0  0  0  0
  7 16  1  0  0  0  0
  8 16  2  0  0  0  0
  9 13  1  0  0  0  0
  9 26  2  0  0  0  0
 10 13  2  0  0  0  0
 10 28  1  0  0  0  0
 11 27  2  0  0  0  0
 11 29  1  0  0  0  0
 12 25  1  0  0  0  0
 13 24  1  0  0  0  0
 14 15  2  0  0  0  0
 14 27  1  0  0  0  0
 15 29  1  0  0  0  0
 16 30  1  0  0  0  0
 17 19  1  0  0  0  0
 17 30  1  0  0  0  0
 17 32  2  0  0  0  0
 18 25  1  0  0  0  0
 18 31  1  0  0  0  0
 18 33  2  0  0  0  0
 19 20  1  0  0  0  0
 20 21  1  0  0  0  0
 21 22  1  0  0  0  0
 22 30  1  0  0  0  0
 23 28  1  0  0  0  0
 24 25  1  1  0  0  0
 26 28  1  0  0  0  0
 29 31  1  0  0  0  0
  1 34  1  0  0  0  0
  2 35  1  0  0  0  0
  3 36  1  0  0  0  0
  4 37  1  0  0  0  0
  5 38  1  0  0  0  0
  6 39  1  0  0  0  0
  7 40  1  0  0  0  0
  8 41  1  0  0  0  0
  9 42  1  0  0  0  0
 10 43  1  0  0  0  0
 11 44  1  0  0  0  0
 19 45  1  0  0  0  0
 19 46  1  0  0  0  0
 20 47  1  0  0  0  0
 20 48  1  0  0  0  0
 21 49  1  0  0  0  0
 21 50  1  0  0  0  0
 22 51  1  0  0  0  0
 22 52  1  0  0  0  0
 23 53  1  0  0  0  0
 23 54  1  0  0  0  0
 23 55  1  0  0  0  0
 24 56  1  0  0  0  0
 24 57  1  0  0  0  0
 25 58  1  0  0  0  0
 31 59  1  0  0  0  0
M  END
> <clash_score>
0.6225230947833892

> <docking_score>
-7.521052837371826

> <overlap_score>
0.9438189268112183

$$$$
BENZO_218_2
  -OEChem-08232013533D

 59 63  0     1  0  0  0  0  0999 V2000
    3.8860    2.1050   19.5250 C   0  0  0  0  0  0  0  0  0  0  0  0
    4.2460    1.7520   20.8250 C   0  0  0  0  0  0  0  0  0  0  0  0
   13.9335   -1.1651   25.0278 C   0  0  0  0  0  0  0  0  0  0  0  0
   13.2149   -1.0228   23.8408 C   0  0  0  0  0  0  0  0  0  0  0  0
    9.5890   -2.4950   23.2210 C   0  0  0  0  0  0  0  0  0  0  0  0
    8.2550   -1.0010   24.5520 C   0  0  0  0  0  0  0  0  0  0  0  0
    4.6610    1.7170   18.4380 C   0  0  0  0  0  0  0  0  0  0  0  0
    5.3890    1.0010   21.0690 C   0  0  0  0  0  0  0  0  0  0  0  0
    9.1890   -3.5540   24.0140 C   0  0  0  0  0  0  0  0  0  0  0  0
    7.8700   -2.0610   25.3550 C   0  0  0  0  0  0  0  0  0  0  0  0
   13.4326   -0.6303   26.2147 C   0  0  0  0  0  0  0  0  0  0  0  0
   11.4946    0.1894   25.0276 C   0  0  0  0  0  0  0  0  0  0  0  0
    7.5840   -0.2700   18.5160 C   0  0  0  0  0  0  0  0  0  0  0  0
    9.1280   -1.2090   23.4870 C   0  0  0  0  0  0  0  0  0  0  0  0
   11.9955   -0.3455   23.8406 C   0  0  0  0  0  0  0  0  0  0  0  0
    5.7970    0.9500   18.6730 C   0  0  0  0  0  0  0  0  0  0  0  0
    6.1460    0.6070   19.9750 C   0  0  0  0  0  0  0  0  0  0  0  0
    8.3450   -3.3440   25.0980 C   0  0  0  0  0  0  0  0  0  0  0  0
   12.2132    0.0470   26.2146 C   0  0  0  0  0  0  0  0  0  0  0  0
    6.6194   -4.8191   26.1158 C   0  0  0  0  0  0  0  0  0  0  0  0
    9.0430    0.2380   21.4940 C   0  0  0  0  0  0  0  0  0  0  0  0
    6.4366   -5.9938   27.0605 C   0  0  0  0  0  0  0  0  0  0  0  0
    7.2458   -5.7947   28.3299 C   0  0  0  0  0  0  0  0  0  0  0  0
    8.7184   -5.5215   28.0404 C   0  0  0  0  0  0  0  0  0  0  0  0
    9.0024   -5.2744   26.5596 C   0  0  0  0  0  0  0  0  0  0  0  0
   11.2185   -0.1906   22.5545 C   0  0  0  0  0  0  0  0  0  0  0  0
    9.5820   -0.1080   22.7000 C   0  0  2  0  0  0  0  0  0  0  0  0
    6.7100    0.3850   17.8100 N   0  0  0  0  0  0  0  0  0  0  0  0
    7.2710   -0.1460   19.8310 N   0  0  0  0  0  0  0  0  0  0  0  0
    7.9658   -4.4384   25.9449 N   0  0  0  0  0  0  0  0  0  0  0  0
    8.0950   -0.7700   20.8440 N   0  0  0  0  0  0  0  0  0  0  0  0
    5.6415   -4.3469   25.5373 O   0  0  0  0  0  0  0  0  0  0  0  0
    9.2950    1.3000   20.9480 O   0  0  0  0  0  0  0  0  0  0  0  0
   11.5963    0.7076   27.6791 Cl  0  0  0  0  0  0  0  0  0  0  0  0
    2.9844    2.6927   19.3613 H   0  0  0  0  0  0  0  0  0  0  0  0
    3.6214    2.0680   21.6561 H   0  0  0  0  0  0  0  0  0  0  0  0
   14.8831   -1.6924   25.0274 H   0  0  0  0  0  0  0  0  0  0  0  0
   13.6129   -1.4426   22.9206 H   0  0  0  0  0  0  0  0  0  0  0  0
   10.2695   -2.6718   22.3873 H   0  0  0  0  0  0  0  0  0  0  0  0
    7.8712   -0.0014   24.7587 H   0  0  0  0  0  0  0  0  0  0  0  0
    4.3780    2.0103   17.4276 H   0  0  0  0  0  0  0  0  0  0  0  0
    5.6758    0.7336   22.0897 H   0  0  0  0  0  0  0  0  0  0  0  0
    9.5431   -4.5618   23.7801 H   0  0  0  0  0  0  0  0  0  0  0  0
    7.1923   -1.8823   26.1912 H   0  0  0  0  0  0  0  0  0  0  0  0
   14.0036   -0.7486   27.1323 H   0  0  0  0  0  0  0  0  0  0  0  0
   10.5431    0.7161   25.0223 H   0  0  0  0  0  0  0  0  0  0  0  0
    8.4213   -0.8245   18.1548 H   0  0  0  0  0  0  0  0  0  0  0  0
    5.3901   -6.0734   27.3117 H   0  0  0  0  0  0  0  0  0  0  0  0
    6.7606   -6.8843   26.5429 H   0  0  0  0  0  0  0  0  0  0  0  0
    6.8221   -4.9563   28.9212 H   0  0  0  0  0  0  0  0  0  0  0  0
    7.1526   -6.6910   28.9757 H   0  0  0  0  0  0  0  0  0  0  0  0
    9.0539   -4.6418   28.6288 H   0  0  0  0  0  0  0  0  0  0  0  0
    9.3393   -6.3684   28.4053 H   0  0  0  0  0  0  0  0  0  0  0  0
    9.9475   -4.7506   26.4523 H   0  0  0  0  0  0  0  0  0  0  0  0
    9.0509   -6.2236   26.0372 H   0  0  0  0  0  0  0  0  0  0  0  0
   11.6029    0.6962   22.0317 H   0  0  0  0  0  0  0  0  0  0  0  0
   11.4403   -1.0329   21.8857 H   0  0  0  0  0  0  0  0  0  0  0  0
    9.5315    0.8594   23.3834 H   0  0  0  0  0  0  0  0  0  0  0  0
    8.0815   -1.6117   21.0754 H   0  0  0  0  0  0  0  0  0  0  0  0
  1  2  1  0  0  0  0
  1  7  2  0  0  0  0
  2  8  2  0  0  0  0
  3  4  2  0  0  0  0
  3 11  1  0  0  0  0
  4 15  1  0  0  0  0
  5  9  2  0  0  0  0
  5 14  1  0  0  0  0
  6 10  1  0  0  0  0
  6 14  2  0  0  0  0
  7 16  1  0  0  0  0
  8 17  1  0  0  0  0
  9 18  1  0  0  0  0
 10 18  2  0  0  0  0
 11 19  2  0  0  0  0
 12 15  2  0  0  0  0
 12 19  1  0  0  0  0
 13 28  2  0  0  0  0
 13 29  1  0  0  0  0
 14 27  1  0  0  0  0
 15 26  1  0  0  0  0
 16 17  2  0  0  0  0
 16 28  1  0  0  0  0
 17 29  1  0  0  0  0
 18 30  1  0  0  0  0
 19 34  1  0  0  0  0
 20 22  1  0  0  0  0
 20 30  1  0  0  0  0
 20 32  2  0  0  0  0
 21 27  1  6  0  0  0
 21 31  1  0  0  0  0
 21 33  2  0  0  0  0
 22 23  1  0  0  0  0
 23 24  1  0  0  0  0
 24 25  1  0  0  0  0
 25 30  1  0  0  0  0
 26 27  1  0  0  0  0
 29 31  1  0  0  0  0
  1 35  1  0  0  0  0
  2 36  1  0  0  0  0
  3 37  1  0  0  0  0
  4 38  1  0  0  0  0
  5 39  1  0  0  0  0
  6 40  1  0  0  0  0
  7 41  1  0  0  0  0
  8 42  1  0  0  0  0
  9 43  1  0  0  0  0
 10 44  1  0  0  0  0
 11 45  1  0  0  0  0
 12 46  1  0  0  0  0
 13 47  1  0  0  0  0
 22 48  1  0  0  0  0
 22 49  1  0  0  0  0
 23 50  1  0  0  0  0
 23 51  1  0  0  0  0
 24 52  1  0  0  0  0
 24 53  1  0  0  0  0
 25 54  1  0  0  0  0
 25 55  1  0  0  0  0
 26 56  1  0  0  0  0
 26 57  1  0  0  0  0
 27 58  1  0  0  0  0
 31 59  1  0  0  0  0
M  END
> <clash_score>
0.6771712252894265

> <docking_score>
-6.298746109008789

> <overlap_score>
0.9323006272315979

$$$$
BENZO_221_2
  -OEChem-08232013533D

 58 62  0     1  0  0  0  0  0999 V2000
   13.4299   -0.6303   26.2164 C   0  0  0  0  0  0  0  0  0  0  0  0
   13.9318   -1.1656   25.0302 C   0  0  0  0  0  0  0  0  0  0  0  0
   12.2107    0.0475   26.2147 C   0  0  0  0  0  0  0  0  0  0  0  0
    3.8860    2.1050   19.5250 C   0  0  0  0  0  0  0  0  0  0  0  0
    4.2460    1.7520   20.8250 C   0  0  0  0  0  0  0  0  0  0  0  0
   13.2147   -1.0232   23.8423 C   0  0  0  0  0  0  0  0  0  0  0  0
   11.4935    0.1899   25.0268 C   0  0  0  0  0  0  0  0  0  0  0  0
    9.5890   -2.4950   23.2210 C   0  0  0  0  0  0  0  0  0  0  0  0
    8.2550   -1.0010   24.5520 C   0  0  0  0  0  0  0  0  0  0  0  0
    4.6610    1.7170   18.4380 C   0  0  0  0  0  0  0  0  0  0  0  0
    5.3890    1.0010   21.0690 C   0  0  0  0  0  0  0  0  0  0  0  0
    9.1890   -3.5540   24.0140 C   0  0  0  0  0  0  0  0  0  0  0  0
    7.8700   -2.0610   25.3550 C   0  0  0  0  0  0  0  0  0  0  0  0
    7.5840   -0.2700   18.5160 C   0  0  0  0  0  0  0  0  0  0  0  0
   11.9955   -0.3454   23.8406 C   0  0  0  0  0  0  0  0  0  0  0  0
    9.1280   -1.2090   23.4870 C   0  0  0  0  0  0  0  0  0  0  0  0
    5.7970    0.9500   18.6730 C   0  0  0  0  0  0  0  0  0  0  0  0
    6.1460    0.6070   19.9750 C   0  0  0  0  0  0  0  0  0  0  0  0
    8.3450   -3.3440   25.0980 C   0  0  0  0  0  0  0  0  0  0  0  0
    9.0430    0.2380   21.4940 C   0  0  0  0  0  0  0  0  0  0  0  0
    8.9526   -5.2008   26.6600 C   0  0  0  0  0  0  0  0  0  0  0  0
    6.6115   -4.5057   26.4392 C   0  0  0  0  0  0  0  0  0  0  0  0
    8.9053   -4.7827   28.1257 C   0  0  0  0  0  0  0  0  0  0  0  0
    6.6391   -4.1219   27.9194 C   0  0  0  0  0  0  0  0  0  0  0  0
   11.2185   -0.1906   22.5545 C   0  0  0  0  0  0  0  0  0  0  0  0
    9.5820   -0.1080   22.7000 C   0  0  2  0  0  0  0  0  0  0  0  0
    6.7100    0.3850   17.8100 N   0  0  0  0  0  0  0  0  0  0  0  0
    7.2710   -0.1460   19.8310 N   0  0  0  0  0  0  0  0  0  0  0  0
    7.9774   -4.4013   25.9152 N   0  0  0  0  0  0  0  0  0  0  0  0
    8.0950   -0.7700   20.8440 N   0  0  0  0  0  0  0  0  0  0  0  0
    9.2950    1.3000   20.9480 O   0  0  0  0  0  0  0  0  0  0  0  0
    7.5748   -4.9364   28.6347 O   0  0  0  0  0  0  0  0  0  0  0  0
   13.9877   -0.7424   27.1415 H   0  0  0  0  0  0  0  0  0  0  0  0
   14.8806   -1.6943   25.0316 H   0  0  0  0  0  0  0  0  0  0  0  0
   11.8190    0.4635   27.1382 H   0  0  0  0  0  0  0  0  0  0  0  0
    2.9844    2.6927   19.3613 H   0  0  0  0  0  0  0  0  0  0  0  0
    3.6214    2.0680   21.6561 H   0  0  0  0  0  0  0  0  0  0  0  0
   13.6137   -1.4434   22.9229 H   0  0  0  0  0  0  0  0  0  0  0  0
   10.5446    0.7196   25.0350 H   0  0  0  0  0  0  0  0  0  0  0  0
   10.2684   -2.6719   22.3867 H   0  0  0  0  0  0  0  0  0  0  0  0
    7.8717   -0.0016   24.7596 H   0  0  0  0  0  0  0  0  0  0  0  0
    4.3780    2.0103   17.4276 H   0  0  0  0  0  0  0  0  0  0  0  0
    5.6758    0.7335   22.0897 H   0  0  0  0  0  0  0  0  0  0  0  0
    9.5443   -4.5616   23.7817 H   0  0  0  0  0  0  0  0  0  0  0  0
    7.1921   -1.8821   26.1908 H   0  0  0  0  0  0  0  0  0  0  0  0
    8.4213   -0.8245   18.1548 H   0  0  0  0  0  0  0  0  0  0  0  0
    9.9614   -5.0503   26.2701 H   0  0  0  0  0  0  0  0  0  0  0  0
    8.6932   -6.2593   26.5731 H   0  0  0  0  0  0  0  0  0  0  0  0
    6.2625   -5.5339   26.3355 H   0  0  0  0  0  0  0  0  0  0  0  0
    5.9348   -3.8414   25.9036 H   0  0  0  0  0  0  0  0  0  0  0  0
    9.5615   -5.4255   28.7162 H   0  0  0  0  0  0  0  0  0  0  0  0
    9.2365   -3.7494   28.2620 H   0  0  0  0  0  0  0  0  0  0  0  0
    6.8895   -3.0633   28.0551 H   0  0  0  0  0  0  0  0  0  0  0  0
    5.6514   -4.2861   28.3610 H   0  0  0  0  0  0  0  0  0  0  0  0
   11.6029    0.6963   22.0317 H   0  0  0  0  0  0  0  0  0  0  0  0
   11.4403   -1.0329   21.8857 H   0  0  0  0  0  0  0  0  0  0  0  0
    9.5315    0.8594   23.3833 H   0  0  0  0  0  0  0  0  0  0  0  0
    8.0815   -1.6117   21.0754 H   0  0  0  0  0  0  0  0  0  0  0  0
  1  2  1  0  0  0  0
  1  3  2  0  0  0  0
  2  6  2  0  0  0  0
  3  7  1  0  0  0  0
  4  5  1  0  0  0  0
  4 10  2  0  0  0  0
  5 11  2  0  0  0  0
  6 15  1  0  0  0  0
  7 15  2  0  0  0  0
  8 12  2  0  0  0  0
  8 16  1  0  0  0  0
  9 13  1  0  0  0  0
  9 16  2  0  0  0  0
 10 17  1  0  0  0  0
 11 18  1  0  0  0  0
 12 19  1  0  0  0  0
 13 19  2  0  0  0  0
 14 27  2  0  0  0  0
 14 28  1  0  0  0  0
 15 25  1  0  0  0  0
 16 26  1  0  0  0  0
 17 18  2  0  0  0  0
 17 27  1  0  0  0  0
 18 28  1  0  0  0  0
 19 29  1  0  0  0  0
 20 26  1  6  0  0  0
 20 30  1  0  0  0  0
 20 31  2  0  0  0  0
 21 23  1  0  0  0  0
 21 29  1  0  0  0  0
 22 24  1  0  0  0  0
 22 29  1  0  0  0  0
 23 32  1  0  0  0  0
 24 32  1  0  0  0  0
 25 26  1  0  0  0  0
 28 30  1  0  0  0  0
  1 33  1  0  0  0  0
  2 34  1  0  0  0  0
  3 35  1  0  0  0  0
  4 36  1  0  0  0  0
  5 37  1  0  0  0  0
  6 38  1  0  0  0  0
  7 39  1  0  0  0  0
  8 40  1  0  0  0  0
  9 41  1  0  0  0  0
 10 42  1  0  0  0  0
 11 43  1  0  0  0  0
 12 44  1  0  0  0  0
 13 45  1  0  0  0  0
 14 46  1  0  0  0  0
 21 47  1  0  0  0  0
 21 48  1  0  0  0  0
 22 49  1  0  0  0  0
 22 50  1  0  0  0  0
 23 51  1  0  0  0  0
 23 52  1  0  0  0  0
 24 53  1  0  0  0  0
 24 54  1  0  0  0  0
 25 55  1  0  0  0  0
 25 56  1  0  0  0  0
 26 57  1  0  0  0  0
 30 58  1  0  0  0  0
M  END
> <clash_score>
0

> <docking_score>
-7.159993648529053

> <overlap_score>
0.932131826877594

$$$$
BENZO_220_2
  -OEChem-08232013533D

 55 59  0     1  0  0  0  0  0999 V2000
    3.8860    2.1050   19.5250 C   0  0  0  0  0  0  0  0  0  0  0  0
    4.2460    1.7520   20.8250 C   0  0  0  0  0  0  0  0  0  0  0  0
    9.5890   -2.4950   23.2210 C   0  0  0  0  0  0  0  0  0  0  0  0
    8.2550   -1.0010   24.5520 C   0  0  0  0  0  0  0  0  0  0  0  0
    4.6610    1.7170   18.4380 C   0  0  0  0  0  0  0  0  0  0  0  0
    5.3890    1.0010   21.0690 C   0  0  0  0  0  0  0  0  0  0  0  0
    9.1890   -3.5540   24.0140 C   0  0  0  0  0  0  0  0  0  0  0  0
    7.8700   -2.0610   25.3550 C   0  0  0  0  0  0  0  0  0  0  0  0
   13.1978   -1.1013   23.9565 C   0  0  0  0  0  0  0  0  0  0  0  0
   13.7015   -1.0790   25.2384 C   0  0  0  0  0  0  0  0  0  0  0  0
   11.6260    0.2256   25.0387 C   0  0  0  0  0  0  0  0  0  0  0  0
    7.5840   -0.2700   18.5160 C   0  0  0  0  0  0  0  0  0  0  0  0
    9.1280   -1.2090   23.4870 C   0  0  0  0  0  0  0  0  0  0  0  0
   11.9955   -0.3454   23.8406 C   0  0  0  0  0  0  0  0  0  0  0  0
    5.7970    0.9500   18.6730 C   0  0  0  0  0  0  0  0  0  0  0  0
    6.1460    0.6070   19.9750 C   0  0  0  0  0  0  0  0  0  0  0  0
    8.3450   -3.3440   25.0980 C   0  0  0  0  0  0  0  0  0  0  0  0
    9.0430    0.2380   21.4940 C   0  0  0  0  0  0  0  0  0  0  0  0
    8.9526   -5.2008   26.6600 C   0  0  0  0  0  0  0  0  0  0  0  0
    6.6115   -4.5057   26.4392 C   0  0  0  0  0  0  0  0  0  0  0  0
    8.9053   -4.7827   28.1257 C   0  0  0  0  0  0  0  0  0  0  0  0
    6.6391   -4.1219   27.9194 C   0  0  0  0  0  0  0  0  0  0  0  0
   11.2185   -0.1906   22.5545 C   0  0  0  0  0  0  0  0  0  0  0  0
    9.5820   -0.1080   22.7000 C   0  0  2  0  0  0  0  0  0  0  0  0
    6.7100    0.3850   17.8100 N   0  0  0  0  0  0  0  0  0  0  0  0
    7.2710   -0.1460   19.8310 N   0  0  0  0  0  0  0  0  0  0  0  0
    7.9774   -4.4013   25.9152 N   0  0  0  0  0  0  0  0  0  0  0  0
    8.0950   -0.7700   20.8440 N   0  0  0  0  0  0  0  0  0  0  0  0
    9.2950    1.3000   20.9480 O   0  0  0  0  0  0  0  0  0  0  0  0
    7.5748   -4.9364   28.6347 O   0  0  0  0  0  0  0  0  0  0  0  0
   12.7264   -0.1498   26.2958 S   0  0  0  0  0  0  0  0  0  0  0  0
    2.9844    2.6927   19.3613 H   0  0  0  0  0  0  0  0  0  0  0  0
    3.6214    2.0680   21.6561 H   0  0  0  0  0  0  0  0  0  0  0  0
   10.2684   -2.6719   22.3867 H   0  0  0  0  0  0  0  0  0  0  0  0
    7.8717   -0.0016   24.7596 H   0  0  0  0  0  0  0  0  0  0  0  0
    4.3780    2.0103   17.4276 H   0  0  0  0  0  0  0  0  0  0  0  0
    5.6758    0.7335   22.0897 H   0  0  0  0  0  0  0  0  0  0  0  0
    9.5443   -4.5616   23.7817 H   0  0  0  0  0  0  0  0  0  0  0  0
    7.1921   -1.8821   26.1908 H   0  0  0  0  0  0  0  0  0  0  0  0
   13.6723   -1.6361   23.1435 H   0  0  0  0  0  0  0  0  0  0  0  0
   14.5949   -1.5645   25.6049 H   0  0  0  0  0  0  0  0  0  0  0  0
   10.7629    0.8448   25.2404 H   0  0  0  0  0  0  0  0  0  0  0  0
    8.4213   -0.8245   18.1548 H   0  0  0  0  0  0  0  0  0  0  0  0
    9.9614   -5.0503   26.2701 H   0  0  0  0  0  0  0  0  0  0  0  0
    8.6932   -6.2593   26.5731 H   0  0  0  0  0  0  0  0  0  0  0  0
    6.2625   -5.5339   26.3355 H   0  0  0  0  0  0  0  0  0  0  0  0
    5.9348   -3.8414   25.9036 H   0  0  0  0  0  0  0  0  0  0  0  0
    9.5615   -5.4255   28.7162 H   0  0  0  0  0  0  0  0  0  0  0  0
    9.2365   -3.7494   28.2620 H   0  0  0  0  0  0  0  0  0  0  0  0
    6.8895   -3.0633   28.0551 H   0  0  0  0  0  0  0  0  0  0  0  0
    5.6514   -4.2861   28.3610 H   0  0  0  0  0  0  0  0  0  0  0  0
   11.6029    0.6963   22.0317 H   0  0  0  0  0  0  0  0  0  0  0  0
   11.4403   -1.0329   21.8857 H   0  0  0  0  0  0  0  0  0  0  0  0
    9.5315    0.8594   23.3833 H   0  0  0  0  0  0  0  0  0  0  0  0
    8.0815   -1.6117   21.0754 H   0  0  0  0  0  0  0  0  0  0  0  0
  1  2  1  0  0  0  0
  1  5  2  0  0  0  0
  2  6  2  0  0  0  0
  3  7  2  0  0  0  0
  3 13  1  0  0  0  0
  4  8  1  0  0  0  0
  4 13  2  0  0  0  0
  5 15  1  0  0  0  0
  6 16  1  0  0  0  0
  7 17  1  0  0  0  0
  8 17  2  0  0  0  0
  9 10  2  0  0  0  0
  9 14  1  0  0  0  0
 10 31  1  0  0  0  0
 11 14  2  0  0  0  0
 11 31  1  0  0  0  0
 12 25  2  0  0  0  0
 12 26  1  0  0  0  0
 13 24  1  0  0  0  0
 14 23  1  0  0  0  0
 15 16  2  0  0  0  0
 15 25  1  0  0  0  0
 16 26  1  0  0  0  0
 17 27  1  0  0  0  0
 18 24  1  6  0  0  0
 18 28  1  0  0  0  0
 18 29  2  0  0  0  0
 19 21  1  0  0  0  0
 19 27  1  0  0  0  0
 20 22  1  0  0  0  0
 20 27  1  0  0  0  0
 21 30  1  0  0  0  0
 22 30  1  0  0  0  0
 23 24  1  0  0  0  0
 26 28  1  0  0  0  0
  1 32  1  0  0  0  0
  2 33  1  0  0  0  0
  3 34  1  0  0  0  0
  4 35  1  0  0  0  0
  5 36  1  0  0  0  0
  6 37  1  0  0  0  0
  7 38  1  0  0  0  0
  8 39  1  0  0  0  0
  9 40  1  0  0  0  0
 10 41  1  0  0  0  0
 11 42  1  0  0  0  0
 12 43  1  0  0  0  0
 19 44  1  0  0  0  0
 19 45  1  0  0  0  0
 20 46  1  0  0  0  0
 20 47  1  0  0  0  0
 21 48  1  0  0  0  0
 21 49  1  0  0  0  0
 22 50  1  0  0  0  0
 22 51  1  0  0  0  0
 23 52  1  0  0  0  0
 23 53  1  0  0  0  0
 24 54  1  0  0  0  0
 28 55  1  0  0  0  0
M  END
> <clash_score>
0

> <docking_score>
-7.505344867706299

> <overlap_score>
0.9274774193763733

$$$$
BENZO_222_1
  -OEChem-08232013533D

 58 62  0     1  0  0  0  0  0999 V2000
    3.8860    2.1050   19.5250 C   0  0  0  0  0  0  0  0  0  0  0  0
    4.2460    1.7520   20.8250 C   0  0  0  0  0  0  0  0  0  0  0  0
   10.9030    1.3542   27.2299 C   0  0  0  0  0  0  0  0  0  0  0  0
   10.1700    1.6248   26.0745 C   0  0  0  0  0  0  0  0  0  0  0  0
    9.5890   -2.4950   23.2210 C   0  0  0  0  0  0  0  0  0  0  0  0
    8.2550   -1.0010   24.5520 C   0  0  0  0  0  0  0  0  0  0  0  0
    4.6610    1.7170   18.4380 C   0  0  0  0  0  0  0  0  0  0  0  0
    5.3890    1.0010   21.0690 C   0  0  0  0  0  0  0  0  0  0  0  0
    9.1890   -3.5540   24.0140 C   0  0  0  0  0  0  0  0  0  0  0  0
    7.8700   -2.0610   25.3550 C   0  0  0  0  0  0  0  0  0  0  0  0
   11.9228    0.4029   27.2021 C   0  0  0  0  0  0  0  0  0  0  0  0
   11.4763   -0.0073   24.8634 C   0  0  0  0  0  0  0  0  0  0  0  0
    7.5840   -0.2700   18.5160 C   0  0  0  0  0  0  0  0  0  0  0  0
    9.1280   -1.2090   23.4870 C   0  0  0  0  0  0  0  0  0  0  0  0
   10.4565    0.9440   24.8913 C   0  0  0  0  0  0  0  0  0  0  0  0
    5.7970    0.9500   18.6730 C   0  0  0  0  0  0  0  0  0  0  0  0
    6.1460    0.6070   19.9750 C   0  0  0  0  0  0  0  0  0  0  0  0
    8.3450   -3.3440   25.0980 C   0  0  0  0  0  0  0  0  0  0  0  0
   12.2094   -0.2779   26.0188 C   0  0  0  0  0  0  0  0  0  0  0  0
    9.0430    0.2380   21.4940 C   0  0  0  0  0  0  0  0  0  0  0  0
    8.9526   -5.2008   26.6600 C   0  0  0  0  0  0  0  0  0  0  0  0
    6.6115   -4.5057   26.4392 C   0  0  0  0  0  0  0  0  0  0  0  0
    8.9053   -4.7827   28.1257 C   0  0  0  0  0  0  0  0  0  0  0  0
    6.6391   -4.1219   27.9194 C   0  0  0  0  0  0  0  0  0  0  0  0
    9.6614    1.2368   23.6407 C   0  0  0  0  0  0  0  0  0  0  0  0
    9.5820   -0.1080   22.7000 C   0  0  1  0  0  0  0  0  0  0  0  0
    6.7100    0.3850   17.8100 N   0  0  0  0  0  0  0  0  0  0  0  0
    7.2710   -0.1460   19.8310 N   0  0  0  0  0  0  0  0  0  0  0  0
    7.9774   -4.4013   25.9152 N   0  0  0  0  0  0  0  0  0  0  0  0
    8.0950   -0.7700   20.8440 N   0  0  0  0  0  0  0  0  0  0  0  0
    9.2950    1.3000   20.9480 O   0  0  0  0  0  0  0  0  0  0  0  0
    7.5748   -4.9364   28.6347 O   0  0  0  0  0  0  0  0  0  0  0  0
   13.4669   -1.4524   25.9854 Cl  0  0  0  0  0  0  0  0  0  0  0  0
    2.9844    2.6927   19.3613 H   0  0  0  0  0  0  0  0  0  0  0  0
    3.6214    2.0680   21.6561 H   0  0  0  0  0  0  0  0  0  0  0  0
   10.6795    1.8844   28.1511 H   0  0  0  0  0  0  0  0  0  0  0  0
    9.3771    2.3676   26.1054 H   0  0  0  0  0  0  0  0  0  0  0  0
   10.2684   -2.6719   22.3867 H   0  0  0  0  0  0  0  0  0  0  0  0
    7.8717   -0.0016   24.7596 H   0  0  0  0  0  0  0  0  0  0  0  0
    4.3780    2.0103   17.4276 H   0  0  0  0  0  0  0  0  0  0  0  0
    5.6758    0.7335   22.0897 H   0  0  0  0  0  0  0  0  0  0  0  0
    9.5443   -4.5616   23.7817 H   0  0  0  0  0  0  0  0  0  0  0  0
    7.1921   -1.8821   26.1908 H   0  0  0  0  0  0  0  0  0  0  0  0
   12.4858    0.2020   28.1103 H   0  0  0  0  0  0  0  0  0  0  0  0
   11.6962   -0.5350   23.9382 H   0  0  0  0  0  0  0  0  0  0  0  0
    8.4213   -0.8245   18.1548 H   0  0  0  0  0  0  0  0  0  0  0  0
    9.9614   -5.0503   26.2701 H   0  0  0  0  0  0  0  0  0  0  0  0
    8.6932   -6.2593   26.5731 H   0  0  0  0  0  0  0  0  0  0  0  0
    6.2625   -5.5339   26.3355 H   0  0  0  0  0  0  0  0  0  0  0  0
    5.9348   -3.8414   25.9036 H   0  0  0  0  0  0  0  0  0  0  0  0
    9.5615   -5.4255   28.7162 H   0  0  0  0  0  0  0  0  0  0  0  0
    9.2365   -3.7494   28.2620 H   0  0  0  0  0  0  0  0  0  0  0  0
    6.8895   -3.0633   28.0551 H   0  0  0  0  0  0  0  0  0  0  0  0
    5.6514   -4.2861   28.3610 H   0  0  0  0  0  0  0  0  0  0  0  0
    8.6823    1.6307   23.9469 H   0  0  0  0  0  0  0  0  0  0  0  0
   10.1361    2.0563   23.0849 H   0  0  0  0  0  0  0  0  0  0  0  0
   10.7449   -0.2552   22.5248 H   0  0  0  0  0  0  0  0  0  0  0  0
    8.0815   -1.6117   21.0754 H   0  0  0  0  0  0  0  0  0  0  0  0
  1  2  1  0  0  0  0
  1  7  2  0  0  0  0
  2  8  2  0  0  0  0
  3  4  2  0  0  0  0
  3 11  1  0  0  0  0
  4 15  1  0  0  0  0
  5  9  2  0  0  0  0
  5 14  1  0  0  0  0
  6 10  1  0  0  0  0
  6 14  2  0  0  0  0
  7 16  1  0  0  0  0
  8 17  1  0  0  0  0
  9 18  1  0  0  0  0
 10 18  2  0  0  0  0
 11 19  2  0  0  0  0
 12 15  2  0  0  0  0
 12 19  1  0  0  0  0
 13 27  2  0  0  0  0
 13 28  1  0  0  0  0
 14 26  1  0  0  0  0
 15 25  1  0  0  0  0
 16 17  2  0  0  0  0
 16 27  1  0  0  0  0
 17 28  1  0  0  0  0
 18 29  1  0  0  0  0
 19 33  1  0  0  0  0
 20 26  1  1  0  0  0
 20 30  1  0  0  0  0
 20 31  2  0  0  0  0
 21 23  1  0  0  0  0
 21 29  1  0  0  0  0
 22 24  1  0  0  0  0
 22 29  1  0  0  0  0
 23 32  1  0  0  0  0
 24 32  1  0  0  0  0
 25 26  1  0  0  0  0
 28 30  1  0  0  0  0
  1 34  1  0  0  0  0
  2 35  1  0  0  0  0
  3 36  1  0  0  0  0
  4 37  1  0  0  0  0
  5 38  1  0  0  0  0
  6 39  1  0  0  0  0
  7 40  1  0  0  0  0
  8 41  1  0  0  0  0
  9 42  1  0  0  0  0
 10 43  1  0  0  0  0
 11 44  1  0  0  0  0
 12 45  1  0  0  0  0
 13 46  1  0  0  0  0
 21 47  1  0  0  0  0
 21 48  1  0  0  0  0
 22 49  1  0  0  0  0
 22 50  1  0  0  0  0
 23 51  1  0  0  0  0
 23 52  1  0  0  0  0
 24 53  1  0  0  0  0
 24 54  1  0  0  0  0
 25 55  1  0  0  0  0
 25 56  1  0  0  0  0
 26 57  1  0  0  0  0
 30 58  1  0  0  0  0
M  END
> <clash_score>
2.3274979316341153

> <docking_score>
-4.400818824768066

> <overlap_score>
0.8464049696922302

$$$$
BENZO_225_1
  -OEChem-08232013533D

 53 56  0     1  0  0  0  0  0999 V2000
   13.2081   -0.8233   26.3776 C   0  0  0  0  0  0  0  0  0  0  0  0
    4.2460    1.7520   20.8250 C   0  0  0  0  0  0  0  0  0  0  0  0
   13.7678   -1.3337   25.2064 C   0  0  0  0  0  0  0  0  0  0  0  0
   12.0060   -0.1174   26.3261 C   0  0  0  0  0  0  0  0  0  0  0  0
    3.8860    2.1050   19.5250 C   0  0  0  0  0  0  0  0  0  0  0  0
    5.3890    1.0010   21.0690 C   0  0  0  0  0  0  0  0  0  0  0  0
   13.1256   -1.1382   23.9837 C   0  0  0  0  0  0  0  0  0  0  0  0
   11.3638    0.0781   25.1034 C   0  0  0  0  0  0  0  0  0  0  0  0
    9.5890   -2.4950   23.2210 C   0  0  0  0  0  0  0  0  0  0  0  0
    8.2550   -1.0010   24.5520 C   0  0  0  0  0  0  0  0  0  0  0  0
    4.6610    1.7170   18.4380 C   0  0  0  0  0  0  0  0  0  0  0  0
    9.1890   -3.5540   24.0140 C   0  0  0  0  0  0  0  0  0  0  0  0
    7.8700   -2.0610   25.3550 C   0  0  0  0  0  0  0  0  0  0  0  0
    6.1460    0.6070   19.9750 C   0  0  0  0  0  0  0  0  0  0  0  0
   11.9236   -0.4323   23.9322 C   0  0  0  0  0  0  0  0  0  0  0  0
    9.1280   -1.2090   23.4870 C   0  0  0  0  0  0  0  0  0  0  0  0
    5.7970    0.9500   18.6730 C   0  0  0  0  0  0  0  0  0  0  0  0
    8.3450   -3.3440   25.0980 C   0  0  0  0  0  0  0  0  0  0  0  0
    7.2710   -0.1460   19.8310 C   0  0  0  0  0  0  0  0  0  0  0  0
    9.0430    0.2380   21.4940 C   0  0  0  0  0  0  0  0  0  0  0  0
    7.2615   -5.5561   25.3801 C   0  0  0  0  0  0  0  0  0  0  0  0
    8.3043   -4.4048   27.3385 C   0  0  0  0  0  0  0  0  0  0  0  0
   11.2273   -0.2199   22.6076 C   0  0  0  0  0  0  0  0  0  0  0  0
    9.5820   -0.1080   22.7000 C   0  0  1  0  0  0  0  0  0  0  0  0
    7.5840   -0.2700   18.5160 N   0  0  0  0  0  0  0  0  0  0  0  0
    6.7100    0.3850   17.8100 N   0  0  0  0  0  0  0  0  0  0  0  0
    8.0950   -0.7700   20.8440 N   0  0  0  0  0  0  0  0  0  0  0  0
    7.9717   -4.4175   25.9277 N   0  0  0  0  0  0  0  0  0  0  0  0
    9.2950    1.3000   20.9480 O   0  0  0  0  0  0  0  0  0  0  0  0
   13.7076   -0.9767   27.3297 H   0  0  0  0  0  0  0  0  0  0  0  0
    3.6223    2.0725   21.6574 H   0  0  0  0  0  0  0  0  0  0  0  0
   14.7032   -1.8843   25.2464 H   0  0  0  0  0  0  0  0  0  0  0  0
   11.5694    0.2792   27.2379 H   0  0  0  0  0  0  0  0  0  0  0  0
    2.9864    2.6933   19.3609 H   0  0  0  0  0  0  0  0  0  0  0  0
    5.6689    0.7392   22.0836 H   0  0  0  0  0  0  0  0  0  0  0  0
   13.5692   -1.5394   23.0762 H   0  0  0  0  0  0  0  0  0  0  0  0
   10.4277    0.6294   25.0729 H   0  0  0  0  0  0  0  0  0  0  0  0
   10.2684   -2.6719   22.3867 H   0  0  0  0  0  0  0  0  0  0  0  0
    7.8717   -0.0016   24.7596 H   0  0  0  0  0  0  0  0  0  0  0  0
    4.3807    2.0116   17.4186 H   0  0  0  0  0  0  0  0  0  0  0  0
    9.5443   -4.5616   23.7817 H   0  0  0  0  0  0  0  0  0  0  0  0
    7.1921   -1.8821   26.1908 H   0  0  0  0  0  0  0  0  0  0  0  0
    7.0605   -6.2832   26.1807 H   0  0  0  0  0  0  0  0  0  0  0  0
    6.3097   -5.2191   24.9437 H   0  0  0  0  0  0  0  0  0  0  0  0
    7.8751   -6.0303   24.6000 H   0  0  0  0  0  0  0  0  0  0  0  0
    7.9293   -5.3239   27.8125 H   0  0  0  0  0  0  0  0  0  0  0  0
    9.3965   -4.3505   27.4572 H   0  0  0  0  0  0  0  0  0  0  0  0
    7.8395   -3.5300   27.8168 H   0  0  0  0  0  0  0  0  0  0  0  0
   11.5842    0.7150   22.1561 H   0  0  0  0  0  0  0  0  0  0  0  0
   11.5525   -1.0164   21.9239 H   0  0  0  0  0  0  0  0  0  0  0  0
    9.5374    0.8439   23.4178 H   0  0  0  0  0  0  0  0  0  0  0  0
    6.7486    0.4313   16.8331 H   0  0  0  0  0  0  0  0  0  0  0  0
    8.0757   -1.6162   21.0774 H   0  0  0  0  0  0  0  0  0  0  0  0
  1  3  1  0  0  0  0
  1  4  2  0  0  0  0
  2  5  1  0  0  0  0
  2  6  2  0  0  0  0
  3  7  2  0  0  0  0
  4  8  1  0  0  0  0
  5 11  2  0  0  0  0
  6 14  1  0  0  0  0
  7 15  1  0  0  0  0
  8 15  2  0  0  0  0
  9 12  2  0  0  0  0
  9 16  1  0  0  0  0
 10 13  1  0  0  0  0
 10 16  2  0  0  0  0
 11 17  1  0  0  0  0
 12 18  1  0  0  0  0
 13 18  2  0  0  0  0
 14 17  2  0  0  0  0
 14 19  1  0  0  0  0
 15 23  1  0  0  0  0
 16 24  1  0  0  0  0
 17 26  1  0  0  0  0
 18 28  1  0  0  0  0
 19 25  2  0  0  0  0
 19 27  1  0  0  0  0
 20 24  1  0  0  0  0
 20 27  1  0  0  0  0
 20 29  2  0  0  0  0
 21 28  1  0  0  0  0
 22 28  1  0  0  0  0
 23 24  1  1  0  0  0
 25 26  1  0  0  0  0
  1 30  1  0  0  0  0
  2 31  1  0  0  0  0
  3 32  1  0  0  0  0
  4 33  1  0  0  0  0
  5 34  1  0  0  0  0
  6 35  1  0  0  0  0
  7 36  1  0  0  0  0
  8 37  1  0  0  0  0
  9 38  1  0  0  0  0
 10 39  1  0  0  0  0
 11 40  1  0  0  0  0
 12 41  1  0  0  0  0
 13 42  1  0  0  0  0
 21 43  1  0  0  0  0
 21 44  1  0  0  0  0
 21 45  1  0  0  0  0
 22 46  1  0  0  0  0
 22 47  1  0  0  0  0
 22 48  1  0  0  0  0
 23 49  1  0  0  0  0
 23 50  1  0  0  0  0
 24 51  1  0  0  0  0
 26 52  1  0  0  0  0
 27 53  1  0  0  0  0
M  END
> <clash_score>
0

> <docking_score>
-5.067505836486816

> <overlap_score>
0.8757686018943787

$$$$
BENZO_225_2
  -OEChem-08232013533D

 53 56  0     1  0  0  0  0  0999 V2000
   12.7724    1.1059   26.6945 C   0  0  0  0  0  0  0  0  0  0  0  0
    4.2460    1.7520   20.8250 C   0  0  0  0  0  0  0  0  0  0  0  0
   11.5849    1.7953   26.9397 C   0  0  0  0  0  0  0  0  0  0  0  0
   12.9583    0.4475   25.4788 C   0  0  0  0  0  0  0  0  0  0  0  0
    3.8860    2.1050   19.5250 C   0  0  0  0  0  0  0  0  0  0  0  0
    5.3890    1.0010   21.0690 C   0  0  0  0  0  0  0  0  0  0  0  0
   10.5832    1.8262   25.9695 C   0  0  0  0  0  0  0  0  0  0  0  0
   11.9567    0.4785   24.5086 C   0  0  0  0  0  0  0  0  0  0  0  0
    9.5890   -2.4950   23.2210 C   0  0  0  0  0  0  0  0  0  0  0  0
    8.2550   -1.0010   24.5520 C   0  0  0  0  0  0  0  0  0  0  0  0
    4.6610    1.7170   18.4380 C   0  0  0  0  0  0  0  0  0  0  0  0
    9.1890   -3.5540   24.0140 C   0  0  0  0  0  0  0  0  0  0  0  0
    7.8700   -2.0610   25.3550 C   0  0  0  0  0  0  0  0  0  0  0  0
    6.1460    0.6070   19.9750 C   0  0  0  0  0  0  0  0  0  0  0  0
   10.7691    1.1678   24.7539 C   0  0  0  0  0  0  0  0  0  0  0  0
    9.1280   -1.2090   23.4870 C   0  0  0  0  0  0  0  0  0  0  0  0
    5.7970    0.9500   18.6730 C   0  0  0  0  0  0  0  0  0  0  0  0
    8.3450   -3.3440   25.0980 C   0  0  0  0  0  0  0  0  0  0  0  0
    7.2710   -0.1460   19.8310 C   0  0  0  0  0  0  0  0  0  0  0  0
    9.0430    0.2380   21.4940 C   0  0  0  0  0  0  0  0  0  0  0  0
    7.2615   -5.5561   25.3801 C   0  0  0  0  0  0  0  0  0  0  0  0
    8.3043   -4.4048   27.3385 C   0  0  0  0  0  0  0  0  0  0  0  0
    9.6841    1.2008   23.7022 C   0  0  0  0  0  0  0  0  0  0  0  0
    9.5820   -0.1080   22.7000 C   0  0  2  0  0  0  0  0  0  0  0  0
    7.5840   -0.2700   18.5160 N   0  0  0  0  0  0  0  0  0  0  0  0
    6.7100    0.3850   17.8100 N   0  0  0  0  0  0  0  0  0  0  0  0
    8.0950   -0.7700   20.8440 N   0  0  0  0  0  0  0  0  0  0  0  0
    7.9717   -4.4175   25.9277 N   0  0  0  0  0  0  0  0  0  0  0  0
    9.2950    1.3000   20.9480 O   0  0  0  0  0  0  0  0  0  0  0  0
   13.5528    1.0830   27.4495 H   0  0  0  0  0  0  0  0  0  0  0  0
    3.6223    2.0725   21.6574 H   0  0  0  0  0  0  0  0  0  0  0  0
   11.4404    2.3089   27.8858 H   0  0  0  0  0  0  0  0  0  0  0  0
   13.8832   -0.0884   25.2871 H   0  0  0  0  0  0  0  0  0  0  0  0
    2.9864    2.6933   19.3609 H   0  0  0  0  0  0  0  0  0  0  0  0
    5.6689    0.7392   22.0836 H   0  0  0  0  0  0  0  0  0  0  0  0
    9.6612    2.3657   26.1694 H   0  0  0  0  0  0  0  0  0  0  0  0
   12.1103   -0.0375   23.5645 H   0  0  0  0  0  0  0  0  0  0  0  0
   10.2684   -2.6719   22.3867 H   0  0  0  0  0  0  0  0  0  0  0  0
    7.8717   -0.0016   24.7596 H   0  0  0  0  0  0  0  0  0  0  0  0
    4.3807    2.0116   17.4186 H   0  0  0  0  0  0  0  0  0  0  0  0
    9.5443   -4.5616   23.7817 H   0  0  0  0  0  0  0  0  0  0  0  0
    7.1921   -1.8821   26.1908 H   0  0  0  0  0  0  0  0  0  0  0  0
    7.0605   -6.2832   26.1807 H   0  0  0  0  0  0  0  0  0  0  0  0
    6.3097   -5.2191   24.9437 H   0  0  0  0  0  0  0  0  0  0  0  0
    7.8751   -6.0303   24.6000 H   0  0  0  0  0  0  0  0  0  0  0  0
    7.9293   -5.3239   27.8125 H   0  0  0  0  0  0  0  0  0  0  0  0
    9.3965   -4.3505   27.4572 H   0  0  0  0  0  0  0  0  0  0  0  0
    7.8395   -3.5300   27.8168 H   0  0  0  0  0  0  0  0  0  0  0  0
    8.7167    1.3910   24.1851 H   0  0  0  0  0  0  0  0  0  0  0  0
    9.8647    2.0727   23.0582 H   0  0  0  0  0  0  0  0  0  0  0  0
   10.7539   -0.2760   22.5528 H   0  0  0  0  0  0  0  0  0  0  0  0
    6.7486    0.4313   16.8331 H   0  0  0  0  0  0  0  0  0  0  0  0
    8.0757   -1.6162   21.0774 H   0  0  0  0  0  0  0  0  0  0  0  0
  1  3  1  0  0  0  0
  1  4  2  0  0  0  0
  2  5  1  0  0  0  0
  2  6  2  0  0  0  0
  3  7  2  0  0  0  0
  4  8  1  0  0  0  0
  5 11  2  0  0  0  0
  6 14  1  0  0  0  0
  7 15  1  0  0  0  0
  8 15  2  0  0  0  0
  9 12  2  0  0  0  0
  9 16  1  0  0  0  0
 10 13  1  0  0  0  0
 10 16  2  0  0  0  0
 11 17  1  0  0  0  0
 12 18  1  0  0  0  0
 13 18  2  0  0  0  0
 14 17  2  0  0  0  0
 14 19  1  0  0  0  0
 15 23  1  0  0  0  0
 16 24  1  0  0  0  0
 17 26  1  0  0  0  0
 18 28  1  0  0  0  0
 19 25  2  0  0  0  0
 19 27  1  0  0  0  0
 20 24  1  0  0  0  0
 20 27  1  0  0  0  0
 20 29  2  0  0  0  0
 21 28  1  0  0  0  0
 22 28  1  0  0  0  0
 23 24  1  6  0  0  0
 25 26  1  0  0  0  0
  1 30  1  0  0  0  0
  2 31  1  0  0  0  0
  3 32  1  0  0  0  0
  4 33  1  0  0  0  0
  5 34  1  0  0  0  0
  6 35  1  0  0  0  0
  7 36  1  0  0  0  0
  8 37  1  0  0  0  0
  9 38  1  0  0  0  0
 10 39  1  0  0  0  0
 11 40  1  0  0  0  0
 12 41  1  0  0  0  0
 13 42  1  0  0  0  0
 21 43  1  0  0  0  0
 21 44  1  0  0  0  0
 21 45  1  0  0  0  0
 22 46  1  0  0  0  0
 22 47  1  0  0  0  0
 22 48  1  0  0  0  0
 23 49  1  0  0  0  0
 23 50  1  0  0  0  0
 24 51  1  0  0  0  0
 26 52  1  0  0  0  0
 27 53  1  0  0  0  0
M  END
> <clash_score>
4.383192475207283

> <docking_score>
-3.2210841178894043

> <overlap_score>
0.8049803376197815

$$$$
BENZO_224_1
  -OEChem-08232013533D

 50 53  0     1  0  0  0  0  0999 V2000
    4.2460    1.7520   20.8250 C   0  0  0  0  0  0  0  0  0  0  0  0
    3.8860    2.1050   19.5250 C   0  0  0  0  0  0  0  0  0  0  0  0
    5.3890    1.0010   21.0690 C   0  0  0  0  0  0  0  0  0  0  0  0
    9.5890   -2.4950   23.2210 C   0  0  0  0  0  0  0  0  0  0  0  0
    8.2550   -1.0010   24.5520 C   0  0  0  0  0  0  0  0  0  0  0  0
    4.6610    1.7170   18.4380 C   0  0  0  0  0  0  0  0  0  0  0  0
    9.1890   -3.5540   24.0140 C   0  0  0  0  0  0  0  0  0  0  0  0
    7.8700   -2.0610   25.3550 C   0  0  0  0  0  0  0  0  0  0  0  0
   13.2019   -0.5524   24.2528 C   0  0  0  0  0  0  0  0  0  0  0  0
   13.6437   -0.1439   25.4920 C   0  0  0  0  0  0  0  0  0  0  0  0
   11.4901    0.8830   24.8943 C   0  0  0  0  0  0  0  0  0  0  0  0
    6.1460    0.6070   19.9750 C   0  0  0  0  0  0  0  0  0  0  0  0
    9.1280   -1.2090   23.4870 C   0  0  0  0  0  0  0  0  0  0  0  0
   11.9544    0.0425   23.9064 C   0  0  0  0  0  0  0  0  0  0  0  0
    5.7970    0.9500   18.6730 C   0  0  0  0  0  0  0  0  0  0  0  0
    8.3450   -3.3440   25.0980 C   0  0  0  0  0  0  0  0  0  0  0  0
    7.2710   -0.1460   19.8310 C   0  0  0  0  0  0  0  0  0  0  0  0
    9.0430    0.2380   21.4940 C   0  0  0  0  0  0  0  0  0  0  0  0
    8.7681   -4.7586   27.0898 C   0  0  0  0  0  0  0  0  0  0  0  0
    6.7786   -5.1882   25.6386 C   0  0  0  0  0  0  0  0  0  0  0  0
   11.2273   -0.2199   22.6076 C   0  0  0  0  0  0  0  0  0  0  0  0
    9.5820   -0.1080   22.7000 C   0  0  1  0  0  0  0  0  0  0  0  0
    7.5840   -0.2700   18.5160 N   0  0  0  0  0  0  0  0  0  0  0  0
    6.7100    0.3850   17.8100 N   0  0  0  0  0  0  0  0  0  0  0  0
    8.0950   -0.7700   20.8440 N   0  0  0  0  0  0  0  0  0  0  0  0
    7.9717   -4.4175   25.9277 N   0  0  0  0  0  0  0  0  0  0  0  0
    9.2950    1.3000   20.9480 O   0  0  0  0  0  0  0  0  0  0  0  0
   12.5564    0.9525   26.2323 S   0  0  0  0  0  0  0  0  0  0  0  0
    3.6223    2.0725   21.6574 H   0  0  0  0  0  0  0  0  0  0  0  0
    2.9864    2.6933   19.3609 H   0  0  0  0  0  0  0  0  0  0  0  0
    5.6689    0.7392   22.0836 H   0  0  0  0  0  0  0  0  0  0  0  0
   10.2684   -2.6719   22.3867 H   0  0  0  0  0  0  0  0  0  0  0  0
    7.8717   -0.0016   24.7596 H   0  0  0  0  0  0  0  0  0  0  0  0
    4.3807    2.0116   17.4186 H   0  0  0  0  0  0  0  0  0  0  0  0
    9.5443   -4.5616   23.7817 H   0  0  0  0  0  0  0  0  0  0  0  0
    7.1921   -1.8821   26.1908 H   0  0  0  0  0  0  0  0  0  0  0  0
   13.7507   -1.2457   23.6279 H   0  0  0  0  0  0  0  0  0  0  0  0
   14.5524   -0.4373   25.9983 H   0  0  0  0  0  0  0  0  0  0  0  0
   10.5759    1.4603   24.8987 H   0  0  0  0  0  0  0  0  0  0  0  0
    8.3165   -5.6195   27.6046 H   0  0  0  0  0  0  0  0  0  0  0  0
    9.7891   -5.0159   26.7717 H   0  0  0  0  0  0  0  0  0  0  0  0
    8.8032   -3.8989   27.7751 H   0  0  0  0  0  0  0  0  0  0  0  0
    6.6589   -5.9775   26.3954 H   0  0  0  0  0  0  0  0  0  0  0  0
    5.9007   -4.5257   25.6579 H   0  0  0  0  0  0  0  0  0  0  0  0
    6.8705   -5.6463   24.6428 H   0  0  0  0  0  0  0  0  0  0  0  0
   11.5534    0.5103   21.8555 H   0  0  0  0  0  0  0  0  0  0  0  0
   11.5573   -1.1968   22.2276 H   0  0  0  0  0  0  0  0  0  0  0  0
    9.5374    0.8439   23.4178 H   0  0  0  0  0  0  0  0  0  0  0  0
    6.7486    0.4313   16.8331 H   0  0  0  0  0  0  0  0  0  0  0  0
    8.0757   -1.6162   21.0774 H   0  0  0  0  0  0  0  0  0  0  0  0
  1  2  1  0  0  0  0
  1  3  2  0  0  0  0
  2  6  2  0  0  0  0
  3 12  1  0  0  0  0
  4  7  2  0  0  0  0
  4 13  1  0  0  0  0
  5  8  1  0  0  0  0
  5 13  2  0  0  0  0
  6 15  1  0  0  0  0
  7 16  1  0  0  0  0
  8 16  2  0  0  0  0
  9 10  2  0  0  0  0
  9 14  1  0  0  0  0
 10 28  1  0  0  0  0
 11 14  2  0  0  0  0
 11 28  1  0  0  0  0
 12 15  2  0  0  0  0
 12 17  1  0  0  0  0
 13 22  1  0  0  0  0
 14 21  1  0  0  0  0
 15 24  1  0  0  0  0
 16 26  1  0  0  0  0
 17 23  2  0  0  0  0
 17 25  1  0  0  0  0
 18 22  1  0  0  0  0
 18 25  1  0  0  0  0
 18 27  2  0  0  0  0
 19 26  1  0  0  0  0
 20 26  1  0  0  0  0
 21 22  1  1  0  0  0
 23 24  1  0  0  0  0
  1 29  1  0  0  0  0
  2 30  1  0  0  0  0
  3 31  1  0  0  0  0
  4 32  1  0  0  0  0
  5 33  1  0  0  0  0
  6 34  1  0  0  0  0
  7 35  1  0  0  0  0
  8 36  1  0  0  0  0
  9 37  1  0  0  0  0
 10 38  1  0  0  0  0
 11 39  1  0  0  0  0
 19 40  1  0  0  0  0
 19 41  1  0  0  0  0
 19 42  1  0  0  0  0
 20 43  1  0  0  0  0
 20 44  1  0  0  0  0
 20 45  1  0  0  0  0
 21 46  1  0  0  0  0
 21 47  1  0  0  0  0
 22 48  1  0  0  0  0
 24 49  1  0  0  0  0
 25 50  1  0  0  0  0
M  END
> <clash_score>
0.7028805445820026

> <docking_score>
-5.719901084899902

> <overlap_score>
0.8665047883987427

$$$$
BENZO_223_1
  -OEChem-08232013533D

 58 62  0     1  0  0  0  0  0999 V2000
    3.8860    2.1050   19.5250 C   0  0  0  0  0  0  0  0  0  0  0  0
    4.2460    1.7520   20.8250 C   0  0  0  0  0  0  0  0  0  0  0  0
    9.5890   -2.4950   23.2210 C   0  0  0  0  0  0  0  0  0  0  0  0
    8.2550   -1.0010   24.5520 C   0  0  0  0  0  0  0  0  0  0  0  0
    4.6610    1.7170   18.4380 C   0  0  0  0  0  0  0  0  0  0  0  0
    5.3890    1.0010   21.0690 C   0  0  0  0  0  0  0  0  0  0  0  0
    9.1890   -3.5540   24.0140 C   0  0  0  0  0  0  0  0  0  0  0  0
    7.8700   -2.0610   25.3550 C   0  0  0  0  0  0  0  0  0  0  0  0
   13.3911   -0.4374   24.0010 C   0  0  0  0  0  0  0  0  0  0  0  0
   11.4972   -0.4255   25.1180 C   0  0  0  0  0  0  0  0  0  0  0  0
    7.5840   -0.2700   18.5160 C   0  0  0  0  0  0  0  0  0  0  0  0
    9.1280   -1.2090   23.4870 C   0  0  0  0  0  0  0  0  0  0  0  0
   11.9955   -0.3454   23.8406 C   0  0  0  0  0  0  0  0  0  0  0  0
    5.7970    0.9500   18.6730 C   0  0  0  0  0  0  0  0  0  0  0  0
    6.1460    0.6070   19.9750 C   0  0  0  0  0  0  0  0  0  0  0  0
    8.3450   -3.3440   25.0980 C   0  0  0  0  0  0  0  0  0  0  0  0
    9.0430    0.2380   21.4940 C   0  0  0  0  0  0  0  0  0  0  0  0
    8.8181   -4.7107   27.0857 C   0  0  0  0  0  0  0  0  0  0  0  0
    7.2576   -5.5563   25.3547 C   0  0  0  0  0  0  0  0  0  0  0  0
    8.0193   -5.5151   28.1049 C   0  0  0  0  0  0  0  0  0  0  0  0
    6.5423   -6.3161   26.4664 C   0  0  0  0  0  0  0  0  0  0  0  0
   12.5626   -0.6753   27.3722 C   0  0  0  0  0  0  0  0  0  0  0  0
   11.2185   -0.1906   22.5545 C   0  0  0  0  0  0  0  0  0  0  0  0
    9.5820   -0.1080   22.7000 C   0  0  1  0  0  0  0  0  0  0  0  0
   13.7559   -0.5658   25.2794 N   0  0  0  0  0  0  0  0  0  0  0  0
    6.7100    0.3850   17.8100 N   0  0  0  0  0  0  0  0  0  0  0  0
   12.5823   -0.5550   25.9340 N   0  0  0  0  0  0  0  0  0  0  0  0
    7.2710   -0.1460   19.8310 N   0  0  0  0  0  0  0  0  0  0  0  0
    7.9748   -4.4087   25.9209 N   0  0  0  0  0  0  0  0  0  0  0  0
    8.0950   -0.7700   20.8440 N   0  0  0  0  0  0  0  0  0  0  0  0
    9.2950    1.3000   20.9480 O   0  0  0  0  0  0  0  0  0  0  0  0
    7.4618   -6.6794   27.4955 O   0  0  0  0  0  0  0  0  0  0  0  0
    2.9844    2.6927   19.3613 H   0  0  0  0  0  0  0  0  0  0  0  0
    3.6214    2.0680   21.6561 H   0  0  0  0  0  0  0  0  0  0  0  0
   10.2684   -2.6719   22.3867 H   0  0  0  0  0  0  0  0  0  0  0  0
    7.8717   -0.0016   24.7596 H   0  0  0  0  0  0  0  0  0  0  0  0
    4.3780    2.0103   17.4276 H   0  0  0  0  0  0  0  0  0  0  0  0
    5.6758    0.7335   22.0897 H   0  0  0  0  0  0  0  0  0  0  0  0
    9.5443   -4.5616   23.7817 H   0  0  0  0  0  0  0  0  0  0  0  0
    7.1922   -1.8821   26.1908 H   0  0  0  0  0  0  0  0  0  0  0  0
   14.1595   -0.4155   23.2412 H   0  0  0  0  0  0  0  0  0  0  0  0
   10.4879   -0.4005   25.5063 H   0  0  0  0  0  0  0  0  0  0  0  0
    8.4213   -0.8245   18.1548 H   0  0  0  0  0  0  0  0  0  0  0  0
    9.1812   -3.7873   27.5519 H   0  0  0  0  0  0  0  0  0  0  0  0
    9.6869   -5.2951   26.7566 H   0  0  0  0  0  0  0  0  0  0  0  0
    7.9776   -6.2212   24.8604 H   0  0  0  0  0  0  0  0  0  0  0  0
    6.5260   -5.2277   24.6071 H   0  0  0  0  0  0  0  0  0  0  0  0
    8.6785   -5.8462   28.9137 H   0  0  0  0  0  0  0  0  0  0  0  0
    7.2212   -4.9136   28.5564 H   0  0  0  0  0  0  0  0  0  0  0  0
    5.7209   -5.7272   26.8924 H   0  0  0  0  0  0  0  0  0  0  0  0
    6.1110   -7.2387   26.0647 H   0  0  0  0  0  0  0  0  0  0  0  0
   12.5001   -1.7380   27.6209 H   0  0  0  0  0  0  0  0  0  0  0  0
   13.4755   -0.2387   27.7866 H   0  0  0  0  0  0  0  0  0  0  0  0
   11.6966   -0.1373   27.7680 H   0  0  0  0  0  0  0  0  0  0  0  0
   11.6029    0.6963   22.0317 H   0  0  0  0  0  0  0  0  0  0  0  0
   11.4403   -1.0329   21.8857 H   0  0  0  0  0  0  0  0  0  0  0  0
    9.5315    0.8594   23.3833 H   0  0  0  0  0  0  0  0  0  0  0  0
    8.0815   -1.6117   21.0754 H   0  0  0  0  0  0  0  0  0  0  0  0
  1  2  1  0  0  0  0
  1  5  2  0  0  0  0
  2  6  2  0  0  0  0
  3  7  2  0  0  0  0
  3 12  1  0  0  0  0
  4  8  1  0  0  0  0
  4 12  2  0  0  0  0
  5 14  1  0  0  0  0
  6 15  1  0  0  0  0
  7 16  1  0  0  0  0
  8 16  2  0  0  0  0
  9 13  1  0  0  0  0
  9 25  2  0  0  0  0
 10 13  2  0  0  0  0
 10 27  1  0  0  0  0
 11 26  2  0  0  0  0
 11 28  1  0  0  0  0
 12 24  1  0  0  0  0
 13 23  1  0  0  0  0
 14 15  2  0  0  0  0
 14 26  1  0  0  0  0
 15 28  1  0  0  0  0
 16 29  1  0  0  0  0
 17 24  1  0  0  0  0
 17 30  1  0  0  0  0
 17 31  2  0  0  0  0
 18 20  1  0  0  0  0
 18 29  1  0  0  0  0
 19 21  1  0  0  0  0
 19 29  1  0  0  0  0
 20 32  1  0  0  0  0
 21 32  1  0  0  0  0
 22 27  1  0  0  0  0
 23 24  1  1  0  0  0
 25 27  1  0  0  0  0
 28 30  1  0  0  0  0
  1 33  1  0  0  0  0
  2 34  1  0  0  0  0
  3 35  1  0  0  0  0
  4 36  1  0  0  0  0
  5 37  1  0  0  0  0
  6 38  1  0  0  0  0
  7 39  1  0  0  0  0
  8 40  1  0  0  0  0
  9 41  1  0  0  0  0
 10 42  1  0  0  0  0
 11 43  1  0  0  0  0
 18 44  1  0  0  0  0
 18 45  1  0  0  0  0
 19 46  1  0  0  0  0
 19 47  1  0  0  0  0
 20 48  1  0  0  0  0
 20 49  1  0  0  0  0
 21 50  1  0  0  0  0
 21 51  1  0  0  0  0
 22 52  1  0  0  0  0
 22 53  1  0  0  0  0
 22 54  1  0  0  0  0
 23 55  1  0  0  0  0
 23 56  1  0  0  0  0
 24 57  1  0  0  0  0
 30 58  1  0  0  0  0
M  END
> <clash_score>
0.6225019506143823

> <docking_score>
-7.529836177825928

> <overlap_score>
0.925007164478302

$$$$
BENZO_223_2
  -OEChem-08232013533D

 58 62  0     1  0  0  0  0  0999 V2000
    3.8860    2.1050   19.5250 C   0  0  0  0  0  0  0  0  0  0  0  0
    4.2460    1.7520   20.8250 C   0  0  0  0  0  0  0  0  0  0  0  0
    9.5890   -2.4950   23.2210 C   0  0  0  0  0  0  0  0  0  0  0  0
    8.2550   -1.0010   24.5520 C   0  0  0  0  0  0  0  0  0  0  0  0
    4.6610    1.7170   18.4380 C   0  0  0  0  0  0  0  0  0  0  0  0
    5.3890    1.0010   21.0690 C   0  0  0  0  0  0  0  0  0  0  0  0
    9.1890   -3.5540   24.0140 C   0  0  0  0  0  0  0  0  0  0  0  0
    7.8700   -2.0610   25.3550 C   0  0  0  0  0  0  0  0  0  0  0  0
   11.3630   -0.0489   25.1655 C   0  0  0  0  0  0  0  0  0  0  0  0
   11.5747    2.1395   25.1336 C   0  0  0  0  0  0  0  0  0  0  0  0
    7.5840   -0.2700   18.5160 C   0  0  0  0  0  0  0  0  0  0  0  0
    9.1280   -1.2090   23.4870 C   0  0  0  0  0  0  0  0  0  0  0  0
   10.8175    1.1222   24.6062 C   0  0  0  0  0  0  0  0  0  0  0  0
    5.7970    0.9500   18.6730 C   0  0  0  0  0  0  0  0  0  0  0  0
    6.1460    0.6070   19.9750 C   0  0  0  0  0  0  0  0  0  0  0  0
    8.3450   -3.3440   25.0980 C   0  0  0  0  0  0  0  0  0  0  0  0
    9.0430    0.2380   21.4940 C   0  0  0  0  0  0  0  0  0  0  0  0
    8.9526   -5.2008   26.6600 C   0  0  0  0  0  0  0  0  0  0  0  0
    6.6115   -4.5057   26.4392 C   0  0  0  0  0  0  0  0  0  0  0  0
    8.9053   -4.7827   28.1257 C   0  0  0  0  0  0  0  0  0  0  0  0
    6.6391   -4.1219   27.9194 C   0  0  0  0  0  0  0  0  0  0  0  0
   13.5120    2.2024   26.7215 C   0  0  0  0  0  0  0  0  0  0  0  0
    9.6614    1.2368   23.6407 C   0  0  0  0  0  0  0  0  0  0  0  0
    9.5820   -0.1080   22.7000 C   0  0  2  0  0  0  0  0  0  0  0  0
   12.3877    0.2001   25.9852 N   0  0  0  0  0  0  0  0  0  0  0  0
    6.7100    0.3850   17.8100 N   0  0  0  0  0  0  0  0  0  0  0  0
   12.4922    1.5393   25.9449 N   0  0  0  0  0  0  0  0  0  0  0  0
    7.2710   -0.1460   19.8310 N   0  0  0  0  0  0  0  0  0  0  0  0
    7.9774   -4.4013   25.9152 N   0  0  0  0  0  0  0  0  0  0  0  0
    8.0950   -0.7700   20.8440 N   0  0  0  0  0  0  0  0  0  0  0  0
    9.2950    1.3000   20.9480 O   0  0  0  0  0  0  0  0  0  0  0  0
    7.5748   -4.9364   28.6347 O   0  0  0  0  0  0  0  0  0  0  0  0
    2.9844    2.6927   19.3613 H   0  0  0  0  0  0  0  0  0  0  0  0
    3.6214    2.0680   21.6561 H   0  0  0  0  0  0  0  0  0  0  0  0
   10.2684   -2.6719   22.3867 H   0  0  0  0  0  0  0  0  0  0  0  0
    7.8717   -0.0016   24.7596 H   0  0  0  0  0  0  0  0  0  0  0  0
    4.3780    2.0103   17.4276 H   0  0  0  0  0  0  0  0  0  0  0  0
    5.6758    0.7335   22.0897 H   0  0  0  0  0  0  0  0  0  0  0  0
    9.5443   -4.5616   23.7817 H   0  0  0  0  0  0  0  0  0  0  0  0
    7.1921   -1.8821   26.1908 H   0  0  0  0  0  0  0  0  0  0  0  0
   11.0589   -1.0745   25.0107 H   0  0  0  0  0  0  0  0  0  0  0  0
   11.5404    3.2126   25.0030 H   0  0  0  0  0  0  0  0  0  0  0  0
    8.4213   -0.8245   18.1548 H   0  0  0  0  0  0  0  0  0  0  0  0
    9.9614   -5.0503   26.2701 H   0  0  0  0  0  0  0  0  0  0  0  0
    8.6932   -6.2593   26.5731 H   0  0  0  0  0  0  0  0  0  0  0  0
    6.2625   -5.5339   26.3355 H   0  0  0  0  0  0  0  0  0  0  0  0
    5.9348   -3.8414   25.9036 H   0  0  0  0  0  0  0  0  0  0  0  0
    9.5615   -5.4255   28.7162 H   0  0  0  0  0  0  0  0  0  0  0  0
    9.2365   -3.7494   28.2620 H   0  0  0  0  0  0  0  0  0  0  0  0
    6.8895   -3.0633   28.0551 H   0  0  0  0  0  0  0  0  0  0  0  0
    5.6514   -4.2861   28.3610 H   0  0  0  0  0  0  0  0  0  0  0  0
   13.0914    2.4326   27.7040 H   0  0  0  0  0  0  0  0  0  0  0  0
   14.3792    1.5438   26.8217 H   0  0  0  0  0  0  0  0  0  0  0  0
   13.8163    3.1199   26.2102 H   0  0  0  0  0  0  0  0  0  0  0  0
    8.7512    1.4324   24.2245 H   0  0  0  0  0  0  0  0  0  0  0  0
    9.7926    2.1276   23.0121 H   0  0  0  0  0  0  0  0  0  0  0  0
   10.7449   -0.2552   22.5248 H   0  0  0  0  0  0  0  0  0  0  0  0
    8.0815   -1.6117   21.0754 H   0  0  0  0  0  0  0  0  0  0  0  0
  1  2  1  0  0  0  0
  1  5  2  0  0  0  0
  2  6  2  0  0  0  0
  3  7  2  0  0  0  0
  3 12  1  0  0  0  0
  4  8  1  0  0  0  0
  4 12  2  0  0  0  0
  5 14  1  0  0  0  0
  6 15  1  0  0  0  0
  7 16  1  0  0  0  0
  8 16  2  0  0  0  0
  9 13  1  0  0  0  0
  9 25  2  0  0  0  0
 10 13  2  0  0  0  0
 10 27  1  0  0  0  0
 11 26  2  0  0  0  0
 11 28  1  0  0  0  0
 12 24  1  0  0  0  0
 13 23  1  0  0  0  0
 14 15  2  0  0  0  0
 14 26  1  0  0  0  0
 15 28  1  0  0  0  0
 16 29  1  0  0  0  0
 17 24  1  0  0  0  0
 17 30  1  0  0  0  0
 17 31  2  0  0  0  0
 18 20  1  0  0  0  0
 18 29  1  0  0  0  0
 19 21  1  0  0  0  0
 19 29  1  0  0  0  0
 20 32  1  0  0  0  0
 21 32  1  0  0  0  0
 22 27  1  0  0  0  0
 23 24  1  6  0  0  0
 25 27  1  0  0  0  0
 28 30  1  0  0  0  0
  1 33  1  0  0  0  0
  2 34  1  0  0  0  0
  3 35  1  0  0  0  0
  4 36  1  0  0  0  0
  5 37  1  0  0  0  0
  6 38  1  0  0  0  0
  7 39  1  0  0  0  0
  8 40  1  0  0  0  0
  9 41  1  0  0  0  0
 10 42  1  0  0  0  0
 11 43  1  0  0  0  0
 18 44  1  0  0  0  0
 18 45  1  0  0  0  0
 19 46  1  0  0  0  0
 19 47  1  0  0  0  0
 20 48  1  0  0  0  0
 20 49  1  0  0  0  0
 21 50  1  0  0  0  0
 21 51  1  0  0  0  0
 22 52  1  0  0  0  0
 22 53  1  0  0  0  0
 22 54  1  0  0  0  0
 23 55  1  0  0  0  0
 23 56  1  0  0  0  0
 24 57  1  0  0  0  0
 30 58  1  0  0  0  0
M  END
> <clash_score>
3.2234442975440265

> <docking_score>
-4.6904520988464355

> <overlap_score>
0.8434170484542847

$$$$
BENZO_224_2
  -OEChem-08232013533D

 50 53  0     1  0  0  0  0  0999 V2000
    4.2460    1.7520   20.8250 C   0  0  0  0  0  0  0  0  0  0  0  0
    3.8860    2.1050   19.5250 C   0  0  0  0  0  0  0  0  0  0  0  0
    5.3890    1.0010   21.0690 C   0  0  0  0  0  0  0  0  0  0  0  0
    9.5890   -2.4950   23.2210 C   0  0  0  0  0  0  0  0  0  0  0  0
    8.2550   -1.0010   24.5520 C   0  0  0  0  0  0  0  0  0  0  0  0
    4.6610    1.7170   18.4380 C   0  0  0  0  0  0  0  0  0  0  0  0
    9.1890   -3.5540   24.0140 C   0  0  0  0  0  0  0  0  0  0  0  0
    7.8700   -2.0610   25.3550 C   0  0  0  0  0  0  0  0  0  0  0  0
   12.1466    0.9424   24.4676 C   0  0  0  0  0  0  0  0  0  0  0  0
   12.9217    0.9621   25.6062 C   0  0  0  0  0  0  0  0  0  0  0  0
   10.5439    1.3509   26.1006 C   0  0  0  0  0  0  0  0  0  0  0  0
    6.1460    0.6070   19.9750 C   0  0  0  0  0  0  0  0  0  0  0  0
    9.1280   -1.2090   23.4870 C   0  0  0  0  0  0  0  0  0  0  0  0
   10.7691    1.1678   24.7539 C   0  0  0  0  0  0  0  0  0  0  0  0
    5.7970    0.9500   18.6730 C   0  0  0  0  0  0  0  0  0  0  0  0
    8.3450   -3.3440   25.0980 C   0  0  0  0  0  0  0  0  0  0  0  0
    7.2710   -0.1460   19.8310 C   0  0  0  0  0  0  0  0  0  0  0  0
    9.0430    0.2380   21.4940 C   0  0  0  0  0  0  0  0  0  0  0  0
    8.7681   -4.7586   27.0898 C   0  0  0  0  0  0  0  0  0  0  0  0
    6.7786   -5.1882   25.6386 C   0  0  0  0  0  0  0  0  0  0  0  0
    9.6841    1.2008   23.7022 C   0  0  0  0  0  0  0  0  0  0  0  0
    9.5820   -0.1080   22.7000 C   0  0  2  0  0  0  0  0  0  0  0  0
    7.5840   -0.2700   18.5160 N   0  0  0  0  0  0  0  0  0  0  0  0
    6.7100    0.3850   17.8100 N   0  0  0  0  0  0  0  0  0  0  0  0
    8.0950   -0.7700   20.8440 N   0  0  0  0  0  0  0  0  0  0  0  0
    7.9717   -4.4175   25.9277 N   0  0  0  0  0  0  0  0  0  0  0  0
    9.2950    1.3000   20.9480 O   0  0  0  0  0  0  0  0  0  0  0  0
   11.9894    1.2512   27.0132 S   0  0  0  0  0  0  0  0  0  0  0  0
    3.6223    2.0725   21.6574 H   0  0  0  0  0  0  0  0  0  0  0  0
    2.9864    2.6933   19.3609 H   0  0  0  0  0  0  0  0  0  0  0  0
    5.6689    0.7392   22.0836 H   0  0  0  0  0  0  0  0  0  0  0  0
   10.2684   -2.6719   22.3867 H   0  0  0  0  0  0  0  0  0  0  0  0
    7.8717   -0.0016   24.7596 H   0  0  0  0  0  0  0  0  0  0  0  0
    4.3807    2.0116   17.4186 H   0  0  0  0  0  0  0  0  0  0  0  0
    9.5443   -4.5616   23.7817 H   0  0  0  0  0  0  0  0  0  0  0  0
    7.1921   -1.8821   26.1908 H   0  0  0  0  0  0  0  0  0  0  0  0
   12.5526    0.7736   23.4782 H   0  0  0  0  0  0  0  0  0  0  0  0
   13.9906    0.8198   25.6793 H   0  0  0  0  0  0  0  0  0  0  0  0
    9.6013    1.5375   26.5964 H   0  0  0  0  0  0  0  0  0  0  0  0
    8.3165   -5.6195   27.6046 H   0  0  0  0  0  0  0  0  0  0  0  0
    9.7891   -5.0159   26.7717 H   0  0  0  0  0  0  0  0  0  0  0  0
    8.8032   -3.8989   27.7751 H   0  0  0  0  0  0  0  0  0  0  0  0
    6.6589   -5.9775   26.3954 H   0  0  0  0  0  0  0  0  0  0  0  0
    5.9007   -4.5257   25.6579 H   0  0  0  0  0  0  0  0  0  0  0  0
    6.8705   -5.6463   24.6428 H   0  0  0  0  0  0  0  0  0  0  0  0
    8.7167    1.3910   24.1851 H   0  0  0  0  0  0  0  0  0  0  0  0
    9.8647    2.0727   23.0582 H   0  0  0  0  0  0  0  0  0  0  0  0
   10.7539   -0.2760   22.5528 H   0  0  0  0  0  0  0  0  0  0  0  0
    6.7486    0.4313   16.8331 H   0  0  0  0  0  0  0  0  0  0  0  0
    8.0757   -1.6162   21.0774 H   0  0  0  0  0  0  0  0  0  0  0  0
  1  2  1  0  0  0  0
  1  3  2  0  0  0  0
  2  6  2  0  0  0  0
  3 12  1  0  0  0  0
  4  7  2  0  0  0  0
  4 13  1  0  0  0  0
  5  8  1  0  0  0  0
  5 13  2  0  0  0  0
  6 15  1  0  0  0  0
  7 16  1  0  0  0  0
  8 16  2  0  0  0  0
  9 10  2  0  0  0  0
  9 14  1  0  0  0  0
 10 28  1  0  0  0  0
 11 14  2  0  0  0  0
 11 28  1  0  0  0  0
 12 15  2  0  0  0  0
 12 17  1  0  0  0  0
 13 22  1  0  0  0  0
 14 21  1  0  0  0  0
 15 24  1  0  0  0  0
 16 26  1  0  0  0  0
 17 23  2  0  0  0  0
 17 25  1  0  0  0  0
 18 22  1  0  0  0  0
 18 25  1  0  0  0  0
 18 27  2  0  0  0  0
 19 26  1  0  0  0  0
 20 26  1  0  0  0  0
 21 22  1  6  0  0  0
 23 24  1  0  0  0  0
  1 29  1  0  0  0  0
  2 30  1  0  0  0  0
  3 31  1  0  0  0  0
  4 32  1  0  0  0  0
  5 33  1  0  0  0  0
  6 34  1  0  0  0  0
  7 35  1  0  0  0  0
  8 36  1  0  0  0  0
  9 37  1  0  0  0  0
 10 38  1  0  0  0  0
 11 39  1  0  0  0  0
 19 40  1  0  0  0  0
 19 41  1  0  0  0  0
 19 42  1  0  0  0  0
 20 43  1  0  0  0  0
 20 44  1  0  0  0  0
 20 45  1  0  0  0  0
 21 46  1  0  0  0  0
 21 47  1  0  0  0  0
 22 48  1  0  0  0  0
 24 49  1  0  0  0  0
 25 50  1  0  0  0  0
M  END
> <clash_score>
1.4548713446852313

> <docking_score>
-3.6528916358947754

> <overlap_score>
0.7956742644309998

$$$$
BENZO_222_2
  -OEChem-08232013533D

 58 62  0     1  0  0  0  0  0999 V2000
    3.8860    2.1050   19.5250 C   0  0  0  0  0  0  0  0  0  0  0  0
    4.2460    1.7520   20.8250 C   0  0  0  0  0  0  0  0  0  0  0  0
   13.9335   -1.1650   25.0278 C   0  0  0  0  0  0  0  0  0  0  0  0
   13.2149   -1.0227   23.8408 C   0  0  0  0  0  0  0  0  0  0  0  0
    9.5890   -2.4950   23.2210 C   0  0  0  0  0  0  0  0  0  0  0  0
    8.2550   -1.0010   24.5520 C   0  0  0  0  0  0  0  0  0  0  0  0
    4.6610    1.7170   18.4380 C   0  0  0  0  0  0  0  0  0  0  0  0
    5.3890    1.0010   21.0690 C   0  0  0  0  0  0  0  0  0  0  0  0
    9.1890   -3.5540   24.0140 C   0  0  0  0  0  0  0  0  0  0  0  0
    7.8700   -2.0610   25.3550 C   0  0  0  0  0  0  0  0  0  0  0  0
   13.4326   -0.6302   26.2147 C   0  0  0  0  0  0  0  0  0  0  0  0
   11.4946    0.1894   25.0275 C   0  0  0  0  0  0  0  0  0  0  0  0
    7.5840   -0.2700   18.5160 C   0  0  0  0  0  0  0  0  0  0  0  0
    9.1280   -1.2090   23.4870 C   0  0  0  0  0  0  0  0  0  0  0  0
   11.9955   -0.3454   23.8406 C   0  0  0  0  0  0  0  0  0  0  0  0
    5.7970    0.9500   18.6730 C   0  0  0  0  0  0  0  0  0  0  0  0
    6.1460    0.6070   19.9750 C   0  0  0  0  0  0  0  0  0  0  0  0
    8.3450   -3.3440   25.0980 C   0  0  0  0  0  0  0  0  0  0  0  0
   12.2132    0.0471   26.2146 C   0  0  0  0  0  0  0  0  0  0  0  0
    9.0430    0.2380   21.4940 C   0  0  0  0  0  0  0  0  0  0  0  0
    8.9526   -5.2008   26.6600 C   0  0  0  0  0  0  0  0  0  0  0  0
    6.6115   -4.5057   26.4392 C   0  0  0  0  0  0  0  0  0  0  0  0
    8.9053   -4.7827   28.1257 C   0  0  0  0  0  0  0  0  0  0  0  0
    6.6391   -4.1219   27.9194 C   0  0  0  0  0  0  0  0  0  0  0  0
   11.2185   -0.1906   22.5545 C   0  0  0  0  0  0  0  0  0  0  0  0
    9.5820   -0.1080   22.7000 C   0  0  2  0  0  0  0  0  0  0  0  0
    6.7100    0.3850   17.8100 N   0  0  0  0  0  0  0  0  0  0  0  0
    7.2710   -0.1460   19.8310 N   0  0  0  0  0  0  0  0  0  0  0  0
    7.9774   -4.4013   25.9152 N   0  0  0  0  0  0  0  0  0  0  0  0
    8.0950   -0.7700   20.8440 N   0  0  0  0  0  0  0  0  0  0  0  0
    9.2950    1.3000   20.9480 O   0  0  0  0  0  0  0  0  0  0  0  0
    7.5748   -4.9364   28.6347 O   0  0  0  0  0  0  0  0  0  0  0  0
   11.5963    0.7077   27.6790 Cl  0  0  0  0  0  0  0  0  0  0  0  0
    2.9844    2.6927   19.3613 H   0  0  0  0  0  0  0  0  0  0  0  0
    3.6214    2.0680   21.6561 H   0  0  0  0  0  0  0  0  0  0  0  0
   14.8831   -1.6923   25.0274 H   0  0  0  0  0  0  0  0  0  0  0  0
   13.6129   -1.4425   22.9206 H   0  0  0  0  0  0  0  0  0  0  0  0
   10.2684   -2.6719   22.3867 H   0  0  0  0  0  0  0  0  0  0  0  0
    7.8717   -0.0016   24.7596 H   0  0  0  0  0  0  0  0  0  0  0  0
    4.3780    2.0103   17.4276 H   0  0  0  0  0  0  0  0  0  0  0  0
    5.6758    0.7335   22.0897 H   0  0  0  0  0  0  0  0  0  0  0  0
    9.5443   -4.5616   23.7817 H   0  0  0  0  0  0  0  0  0  0  0  0
    7.1921   -1.8821   26.1908 H   0  0  0  0  0  0  0  0  0  0  0  0
   14.0036   -0.7485   27.1323 H   0  0  0  0  0  0  0  0  0  0  0  0
   10.5431    0.7162   25.0223 H   0  0  0  0  0  0  0  0  0  0  0  0
    8.4213   -0.8245   18.1548 H   0  0  0  0  0  0  0  0  0  0  0  0
    9.9614   -5.0503   26.2701 H   0  0  0  0  0  0  0  0  0  0  0  0
    8.6932   -6.2593   26.5731 H   0  0  0  0  0  0  0  0  0  0  0  0
    6.2625   -5.5339   26.3355 H   0  0  0  0  0  0  0  0  0  0  0  0
    5.9348   -3.8414   25.9036 H   0  0  0  0  0  0  0  0  0  0  0  0
    9.5615   -5.4255   28.7162 H   0  0  0  0  0  0  0  0  0  0  0  0
    9.2365   -3.7494   28.2620 H   0  0  0  0  0  0  0  0  0  0  0  0
    6.8895   -3.0633   28.0551 H   0  0  0  0  0  0  0  0  0  0  0  0
    5.6514   -4.2861   28.3610 H   0  0  0  0  0  0  0  0  0  0  0  0
   11.6029    0.6962   22.0317 H   0  0  0  0  0  0  0  0  0  0  0  0
   11.4403   -1.0329   21.8857 H   0  0  0  0  0  0  0  0  0  0  0  0
    9.5315    0.8594   23.3833 H   0  0  0  0  0  0  0  0  0  0  0  0
    8.0815   -1.6117   21.0754 H   0  0  0  0  0  0  0  0  0  0  0  0
  1  2  1  0  0  0  0
  1  7  2  0  0  0  0
  2  8  2  0  0  0  0
  3  4  2  0  0  0  0
  3 11  1  0  0  0  0
  4 15  1  0  0  0  0
  5  9  2  0  0  0  0
  5 14  1  0  0  0  0
  6 10  1  0  0  0  0
  6 14  2  0  0  0  0
  7 16  1  0  0  0  0
  8 17  1  0  0  0  0
  9 18  1  0  0  0  0
 10 18  2  0  0  0  0
 11 19  2  0  0  0  0
 12 15  2  0  0  0  0
 12 19  1  0  0  0  0
 13 27  2  0  0  0  0
 13 28  1  0  0  0  0
 14 26  1  0  0  0  0
 15 25  1  0  0  0  0
 16 17  2  0  0  0  0
 16 27  1  0  0  0  0
 17 28  1  0  0  0  0
 18 29  1  0  0  0  0
 19 33  1  0  0  0  0
 20 26  1  6  0  0  0
 20 30  1  0  0  0  0
 20 31  2  0  0  0  0
 21 23  1  0  0  0  0
 21 29  1  0  0  0  0
 22 24  1  0  0  0  0
 22 29  1  0  0  0  0
 23 32  1  0  0  0  0
 24 32  1  0  0  0  0
 25 26  1  0  0  0  0
 28 30  1  0  0  0  0
  1 34  1  0  0  0  0
  2 35  1  0  0  0  0
  3 36  1  0  0  0  0
  4 37  1  0  0  0  0
  5 38  1  0  0  0  0
  6 39  1  0  0  0  0
  7 40  1  0  0  0  0
  8 41  1  0  0  0  0
  9 42  1  0  0  0  0
 10 43  1  0  0  0  0
 11 44  1  0  0  0  0
 12 45  1  0  0  0  0
 13 46  1  0  0  0  0
 21 47  1  0  0  0  0
 21 48  1  0  0  0  0
 22 49  1  0  0  0  0
 22 50  1  0  0  0  0
 23 51  1  0  0  0  0
 23 52  1  0  0  0  0
 24 53  1  0  0  0  0
 24 54  1  0  0  0  0
 25 55  1  0  0  0  0
 25 56  1  0  0  0  0
 26 57  1  0  0  0  0
 30 58  1  0  0  0  0
M  END
> <clash_score>
0.6771872581564249

> <docking_score>
-6.442884922027588

> <overlap_score>
0.9310305714607239

$$$$
BENZO_227_1
  -OEChem-08232013533D

 53 56  0     1  0  0  0  0  0999 V2000
    4.2460    1.7520   20.8250 C   0  0  0  0  0  0  0  0  0  0  0  0
    3.8860    2.1050   19.5250 C   0  0  0  0  0  0  0  0  0  0  0  0
    5.3890    1.0010   21.0690 C   0  0  0  0  0  0  0  0  0  0  0  0
    9.5890   -2.4950   23.2210 C   0  0  0  0  0  0  0  0  0  0  0  0
    8.2550   -1.0010   24.5520 C   0  0  0  0  0  0  0  0  0  0  0  0
    4.6610    1.7170   18.4380 C   0  0  0  0  0  0  0  0  0  0  0  0
    9.1890   -3.5540   24.0140 C   0  0  0  0  0  0  0  0  0  0  0  0
    7.8700   -2.0610   25.3550 C   0  0  0  0  0  0  0  0  0  0  0  0
   13.1332   -1.1110   24.1732 C   0  0  0  0  0  0  0  0  0  0  0  0
   11.5178   -0.0030   25.1721 C   0  0  0  0  0  0  0  0  0  0  0  0
    6.1460    0.6070   19.9750 C   0  0  0  0  0  0  0  0  0  0  0  0
    9.1280   -1.2090   23.4870 C   0  0  0  0  0  0  0  0  0  0  0  0
   11.9236   -0.4323   23.9322 C   0  0  0  0  0  0  0  0  0  0  0  0
    5.7970    0.9500   18.6730 C   0  0  0  0  0  0  0  0  0  0  0  0
    8.3450   -3.3440   25.0980 C   0  0  0  0  0  0  0  0  0  0  0  0
    7.2710   -0.1460   19.8310 C   0  0  0  0  0  0  0  0  0  0  0  0
    9.0430    0.2380   21.4940 C   0  0  0  0  0  0  0  0  0  0  0  0
   12.4834   -0.2219   27.4740 C   0  0  0  0  0  0  0  0  0  0  0  0
    7.2615   -5.5561   25.3801 C   0  0  0  0  0  0  0  0  0  0  0  0
    8.3043   -4.4048   27.3385 C   0  0  0  0  0  0  0  0  0  0  0  0
   11.2273   -0.2199   22.6076 C   0  0  0  0  0  0  0  0  0  0  0  0
    9.5820   -0.1080   22.7000 C   0  0  1  0  0  0  0  0  0  0  0  0
   13.4738   -1.1150   25.4647 N   0  0  0  0  0  0  0  0  0  0  0  0
    7.5840   -0.2700   18.5160 N   0  0  0  0  0  0  0  0  0  0  0  0
    6.7100    0.3850   17.8100 N   0  0  0  0  0  0  0  0  0  0  0  0
   12.4721   -0.4335   26.0464 N   0  0  0  0  0  0  0  0  0  0  0  0
    8.0950   -0.7700   20.8440 N   0  0  0  0  0  0  0  0  0  0  0  0
    7.9717   -4.4175   25.9277 N   0  0  0  0  0  0  0  0  0  0  0  0
    9.2950    1.3000   20.9480 O   0  0  0  0  0  0  0  0  0  0  0  0
    3.6223    2.0725   21.6574 H   0  0  0  0  0  0  0  0  0  0  0  0
    2.9864    2.6933   19.3609 H   0  0  0  0  0  0  0  0  0  0  0  0
    5.6689    0.7392   22.0836 H   0  0  0  0  0  0  0  0  0  0  0  0
   10.2684   -2.6719   22.3867 H   0  0  0  0  0  0  0  0  0  0  0  0
    7.8717   -0.0016   24.7596 H   0  0  0  0  0  0  0  0  0  0  0  0
    4.3807    2.0116   17.4186 H   0  0  0  0  0  0  0  0  0  0  0  0
    9.5443   -4.5616   23.7817 H   0  0  0  0  0  0  0  0  0  0  0  0
    7.1921   -1.8821   26.1908 H   0  0  0  0  0  0  0  0  0  0  0  0
   13.7829   -1.6028   23.4631 H   0  0  0  0  0  0  0  0  0  0  0  0
   10.6535    0.5594   25.4986 H   0  0  0  0  0  0  0  0  0  0  0  0
   11.9614   -1.0599   27.9433 H   0  0  0  0  0  0  0  0  0  0  0  0
   13.5174   -0.1700   27.8262 H   0  0  0  0  0  0  0  0  0  0  0  0
   11.9792    0.7209   27.7036 H   0  0  0  0  0  0  0  0  0  0  0  0
    7.0605   -6.2832   26.1807 H   0  0  0  0  0  0  0  0  0  0  0  0
    6.3097   -5.2191   24.9437 H   0  0  0  0  0  0  0  0  0  0  0  0
    7.8751   -6.0303   24.6000 H   0  0  0  0  0  0  0  0  0  0  0  0
    7.9293   -5.3239   27.8125 H   0  0  0  0  0  0  0  0  0  0  0  0
    9.3965   -4.3505   27.4572 H   0  0  0  0  0  0  0  0  0  0  0  0
    7.8395   -3.5300   27.8168 H   0  0  0  0  0  0  0  0  0  0  0  0
   11.5842    0.7149   22.1561 H   0  0  0  0  0  0  0  0  0  0  0  0
   11.5525   -1.0164   21.9239 H   0  0  0  0  0  0  0  0  0  0  0  0
    9.5374    0.8439   23.4178 H   0  0  0  0  0  0  0  0  0  0  0  0
    6.7486    0.4313   16.8331 H   0  0  0  0  0  0  0  0  0  0  0  0
    8.0757   -1.6162   21.0774 H   0  0  0  0  0  0  0  0  0  0  0  0
  1  2  1  0  0  0  0
  1  3  2  0  0  0  0
  2  6  2  0  0  0  0
  3 11  1  0  0  0  0
  4  7  2  0  0  0  0
  4 12  1  0  0  0  0
  5  8  1  0  0  0  0
  5 12  2  0  0  0  0
  6 14  1  0  0  0  0
  7 15  1  0  0  0  0
  8 15  2  0  0  0  0
  9 13  1  0  0  0  0
  9 23  2  0  0  0  0
 10 13  2  0  0  0  0
 10 26  1  0  0  0  0
 11 14  2  0  0  0  0
 11 16  1  0  0  0  0
 12 22  1  0  0  0  0
 13 21  1  0  0  0  0
 14 25  1  0  0  0  0
 15 28  1  0  0  0  0
 16 24  2  0  0  0  0
 16 27  1  0  0  0  0
 17 22  1  0  0  0  0
 17 27  1  0  0  0  0
 17 29  2  0  0  0  0
 18 26  1  0  0  0  0
 19 28  1  0  0  0  0
 20 28  1  0  0  0  0
 21 22  1  1  0  0  0
 23 26  1  0  0  0  0
 24 25  1  0  0  0  0
  1 30  1  0  0  0  0
  2 31  1  0  0  0  0
  3 32  1  0  0  0  0
  4 33  1  0  0  0  0
  5 34  1  0  0  0  0
  6 35  1  0  0  0  0
  7 36  1  0  0  0  0
  8 37  1  0  0  0  0
  9 38  1  0  0  0  0
 10 39  1  0  0  0  0
 18 40  1  0  0  0  0
 18 41  1  0  0  0  0
 18 42  1  0  0  0  0
 19 43  1  0  0  0  0
 19 44  1  0  0  0  0
 19 45  1  0  0  0  0
 20 46  1  0  0  0  0
 20 47  1  0  0  0  0
 20 48  1  0  0  0  0
 21 49  1  0  0  0  0
 21 50  1  0  0  0  0
 22 51  1  0  0  0  0
 25 52  1  0  0  0  0
 27 53  1  0  0  0  0
M  END
> <clash_score>
0

> <docking_score>
-4.63137149810791

> <overlap_score>
0.8710906505584717

$$$$
BENZO_227_2
  -OEChem-08232013533D

 53 56  0     1  0  0  0  0  0999 V2000
    4.2460    1.7520   20.8250 C   0  0  0  0  0  0  0  0  0  0  0  0
    3.8860    2.1050   19.5250 C   0  0  0  0  0  0  0  0  0  0  0  0
    5.3890    1.0010   21.0690 C   0  0  0  0  0  0  0  0  0  0  0  0
    9.5890   -2.4950   23.2210 C   0  0  0  0  0  0  0  0  0  0  0  0
    8.2550   -1.0010   24.5520 C   0  0  0  0  0  0  0  0  0  0  0  0
    4.6610    1.7170   18.4380 C   0  0  0  0  0  0  0  0  0  0  0  0
    9.1890   -3.5540   24.0140 C   0  0  0  0  0  0  0  0  0  0  0  0
    7.8700   -2.0610   25.3550 C   0  0  0  0  0  0  0  0  0  0  0  0
   11.7155    0.1520   24.9872 C   0  0  0  0  0  0  0  0  0  0  0  0
   11.0544    2.1258   25.6959 C   0  0  0  0  0  0  0  0  0  0  0  0
    6.1460    0.6070   19.9750 C   0  0  0  0  0  0  0  0  0  0  0  0
    9.1280   -1.2090   23.4870 C   0  0  0  0  0  0  0  0  0  0  0  0
   10.7691    1.1678   24.7539 C   0  0  0  0  0  0  0  0  0  0  0  0
    5.7970    0.9500   18.6730 C   0  0  0  0  0  0  0  0  0  0  0  0
    8.3450   -3.3440   25.0980 C   0  0  0  0  0  0  0  0  0  0  0  0
    7.2710   -0.1460   19.8310 C   0  0  0  0  0  0  0  0  0  0  0  0
    9.0430    0.2380   21.4940 C   0  0  0  0  0  0  0  0  0  0  0  0
   12.7726    2.3012   27.5113 C   0  0  0  0  0  0  0  0  0  0  0  0
    7.2615   -5.5561   25.3801 C   0  0  0  0  0  0  0  0  0  0  0  0
    8.3043   -4.4048   27.3385 C   0  0  0  0  0  0  0  0  0  0  0  0
    9.6841    1.2008   23.7022 C   0  0  0  0  0  0  0  0  0  0  0  0
    9.5820   -0.1080   22.7000 C   0  0  2  0  0  0  0  0  0  0  0  0
   12.5403    0.4380   25.9980 N   0  0  0  0  0  0  0  0  0  0  0  0
    7.5840   -0.2700   18.5160 N   0  0  0  0  0  0  0  0  0  0  0  0
    6.7100    0.3850   17.8100 N   0  0  0  0  0  0  0  0  0  0  0  0
   12.1132    1.6445   26.4082 N   0  0  0  0  0  0  0  0  0  0  0  0
    8.0950   -0.7700   20.8440 N   0  0  0  0  0  0  0  0  0  0  0  0
    7.9717   -4.4175   25.9277 N   0  0  0  0  0  0  0  0  0  0  0  0
    9.2950    1.3000   20.9480 O   0  0  0  0  0  0  0  0  0  0  0  0
    3.6223    2.0725   21.6574 H   0  0  0  0  0  0  0  0  0  0  0  0
    2.9864    2.6933   19.3609 H   0  0  0  0  0  0  0  0  0  0  0  0
    5.6689    0.7392   22.0836 H   0  0  0  0  0  0  0  0  0  0  0  0
   10.2684   -2.6719   22.3867 H   0  0  0  0  0  0  0  0  0  0  0  0
    7.8717   -0.0016   24.7596 H   0  0  0  0  0  0  0  0  0  0  0  0
    4.3807    2.0116   17.4186 H   0  0  0  0  0  0  0  0  0  0  0  0
    9.5443   -4.5616   23.7817 H   0  0  0  0  0  0  0  0  0  0  0  0
    7.1921   -1.8821   26.1908 H   0  0  0  0  0  0  0  0  0  0  0  0
   11.8409   -0.7851   24.4635 H   0  0  0  0  0  0  0  0  0  0  0  0
   10.6061    3.0857   25.9138 H   0  0  0  0  0  0  0  0  0  0  0  0
   12.2713    1.9965   28.4337 H   0  0  0  0  0  0  0  0  0  0  0  0
   13.8256    2.0072   27.5334 H   0  0  0  0  0  0  0  0  0  0  0  0
   12.7061    3.3847   27.3788 H   0  0  0  0  0  0  0  0  0  0  0  0
    7.0605   -6.2832   26.1807 H   0  0  0  0  0  0  0  0  0  0  0  0
    6.3097   -5.2191   24.9437 H   0  0  0  0  0  0  0  0  0  0  0  0
    7.8751   -6.0303   24.6000 H   0  0  0  0  0  0  0  0  0  0  0  0
    7.9293   -5.3239   27.8125 H   0  0  0  0  0  0  0  0  0  0  0  0
    9.3965   -4.3505   27.4572 H   0  0  0  0  0  0  0  0  0  0  0  0
    7.8395   -3.5300   27.8168 H   0  0  0  0  0  0  0  0  0  0  0  0
    8.7167    1.3910   24.1851 H   0  0  0  0  0  0  0  0  0  0  0  0
    9.8647    2.0727   23.0582 H   0  0  0  0  0  0  0  0  0  0  0  0
   10.7539   -0.2760   22.5528 H   0  0  0  0  0  0  0  0  0  0  0  0
    6.7486    0.4313   16.8331 H   0  0  0  0  0  0  0  0  0  0  0  0
    8.0757   -1.6162   21.0774 H   0  0  0  0  0  0  0  0  0  0  0  0
  1  2  1  0  0  0  0
  1  3  2  0  0  0  0
  2  6  2  0  0  0  0
  3 11  1  0  0  0  0
  4  7  2  0  0  0  0
  4 12  1  0  0  0  0
  5  8  1  0  0  0  0
  5 12  2  0  0  0  0
  6 14  1  0  0  0  0
  7 15  1  0  0  0  0
  8 15  2  0  0  0  0
  9 13  1  0  0  0  0
  9 23  2  0  0  0  0
 10 13  2  0  0  0  0
 10 26  1  0  0  0  0
 11 14  2  0  0  0  0
 11 16  1  0  0  0  0
 12 22  1  0  0  0  0
 13 21  1  0  0  0  0
 14 25  1  0  0  0  0
 15 28  1  0  0  0  0
 16 24  2  0  0  0  0
 16 27  1  0  0  0  0
 17 22  1  0  0  0  0
 17 27  1  0  0  0  0
 17 29  2  0  0  0  0
 18 26  1  0  0  0  0
 19 28  1  0  0  0  0
 20 28  1  0  0  0  0
 21 22  1  6  0  0  0
 23 26  1  0  0  0  0
 24 25  1  0  0  0  0
  1 30  1  0  0  0  0
  2 31  1  0  0  0  0
  3 32  1  0  0  0  0
  4 33  1  0  0  0  0
  5 34  1  0  0  0  0
  6 35  1  0  0  0  0
  7 36  1  0  0  0  0
  8 37  1  0  0  0  0
  9 38  1  0  0  0  0
 10 39  1  0  0  0  0
 18 40  1  0  0  0  0
 18 41  1  0  0  0  0
 18 42  1  0  0  0  0
 19 43  1  0  0  0  0
 19 44  1  0  0  0  0
 19 45  1  0  0  0  0
 20 46  1  0  0  0  0
 20 47  1  0  0  0  0
 20 48  1  0  0  0  0
 21 49  1  0  0  0  0
 21 50  1  0  0  0  0
 22 51  1  0  0  0  0
 25 52  1  0  0  0  0
 27 53  1  0  0  0  0
M  END
> <clash_score>
3.2086004152360648

> <docking_score>
-2.5740280151367188

> <overlap_score>
0.7944019436836243

$$$$
BENZO_229_2
  -OEChem-08232013533D

 55 58  0     1  0  0  0  0  0999 V2000
   12.7116    4.1121   22.7757 C   0  0  0  0  0  0  0  0  0  0  0  0
    4.2460    1.7520   20.8250 C   0  0  0  0  0  0  0  0  0  0  0  0
   11.5300    4.5099   23.4011 C   0  0  0  0  0  0  0  0  0  0  0  0
   12.9112    2.7704   22.4506 C   0  0  0  0  0  0  0  0  0  0  0  0
    3.8860    2.1050   19.5250 C   0  0  0  0  0  0  0  0  0  0  0  0
    5.3890    1.0010   21.0690 C   0  0  0  0  0  0  0  0  0  0  0  0
   10.5480    3.5659   23.7016 C   0  0  0  0  0  0  0  0  0  0  0  0
   11.9292    1.8264   22.7511 C   0  0  0  0  0  0  0  0  0  0  0  0
    9.5890   -2.4950   23.2210 C   0  0  0  0  0  0  0  0  0  0  0  0
    8.2550   -1.0010   24.5520 C   0  0  0  0  0  0  0  0  0  0  0  0
    4.6610    1.7170   18.4380 C   0  0  0  0  0  0  0  0  0  0  0  0
    9.1890   -3.5540   24.0140 C   0  0  0  0  0  0  0  0  0  0  0  0
    7.8700   -2.0610   25.3550 C   0  0  0  0  0  0  0  0  0  0  0  0
    6.1460    0.6070   19.9750 C   0  0  0  0  0  0  0  0  0  0  0  0
   10.7476    2.2242   23.3766 C   0  0  0  0  0  0  0  0  0  0  0  0
    9.1280   -1.2090   23.4870 C   0  0  0  0  0  0  0  0  0  0  0  0
    5.7970    0.9500   18.6730 C   0  0  0  0  0  0  0  0  0  0  0  0
    8.3450   -3.3440   25.0980 C   0  0  0  0  0  0  0  0  0  0  0  0
    7.2710   -0.1460   19.8310 C   0  0  0  0  0  0  0  0  0  0  0  0
    7.6593   -4.3758   27.2873 C   0  0  0  0  0  0  0  0  0  0  0  0
    9.0430    0.2380   21.4940 C   0  0  0  0  0  0  0  0  0  0  0  0
    8.4365   -6.7636   27.6037 C   0  0  0  0  0  0  0  0  0  0  0  0
    9.6841    1.2008   23.7022 C   0  0  0  0  0  0  0  0  0  0  0  0
    7.3104   -5.7647   27.8012 C   0  0  0  0  0  0  0  0  0  0  0  0
    9.5820   -0.1080   22.7000 C   0  0  2  0  0  0  0  0  0  0  0  0
    7.5840   -0.2700   18.5160 N   0  0  0  0  0  0  0  0  0  0  0  0
    6.7100    0.3850   17.8100 N   0  0  0  0  0  0  0  0  0  0  0  0
    7.9771   -4.4057   25.9197 N   0  0  0  0  0  0  0  0  0  0  0  0
    8.0950   -0.7700   20.8440 N   0  0  0  0  0  0  0  0  0  0  0  0
    7.6483   -3.3902   28.0174 O   0  0  0  0  0  0  0  0  0  0  0  0
    9.2950    1.3000   20.9480 O   0  0  0  0  0  0  0  0  0  0  0  0
   13.4755    4.8474   22.5405 H   0  0  0  0  0  0  0  0  0  0  0  0
    3.6223    2.0725   21.6574 H   0  0  0  0  0  0  0  0  0  0  0  0
   11.3739    5.5547   23.6533 H   0  0  0  0  0  0  0  0  0  0  0  0
   13.8306    2.4605   21.9627 H   0  0  0  0  0  0  0  0  0  0  0  0
    2.9864    2.6933   19.3609 H   0  0  0  0  0  0  0  0  0  0  0  0
    5.6689    0.7392   22.0836 H   0  0  0  0  0  0  0  0  0  0  0  0
    9.6306    3.8849   24.1892 H   0  0  0  0  0  0  0  0  0  0  0  0
   12.0935    0.7832   22.4943 H   0  0  0  0  0  0  0  0  0  0  0  0
   10.2695   -2.6718   22.3873 H   0  0  0  0  0  0  0  0  0  0  0  0
    7.8712   -0.0014   24.7587 H   0  0  0  0  0  0  0  0  0  0  0  0
    4.3807    2.0116   17.4186 H   0  0  0  0  0  0  0  0  0  0  0  0
    9.5431   -4.5618   23.7801 H   0  0  0  0  0  0  0  0  0  0  0  0
    7.1923   -1.8823   26.1912 H   0  0  0  0  0  0  0  0  0  0  0  0
    8.6970   -6.8581   26.5443 H   0  0  0  0  0  0  0  0  0  0  0  0
    8.1395   -7.7503   27.9721 H   0  0  0  0  0  0  0  0  0  0  0  0
    9.3366   -6.4533   28.1444 H   0  0  0  0  0  0  0  0  0  0  0  0
    9.7989    0.8777   24.7451 H   0  0  0  0  0  0  0  0  0  0  0  0
    8.7078    1.7032   23.6586 H   0  0  0  0  0  0  0  0  0  0  0  0
    7.0709   -5.6903   28.8682 H   0  0  0  0  0  0  0  0  0  0  0  0
    6.4146   -6.1149   27.2756 H   0  0  0  0  0  0  0  0  0  0  0  0
   10.7539   -0.2760   22.5528 H   0  0  0  0  0  0  0  0  0  0  0  0
    6.7486    0.4313   16.8331 H   0  0  0  0  0  0  0  0  0  0  0  0
    7.9295   -5.3300   25.4752 H   0  0  0  0  0  0  0  0  0  0  0  0
    8.0757   -1.6162   21.0774 H   0  0  0  0  0  0  0  0  0  0  0  0
  1  3  1  0  0  0  0
  1  4  2  0  0  0  0
  2  5  1  0  0  0  0
  2  6  2  0  0  0  0
  3  7  2  0  0  0  0
  4  8  1  0  0  0  0
  5 11  2  0  0  0  0
  6 14  1  0  0  0  0
  7 15  1  0  0  0  0
  8 15  2  0  0  0  0
  9 12  2  0  0  0  0
  9 16  1  0  0  0  0
 10 13  1  0  0  0  0
 10 16  2  0  0  0  0
 11 17  1  0  0  0  0
 12 18  1  0  0  0  0
 13 18  2  0  0  0  0
 14 17  2  0  0  0  0
 14 19  1  0  0  0  0
 15 23  1  0  0  0  0
 16 25  1  0  0  0  0
 17 27  1  0  0  0  0
 18 28  1  0  0  0  0
 19 26  2  0  0  0  0
 19 29  1  0  0  0  0
 20 24  1  0  0  0  0
 20 28  1  0  0  0  0
 20 30  2  0  0  0  0
 21 25  1  0  0  0  0
 21 29  1  0  0  0  0
 21 31  2  0  0  0  0
 22 24  1  0  0  0  0
 23 25  1  6  0  0  0
 26 27  1  0  0  0  0
  1 32  1  0  0  0  0
  2 33  1  0  0  0  0
  3 34  1  0  0  0  0
  4 35  1  0  0  0  0
  5 36  1  0  0  0  0
  6 37  1  0  0  0  0
  7 38  1  0  0  0  0
  8 39  1  0  0  0  0
  9 40  1  0  0  0  0
 10 41  1  0  0  0  0
 11 42  1  0  0  0  0
 12 43  1  0  0  0  0
 13 44  1  0  0  0  0
 22 45  1  0  0  0  0
 22 46  1  0  0  0  0
 22 47  1  0  0  0  0
 23 48  1  0  0  0  0
 23 49  1  0  0  0  0
 24 50  1  0  0  0  0
 24 51  1  0  0  0  0
 25 52  1  0  0  0  0
 27 53  1  0  0  0  0
 28 54  1  0  0  0  0
 29 55  1  0  0  0  0
M  END
> <clash_score>
0

> <docking_score>
-7.4190754890441895

> <overlap_score>
0.8246312737464905

$$$$
BENZO_229_1
  -OEChem-08232013533D

 55 58  0     1  0  0  0  0  0999 V2000
   13.2081   -0.8233   26.3776 C   0  0  0  0  0  0  0  0  0  0  0  0
    4.2460    1.7520   20.8250 C   0  0  0  0  0  0  0  0  0  0  0  0
   13.7678   -1.3337   25.2064 C   0  0  0  0  0  0  0  0  0  0  0  0
   12.0060   -0.1174   26.3261 C   0  0  0  0  0  0  0  0  0  0  0  0
    3.8860    2.1050   19.5250 C   0  0  0  0  0  0  0  0  0  0  0  0
    5.3890    1.0010   21.0690 C   0  0  0  0  0  0  0  0  0  0  0  0
   13.1256   -1.1382   23.9837 C   0  0  0  0  0  0  0  0  0  0  0  0
   11.3638    0.0781   25.1034 C   0  0  0  0  0  0  0  0  0  0  0  0
    9.5890   -2.4950   23.2210 C   0  0  0  0  0  0  0  0  0  0  0  0
    8.2550   -1.0010   24.5520 C   0  0  0  0  0  0  0  0  0  0  0  0
    4.6610    1.7170   18.4380 C   0  0  0  0  0  0  0  0  0  0  0  0
    9.1890   -3.5540   24.0140 C   0  0  0  0  0  0  0  0  0  0  0  0
    7.8700   -2.0610   25.3550 C   0  0  0  0  0  0  0  0  0  0  0  0
    6.1460    0.6070   19.9750 C   0  0  0  0  0  0  0  0  0  0  0  0
   11.9236   -0.4323   23.9322 C   0  0  0  0  0  0  0  0  0  0  0  0
    9.1280   -1.2090   23.4870 C   0  0  0  0  0  0  0  0  0  0  0  0
    5.7970    0.9500   18.6730 C   0  0  0  0  0  0  0  0  0  0  0  0
    8.3450   -3.3440   25.0980 C   0  0  0  0  0  0  0  0  0  0  0  0
    7.2710   -0.1460   19.8310 C   0  0  0  0  0  0  0  0  0  0  0  0
    7.6593   -4.3758   27.2873 C   0  0  0  0  0  0  0  0  0  0  0  0
    9.0430    0.2380   21.4940 C   0  0  0  0  0  0  0  0  0  0  0  0
    8.4365   -6.7636   27.6037 C   0  0  0  0  0  0  0  0  0  0  0  0
   11.2273   -0.2199   22.6076 C   0  0  0  0  0  0  0  0  0  0  0  0
    7.3104   -5.7647   27.8012 C   0  0  0  0  0  0  0  0  0  0  0  0
    9.5820   -0.1080   22.7000 C   0  0  1  0  0  0  0  0  0  0  0  0
    7.5840   -0.2700   18.5160 N   0  0  0  0  0  0  0  0  0  0  0  0
    6.7100    0.3850   17.8100 N   0  0  0  0  0  0  0  0  0  0  0  0
    7.9771   -4.4057   25.9197 N   0  0  0  0  0  0  0  0  0  0  0  0
    8.0950   -0.7700   20.8440 N   0  0  0  0  0  0  0  0  0  0  0  0
    7.6483   -3.3902   28.0174 O   0  0  0  0  0  0  0  0  0  0  0  0
    9.2950    1.3000   20.9480 O   0  0  0  0  0  0  0  0  0  0  0  0
   13.7076   -0.9767   27.3297 H   0  0  0  0  0  0  0  0  0  0  0  0
    3.6223    2.0725   21.6574 H   0  0  0  0  0  0  0  0  0  0  0  0
   14.7032   -1.8843   25.2464 H   0  0  0  0  0  0  0  0  0  0  0  0
   11.5694    0.2792   27.2379 H   0  0  0  0  0  0  0  0  0  0  0  0
    2.9864    2.6933   19.3609 H   0  0  0  0  0  0  0  0  0  0  0  0
    5.6689    0.7392   22.0836 H   0  0  0  0  0  0  0  0  0  0  0  0
   13.5692   -1.5394   23.0762 H   0  0  0  0  0  0  0  0  0  0  0  0
   10.4277    0.6294   25.0729 H   0  0  0  0  0  0  0  0  0  0  0  0
   10.2695   -2.6718   22.3873 H   0  0  0  0  0  0  0  0  0  0  0  0
    7.8712   -0.0014   24.7587 H   0  0  0  0  0  0  0  0  0  0  0  0
    4.3807    2.0116   17.4186 H   0  0  0  0  0  0  0  0  0  0  0  0
    9.5431   -4.5618   23.7801 H   0  0  0  0  0  0  0  0  0  0  0  0
    7.1923   -1.8823   26.1912 H   0  0  0  0  0  0  0  0  0  0  0  0
    8.6970   -6.8581   26.5443 H   0  0  0  0  0  0  0  0  0  0  0  0
    8.1395   -7.7503   27.9721 H   0  0  0  0  0  0  0  0  0  0  0  0
    9.3366   -6.4533   28.1444 H   0  0  0  0  0  0  0  0  0  0  0  0
   11.5842    0.7150   22.1561 H   0  0  0  0  0  0  0  0  0  0  0  0
   11.5525   -1.0164   21.9239 H   0  0  0  0  0  0  0  0  0  0  0  0
    7.0709   -5.6903   28.8682 H   0  0  0  0  0  0  0  0  0  0  0  0
    6.4146   -6.1149   27.2756 H   0  0  0  0  0  0  0  0  0  0  0  0
    9.5374    0.8439   23.4178 H   0  0  0  0  0  0  0  0  0  0  0  0
    6.7486    0.4313   16.8331 H   0  0  0  0  0  0  0  0  0  0  0  0
    7.9295   -5.3300   25.4752 H   0  0  0  0  0  0  0  0  0  0  0  0
    8.0757   -1.6162   21.0774 H   0  0  0  0  0  0  0  0  0  0  0  0
  1  3  1  0  0  0  0
  1  4  2  0  0  0  0
  2  5  1  0  0  0  0
  2  6  2  0  0  0  0
  3  7  2  0  0  0  0
  4  8  1  0  0  0  0
  5 11  2  0  0  0  0
  6 14  1  0  0  0  0
  7 15  1  0  0  0  0
  8 15  2  0  0  0  0
  9 12  2  0  0  0  0
  9 16  1  0  0  0  0
 10 13  1  0  0  0  0
 10 16  2  0  0  0  0
 11 17  1  0  0  0  0
 12 18  1  0  0  0  0
 13 18  2  0  0  0  0
 14 17  2  0  0  0  0
 14 19  1  0  0  0  0
 15 23  1  0  0  0  0
 16 25  1  0  0  0  0
 17 27  1  0  0  0  0
 18 28  1  0  0  0  0
 19 26  2  0  0  0  0
 19 29  1  0  0  0  0
 20 24  1  0  0  0  0
 20 28  1  0  0  0  0
 20 30  2  0  0  0  0
 21 25  1  0  0  0  0
 21 29  1  0  0  0  0
 21 31  2  0  0  0  0
 22 24  1  0  0  0  0
 23 25  1  1  0  0  0
 26 27  1  0  0  0  0
  1 32  1  0  0  0  0
  2 33  1  0  0  0  0
  3 34  1  0  0  0  0
  4 35  1  0  0  0  0
  5 36  1  0  0  0  0
  6 37  1  0  0  0  0
  7 38  1  0  0  0  0
  8 39  1  0  0  0  0
  9 40  1  0  0  0  0
 10 41  1  0  0  0  0
 11 42  1  0  0  0  0
 12 43  1  0  0  0  0
 13 44  1  0  0  0  0
 22 45  1  0  0  0  0
 22 46  1  0  0  0  0
 22 47  1  0  0  0  0
 23 48  1  0  0  0  0
 23 49  1  0  0  0  0
 24 50  1  0  0  0  0
 24 51  1  0  0  0  0
 25 52  1  0  0  0  0
 27 53  1  0  0  0  0
 28 54  1  0  0  0  0
 29 55  1  0  0  0  0
M  END
> <clash_score>
0

> <docking_score>
-4.835422515869141

> <overlap_score>
0.9150788187980652

$$$$
BENZO_226_1
  -OEChem-08232013533D

 53 56  0     1  0  0  0  0  0999 V2000
    4.2460    1.7520   20.8250 C   0  0  0  0  0  0  0  0  0  0  0  0
    3.8860    2.1050   19.5250 C   0  0  0  0  0  0  0  0  0  0  0  0
   13.7696   -1.3331   25.2040 C   0  0  0  0  0  0  0  0  0  0  0  0
    5.3890    1.0010   21.0690 C   0  0  0  0  0  0  0  0  0  0  0  0
   13.1260   -1.1377   23.9821 C   0  0  0  0  0  0  0  0  0  0  0  0
    9.5890   -2.4950   23.2210 C   0  0  0  0  0  0  0  0  0  0  0  0
    8.2550   -1.0010   24.5520 C   0  0  0  0  0  0  0  0  0  0  0  0
    4.6610    1.7170   18.4380 C   0  0  0  0  0  0  0  0  0  0  0  0
    9.1890   -3.5540   24.0140 C   0  0  0  0  0  0  0  0  0  0  0  0
    7.8700   -2.0610   25.3550 C   0  0  0  0  0  0  0  0  0  0  0  0
   13.2109   -0.8232   26.3761 C   0  0  0  0  0  0  0  0  0  0  0  0
   11.3649    0.0776   25.1042 C   0  0  0  0  0  0  0  0  0  0  0  0
    6.1460    0.6070   19.9750 C   0  0  0  0  0  0  0  0  0  0  0  0
    9.1280   -1.2090   23.4870 C   0  0  0  0  0  0  0  0  0  0  0  0
   11.9236   -0.4323   23.9322 C   0  0  0  0  0  0  0  0  0  0  0  0
    5.7970    0.9500   18.6730 C   0  0  0  0  0  0  0  0  0  0  0  0
    8.3450   -3.3440   25.0980 C   0  0  0  0  0  0  0  0  0  0  0  0
   12.0086   -0.1179   26.3261 C   0  0  0  0  0  0  0  0  0  0  0  0
    7.2710   -0.1460   19.8310 C   0  0  0  0  0  0  0  0  0  0  0  0
    9.0430    0.2380   21.4940 C   0  0  0  0  0  0  0  0  0  0  0  0
    7.2615   -5.5561   25.3801 C   0  0  0  0  0  0  0  0  0  0  0  0
    8.3043   -4.4048   27.3385 C   0  0  0  0  0  0  0  0  0  0  0  0
   11.2273   -0.2199   22.6076 C   0  0  0  0  0  0  0  0  0  0  0  0
    9.5820   -0.1080   22.7000 C   0  0  1  0  0  0  0  0  0  0  0  0
    7.5840   -0.2700   18.5160 N   0  0  0  0  0  0  0  0  0  0  0  0
    6.7100    0.3850   17.8100 N   0  0  0  0  0  0  0  0  0  0  0  0
    8.0950   -0.7700   20.8440 N   0  0  0  0  0  0  0  0  0  0  0  0
    7.9717   -4.4175   25.9277 N   0  0  0  0  0  0  0  0  0  0  0  0
    9.2950    1.3000   20.9480 O   0  0  0  0  0  0  0  0  0  0  0  0
   11.3203    0.5119   27.7723 Cl  0  0  0  0  0  0  0  0  0  0  0  0
    3.6223    2.0725   21.6574 H   0  0  0  0  0  0  0  0  0  0  0  0
    2.9864    2.6933   19.3609 H   0  0  0  0  0  0  0  0  0  0  0  0
   14.7060   -1.8822   25.2425 H   0  0  0  0  0  0  0  0  0  0  0  0
    5.6689    0.7392   22.0836 H   0  0  0  0  0  0  0  0  0  0  0  0
   13.5686   -1.5384   23.0739 H   0  0  0  0  0  0  0  0  0  0  0  0
   10.2684   -2.6719   22.3867 H   0  0  0  0  0  0  0  0  0  0  0  0
    7.8717   -0.0016   24.7596 H   0  0  0  0  0  0  0  0  0  0  0  0
    4.3807    2.0116   17.4186 H   0  0  0  0  0  0  0  0  0  0  0  0
    9.5443   -4.5616   23.7817 H   0  0  0  0  0  0  0  0  0  0  0  0
    7.1921   -1.8821   26.1908 H   0  0  0  0  0  0  0  0  0  0  0  0
   13.7238   -0.9829   27.3213 H   0  0  0  0  0  0  0  0  0  0  0  0
   10.4270    0.6263   25.0600 H   0  0  0  0  0  0  0  0  0  0  0  0
    7.0605   -6.2832   26.1807 H   0  0  0  0  0  0  0  0  0  0  0  0
    6.3097   -5.2191   24.9437 H   0  0  0  0  0  0  0  0  0  0  0  0
    7.8751   -6.0303   24.6000 H   0  0  0  0  0  0  0  0  0  0  0  0
    7.9293   -5.3239   27.8125 H   0  0  0  0  0  0  0  0  0  0  0  0
    9.3965   -4.3505   27.4572 H   0  0  0  0  0  0  0  0  0  0  0  0
    7.8395   -3.5300   27.8168 H   0  0  0  0  0  0  0  0  0  0  0  0
   11.5842    0.7149   22.1561 H   0  0  0  0  0  0  0  0  0  0  0  0
   11.5525   -1.0164   21.9239 H   0  0  0  0  0  0  0  0  0  0  0  0
    9.5374    0.8439   23.4178 H   0  0  0  0  0  0  0  0  0  0  0  0
    6.7486    0.4313   16.8331 H   0  0  0  0  0  0  0  0  0  0  0  0
    8.0757   -1.6162   21.0774 H   0  0  0  0  0  0  0  0  0  0  0  0
  1  2  1  0  0  0  0
  1  4  2  0  0  0  0
  2  8  2  0  0  0  0
  3  5  2  0  0  0  0
  3 11  1  0  0  0  0
  4 13  1  0  0  0  0
  5 15  1  0  0  0  0
  6  9  2  0  0  0  0
  6 14  1  0  0  0  0
  7 10  1  0  0  0  0
  7 14  2  0  0  0  0
  8 16  1  0  0  0  0
  9 17  1  0  0  0  0
 10 17  2  0  0  0  0
 11 18  2  0  0  0  0
 12 15  2  0  0  0  0
 12 18  1  0  0  0  0
 13 16  2  0  0  0  0
 13 19  1  0  0  0  0
 14 24  1  0  0  0  0
 15 23  1  0  0  0  0
 16 26  1  0  0  0  0
 17 28  1  0  0  0  0
 18 30  1  0  0  0  0
 19 25  2  0  0  0  0
 19 27  1  0  0  0  0
 20 24  1  0  0  0  0
 20 27  1  0  0  0  0
 20 29  2  0  0  0  0
 21 28  1  0  0  0  0
 22 28  1  0  0  0  0
 23 24  1  1  0  0  0
 25 26  1  0  0  0  0
  1 31  1  0  0  0  0
  2 32  1  0  0  0  0
  3 33  1  0  0  0  0
  4 34  1  0  0  0  0
  5 35  1  0  0  0  0
  6 36  1  0  0  0  0
  7 37  1  0  0  0  0
  8 38  1  0  0  0  0
  9 39  1  0  0  0  0
 10 40  1  0  0  0  0
 11 41  1  0  0  0  0
 12 42  1  0  0  0  0
 21 43  1  0  0  0  0
 21 44  1  0  0  0  0
 21 45  1  0  0  0  0
 22 46  1  0  0  0  0
 22 47  1  0  0  0  0
 22 48  1  0  0  0  0
 23 49  1  0  0  0  0
 23 50  1  0  0  0  0
 24 51  1  0  0  0  0
 26 52  1  0  0  0  0
 27 53  1  0  0  0  0
M  END
> <clash_score>
0.7019244850424641

> <docking_score>
-4.333459377288818

> <overlap_score>
0.8747235536575317

$$$$
BENZO_226_2
  -OEChem-08232013533D

 53 56  0     1  0  0  0  0  0999 V2000
    4.2460    1.7520   20.8250 C   0  0  0  0  0  0  0  0  0  0  0  0
    3.8860    2.1050   19.5250 C   0  0  0  0  0  0  0  0  0  0  0  0
   12.6250    0.0375   25.8097 C   0  0  0  0  0  0  0  0  0  0  0  0
    5.3890    1.0010   21.0690 C   0  0  0  0  0  0  0  0  0  0  0  0
   11.6228    0.0680   24.8402 C   0  0  0  0  0  0  0  0  0  0  0  0
    9.5890   -2.4950   23.2210 C   0  0  0  0  0  0  0  0  0  0  0  0
    8.2550   -1.0010   24.5520 C   0  0  0  0  0  0  0  0  0  0  0  0
    4.6610    1.7170   18.4380 C   0  0  0  0  0  0  0  0  0  0  0  0
    9.1890   -3.5540   24.0140 C   0  0  0  0  0  0  0  0  0  0  0  0
    7.8700   -2.0610   25.3550 C   0  0  0  0  0  0  0  0  0  0  0  0
   12.7736    1.1067   26.6932 C   0  0  0  0  0  0  0  0  0  0  0  0
   10.9177    2.2371   25.6372 C   0  0  0  0  0  0  0  0  0  0  0  0
    6.1460    0.6070   19.9750 C   0  0  0  0  0  0  0  0  0  0  0  0
    9.1280   -1.2090   23.4870 C   0  0  0  0  0  0  0  0  0  0  0  0
   10.7691    1.1678   24.7539 C   0  0  0  0  0  0  0  0  0  0  0  0
    5.7970    0.9500   18.6730 C   0  0  0  0  0  0  0  0  0  0  0  0
    8.3450   -3.3440   25.0980 C   0  0  0  0  0  0  0  0  0  0  0  0
   11.9200    2.2065   26.6069 C   0  0  0  0  0  0  0  0  0  0  0  0
    7.2710   -0.1460   19.8310 C   0  0  0  0  0  0  0  0  0  0  0  0
    9.0430    0.2380   21.4940 C   0  0  0  0  0  0  0  0  0  0  0  0
    7.2615   -5.5561   25.3801 C   0  0  0  0  0  0  0  0  0  0  0  0
    8.3043   -4.4048   27.3385 C   0  0  0  0  0  0  0  0  0  0  0  0
    9.6841    1.2008   23.7022 C   0  0  0  0  0  0  0  0  0  0  0  0
    9.5820   -0.1080   22.7000 C   0  0  2  0  0  0  0  0  0  0  0  0
    7.5840   -0.2700   18.5160 N   0  0  0  0  0  0  0  0  0  0  0  0
    6.7100    0.3850   17.8100 N   0  0  0  0  0  0  0  0  0  0  0  0
    8.0950   -0.7700   20.8440 N   0  0  0  0  0  0  0  0  0  0  0  0
    7.9717   -4.4175   25.9277 N   0  0  0  0  0  0  0  0  0  0  0  0
    9.2950    1.3000   20.9480 O   0  0  0  0  0  0  0  0  0  0  0  0
   12.1046    3.5259   27.6963 Cl  0  0  0  0  0  0  0  0  0  0  0  0
    3.6223    2.0725   21.6574 H   0  0  0  0  0  0  0  0  0  0  0  0
    2.9864    2.6933   19.3609 H   0  0  0  0  0  0  0  0  0  0  0  0
   13.2896   -0.8190   25.8765 H   0  0  0  0  0  0  0  0  0  0  0  0
    5.6689    0.7392   22.0836 H   0  0  0  0  0  0  0  0  0  0  0  0
   11.5143   -0.7695   24.1559 H   0  0  0  0  0  0  0  0  0  0  0  0
   10.2684   -2.6719   22.3867 H   0  0  0  0  0  0  0  0  0  0  0  0
    7.8717   -0.0016   24.7596 H   0  0  0  0  0  0  0  0  0  0  0  0
    4.3807    2.0116   17.4186 H   0  0  0  0  0  0  0  0  0  0  0  0
    9.5443   -4.5616   23.7817 H   0  0  0  0  0  0  0  0  0  0  0  0
    7.1921   -1.8821   26.1908 H   0  0  0  0  0  0  0  0  0  0  0  0
   13.5594    1.0694   27.4437 H   0  0  0  0  0  0  0  0  0  0  0  0
   10.2493    3.0921   25.5662 H   0  0  0  0  0  0  0  0  0  0  0  0
    7.0605   -6.2832   26.1807 H   0  0  0  0  0  0  0  0  0  0  0  0
    6.3097   -5.2191   24.9437 H   0  0  0  0  0  0  0  0  0  0  0  0
    7.8751   -6.0303   24.6000 H   0  0  0  0  0  0  0  0  0  0  0  0
    7.9293   -5.3239   27.8125 H   0  0  0  0  0  0  0  0  0  0  0  0
    9.3965   -4.3505   27.4572 H   0  0  0  0  0  0  0  0  0  0  0  0
    7.8395   -3.5300   27.8168 H   0  0  0  0  0  0  0  0  0  0  0  0
    8.7167    1.3910   24.1851 H   0  0  0  0  0  0  0  0  0  0  0  0
    9.8647    2.0727   23.0582 H   0  0  0  0  0  0  0  0  0  0  0  0
   10.7539   -0.2760   22.5528 H   0  0  0  0  0  0  0  0  0  0  0  0
    6.7486    0.4313   16.8331 H   0  0  0  0  0  0  0  0  0  0  0  0
    8.0757   -1.6162   21.0774 H   0  0  0  0  0  0  0  0  0  0  0  0
  1  2  1  0  0  0  0
  1  4  2  0  0  0  0
  2  8  2  0  0  0  0
  3  5  2  0  0  0  0
  3 11  1  0  0  0  0
  4 13  1  0  0  0  0
  5 15  1  0  0  0  0
  6  9  2  0  0  0  0
  6 14  1  0  0  0  0
  7 10  1  0  0  0  0
  7 14  2  0  0  0  0
  8 16  1  0  0  0  0
  9 17  1  0  0  0  0
 10 17  2  0  0  0  0
 11 18  2  0  0  0  0
 12 15  2  0  0  0  0
 12 18  1  0  0  0  0
 13 16  2  0  0  0  0
 13 19  1  0  0  0  0
 14 24  1  0  0  0  0
 15 23  1  0  0  0  0
 16 26  1  0  0  0  0
 17 28  1  0  0  0  0
 18 30  1  0  0  0  0
 19 25  2  0  0  0  0
 19 27  1  0  0  0  0
 20 24  1  0  0  0  0
 20 27  1  0  0  0  0
 20 29  2  0  0  0  0
 21 28  1  0  0  0  0
 22 28  1  0  0  0  0
 23 24  1  6  0  0  0
 25 26  1  0  0  0  0
  1 31  1  0  0  0  0
  2 32  1  0  0  0  0
  3 33  1  0  0  0  0
  4 34  1  0  0  0  0
  5 35  1  0  0  0  0
  6 36  1  0  0  0  0
  7 37  1  0  0  0  0
  8 38  1  0  0  0  0
  9 39  1  0  0  0  0
 10 40  1  0  0  0  0
 11 41  1  0  0  0  0
 12 42  1  0  0  0  0
 21 43  1  0  0  0  0
 21 44  1  0  0  0  0
 21 45  1  0  0  0  0
 22 46  1  0  0  0  0
 22 47  1  0  0  0  0
 22 48  1  0  0  0  0
 23 49  1  0  0  0  0
 23 50  1  0  0  0  0
 24 51  1  0  0  0  0
 26 52  1  0  0  0  0
 27 53  1  0  0  0  0
M  END
> <clash_score>
5.492913821773631

> <docking_score>
-2.8292531967163086

> <overlap_score>
0.798279345035553

$$$$
BENZO_228_2
  -OEChem-08232013533D

 52 55  0     1  0  0  0  0  0999 V2000
    4.2460    1.7520   20.8250 C   0  0  0  0  0  0  0  0  0  0  0  0
    3.8860    2.1050   19.5250 C   0  0  0  0  0  0  0  0  0  0  0  0
    5.3890    1.0010   21.0690 C   0  0  0  0  0  0  0  0  0  0  0  0
    9.5890   -2.4950   23.2210 C   0  0  0  0  0  0  0  0  0  0  0  0
    8.2550   -1.0010   24.5520 C   0  0  0  0  0  0  0  0  0  0  0  0
    4.6610    1.7170   18.4380 C   0  0  0  0  0  0  0  0  0  0  0  0
    9.1890   -3.5540   24.0140 C   0  0  0  0  0  0  0  0  0  0  0  0
    7.8700   -2.0610   25.3550 C   0  0  0  0  0  0  0  0  0  0  0  0
   12.0333    1.8963   22.8573 C   0  0  0  0  0  0  0  0  0  0  0  0
   12.8088    3.0159   22.6506 C   0  0  0  0  0  0  0  0  0  0  0  0
   10.5895    3.5820   23.5474 C   0  0  0  0  0  0  0  0  0  0  0  0
    6.1460    0.6070   19.9750 C   0  0  0  0  0  0  0  0  0  0  0  0
    9.1280   -1.2090   23.4870 C   0  0  0  0  0  0  0  0  0  0  0  0
   10.7476    2.2242   23.3766 C   0  0  0  0  0  0  0  0  0  0  0  0
    5.7970    0.9500   18.6730 C   0  0  0  0  0  0  0  0  0  0  0  0
    8.3450   -3.3440   25.0980 C   0  0  0  0  0  0  0  0  0  0  0  0
    7.2710   -0.1460   19.8310 C   0  0  0  0  0  0  0  0  0  0  0  0
    8.2015   -4.5555   27.2978 C   0  0  0  0  0  0  0  0  0  0  0  0
    9.0430    0.2380   21.4940 C   0  0  0  0  0  0  0  0  0  0  0  0
    7.8874   -6.0860   29.2889 C   0  0  0  0  0  0  0  0  0  0  0  0
    9.6841    1.2008   23.7022 C   0  0  0  0  0  0  0  0  0  0  0  0
    7.6339   -5.8719   27.8075 C   0  0  0  0  0  0  0  0  0  0  0  0
    9.5820   -0.1080   22.7000 C   0  0  2  0  0  0  0  0  0  0  0  0
    7.5840   -0.2700   18.5160 N   0  0  0  0  0  0  0  0  0  0  0  0
    6.7100    0.3850   17.8100 N   0  0  0  0  0  0  0  0  0  0  0  0
    7.9771   -4.4057   25.9197 N   0  0  0  0  0  0  0  0  0  0  0  0
    8.0950   -0.7700   20.8440 N   0  0  0  0  0  0  0  0  0  0  0  0
    8.7725   -3.7627   28.0395 O   0  0  0  0  0  0  0  0  0  0  0  0
    9.2950    1.3000   20.9480 O   0  0  0  0  0  0  0  0  0  0  0  0
   11.9872    4.4551   23.0822 S   0  0  0  0  0  0  0  0  0  0  0  0
    3.6223    2.0725   21.6574 H   0  0  0  0  0  0  0  0  0  0  0  0
    2.9864    2.6933   19.3609 H   0  0  0  0  0  0  0  0  0  0  0  0
    5.6689    0.7392   22.0836 H   0  0  0  0  0  0  0  0  0  0  0  0
   10.2695   -2.6718   22.3873 H   0  0  0  0  0  0  0  0  0  0  0  0
    7.8712   -0.0014   24.7587 H   0  0  0  0  0  0  0  0  0  0  0  0
    4.3807    2.0116   17.4186 H   0  0  0  0  0  0  0  0  0  0  0  0
    9.5431   -4.5618   23.7801 H   0  0  0  0  0  0  0  0  0  0  0  0
    7.1923   -1.8823   26.1912 H   0  0  0  0  0  0  0  0  0  0  0  0
   12.3762    0.8915   22.6449 H   0  0  0  0  0  0  0  0  0  0  0  0
   13.8186    3.0576   22.2676 H   0  0  0  0  0  0  0  0  0  0  0  0
    9.7225    4.1070   23.9238 H   0  0  0  0  0  0  0  0  0  0  0  0
    8.9600   -6.0803   29.5092 H   0  0  0  0  0  0  0  0  0  0  0  0
    7.4774   -7.0483   29.6105 H   0  0  0  0  0  0  0  0  0  0  0  0
    7.4179   -5.2974   29.8861 H   0  0  0  0  0  0  0  0  0  0  0  0
    9.7989    0.8777   24.7451 H   0  0  0  0  0  0  0  0  0  0  0  0
    8.7078    1.7032   23.6586 H   0  0  0  0  0  0  0  0  0  0  0  0
    6.5547   -5.8822   27.6162 H   0  0  0  0  0  0  0  0  0  0  0  0
    8.0877   -6.6903   27.2368 H   0  0  0  0  0  0  0  0  0  0  0  0
   10.7539   -0.2760   22.5528 H   0  0  0  0  0  0  0  0  0  0  0  0
    6.7486    0.4313   16.8331 H   0  0  0  0  0  0  0  0  0  0  0  0
    7.4775   -5.1799   25.4668 H   0  0  0  0  0  0  0  0  0  0  0  0
    8.0757   -1.6162   21.0774 H   0  0  0  0  0  0  0  0  0  0  0  0
  1  2  1  0  0  0  0
  1  3  2  0  0  0  0
  2  6  2  0  0  0  0
  3 12  1  0  0  0  0
  4  7  2  0  0  0  0
  4 13  1  0  0  0  0
  5  8  1  0  0  0  0
  5 13  2  0  0  0  0
  6 15  1  0  0  0  0
  7 16  1  0  0  0  0
  8 16  2  0  0  0  0
  9 10  2  0  0  0  0
  9 14  1  0  0  0  0
 10 30  1  0  0  0  0
 11 14  2  0  0  0  0
 11 30  1  0  0  0  0
 12 15  2  0  0  0  0
 12 17  1  0  0  0  0
 13 23  1  0  0  0  0
 14 21  1  0  0  0  0
 15 25  1  0  0  0  0
 16 26  1  0  0  0  0
 17 24  2  0  0  0  0
 17 27  1  0  0  0  0
 18 22  1  0  0  0  0
 18 26  1  0  0  0  0
 18 28  2  0  0  0  0
 19 23  1  0  0  0  0
 19 27  1  0  0  0  0
 19 29  2  0  0  0  0
 20 22  1  0  0  0  0
 21 23  1  6  0  0  0
 24 25  1  0  0  0  0
  1 31  1  0  0  0  0
  2 32  1  0  0  0  0
  3 33  1  0  0  0  0
  4 34  1  0  0  0  0
  5 35  1  0  0  0  0
  6 36  1  0  0  0  0
  7 37  1  0  0  0  0
  8 38  1  0  0  0  0
  9 39  1  0  0  0  0
 10 40  1  0  0  0  0
 11 41  1  0  0  0  0
 20 42  1  0  0  0  0
 20 43  1  0  0  0  0
 20 44  1  0  0  0  0
 21 45  1  0  0  0  0
 21 46  1  0  0  0  0
 22 47  1  0  0  0  0
 22 48  1  0  0  0  0
 23 49  1  0  0  0  0
 25 50  1  0  0  0  0
 26 51  1  0  0  0  0
 27 52  1  0  0  0  0
M  END
> <clash_score>
0

> <docking_score>
-7.7201128005981445

> <overlap_score>
0.8424133062362671

$$$$
BENZO_228_1
  -OEChem-08232013533D

 52 55  0     1  0  0  0  0  0999 V2000
    4.2460    1.7520   20.8250 C   0  0  0  0  0  0  0  0  0  0  0  0
    3.8860    2.1050   19.5250 C   0  0  0  0  0  0  0  0  0  0  0  0
    5.3890    1.0010   21.0690 C   0  0  0  0  0  0  0  0  0  0  0  0
    9.5890   -2.4950   23.2210 C   0  0  0  0  0  0  0  0  0  0  0  0
    8.2550   -1.0010   24.5520 C   0  0  0  0  0  0  0  0  0  0  0  0
    4.6610    1.7170   18.4380 C   0  0  0  0  0  0  0  0  0  0  0  0
    9.1890   -3.5540   24.0140 C   0  0  0  0  0  0  0  0  0  0  0  0
    7.8700   -2.0610   25.3550 C   0  0  0  0  0  0  0  0  0  0  0  0
   13.2019   -0.5524   24.2528 C   0  0  0  0  0  0  0  0  0  0  0  0
   13.6437   -0.1439   25.4920 C   0  0  0  0  0  0  0  0  0  0  0  0
   11.4901    0.8830   24.8943 C   0  0  0  0  0  0  0  0  0  0  0  0
    6.1460    0.6070   19.9750 C   0  0  0  0  0  0  0  0  0  0  0  0
    9.1280   -1.2090   23.4870 C   0  0  0  0  0  0  0  0  0  0  0  0
   11.9544    0.0425   23.9064 C   0  0  0  0  0  0  0  0  0  0  0  0
    5.7970    0.9500   18.6730 C   0  0  0  0  0  0  0  0  0  0  0  0
    8.3450   -3.3440   25.0980 C   0  0  0  0  0  0  0  0  0  0  0  0
    7.2710   -0.1460   19.8310 C   0  0  0  0  0  0  0  0  0  0  0  0
    7.6593   -4.3758   27.2873 C   0  0  0  0  0  0  0  0  0  0  0  0
    9.0430    0.2380   21.4940 C   0  0  0  0  0  0  0  0  0  0  0  0
    6.9938   -5.7787   29.2859 C   0  0  0  0  0  0  0  0  0  0  0  0
   11.2273   -0.2199   22.6076 C   0  0  0  0  0  0  0  0  0  0  0  0
    7.3104   -5.7647   27.8012 C   0  0  0  0  0  0  0  0  0  0  0  0
    9.5820   -0.1080   22.7000 C   0  0  1  0  0  0  0  0  0  0  0  0
    7.5840   -0.2700   18.5160 N   0  0  0  0  0  0  0  0  0  0  0  0
    6.7100    0.3850   17.8100 N   0  0  0  0  0  0  0  0  0  0  0  0
    7.9771   -4.4057   25.9197 N   0  0  0  0  0  0  0  0  0  0  0  0
    8.0950   -0.7700   20.8440 N   0  0  0  0  0  0  0  0  0  0  0  0
    7.6483   -3.3902   28.0174 O   0  0  0  0  0  0  0  0  0  0  0  0
    9.2950    1.3000   20.9480 O   0  0  0  0  0  0  0  0  0  0  0  0
   12.5564    0.9525   26.2323 S   0  0  0  0  0  0  0  0  0  0  0  0
    3.6223    2.0725   21.6574 H   0  0  0  0  0  0  0  0  0  0  0  0
    2.9864    2.6933   19.3609 H   0  0  0  0  0  0  0  0  0  0  0  0
    5.6689    0.7392   22.0836 H   0  0  0  0  0  0  0  0  0  0  0  0
   10.2695   -2.6718   22.3873 H   0  0  0  0  0  0  0  0  0  0  0  0
    7.8712   -0.0014   24.7587 H   0  0  0  0  0  0  0  0  0  0  0  0
    4.3807    2.0116   17.4186 H   0  0  0  0  0  0  0  0  0  0  0  0
    9.5431   -4.5618   23.7801 H   0  0  0  0  0  0  0  0  0  0  0  0
    7.1923   -1.8823   26.1912 H   0  0  0  0  0  0  0  0  0  0  0  0
   13.7507   -1.2457   23.6279 H   0  0  0  0  0  0  0  0  0  0  0  0
   14.5524   -0.4373   25.9983 H   0  0  0  0  0  0  0  0  0  0  0  0
   10.5759    1.4603   24.8987 H   0  0  0  0  0  0  0  0  0  0  0  0
    7.8426   -5.4120   29.8725 H   0  0  0  0  0  0  0  0  0  0  0  0
    6.7635   -6.7961   29.6168 H   0  0  0  0  0  0  0  0  0  0  0  0
    6.1312   -5.1426   29.5100 H   0  0  0  0  0  0  0  0  0  0  0  0
   11.5534    0.5103   21.8555 H   0  0  0  0  0  0  0  0  0  0  0  0
   11.5573   -1.1968   22.2276 H   0  0  0  0  0  0  0  0  0  0  0  0
    6.4454   -6.1358   27.2396 H   0  0  0  0  0  0  0  0  0  0  0  0
    8.1567   -6.4320   27.6014 H   0  0  0  0  0  0  0  0  0  0  0  0
    9.5374    0.8439   23.4178 H   0  0  0  0  0  0  0  0  0  0  0  0
    6.7486    0.4313   16.8331 H   0  0  0  0  0  0  0  0  0  0  0  0
    7.9295   -5.3300   25.4752 H   0  0  0  0  0  0  0  0  0  0  0  0
    8.0757   -1.6162   21.0774 H   0  0  0  0  0  0  0  0  0  0  0  0
  1  2  1  0  0  0  0
  1  3  2  0  0  0  0
  2  6  2  0  0  0  0
  3 12  1  0  0  0  0
  4  7  2  0  0  0  0
  4 13  1  0  0  0  0
  5  8  1  0  0  0  0
  5 13  2  0  0  0  0
  6 15  1  0  0  0  0
  7 16  1  0  0  0  0
  8 16  2  0  0  0  0
  9 10  2  0  0  0  0
  9 14  1  0  0  0  0
 10 30  1  0  0  0  0
 11 14  2  0  0  0  0
 11 30  1  0  0  0  0
 12 15  2  0  0  0  0
 12 17  1  0  0  0  0
 13 23  1  0  0  0  0
 14 21  1  0  0  0  0
 15 25  1  0  0  0  0
 16 26  1  0  0  0  0
 17 24  2  0  0  0  0
 17 27  1  0  0  0  0
 18 22  1  0  0  0  0
 18 26  1  0  0  0  0
 18 28  2  0  0  0  0
 19 23  1  0  0  0  0
 19 27  1  0  0  0  0
 19 29  2  0  0  0  0
 20 22  1  0  0  0  0
 21 23  1  1  0  0  0
 24 25  1  0  0  0  0
  1 31  1  0  0  0  0
  2 32  1  0  0  0  0
  3 33  1  0  0  0  0
  4 34  1  0  0  0  0
  5 35  1  0  0  0  0
  6 36  1  0  0  0  0
  7 37  1  0  0  0  0
  8 38  1  0  0  0  0
  9 39  1  0  0  0  0
 10 40  1  0  0  0  0
 11 41  1  0  0  0  0
 20 42  1  0  0  0  0
 20 43  1  0  0  0  0
 20 44  1  0  0  0  0
 21 45  1  0  0  0  0
 21 46  1  0  0  0  0
 22 47  1  0  0  0  0
 22 48  1  0  0  0  0
 23 49  1  0  0  0  0
 25 50  1  0  0  0  0
 26 51  1  0  0  0  0
 27 52  1  0  0  0  0
M  END
> <clash_score>
0.7028805445820026

> <docking_score>
-6.218894004821777

> <overlap_score>
0.9106390476226807

$$$$
BENZO_230_2
  -OEChem-08232013533D

 55 58  0     1  0  0  0  0  0999 V2000
    4.2460    1.7520   20.8250 C   0  0  0  0  0  0  0  0  0  0  0  0
    3.8860    2.1050   19.5250 C   0  0  0  0  0  0  0  0  0  0  0  0
   13.0071    3.0433   23.6223 C   0  0  0  0  0  0  0  0  0  0  0  0
    5.3890    1.0010   21.0690 C   0  0  0  0  0  0  0  0  0  0  0  0
   12.0249    2.0998   23.9233 C   0  0  0  0  0  0  0  0  0  0  0  0
    9.5890   -2.4950   23.2210 C   0  0  0  0  0  0  0  0  0  0  0  0
    8.2550   -1.0010   24.5520 C   0  0  0  0  0  0  0  0  0  0  0  0
    4.6610    1.7170   18.4380 C   0  0  0  0  0  0  0  0  0  0  0  0
    9.1890   -3.5540   24.0140 C   0  0  0  0  0  0  0  0  0  0  0  0
    7.8700   -2.0610   25.3550 C   0  0  0  0  0  0  0  0  0  0  0  0
   12.7122    4.1112   22.7748 C   0  0  0  0  0  0  0  0  0  0  0  0
   10.4526    3.2920   22.5291 C   0  0  0  0  0  0  0  0  0  0  0  0
    6.1460    0.6070   19.9750 C   0  0  0  0  0  0  0  0  0  0  0  0
    9.1280   -1.2090   23.4870 C   0  0  0  0  0  0  0  0  0  0  0  0
   10.7476    2.2242   23.3766 C   0  0  0  0  0  0  0  0  0  0  0  0
    5.7970    0.9500   18.6730 C   0  0  0  0  0  0  0  0  0  0  0  0
    8.3450   -3.3440   25.0980 C   0  0  0  0  0  0  0  0  0  0  0  0
   11.4349    4.2355   22.2282 C   0  0  0  0  0  0  0  0  0  0  0  0
    7.2710   -0.1460   19.8310 C   0  0  0  0  0  0  0  0  0  0  0  0
    8.2015   -4.5555   27.2978 C   0  0  0  0  0  0  0  0  0  0  0  0
    9.0430    0.2380   21.4940 C   0  0  0  0  0  0  0  0  0  0  0  0
    7.8874   -6.0860   29.2889 C   0  0  0  0  0  0  0  0  0  0  0  0
    9.6841    1.2008   23.7022 C   0  0  0  0  0  0  0  0  0  0  0  0
    7.6339   -5.8719   27.8075 C   0  0  0  0  0  0  0  0  0  0  0  0
    9.5820   -0.1080   22.7000 C   0  0  2  0  0  0  0  0  0  0  0  0
    7.5840   -0.2700   18.5160 N   0  0  0  0  0  0  0  0  0  0  0  0
    6.7100    0.3850   17.8100 N   0  0  0  0  0  0  0  0  0  0  0  0
    7.9771   -4.4057   25.9197 N   0  0  0  0  0  0  0  0  0  0  0  0
    8.0950   -0.7700   20.8440 N   0  0  0  0  0  0  0  0  0  0  0  0
    8.7725   -3.7627   28.0395 O   0  0  0  0  0  0  0  0  0  0  0  0
    9.2950    1.3000   20.9480 O   0  0  0  0  0  0  0  0  0  0  0  0
   11.0719    5.5527   21.1817 Cl  0  0  0  0  0  0  0  0  0  0  0  0
    3.6223    2.0725   21.6574 H   0  0  0  0  0  0  0  0  0  0  0  0
    2.9864    2.6933   19.3609 H   0  0  0  0  0  0  0  0  0  0  0  0
   14.0017    2.9460   24.0481 H   0  0  0  0  0  0  0  0  0  0  0  0
    5.6689    0.7392   22.0836 H   0  0  0  0  0  0  0  0  0  0  0  0
   12.2636    1.2709   24.5845 H   0  0  0  0  0  0  0  0  0  0  0  0
   10.2695   -2.6718   22.3873 H   0  0  0  0  0  0  0  0  0  0  0  0
    7.8712   -0.0014   24.7587 H   0  0  0  0  0  0  0  0  0  0  0  0
    4.3807    2.0116   17.4186 H   0  0  0  0  0  0  0  0  0  0  0  0
    9.5431   -4.5618   23.7801 H   0  0  0  0  0  0  0  0  0  0  0  0
    7.1923   -1.8823   26.1912 H   0  0  0  0  0  0  0  0  0  0  0  0
   13.4877    4.8389   22.5488 H   0  0  0  0  0  0  0  0  0  0  0  0
    9.4551    3.3848   22.1058 H   0  0  0  0  0  0  0  0  0  0  0  0
    8.9600   -6.0803   29.5092 H   0  0  0  0  0  0  0  0  0  0  0  0
    7.4774   -7.0483   29.6105 H   0  0  0  0  0  0  0  0  0  0  0  0
    7.4179   -5.2974   29.8861 H   0  0  0  0  0  0  0  0  0  0  0  0
    9.7989    0.8777   24.7451 H   0  0  0  0  0  0  0  0  0  0  0  0
    8.7078    1.7032   23.6586 H   0  0  0  0  0  0  0  0  0  0  0  0
    6.5547   -5.8822   27.6162 H   0  0  0  0  0  0  0  0  0  0  0  0
    8.0877   -6.6903   27.2368 H   0  0  0  0  0  0  0  0  0  0  0  0
   10.7539   -0.2760   22.5528 H   0  0  0  0  0  0  0  0  0  0  0  0
    6.7486    0.4313   16.8331 H   0  0  0  0  0  0  0  0  0  0  0  0
    7.4775   -5.1799   25.4668 H   0  0  0  0  0  0  0  0  0  0  0  0
    8.0757   -1.6162   21.0774 H   0  0  0  0  0  0  0  0  0  0  0  0
  1  2  1  0  0  0  0
  1  4  2  0  0  0  0
  2  8  2  0  0  0  0
  3  5  2  0  0  0  0
  3 11  1  0  0  0  0
  4 13  1  0  0  0  0
  5 15  1  0  0  0  0
  6  9  2  0  0  0  0
  6 14  1  0  0  0  0
  7 10  1  0  0  0  0
  7 14  2  0  0  0  0
  8 16  1  0  0  0  0
  9 17  1  0  0  0  0
 10 17  2  0  0  0  0
 11 18  2  0  0  0  0
 12 15  2  0  0  0  0
 12 18  1  0  0  0  0
 13 16  2  0  0  0  0
 13 19  1  0  0  0  0
 14 25  1  0  0  0  0
 15 23  1  0  0  0  0
 16 27  1  0  0  0  0
 17 28  1  0  0  0  0
 18 32  1  0  0  0  0
 19 26  2  0  0  0  0
 19 29  1  0  0  0  0
 20 24  1  0  0  0  0
 20 28  1  0  0  0  0
 20 30  2  0  0  0  0
 21 25  1  0  0  0  0
 21 29  1  0  0  0  0
 21 31  2  0  0  0  0
 22 24  1  0  0  0  0
 23 25  1  6  0  0  0
 26 27  1  0  0  0  0
  1 33  1  0  0  0  0
  2 34  1  0  0  0  0
  3 35  1  0  0  0  0
  4 36  1  0  0  0  0
  5 37  1  0  0  0  0
  6 38  1  0  0  0  0
  7 39  1  0  0  0  0
  8 40  1  0  0  0  0
  9 41  1  0  0  0  0
 10 42  1  0  0  0  0
 11 43  1  0  0  0  0
 12 44  1  0  0  0  0
 22 45  1  0  0  0  0
 22 46  1  0  0  0  0
 22 47  1  0  0  0  0
 23 48  1  0  0  0  0
 23 49  1  0  0  0  0
 24 50  1  0  0  0  0
 24 51  1  0  0  0  0
 25 52  1  0  0  0  0
 27 53  1  0  0  0  0
 28 54  1  0  0  0  0
 29 55  1  0  0  0  0
M  END
> <clash_score>
0.7409504878625384

> <docking_score>
-4.660365104675293

> <overlap_score>
0.8378856778144836

$$$$
BENZO_233_1
  -OEChem-08232013533D

 60 64  0     1  0  0  0  0  0999 V2000
   12.7867    1.1712   26.6741 C   0  0  0  0  0  0  0  0  0  0  0  0
    4.2460    1.7520   20.8250 C   0  0  0  0  0  0  0  0  0  0  0  0
   11.5946    1.8532   26.9175 C   0  0  0  0  0  0  0  0  0  0  0  0
   12.9730    0.5019   25.4645 C   0  0  0  0  0  0  0  0  0  0  0  0
    3.8860    2.1050   19.5250 C   0  0  0  0  0  0  0  0  0  0  0  0
    5.3890    1.0010   21.0690 C   0  0  0  0  0  0  0  0  0  0  0  0
   10.5886    1.8659   25.9513 C   0  0  0  0  0  0  0  0  0  0  0  0
   11.9671    0.5146   24.4983 C   0  0  0  0  0  0  0  0  0  0  0  0
    9.5890   -2.4950   23.2210 C   0  0  0  0  0  0  0  0  0  0  0  0
    8.2550   -1.0010   24.5520 C   0  0  0  0  0  0  0  0  0  0  0  0
    4.6610    1.7170   18.4380 C   0  0  0  0  0  0  0  0  0  0  0  0
    9.1890   -3.5540   24.0140 C   0  0  0  0  0  0  0  0  0  0  0  0
    7.8700   -2.0610   25.3550 C   0  0  0  0  0  0  0  0  0  0  0  0
    6.1460    0.6070   19.9750 C   0  0  0  0  0  0  0  0  0  0  0  0
   10.7749    1.1966   24.7417 C   0  0  0  0  0  0  0  0  0  0  0  0
    9.1280   -1.2090   23.4870 C   0  0  0  0  0  0  0  0  0  0  0  0
    5.7970    0.9500   18.6730 C   0  0  0  0  0  0  0  0  0  0  0  0
    8.3450   -3.3440   25.0980 C   0  0  0  0  0  0  0  0  0  0  0  0
    7.2710   -0.1460   19.8310 C   0  0  0  0  0  0  0  0  0  0  0  0
    9.0430    0.2380   21.4940 C   0  0  0  0  0  0  0  0  0  0  0  0
    7.9496   -4.9537   28.7345 C   0  0  0  0  0  0  0  0  0  0  0  0
    6.8919   -4.0607   28.0818 C   0  0  0  0  0  0  0  0  0  0  0  0
    9.2470   -4.9693   27.9230 C   0  0  0  0  0  0  0  0  0  0  0  0
    6.6889   -4.4385   26.6147 C   0  0  0  0  0  0  0  0  0  0  0  0
    8.9871   -5.3207   26.4549 C   0  0  0  0  0  0  0  0  0  0  0  0
    9.6852    1.2097   23.6944 C   0  0  0  0  0  0  0  0  0  0  0  0
    9.5820   -0.1080   22.7000 C   0  0  1  0  0  0  0  0  0  0  0  0
    7.5840   -0.2700   18.5160 N   0  0  0  0  0  0  0  0  0  0  0  0
    6.7100    0.3850   17.8100 N   0  0  0  0  0  0  0  0  0  0  0  0
    7.9769   -4.4027   25.9163 N   0  0  0  0  0  0  0  0  0  0  0  0
    8.0950   -0.7700   20.8440 N   0  0  0  0  0  0  0  0  0  0  0  0
    9.2950    1.3000   20.9480 O   0  0  0  0  0  0  0  0  0  0  0  0
   13.5704    1.1625   27.4260 H   0  0  0  0  0  0  0  0  0  0  0  0
    3.6223    2.0725   21.6574 H   0  0  0  0  0  0  0  0  0  0  0  0
   11.4498    2.3753   27.8588 H   0  0  0  0  0  0  0  0  0  0  0  0
   13.9015   -0.0282   25.2743 H   0  0  0  0  0  0  0  0  0  0  0  0
    2.9864    2.6933   19.3609 H   0  0  0  0  0  0  0  0  0  0  0  0
    5.6689    0.7392   22.0836 H   0  0  0  0  0  0  0  0  0  0  0  0
    9.6629    2.3997   26.1496 H   0  0  0  0  0  0  0  0  0  0  0  0
   12.1210   -0.0097   23.5589 H   0  0  0  0  0  0  0  0  0  0  0  0
   10.2684   -2.6719   22.3867 H   0  0  0  0  0  0  0  0  0  0  0  0
    7.8717   -0.0016   24.7596 H   0  0  0  0  0  0  0  0  0  0  0  0
    4.3807    2.0116   17.4186 H   0  0  0  0  0  0  0  0  0  0  0  0
    9.5443   -4.5616   23.7817 H   0  0  0  0  0  0  0  0  0  0  0  0
    7.1921   -1.8821   26.1908 H   0  0  0  0  0  0  0  0  0  0  0  0
    8.1558   -4.5961   29.7550 H   0  0  0  0  0  0  0  0  0  0  0  0
    7.5611   -5.9778   28.8324 H   0  0  0  0  0  0  0  0  0  0  0  0
    5.9459   -4.1594   28.6209 H   0  0  0  0  0  0  0  0  0  0  0  0
    7.2011   -3.0160   28.1536 H   0  0  0  0  0  0  0  0  0  0  0  0
    9.7290   -3.9880   27.9846 H   0  0  0  0  0  0  0  0  0  0  0  0
    9.9437   -5.6964   28.3562 H   0  0  0  0  0  0  0  0  0  0  0  0
    6.2543   -5.4402   26.5659 H   0  0  0  0  0  0  0  0  0  0  0  0
    5.9909   -3.7397   26.1451 H   0  0  0  0  0  0  0  0  0  0  0  0
    9.9128   -5.2367   25.8843 H   0  0  0  0  0  0  0  0  0  0  0  0
    8.6365   -6.3517   26.3987 H   0  0  0  0  0  0  0  0  0  0  0  0
    8.7197    1.4079   24.1780 H   0  0  0  0  0  0  0  0  0  0  0  0
    9.8623    2.0699   23.0340 H   0  0  0  0  0  0  0  0  0  0  0  0
   10.7567   -0.2690   22.5478 H   0  0  0  0  0  0  0  0  0  0  0  0
    6.7486    0.4313   16.8331 H   0  0  0  0  0  0  0  0  0  0  0  0
    8.0917   -1.6083   21.0911 H   0  0  0  0  0  0  0  0  0  0  0  0
  1  3  1  0  0  0  0
  1  4  2  0  0  0  0
  2  5  1  0  0  0  0
  2  6  2  0  0  0  0
  3  7  2  0  0  0  0
  4  8  1  0  0  0  0
  5 11  2  0  0  0  0
  6 14  1  0  0  0  0
  7 15  1  0  0  0  0
  8 15  2  0  0  0  0
  9 12  2  0  0  0  0
  9 16  1  0  0  0  0
 10 13  1  0  0  0  0
 10 16  2  0  0  0  0
 11 17  1  0  0  0  0
 12 18  1  0  0  0  0
 13 18  2  0  0  0  0
 14 17  2  0  0  0  0
 14 19  1  0  0  0  0
 15 26  1  0  0  0  0
 16 27  1  0  0  0  0
 17 29  1  0  0  0  0
 18 30  1  0  0  0  0
 19 28  2  0  0  0  0
 19 31  1  0  0  0  0
 20 27  1  1  0  0  0
 20 31  1  0  0  0  0
 20 32  2  0  0  0  0
 21 22  1  0  0  0  0
 21 23  1  0  0  0  0
 22 24  1  0  0  0  0
 23 25  1  0  0  0  0
 24 30  1  0  0  0  0
 25 30  1  0  0  0  0
 26 27  1  0  0  0  0
 28 29  1  0  0  0  0
  1 33  1  0  0  0  0
  2 34  1  0  0  0  0
  3 35  1  0  0  0  0
  4 36  1  0  0  0  0
  5 37  1  0  0  0  0
  6 38  1  0  0  0  0
  7 39  1  0  0  0  0
  8 40  1  0  0  0  0
  9 41  1  0  0  0  0
 10 42  1  0  0  0  0
 11 43  1  0  0  0  0
 12 44  1  0  0  0  0
 13 45  1  0  0  0  0
 21 46  1  0  0  0  0
 21 47  1  0  0  0  0
 22 48  1  0  0  0  0
 22 49  1  0  0  0  0
 23 50  1  0  0  0  0
 23 51  1  0  0  0  0
 24 52  1  0  0  0  0
 24 53  1  0  0  0  0
 25 54  1  0  0  0  0
 25 55  1  0  0  0  0
 26 56  1  0  0  0  0
 26 57  1  0  0  0  0
 27 58  1  0  0  0  0
 29 59  1  0  0  0  0
 31 60  1  0  0  0  0
M  END
> <clash_score>
4.412390761190569

> <docking_score>
-3.728550434112549

> <overlap_score>
0.8484475016593933

$$$$
BENZO_230_1
  -OEChem-08232013533D

 55 58  0     1  0  0  0  0  0999 V2000
    4.2460    1.7520   20.8250 C   0  0  0  0  0  0  0  0  0  0  0  0
    3.8860    2.1050   19.5250 C   0  0  0  0  0  0  0  0  0  0  0  0
   13.7696   -1.3331   25.2040 C   0  0  0  0  0  0  0  0  0  0  0  0
    5.3890    1.0010   21.0690 C   0  0  0  0  0  0  0  0  0  0  0  0
   13.1260   -1.1377   23.9821 C   0  0  0  0  0  0  0  0  0  0  0  0
    9.5890   -2.4950   23.2210 C   0  0  0  0  0  0  0  0  0  0  0  0
    8.2550   -1.0010   24.5520 C   0  0  0  0  0  0  0  0  0  0  0  0
    4.6610    1.7170   18.4380 C   0  0  0  0  0  0  0  0  0  0  0  0
    9.1890   -3.5540   24.0140 C   0  0  0  0  0  0  0  0  0  0  0  0
    7.8700   -2.0610   25.3550 C   0  0  0  0  0  0  0  0  0  0  0  0
   13.2109   -0.8232   26.3761 C   0  0  0  0  0  0  0  0  0  0  0  0
   11.3649    0.0776   25.1042 C   0  0  0  0  0  0  0  0  0  0  0  0
    6.1460    0.6070   19.9750 C   0  0  0  0  0  0  0  0  0  0  0  0
    9.1280   -1.2090   23.4870 C   0  0  0  0  0  0  0  0  0  0  0  0
   11.9236   -0.4323   23.9322 C   0  0  0  0  0  0  0  0  0  0  0  0
    5.7970    0.9500   18.6730 C   0  0  0  0  0  0  0  0  0  0  0  0
    8.3450   -3.3440   25.0980 C   0  0  0  0  0  0  0  0  0  0  0  0
   12.0086   -0.1179   26.3261 C   0  0  0  0  0  0  0  0  0  0  0  0
    7.2710   -0.1460   19.8310 C   0  0  0  0  0  0  0  0  0  0  0  0
    7.6593   -4.3758   27.2873 C   0  0  0  0  0  0  0  0  0  0  0  0
    9.0430    0.2380   21.4940 C   0  0  0  0  0  0  0  0  0  0  0  0
    8.4365   -6.7636   27.6037 C   0  0  0  0  0  0  0  0  0  0  0  0
   11.2273   -0.2199   22.6076 C   0  0  0  0  0  0  0  0  0  0  0  0
    7.3104   -5.7647   27.8012 C   0  0  0  0  0  0  0  0  0  0  0  0
    9.5820   -0.1080   22.7000 C   0  0  1  0  0  0  0  0  0  0  0  0
    7.5840   -0.2700   18.5160 N   0  0  0  0  0  0  0  0  0  0  0  0
    6.7100    0.3850   17.8100 N   0  0  0  0  0  0  0  0  0  0  0  0
    7.9771   -4.4057   25.9197 N   0  0  0  0  0  0  0  0  0  0  0  0
    8.0950   -0.7700   20.8440 N   0  0  0  0  0  0  0  0  0  0  0  0
    7.6483   -3.3902   28.0174 O   0  0  0  0  0  0  0  0  0  0  0  0
    9.2950    1.3000   20.9480 O   0  0  0  0  0  0  0  0  0  0  0  0
   11.3203    0.5119   27.7723 Cl  0  0  0  0  0  0  0  0  0  0  0  0
    3.6223    2.0725   21.6574 H   0  0  0  0  0  0  0  0  0  0  0  0
    2.9864    2.6933   19.3609 H   0  0  0  0  0  0  0  0  0  0  0  0
   14.7060   -1.8822   25.2425 H   0  0  0  0  0  0  0  0  0  0  0  0
    5.6689    0.7392   22.0836 H   0  0  0  0  0  0  0  0  0  0  0  0
   13.5686   -1.5384   23.0739 H   0  0  0  0  0  0  0  0  0  0  0  0
   10.2695   -2.6718   22.3873 H   0  0  0  0  0  0  0  0  0  0  0  0
    7.8712   -0.0014   24.7587 H   0  0  0  0  0  0  0  0  0  0  0  0
    4.3807    2.0116   17.4186 H   0  0  0  0  0  0  0  0  0  0  0  0
    9.5431   -4.5618   23.7801 H   0  0  0  0  0  0  0  0  0  0  0  0
    7.1923   -1.8823   26.1912 H   0  0  0  0  0  0  0  0  0  0  0  0
   13.7238   -0.9829   27.3213 H   0  0  0  0  0  0  0  0  0  0  0  0
   10.4270    0.6263   25.0600 H   0  0  0  0  0  0  0  0  0  0  0  0
    8.6970   -6.8581   26.5443 H   0  0  0  0  0  0  0  0  0  0  0  0
    8.1395   -7.7503   27.9721 H   0  0  0  0  0  0  0  0  0  0  0  0
    9.3366   -6.4533   28.1444 H   0  0  0  0  0  0  0  0  0  0  0  0
   11.5842    0.7149   22.1561 H   0  0  0  0  0  0  0  0  0  0  0  0
   11.5525   -1.0164   21.9239 H   0  0  0  0  0  0  0  0  0  0  0  0
    7.0709   -5.6903   28.8682 H   0  0  0  0  0  0  0  0  0  0  0  0
    6.4146   -6.1149   27.2756 H   0  0  0  0  0  0  0  0  0  0  0  0
    9.5374    0.8439   23.4178 H   0  0  0  0  0  0  0  0  0  0  0  0
    6.7486    0.4313   16.8331 H   0  0  0  0  0  0  0  0  0  0  0  0
    7.9295   -5.3300   25.4752 H   0  0  0  0  0  0  0  0  0  0  0  0
    8.0757   -1.6162   21.0774 H   0  0  0  0  0  0  0  0  0  0  0  0
  1  2  1  0  0  0  0
  1  4  2  0  0  0  0
  2  8  2  0  0  0  0
  3  5  2  0  0  0  0
  3 11  1  0  0  0  0
  4 13  1  0  0  0  0
  5 15  1  0  0  0  0
  6  9  2  0  0  0  0
  6 14  1  0  0  0  0
  7 10  1  0  0  0  0
  7 14  2  0  0  0  0
  8 16  1  0  0  0  0
  9 17  1  0  0  0  0
 10 17  2  0  0  0  0
 11 18  2  0  0  0  0
 12 15  2  0  0  0  0
 12 18  1  0  0  0  0
 13 16  2  0  0  0  0
 13 19  1  0  0  0  0
 14 25  1  0  0  0  0
 15 23  1  0  0  0  0
 16 27  1  0  0  0  0
 17 28  1  0  0  0  0
 18 32  1  0  0  0  0
 19 26  2  0  0  0  0
 19 29  1  0  0  0  0
 20 24  1  0  0  0  0
 20 28  1  0  0  0  0
 20 30  2  0  0  0  0
 21 25  1  0  0  0  0
 21 29  1  0  0  0  0
 21 31  2  0  0  0  0
 22 24  1  0  0  0  0
 23 25  1  1  0  0  0
 26 27  1  0  0  0  0
  1 33  1  0  0  0  0
  2 34  1  0  0  0  0
  3 35  1  0  0  0  0
  4 36  1  0  0  0  0
  5 37  1  0  0  0  0
  6 38  1  0  0  0  0
  7 39  1  0  0  0  0
  8 40  1  0  0  0  0
  9 41  1  0  0  0  0
 10 42  1  0  0  0  0
 11 43  1  0  0  0  0
 12 44  1  0  0  0  0
 22 45  1  0  0  0  0
 22 46  1  0  0  0  0
 22 47  1  0  0  0  0
 23 48  1  0  0  0  0
 23 49  1  0  0  0  0
 24 50  1  0  0  0  0
 24 51  1  0  0  0  0
 25 52  1  0  0  0  0
 27 53  1  0  0  0  0
 28 54  1  0  0  0  0
 29 55  1  0  0  0  0
M  END
> <clash_score>
0.7019244850424641

> <docking_score>
-4.101374626159668

> <overlap_score>
0.9139860272407532

$$$$
BENZO_233_2
  -OEChem-08232013533D

 60 64  0     1  0  0  0  0  0999 V2000
   13.2443   -0.7791   26.3598 C   0  0  0  0  0  0  0  0  0  0  0  0
    4.2460    1.7520   20.8250 C   0  0  0  0  0  0  0  0  0  0  0  0
   13.7975   -1.2944   25.1876 C   0  0  0  0  0  0  0  0  0  0  0  0
   12.0380   -0.0803   26.3132 C   0  0  0  0  0  0  0  0  0  0  0  0
    3.8860    2.1050   19.5250 C   0  0  0  0  0  0  0  0  0  0  0  0
    5.3890    1.0010   21.0690 C   0  0  0  0  0  0  0  0  0  0  0  0
   13.1445   -1.1108   23.9688 C   0  0  0  0  0  0  0  0  0  0  0  0
   11.3850    0.1033   25.0944 C   0  0  0  0  0  0  0  0  0  0  0  0
    9.5890   -2.4950   23.2210 C   0  0  0  0  0  0  0  0  0  0  0  0
    8.2550   -1.0010   24.5520 C   0  0  0  0  0  0  0  0  0  0  0  0
    4.6610    1.7170   18.4380 C   0  0  0  0  0  0  0  0  0  0  0  0
    9.1890   -3.5540   24.0140 C   0  0  0  0  0  0  0  0  0  0  0  0
    7.8700   -2.0610   25.3550 C   0  0  0  0  0  0  0  0  0  0  0  0
    6.1460    0.6070   19.9750 C   0  0  0  0  0  0  0  0  0  0  0  0
   11.9382   -0.4119   23.9222 C   0  0  0  0  0  0  0  0  0  0  0  0
    9.1280   -1.2090   23.4870 C   0  0  0  0  0  0  0  0  0  0  0  0
    5.7970    0.9500   18.6730 C   0  0  0  0  0  0  0  0  0  0  0  0
    8.3450   -3.3440   25.0980 C   0  0  0  0  0  0  0  0  0  0  0  0
    7.2710   -0.1460   19.8310 C   0  0  0  0  0  0  0  0  0  0  0  0
    9.0430    0.2380   21.4940 C   0  0  0  0  0  0  0  0  0  0  0  0
    7.9496   -4.9537   28.7345 C   0  0  0  0  0  0  0  0  0  0  0  0
    6.8919   -4.0607   28.0818 C   0  0  0  0  0  0  0  0  0  0  0  0
    9.2470   -4.9693   27.9230 C   0  0  0  0  0  0  0  0  0  0  0  0
    6.6889   -4.4385   26.6147 C   0  0  0  0  0  0  0  0  0  0  0  0
    8.9871   -5.3207   26.4549 C   0  0  0  0  0  0  0  0  0  0  0  0
   11.2301   -0.2124   22.6019 C   0  0  0  0  0  0  0  0  0  0  0  0
    9.5820   -0.1080   22.7000 C   0  0  2  0  0  0  0  0  0  0  0  0
    7.5840   -0.2700   18.5160 N   0  0  0  0  0  0  0  0  0  0  0  0
    6.7100    0.3850   17.8100 N   0  0  0  0  0  0  0  0  0  0  0  0
    7.9769   -4.4027   25.9163 N   0  0  0  0  0  0  0  0  0  0  0  0
    8.0950   -0.7700   20.8440 N   0  0  0  0  0  0  0  0  0  0  0  0
    9.2950    1.3000   20.9480 O   0  0  0  0  0  0  0  0  0  0  0  0
   13.7523   -0.9233   27.3089 H   0  0  0  0  0  0  0  0  0  0  0  0
    3.6223    2.0725   21.6574 H   0  0  0  0  0  0  0  0  0  0  0  0
   14.7362   -1.8395   25.2238 H   0  0  0  0  0  0  0  0  0  0  0  0
   11.6065    0.3201   27.2258 H   0  0  0  0  0  0  0  0  0  0  0  0
    2.9864    2.6933   19.3609 H   0  0  0  0  0  0  0  0  0  0  0  0
    5.6689    0.7392   22.0836 H   0  0  0  0  0  0  0  0  0  0  0  0
   13.5830   -1.5156   23.0605 H   0  0  0  0  0  0  0  0  0  0  0  0
   10.4456    0.6492   25.0677 H   0  0  0  0  0  0  0  0  0  0  0  0
   10.2684   -2.6719   22.3867 H   0  0  0  0  0  0  0  0  0  0  0  0
    7.8717   -0.0016   24.7596 H   0  0  0  0  0  0  0  0  0  0  0  0
    4.3807    2.0116   17.4186 H   0  0  0  0  0  0  0  0  0  0  0  0
    9.5443   -4.5616   23.7817 H   0  0  0  0  0  0  0  0  0  0  0  0
    7.1921   -1.8821   26.1908 H   0  0  0  0  0  0  0  0  0  0  0  0
    8.1558   -4.5961   29.7550 H   0  0  0  0  0  0  0  0  0  0  0  0
    7.5611   -5.9778   28.8324 H   0  0  0  0  0  0  0  0  0  0  0  0
    5.9459   -4.1594   28.6209 H   0  0  0  0  0  0  0  0  0  0  0  0
    7.2011   -3.0160   28.1536 H   0  0  0  0  0  0  0  0  0  0  0  0
    9.7290   -3.9880   27.9846 H   0  0  0  0  0  0  0  0  0  0  0  0
    9.9437   -5.6964   28.3562 H   0  0  0  0  0  0  0  0  0  0  0  0
    6.2543   -5.4402   26.5659 H   0  0  0  0  0  0  0  0  0  0  0  0
    5.9909   -3.7397   26.1451 H   0  0  0  0  0  0  0  0  0  0  0  0
    9.9128   -5.2367   25.8843 H   0  0  0  0  0  0  0  0  0  0  0  0
    8.6365   -6.3517   26.3987 H   0  0  0  0  0  0  0  0  0  0  0  0
   11.5792    0.7206   22.1405 H   0  0  0  0  0  0  0  0  0  0  0  0
   11.5533   -1.0125   21.9215 H   0  0  0  0  0  0  0  0  0  0  0  0
    9.5402    0.8508   23.4127 H   0  0  0  0  0  0  0  0  0  0  0  0
    6.7486    0.4313   16.8331 H   0  0  0  0  0  0  0  0  0  0  0  0
    8.0917   -1.6083   21.0911 H   0  0  0  0  0  0  0  0  0  0  0  0
  1  3  1  0  0  0  0
  1  4  2  0  0  0  0
  2  5  1  0  0  0  0
  2  6  2  0  0  0  0
  3  7  2  0  0  0  0
  4  8  1  0  0  0  0
  5 11  2  0  0  0  0
  6 14  1  0  0  0  0
  7 15  1  0  0  0  0
  8 15  2  0  0  0  0
  9 12  2  0  0  0  0
  9 16  1  0  0  0  0
 10 13  1  0  0  0  0
 10 16  2  0  0  0  0
 11 17  1  0  0  0  0
 12 18  1  0  0  0  0
 13 18  2  0  0  0  0
 14 17  2  0  0  0  0
 14 19  1  0  0  0  0
 15 26  1  0  0  0  0
 16 27  1  0  0  0  0
 17 29  1  0  0  0  0
 18 30  1  0  0  0  0
 19 28  2  0  0  0  0
 19 31  1  0  0  0  0
 20 27  1  6  0  0  0
 20 31  1  0  0  0  0
 20 32  2  0  0  0  0
 21 22  1  0  0  0  0
 21 23  1  0  0  0  0
 22 24  1  0  0  0  0
 23 25  1  0  0  0  0
 24 30  1  0  0  0  0
 25 30  1  0  0  0  0
 26 27  1  0  0  0  0
 28 29  1  0  0  0  0
  1 33  1  0  0  0  0
  2 34  1  0  0  0  0
  3 35  1  0  0  0  0
  4 36  1  0  0  0  0
  5 37  1  0  0  0  0
  6 38  1  0  0  0  0
  7 39  1  0  0  0  0
  8 40  1  0  0  0  0
  9 41  1  0  0  0  0
 10 42  1  0  0  0  0
 11 43  1  0  0  0  0
 12 44  1  0  0  0  0
 13 45  1  0  0  0  0
 21 46  1  0  0  0  0
 21 47  1  0  0  0  0
 22 48  1  0  0  0  0
 22 49  1  0  0  0  0
 23 50  1  0  0  0  0
 23 51  1  0  0  0  0
 24 52  1  0  0  0  0
 24 53  1  0  0  0  0
 25 54  1  0  0  0  0
 25 55  1  0  0  0  0
 26 56  1  0  0  0  0
 26 57  1  0  0  0  0
 27 58  1  0  0  0  0
 29 59  1  0  0  0  0
 31 60  1  0  0  0  0
M  END
> <clash_score>
0

> <docking_score>
-5.632312297821045

> <overlap_score>
0.9206491112709045

$$$$
BENZO_232_1
  -OEChem-08232013533D

 57 61  0     1  0  0  0  0  0999 V2000
    4.2460    1.7520   20.8250 C   0  0  0  0  0  0  0  0  0  0  0  0
    3.8860    2.1050   19.5250 C   0  0  0  0  0  0  0  0  0  0  0  0
    5.3890    1.0010   21.0690 C   0  0  0  0  0  0  0  0  0  0  0  0
    9.5890   -2.4950   23.2210 C   0  0  0  0  0  0  0  0  0  0  0  0
    8.2550   -1.0010   24.5520 C   0  0  0  0  0  0  0  0  0  0  0  0
    4.6610    1.7170   18.4380 C   0  0  0  0  0  0  0  0  0  0  0  0
    9.1890   -3.5540   24.0140 C   0  0  0  0  0  0  0  0  0  0  0  0
    7.8700   -2.0610   25.3550 C   0  0  0  0  0  0  0  0  0  0  0  0
   12.1512    0.9670   24.4534 C   0  0  0  0  0  0  0  0  0  0  0  0
   12.9313    1.0078   25.5880 C   0  0  0  0  0  0  0  0  0  0  0  0
   10.5554    1.4038   26.0859 C   0  0  0  0  0  0  0  0  0  0  0  0
    6.1460    0.6070   19.9750 C   0  0  0  0  0  0  0  0  0  0  0  0
    9.1280   -1.2090   23.4870 C   0  0  0  0  0  0  0  0  0  0  0  0
   10.7749    1.1966   24.7417 C   0  0  0  0  0  0  0  0  0  0  0  0
    5.7970    0.9500   18.6730 C   0  0  0  0  0  0  0  0  0  0  0  0
    8.3450   -3.3440   25.0980 C   0  0  0  0  0  0  0  0  0  0  0  0
    7.2710   -0.1460   19.8310 C   0  0  0  0  0  0  0  0  0  0  0  0
    9.0430    0.2380   21.4940 C   0  0  0  0  0  0  0  0  0  0  0  0
    7.5761   -4.8248   28.7286 C   0  0  0  0  0  0  0  0  0  0  0  0
    8.9786   -4.7540   28.1202 C   0  0  0  0  0  0  0  0  0  0  0  0
    6.5567   -4.0681   27.8739 C   0  0  0  0  0  0  0  0  0  0  0  0
    8.9617   -5.1961   26.6571 C   0  0  0  0  0  0  0  0  0  0  0  0
    6.6010   -4.5235   26.4120 C   0  0  0  0  0  0  0  0  0  0  0  0
    9.6852    1.2097   23.6944 C   0  0  0  0  0  0  0  0  0  0  0  0
    9.5820   -0.1080   22.7000 C   0  0  1  0  0  0  0  0  0  0  0  0
    7.5840   -0.2700   18.5160 N   0  0  0  0  0  0  0  0  0  0  0  0
    6.7100    0.3850   17.8100 N   0  0  0  0  0  0  0  0  0  0  0  0
    7.9769   -4.4028   25.9163 N   0  0  0  0  0  0  0  0  0  0  0  0
    8.0950   -0.7700   20.8440 N   0  0  0  0  0  0  0  0  0  0  0  0
    9.2950    1.3000   20.9480 O   0  0  0  0  0  0  0  0  0  0  0  0
   12.0050    1.3216   26.9937 S   0  0  0  0  0  0  0  0  0  0  0  0
    3.6223    2.0725   21.6574 H   0  0  0  0  0  0  0  0  0  0  0  0
    2.9864    2.6933   19.3609 H   0  0  0  0  0  0  0  0  0  0  0  0
    5.6689    0.7392   22.0836 H   0  0  0  0  0  0  0  0  0  0  0  0
   10.2684   -2.6719   22.3867 H   0  0  0  0  0  0  0  0  0  0  0  0
    7.8717   -0.0016   24.7596 H   0  0  0  0  0  0  0  0  0  0  0  0
    4.3807    2.0116   17.4186 H   0  0  0  0  0  0  0  0  0  0  0  0
    9.5443   -4.5616   23.7817 H   0  0  0  0  0  0  0  0  0  0  0  0
    7.1921   -1.8821   26.1908 H   0  0  0  0  0  0  0  0  0  0  0  0
   12.5530    0.7806   23.4654 H   0  0  0  0  0  0  0  0  0  0  0  0
   14.0007    0.8676   25.6589 H   0  0  0  0  0  0  0  0  0  0  0  0
    9.6149    1.5987   26.5824 H   0  0  0  0  0  0  0  0  0  0  0  0
    7.2686   -5.8772   28.8258 H   0  0  0  0  0  0  0  0  0  0  0  0
    7.5913   -4.4060   29.7452 H   0  0  0  0  0  0  0  0  0  0  0  0
    9.3572   -3.7308   28.1906 H   0  0  0  0  0  0  0  0  0  0  0  0
    9.6566   -5.3928   28.6900 H   0  0  0  0  0  0  0  0  0  0  0  0
    5.5511   -4.2278   28.2766 H   0  0  0  0  0  0  0  0  0  0  0  0
    6.7568   -2.9917   27.9288 H   0  0  0  0  0  0  0  0  0  0  0  0
    9.9607   -5.0572   26.2357 H   0  0  0  0  0  0  0  0  0  0  0  0
    8.7084   -6.2581   26.5936 H   0  0  0  0  0  0  0  0  0  0  0  0
    6.2641   -5.5580   26.3358 H   0  0  0  0  0  0  0  0  0  0  0  0
    5.9273   -3.8947   25.8292 H   0  0  0  0  0  0  0  0  0  0  0  0
    8.7197    1.4079   24.1780 H   0  0  0  0  0  0  0  0  0  0  0  0
    9.8623    2.0699   23.0340 H   0  0  0  0  0  0  0  0  0  0  0  0
   10.7567   -0.2690   22.5478 H   0  0  0  0  0  0  0  0  0  0  0  0
    6.7486    0.4313   16.8331 H   0  0  0  0  0  0  0  0  0  0  0  0
    8.0917   -1.6083   21.0911 H   0  0  0  0  0  0  0  0  0  0  0  0
  1  2  1  0  0  0  0
  1  3  2  0  0  0  0
  2  6  2  0  0  0  0
  3 12  1  0  0  0  0
  4  7  2  0  0  0  0
  4 13  1  0  0  0  0
  5  8  1  0  0  0  0
  5 13  2  0  0  0  0
  6 15  1  0  0  0  0
  7 16  1  0  0  0  0
  8 16  2  0  0  0  0
  9 10  2  0  0  0  0
  9 14  1  0  0  0  0
 10 31  1  0  0  0  0
 11 14  2  0  0  0  0
 11 31  1  0  0  0  0
 12 15  2  0  0  0  0
 12 17  1  0  0  0  0
 13 25  1  0  0  0  0
 14 24  1  0  0  0  0
 15 27  1  0  0  0  0
 16 28  1  0  0  0  0
 17 26  2  0  0  0  0
 17 29  1  0  0  0  0
 18 25  1  1  0  0  0
 18 29  1  0  0  0  0
 18 30  2  0  0  0  0
 19 20  1  0  0  0  0
 19 21  1  0  0  0  0
 20 22  1  0  0  0  0
 21 23  1  0  0  0  0
 22 28  1  0  0  0  0
 23 28  1  0  0  0  0
 24 25  1  0  0  0  0
 26 27  1  0  0  0  0
  1 32  1  0  0  0  0
  2 33  1  0  0  0  0
  3 34  1  0  0  0  0
  4 35  1  0  0  0  0
  5 36  1  0  0  0  0
  6 37  1  0  0  0  0
  7 38  1  0  0  0  0
  8 39  1  0  0  0  0
  9 40  1  0  0  0  0
 10 41  1  0  0  0  0
 11 42  1  0  0  0  0
 19 43  1  0  0  0  0
 19 44  1  0  0  0  0
 20 45  1  0  0  0  0
 20 46  1  0  0  0  0
 21 47  1  0  0  0  0
 21 48  1  0  0  0  0
 22 49  1  0  0  0  0
 22 50  1  0  0  0  0
 23 51  1  0  0  0  0
 23 52  1  0  0  0  0
 24 53  1  0  0  0  0
 24 54  1  0  0  0  0
 25 55  1  0  0  0  0
 27 56  1  0  0  0  0
 29 57  1  0  0  0  0
M  END
> <clash_score>
2.6880314190474834

> <docking_score>
-4.138540744781494

> <overlap_score>
0.8419069051742554

$$$$
BENZO_232_2
  -OEChem-08232013533D

 57 61  0     1  0  0  0  0  0999 V2000
    4.2460    1.7520   20.8250 C   0  0  0  0  0  0  0  0  0  0  0  0
    3.8860    2.1050   19.5250 C   0  0  0  0  0  0  0  0  0  0  0  0
    5.3890    1.0010   21.0690 C   0  0  0  0  0  0  0  0  0  0  0  0
    9.5890   -2.4950   23.2210 C   0  0  0  0  0  0  0  0  0  0  0  0
    8.2550   -1.0010   24.5520 C   0  0  0  0  0  0  0  0  0  0  0  0
    4.6610    1.7170   18.4380 C   0  0  0  0  0  0  0  0  0  0  0  0
    9.1890   -3.5540   24.0140 C   0  0  0  0  0  0  0  0  0  0  0  0
    7.8700   -2.0610   25.3550 C   0  0  0  0  0  0  0  0  0  0  0  0
   13.2184   -0.5267   24.2342 C   0  0  0  0  0  0  0  0  0  0  0  0
   13.6684   -0.1076   25.4669 C   0  0  0  0  0  0  0  0  0  0  0  0
   11.5072    0.9085   24.8781 C   0  0  0  0  0  0  0  0  0  0  0  0
    6.1460    0.6070   19.9750 C   0  0  0  0  0  0  0  0  0  0  0  0
    9.1280   -1.2090   23.4870 C   0  0  0  0  0  0  0  0  0  0  0  0
   11.9665    0.0619   23.8930 C   0  0  0  0  0  0  0  0  0  0  0  0
    5.7970    0.9500   18.6730 C   0  0  0  0  0  0  0  0  0  0  0  0
    8.3450   -3.3440   25.0980 C   0  0  0  0  0  0  0  0  0  0  0  0
    7.2710   -0.1460   19.8310 C   0  0  0  0  0  0  0  0  0  0  0  0
    9.0430    0.2380   21.4940 C   0  0  0  0  0  0  0  0  0  0  0  0
    7.5761   -4.8248   28.7286 C   0  0  0  0  0  0  0  0  0  0  0  0
    8.9786   -4.7540   28.1202 C   0  0  0  0  0  0  0  0  0  0  0  0
    6.5567   -4.0681   27.8739 C   0  0  0  0  0  0  0  0  0  0  0  0
    8.9617   -5.1961   26.6571 C   0  0  0  0  0  0  0  0  0  0  0  0
    6.6010   -4.5235   26.4120 C   0  0  0  0  0  0  0  0  0  0  0  0
   11.2301   -0.2124   22.6019 C   0  0  0  0  0  0  0  0  0  0  0  0
    9.5820   -0.1080   22.7000 C   0  0  2  0  0  0  0  0  0  0  0  0
    7.5840   -0.2700   18.5160 N   0  0  0  0  0  0  0  0  0  0  0  0
    6.7100    0.3850   17.8100 N   0  0  0  0  0  0  0  0  0  0  0  0
    7.9769   -4.4028   25.9163 N   0  0  0  0  0  0  0  0  0  0  0  0
    8.0950   -0.7700   20.8440 N   0  0  0  0  0  0  0  0  0  0  0  0
    9.2950    1.3000   20.9480 O   0  0  0  0  0  0  0  0  0  0  0  0
   12.5835    0.9912   26.2073 S   0  0  0  0  0  0  0  0  0  0  0  0
    3.6223    2.0725   21.6574 H   0  0  0  0  0  0  0  0  0  0  0  0
    2.9864    2.6933   19.3609 H   0  0  0  0  0  0  0  0  0  0  0  0
    5.6689    0.7392   22.0836 H   0  0  0  0  0  0  0  0  0  0  0  0
   10.2684   -2.6719   22.3867 H   0  0  0  0  0  0  0  0  0  0  0  0
    7.8717   -0.0016   24.7596 H   0  0  0  0  0  0  0  0  0  0  0  0
    4.3807    2.0116   17.4186 H   0  0  0  0  0  0  0  0  0  0  0  0
    9.5443   -4.5616   23.7817 H   0  0  0  0  0  0  0  0  0  0  0  0
    7.1921   -1.8821   26.1908 H   0  0  0  0  0  0  0  0  0  0  0  0
   13.7644   -1.2231   23.6104 H   0  0  0  0  0  0  0  0  0  0  0  0
   14.5818   -0.3944   25.9683 H   0  0  0  0  0  0  0  0  0  0  0  0
   10.5914    1.4831   24.8852 H   0  0  0  0  0  0  0  0  0  0  0  0
    7.2686   -5.8772   28.8258 H   0  0  0  0  0  0  0  0  0  0  0  0
    7.5913   -4.4060   29.7452 H   0  0  0  0  0  0  0  0  0  0  0  0
    9.3572   -3.7308   28.1906 H   0  0  0  0  0  0  0  0  0  0  0  0
    9.6566   -5.3928   28.6900 H   0  0  0  0  0  0  0  0  0  0  0  0
    5.5511   -4.2278   28.2766 H   0  0  0  0  0  0  0  0  0  0  0  0
    6.7568   -2.9917   27.9288 H   0  0  0  0  0  0  0  0  0  0  0  0
    9.9607   -5.0572   26.2357 H   0  0  0  0  0  0  0  0  0  0  0  0
    8.7084   -6.2581   26.5936 H   0  0  0  0  0  0  0  0  0  0  0  0
    6.2641   -5.5580   26.3358 H   0  0  0  0  0  0  0  0  0  0  0  0
    5.9273   -3.8947   25.8292 H   0  0  0  0  0  0  0  0  0  0  0  0
   11.5483    0.5130   21.8418 H   0  0  0  0  0  0  0  0  0  0  0  0
   11.5601   -1.1911   22.2267 H   0  0  0  0  0  0  0  0  0  0  0  0
    9.5402    0.8508   23.4127 H   0  0  0  0  0  0  0  0  0  0  0  0
    6.7486    0.4313   16.8331 H   0  0  0  0  0  0  0  0  0  0  0  0
    8.0917   -1.6083   21.0911 H   0  0  0  0  0  0  0  0  0  0  0  0
  1  2  1  0  0  0  0
  1  3  2  0  0  0  0
  2  6  2  0  0  0  0
  3 12  1  0  0  0  0
  4  7  2  0  0  0  0
  4 13  1  0  0  0  0
  5  8  1  0  0  0  0
  5 13  2  0  0  0  0
  6 15  1  0  0  0  0
  7 16  1  0  0  0  0
  8 16  2  0  0  0  0
  9 10  2  0  0  0  0
  9 14  1  0  0  0  0
 10 31  1  0  0  0  0
 11 14  2  0  0  0  0
 11 31  1  0  0  0  0
 12 15  2  0  0  0  0
 12 17  1  0  0  0  0
 13 25  1  0  0  0  0
 14 24  1  0  0  0  0
 15 27  1  0  0  0  0
 16 28  1  0  0  0  0
 17 26  2  0  0  0  0
 17 29  1  0  0  0  0
 18 25  1  6  0  0  0
 18 29  1  0  0  0  0
 18 30  2  0  0  0  0
 19 20  1  0  0  0  0
 19 21  1  0  0  0  0
 20 22  1  0  0  0  0
 21 23  1  0  0  0  0
 22 28  1  0  0  0  0
 23 28  1  0  0  0  0
 24 25  1  0  0  0  0
 26 27  1  0  0  0  0
  1 32  1  0  0  0  0
  2 33  1  0  0  0  0
  3 34  1  0  0  0  0
  4 35  1  0  0  0  0
  5 36  1  0  0  0  0
  6 37  1  0  0  0  0
  7 38  1  0  0  0  0
  8 39  1  0  0  0  0
  9 40  1  0  0  0  0
 10 41  1  0  0  0  0
 11 42  1  0  0  0  0
 19 43  1  0  0  0  0
 19 44  1  0  0  0  0
 20 45  1  0  0  0  0
 20 46  1  0  0  0  0
 21 47  1  0  0  0  0
 21 48  1  0  0  0  0
 22 49  1  0  0  0  0
 22 50  1  0  0  0  0
 23 51  1  0  0  0  0
 23 52  1  0  0  0  0
 24 53  1  0  0  0  0
 24 54  1  0  0  0  0
 25 55  1  0  0  0  0
 27 56  1  0  0  0  0
 29 57  1  0  0  0  0
M  END
> <clash_score>
0.7105916266505203

> <docking_score>
-6.197758674621582

> <overlap_score>
0.9129956364631653

$$$$
BENZO_231_1
  -OEChem-08232013533D

 55 58  0     1  0  0  0  0  0999 V2000
    4.2460    1.7520   20.8250 C   0  0  0  0  0  0  0  0  0  0  0  0
    3.8860    2.1050   19.5250 C   0  0  0  0  0  0  0  0  0  0  0  0
    5.3890    1.0010   21.0690 C   0  0  0  0  0  0  0  0  0  0  0  0
    9.5890   -2.4950   23.2210 C   0  0  0  0  0  0  0  0  0  0  0  0
    8.2550   -1.0010   24.5520 C   0  0  0  0  0  0  0  0  0  0  0  0
    4.6610    1.7170   18.4380 C   0  0  0  0  0  0  0  0  0  0  0  0
    9.1890   -3.5540   24.0140 C   0  0  0  0  0  0  0  0  0  0  0  0
    7.8700   -2.0610   25.3550 C   0  0  0  0  0  0  0  0  0  0  0  0
   13.3049   -0.5618   24.1710 C   0  0  0  0  0  0  0  0  0  0  0  0
   11.3488   -0.5397   25.1750 C   0  0  0  0  0  0  0  0  0  0  0  0
    6.1460    0.6070   19.9750 C   0  0  0  0  0  0  0  0  0  0  0  0
    9.1280   -1.2090   23.4870 C   0  0  0  0  0  0  0  0  0  0  0  0
   11.9236   -0.4323   23.9322 C   0  0  0  0  0  0  0  0  0  0  0  0
    5.7970    0.9500   18.6730 C   0  0  0  0  0  0  0  0  0  0  0  0
    8.3450   -3.3440   25.0980 C   0  0  0  0  0  0  0  0  0  0  0  0
    7.2710   -0.1460   19.8310 C   0  0  0  0  0  0  0  0  0  0  0  0
    7.6593   -4.3758   27.2873 C   0  0  0  0  0  0  0  0  0  0  0  0
    9.0430    0.2380   21.4940 C   0  0  0  0  0  0  0  0  0  0  0  0
    6.9938   -5.7787   29.2859 C   0  0  0  0  0  0  0  0  0  0  0  0
   12.2730   -0.8833   27.4785 C   0  0  0  0  0  0  0  0  0  0  0  0
   11.2273   -0.2199   22.6076 C   0  0  0  0  0  0  0  0  0  0  0  0
    7.3104   -5.7647   27.8012 C   0  0  0  0  0  0  0  0  0  0  0  0
    9.5820   -0.1080   22.7000 C   0  0  1  0  0  0  0  0  0  0  0  0
   13.5904   -0.7378   25.4639 N   0  0  0  0  0  0  0  0  0  0  0  0
    7.5840   -0.2700   18.5160 N   0  0  0  0  0  0  0  0  0  0  0  0
    6.7100    0.3850   17.8100 N   0  0  0  0  0  0  0  0  0  0  0  0
   12.3805   -0.7196   26.0486 N   0  0  0  0  0  0  0  0  0  0  0  0
    7.9771   -4.4057   25.9197 N   0  0  0  0  0  0  0  0  0  0  0  0
    8.0950   -0.7700   20.8440 N   0  0  0  0  0  0  0  0  0  0  0  0
    7.6483   -3.3902   28.0174 O   0  0  0  0  0  0  0  0  0  0  0  0
    9.2950    1.3000   20.9480 O   0  0  0  0  0  0  0  0  0  0  0  0
    3.6223    2.0725   21.6574 H   0  0  0  0  0  0  0  0  0  0  0  0
    2.9864    2.6933   19.3609 H   0  0  0  0  0  0  0  0  0  0  0  0
    5.6689    0.7392   22.0836 H   0  0  0  0  0  0  0  0  0  0  0  0
   10.2695   -2.6718   22.3873 H   0  0  0  0  0  0  0  0  0  0  0  0
    7.8712   -0.0014   24.7587 H   0  0  0  0  0  0  0  0  0  0  0  0
    4.3807    2.0116   17.4186 H   0  0  0  0  0  0  0  0  0  0  0  0
    9.5431   -4.5618   23.7801 H   0  0  0  0  0  0  0  0  0  0  0  0
    7.1923   -1.8823   26.1912 H   0  0  0  0  0  0  0  0  0  0  0  0
   14.1173   -0.5347   23.4586 H   0  0  0  0  0  0  0  0  0  0  0  0
   10.3191   -0.5030   25.5040 H   0  0  0  0  0  0  0  0  0  0  0  0
    7.8426   -5.4120   29.8725 H   0  0  0  0  0  0  0  0  0  0  0  0
    6.7635   -6.7961   29.6168 H   0  0  0  0  0  0  0  0  0  0  0  0
    6.1312   -5.1426   29.5100 H   0  0  0  0  0  0  0  0  0  0  0  0
   12.1730   -1.9514   27.6891 H   0  0  0  0  0  0  0  0  0  0  0  0
   13.1690   -0.4811   27.9595 H   0  0  0  0  0  0  0  0  0  0  0  0
   11.3970   -0.3376   27.8399 H   0  0  0  0  0  0  0  0  0  0  0  0
   11.5842    0.7149   22.1561 H   0  0  0  0  0  0  0  0  0  0  0  0
   11.5525   -1.0164   21.9239 H   0  0  0  0  0  0  0  0  0  0  0  0
    6.4454   -6.1358   27.2396 H   0  0  0  0  0  0  0  0  0  0  0  0
    8.1567   -6.4320   27.6014 H   0  0  0  0  0  0  0  0  0  0  0  0
    9.5374    0.8439   23.4178 H   0  0  0  0  0  0  0  0  0  0  0  0
    6.7486    0.4313   16.8331 H   0  0  0  0  0  0  0  0  0  0  0  0
    7.9295   -5.3300   25.4752 H   0  0  0  0  0  0  0  0  0  0  0  0
    8.0757   -1.6162   21.0774 H   0  0  0  0  0  0  0  0  0  0  0  0
  1  2  1  0  0  0  0
  1  3  2  0  0  0  0
  2  6  2  0  0  0  0
  3 11  1  0  0  0  0
  4  7  2  0  0  0  0
  4 12  1  0  0  0  0
  5  8  1  0  0  0  0
  5 12  2  0  0  0  0
  6 14  1  0  0  0  0
  7 15  1  0  0  0  0
  8 15  2  0  0  0  0
  9 13  1  0  0  0  0
  9 24  2  0  0  0  0
 10 13  2  0  0  0  0
 10 27  1  0  0  0  0
 11 14  2  0  0  0  0
 11 16  1  0  0  0  0
 12 23  1  0  0  0  0
 13 21  1  0  0  0  0
 14 26  1  0  0  0  0
 15 28  1  0  0  0  0
 16 25  2  0  0  0  0
 16 29  1  0  0  0  0
 17 22  1  0  0  0  0
 17 28  1  0  0  0  0
 17 30  2  0  0  0  0
 18 23  1  0  0  0  0
 18 29  1  0  0  0  0
 18 31  2  0  0  0  0
 19 22  1  0  0  0  0
 20 27  1  0  0  0  0
 21 23  1  1  0  0  0
 24 27  1  0  0  0  0
 25 26  1  0  0  0  0
  1 32  1  0  0  0  0
  2 33  1  0  0  0  0
  3 34  1  0  0  0  0
  4 35  1  0  0  0  0
  5 36  1  0  0  0  0
  6 37  1  0  0  0  0
  7 38  1  0  0  0  0
  8 39  1  0  0  0  0
  9 40  1  0  0  0  0
 10 41  1  0  0  0  0
 19 42  1  0  0  0  0
 19 43  1  0  0  0  0
 19 44  1  0  0  0  0
 20 45  1  0  0  0  0
 20 46  1  0  0  0  0
 20 47  1  0  0  0  0
 21 48  1  0  0  0  0
 21 49  1  0  0  0  0
 22 50  1  0  0  0  0
 22 51  1  0  0  0  0
 23 52  1  0  0  0  0
 26 53  1  0  0  0  0
 28 54  1  0  0  0  0
 29 55  1  0  0  0  0
M  END
> <clash_score>
0.6627999723505448

> <docking_score>
-6.281249046325684

> <overlap_score>
0.9124913215637207

$$$$
BENZO_231_2
  -OEChem-08232013533D

 55 58  0     1  0  0  0  0  0999 V2000
    4.2460    1.7520   20.8250 C   0  0  0  0  0  0  0  0  0  0  0  0
    3.8860    2.1050   19.5250 C   0  0  0  0  0  0  0  0  0  0  0  0
    5.3890    1.0010   21.0690 C   0  0  0  0  0  0  0  0  0  0  0  0
    9.5890   -2.4950   23.2210 C   0  0  0  0  0  0  0  0  0  0  0  0
    8.2550   -1.0010   24.5520 C   0  0  0  0  0  0  0  0  0  0  0  0
    4.6610    1.7170   18.4380 C   0  0  0  0  0  0  0  0  0  0  0  0
    9.1890   -3.5540   24.0140 C   0  0  0  0  0  0  0  0  0  0  0  0
    7.8700   -2.0610   25.3550 C   0  0  0  0  0  0  0  0  0  0  0  0
   11.9902    2.0095   22.7508 C   0  0  0  0  0  0  0  0  0  0  0  0
   10.7163    3.5749   23.6235 C   0  0  0  0  0  0  0  0  0  0  0  0
    6.1460    0.6070   19.9750 C   0  0  0  0  0  0  0  0  0  0  0  0
    9.1280   -1.2090   23.4870 C   0  0  0  0  0  0  0  0  0  0  0  0
   10.7476    2.2242   23.3766 C   0  0  0  0  0  0  0  0  0  0  0  0
    5.7970    0.9500   18.6730 C   0  0  0  0  0  0  0  0  0  0  0  0
    8.3450   -3.3440   25.0980 C   0  0  0  0  0  0  0  0  0  0  0  0
    7.2710   -0.1460   19.8310 C   0  0  0  0  0  0  0  0  0  0  0  0
    8.2015   -4.5555   27.2978 C   0  0  0  0  0  0  0  0  0  0  0  0
    9.0430    0.2380   21.4940 C   0  0  0  0  0  0  0  0  0  0  0  0
    7.8874   -6.0860   29.2889 C   0  0  0  0  0  0  0  0  0  0  0  0
   12.3234    5.4461   23.1826 C   0  0  0  0  0  0  0  0  0  0  0  0
    9.6841    1.2008   23.7022 C   0  0  0  0  0  0  0  0  0  0  0  0
    7.6339   -5.8719   27.8075 C   0  0  0  0  0  0  0  0  0  0  0  0
    9.5820   -0.1080   22.7000 C   0  0  2  0  0  0  0  0  0  0  0  0
   12.6971    3.1339   22.6087 N   0  0  0  0  0  0  0  0  0  0  0  0
    7.5840   -0.2700   18.5160 N   0  0  0  0  0  0  0  0  0  0  0  0
    6.7100    0.3850   17.8100 N   0  0  0  0  0  0  0  0  0  0  0  0
   11.8960    4.0681   23.1487 N   0  0  0  0  0  0  0  0  0  0  0  0
    7.9771   -4.4057   25.9197 N   0  0  0  0  0  0  0  0  0  0  0  0
    8.0950   -0.7700   20.8440 N   0  0  0  0  0  0  0  0  0  0  0  0
    8.7725   -3.7627   28.0395 O   0  0  0  0  0  0  0  0  0  0  0  0
    9.2950    1.3000   20.9480 O   0  0  0  0  0  0  0  0  0  0  0  0
    3.6223    2.0725   21.6574 H   0  0  0  0  0  0  0  0  0  0  0  0
    2.9864    2.6933   19.3609 H   0  0  0  0  0  0  0  0  0  0  0  0
    5.6689    0.7392   22.0836 H   0  0  0  0  0  0  0  0  0  0  0  0
   10.2695   -2.6718   22.3873 H   0  0  0  0  0  0  0  0  0  0  0  0
    7.8712   -0.0014   24.7587 H   0  0  0  0  0  0  0  0  0  0  0  0
    4.3807    2.0116   17.4186 H   0  0  0  0  0  0  0  0  0  0  0  0
    9.5431   -4.5618   23.7801 H   0  0  0  0  0  0  0  0  0  0  0  0
    7.1923   -1.8823   26.1912 H   0  0  0  0  0  0  0  0  0  0  0  0
   12.4119    1.0818   22.3906 H   0  0  0  0  0  0  0  0  0  0  0  0
    9.9731    4.2116   24.0840 H   0  0  0  0  0  0  0  0  0  0  0  0
    8.9600   -6.0803   29.5092 H   0  0  0  0  0  0  0  0  0  0  0  0
    7.4774   -7.0483   29.6105 H   0  0  0  0  0  0  0  0  0  0  0  0
    7.4179   -5.2974   29.8861 H   0  0  0  0  0  0  0  0  0  0  0  0
   12.8637    5.6088   24.1189 H   0  0  0  0  0  0  0  0  0  0  0  0
   12.9734    5.6469   22.3264 H   0  0  0  0  0  0  0  0  0  0  0  0
   11.4470    6.0978   23.1275 H   0  0  0  0  0  0  0  0  0  0  0  0
    9.7989    0.8777   24.7451 H   0  0  0  0  0  0  0  0  0  0  0  0
    8.7078    1.7032   23.6586 H   0  0  0  0  0  0  0  0  0  0  0  0
    6.5547   -5.8822   27.6162 H   0  0  0  0  0  0  0  0  0  0  0  0
    8.0877   -6.6903   27.2368 H   0  0  0  0  0  0  0  0  0  0  0  0
   10.7539   -0.2760   22.5528 H   0  0  0  0  0  0  0  0  0  0  0  0
    6.7486    0.4313   16.8331 H   0  0  0  0  0  0  0  0  0  0  0  0
    7.4775   -5.1799   25.4668 H   0  0  0  0  0  0  0  0  0  0  0  0
    8.0757   -1.6162   21.0774 H   0  0  0  0  0  0  0  0  0  0  0  0
  1  2  1  0  0  0  0
  1  3  2  0  0  0  0
  2  6  2  0  0  0  0
  3 11  1  0  0  0  0
  4  7  2  0  0  0  0
  4 12  1  0  0  0  0
  5  8  1  0  0  0  0
  5 12  2  0  0  0  0
  6 14  1  0  0  0  0
  7 15  1  0  0  0  0
  8 15  2  0  0  0  0
  9 13  1  0  0  0  0
  9 24  2  0  0  0  0
 10 13  2  0  0  0  0
 10 27  1  0  0  0  0
 11 14  2  0  0  0  0
 11 16  1  0  0  0  0
 12 23  1  0  0  0  0
 13 21  1  0  0  0  0
 14 26  1  0  0  0  0
 15 28  1  0  0  0  0
 16 25  2  0  0  0  0
 16 29  1  0  0  0  0
 17 22  1  0  0  0  0
 17 28  1  0  0  0  0
 17 30  2  0  0  0  0
 18 23  1  0  0  0  0
 18 29  1  0  0  0  0
 18 31  2  0  0  0  0
 19 22  1  0  0  0  0
 20 27  1  0  0  0  0
 21 23  1  6  0  0  0
 24 27  1  0  0  0  0
 25 26  1  0  0  0  0
  1 32  1  0  0  0  0
  2 33  1  0  0  0  0
  3 34  1  0  0  0  0
  4 35  1  0  0  0  0
  5 36  1  0  0  0  0
  6 37  1  0  0  0  0
  7 38  1  0  0  0  0
  8 39  1  0  0  0  0
  9 40  1  0  0  0  0
 10 41  1  0  0  0  0
 19 42  1  0  0  0  0
 19 43  1  0  0  0  0
 19 44  1  0  0  0  0
 20 45  1  0  0  0  0
 20 46  1  0  0  0  0
 20 47  1  0  0  0  0
 21 48  1  0  0  0  0
 21 49  1  0  0  0  0
 22 50  1  0  0  0  0
 22 51  1  0  0  0  0
 23 52  1  0  0  0  0
 26 53  1  0  0  0  0
 28 54  1  0  0  0  0
 29 55  1  0  0  0  0
M  END
> <clash_score>
0

> <docking_score>
-7.270894527435303

> <overlap_score>
0.8390941619873047

$$$$
BENZO_237_1
  -OEChem-08232013533D

 48 51  0     1  0  0  0  0  0999 V2000
   13.2081   -0.8233   26.3776 C   0  0  0  0  0  0  0  0  0  0  0  0
    4.2460    1.7520   20.8250 C   0  0  0  0  0  0  0  0  0  0  0  0
   13.7678   -1.3337   25.2064 C   0  0  0  0  0  0  0  0  0  0  0  0
   12.0060   -0.1174   26.3261 C   0  0  0  0  0  0  0  0  0  0  0  0
    3.8860    2.1050   19.5250 C   0  0  0  0  0  0  0  0  0  0  0  0
    5.3890    1.0010   21.0690 C   0  0  0  0  0  0  0  0  0  0  0  0
   13.1256   -1.1382   23.9837 C   0  0  0  0  0  0  0  0  0  0  0  0
   11.3638    0.0781   25.1034 C   0  0  0  0  0  0  0  0  0  0  0  0
    9.1890   -3.5540   24.0140 C   0  0  0  0  0  0  0  0  0  0  0  0
    7.8700   -2.0610   25.3550 C   0  0  0  0  0  0  0  0  0  0  0  0
    9.5890   -2.4950   23.2210 C   0  0  0  0  0  0  0  0  0  0  0  0
    8.2550   -1.0010   24.5520 C   0  0  0  0  0  0  0  0  0  0  0  0
    4.6610    1.7170   18.4380 C   0  0  0  0  0  0  0  0  0  0  0  0
    6.1460    0.6070   19.9750 C   0  0  0  0  0  0  0  0  0  0  0  0
    8.3450   -3.3440   25.0980 C   0  0  0  0  0  0  0  0  0  0  0  0
   11.9236   -0.4323   23.9322 C   0  0  0  0  0  0  0  0  0  0  0  0
    9.1280   -1.2090   23.4870 C   0  0  0  0  0  0  0  0  0  0  0  0
    5.7970    0.9500   18.6730 C   0  0  0  0  0  0  0  0  0  0  0  0
    7.2710   -0.1460   19.8310 C   0  0  0  0  0  0  0  0  0  0  0  0
    9.0430    0.2380   21.4940 C   0  0  0  0  0  0  0  0  0  0  0  0
    7.9517   -4.4787   25.9770 C   0  0  0  0  0  0  0  0  0  0  0  0
   11.2273   -0.2199   22.6076 C   0  0  0  0  0  0  0  0  0  0  0  0
    9.5820   -0.1080   22.7000 C   0  0  1  0  0  0  0  0  0  0  0  0
    7.5840   -0.2700   18.5160 N   0  0  0  0  0  0  0  0  0  0  0  0
    6.7100    0.3850   17.8100 N   0  0  0  0  0  0  0  0  0  0  0  0
    8.0950   -0.7700   20.8440 N   0  0  0  0  0  0  0  0  0  0  0  0
    9.2950    1.3000   20.9480 O   0  0  0  0  0  0  0  0  0  0  0  0
   13.7076   -0.9767   27.3297 H   0  0  0  0  0  0  0  0  0  0  0  0
    3.6223    2.0725   21.6574 H   0  0  0  0  0  0  0  0  0  0  0  0
   14.7032   -1.8843   25.2464 H   0  0  0  0  0  0  0  0  0  0  0  0
   11.5694    0.2792   27.2379 H   0  0  0  0  0  0  0  0  0  0  0  0
    2.9864    2.6933   19.3609 H   0  0  0  0  0  0  0  0  0  0  0  0
    5.6689    0.7392   22.0836 H   0  0  0  0  0  0  0  0  0  0  0  0
   13.5692   -1.5394   23.0762 H   0  0  0  0  0  0  0  0  0  0  0  0
   10.4277    0.6294   25.0729 H   0  0  0  0  0  0  0  0  0  0  0  0
    9.5416   -4.5625   23.7818 H   0  0  0  0  0  0  0  0  0  0  0  0
    7.1926   -1.8847   26.1916 H   0  0  0  0  0  0  0  0  0  0  0  0
   10.2688   -2.6720   22.3870 H   0  0  0  0  0  0  0  0  0  0  0  0
    7.8705   -0.0015   24.7579 H   0  0  0  0  0  0  0  0  0  0  0  0
    4.3807    2.0116   17.4186 H   0  0  0  0  0  0  0  0  0  0  0  0
    8.6661   -4.5883   26.8021 H   0  0  0  0  0  0  0  0  0  0  0  0
    6.9508   -4.3263   26.4014 H   0  0  0  0  0  0  0  0  0  0  0  0
    7.9188   -5.4228   25.4175 H   0  0  0  0  0  0  0  0  0  0  0  0
   11.5842    0.7150   22.1561 H   0  0  0  0  0  0  0  0  0  0  0  0
   11.5525   -1.0164   21.9239 H   0  0  0  0  0  0  0  0  0  0  0  0
    9.5374    0.8439   23.4178 H   0  0  0  0  0  0  0  0  0  0  0  0
    6.7486    0.4313   16.8331 H   0  0  0  0  0  0  0  0  0  0  0  0
    8.0757   -1.6162   21.0774 H   0  0  0  0  0  0  0  0  0  0  0  0
  1  3  1  0  0  0  0
  1  4  2  0  0  0  0
  2  5  1  0  0  0  0
  2  6  2  0  0  0  0
  3  7  2  0  0  0  0
  4  8  1  0  0  0  0
  5 13  2  0  0  0  0
  6 14  1  0  0  0  0
  7 16  1  0  0  0  0
  8 16  2  0  0  0  0
  9 11  2  0  0  0  0
  9 15  1  0  0  0  0
 10 12  1  0  0  0  0
 10 15  2  0  0  0  0
 11 17  1  0  0  0  0
 12 17  2  0  0  0  0
 13 18  1  0  0  0  0
 14 18  2  0  0  0  0
 14 19  1  0  0  0  0
 15 21  1  0  0  0  0
 16 22  1  0  0  0  0
 17 23  1  0  0  0  0
 18 25  1  0  0  0  0
 19 24  2  0  0  0  0
 19 26  1  0  0  0  0
 20 23  1  0  0  0  0
 20 26  1  0  0  0  0
 20 27  2  0  0  0  0
 22 23  1  1  0  0  0
 24 25  1  0  0  0  0
  1 28  1  0  0  0  0
  2 29  1  0  0  0  0
  3 30  1  0  0  0  0
  4 31  1  0  0  0  0
  5 32  1  0  0  0  0
  6 33  1  0  0  0  0
  7 34  1  0  0  0  0
  8 35  1  0  0  0  0
  9 36  1  0  0  0  0
 10 37  1  0  0  0  0
 11 38  1  0  0  0  0
 12 39  1  0  0  0  0
 13 40  1  0  0  0  0
 21 41  1  0  0  0  0
 21 42  1  0  0  0  0
 21 43  1  0  0  0  0
 22 44  1  0  0  0  0
 22 45  1  0  0  0  0
 23 46  1  0  0  0  0
 25 47  1  0  0  0  0
 26 48  1  0  0  0  0
M  END
> <clash_score>
0

> <docking_score>
-4.805628776550293

> <overlap_score>
0.8309794068336487

$$$$
BENZO_237_2
  -OEChem-08232013533D

 48 51  0     1  0  0  0  0  0999 V2000
   12.7714    1.1058   26.6955 C   0  0  0  0  0  0  0  0  0  0  0  0
    4.2460    1.7520   20.8250 C   0  0  0  0  0  0  0  0  0  0  0  0
   12.3476    2.3261   26.1695 C   0  0  0  0  0  0  0  0  0  0  0  0
   12.1941   -0.0836   26.2506 C   0  0  0  0  0  0  0  0  0  0  0  0
    3.8860    2.1050   19.5250 C   0  0  0  0  0  0  0  0  0  0  0  0
    5.3890    1.0010   21.0690 C   0  0  0  0  0  0  0  0  0  0  0  0
   11.3464    2.3572   25.1987 C   0  0  0  0  0  0  0  0  0  0  0  0
   11.1930   -0.0526   25.2799 C   0  0  0  0  0  0  0  0  0  0  0  0
    9.1890   -3.5540   24.0140 C   0  0  0  0  0  0  0  0  0  0  0  0
    7.8700   -2.0610   25.3550 C   0  0  0  0  0  0  0  0  0  0  0  0
    9.5890   -2.4950   23.2210 C   0  0  0  0  0  0  0  0  0  0  0  0
    8.2550   -1.0010   24.5520 C   0  0  0  0  0  0  0  0  0  0  0  0
    4.6610    1.7170   18.4380 C   0  0  0  0  0  0  0  0  0  0  0  0
    6.1460    0.6070   19.9750 C   0  0  0  0  0  0  0  0  0  0  0  0
    8.3450   -3.3440   25.0980 C   0  0  0  0  0  0  0  0  0  0  0  0
   10.7691    1.1678   24.7539 C   0  0  0  0  0  0  0  0  0  0  0  0
    9.1280   -1.2090   23.4870 C   0  0  0  0  0  0  0  0  0  0  0  0
    5.7970    0.9500   18.6730 C   0  0  0  0  0  0  0  0  0  0  0  0
    7.2710   -0.1460   19.8310 C   0  0  0  0  0  0  0  0  0  0  0  0
    9.0430    0.2380   21.4940 C   0  0  0  0  0  0  0  0  0  0  0  0
    7.9517   -4.4787   25.9770 C   0  0  0  0  0  0  0  0  0  0  0  0
    9.6841    1.2008   23.7022 C   0  0  0  0  0  0  0  0  0  0  0  0
    9.5820   -0.1080   22.7000 C   0  0  2  0  0  0  0  0  0  0  0  0
    7.5840   -0.2700   18.5160 N   0  0  0  0  0  0  0  0  0  0  0  0
    6.7100    0.3850   17.8100 N   0  0  0  0  0  0  0  0  0  0  0  0
    8.0950   -0.7700   20.8440 N   0  0  0  0  0  0  0  0  0  0  0  0
    9.2950    1.3000   20.9480 O   0  0  0  0  0  0  0  0  0  0  0  0
   13.5519    1.0817   27.4504 H   0  0  0  0  0  0  0  0  0  0  0  0
    3.6223    2.0725   21.6574 H   0  0  0  0  0  0  0  0  0  0  0  0
   12.7977    3.2523   26.5149 H   0  0  0  0  0  0  0  0  0  0  0  0
   12.5246   -1.0340   26.6591 H   0  0  0  0  0  0  0  0  0  0  0  0
    2.9864    2.6933   19.3609 H   0  0  0  0  0  0  0  0  0  0  0  0
    5.6689    0.7392   22.0836 H   0  0  0  0  0  0  0  0  0  0  0  0
   11.0224    3.3127   24.7947 H   0  0  0  0  0  0  0  0  0  0  0  0
   10.7489   -0.9842   24.9394 H   0  0  0  0  0  0  0  0  0  0  0  0
    9.5416   -4.5625   23.7818 H   0  0  0  0  0  0  0  0  0  0  0  0
    7.1926   -1.8847   26.1916 H   0  0  0  0  0  0  0  0  0  0  0  0
   10.2688   -2.6720   22.3870 H   0  0  0  0  0  0  0  0  0  0  0  0
    7.8705   -0.0015   24.7579 H   0  0  0  0  0  0  0  0  0  0  0  0
    4.3807    2.0116   17.4186 H   0  0  0  0  0  0  0  0  0  0  0  0
    8.6661   -4.5883   26.8021 H   0  0  0  0  0  0  0  0  0  0  0  0
    6.9508   -4.3263   26.4014 H   0  0  0  0  0  0  0  0  0  0  0  0
    7.9188   -5.4228   25.4175 H   0  0  0  0  0  0  0  0  0  0  0  0
    8.7167    1.3910   24.1851 H   0  0  0  0  0  0  0  0  0  0  0  0
    9.8647    2.0727   23.0582 H   0  0  0  0  0  0  0  0  0  0  0  0
   10.7539   -0.2760   22.5528 H   0  0  0  0  0  0  0  0  0  0  0  0
    6.7486    0.4313   16.8331 H   0  0  0  0  0  0  0  0  0  0  0  0
    8.0757   -1.6162   21.0774 H   0  0  0  0  0  0  0  0  0  0  0  0
  1  3  1  0  0  0  0
  1  4  2  0  0  0  0
  2  5  1  0  0  0  0
  2  6  2  0  0  0  0
  3  7  2  0  0  0  0
  4  8  1  0  0  0  0
  5 13  2  0  0  0  0
  6 14  1  0  0  0  0
  7 16  1  0  0  0  0
  8 16  2  0  0  0  0
  9 11  2  0  0  0  0
  9 15  1  0  0  0  0
 10 12  1  0  0  0  0
 10 15  2  0  0  0  0
 11 17  1  0  0  0  0
 12 17  2  0  0  0  0
 13 18  1  0  0  0  0
 14 18  2  0  0  0  0
 14 19  1  0  0  0  0
 15 21  1  0  0  0  0
 16 22  1  0  0  0  0
 17 23  1  0  0  0  0
 18 25  1  0  0  0  0
 19 24  2  0  0  0  0
 19 26  1  0  0  0  0
 20 23  1  0  0  0  0
 20 26  1  0  0  0  0
 20 27  2  0  0  0  0
 22 23  1  6  0  0  0
 24 25  1  0  0  0  0
  1 28  1  0  0  0  0
  2 29  1  0  0  0  0
  3 30  1  0  0  0  0
  4 31  1  0  0  0  0
  5 32  1  0  0  0  0
  6 33  1  0  0  0  0
  7 34  1  0  0  0  0
  8 35  1  0  0  0  0
  9 36  1  0  0  0  0
 10 37  1  0  0  0  0
 11 38  1  0  0  0  0
 12 39  1  0  0  0  0
 13 40  1  0  0  0  0
 21 41  1  0  0  0  0
 21 42  1  0  0  0  0
 21 43  1  0  0  0  0
 22 44  1  0  0  0  0
 22 45  1  0  0  0  0
 23 46  1  0  0  0  0
 25 47  1  0  0  0  0
 26 48  1  0  0  0  0
M  END
> <clash_score>
3.05701407885938

> <docking_score>
-3.016719341278076

> <overlap_score>
0.7437710762023926

$$$$
BENZO_236_1
  -OEChem-08232013533D

 45 48  0     1  0  0  0  0  0999 V2000
    4.2460    1.7520   20.8250 C   0  0  0  0  0  0  0  0  0  0  0  0
    3.8860    2.1050   19.5250 C   0  0  0  0  0  0  0  0  0  0  0  0
    5.3890    1.0010   21.0690 C   0  0  0  0  0  0  0  0  0  0  0  0
    9.1890   -3.5540   24.0140 C   0  0  0  0  0  0  0  0  0  0  0  0
    7.8700   -2.0610   25.3550 C   0  0  0  0  0  0  0  0  0  0  0  0
    9.5890   -2.4950   23.2210 C   0  0  0  0  0  0  0  0  0  0  0  0
    8.2550   -1.0010   24.5520 C   0  0  0  0  0  0  0  0  0  0  0  0
    4.6610    1.7170   18.4380 C   0  0  0  0  0  0  0  0  0  0  0  0
   13.1523   -1.1384   24.0797 C   0  0  0  0  0  0  0  0  0  0  0  0
   13.5671   -1.1866   25.3924 C   0  0  0  0  0  0  0  0  0  0  0  0
   11.4459    0.0321   25.1380 C   0  0  0  0  0  0  0  0  0  0  0  0
    6.1460    0.6070   19.9750 C   0  0  0  0  0  0  0  0  0  0  0  0
    8.3450   -3.3440   25.0980 C   0  0  0  0  0  0  0  0  0  0  0  0
    9.1280   -1.2090   23.4870 C   0  0  0  0  0  0  0  0  0  0  0  0
   11.9236   -0.4323   23.9322 C   0  0  0  0  0  0  0  0  0  0  0  0
    5.7970    0.9500   18.6730 C   0  0  0  0  0  0  0  0  0  0  0  0
    7.2710   -0.1460   19.8310 C   0  0  0  0  0  0  0  0  0  0  0  0
    9.0430    0.2380   21.4940 C   0  0  0  0  0  0  0  0  0  0  0  0
    7.9517   -4.4787   25.9770 C   0  0  0  0  0  0  0  0  0  0  0  0
   11.2273   -0.2199   22.6076 C   0  0  0  0  0  0  0  0  0  0  0  0
    9.5820   -0.1080   22.7000 C   0  0  1  0  0  0  0  0  0  0  0  0
    7.5840   -0.2700   18.5160 N   0  0  0  0  0  0  0  0  0  0  0  0
    6.7100    0.3850   17.8100 N   0  0  0  0  0  0  0  0  0  0  0  0
    8.0950   -0.7700   20.8440 N   0  0  0  0  0  0  0  0  0  0  0  0
    9.2950    1.3000   20.9480 O   0  0  0  0  0  0  0  0  0  0  0  0
   12.4772   -0.3829   26.4405 S   0  0  0  0  0  0  0  0  0  0  0  0
    3.6223    2.0725   21.6574 H   0  0  0  0  0  0  0  0  0  0  0  0
    2.9864    2.6933   19.3609 H   0  0  0  0  0  0  0  0  0  0  0  0
    5.6689    0.7392   22.0836 H   0  0  0  0  0  0  0  0  0  0  0  0
    9.5416   -4.5625   23.7818 H   0  0  0  0  0  0  0  0  0  0  0  0
    7.1926   -1.8847   26.1916 H   0  0  0  0  0  0  0  0  0  0  0  0
   10.2688   -2.6720   22.3870 H   0  0  0  0  0  0  0  0  0  0  0  0
    7.8705   -0.0015   24.7579 H   0  0  0  0  0  0  0  0  0  0  0  0
    4.3807    2.0116   17.4186 H   0  0  0  0  0  0  0  0  0  0  0  0
   13.7070   -1.5901   23.2669 H   0  0  0  0  0  0  0  0  0  0  0  0
   14.4576   -1.6558   25.7863 H   0  0  0  0  0  0  0  0  0  0  0  0
   10.5407    0.5945   25.3209 H   0  0  0  0  0  0  0  0  0  0  0  0
    8.6661   -4.5883   26.8021 H   0  0  0  0  0  0  0  0  0  0  0  0
    6.9508   -4.3263   26.4014 H   0  0  0  0  0  0  0  0  0  0  0  0
    7.9188   -5.4228   25.4175 H   0  0  0  0  0  0  0  0  0  0  0  0
   11.5842    0.7150   22.1561 H   0  0  0  0  0  0  0  0  0  0  0  0
   11.5525   -1.0164   21.9239 H   0  0  0  0  0  0  0  0  0  0  0  0
    9.5374    0.8439   23.4178 H   0  0  0  0  0  0  0  0  0  0  0  0
    6.7486    0.4313   16.8331 H   0  0  0  0  0  0  0  0  0  0  0  0
    8.0757   -1.6162   21.0774 H   0  0  0  0  0  0  0  0  0  0  0  0
  1  2  1  0  0  0  0
  1  3  2  0  0  0  0
  2  8  2  0  0  0  0
  3 12  1  0  0  0  0
  4  6  2  0  0  0  0
  4 13  1  0  0  0  0
  5  7  1  0  0  0  0
  5 13  2  0  0  0  0
  6 14  1  0  0  0  0
  7 14  2  0  0  0  0
  8 16  1  0  0  0  0
  9 10  2  0  0  0  0
  9 15  1  0  0  0  0
 10 26  1  0  0  0  0
 11 15  2  0  0  0  0
 11 26  1  0  0  0  0
 12 16  2  0  0  0  0
 12 17  1  0  0  0  0
 13 19  1  0  0  0  0
 14 21  1  0  0  0  0
 15 20  1  0  0  0  0
 16 23  1  0  0  0  0
 17 22  2  0  0  0  0
 17 24  1  0  0  0  0
 18 21  1  0  0  0  0
 18 24  1  0  0  0  0
 18 25  2  0  0  0  0
 20 21  1  1  0  0  0
 22 23  1  0  0  0  0
  1 27  1  0  0  0  0
  2 28  1  0  0  0  0
  3 29  1  0  0  0  0
  4 30  1  0  0  0  0
  5 31  1  0  0  0  0
  6 32  1  0  0  0  0
  7 33  1  0  0  0  0
  8 34  1  0  0  0  0
  9 35  1  0  0  0  0
 10 36  1  0  0  0  0
 11 37  1  0  0  0  0
 19 38  1  0  0  0  0
 19 39  1  0  0  0  0
 19 40  1  0  0  0  0
 20 41  1  0  0  0  0
 20 42  1  0  0  0  0
 21 43  1  0  0  0  0
 23 44  1  0  0  0  0
 24 45  1  0  0  0  0
M  END
> <clash_score>
0

> <docking_score>
-5.310451030731201

> <overlap_score>
0.8273110389709473

$$$$
BENZO_236_2
  -OEChem-08232013533D

 45 48  0     1  0  0  0  0  0999 V2000
    4.2460    1.7520   20.8250 C   0  0  0  0  0  0  0  0  0  0  0  0
    3.8860    2.1050   19.5250 C   0  0  0  0  0  0  0  0  0  0  0  0
    5.3890    1.0010   21.0690 C   0  0  0  0  0  0  0  0  0  0  0  0
    9.1890   -3.5540   24.0140 C   0  0  0  0  0  0  0  0  0  0  0  0
    7.8700   -2.0610   25.3550 C   0  0  0  0  0  0  0  0  0  0  0  0
    9.5890   -2.4950   23.2210 C   0  0  0  0  0  0  0  0  0  0  0  0
    8.2550   -1.0010   24.5520 C   0  0  0  0  0  0  0  0  0  0  0  0
    4.6610    1.7170   18.4380 C   0  0  0  0  0  0  0  0  0  0  0  0
   11.7386    0.4828   25.1094 C   0  0  0  0  0  0  0  0  0  0  0  0
   12.1652    0.4005   26.4166 C   0  0  0  0  0  0  0  0  0  0  0  0
    9.8792    1.2919   26.2454 C   0  0  0  0  0  0  0  0  0  0  0  0
    6.1460    0.6070   19.9750 C   0  0  0  0  0  0  0  0  0  0  0  0
    8.3450   -3.3440   25.0980 C   0  0  0  0  0  0  0  0  0  0  0  0
    9.1280   -1.2090   23.4870 C   0  0  0  0  0  0  0  0  0  0  0  0
   10.4144    0.9993   25.0101 C   0  0  0  0  0  0  0  0  0  0  0  0
    5.7970    0.9500   18.6730 C   0  0  0  0  0  0  0  0  0  0  0  0
    7.2710   -0.1460   19.8310 C   0  0  0  0  0  0  0  0  0  0  0  0
    9.0430    0.2380   21.4940 C   0  0  0  0  0  0  0  0  0  0  0  0
    7.9517   -4.4787   25.9770 C   0  0  0  0  0  0  0  0  0  0  0  0
    9.6841    1.2008   23.7022 C   0  0  0  0  0  0  0  0  0  0  0  0
    9.5820   -0.1080   22.7000 C   0  0  2  0  0  0  0  0  0  0  0  0
    7.5840   -0.2700   18.5160 N   0  0  0  0  0  0  0  0  0  0  0  0
    6.7100    0.3850   17.8100 N   0  0  0  0  0  0  0  0  0  0  0  0
    8.0950   -0.7700   20.8440 N   0  0  0  0  0  0  0  0  0  0  0  0
    9.2950    1.3000   20.9480 O   0  0  0  0  0  0  0  0  0  0  0  0
   10.9716    0.9444   27.5174 S   0  0  0  0  0  0  0  0  0  0  0  0
    3.6223    2.0725   21.6574 H   0  0  0  0  0  0  0  0  0  0  0  0
    2.9864    2.6933   19.3609 H   0  0  0  0  0  0  0  0  0  0  0  0
    5.6689    0.7392   22.0836 H   0  0  0  0  0  0  0  0  0  0  0  0
    9.5416   -4.5625   23.7818 H   0  0  0  0  0  0  0  0  0  0  0  0
    7.1926   -1.8847   26.1916 H   0  0  0  0  0  0  0  0  0  0  0  0
   10.2688   -2.6720   22.3870 H   0  0  0  0  0  0  0  0  0  0  0  0
    7.8705   -0.0015   24.7579 H   0  0  0  0  0  0  0  0  0  0  0  0
    4.3807    2.0116   17.4186 H   0  0  0  0  0  0  0  0  0  0  0  0
   12.3506    0.1851   24.2673 H   0  0  0  0  0  0  0  0  0  0  0  0
   13.1203    0.0464   26.7779 H   0  0  0  0  0  0  0  0  0  0  0  0
    8.8993    1.6920   26.4662 H   0  0  0  0  0  0  0  0  0  0  0  0
    8.6661   -4.5883   26.8021 H   0  0  0  0  0  0  0  0  0  0  0  0
    6.9508   -4.3263   26.4014 H   0  0  0  0  0  0  0  0  0  0  0  0
    7.9188   -5.4228   25.4175 H   0  0  0  0  0  0  0  0  0  0  0  0
    8.6850    1.6088   23.9038 H   0  0  0  0  0  0  0  0  0  0  0  0
   10.2105    1.9839   23.1390 H   0  0  0  0  0  0  0  0  0  0  0  0
   10.7539   -0.2760   22.5528 H   0  0  0  0  0  0  0  0  0  0  0  0
    6.7486    0.4313   16.8331 H   0  0  0  0  0  0  0  0  0  0  0  0
    8.0757   -1.6162   21.0774 H   0  0  0  0  0  0  0  0  0  0  0  0
  1  2  1  0  0  0  0
  1  3  2  0  0  0  0
  2  8  2  0  0  0  0
  3 12  1  0  0  0  0
  4  6  2  0  0  0  0
  4 13  1  0  0  0  0
  5  7  1  0  0  0  0
  5 13  2  0  0  0  0
  6 14  1  0  0  0  0
  7 14  2  0  0  0  0
  8 16  1  0  0  0  0
  9 10  2  0  0  0  0
  9 15  1  0  0  0  0
 10 26  1  0  0  0  0
 11 15  2  0  0  0  0
 11 26  1  0  0  0  0
 12 16  2  0  0  0  0
 12 17  1  0  0  0  0
 13 19  1  0  0  0  0
 14 21  1  0  0  0  0
 15 20  1  0  0  0  0
 16 23  1  0  0  0  0
 17 22  2  0  0  0  0
 17 24  1  0  0  0  0
 18 21  1  0  0  0  0
 18 24  1  0  0  0  0
 18 25  2  0  0  0  0
 20 21  1  6  0  0  0
 22 23  1  0  0  0  0
  1 27  1  0  0  0  0
  2 28  1  0  0  0  0
  3 29  1  0  0  0  0
  4 30  1  0  0  0  0
  5 31  1  0  0  0  0
  6 32  1  0  0  0  0
  7 33  1  0  0  0  0
  8 34  1  0  0  0  0
  9 35  1  0  0  0  0
 10 36  1  0  0  0  0
 11 37  1  0  0  0  0
 19 38  1  0  0  0  0
 19 39  1  0  0  0  0
 19 40  1  0  0  0  0
 20 41  1  0  0  0  0
 20 42  1  0  0  0  0
 21 43  1  0  0  0  0
 23 44  1  0  0  0  0
 24 45  1  0  0  0  0
M  END
> <clash_score>
2.224310277754537

> <docking_score>
-2.845024585723877

> <overlap_score>
0.7431652545928955

$$$$
BENZO_235_1
  -OEChem-08232013533D

 60 64  0     1  0  0  0  0  0999 V2000
    4.2460    1.7520   20.8250 C   0  0  0  0  0  0  0  0  0  0  0  0
    3.8860    2.1050   19.5250 C   0  0  0  0  0  0  0  0  0  0  0  0
    5.3890    1.0010   21.0690 C   0  0  0  0  0  0  0  0  0  0  0  0
    9.5890   -2.4950   23.2210 C   0  0  0  0  0  0  0  0  0  0  0  0
    8.2550   -1.0010   24.5520 C   0  0  0  0  0  0  0  0  0  0  0  0
    4.6610    1.7170   18.4380 C   0  0  0  0  0  0  0  0  0  0  0  0
    9.1890   -3.5540   24.0140 C   0  0  0  0  0  0  0  0  0  0  0  0
    7.8700   -2.0610   25.3550 C   0  0  0  0  0  0  0  0  0  0  0  0
   13.3220   -0.5321   24.1508 C   0  0  0  0  0  0  0  0  0  0  0  0
   11.3739   -0.5140   25.1703 C   0  0  0  0  0  0  0  0  0  0  0  0
    6.1460    0.6070   19.9750 C   0  0  0  0  0  0  0  0  0  0  0  0
    9.1280   -1.2090   23.4870 C   0  0  0  0  0  0  0  0  0  0  0  0
   11.9382   -0.4119   23.9222 C   0  0  0  0  0  0  0  0  0  0  0  0
    5.7970    0.9500   18.6730 C   0  0  0  0  0  0  0  0  0  0  0  0
    8.3450   -3.3440   25.0980 C   0  0  0  0  0  0  0  0  0  0  0  0
    7.2710   -0.1460   19.8310 C   0  0  0  0  0  0  0  0  0  0  0  0
    9.0430    0.2380   21.4940 C   0  0  0  0  0  0  0  0  0  0  0  0
    7.2166   -6.5202   27.7387 C   0  0  0  0  0  0  0  0  0  0  0  0
    6.3969   -6.2129   26.4916 C   0  0  0  0  0  0  0  0  0  0  0  0
    8.6789   -6.1571   27.5092 C   0  0  0  0  0  0  0  0  0  0  0  0
    6.5550   -4.7563   26.0581 C   0  0  0  0  0  0  0  0  0  0  0  0
    8.8315   -4.6994   27.0803 C   0  0  0  0  0  0  0  0  0  0  0  0
   12.3185   -0.8368   27.4686 C   0  0  0  0  0  0  0  0  0  0  0  0
   11.2301   -0.2124   22.6019 C   0  0  0  0  0  0  0  0  0  0  0  0
    9.5820   -0.1080   22.7000 C   0  0  1  0  0  0  0  0  0  0  0  0
   13.6189   -0.6977   25.4425 N   0  0  0  0  0  0  0  0  0  0  0  0
    7.5840   -0.2700   18.5160 N   0  0  0  0  0  0  0  0  0  0  0  0
    6.7100    0.3850   17.8100 N   0  0  0  0  0  0  0  0  0  0  0  0
   12.4136   -0.6822   26.0368 N   0  0  0  0  0  0  0  0  0  0  0  0
    7.9744   -4.4098   25.9218 N   0  0  0  0  0  0  0  0  0  0  0  0
    8.0950   -0.7700   20.8440 N   0  0  0  0  0  0  0  0  0  0  0  0
    9.2950    1.3000   20.9480 O   0  0  0  0  0  0  0  0  0  0  0  0
    3.6223    2.0725   21.6574 H   0  0  0  0  0  0  0  0  0  0  0  0
    2.9864    2.6933   19.3609 H   0  0  0  0  0  0  0  0  0  0  0  0
    5.6689    0.7392   22.0836 H   0  0  0  0  0  0  0  0  0  0  0  0
   10.2684   -2.6719   22.3867 H   0  0  0  0  0  0  0  0  0  0  0  0
    7.8717   -0.0016   24.7596 H   0  0  0  0  0  0  0  0  0  0  0  0
    4.3807    2.0116   17.4186 H   0  0  0  0  0  0  0  0  0  0  0  0
    9.5443   -4.5616   23.7817 H   0  0  0  0  0  0  0  0  0  0  0  0
    7.1921   -1.8821   26.1908 H   0  0  0  0  0  0  0  0  0  0  0  0
   14.1286   -0.5054   23.4317 H   0  0  0  0  0  0  0  0  0  0  0  0
   10.3467   -0.4808   25.5074 H   0  0  0  0  0  0  0  0  0  0  0  0
    6.8223   -5.9540   28.5911 H   0  0  0  0  0  0  0  0  0  0  0  0
    7.1313   -7.5835   27.9885 H   0  0  0  0  0  0  0  0  0  0  0  0
    6.7086   -6.8739   25.6731 H   0  0  0  0  0  0  0  0  0  0  0  0
    5.3392   -6.4247   26.6852 H   0  0  0  0  0  0  0  0  0  0  0  0
    9.2495   -6.3303   28.4287 H   0  0  0  0  0  0  0  0  0  0  0  0
    9.1068   -6.8127   26.7406 H   0  0  0  0  0  0  0  0  0  0  0  0
    6.0341   -4.6143   25.1030 H   0  0  0  0  0  0  0  0  0  0  0  0
    6.0814   -4.0959   26.7963 H   0  0  0  0  0  0  0  0  0  0  0  0
    8.5669   -4.0359   27.9136 H   0  0  0  0  0  0  0  0  0  0  0  0
    9.8836   -4.5143   26.8301 H   0  0  0  0  0  0  0  0  0  0  0  0
   12.2261   -1.9039   27.6872 H   0  0  0  0  0  0  0  0  0  0  0  0
   13.2160   -0.4264   27.9396 H   0  0  0  0  0  0  0  0  0  0  0  0
   11.4423   -0.2935   27.8333 H   0  0  0  0  0  0  0  0  0  0  0  0
   11.5792    0.7206   22.1405 H   0  0  0  0  0  0  0  0  0  0  0  0
   11.5533   -1.0125   21.9215 H   0  0  0  0  0  0  0  0  0  0  0  0
    9.5402    0.8508   23.4127 H   0  0  0  0  0  0  0  0  0  0  0  0
    6.7486    0.4313   16.8331 H   0  0  0  0  0  0  0  0  0  0  0  0
    8.0917   -1.6083   21.0911 H   0  0  0  0  0  0  0  0  0  0  0  0
  1  2  1  0  0  0  0
  1  3  2  0  0  0  0
  2  6  2  0  0  0  0
  3 11  1  0  0  0  0
  4  7  2  0  0  0  0
  4 12  1  0  0  0  0
  5  8  1  0  0  0  0
  5 12  2  0  0  0  0
  6 14  1  0  0  0  0
  7 15  1  0  0  0  0
  8 15  2  0  0  0  0
  9 13  1  0  0  0  0
  9 26  2  0  0  0  0
 10 13  2  0  0  0  0
 10 29  1  0  0  0  0
 11 14  2  0  0  0  0
 11 16  1  0  0  0  0
 12 25  1  0  0  0  0
 13 24  1  0  0  0  0
 14 28  1  0  0  0  0
 15 30  1  0  0  0  0
 16 27  2  0  0  0  0
 16 31  1  0  0  0  0
 17 25  1  0  0  0  0
 17 31  1  0  0  0  0
 17 32  2  0  0  0  0
 18 19  1  0  0  0  0
 18 20  1  0  0  0  0
 19 21  1  0  0  0  0
 20 22  1  0  0  0  0
 21 30  1  0  0  0  0
 22 30  1  0  0  0  0
 23 29  1  0  0  0  0
 24 25  1  1  0  0  0
 26 29  1  0  0  0  0
 27 28  1  0  0  0  0
  1 33  1  0  0  0  0
  2 34  1  0  0  0  0
  3 35  1  0  0  0  0
  4 36  1  0  0  0  0
  5 37  1  0  0  0  0
  6 38  1  0  0  0  0
  7 39  1  0  0  0  0
  8 40  1  0  0  0  0
  9 41  1  0  0  0  0
 10 42  1  0  0  0  0
 18 43  1  0  0  0  0
 18 44  1  0  0  0  0
 19 45  1  0  0  0  0
 19 46  1  0  0  0  0
 20 47  1  0  0  0  0
 20 48  1  0  0  0  0
 21 49  1  0  0  0  0
 21 50  1  0  0  0  0
 22 51  1  0  0  0  0
 22 52  1  0  0  0  0
 23 53  1  0  0  0  0
 23 54  1  0  0  0  0
 23 55  1  0  0  0  0
 24 56  1  0  0  0  0
 24 57  1  0  0  0  0
 25 58  1  0  0  0  0
 28 59  1  0  0  0  0
 31 60  1  0  0  0  0
M  END
> <clash_score>
0.6568125957053412

> <docking_score>
-5.424276351928711

> <overlap_score>
0.9128094911575317

$$$$
BENZO_235_2
  -OEChem-08232013533D

 60 64  0     1  0  0  0  0  0999 V2000
    4.2460    1.7520   20.8250 C   0  0  0  0  0  0  0  0  0  0  0  0
    3.8860    2.1050   19.5250 C   0  0  0  0  0  0  0  0  0  0  0  0
    5.3890    1.0010   21.0690 C   0  0  0  0  0  0  0  0  0  0  0  0
    9.5890   -2.4950   23.2210 C   0  0  0  0  0  0  0  0  0  0  0  0
    8.2550   -1.0010   24.5520 C   0  0  0  0  0  0  0  0  0  0  0  0
    4.6610    1.7170   18.4380 C   0  0  0  0  0  0  0  0  0  0  0  0
    9.1890   -3.5540   24.0140 C   0  0  0  0  0  0  0  0  0  0  0  0
    7.8700   -2.0610   25.3550 C   0  0  0  0  0  0  0  0  0  0  0  0
   12.0923    1.6786   24.6236 C   0  0  0  0  0  0  0  0  0  0  0  0
   10.6999    0.7130   26.0250 C   0  0  0  0  0  0  0  0  0  0  0  0
    6.1460    0.6070   19.9750 C   0  0  0  0  0  0  0  0  0  0  0  0
    9.1280   -1.2090   23.4870 C   0  0  0  0  0  0  0  0  0  0  0  0
   10.7749    1.1966   24.7417 C   0  0  0  0  0  0  0  0  0  0  0  0
    5.7970    0.9500   18.6730 C   0  0  0  0  0  0  0  0  0  0  0  0
    8.3450   -3.3440   25.0980 C   0  0  0  0  0  0  0  0  0  0  0  0
    7.2710   -0.1460   19.8310 C   0  0  0  0  0  0  0  0  0  0  0  0
    9.0430    0.2380   21.4940 C   0  0  0  0  0  0  0  0  0  0  0  0
    7.9496   -4.9537   28.7345 C   0  0  0  0  0  0  0  0  0  0  0  0
    6.8919   -4.0607   28.0818 C   0  0  0  0  0  0  0  0  0  0  0  0
    9.2470   -4.9693   27.9230 C   0  0  0  0  0  0  0  0  0  0  0  0
    6.6889   -4.4385   26.6147 C   0  0  0  0  0  0  0  0  0  0  0  0
    8.9871   -5.3207   26.4549 C   0  0  0  0  0  0  0  0  0  0  0  0
   12.3371    0.5840   27.9175 C   0  0  0  0  0  0  0  0  0  0  0  0
    9.6852    1.2097   23.6944 C   0  0  0  0  0  0  0  0  0  0  0  0
    9.5820   -0.1080   22.7000 C   0  0  2  0  0  0  0  0  0  0  0  0
   12.8030    1.5161   25.7428 N   0  0  0  0  0  0  0  0  0  0  0  0
    7.5840   -0.2700   18.5160 N   0  0  0  0  0  0  0  0  0  0  0  0
    6.7100    0.3850   17.8100 N   0  0  0  0  0  0  0  0  0  0  0  0
   11.9290    0.9267   26.5763 N   0  0  0  0  0  0  0  0  0  0  0  0
    7.9769   -4.4027   25.9163 N   0  0  0  0  0  0  0  0  0  0  0  0
    8.0950   -0.7700   20.8440 N   0  0  0  0  0  0  0  0  0  0  0  0
    9.2950    1.3000   20.9480 O   0  0  0  0  0  0  0  0  0  0  0  0
    3.6223    2.0725   21.6574 H   0  0  0  0  0  0  0  0  0  0  0  0
    2.9864    2.6933   19.3609 H   0  0  0  0  0  0  0  0  0  0  0  0
    5.6689    0.7392   22.0836 H   0  0  0  0  0  0  0  0  0  0  0  0
   10.2684   -2.6719   22.3867 H   0  0  0  0  0  0  0  0  0  0  0  0
    7.8717   -0.0016   24.7596 H   0  0  0  0  0  0  0  0  0  0  0  0
    4.3807    2.0116   17.4186 H   0  0  0  0  0  0  0  0  0  0  0  0
    9.5443   -4.5616   23.7817 H   0  0  0  0  0  0  0  0  0  0  0  0
    7.1921   -1.8821   26.1908 H   0  0  0  0  0  0  0  0  0  0  0  0
   12.5660    2.1426   23.7701 H   0  0  0  0  0  0  0  0  0  0  0  0
    9.8962    0.2478   26.5796 H   0  0  0  0  0  0  0  0  0  0  0  0
    8.1558   -4.5961   29.7550 H   0  0  0  0  0  0  0  0  0  0  0  0
    7.5611   -5.9778   28.8324 H   0  0  0  0  0  0  0  0  0  0  0  0
    5.9459   -4.1594   28.6209 H   0  0  0  0  0  0  0  0  0  0  0  0
    7.2011   -3.0160   28.1536 H   0  0  0  0  0  0  0  0  0  0  0  0
    9.7290   -3.9880   27.9846 H   0  0  0  0  0  0  0  0  0  0  0  0
    9.9437   -5.6964   28.3562 H   0  0  0  0  0  0  0  0  0  0  0  0
    6.2543   -5.4402   26.5659 H   0  0  0  0  0  0  0  0  0  0  0  0
    5.9909   -3.7397   26.1451 H   0  0  0  0  0  0  0  0  0  0  0  0
    9.9128   -5.2367   25.8843 H   0  0  0  0  0  0  0  0  0  0  0  0
    8.6365   -6.3517   26.3987 H   0  0  0  0  0  0  0  0  0  0  0  0
   12.7446   -0.4302   27.8973 H   0  0  0  0  0  0  0  0  0  0  0  0
   13.0952    1.2938   28.2601 H   0  0  0  0  0  0  0  0  0  0  0  0
   11.4711    0.6360   28.5832 H   0  0  0  0  0  0  0  0  0  0  0  0
    8.7197    1.4079   24.1780 H   0  0  0  0  0  0  0  0  0  0  0  0
    9.8623    2.0699   23.0340 H   0  0  0  0  0  0  0  0  0  0  0  0
   10.7567   -0.2690   22.5478 H   0  0  0  0  0  0  0  0  0  0  0  0
    6.7486    0.4313   16.8331 H   0  0  0  0  0  0  0  0  0  0  0  0
    8.0917   -1.6083   21.0911 H   0  0  0  0  0  0  0  0  0  0  0  0
  1  2  1  0  0  0  0
  1  3  2  0  0  0  0
  2  6  2  0  0  0  0
  3 11  1  0  0  0  0
  4  7  2  0  0  0  0
  4 12  1  0  0  0  0
  5  8  1  0  0  0  0
  5 12  2  0  0  0  0
  6 14  1  0  0  0  0
  7 15  1  0  0  0  0
  8 15  2  0  0  0  0
  9 13  1  0  0  0  0
  9 26  2  0  0  0  0
 10 13  2  0  0  0  0
 10 29  1  0  0  0  0
 11 14  2  0  0  0  0
 11 16  1  0  0  0  0
 12 25  1  0  0  0  0
 13 24  1  0  0  0  0
 14 28  1  0  0  0  0
 15 30  1  0  0  0  0
 16 27  2  0  0  0  0
 16 31  1  0  0  0  0
 17 25  1  0  0  0  0
 17 31  1  0  0  0  0
 17 32  2  0  0  0  0
 18 19  1  0  0  0  0
 18 20  1  0  0  0  0
 19 21  1  0  0  0  0
 20 22  1  0  0  0  0
 21 30  1  0  0  0  0
 22 30  1  0  0  0  0
 23 29  1  0  0  0  0
 24 25  1  6  0  0  0
 26 29  1  0  0  0  0
 27 28  1  0  0  0  0
  1 33  1  0  0  0  0
  2 34  1  0  0  0  0
  3 35  1  0  0  0  0
  4 36  1  0  0  0  0
  5 37  1  0  0  0  0
  6 38  1  0  0  0  0
  7 39  1  0  0  0  0
  8 40  1  0  0  0  0
  9 41  1  0  0  0  0
 10 42  1  0  0  0  0
 18 43  1  0  0  0  0
 18 44  1  0  0  0  0
 19 45  1  0  0  0  0
 19 46  1  0  0  0  0
 20 47  1  0  0  0  0
 20 48  1  0  0  0  0
 21 49  1  0  0  0  0
 21 50  1  0  0  0  0
 22 51  1  0  0  0  0
 22 52  1  0  0  0  0
 23 53  1  0  0  0  0
 23 54  1  0  0  0  0
 23 55  1  0  0  0  0
 24 56  1  0  0  0  0
 24 57  1  0  0  0  0
 25 58  1  0  0  0  0
 28 59  1  0  0  0  0
 31 60  1  0  0  0  0
M  END
> <clash_score>
2.0015532831426643

> <docking_score>
-3.287802219390869

> <overlap_score>
0.829846203327179

$$$$
BENZO_234_2
  -OEChem-08232013533D

 60 64  0     1  0  0  0  0  0999 V2000
    4.2460    1.7520   20.8250 C   0  0  0  0  0  0  0  0  0  0  0  0
    3.8860    2.1050   19.5250 C   0  0  0  0  0  0  0  0  0  0  0  0
   13.7993   -1.2937   25.1853 C   0  0  0  0  0  0  0  0  0  0  0  0
    5.3890    1.0010   21.0690 C   0  0  0  0  0  0  0  0  0  0  0  0
   13.1448   -1.1102   23.9673 C   0  0  0  0  0  0  0  0  0  0  0  0
    9.5890   -2.4950   23.2210 C   0  0  0  0  0  0  0  0  0  0  0  0
    8.2550   -1.0010   24.5520 C   0  0  0  0  0  0  0  0  0  0  0  0
    4.6610    1.7170   18.4380 C   0  0  0  0  0  0  0  0  0  0  0  0
    9.1890   -3.5540   24.0140 C   0  0  0  0  0  0  0  0  0  0  0  0
    7.8700   -2.0610   25.3550 C   0  0  0  0  0  0  0  0  0  0  0  0
   13.2472   -0.7790   26.3583 C   0  0  0  0  0  0  0  0  0  0  0  0
   11.3860    0.1028   25.0952 C   0  0  0  0  0  0  0  0  0  0  0  0
    6.1460    0.6070   19.9750 C   0  0  0  0  0  0  0  0  0  0  0  0
    9.1280   -1.2090   23.4870 C   0  0  0  0  0  0  0  0  0  0  0  0
   11.9382   -0.4119   23.9222 C   0  0  0  0  0  0  0  0  0  0  0  0
    5.7970    0.9500   18.6730 C   0  0  0  0  0  0  0  0  0  0  0  0
    8.3450   -3.3440   25.0980 C   0  0  0  0  0  0  0  0  0  0  0  0
   12.0405   -0.0807   26.3132 C   0  0  0  0  0  0  0  0  0  0  0  0
    7.2710   -0.1460   19.8310 C   0  0  0  0  0  0  0  0  0  0  0  0
    9.0430    0.2380   21.4940 C   0  0  0  0  0  0  0  0  0  0  0  0
    7.9496   -4.9537   28.7345 C   0  0  0  0  0  0  0  0  0  0  0  0
    6.8919   -4.0607   28.0818 C   0  0  0  0  0  0  0  0  0  0  0  0
    9.2470   -4.9693   27.9230 C   0  0  0  0  0  0  0  0  0  0  0  0
    6.6889   -4.4385   26.6147 C   0  0  0  0  0  0  0  0  0  0  0  0
    8.9871   -5.3207   26.4549 C   0  0  0  0  0  0  0  0  0  0  0  0
   11.2301   -0.2124   22.6019 C   0  0  0  0  0  0  0  0  0  0  0  0
    9.5820   -0.1080   22.7000 C   0  0  2  0  0  0  0  0  0  0  0  0
    7.5840   -0.2700   18.5160 N   0  0  0  0  0  0  0  0  0  0  0  0
    6.7100    0.3850   17.8100 N   0  0  0  0  0  0  0  0  0  0  0  0
    7.9769   -4.4027   25.9163 N   0  0  0  0  0  0  0  0  0  0  0  0
    8.0950   -0.7700   20.8440 N   0  0  0  0  0  0  0  0  0  0  0  0
    9.2950    1.3000   20.9480 O   0  0  0  0  0  0  0  0  0  0  0  0
   11.3604    0.5551   27.7606 Cl  0  0  0  0  0  0  0  0  0  0  0  0
    3.6223    2.0725   21.6574 H   0  0  0  0  0  0  0  0  0  0  0  0
    2.9864    2.6933   19.3609 H   0  0  0  0  0  0  0  0  0  0  0  0
   14.7390   -1.8374   25.2199 H   0  0  0  0  0  0  0  0  0  0  0  0
    5.6689    0.7392   22.0836 H   0  0  0  0  0  0  0  0  0  0  0  0
   13.5824   -1.5147   23.0583 H   0  0  0  0  0  0  0  0  0  0  0  0
   10.2684   -2.6719   22.3867 H   0  0  0  0  0  0  0  0  0  0  0  0
    7.8717   -0.0016   24.7596 H   0  0  0  0  0  0  0  0  0  0  0  0
    4.3807    2.0116   17.4186 H   0  0  0  0  0  0  0  0  0  0  0  0
    9.5443   -4.5616   23.7817 H   0  0  0  0  0  0  0  0  0  0  0  0
    7.1921   -1.8821   26.1908 H   0  0  0  0  0  0  0  0  0  0  0  0
   13.7685   -0.9294   27.3004 H   0  0  0  0  0  0  0  0  0  0  0  0
   10.4447    0.6461   25.0548 H   0  0  0  0  0  0  0  0  0  0  0  0
    8.1558   -4.5961   29.7550 H   0  0  0  0  0  0  0  0  0  0  0  0
    7.5611   -5.9778   28.8324 H   0  0  0  0  0  0  0  0  0  0  0  0
    5.9459   -4.1594   28.6209 H   0  0  0  0  0  0  0  0  0  0  0  0
    7.2011   -3.0160   28.1536 H   0  0  0  0  0  0  0  0  0  0  0  0
    9.7290   -3.9880   27.9846 H   0  0  0  0  0  0  0  0  0  0  0  0
    9.9437   -5.6964   28.3562 H   0  0  0  0  0  0  0  0  0  0  0  0
    6.2543   -5.4402   26.5659 H   0  0  0  0  0  0  0  0  0  0  0  0
    5.9909   -3.7397   26.1451 H   0  0  0  0  0  0  0  0  0  0  0  0
    9.9128   -5.2367   25.8843 H   0  0  0  0  0  0  0  0  0  0  0  0
    8.6365   -6.3517   26.3987 H   0  0  0  0  0  0  0  0  0  0  0  0
   11.5792    0.7206   22.1405 H   0  0  0  0  0  0  0  0  0  0  0  0
   11.5533   -1.0125   21.9215 H   0  0  0  0  0  0  0  0  0  0  0  0
    9.5402    0.8508   23.4127 H   0  0  0  0  0  0  0  0  0  0  0  0
    6.7486    0.4313   16.8331 H   0  0  0  0  0  0  0  0  0  0  0  0
    8.0917   -1.6083   21.0911 H   0  0  0  0  0  0  0  0  0  0  0  0
  1  2  1  0  0  0  0
  1  4  2  0  0  0  0
  2  8  2  0  0  0  0
  3  5  2  0  0  0  0
  3 11  1  0  0  0  0
  4 13  1  0  0  0  0
  5 15  1  0  0  0  0
  6  9  2  0  0  0  0
  6 14  1  0  0  0  0
  7 10  1  0  0  0  0
  7 14  2  0  0  0  0
  8 16  1  0  0  0  0
  9 17  1  0  0  0  0
 10 17  2  0  0  0  0
 11 18  2  0  0  0  0
 12 15  2  0  0  0  0
 12 18  1  0  0  0  0
 13 16  2  0  0  0  0
 13 19  1  0  0  0  0
 14 27  1  0  0  0  0
 15 26  1  0  0  0  0
 16 29  1  0  0  0  0
 17 30  1  0  0  0  0
 18 33  1  0  0  0  0
 19 28  2  0  0  0  0
 19 31  1  0  0  0  0
 20 27  1  6  0  0  0
 20 31  1  0  0  0  0
 20 32  2  0  0  0  0
 21 22  1  0  0  0  0
 21 23  1  0  0  0  0
 22 24  1  0  0  0  0
 23 25  1  0  0  0  0
 24 30  1  0  0  0  0
 25 30  1  0  0  0  0
 26 27  1  0  0  0  0
 28 29  1  0  0  0  0
  1 34  1  0  0  0  0
  2 35  1  0  0  0  0
  3 36  1  0  0  0  0
  4 37  1  0  0  0  0
  5 38  1  0  0  0  0
  6 39  1  0  0  0  0
  7 40  1  0  0  0  0
  8 41  1  0  0  0  0
  9 42  1  0  0  0  0
 10 43  1  0  0  0  0
 11 44  1  0  0  0  0
 12 45  1  0  0  0  0
 21 46  1  0  0  0  0
 21 47  1  0  0  0  0
 22 48  1  0  0  0  0
 22 49  1  0  0  0  0
 23 50  1  0  0  0  0
 23 51  1  0  0  0  0
 24 52  1  0  0  0  0
 24 53  1  0  0  0  0
 25 54  1  0  0  0  0
 25 55  1  0  0  0  0
 26 56  1  0  0  0  0
 26 57  1  0  0  0  0
 27 58  1  0  0  0  0
 29 59  1  0  0  0  0
 31 60  1  0  0  0  0
M  END
> <clash_score>
0.7026221430381941

> <docking_score>
-4.901422500610352

> <overlap_score>
0.9195516705513

$$$$
BENZO_234_1
  -OEChem-08232013533D

 60 64  0     1  0  0  0  0  0999 V2000
    4.2460    1.7520   20.8250 C   0  0  0  0  0  0  0  0  0  0  0  0
    3.8860    2.1050   19.5250 C   0  0  0  0  0  0  0  0  0  0  0  0
   12.6445    0.0926   25.8011 C   0  0  0  0  0  0  0  0  0  0  0  0
    5.3890    1.0010   21.0690 C   0  0  0  0  0  0  0  0  0  0  0  0
   11.6380    0.1048   24.8355 C   0  0  0  0  0  0  0  0  0  0  0  0
    9.5890   -2.4950   23.2210 C   0  0  0  0  0  0  0  0  0  0  0  0
    8.2550   -1.0010   24.5520 C   0  0  0  0  0  0  0  0  0  0  0  0
    4.6610    1.7170   18.4380 C   0  0  0  0  0  0  0  0  0  0  0  0
    9.1890   -3.5540   24.0140 C   0  0  0  0  0  0  0  0  0  0  0  0
    7.8700   -2.0610   25.3550 C   0  0  0  0  0  0  0  0  0  0  0  0
   12.7880    1.1720   26.6728 C   0  0  0  0  0  0  0  0  0  0  0  0
   10.9183    2.2761   25.6134 C   0  0  0  0  0  0  0  0  0  0  0  0
    6.1460    0.6070   19.9750 C   0  0  0  0  0  0  0  0  0  0  0  0
    9.1280   -1.2090   23.4870 C   0  0  0  0  0  0  0  0  0  0  0  0
   10.7749    1.1966   24.7417 C   0  0  0  0  0  0  0  0  0  0  0  0
    5.7970    0.9500   18.6730 C   0  0  0  0  0  0  0  0  0  0  0  0
    8.3450   -3.3440   25.0980 C   0  0  0  0  0  0  0  0  0  0  0  0
   11.9249    2.2638   26.5790 C   0  0  0  0  0  0  0  0  0  0  0  0
    7.2710   -0.1460   19.8310 C   0  0  0  0  0  0  0  0  0  0  0  0
    9.0430    0.2380   21.4940 C   0  0  0  0  0  0  0  0  0  0  0  0
    7.9496   -4.9537   28.7345 C   0  0  0  0  0  0  0  0  0  0  0  0
    6.8919   -4.0607   28.0818 C   0  0  0  0  0  0  0  0  0  0  0  0
    9.2470   -4.9693   27.9230 C   0  0  0  0  0  0  0  0  0  0  0  0
    6.6889   -4.4385   26.6147 C   0  0  0  0  0  0  0  0  0  0  0  0
    8.9871   -5.3207   26.4549 C   0  0  0  0  0  0  0  0  0  0  0  0
    9.6852    1.2097   23.6944 C   0  0  0  0  0  0  0  0  0  0  0  0
    9.5820   -0.1080   22.7000 C   0  0  1  0  0  0  0  0  0  0  0  0
    7.5840   -0.2700   18.5160 N   0  0  0  0  0  0  0  0  0  0  0  0
    6.7100    0.3850   17.8100 N   0  0  0  0  0  0  0  0  0  0  0  0
    7.9769   -4.4027   25.9163 N   0  0  0  0  0  0  0  0  0  0  0  0
    8.0950   -0.7700   20.8440 N   0  0  0  0  0  0  0  0  0  0  0  0
    9.2950    1.3000   20.9480 O   0  0  0  0  0  0  0  0  0  0  0  0
   12.1030    3.5958   27.6540 Cl  0  0  0  0  0  0  0  0  0  0  0  0
    3.6223    2.0725   21.6574 H   0  0  0  0  0  0  0  0  0  0  0  0
    2.9864    2.6933   19.3609 H   0  0  0  0  0  0  0  0  0  0  0  0
   13.3165   -0.7577   25.8737 H   0  0  0  0  0  0  0  0  0  0  0  0
    5.6689    0.7392   22.0836 H   0  0  0  0  0  0  0  0  0  0  0  0
   11.5336   -0.7405   24.1604 H   0  0  0  0  0  0  0  0  0  0  0  0
   10.2684   -2.6719   22.3867 H   0  0  0  0  0  0  0  0  0  0  0  0
    7.8717   -0.0016   24.7596 H   0  0  0  0  0  0  0  0  0  0  0  0
    4.3807    2.0116   17.4186 H   0  0  0  0  0  0  0  0  0  0  0  0
    9.5443   -4.5616   23.7817 H   0  0  0  0  0  0  0  0  0  0  0  0
    7.1921   -1.8821   26.1908 H   0  0  0  0  0  0  0  0  0  0  0  0
   13.5772    1.1489   27.4203 H   0  0  0  0  0  0  0  0  0  0  0  0
   10.2425    3.1247   25.5365 H   0  0  0  0  0  0  0  0  0  0  0  0
    8.1558   -4.5961   29.7550 H   0  0  0  0  0  0  0  0  0  0  0  0
    7.5611   -5.9778   28.8324 H   0  0  0  0  0  0  0  0  0  0  0  0
    5.9459   -4.1594   28.6209 H   0  0  0  0  0  0  0  0  0  0  0  0
    7.2011   -3.0160   28.1536 H   0  0  0  0  0  0  0  0  0  0  0  0
    9.7290   -3.9880   27.9846 H   0  0  0  0  0  0  0  0  0  0  0  0
    9.9437   -5.6964   28.3562 H   0  0  0  0  0  0  0  0  0  0  0  0
    6.2543   -5.4402   26.5659 H   0  0  0  0  0  0  0  0  0  0  0  0
    5.9909   -3.7397   26.1451 H   0  0  0  0  0  0  0  0  0  0  0  0
    9.9128   -5.2367   25.8843 H   0  0  0  0  0  0  0  0  0  0  0  0
    8.6365   -6.3517   26.3987 H   0  0  0  0  0  0  0  0  0  0  0  0
    8.7197    1.4079   24.1780 H   0  0  0  0  0  0  0  0  0  0  0  0
    9.8623    2.0699   23.0340 H   0  0  0  0  0  0  0  0  0  0  0  0
   10.7567   -0.2690   22.5478 H   0  0  0  0  0  0  0  0  0  0  0  0
    6.7486    0.4313   16.8331 H   0  0  0  0  0  0  0  0  0  0  0  0
    8.0917   -1.6083   21.0911 H   0  0  0  0  0  0  0  0  0  0  0  0
  1  2  1  0  0  0  0
  1  4  2  0  0  0  0
  2  8  2  0  0  0  0
  3  5  2  0  0  0  0
  3 11  1  0  0  0  0
  4 13  1  0  0  0  0
  5 15  1  0  0  0  0
  6  9  2  0  0  0  0
  6 14  1  0  0  0  0
  7 10  1  0  0  0  0
  7 14  2  0  0  0  0
  8 16  1  0  0  0  0
  9 17  1  0  0  0  0
 10 17  2  0  0  0  0
 11 18  2  0  0  0  0
 12 15  2  0  0  0  0
 12 18  1  0  0  0  0
 13 16  2  0  0  0  0
 13 19  1  0  0  0  0
 14 27  1  0  0  0  0
 15 26  1  0  0  0  0
 16 29  1  0  0  0  0
 17 30  1  0  0  0  0
 18 33  1  0  0  0  0
 19 28  2  0  0  0  0
 19 31  1  0  0  0  0
 20 27  1  1  0  0  0
 20 31  1  0  0  0  0
 20 32  2  0  0  0  0
 21 22  1  0  0  0  0
 21 23  1  0  0  0  0
 22 24  1  0  0  0  0
 23 25  1  0  0  0  0
 24 30  1  0  0  0  0
 25 30  1  0  0  0  0
 26 27  1  0  0  0  0
 28 29  1  0  0  0  0
  1 34  1  0  0  0  0
  2 35  1  0  0  0  0
  3 36  1  0  0  0  0
  4 37  1  0  0  0  0
  5 38  1  0  0  0  0
  6 39  1  0  0  0  0
  7 40  1  0  0  0  0
  8 41  1  0  0  0  0
  9 42  1  0  0  0  0
 10 43  1  0  0  0  0
 11 44  1  0  0  0  0
 12 45  1  0  0  0  0
 21 46  1  0  0  0  0
 21 47  1  0  0  0  0
 22 48  1  0  0  0  0
 22 49  1  0  0  0  0
 23 50  1  0  0  0  0
 23 51  1  0  0  0  0
 24 52  1  0  0  0  0
 24 53  1  0  0  0  0
 25 54  1  0  0  0  0
 25 55  1  0  0  0  0
 26 56  1  0  0  0  0
 26 57  1  0  0  0  0
 27 58  1  0  0  0  0
 29 59  1  0  0  0  0
 31 60  1  0  0  0  0
M  END
> <clash_score>
5.493965050688214

> <docking_score>
-3.3238162994384766

> <overlap_score>
0.8420959711074829

$$$$
BENZO_238_1
  -OEChem-08232013533D

 48 51  0     1  0  0  0  0  0999 V2000
    4.2460    1.7520   20.8250 C   0  0  0  0  0  0  0  0  0  0  0  0
    3.8860    2.1050   19.5250 C   0  0  0  0  0  0  0  0  0  0  0  0
   13.7696   -1.3331   25.2040 C   0  0  0  0  0  0  0  0  0  0  0  0
    5.3890    1.0010   21.0690 C   0  0  0  0  0  0  0  0  0  0  0  0
   13.1260   -1.1377   23.9821 C   0  0  0  0  0  0  0  0  0  0  0  0
    9.1890   -3.5540   24.0140 C   0  0  0  0  0  0  0  0  0  0  0  0
    7.8700   -2.0610   25.3550 C   0  0  0  0  0  0  0  0  0  0  0  0
    9.5890   -2.4950   23.2210 C   0  0  0  0  0  0  0  0  0  0  0  0
    8.2550   -1.0010   24.5520 C   0  0  0  0  0  0  0  0  0  0  0  0
    4.6610    1.7170   18.4380 C   0  0  0  0  0  0  0  0  0  0  0  0
   13.2109   -0.8232   26.3761 C   0  0  0  0  0  0  0  0  0  0  0  0
   11.3649    0.0776   25.1042 C   0  0  0  0  0  0  0  0  0  0  0  0
    6.1460    0.6070   19.9750 C   0  0  0  0  0  0  0  0  0  0  0  0
    8.3450   -3.3440   25.0980 C   0  0  0  0  0  0  0  0  0  0  0  0
    9.1280   -1.2090   23.4870 C   0  0  0  0  0  0  0  0  0  0  0  0
   11.9236   -0.4323   23.9322 C   0  0  0  0  0  0  0  0  0  0  0  0
    5.7970    0.9500   18.6730 C   0  0  0  0  0  0  0  0  0  0  0  0
   12.0086   -0.1179   26.3261 C   0  0  0  0  0  0  0  0  0  0  0  0
    7.2710   -0.1460   19.8310 C   0  0  0  0  0  0  0  0  0  0  0  0
    9.0430    0.2380   21.4940 C   0  0  0  0  0  0  0  0  0  0  0  0
    7.9517   -4.4787   25.9770 C   0  0  0  0  0  0  0  0  0  0  0  0
   11.2273   -0.2199   22.6076 C   0  0  0  0  0  0  0  0  0  0  0  0
    9.5820   -0.1080   22.7000 C   0  0  1  0  0  0  0  0  0  0  0  0
    7.5840   -0.2700   18.5160 N   0  0  0  0  0  0  0  0  0  0  0  0
    6.7100    0.3850   17.8100 N   0  0  0  0  0  0  0  0  0  0  0  0
    8.0950   -0.7700   20.8440 N   0  0  0  0  0  0  0  0  0  0  0  0
    9.2950    1.3000   20.9480 O   0  0  0  0  0  0  0  0  0  0  0  0
   11.3203    0.5119   27.7723 Cl  0  0  0  0  0  0  0  0  0  0  0  0
    3.6223    2.0725   21.6574 H   0  0  0  0  0  0  0  0  0  0  0  0
    2.9864    2.6933   19.3609 H   0  0  0  0  0  0  0  0  0  0  0  0
   14.7060   -1.8822   25.2425 H   0  0  0  0  0  0  0  0  0  0  0  0
    5.6689    0.7392   22.0836 H   0  0  0  0  0  0  0  0  0  0  0  0
   13.5686   -1.5384   23.0739 H   0  0  0  0  0  0  0  0  0  0  0  0
    9.5416   -4.5625   23.7818 H   0  0  0  0  0  0  0  0  0  0  0  0
    7.1926   -1.8847   26.1916 H   0  0  0  0  0  0  0  0  0  0  0  0
   10.2688   -2.6720   22.3870 H   0  0  0  0  0  0  0  0  0  0  0  0
    7.8705   -0.0015   24.7579 H   0  0  0  0  0  0  0  0  0  0  0  0
    4.3807    2.0116   17.4186 H   0  0  0  0  0  0  0  0  0  0  0  0
   13.7238   -0.9829   27.3213 H   0  0  0  0  0  0  0  0  0  0  0  0
   10.4270    0.6263   25.0600 H   0  0  0  0  0  0  0  0  0  0  0  0
    8.6661   -4.5883   26.8021 H   0  0  0  0  0  0  0  0  0  0  0  0
    6.9508   -4.3263   26.4014 H   0  0  0  0  0  0  0  0  0  0  0  0
    7.9188   -5.4228   25.4175 H   0  0  0  0  0  0  0  0  0  0  0  0
   11.5842    0.7149   22.1561 H   0  0  0  0  0  0  0  0  0  0  0  0
   11.5525   -1.0164   21.9239 H   0  0  0  0  0  0  0  0  0  0  0  0
    9.5374    0.8439   23.4178 H   0  0  0  0  0  0  0  0  0  0  0  0
    6.7486    0.4313   16.8331 H   0  0  0  0  0  0  0  0  0  0  0  0
    8.0757   -1.6162   21.0774 H   0  0  0  0  0  0  0  0  0  0  0  0
  1  2  1  0  0  0  0
  1  4  2  0  0  0  0
  2 10  2  0  0  0  0
  3  5  2  0  0  0  0
  3 11  1  0  0  0  0
  4 13  1  0  0  0  0
  5 16  1  0  0  0  0
  6  8  2  0  0  0  0
  6 14  1  0  0  0  0
  7  9  1  0  0  0  0
  7 14  2  0  0  0  0
  8 15  1  0  0  0  0
  9 15  2  0  0  0  0
 10 17  1  0  0  0  0
 11 18  2  0  0  0  0
 12 16  2  0  0  0  0
 12 18  1  0  0  0  0
 13 17  2  0  0  0  0
 13 19  1  0  0  0  0
 14 21  1  0  0  0  0
 15 23  1  0  0  0  0
 16 22  1  0  0  0  0
 17 25  1  0  0  0  0
 18 28  1  0  0  0  0
 19 24  2  0  0  0  0
 19 26  1  0  0  0  0
 20 23  1  0  0  0  0
 20 26  1  0  0  0  0
 20 27  2  0  0  0  0
 22 23  1  1  0  0  0
 24 25  1  0  0  0  0
  1 29  1  0  0  0  0
  2 30  1  0  0  0  0
  3 31  1  0  0  0  0
  4 32  1  0  0  0  0
  5 33  1  0  0  0  0
  6 34  1  0  0  0  0
  7 35  1  0  0  0  0
  8 36  1  0  0  0  0
  9 37  1  0  0  0  0
 10 38  1  0  0  0  0
 11 39  1  0  0  0  0
 12 40  1  0  0  0  0
 21 41  1  0  0  0  0
 21 42  1  0  0  0  0
 21 43  1  0  0  0  0
 22 44  1  0  0  0  0
 22 45  1  0  0  0  0
 23 46  1  0  0  0  0
 25 47  1  0  0  0  0
 26 48  1  0  0  0  0
M  END
> <clash_score>
0.7019244850424641

> <docking_score>
-4.071581840515137

> <overlap_score>
0.829989492893219

$$$$
BENZO_238_2
  -OEChem-08232013533D

 48 51  0     1  0  0  0  0  0999 V2000
    4.2460    1.7520   20.8250 C   0  0  0  0  0  0  0  0  0  0  0  0
    3.8860    2.1050   19.5250 C   0  0  0  0  0  0  0  0  0  0  0  0
   12.9593    0.4495   25.4778 C   0  0  0  0  0  0  0  0  0  0  0  0
    5.3890    1.0010   21.0690 C   0  0  0  0  0  0  0  0  0  0  0  0
   11.9571    0.4794   24.5081 C   0  0  0  0  0  0  0  0  0  0  0  0
    9.1890   -3.5540   24.0140 C   0  0  0  0  0  0  0  0  0  0  0  0
    7.8700   -2.0610   25.3550 C   0  0  0  0  0  0  0  0  0  0  0  0
    9.5890   -2.4950   23.2210 C   0  0  0  0  0  0  0  0  0  0  0  0
    8.2550   -1.0010   24.5520 C   0  0  0  0  0  0  0  0  0  0  0  0
    4.6610    1.7170   18.4380 C   0  0  0  0  0  0  0  0  0  0  0  0
   12.7735    1.1081   26.6933 C   0  0  0  0  0  0  0  0  0  0  0  0
   10.5833    1.8264   25.9694 C   0  0  0  0  0  0  0  0  0  0  0  0
    6.1460    0.6070   19.9750 C   0  0  0  0  0  0  0  0  0  0  0  0
    8.3450   -3.3440   25.0980 C   0  0  0  0  0  0  0  0  0  0  0  0
    9.1280   -1.2090   23.4870 C   0  0  0  0  0  0  0  0  0  0  0  0
   10.7691    1.1678   24.7539 C   0  0  0  0  0  0  0  0  0  0  0  0
    5.7970    0.9500   18.6730 C   0  0  0  0  0  0  0  0  0  0  0  0
   11.5856    1.7966   26.9391 C   0  0  0  0  0  0  0  0  0  0  0  0
    7.2710   -0.1460   19.8310 C   0  0  0  0  0  0  0  0  0  0  0  0
    9.0430    0.2380   21.4940 C   0  0  0  0  0  0  0  0  0  0  0  0
    7.9517   -4.4787   25.9770 C   0  0  0  0  0  0  0  0  0  0  0  0
    9.6841    1.2008   23.7022 C   0  0  0  0  0  0  0  0  0  0  0  0
    9.5820   -0.1080   22.7000 C   0  0  2  0  0  0  0  0  0  0  0  0
    7.5840   -0.2700   18.5160 N   0  0  0  0  0  0  0  0  0  0  0  0
    6.7100    0.3850   17.8100 N   0  0  0  0  0  0  0  0  0  0  0  0
    8.0950   -0.7700   20.8440 N   0  0  0  0  0  0  0  0  0  0  0  0
    9.2950    1.3000   20.9480 O   0  0  0  0  0  0  0  0  0  0  0  0
   11.3574    2.6099   28.4385 Cl  0  0  0  0  0  0  0  0  0  0  0  0
    3.6223    2.0725   21.6574 H   0  0  0  0  0  0  0  0  0  0  0  0
    2.9864    2.6933   19.3609 H   0  0  0  0  0  0  0  0  0  0  0  0
   13.8843   -0.0866   25.2859 H   0  0  0  0  0  0  0  0  0  0  0  0
    5.6689    0.7392   22.0836 H   0  0  0  0  0  0  0  0  0  0  0  0
   12.1105   -0.0365   23.5638 H   0  0  0  0  0  0  0  0  0  0  0  0
    9.5416   -4.5625   23.7818 H   0  0  0  0  0  0  0  0  0  0  0  0
    7.1926   -1.8847   26.1916 H   0  0  0  0  0  0  0  0  0  0  0  0
   10.2688   -2.6720   22.3870 H   0  0  0  0  0  0  0  0  0  0  0  0
    7.8705   -0.0015   24.7579 H   0  0  0  0  0  0  0  0  0  0  0  0
    4.3807    2.0116   17.4186 H   0  0  0  0  0  0  0  0  0  0  0  0
   13.5634    1.0766   27.4398 H   0  0  0  0  0  0  0  0  0  0  0  0
    9.6551    2.3614   26.1564 H   0  0  0  0  0  0  0  0  0  0  0  0
    8.6661   -4.5883   26.8021 H   0  0  0  0  0  0  0  0  0  0  0  0
    6.9508   -4.3263   26.4014 H   0  0  0  0  0  0  0  0  0  0  0  0
    7.9188   -5.4228   25.4175 H   0  0  0  0  0  0  0  0  0  0  0  0
    8.7167    1.3910   24.1851 H   0  0  0  0  0  0  0  0  0  0  0  0
    9.8647    2.0727   23.0582 H   0  0  0  0  0  0  0  0  0  0  0  0
   10.7539   -0.2760   22.5528 H   0  0  0  0  0  0  0  0  0  0  0  0
    6.7486    0.4313   16.8331 H   0  0  0  0  0  0  0  0  0  0  0  0
    8.0757   -1.6162   21.0774 H   0  0  0  0  0  0  0  0  0  0  0  0
  1  2  1  0  0  0  0
  1  4  2  0  0  0  0
  2 10  2  0  0  0  0
  3  5  2  0  0  0  0
  3 11  1  0  0  0  0
  4 13  1  0  0  0  0
  5 16  1  0  0  0  0
  6  8  2  0  0  0  0
  6 14  1  0  0  0  0
  7  9  1  0  0  0  0
  7 14  2  0  0  0  0
  8 15  1  0  0  0  0
  9 15  2  0  0  0  0
 10 17  1  0  0  0  0
 11 18  2  0  0  0  0
 12 16  2  0  0  0  0
 12 18  1  0  0  0  0
 13 17  2  0  0  0  0
 13 19  1  0  0  0  0
 14 21  1  0  0  0  0
 15 23  1  0  0  0  0
 16 22  1  0  0  0  0
 17 25  1  0  0  0  0
 18 28  1  0  0  0  0
 19 24  2  0  0  0  0
 19 26  1  0  0  0  0
 20 23  1  0  0  0  0
 20 26  1  0  0  0  0
 20 27  2  0  0  0  0
 22 23  1  6  0  0  0
 24 25  1  0  0  0  0
  1 29  1  0  0  0  0
  2 30  1  0  0  0  0
  3 31  1  0  0  0  0
  4 32  1  0  0  0  0
  5 33  1  0  0  0  0
  6 34  1  0  0  0  0
  7 35  1  0  0  0  0
  8 36  1  0  0  0  0
  9 37  1  0  0  0  0
 10 38  1  0  0  0  0
 11 39  1  0  0  0  0
 12 40  1  0  0  0  0
 21 41  1  0  0  0  0
 21 42  1  0  0  0  0
 21 43  1  0  0  0  0
 22 44  1  0  0  0  0
 22 45  1  0  0  0  0
 23 46  1  0  0  0  0
 25 47  1  0  0  0  0
 26 48  1  0  0  0  0
M  END
> <clash_score>
7.492653004956096

> <docking_score>
-2.3061060905456543

> <overlap_score>
0.7589688301086426

$$$$
BENZO_239_1
  -OEChem-08232013533D

 48 51  0     1  0  0  0  0  0999 V2000
    4.2460    1.7520   20.8250 C   0  0  0  0  0  0  0  0  0  0  0  0
    3.8860    2.1050   19.5250 C   0  0  0  0  0  0  0  0  0  0  0  0
    5.3890    1.0010   21.0690 C   0  0  0  0  0  0  0  0  0  0  0  0
    9.1890   -3.5540   24.0140 C   0  0  0  0  0  0  0  0  0  0  0  0
    7.8700   -2.0610   25.3550 C   0  0  0  0  0  0  0  0  0  0  0  0
    9.5890   -2.4950   23.2210 C   0  0  0  0  0  0  0  0  0  0  0  0
    8.2550   -1.0010   24.5520 C   0  0  0  0  0  0  0  0  0  0  0  0
    4.6610    1.7170   18.4380 C   0  0  0  0  0  0  0  0  0  0  0  0
   13.1332   -1.1110   24.1732 C   0  0  0  0  0  0  0  0  0  0  0  0
   11.5178   -0.0030   25.1721 C   0  0  0  0  0  0  0  0  0  0  0  0
    6.1460    0.6070   19.9750 C   0  0  0  0  0  0  0  0  0  0  0  0
    8.3450   -3.3440   25.0980 C   0  0  0  0  0  0  0  0  0  0  0  0
    9.1280   -1.2090   23.4870 C   0  0  0  0  0  0  0  0  0  0  0  0
   11.9236   -0.4323   23.9322 C   0  0  0  0  0  0  0  0  0  0  0  0
    5.7970    0.9500   18.6730 C   0  0  0  0  0  0  0  0  0  0  0  0
    7.2710   -0.1460   19.8310 C   0  0  0  0  0  0  0  0  0  0  0  0
    9.0430    0.2380   21.4940 C   0  0  0  0  0  0  0  0  0  0  0  0
    7.9517   -4.4787   25.9770 C   0  0  0  0  0  0  0  0  0  0  0  0
   12.4834   -0.2219   27.4740 C   0  0  0  0  0  0  0  0  0  0  0  0
   11.2273   -0.2199   22.6076 C   0  0  0  0  0  0  0  0  0  0  0  0
    9.5820   -0.1080   22.7000 C   0  0  1  0  0  0  0  0  0  0  0  0
   13.4738   -1.1150   25.4647 N   0  0  0  0  0  0  0  0  0  0  0  0
    7.5840   -0.2700   18.5160 N   0  0  0  0  0  0  0  0  0  0  0  0
    6.7100    0.3850   17.8100 N   0  0  0  0  0  0  0  0  0  0  0  0
   12.4721   -0.4335   26.0464 N   0  0  0  0  0  0  0  0  0  0  0  0
    8.0950   -0.7700   20.8440 N   0  0  0  0  0  0  0  0  0  0  0  0
    9.2950    1.3000   20.9480 O   0  0  0  0  0  0  0  0  0  0  0  0
    3.6223    2.0725   21.6574 H   0  0  0  0  0  0  0  0  0  0  0  0
    2.9864    2.6933   19.3609 H   0  0  0  0  0  0  0  0  0  0  0  0
    5.6689    0.7392   22.0836 H   0  0  0  0  0  0  0  0  0  0  0  0
    9.5416   -4.5625   23.7818 H   0  0  0  0  0  0  0  0  0  0  0  0
    7.1926   -1.8847   26.1916 H   0  0  0  0  0  0  0  0  0  0  0  0
   10.2688   -2.6720   22.3870 H   0  0  0  0  0  0  0  0  0  0  0  0
    7.8705   -0.0015   24.7579 H   0  0  0  0  0  0  0  0  0  0  0  0
    4.3807    2.0116   17.4186 H   0  0  0  0  0  0  0  0  0  0  0  0
   13.7829   -1.6028   23.4631 H   0  0  0  0  0  0  0  0  0  0  0  0
   10.6535    0.5594   25.4986 H   0  0  0  0  0  0  0  0  0  0  0  0
    8.6661   -4.5883   26.8021 H   0  0  0  0  0  0  0  0  0  0  0  0
    6.9508   -4.3263   26.4014 H   0  0  0  0  0  0  0  0  0  0  0  0
    7.9188   -5.4228   25.4175 H   0  0  0  0  0  0  0  0  0  0  0  0
   11.9614   -1.0599   27.9433 H   0  0  0  0  0  0  0  0  0  0  0  0
   13.5174   -0.1700   27.8262 H   0  0  0  0  0  0  0  0  0  0  0  0
   11.9792    0.7209   27.7036 H   0  0  0  0  0  0  0  0  0  0  0  0
   11.5842    0.7149   22.1561 H   0  0  0  0  0  0  0  0  0  0  0  0
   11.5525   -1.0164   21.9239 H   0  0  0  0  0  0  0  0  0  0  0  0
    9.5374    0.8439   23.4178 H   0  0  0  0  0  0  0  0  0  0  0  0
    6.7486    0.4313   16.8331 H   0  0  0  0  0  0  0  0  0  0  0  0
    8.0757   -1.6162   21.0774 H   0  0  0  0  0  0  0  0  0  0  0  0
  1  2  1  0  0  0  0
  1  3  2  0  0  0  0
  2  8  2  0  0  0  0
  3 11  1  0  0  0  0
  4  6  2  0  0  0  0
  4 12  1  0  0  0  0
  5  7  1  0  0  0  0
  5 12  2  0  0  0  0
  6 13  1  0  0  0  0
  7 13  2  0  0  0  0
  8 15  1  0  0  0  0
  9 14  1  0  0  0  0
  9 22  2  0  0  0  0
 10 14  2  0  0  0  0
 10 25  1  0  0  0  0
 11 15  2  0  0  0  0
 11 16  1  0  0  0  0
 12 18  1  0  0  0  0
 13 21  1  0  0  0  0
 14 20  1  0  0  0  0
 15 24  1  0  0  0  0
 16 23  2  0  0  0  0
 16 26  1  0  0  0  0
 17 21  1  0  0  0  0
 17 26  1  0  0  0  0
 17 27  2  0  0  0  0
 19 25  1  0  0  0  0
 20 21  1  1  0  0  0
 22 25  1  0  0  0  0
 23 24  1  0  0  0  0
  1 28  1  0  0  0  0
  2 29  1  0  0  0  0
  3 30  1  0  0  0  0
  4 31  1  0  0  0  0
  5 32  1  0  0  0  0
  6 33  1  0  0  0  0
  7 34  1  0  0  0  0
  8 35  1  0  0  0  0
  9 36  1  0  0  0  0
 10 37  1  0  0  0  0
 18 38  1  0  0  0  0
 18 39  1  0  0  0  0
 18 40  1  0  0  0  0
 19 41  1  0  0  0  0
 19 42  1  0  0  0  0
 19 43  1  0  0  0  0
 20 44  1  0  0  0  0
 20 45  1  0  0  0  0
 21 46  1  0  0  0  0
 24 47  1  0  0  0  0
 26 48  1  0  0  0  0
M  END
> <clash_score>
0

> <docking_score>
-4.3694939613342285

> <overlap_score>
0.8262994885444641

$$$$
BENZO_239_2
  -OEChem-08232013533D

 48 51  0     1  0  0  0  0  0999 V2000
    4.2460    1.7520   20.8250 C   0  0  0  0  0  0  0  0  0  0  0  0
    3.8860    2.1050   19.5250 C   0  0  0  0  0  0  0  0  0  0  0  0
    5.3890    1.0010   21.0690 C   0  0  0  0  0  0  0  0  0  0  0  0
    9.1890   -3.5540   24.0140 C   0  0  0  0  0  0  0  0  0  0  0  0
    7.8700   -2.0610   25.3550 C   0  0  0  0  0  0  0  0  0  0  0  0
    9.5890   -2.4950   23.2210 C   0  0  0  0  0  0  0  0  0  0  0  0
    8.2550   -1.0010   24.5520 C   0  0  0  0  0  0  0  0  0  0  0  0
    4.6610    1.7170   18.4380 C   0  0  0  0  0  0  0  0  0  0  0  0
   11.7155    0.1520   24.9872 C   0  0  0  0  0  0  0  0  0  0  0  0
   11.0544    2.1258   25.6959 C   0  0  0  0  0  0  0  0  0  0  0  0
    6.1460    0.6070   19.9750 C   0  0  0  0  0  0  0  0  0  0  0  0
    8.3450   -3.3440   25.0980 C   0  0  0  0  0  0  0  0  0  0  0  0
    9.1280   -1.2090   23.4870 C   0  0  0  0  0  0  0  0  0  0  0  0
   10.7691    1.1678   24.7539 C   0  0  0  0  0  0  0  0  0  0  0  0
    5.7970    0.9500   18.6730 C   0  0  0  0  0  0  0  0  0  0  0  0
    7.2710   -0.1460   19.8310 C   0  0  0  0  0  0  0  0  0  0  0  0
    9.0430    0.2380   21.4940 C   0  0  0  0  0  0  0  0  0  0  0  0
    7.9517   -4.4787   25.9770 C   0  0  0  0  0  0  0  0  0  0  0  0
   12.7726    2.3012   27.5113 C   0  0  0  0  0  0  0  0  0  0  0  0
    9.6841    1.2008   23.7022 C   0  0  0  0  0  0  0  0  0  0  0  0
    9.5820   -0.1080   22.7000 C   0  0  2  0  0  0  0  0  0  0  0  0
   12.5403    0.4380   25.9980 N   0  0  0  0  0  0  0  0  0  0  0  0
    7.5840   -0.2700   18.5160 N   0  0  0  0  0  0  0  0  0  0  0  0
    6.7100    0.3850   17.8100 N   0  0  0  0  0  0  0  0  0  0  0  0
   12.1132    1.6445   26.4082 N   0  0  0  0  0  0  0  0  0  0  0  0
    8.0950   -0.7700   20.8440 N   0  0  0  0  0  0  0  0  0  0  0  0
    9.2950    1.3000   20.9480 O   0  0  0  0  0  0  0  0  0  0  0  0
    3.6223    2.0725   21.6574 H   0  0  0  0  0  0  0  0  0  0  0  0
    2.9864    2.6933   19.3609 H   0  0  0  0  0  0  0  0  0  0  0  0
    5.6689    0.7392   22.0836 H   0  0  0  0  0  0  0  0  0  0  0  0
    9.5416   -4.5625   23.7818 H   0  0  0  0  0  0  0  0  0  0  0  0
    7.1926   -1.8847   26.1916 H   0  0  0  0  0  0  0  0  0  0  0  0
   10.2688   -2.6720   22.3870 H   0  0  0  0  0  0  0  0  0  0  0  0
    7.8705   -0.0015   24.7579 H   0  0  0  0  0  0  0  0  0  0  0  0
    4.3807    2.0116   17.4186 H   0  0  0  0  0  0  0  0  0  0  0  0
   11.8409   -0.7851   24.4635 H   0  0  0  0  0  0  0  0  0  0  0  0
   10.6061    3.0857   25.9138 H   0  0  0  0  0  0  0  0  0  0  0  0
    8.6661   -4.5883   26.8021 H   0  0  0  0  0  0  0  0  0  0  0  0
    6.9508   -4.3263   26.4014 H   0  0  0  0  0  0  0  0  0  0  0  0
    7.9188   -5.4228   25.4175 H   0  0  0  0  0  0  0  0  0  0  0  0
   12.2713    1.9965   28.4337 H   0  0  0  0  0  0  0  0  0  0  0  0
   13.8256    2.0072   27.5334 H   0  0  0  0  0  0  0  0  0  0  0  0
   12.7061    3.3847   27.3788 H   0  0  0  0  0  0  0  0  0  0  0  0
    8.7167    1.3910   24.1851 H   0  0  0  0  0  0  0  0  0  0  0  0
    9.8647    2.0727   23.0582 H   0  0  0  0  0  0  0  0  0  0  0  0
   10.7539   -0.2760   22.5528 H   0  0  0  0  0  0  0  0  0  0  0  0
    6.7486    0.4313   16.8331 H   0  0  0  0  0  0  0  0  0  0  0  0
    8.0757   -1.6162   21.0774 H   0  0  0  0  0  0  0  0  0  0  0  0
  1  2  1  0  0  0  0
  1  3  2  0  0  0  0
  2  8  2  0  0  0  0
  3 11  1  0  0  0  0
  4  6  2  0  0  0  0
  4 12  1  0  0  0  0
  5  7  1  0  0  0  0
  5 12  2  0  0  0  0
  6 13  1  0  0  0  0
  7 13  2  0  0  0  0
  8 15  1  0  0  0  0
  9 14  1  0  0  0  0
  9 22  2  0  0  0  0
 10 14  2  0  0  0  0
 10 25  1  0  0  0  0
 11 15  2  0  0  0  0
 11 16  1  0  0  0  0
 12 18  1  0  0  0  0
 13 21  1  0  0  0  0
 14 20  1  0  0  0  0
 15 24  1  0  0  0  0
 16 23  2  0  0  0  0
 16 26  1  0  0  0  0
 17 21  1  0  0  0  0
 17 26  1  0  0  0  0
 17 27  2  0  0  0  0
 19 25  1  0  0  0  0
 20 21  1  6  0  0  0
 22 25  1  0  0  0  0
 23 24  1  0  0  0  0
  1 28  1  0  0  0  0
  2 29  1  0  0  0  0
  3 30  1  0  0  0  0
  4 31  1  0  0  0  0
  5 32  1  0  0  0  0
  6 33  1  0  0  0  0
  7 34  1  0  0  0  0
  8 35  1  0  0  0  0
  9 36  1  0  0  0  0
 10 37  1  0  0  0  0
 18 38  1  0  0  0  0
 18 39  1  0  0  0  0
 18 40  1  0  0  0  0
 19 41  1  0  0  0  0
 19 42  1  0  0  0  0
 19 43  1  0  0  0  0
 20 44  1  0  0  0  0
 20 45  1  0  0  0  0
 21 46  1  0  0  0  0
 24 47  1  0  0  0  0
 26 48  1  0  0  0  0
M  END
> <clash_score>
3.2086004152360648

> <docking_score>
-2.3121495246887207

> <overlap_score>
0.7493649125099182

$$$$
BENZO_241_1
  -OEChem-08232013533D

 49 52  0     1  0  0  0  0  0999 V2000
   13.2081   -0.8233   26.3776 C   0  0  0  0  0  0  0  0  0  0  0  0
    4.2460    1.7520   20.8250 C   0  0  0  0  0  0  0  0  0  0  0  0
   13.7678   -1.3337   25.2064 C   0  0  0  0  0  0  0  0  0  0  0  0
   12.0060   -0.1174   26.3261 C   0  0  0  0  0  0  0  0  0  0  0  0
    3.8860    2.1050   19.5250 C   0  0  0  0  0  0  0  0  0  0  0  0
    5.3890    1.0010   21.0690 C   0  0  0  0  0  0  0  0  0  0  0  0
   13.1256   -1.1382   23.9837 C   0  0  0  0  0  0  0  0  0  0  0  0
   11.3638    0.0781   25.1034 C   0  0  0  0  0  0  0  0  0  0  0  0
    9.5890   -2.4950   23.2210 C   0  0  0  0  0  0  0  0  0  0  0  0
    8.2550   -1.0010   24.5520 C   0  0  0  0  0  0  0  0  0  0  0  0
    4.6610    1.7170   18.4380 C   0  0  0  0  0  0  0  0  0  0  0  0
    9.1890   -3.5540   24.0140 C   0  0  0  0  0  0  0  0  0  0  0  0
    7.8700   -2.0610   25.3550 C   0  0  0  0  0  0  0  0  0  0  0  0
    6.1460    0.6070   19.9750 C   0  0  0  0  0  0  0  0  0  0  0  0
   11.9236   -0.4323   23.9322 C   0  0  0  0  0  0  0  0  0  0  0  0
    9.1280   -1.2090   23.4870 C   0  0  0  0  0  0  0  0  0  0  0  0
    5.7970    0.9500   18.6730 C   0  0  0  0  0  0  0  0  0  0  0  0
    8.3450   -3.3440   25.0980 C   0  0  0  0  0  0  0  0  0  0  0  0
    7.2710   -0.1460   19.8310 C   0  0  0  0  0  0  0  0  0  0  0  0
    9.0430    0.2380   21.4940 C   0  0  0  0  0  0  0  0  0  0  0  0
    7.1165   -4.0859   26.9913 C   0  0  0  0  0  0  0  0  0  0  0  0
   11.2273   -0.2199   22.6076 C   0  0  0  0  0  0  0  0  0  0  0  0
    9.5820   -0.1080   22.7000 C   0  0  1  0  0  0  0  0  0  0  0  0
    7.5840   -0.2700   18.5160 N   0  0  0  0  0  0  0  0  0  0  0  0
    6.7100    0.3850   17.8100 N   0  0  0  0  0  0  0  0  0  0  0  0
    8.0950   -0.7700   20.8440 N   0  0  0  0  0  0  0  0  0  0  0  0
    9.2950    1.3000   20.9480 O   0  0  0  0  0  0  0  0  0  0  0  0
    7.9856   -4.3803   25.8987 O   0  0  0  0  0  0  0  0  0  0  0  0
   13.7076   -0.9767   27.3297 H   0  0  0  0  0  0  0  0  0  0  0  0
    3.6223    2.0725   21.6574 H   0  0  0  0  0  0  0  0  0  0  0  0
   14.7032   -1.8843   25.2464 H   0  0  0  0  0  0  0  0  0  0  0  0
   11.5694    0.2792   27.2379 H   0  0  0  0  0  0  0  0  0  0  0  0
    2.9864    2.6933   19.3609 H   0  0  0  0  0  0  0  0  0  0  0  0
    5.6689    0.7392   22.0836 H   0  0  0  0  0  0  0  0  0  0  0  0
   13.5692   -1.5394   23.0762 H   0  0  0  0  0  0  0  0  0  0  0  0
   10.4277    0.6294   25.0729 H   0  0  0  0  0  0  0  0  0  0  0  0
   10.2677   -2.6721   22.3861 H   0  0  0  0  0  0  0  0  0  0  0  0
    7.8705   -0.0015   24.7586 H   0  0  0  0  0  0  0  0  0  0  0  0
    4.3807    2.0116   17.4186 H   0  0  0  0  0  0  0  0  0  0  0  0
    9.5403   -4.5634   23.7844 H   0  0  0  0  0  0  0  0  0  0  0  0
    7.1918   -1.8874   26.1909 H   0  0  0  0  0  0  0  0  0  0  0  0
    6.9092   -5.0018   27.5500 H   0  0  0  0  0  0  0  0  0  0  0  0
    6.1847   -3.6589   26.6121 H   0  0  0  0  0  0  0  0  0  0  0  0
    7.6049   -3.3632   27.6492 H   0  0  0  0  0  0  0  0  0  0  0  0
   11.5842    0.7150   22.1561 H   0  0  0  0  0  0  0  0  0  0  0  0
   11.5525   -1.0164   21.9239 H   0  0  0  0  0  0  0  0  0  0  0  0
    9.5374    0.8439   23.4178 H   0  0  0  0  0  0  0  0  0  0  0  0
    6.7486    0.4313   16.8331 H   0  0  0  0  0  0  0  0  0  0  0  0
    8.0757   -1.6162   21.0774 H   0  0  0  0  0  0  0  0  0  0  0  0
  1  3  1  0  0  0  0
  1  4  2  0  0  0  0
  2  5  1  0  0  0  0
  2  6  2  0  0  0  0
  3  7  2  0  0  0  0
  4  8  1  0  0  0  0
  5 11  2  0  0  0  0
  6 14  1  0  0  0  0
  7 15  1  0  0  0  0
  8 15  2  0  0  0  0
  9 12  2  0  0  0  0
  9 16  1  0  0  0  0
 10 13  1  0  0  0  0
 10 16  2  0  0  0  0
 11 17  1  0  0  0  0
 12 18  1  0  0  0  0
 13 18  2  0  0  0  0
 14 17  2  0  0  0  0
 14 19  1  0  0  0  0
 15 22  1  0  0  0  0
 16 23  1  0  0  0  0
 17 25  1  0  0  0  0
 18 28  1  0  0  0  0
 19 24  2  0  0  0  0
 19 26  1  0  0  0  0
 20 23  1  0  0  0  0
 20 26  1  0  0  0  0
 20 27  2  0  0  0  0
 21 28  1  0  0  0  0
 22 23  1  1  0  0  0
 24 25  1  0  0  0  0
  1 29  1  0  0  0  0
  2 30  1  0  0  0  0
  3 31  1  0  0  0  0
  4 32  1  0  0  0  0
  5 33  1  0  0  0  0
  6 34  1  0  0  0  0
  7 35  1  0  0  0  0
  8 36  1  0  0  0  0
  9 37  1  0  0  0  0
 10 38  1  0  0  0  0
 11 39  1  0  0  0  0
 12 40  1  0  0  0  0
 13 41  1  0  0  0  0
 21 42  1  0  0  0  0
 21 43  1  0  0  0  0
 21 44  1  0  0  0  0
 22 45  1  0  0  0  0
 22 46  1  0  0  0  0
 23 47  1  0  0  0  0
 25 48  1  0  0  0  0
 26 49  1  0  0  0  0
M  END
> <clash_score>
0

> <docking_score>
-4.344414710998535

> <overlap_score>
0.8506881594657898

$$$$
BENZO_241_2
  -OEChem-08232013533D

 49 52  0     1  0  0  0  0  0999 V2000
   12.7714    1.1058   26.6955 C   0  0  0  0  0  0  0  0  0  0  0  0
    4.2460    1.7520   20.8250 C   0  0  0  0  0  0  0  0  0  0  0  0
   12.3476    2.3261   26.1695 C   0  0  0  0  0  0  0  0  0  0  0  0
   12.1941   -0.0836   26.2506 C   0  0  0  0  0  0  0  0  0  0  0  0
    3.8860    2.1050   19.5250 C   0  0  0  0  0  0  0  0  0  0  0  0
    5.3890    1.0010   21.0690 C   0  0  0  0  0  0  0  0  0  0  0  0
   11.3464    2.3572   25.1987 C   0  0  0  0  0  0  0  0  0  0  0  0
   11.1930   -0.0526   25.2799 C   0  0  0  0  0  0  0  0  0  0  0  0
    9.5890   -2.4950   23.2210 C   0  0  0  0  0  0  0  0  0  0  0  0
    8.2550   -1.0010   24.5520 C   0  0  0  0  0  0  0  0  0  0  0  0
    4.6610    1.7170   18.4380 C   0  0  0  0  0  0  0  0  0  0  0  0
    9.1890   -3.5540   24.0140 C   0  0  0  0  0  0  0  0  0  0  0  0
    7.8700   -2.0610   25.3550 C   0  0  0  0  0  0  0  0  0  0  0  0
    6.1460    0.6070   19.9750 C   0  0  0  0  0  0  0  0  0  0  0  0
   10.7691    1.1678   24.7539 C   0  0  0  0  0  0  0  0  0  0  0  0
    9.1280   -1.2090   23.4870 C   0  0  0  0  0  0  0  0  0  0  0  0
    5.7970    0.9500   18.6730 C   0  0  0  0  0  0  0  0  0  0  0  0
    8.3450   -3.3440   25.0980 C   0  0  0  0  0  0  0  0  0  0  0  0
    7.2710   -0.1460   19.8310 C   0  0  0  0  0  0  0  0  0  0  0  0
    9.0430    0.2380   21.4940 C   0  0  0  0  0  0  0  0  0  0  0  0
    7.1165   -4.0859   26.9913 C   0  0  0  0  0  0  0  0  0  0  0  0
    9.6841    1.2008   23.7022 C   0  0  0  0  0  0  0  0  0  0  0  0
    9.5820   -0.1080   22.7000 C   0  0  2  0  0  0  0  0  0  0  0  0
    7.5840   -0.2700   18.5160 N   0  0  0  0  0  0  0  0  0  0  0  0
    6.7100    0.3850   17.8100 N   0  0  0  0  0  0  0  0  0  0  0  0
    8.0950   -0.7700   20.8440 N   0  0  0  0  0  0  0  0  0  0  0  0
    9.2950    1.3000   20.9480 O   0  0  0  0  0  0  0  0  0  0  0  0
    7.9856   -4.3803   25.8987 O   0  0  0  0  0  0  0  0  0  0  0  0
   13.5519    1.0817   27.4504 H   0  0  0  0  0  0  0  0  0  0  0  0
    3.6223    2.0725   21.6574 H   0  0  0  0  0  0  0  0  0  0  0  0
   12.7977    3.2523   26.5149 H   0  0  0  0  0  0  0  0  0  0  0  0
   12.5246   -1.0340   26.6591 H   0  0  0  0  0  0  0  0  0  0  0  0
    2.9864    2.6933   19.3609 H   0  0  0  0  0  0  0  0  0  0  0  0
    5.6689    0.7392   22.0836 H   0  0  0  0  0  0  0  0  0  0  0  0
   11.0224    3.3127   24.7947 H   0  0  0  0  0  0  0  0  0  0  0  0
   10.7489   -0.9842   24.9394 H   0  0  0  0  0  0  0  0  0  0  0  0
   10.2677   -2.6721   22.3861 H   0  0  0  0  0  0  0  0  0  0  0  0
    7.8705   -0.0015   24.7586 H   0  0  0  0  0  0  0  0  0  0  0  0
    4.3807    2.0116   17.4186 H   0  0  0  0  0  0  0  0  0  0  0  0
    9.5403   -4.5634   23.7844 H   0  0  0  0  0  0  0  0  0  0  0  0
    7.1918   -1.8874   26.1909 H   0  0  0  0  0  0  0  0  0  0  0  0
    6.9092   -5.0018   27.5500 H   0  0  0  0  0  0  0  0  0  0  0  0
    6.1847   -3.6589   26.6121 H   0  0  0  0  0  0  0  0  0  0  0  0
    7.6049   -3.3632   27.6492 H   0  0  0  0  0  0  0  0  0  0  0  0
    8.7167    1.3910   24.1851 H   0  0  0  0  0  0  0  0  0  0  0  0
    9.8647    2.0727   23.0582 H   0  0  0  0  0  0  0  0  0  0  0  0
   10.7539   -0.2760   22.5528 H   0  0  0  0  0  0  0  0  0  0  0  0
    6.7486    0.4313   16.8331 H   0  0  0  0  0  0  0  0  0  0  0  0
    8.0757   -1.6162   21.0774 H   0  0  0  0  0  0  0  0  0  0  0  0
  1  3  1  0  0  0  0
  1  4  2  0  0  0  0
  2  5  1  0  0  0  0
  2  6  2  0  0  0  0
  3  7  2  0  0  0  0
  4  8  1  0  0  0  0
  5 11  2  0  0  0  0
  6 14  1  0  0  0  0
  7 15  1  0  0  0  0
  8 15  2  0  0  0  0
  9 12  2  0  0  0  0
  9 16  1  0  0  0  0
 10 13  1  0  0  0  0
 10 16  2  0  0  0  0
 11 17  1  0  0  0  0
 12 18  1  0  0  0  0
 13 18  2  0  0  0  0
 14 17  2  0  0  0  0
 14 19  1  0  0  0  0
 15 22  1  0  0  0  0
 16 23  1  0  0  0  0
 17 25  1  0  0  0  0
 18 28  1  0  0  0  0
 19 24  2  0  0  0  0
 19 26  1  0  0  0  0
 20 23  1  0  0  0  0
 20 26  1  0  0  0  0
 20 27  2  0  0  0  0
 21 28  1  0  0  0  0
 22 23  1  6  0  0  0
 24 25  1  0  0  0  0
  1 29  1  0  0  0  0
  2 30  1  0  0  0  0
  3 31  1  0  0  0  0
  4 32  1  0  0  0  0
  5 33  1  0  0  0  0
  6 34  1  0  0  0  0
  7 35  1  0  0  0  0
  8 36  1  0  0  0  0
  9 37  1  0  0  0  0
 10 38  1  0  0  0  0
 11 39  1  0  0  0  0
 12 40  1  0  0  0  0
 13 41  1  0  0  0  0
 21 42  1  0  0  0  0
 21 43  1  0  0  0  0
 21 44  1  0  0  0  0
 22 45  1  0  0  0  0
 22 46  1  0  0  0  0
 23 47  1  0  0  0  0
 25 48  1  0  0  0  0
 26 49  1  0  0  0  0
M  END
> <clash_score>
3.05701407885938

> <docking_score>
-2.555504322052002

> <overlap_score>
0.7636308073997498

$$$$
BENZO_240_1
  -OEChem-08232013533D

 46 49  0     1  0  0  0  0  0999 V2000
    4.2460    1.7520   20.8250 C   0  0  0  0  0  0  0  0  0  0  0  0
    3.8860    2.1050   19.5250 C   0  0  0  0  0  0  0  0  0  0  0  0
    5.3890    1.0010   21.0690 C   0  0  0  0  0  0  0  0  0  0  0  0
    9.5890   -2.4950   23.2210 C   0  0  0  0  0  0  0  0  0  0  0  0
    8.2550   -1.0010   24.5520 C   0  0  0  0  0  0  0  0  0  0  0  0
    4.6610    1.7170   18.4380 C   0  0  0  0  0  0  0  0  0  0  0  0
    9.1890   -3.5540   24.0140 C   0  0  0  0  0  0  0  0  0  0  0  0
    7.8700   -2.0610   25.3550 C   0  0  0  0  0  0  0  0  0  0  0  0
   11.4269    0.0504   25.1773 C   0  0  0  0  0  0  0  0  0  0  0  0
   12.2544   -0.2804   26.2278 C   0  0  0  0  0  0  0  0  0  0  0  0
   13.1121   -1.1136   24.0784 C   0  0  0  0  0  0  0  0  0  0  0  0
    6.1460    0.6070   19.9750 C   0  0  0  0  0  0  0  0  0  0  0  0
    9.1280   -1.2090   23.4870 C   0  0  0  0  0  0  0  0  0  0  0  0
   11.9236   -0.4323   23.9322 C   0  0  0  0  0  0  0  0  0  0  0  0
    5.7970    0.9500   18.6730 C   0  0  0  0  0  0  0  0  0  0  0  0
    8.3450   -3.3440   25.0980 C   0  0  0  0  0  0  0  0  0  0  0  0
    7.2710   -0.1460   19.8310 C   0  0  0  0  0  0  0  0  0  0  0  0
    9.0430    0.2380   21.4940 C   0  0  0  0  0  0  0  0  0  0  0  0
    7.1165   -4.0859   26.9913 C   0  0  0  0  0  0  0  0  0  0  0  0
   11.2273   -0.2199   22.6076 C   0  0  0  0  0  0  0  0  0  0  0  0
    9.5820   -0.1080   22.7000 C   0  0  1  0  0  0  0  0  0  0  0  0
    7.5840   -0.2700   18.5160 N   0  0  0  0  0  0  0  0  0  0  0  0
    6.7100    0.3850   17.8100 N   0  0  0  0  0  0  0  0  0  0  0  0
    8.0950   -0.7700   20.8440 N   0  0  0  0  0  0  0  0  0  0  0  0
    9.2950    1.3000   20.9480 O   0  0  0  0  0  0  0  0  0  0  0  0
    7.9856   -4.3803   25.8987 O   0  0  0  0  0  0  0  0  0  0  0  0
   13.6239   -1.1694   25.7116 S   0  0  0  0  0  0  0  0  0  0  0  0
    3.6223    2.0725   21.6574 H   0  0  0  0  0  0  0  0  0  0  0  0
    2.9864    2.6933   19.3609 H   0  0  0  0  0  0  0  0  0  0  0  0
    5.6689    0.7392   22.0836 H   0  0  0  0  0  0  0  0  0  0  0  0
   10.2677   -2.6721   22.3861 H   0  0  0  0  0  0  0  0  0  0  0  0
    7.8705   -0.0015   24.7586 H   0  0  0  0  0  0  0  0  0  0  0  0
    4.3807    2.0116   17.4186 H   0  0  0  0  0  0  0  0  0  0  0  0
    9.5403   -4.5634   23.7844 H   0  0  0  0  0  0  0  0  0  0  0  0
    7.1918   -1.8874   26.1909 H   0  0  0  0  0  0  0  0  0  0  0  0
   10.5098    0.6126   25.3007 H   0  0  0  0  0  0  0  0  0  0  0  0
   12.1206   -0.0420   27.2735 H   0  0  0  0  0  0  0  0  0  0  0  0
   13.7079   -1.5816   23.3071 H   0  0  0  0  0  0  0  0  0  0  0  0
    6.9092   -5.0018   27.5500 H   0  0  0  0  0  0  0  0  0  0  0  0
    6.1847   -3.6589   26.6121 H   0  0  0  0  0  0  0  0  0  0  0  0
    7.6049   -3.3632   27.6492 H   0  0  0  0  0  0  0  0  0  0  0  0
   11.5842    0.7150   22.1561 H   0  0  0  0  0  0  0  0  0  0  0  0
   11.5525   -1.0164   21.9239 H   0  0  0  0  0  0  0  0  0  0  0  0
    9.5374    0.8439   23.4178 H   0  0  0  0  0  0  0  0  0  0  0  0
    6.7486    0.4313   16.8331 H   0  0  0  0  0  0  0  0  0  0  0  0
    8.0757   -1.6162   21.0774 H   0  0  0  0  0  0  0  0  0  0  0  0
  1  2  1  0  0  0  0
  1  3  2  0  0  0  0
  2  6  2  0  0  0  0
  3 12  1  0  0  0  0
  4  7  2  0  0  0  0
  4 13  1  0  0  0  0
  5  8  1  0  0  0  0
  5 13  2  0  0  0  0
  6 15  1  0  0  0  0
  7 16  1  0  0  0  0
  8 16  2  0  0  0  0
  9 10  2  0  0  0  0
  9 14  1  0  0  0  0
 10 27  1  0  0  0  0
 11 14  2  0  0  0  0
 11 27  1  0  0  0  0
 12 15  2  0  0  0  0
 12 17  1  0  0  0  0
 13 21  1  0  0  0  0
 14 20  1  0  0  0  0
 15 23  1  0  0  0  0
 16 26  1  0  0  0  0
 17 22  2  0  0  0  0
 17 24  1  0  0  0  0
 18 21  1  0  0  0  0
 18 24  1  0  0  0  0
 18 25  2  0  0  0  0
 19 26  1  0  0  0  0
 20 21  1  1  0  0  0
 22 23  1  0  0  0  0
  1 28  1  0  0  0  0
  2 29  1  0  0  0  0
  3 30  1  0  0  0  0
  4 31  1  0  0  0  0
  5 32  1  0  0  0  0
  6 33  1  0  0  0  0
  7 34  1  0  0  0  0
  8 35  1  0  0  0  0
  9 36  1  0  0  0  0
 10 37  1  0  0  0  0
 11 38  1  0  0  0  0
 19 39  1  0  0  0  0
 19 40  1  0  0  0  0
 19 41  1  0  0  0  0
 20 42  1  0  0  0  0
 20 43  1  0  0  0  0
 21 44  1  0  0  0  0
 23 45  1  0  0  0  0
 24 46  1  0  0  0  0
M  END
> <clash_score>
0

> <docking_score>
-4.878022193908691

> <overlap_score>
0.8438305854797363

$$$$
BENZO_240_2
  -OEChem-08232013533D

 46 49  0     1  0  0  0  0  0999 V2000
    4.2460    1.7520   20.8250 C   0  0  0  0  0  0  0  0  0  0  0  0
    3.8860    2.1050   19.5250 C   0  0  0  0  0  0  0  0  0  0  0  0
    5.3890    1.0010   21.0690 C   0  0  0  0  0  0  0  0  0  0  0  0
    9.5890   -2.4950   23.2210 C   0  0  0  0  0  0  0  0  0  0  0  0
    8.2550   -1.0010   24.5520 C   0  0  0  0  0  0  0  0  0  0  0  0
    4.6610    1.7170   18.4380 C   0  0  0  0  0  0  0  0  0  0  0  0
    9.1890   -3.5540   24.0140 C   0  0  0  0  0  0  0  0  0  0  0  0
    7.8700   -2.0610   25.3550 C   0  0  0  0  0  0  0  0  0  0  0  0
   11.1765   -0.0135   25.4386 C   0  0  0  0  0  0  0  0  0  0  0  0
   12.1828    0.2352   26.3457 C   0  0  0  0  0  0  0  0  0  0  0  0
   11.4796    2.2746   25.1641 C   0  0  0  0  0  0  0  0  0  0  0  0
    6.1460    0.6070   19.9750 C   0  0  0  0  0  0  0  0  0  0  0  0
    9.1280   -1.2090   23.4870 C   0  0  0  0  0  0  0  0  0  0  0  0
   10.7691    1.1678   24.7539 C   0  0  0  0  0  0  0  0  0  0  0  0
    5.7970    0.9500   18.6730 C   0  0  0  0  0  0  0  0  0  0  0  0
    8.3450   -3.3440   25.0980 C   0  0  0  0  0  0  0  0  0  0  0  0
    7.2710   -0.1460   19.8310 C   0  0  0  0  0  0  0  0  0  0  0  0
    9.0430    0.2380   21.4940 C   0  0  0  0  0  0  0  0  0  0  0  0
    7.1165   -4.0859   26.9913 C   0  0  0  0  0  0  0  0  0  0  0  0
    9.6841    1.2008   23.7022 C   0  0  0  0  0  0  0  0  0  0  0  0
    9.5820   -0.1080   22.7000 C   0  0  2  0  0  0  0  0  0  0  0  0
    7.5840   -0.2700   18.5160 N   0  0  0  0  0  0  0  0  0  0  0  0
    6.7100    0.3850   17.8100 N   0  0  0  0  0  0  0  0  0  0  0  0
    8.0950   -0.7700   20.8440 N   0  0  0  0  0  0  0  0  0  0  0  0
    9.2950    1.3000   20.9480 O   0  0  0  0  0  0  0  0  0  0  0  0
    7.9856   -4.3803   25.8987 O   0  0  0  0  0  0  0  0  0  0  0  0
   12.6325    1.8873   26.3696 S   0  0  0  0  0  0  0  0  0  0  0  0
    3.6223    2.0725   21.6574 H   0  0  0  0  0  0  0  0  0  0  0  0
    2.9864    2.6933   19.3609 H   0  0  0  0  0  0  0  0  0  0  0  0
    5.6689    0.7392   22.0836 H   0  0  0  0  0  0  0  0  0  0  0  0
   10.2677   -2.6721   22.3861 H   0  0  0  0  0  0  0  0  0  0  0  0
    7.8705   -0.0015   24.7586 H   0  0  0  0  0  0  0  0  0  0  0  0
    4.3807    2.0116   17.4186 H   0  0  0  0  0  0  0  0  0  0  0  0
    9.5403   -4.5634   23.7844 H   0  0  0  0  0  0  0  0  0  0  0  0
    7.1918   -1.8874   26.1909 H   0  0  0  0  0  0  0  0  0  0  0  0
   10.7551   -0.9977   25.2772 H   0  0  0  0  0  0  0  0  0  0  0  0
   12.6750   -0.4740   26.9961 H   0  0  0  0  0  0  0  0  0  0  0  0
   11.3792    3.2937   24.8171 H   0  0  0  0  0  0  0  0  0  0  0  0
    6.9092   -5.0018   27.5500 H   0  0  0  0  0  0  0  0  0  0  0  0
    6.1847   -3.6589   26.6121 H   0  0  0  0  0  0  0  0  0  0  0  0
    7.6049   -3.3632   27.6492 H   0  0  0  0  0  0  0  0  0  0  0  0
    8.7167    1.3910   24.1851 H   0  0  0  0  0  0  0  0  0  0  0  0
    9.8647    2.0727   23.0582 H   0  0  0  0  0  0  0  0  0  0  0  0
   10.7539   -0.2760   22.5528 H   0  0  0  0  0  0  0  0  0  0  0  0
    6.7486    0.4313   16.8331 H   0  0  0  0  0  0  0  0  0  0  0  0
    8.0757   -1.6162   21.0774 H   0  0  0  0  0  0  0  0  0  0  0  0
  1  2  1  0  0  0  0
  1  3  2  0  0  0  0
  2  6  2  0  0  0  0
  3 12  1  0  0  0  0
  4  7  2  0  0  0  0
  4 13  1  0  0  0  0
  5  8  1  0  0  0  0
  5 13  2  0  0  0  0
  6 15  1  0  0  0  0
  7 16  1  0  0  0  0
  8 16  2  0  0  0  0
  9 10  2  0  0  0  0
  9 14  1  0  0  0  0
 10 27  1  0  0  0  0
 11 14  2  0  0  0  0
 11 27  1  0  0  0  0
 12 15  2  0  0  0  0
 12 17  1  0  0  0  0
 13 21  1  0  0  0  0
 14 20  1  0  0  0  0
 15 23  1  0  0  0  0
 16 26  1  0  0  0  0
 17 22  2  0  0  0  0
 17 24  1  0  0  0  0
 18 21  1  0  0  0  0
 18 24  1  0  0  0  0
 18 25  2  0  0  0  0
 19 26  1  0  0  0  0
 20 21  1  6  0  0  0
 22 23  1  0  0  0  0
  1 28  1  0  0  0  0
  2 29  1  0  0  0  0
  3 30  1  0  0  0  0
  4 31  1  0  0  0  0
  5 32  1  0  0  0  0
  6 33  1  0  0  0  0
  7 34  1  0  0  0  0
  8 35  1  0  0  0  0
  9 36  1  0  0  0  0
 10 37  1  0  0  0  0
 11 38  1  0  0  0  0
 19 39  1  0  0  0  0
 19 40  1  0  0  0  0
 19 41  1  0  0  0  0
 20 42  1  0  0  0  0
 20 43  1  0  0  0  0
 21 44  1  0  0  0  0
 23 45  1  0  0  0  0
 24 46  1  0  0  0  0
M  END
> <clash_score>
2.227266360429467

> <docking_score>
-2.9994359016418457

> <overlap_score>
0.7626551389694214

$$$$
BENZO_242_1
  -OEChem-08232013533D

 49 52  0     1  0  0  0  0  0999 V2000
    4.2460    1.7520   20.8250 C   0  0  0  0  0  0  0  0  0  0  0  0
    3.8860    2.1050   19.5250 C   0  0  0  0  0  0  0  0  0  0  0  0
   12.0047   -0.1195   26.3264 C   0  0  0  0  0  0  0  0  0  0  0  0
    5.3890    1.0010   21.0690 C   0  0  0  0  0  0  0  0  0  0  0  0
   11.3632    0.0771   25.1035 C   0  0  0  0  0  0  0  0  0  0  0  0
    9.5890   -2.4950   23.2210 C   0  0  0  0  0  0  0  0  0  0  0  0
    8.2550   -1.0010   24.5520 C   0  0  0  0  0  0  0  0  0  0  0  0
    4.6610    1.7170   18.4380 C   0  0  0  0  0  0  0  0  0  0  0  0
    9.1890   -3.5540   24.0140 C   0  0  0  0  0  0  0  0  0  0  0  0
    7.8700   -2.0610   25.3550 C   0  0  0  0  0  0  0  0  0  0  0  0
   13.2066   -0.8255   26.3780 C   0  0  0  0  0  0  0  0  0  0  0  0
   13.1255   -1.1384   23.9837 C   0  0  0  0  0  0  0  0  0  0  0  0
    6.1460    0.6070   19.9750 C   0  0  0  0  0  0  0  0  0  0  0  0
    9.1280   -1.2090   23.4870 C   0  0  0  0  0  0  0  0  0  0  0  0
   11.9236   -0.4323   23.9322 C   0  0  0  0  0  0  0  0  0  0  0  0
    5.7970    0.9500   18.6730 C   0  0  0  0  0  0  0  0  0  0  0  0
    8.3450   -3.3440   25.0980 C   0  0  0  0  0  0  0  0  0  0  0  0
   13.7670   -1.3350   25.2066 C   0  0  0  0  0  0  0  0  0  0  0  0
    7.2710   -0.1460   19.8310 C   0  0  0  0  0  0  0  0  0  0  0  0
    9.0430    0.2380   21.4940 C   0  0  0  0  0  0  0  0  0  0  0  0
    8.5107   -5.6661   25.5721 C   0  0  0  0  0  0  0  0  0  0  0  0
   11.2273   -0.2199   22.6076 C   0  0  0  0  0  0  0  0  0  0  0  0
    9.5820   -0.1080   22.7000 C   0  0  1  0  0  0  0  0  0  0  0  0
    7.5840   -0.2700   18.5160 N   0  0  0  0  0  0  0  0  0  0  0  0
    6.7100    0.3850   17.8100 N   0  0  0  0  0  0  0  0  0  0  0  0
    8.0950   -0.7700   20.8440 N   0  0  0  0  0  0  0  0  0  0  0  0
    9.2950    1.3000   20.9480 O   0  0  0  0  0  0  0  0  0  0  0  0
    7.9856   -4.3803   25.8987 O   0  0  0  0  0  0  0  0  0  0  0  0
   15.2492   -2.2070   25.2710 Cl  0  0  0  0  0  0  0  0  0  0  0  0
    3.6223    2.0725   21.6574 H   0  0  0  0  0  0  0  0  0  0  0  0
    2.9864    2.6933   19.3609 H   0  0  0  0  0  0  0  0  0  0  0  0
   11.5679    0.2773   27.2383 H   0  0  0  0  0  0  0  0  0  0  0  0
    5.6689    0.7392   22.0836 H   0  0  0  0  0  0  0  0  0  0  0  0
   10.4270    0.6284   25.0728 H   0  0  0  0  0  0  0  0  0  0  0  0
   10.2677   -2.6721   22.3861 H   0  0  0  0  0  0  0  0  0  0  0  0
    7.8705   -0.0015   24.7586 H   0  0  0  0  0  0  0  0  0  0  0  0
    4.3807    2.0116   17.4186 H   0  0  0  0  0  0  0  0  0  0  0  0
    9.5403   -4.5634   23.7844 H   0  0  0  0  0  0  0  0  0  0  0  0
    7.1918   -1.8874   26.1909 H   0  0  0  0  0  0  0  0  0  0  0  0
   13.6953   -0.9714   27.3382 H   0  0  0  0  0  0  0  0  0  0  0  0
   13.5586   -1.5332   23.0675 H   0  0  0  0  0  0  0  0  0  0  0  0
    8.1446   -6.4033   26.2908 H   0  0  0  0  0  0  0  0  0  0  0  0
    9.6029   -5.6309   25.5943 H   0  0  0  0  0  0  0  0  0  0  0  0
    8.1774   -5.9418   24.5689 H   0  0  0  0  0  0  0  0  0  0  0  0
   11.5842    0.7149   22.1561 H   0  0  0  0  0  0  0  0  0  0  0  0
   11.5525   -1.0164   21.9239 H   0  0  0  0  0  0  0  0  0  0  0  0
    9.5374    0.8439   23.4178 H   0  0  0  0  0  0  0  0  0  0  0  0
    6.7486    0.4313   16.8331 H   0  0  0  0  0  0  0  0  0  0  0  0
    8.0757   -1.6162   21.0774 H   0  0  0  0  0  0  0  0  0  0  0  0
  1  2  1  0  0  0  0
  1  4  2  0  0  0  0
  2  8  2  0  0  0  0
  3  5  2  0  0  0  0
  3 11  1  0  0  0  0
  4 13  1  0  0  0  0
  5 15  1  0  0  0  0
  6  9  2  0  0  0  0
  6 14  1  0  0  0  0
  7 10  1  0  0  0  0
  7 14  2  0  0  0  0
  8 16  1  0  0  0  0
  9 17  1  0  0  0  0
 10 17  2  0  0  0  0
 11 18  2  0  0  0  0
 12 15  2  0  0  0  0
 12 18  1  0  0  0  0
 13 16  2  0  0  0  0
 13 19  1  0  0  0  0
 14 23  1  0  0  0  0
 15 22  1  0  0  0  0
 16 25  1  0  0  0  0
 17 28  1  0  0  0  0
 18 29  1  0  0  0  0
 19 24  2  0  0  0  0
 19 26  1  0  0  0  0
 20 23  1  0  0  0  0
 20 26  1  0  0  0  0
 20 27  2  0  0  0  0
 21 28  1  0  0  0  0
 22 23  1  1  0  0  0
 24 25  1  0  0  0  0
  1 30  1  0  0  0  0
  2 31  1  0  0  0  0
  3 32  1  0  0  0  0
  4 33  1  0  0  0  0
  5 34  1  0  0  0  0
  6 35  1  0  0  0  0
  7 36  1  0  0  0  0
  8 37  1  0  0  0  0
  9 38  1  0  0  0  0
 10 39  1  0  0  0  0
 11 40  1  0  0  0  0
 12 41  1  0  0  0  0
 21 42  1  0  0  0  0
 21 43  1  0  0  0  0
 21 44  1  0  0  0  0
 22 45  1  0  0  0  0
 22 46  1  0  0  0  0
 23 47  1  0  0  0  0
 25 48  1  0  0  0  0
 26 49  1  0  0  0  0
M  END
> <clash_score>
0

> <docking_score>
-4.009181976318359

> <overlap_score>
0.8466248512268066

$$$$
BENZO_242_2
  -OEChem-08232013533D

 49 52  0     1  0  0  0  0  0999 V2000
    4.2460    1.7520   20.8250 C   0  0  0  0  0  0  0  0  0  0  0  0
    3.8860    2.1050   19.5250 C   0  0  0  0  0  0  0  0  0  0  0  0
   11.5820    1.7950   26.9408 C   0  0  0  0  0  0  0  0  0  0  0  0
    5.3890    1.0010   21.0690 C   0  0  0  0  0  0  0  0  0  0  0  0
   10.5816    1.8259   25.9694 C   0  0  0  0  0  0  0  0  0  0  0  0
    9.5890   -2.4950   23.2210 C   0  0  0  0  0  0  0  0  0  0  0  0
    8.2550   -1.0010   24.5520 C   0  0  0  0  0  0  0  0  0  0  0  0
    4.6610    1.7170   18.4380 C   0  0  0  0  0  0  0  0  0  0  0  0
    9.1890   -3.5540   24.0140 C   0  0  0  0  0  0  0  0  0  0  0  0
    7.8700   -2.0610   25.3550 C   0  0  0  0  0  0  0  0  0  0  0  0
   12.7701    1.1060   26.6968 C   0  0  0  0  0  0  0  0  0  0  0  0
   11.9572    0.4788   24.5098 C   0  0  0  0  0  0  0  0  0  0  0  0
    6.1460    0.6070   19.9750 C   0  0  0  0  0  0  0  0  0  0  0  0
    9.1280   -1.2090   23.4870 C   0  0  0  0  0  0  0  0  0  0  0  0
   10.7691    1.1678   24.7539 C   0  0  0  0  0  0  0  0  0  0  0  0
    5.7970    0.9500   18.6730 C   0  0  0  0  0  0  0  0  0  0  0  0
    8.3450   -3.3440   25.0980 C   0  0  0  0  0  0  0  0  0  0  0  0
   12.9577    0.4479   25.4813 C   0  0  0  0  0  0  0  0  0  0  0  0
    7.2710   -0.1460   19.8310 C   0  0  0  0  0  0  0  0  0  0  0  0
    9.0430    0.2380   21.4940 C   0  0  0  0  0  0  0  0  0  0  0  0
    8.5107   -5.6661   25.5721 C   0  0  0  0  0  0  0  0  0  0  0  0
    9.6841    1.2008   23.7022 C   0  0  0  0  0  0  0  0  0  0  0  0
    9.5820   -0.1080   22.7000 C   0  0  2  0  0  0  0  0  0  0  0  0
    7.5840   -0.2700   18.5160 N   0  0  0  0  0  0  0  0  0  0  0  0
    6.7100    0.3850   17.8100 N   0  0  0  0  0  0  0  0  0  0  0  0
    8.0950   -0.7700   20.8440 N   0  0  0  0  0  0  0  0  0  0  0  0
    9.2950    1.3000   20.9480 O   0  0  0  0  0  0  0  0  0  0  0  0
    7.9856   -4.3803   25.8987 O   0  0  0  0  0  0  0  0  0  0  0  0
   14.4232   -0.4029   25.1812 Cl  0  0  0  0  0  0  0  0  0  0  0  0
    3.6223    2.0725   21.6574 H   0  0  0  0  0  0  0  0  0  0  0  0
    2.9864    2.6933   19.3609 H   0  0  0  0  0  0  0  0  0  0  0  0
   11.4356    2.3075   27.8872 H   0  0  0  0  0  0  0  0  0  0  0  0
    5.6689    0.7392   22.0836 H   0  0  0  0  0  0  0  0  0  0  0  0
    9.6591    2.3651   26.1681 H   0  0  0  0  0  0  0  0  0  0  0  0
   10.2677   -2.6721   22.3861 H   0  0  0  0  0  0  0  0  0  0  0  0
    7.8705   -0.0015   24.7586 H   0  0  0  0  0  0  0  0  0  0  0  0
    4.3807    2.0116   17.4186 H   0  0  0  0  0  0  0  0  0  0  0  0
    9.5403   -4.5634   23.7844 H   0  0  0  0  0  0  0  0  0  0  0  0
    7.1918   -1.8874   26.1909 H   0  0  0  0  0  0  0  0  0  0  0  0
   13.5411    1.0902   27.4632 H   0  0  0  0  0  0  0  0  0  0  0  0
   12.0988   -0.0323   23.5603 H   0  0  0  0  0  0  0  0  0  0  0  0
    8.1446   -6.4033   26.2908 H   0  0  0  0  0  0  0  0  0  0  0  0
    9.6029   -5.6309   25.5943 H   0  0  0  0  0  0  0  0  0  0  0  0
    8.1774   -5.9418   24.5689 H   0  0  0  0  0  0  0  0  0  0  0  0
    8.7167    1.3910   24.1851 H   0  0  0  0  0  0  0  0  0  0  0  0
    9.8647    2.0727   23.0582 H   0  0  0  0  0  0  0  0  0  0  0  0
   10.7539   -0.2760   22.5528 H   0  0  0  0  0  0  0  0  0  0  0  0
    6.7486    0.4313   16.8331 H   0  0  0  0  0  0  0  0  0  0  0  0
    8.0757   -1.6162   21.0774 H   0  0  0  0  0  0  0  0  0  0  0  0
  1  2  1  0  0  0  0
  1  4  2  0  0  0  0
  2  8  2  0  0  0  0
  3  5  2  0  0  0  0
  3 11  1  0  0  0  0
  4 13  1  0  0  0  0
  5 15  1  0  0  0  0
  6  9  2  0  0  0  0
  6 14  1  0  0  0  0
  7 10  1  0  0  0  0
  7 14  2  0  0  0  0
  8 16  1  0  0  0  0
  9 17  1  0  0  0  0
 10 17  2  0  0  0  0
 11 18  2  0  0  0  0
 12 15  2  0  0  0  0
 12 18  1  0  0  0  0
 13 16  2  0  0  0  0
 13 19  1  0  0  0  0
 14 23  1  0  0  0  0
 15 22  1  0  0  0  0
 16 25  1  0  0  0  0
 17 28  1  0  0  0  0
 18 29  1  0  0  0  0
 19 24  2  0  0  0  0
 19 26  1  0  0  0  0
 20 23  1  0  0  0  0
 20 26  1  0  0  0  0
 20 27  2  0  0  0  0
 21 28  1  0  0  0  0
 22 23  1  6  0  0  0
 24 25  1  0  0  0  0
  1 30  1  0  0  0  0
  2 31  1  0  0  0  0
  3 32  1  0  0  0  0
  4 33  1  0  0  0  0
  5 34  1  0  0  0  0
  6 35  1  0  0  0  0
  7 36  1  0  0  0  0
  8 37  1  0  0  0  0
  9 38  1  0  0  0  0
 10 39  1  0  0  0  0
 11 40  1  0  0  0  0
 12 41  1  0  0  0  0
 21 42  1  0  0  0  0
 21 43  1  0  0  0  0
 21 44  1  0  0  0  0
 22 45  1  0  0  0  0
 22 46  1  0  0  0  0
 23 47  1  0  0  0  0
 25 48  1  0  0  0  0
 26 49  1  0  0  0  0
M  END
> <clash_score>
4.383876438948852

> <docking_score>
-2.316159248352051

> <overlap_score>
0.7816099524497986

$$$$
BENZO_243_1
  -OEChem-08232013533D

 49 52  0     1  0  0  0  0  0999 V2000
    4.2460    1.7520   20.8250 C   0  0  0  0  0  0  0  0  0  0  0  0
    3.8860    2.1050   19.5250 C   0  0  0  0  0  0  0  0  0  0  0  0
    5.3890    1.0010   21.0690 C   0  0  0  0  0  0  0  0  0  0  0  0
    9.5890   -2.4950   23.2210 C   0  0  0  0  0  0  0  0  0  0  0  0
    8.2550   -1.0010   24.5520 C   0  0  0  0  0  0  0  0  0  0  0  0
    4.6610    1.7170   18.4380 C   0  0  0  0  0  0  0  0  0  0  0  0
    9.1890   -3.5540   24.0140 C   0  0  0  0  0  0  0  0  0  0  0  0
    7.8700   -2.0610   25.3550 C   0  0  0  0  0  0  0  0  0  0  0  0
   13.1332   -1.1110   24.1732 C   0  0  0  0  0  0  0  0  0  0  0  0
   11.5178   -0.0030   25.1721 C   0  0  0  0  0  0  0  0  0  0  0  0
    6.1460    0.6070   19.9750 C   0  0  0  0  0  0  0  0  0  0  0  0
    9.1280   -1.2090   23.4870 C   0  0  0  0  0  0  0  0  0  0  0  0
   11.9236   -0.4323   23.9322 C   0  0  0  0  0  0  0  0  0  0  0  0
    5.7970    0.9500   18.6730 C   0  0  0  0  0  0  0  0  0  0  0  0
    8.3450   -3.3440   25.0980 C   0  0  0  0  0  0  0  0  0  0  0  0
    7.2710   -0.1460   19.8310 C   0  0  0  0  0  0  0  0  0  0  0  0
    9.0430    0.2380   21.4940 C   0  0  0  0  0  0  0  0  0  0  0  0
   12.4834   -0.2219   27.4740 C   0  0  0  0  0  0  0  0  0  0  0  0
    7.1165   -4.0859   26.9913 C   0  0  0  0  0  0  0  0  0  0  0  0
   11.2273   -0.2199   22.6076 C   0  0  0  0  0  0  0  0  0  0  0  0
    9.5820   -0.1080   22.7000 C   0  0  1  0  0  0  0  0  0  0  0  0
   13.4738   -1.1150   25.4647 N   0  0  0  0  0  0  0  0  0  0  0  0
    7.5840   -0.2700   18.5160 N   0  0  0  0  0  0  0  0  0  0  0  0
    6.7100    0.3850   17.8100 N   0  0  0  0  0  0  0  0  0  0  0  0
   12.4721   -0.4335   26.0464 N   0  0  0  0  0  0  0  0  0  0  0  0
    8.0950   -0.7700   20.8440 N   0  0  0  0  0  0  0  0  0  0  0  0
    9.2950    1.3000   20.9480 O   0  0  0  0  0  0  0  0  0  0  0  0
    7.9856   -4.3803   25.8987 O   0  0  0  0  0  0  0  0  0  0  0  0
    3.6223    2.0725   21.6574 H   0  0  0  0  0  0  0  0  0  0  0  0
    2.9864    2.6933   19.3609 H   0  0  0  0  0  0  0  0  0  0  0  0
    5.6689    0.7392   22.0836 H   0  0  0  0  0  0  0  0  0  0  0  0
   10.2677   -2.6721   22.3861 H   0  0  0  0  0  0  0  0  0  0  0  0
    7.8705   -0.0015   24.7586 H   0  0  0  0  0  0  0  0  0  0  0  0
    4.3807    2.0116   17.4186 H   0  0  0  0  0  0  0  0  0  0  0  0
    9.5403   -4.5634   23.7844 H   0  0  0  0  0  0  0  0  0  0  0  0
    7.1918   -1.8874   26.1909 H   0  0  0  0  0  0  0  0  0  0  0  0
   13.7829   -1.6028   23.4631 H   0  0  0  0  0  0  0  0  0  0  0  0
   10.6535    0.5594   25.4986 H   0  0  0  0  0  0  0  0  0  0  0  0
   11.9614   -1.0599   27.9433 H   0  0  0  0  0  0  0  0  0  0  0  0
   13.5174   -0.1700   27.8262 H   0  0  0  0  0  0  0  0  0  0  0  0
   11.9792    0.7209   27.7036 H   0  0  0  0  0  0  0  0  0  0  0  0
    6.9092   -5.0018   27.5500 H   0  0  0  0  0  0  0  0  0  0  0  0
    6.1847   -3.6589   26.6121 H   0  0  0  0  0  0  0  0  0  0  0  0
    7.6049   -3.3632   27.6492 H   0  0  0  0  0  0  0  0  0  0  0  0
   11.5842    0.7149   22.1561 H   0  0  0  0  0  0  0  0  0  0  0  0
   11.5525   -1.0164   21.9239 H   0  0  0  0  0  0  0  0  0  0  0  0
    9.5374    0.8439   23.4178 H   0  0  0  0  0  0  0  0  0  0  0  0
    6.7486    0.4313   16.8331 H   0  0  0  0  0  0  0  0  0  0  0  0
    8.0757   -1.6162   21.0774 H   0  0  0  0  0  0  0  0  0  0  0  0
  1  2  1  0  0  0  0
  1  3  2  0  0  0  0
  2  6  2  0  0  0  0
  3 11  1  0  0  0  0
  4  7  2  0  0  0  0
  4 12  1  0  0  0  0
  5  8  1  0  0  0  0
  5 12  2  0  0  0  0
  6 14  1  0  0  0  0
  7 15  1  0  0  0  0
  8 15  2  0  0  0  0
  9 13  1  0  0  0  0
  9 22  2  0  0  0  0
 10 13  2  0  0  0  0
 10 25  1  0  0  0  0
 11 14  2  0  0  0  0
 11 16  1  0  0  0  0
 12 21  1  0  0  0  0
 13 20  1  0  0  0  0
 14 24  1  0  0  0  0
 15 28  1  0  0  0  0
 16 23  2  0  0  0  0
 16 26  1  0  0  0  0
 17 21  1  0  0  0  0
 17 26  1  0  0  0  0
 17 27  2  0  0  0  0
 18 25  1  0  0  0  0
 19 28  1  0  0  0  0
 20 21  1  1  0  0  0
 22 25  1  0  0  0  0
 23 24  1  0  0  0  0
  1 29  1  0  0  0  0
  2 30  1  0  0  0  0
  3 31  1  0  0  0  0
  4 32  1  0  0  0  0
  5 33  1  0  0  0  0
  6 34  1  0  0  0  0
  7 35  1  0  0  0  0
  8 36  1  0  0  0  0
  9 37  1  0  0  0  0
 10 38  1  0  0  0  0
 18 39  1  0  0  0  0
 18 40  1  0  0  0  0
 18 41  1  0  0  0  0
 19 42  1  0  0  0  0
 19 43  1  0  0  0  0
 19 44  1  0  0  0  0
 20 45  1  0  0  0  0
 20 46  1  0  0  0  0
 21 47  1  0  0  0  0
 24 48  1  0  0  0  0
 26 49  1  0  0  0  0
M  END
> <clash_score>
0

> <docking_score>
-3.9082789421081543

> <overlap_score>
0.8460106253623962

$$$$
BENZO_243_2
  -OEChem-08232013533D

 49 52  0     1  0  0  0  0  0999 V2000
    4.2460    1.7520   20.8250 C   0  0  0  0  0  0  0  0  0  0  0  0
    3.8860    2.1050   19.5250 C   0  0  0  0  0  0  0  0  0  0  0  0
    5.3890    1.0010   21.0690 C   0  0  0  0  0  0  0  0  0  0  0  0
    9.5890   -2.4950   23.2210 C   0  0  0  0  0  0  0  0  0  0  0  0
    8.2550   -1.0010   24.5520 C   0  0  0  0  0  0  0  0  0  0  0  0
    4.6610    1.7170   18.4380 C   0  0  0  0  0  0  0  0  0  0  0  0
    9.1890   -3.5540   24.0140 C   0  0  0  0  0  0  0  0  0  0  0  0
    7.8700   -2.0610   25.3550 C   0  0  0  0  0  0  0  0  0  0  0  0
   11.7155    0.1520   24.9872 C   0  0  0  0  0  0  0  0  0  0  0  0
   11.0544    2.1258   25.6959 C   0  0  0  0  0  0  0  0  0  0  0  0
    6.1460    0.6070   19.9750 C   0  0  0  0  0  0  0  0  0  0  0  0
    9.1280   -1.2090   23.4870 C   0  0  0  0  0  0  0  0  0  0  0  0
   10.7691    1.1678   24.7539 C   0  0  0  0  0  0  0  0  0  0  0  0
    5.7970    0.9500   18.6730 C   0  0  0  0  0  0  0  0  0  0  0  0
    8.3450   -3.3440   25.0980 C   0  0  0  0  0  0  0  0  0  0  0  0
    7.2710   -0.1460   19.8310 C   0  0  0  0  0  0  0  0  0  0  0  0
    9.0430    0.2380   21.4940 C   0  0  0  0  0  0  0  0  0  0  0  0
   12.7726    2.3012   27.5113 C   0  0  0  0  0  0  0  0  0  0  0  0
    8.5107   -5.6661   25.5721 C   0  0  0  0  0  0  0  0  0  0  0  0
    9.6841    1.2008   23.7022 C   0  0  0  0  0  0  0  0  0  0  0  0
    9.5820   -0.1080   22.7000 C   0  0  2  0  0  0  0  0  0  0  0  0
   12.5403    0.4380   25.9980 N   0  0  0  0  0  0  0  0  0  0  0  0
    7.5840   -0.2700   18.5160 N   0  0  0  0  0  0  0  0  0  0  0  0
    6.7100    0.3850   17.8100 N   0  0  0  0  0  0  0  0  0  0  0  0
   12.1132    1.6445   26.4082 N   0  0  0  0  0  0  0  0  0  0  0  0
    8.0950   -0.7700   20.8440 N   0  0  0  0  0  0  0  0  0  0  0  0
    9.2950    1.3000   20.9480 O   0  0  0  0  0  0  0  0  0  0  0  0
    7.9856   -4.3803   25.8987 O   0  0  0  0  0  0  0  0  0  0  0  0
    3.6223    2.0725   21.6574 H   0  0  0  0  0  0  0  0  0  0  0  0
    2.9864    2.6933   19.3609 H   0  0  0  0  0  0  0  0  0  0  0  0
    5.6689    0.7392   22.0836 H   0  0  0  0  0  0  0  0  0  0  0  0
   10.2677   -2.6721   22.3861 H   0  0  0  0  0  0  0  0  0  0  0  0
    7.8705   -0.0015   24.7586 H   0  0  0  0  0  0  0  0  0  0  0  0
    4.3807    2.0116   17.4186 H   0  0  0  0  0  0  0  0  0  0  0  0
    9.5403   -4.5634   23.7844 H   0  0  0  0  0  0  0  0  0  0  0  0
    7.1918   -1.8874   26.1909 H   0  0  0  0  0  0  0  0  0  0  0  0
   11.8409   -0.7851   24.4635 H   0  0  0  0  0  0  0  0  0  0  0  0
   10.6061    3.0857   25.9138 H   0  0  0  0  0  0  0  0  0  0  0  0
   12.2713    1.9965   28.4337 H   0  0  0  0  0  0  0  0  0  0  0  0
   13.8256    2.0072   27.5334 H   0  0  0  0  0  0  0  0  0  0  0  0
   12.7061    3.3847   27.3788 H   0  0  0  0  0  0  0  0  0  0  0  0
    8.1446   -6.4033   26.2908 H   0  0  0  0  0  0  0  0  0  0  0  0
    9.6029   -5.6309   25.5943 H   0  0  0  0  0  0  0  0  0  0  0  0
    8.1774   -5.9418   24.5689 H   0  0  0  0  0  0  0  0  0  0  0  0
    8.7167    1.3910   24.1851 H   0  0  0  0  0  0  0  0  0  0  0  0
    9.8647    2.0727   23.0582 H   0  0  0  0  0  0  0  0  0  0  0  0
   10.7539   -0.2760   22.5528 H   0  0  0  0  0  0  0  0  0  0  0  0
    6.7486    0.4313   16.8331 H   0  0  0  0  0  0  0  0  0  0  0  0
    8.0757   -1.6162   21.0774 H   0  0  0  0  0  0  0  0  0  0  0  0
  1  2  1  0  0  0  0
  1  3  2  0  0  0  0
  2  6  2  0  0  0  0
  3 11  1  0  0  0  0
  4  7  2  0  0  0  0
  4 12  1  0  0  0  0
  5  8  1  0  0  0  0
  5 12  2  0  0  0  0
  6 14  1  0  0  0  0
  7 15  1  0  0  0  0
  8 15  2  0  0  0  0
  9 13  1  0  0  0  0
  9 22  2  0  0  0  0
 10 13  2  0  0  0  0
 10 25  1  0  0  0  0
 11 14  2  0  0  0  0
 11 16  1  0  0  0  0
 12 21  1  0  0  0  0
 13 20  1  0  0  0  0
 14 24  1  0  0  0  0
 15 28  1  0  0  0  0
 16 23  2  0  0  0  0
 16 26  1  0  0  0  0
 17 21  1  0  0  0  0
 17 26  1  0  0  0  0
 17 27  2  0  0  0  0
 18 25  1  0  0  0  0
 19 28  1  0  0  0  0
 20 21  1  6  0  0  0
 22 25  1  0  0  0  0
 23 24  1  0  0  0  0
  1 29  1  0  0  0  0
  2 30  1  0  0  0  0
  3 31  1  0  0  0  0
  4 32  1  0  0  0  0
  5 33  1  0  0  0  0
  6 34  1  0  0  0  0
  7 35  1  0  0  0  0
  8 36  1  0  0  0  0
  9 37  1  0  0  0  0
 10 38  1  0  0  0  0
 18 39  1  0  0  0  0
 18 40  1  0  0  0  0
 18 41  1  0  0  0  0
 19 42  1  0  0  0  0
 19 43  1  0  0  0  0
 19 44  1  0  0  0  0
 20 45  1  0  0  0  0
 20 46  1  0  0  0  0
 21 47  1  0  0  0  0
 24 48  1  0  0  0  0
 26 49  1  0  0  0  0
M  END
> <clash_score>
3.2086004152360648

> <docking_score>
-2.431795120239258

> <overlap_score>
0.7628595232963562

$$$$
BENZO_245_1
  -OEChem-08232013533D

 59 63  0     1  0  0  0  0  0999 V2000
   12.6859    4.1423   22.7481 C   0  0  0  0  0  0  0  0  0  0  0  0
    4.2460    1.7520   20.8250 C   0  0  0  0  0  0  0  0  0  0  0  0
   11.5036    4.5324   23.3772 C   0  0  0  0  0  0  0  0  0  0  0  0
   12.8948    2.8014   22.4259 C   0  0  0  0  0  0  0  0  0  0  0  0
    3.8860    2.1050   19.5250 C   0  0  0  0  0  0  0  0  0  0  0  0
    5.3890    1.0010   21.0690 C   0  0  0  0  0  0  0  0  0  0  0  0
   10.5303    3.5816   23.6841 C   0  0  0  0  0  0  0  0  0  0  0  0
   11.9215    1.8505   22.7328 C   0  0  0  0  0  0  0  0  0  0  0  0
    9.5890   -2.4950   23.2210 C   0  0  0  0  0  0  0  0  0  0  0  0
    8.2550   -1.0010   24.5520 C   0  0  0  0  0  0  0  0  0  0  0  0
    4.6610    1.7170   18.4380 C   0  0  0  0  0  0  0  0  0  0  0  0
    9.1890   -3.5540   24.0140 C   0  0  0  0  0  0  0  0  0  0  0  0
    7.8700   -2.0610   25.3550 C   0  0  0  0  0  0  0  0  0  0  0  0
    6.1460    0.6070   19.9750 C   0  0  0  0  0  0  0  0  0  0  0  0
   10.7393    2.2406   23.3619 C   0  0  0  0  0  0  0  0  0  0  0  0
    9.1280   -1.2090   23.4870 C   0  0  0  0  0  0  0  0  0  0  0  0
    5.7970    0.9500   18.6730 C   0  0  0  0  0  0  0  0  0  0  0  0
    8.3450   -3.3440   25.0980 C   0  0  0  0  0  0  0  0  0  0  0  0
    7.2710   -0.1460   19.8310 C   0  0  0  0  0  0  0  0  0  0  0  0
    8.2712   -4.4336   27.3225 C   0  0  0  0  0  0  0  0  0  0  0  0
    9.0430    0.2380   21.4940 C   0  0  0  0  0  0  0  0  0  0  0  0
    7.5739   -5.4743   28.1816 C   0  0  0  0  0  0  0  0  0  0  0  0
    7.3190   -6.7949   27.4884 C   0  0  0  0  0  0  0  0  0  0  0  0
    6.5818   -6.5304   26.1943 C   0  0  0  0  0  0  0  0  0  0  0  0
    7.4451   -5.6594   25.2973 C   0  0  0  0  0  0  0  0  0  0  0  0
    9.6852    1.2097   23.6944 C   0  0  0  0  0  0  0  0  0  0  0  0
    9.5820   -0.1080   22.7000 C   0  0  1  0  0  0  0  0  0  0  0  0
    7.5840   -0.2700   18.5160 N   0  0  0  0  0  0  0  0  0  0  0  0
    6.7100    0.3850   17.8100 N   0  0  0  0  0  0  0  0  0  0  0  0
    7.9635   -4.4451   25.9501 N   0  0  0  0  0  0  0  0  0  0  0  0
    8.0950   -0.7700   20.8440 N   0  0  0  0  0  0  0  0  0  0  0  0
    9.0077   -3.6181   27.8843 O   0  0  0  0  0  0  0  0  0  0  0  0
    9.2950    1.3000   20.9480 O   0  0  0  0  0  0  0  0  0  0  0  0
   13.4430    4.8831   22.5080 H   0  0  0  0  0  0  0  0  0  0  0  0
    3.6223    2.0725   21.6574 H   0  0  0  0  0  0  0  0  0  0  0  0
   11.3403    5.5767   23.6272 H   0  0  0  0  0  0  0  0  0  0  0  0
   13.8146    2.4975   21.9351 H   0  0  0  0  0  0  0  0  0  0  0  0
    2.9864    2.6933   19.3609 H   0  0  0  0  0  0  0  0  0  0  0  0
    5.6689    0.7392   22.0836 H   0  0  0  0  0  0  0  0  0  0  0  0
    9.6123    3.8946   24.1745 H   0  0  0  0  0  0  0  0  0  0  0  0
   12.0930    0.8080   22.4781 H   0  0  0  0  0  0  0  0  0  0  0  0
   10.2695   -2.6718   22.3873 H   0  0  0  0  0  0  0  0  0  0  0  0
    7.8712   -0.0014   24.7587 H   0  0  0  0  0  0  0  0  0  0  0  0
    4.3807    2.0116   17.4186 H   0  0  0  0  0  0  0  0  0  0  0  0
    9.5431   -4.5618   23.7801 H   0  0  0  0  0  0  0  0  0  0  0  0
    7.1923   -1.8823   26.1912 H   0  0  0  0  0  0  0  0  0  0  0  0
    8.1899   -5.6491   29.0712 H   0  0  0  0  0  0  0  0  0  0  0  0
    6.6268   -5.0349   28.5175 H   0  0  0  0  0  0  0  0  0  0  0  0
    8.2675   -7.3067   27.2851 H   0  0  0  0  0  0  0  0  0  0  0  0
    6.7259   -7.4492   28.1364 H   0  0  0  0  0  0  0  0  0  0  0  0
    6.3607   -7.4763   25.6875 H   0  0  0  0  0  0  0  0  0  0  0  0
    5.6224   -6.0369   26.3915 H   0  0  0  0  0  0  0  0  0  0  0  0
    8.3165   -6.2318   24.9547 H   0  0  0  0  0  0  0  0  0  0  0  0
    6.8693   -5.3612   24.4129 H   0  0  0  0  0  0  0  0  0  0  0  0
    9.7996    0.8985   24.7410 H   0  0  0  0  0  0  0  0  0  0  0  0
    8.7039    1.7016   23.6424 H   0  0  0  0  0  0  0  0  0  0  0  0
   10.7567   -0.2690   22.5479 H   0  0  0  0  0  0  0  0  0  0  0  0
    6.7486    0.4313   16.8331 H   0  0  0  0  0  0  0  0  0  0  0  0
    8.0917   -1.6083   21.0911 H   0  0  0  0  0  0  0  0  0  0  0  0
  1  3  1  0  0  0  0
  1  4  2  0  0  0  0
  2  5  1  0  0  0  0
  2  6  2  0  0  0  0
  3  7  2  0  0  0  0
  4  8  1  0  0  0  0
  5 11  2  0  0  0  0
  6 14  1  0  0  0  0
  7 15  1  0  0  0  0
  8 15  2  0  0  0  0
  9 12  2  0  0  0  0
  9 16  1  0  0  0  0
 10 13  1  0  0  0  0
 10 16  2  0  0  0  0
 11 17  1  0  0  0  0
 12 18  1  0  0  0  0
 13 18  2  0  0  0  0
 14 17  2  0  0  0  0
 14 19  1  0  0  0  0
 15 26  1  0  0  0  0
 16 27  1  0  0  0  0
 17 29  1  0  0  0  0
 18 30  1  0  0  0  0
 19 28  2  0  0  0  0
 19 31  1  0  0  0  0
 20 22  1  0  0  0  0
 20 30  1  0  0  0  0
 20 32  2  0  0  0  0
 21 27  1  1  0  0  0
 21 31  1  0  0  0  0
 21 33  2  0  0  0  0
 22 23  1  0  0  0  0
 23 24  1  0  0  0  0
 24 25  1  0  0  0  0
 25 30  1  0  0  0  0
 26 27  1  0  0  0  0
 28 29  1  0  0  0  0
  1 34  1  0  0  0  0
  2 35  1  0  0  0  0
  3 36  1  0  0  0  0
  4 37  1  0  0  0  0
  5 38  1  0  0  0  0
  6 39  1  0  0  0  0
  7 40  1  0  0  0  0
  8 41  1  0  0  0  0
  9 42  1  0  0  0  0
 10 43  1  0  0  0  0
 11 44  1  0  0  0  0
 12 45  1  0  0  0  0
 13 46  1  0  0  0  0
 22 47  1  0  0  0  0
 22 48  1  0  0  0  0
 23 49  1  0  0  0  0
 23 50  1  0  0  0  0
 24 51  1  0  0  0  0
 24 52  1  0  0  0  0
 25 53  1  0  0  0  0
 25 54  1  0  0  0  0
 26 55  1  0  0  0  0
 26 56  1  0  0  0  0
 27 57  1  0  0  0  0
 29 58  1  0  0  0  0
 31 59  1  0  0  0  0
M  END
> <clash_score>
0

> <docking_score>
-6.970365524291992

> <overlap_score>
0.8526010513305664

$$$$
BENZO_245_2
  -OEChem-08232013533D

 59 63  0     1  0  0  0  0  0999 V2000
   13.2442   -0.7792   26.3598 C   0  0  0  0  0  0  0  0  0  0  0  0
    4.2460    1.7520   20.8250 C   0  0  0  0  0  0  0  0  0  0  0  0
   13.7975   -1.2945   25.1877 C   0  0  0  0  0  0  0  0  0  0  0  0
   12.0379   -0.0804   26.3133 C   0  0  0  0  0  0  0  0  0  0  0  0
    3.8860    2.1050   19.5250 C   0  0  0  0  0  0  0  0  0  0  0  0
    5.3890    1.0010   21.0690 C   0  0  0  0  0  0  0  0  0  0  0  0
   13.1444   -1.1109   23.9689 C   0  0  0  0  0  0  0  0  0  0  0  0
   11.3849    0.1033   25.0945 C   0  0  0  0  0  0  0  0  0  0  0  0
    9.5890   -2.4950   23.2210 C   0  0  0  0  0  0  0  0  0  0  0  0
    8.2550   -1.0010   24.5520 C   0  0  0  0  0  0  0  0  0  0  0  0
    4.6610    1.7170   18.4380 C   0  0  0  0  0  0  0  0  0  0  0  0
    9.1890   -3.5540   24.0140 C   0  0  0  0  0  0  0  0  0  0  0  0
    7.8700   -2.0610   25.3550 C   0  0  0  0  0  0  0  0  0  0  0  0
    6.1460    0.6070   19.9750 C   0  0  0  0  0  0  0  0  0  0  0  0
   11.9381   -0.4120   23.9222 C   0  0  0  0  0  0  0  0  0  0  0  0
    9.1280   -1.2090   23.4870 C   0  0  0  0  0  0  0  0  0  0  0  0
    5.7970    0.9500   18.6730 C   0  0  0  0  0  0  0  0  0  0  0  0
    8.3450   -3.3440   25.0980 C   0  0  0  0  0  0  0  0  0  0  0  0
    7.2710   -0.1460   19.8310 C   0  0  0  0  0  0  0  0  0  0  0  0
    6.6194   -4.8191   26.1158 C   0  0  0  0  0  0  0  0  0  0  0  0
    9.0430    0.2380   21.4940 C   0  0  0  0  0  0  0  0  0  0  0  0
    6.4366   -5.9938   27.0605 C   0  0  0  0  0  0  0  0  0  0  0  0
    7.2458   -5.7947   28.3299 C   0  0  0  0  0  0  0  0  0  0  0  0
    8.7184   -5.5215   28.0404 C   0  0  0  0  0  0  0  0  0  0  0  0
    9.0024   -5.2744   26.5596 C   0  0  0  0  0  0  0  0  0  0  0  0
   11.2301   -0.2125   22.6019 C   0  0  0  0  0  0  0  0  0  0  0  0
    9.5820   -0.1080   22.7000 C   0  0  2  0  0  0  0  0  0  0  0  0
    7.5840   -0.2700   18.5160 N   0  0  0  0  0  0  0  0  0  0  0  0
    6.7100    0.3850   17.8100 N   0  0  0  0  0  0  0  0  0  0  0  0
    7.9658   -4.4384   25.9449 N   0  0  0  0  0  0  0  0  0  0  0  0
    8.0950   -0.7700   20.8440 N   0  0  0  0  0  0  0  0  0  0  0  0
    5.6415   -4.3469   25.5373 O   0  0  0  0  0  0  0  0  0  0  0  0
    9.2950    1.3000   20.9480 O   0  0  0  0  0  0  0  0  0  0  0  0
   13.7522   -0.9234   27.3090 H   0  0  0  0  0  0  0  0  0  0  0  0
    3.6223    2.0725   21.6574 H   0  0  0  0  0  0  0  0  0  0  0  0
   14.7362   -1.8396   25.2239 H   0  0  0  0  0  0  0  0  0  0  0  0
   11.6064    0.3200   27.2258 H   0  0  0  0  0  0  0  0  0  0  0  0
    2.9864    2.6933   19.3609 H   0  0  0  0  0  0  0  0  0  0  0  0
    5.6689    0.7392   22.0836 H   0  0  0  0  0  0  0  0  0  0  0  0
   13.5830   -1.5157   23.0606 H   0  0  0  0  0  0  0  0  0  0  0  0
   10.4455    0.6492   25.0677 H   0  0  0  0  0  0  0  0  0  0  0  0
   10.2695   -2.6718   22.3873 H   0  0  0  0  0  0  0  0  0  0  0  0
    7.8712   -0.0014   24.7587 H   0  0  0  0  0  0  0  0  0  0  0  0
    4.3807    2.0116   17.4186 H   0  0  0  0  0  0  0  0  0  0  0  0
    9.5431   -4.5618   23.7801 H   0  0  0  0  0  0  0  0  0  0  0  0
    7.1923   -1.8823   26.1912 H   0  0  0  0  0  0  0  0  0  0  0  0
    5.3901   -6.0734   27.3117 H   0  0  0  0  0  0  0  0  0  0  0  0
    6.7606   -6.8843   26.5429 H   0  0  0  0  0  0  0  0  0  0  0  0
    6.8221   -4.9563   28.9212 H   0  0  0  0  0  0  0  0  0  0  0  0
    7.1526   -6.6910   28.9757 H   0  0  0  0  0  0  0  0  0  0  0  0
    9.0539   -4.6418   28.6288 H   0  0  0  0  0  0  0  0  0  0  0  0
    9.3393   -6.3684   28.4053 H   0  0  0  0  0  0  0  0  0  0  0  0
    9.9475   -4.7506   26.4523 H   0  0  0  0  0  0  0  0  0  0  0  0
    9.0509   -6.2236   26.0372 H   0  0  0  0  0  0  0  0  0  0  0  0
   11.5792    0.7206   22.1406 H   0  0  0  0  0  0  0  0  0  0  0  0
   11.5533   -1.0126   21.9215 H   0  0  0  0  0  0  0  0  0  0  0  0
    9.5402    0.8508   23.4127 H   0  0  0  0  0  0  0  0  0  0  0  0
    6.7486    0.4313   16.8331 H   0  0  0  0  0  0  0  0  0  0  0  0
    8.0917   -1.6083   21.0911 H   0  0  0  0  0  0  0  0  0  0  0  0
  1  3  1  0  0  0  0
  1  4  2  0  0  0  0
  2  5  1  0  0  0  0
  2  6  2  0  0  0  0
  3  7  2  0  0  0  0
  4  8  1  0  0  0  0
  5 11  2  0  0  0  0
  6 14  1  0  0  0  0
  7 15  1  0  0  0  0
  8 15  2  0  0  0  0
  9 12  2  0  0  0  0
  9 16  1  0  0  0  0
 10 13  1  0  0  0  0
 10 16  2  0  0  0  0
 11 17  1  0  0  0  0
 12 18  1  0  0  0  0
 13 18  2  0  0  0  0
 14 17  2  0  0  0  0
 14 19  1  0  0  0  0
 15 26  1  0  0  0  0
 16 27  1  0  0  0  0
 17 29  1  0  0  0  0
 18 30  1  0  0  0  0
 19 28  2  0  0  0  0
 19 31  1  0  0  0  0
 20 22  1  0  0  0  0
 20 30  1  0  0  0  0
 20 32  2  0  0  0  0
 21 27  1  6  0  0  0
 21 31  1  0  0  0  0
 21 33  2  0  0  0  0
 22 23  1  0  0  0  0
 23 24  1  0  0  0  0
 24 25  1  0  0  0  0
 25 30  1  0  0  0  0
 26 27  1  0  0  0  0
 28 29  1  0  0  0  0
  1 34  1  0  0  0  0
  2 35  1  0  0  0  0
  3 36  1  0  0  0  0
  4 37  1  0  0  0  0
  5 38  1  0  0  0  0
  6 39  1  0  0  0  0
  7 40  1  0  0  0  0
  8 41  1  0  0  0  0
  9 42  1  0  0  0  0
 10 43  1  0  0  0  0
 11 44  1  0  0  0  0
 12 45  1  0  0  0  0
 13 46  1  0  0  0  0
 22 47  1  0  0  0  0
 22 48  1  0  0  0  0
 23 49  1  0  0  0  0
 23 50  1  0  0  0  0
 24 51  1  0  0  0  0
 24 52  1  0  0  0  0
 25 53  1  0  0  0  0
 25 54  1  0  0  0  0
 26 55  1  0  0  0  0
 26 56  1  0  0  0  0
 27 57  1  0  0  0  0
 29 58  1  0  0  0  0
 31 59  1  0  0  0  0
M  END
> <clash_score>
0

> <docking_score>
-5.753385543823242

> <overlap_score>
0.925991952419281

$$$$
BENZO_244_1
  -OEChem-08232013533D

 56 60  0     1  0  0  0  0  0999 V2000
    4.2460    1.7520   20.8250 C   0  0  0  0  0  0  0  0  0  0  0  0
    3.8860    2.1050   19.5250 C   0  0  0  0  0  0  0  0  0  0  0  0
    5.3890    1.0010   21.0690 C   0  0  0  0  0  0  0  0  0  0  0  0
    9.5890   -2.4950   23.2210 C   0  0  0  0  0  0  0  0  0  0  0  0
    8.2550   -1.0010   24.5520 C   0  0  0  0  0  0  0  0  0  0  0  0
    4.6610    1.7170   18.4380 C   0  0  0  0  0  0  0  0  0  0  0  0
    9.1890   -3.5540   24.0140 C   0  0  0  0  0  0  0  0  0  0  0  0
    7.8700   -2.0610   25.3550 C   0  0  0  0  0  0  0  0  0  0  0  0
   12.0300    1.9207   22.8503 C   0  0  0  0  0  0  0  0  0  0  0  0
   12.7947    3.0460   22.6348 C   0  0  0  0  0  0  0  0  0  0  0  0
   10.5667    3.5984   23.5182 C   0  0  0  0  0  0  0  0  0  0  0  0
    6.1460    0.6070   19.9750 C   0  0  0  0  0  0  0  0  0  0  0  0
    9.1280   -1.2090   23.4870 C   0  0  0  0  0  0  0  0  0  0  0  0
   10.7393    2.2406   23.3619 C   0  0  0  0  0  0  0  0  0  0  0  0
    5.7970    0.9500   18.6730 C   0  0  0  0  0  0  0  0  0  0  0  0
    8.3450   -3.3440   25.0980 C   0  0  0  0  0  0  0  0  0  0  0  0
    7.2710   -0.1460   19.8310 C   0  0  0  0  0  0  0  0  0  0  0  0
    8.2712   -4.4336   27.3225 C   0  0  0  0  0  0  0  0  0  0  0  0
    9.0430    0.2380   21.4940 C   0  0  0  0  0  0  0  0  0  0  0  0
    7.5739   -5.4743   28.1816 C   0  0  0  0  0  0  0  0  0  0  0  0
    7.3190   -6.7949   27.4884 C   0  0  0  0  0  0  0  0  0  0  0  0
    6.5818   -6.5304   26.1943 C   0  0  0  0  0  0  0  0  0  0  0  0
    7.4451   -5.6594   25.2973 C   0  0  0  0  0  0  0  0  0  0  0  0
    9.6852    1.2097   23.6944 C   0  0  0  0  0  0  0  0  0  0  0  0
    9.5820   -0.1080   22.7000 C   0  0  1  0  0  0  0  0  0  0  0  0
    7.5840   -0.2700   18.5160 N   0  0  0  0  0  0  0  0  0  0  0  0
    6.7100    0.3850   17.8100 N   0  0  0  0  0  0  0  0  0  0  0  0
    7.9635   -4.4451   25.9501 N   0  0  0  0  0  0  0  0  0  0  0  0
    8.0950   -0.7700   20.8440 N   0  0  0  0  0  0  0  0  0  0  0  0
    9.0077   -3.6181   27.8843 O   0  0  0  0  0  0  0  0  0  0  0  0
    9.2950    1.3000   20.9480 O   0  0  0  0  0  0  0  0  0  0  0  0
   11.9570    4.4810   23.0487 S   0  0  0  0  0  0  0  0  0  0  0  0
    3.6223    2.0725   21.6574 H   0  0  0  0  0  0  0  0  0  0  0  0
    2.9864    2.6933   19.3609 H   0  0  0  0  0  0  0  0  0  0  0  0
    5.6689    0.7392   22.0836 H   0  0  0  0  0  0  0  0  0  0  0  0
   10.2695   -2.6718   22.3873 H   0  0  0  0  0  0  0  0  0  0  0  0
    7.8712   -0.0014   24.7587 H   0  0  0  0  0  0  0  0  0  0  0  0
    4.3807    2.0116   17.4186 H   0  0  0  0  0  0  0  0  0  0  0  0
    9.5431   -4.5618   23.7801 H   0  0  0  0  0  0  0  0  0  0  0  0
    7.1923   -1.8823   26.1912 H   0  0  0  0  0  0  0  0  0  0  0  0
   12.3840    0.9173   22.6495 H   0  0  0  0  0  0  0  0  0  0  0  0
   13.8054    3.0942   22.2548 H   0  0  0  0  0  0  0  0  0  0  0  0
    9.6930    4.1183   23.8862 H   0  0  0  0  0  0  0  0  0  0  0  0
    8.1899   -5.6491   29.0712 H   0  0  0  0  0  0  0  0  0  0  0  0
    6.6268   -5.0349   28.5175 H   0  0  0  0  0  0  0  0  0  0  0  0
    8.2675   -7.3067   27.2851 H   0  0  0  0  0  0  0  0  0  0  0  0
    6.7259   -7.4492   28.1364 H   0  0  0  0  0  0  0  0  0  0  0  0
    6.3607   -7.4763   25.6875 H   0  0  0  0  0  0  0  0  0  0  0  0
    5.6224   -6.0369   26.3915 H   0  0  0  0  0  0  0  0  0  0  0  0
    8.3165   -6.2318   24.9547 H   0  0  0  0  0  0  0  0  0  0  0  0
    6.8693   -5.3612   24.4129 H   0  0  0  0  0  0  0  0  0  0  0  0
    9.7996    0.8985   24.7410 H   0  0  0  0  0  0  0  0  0  0  0  0
    8.7039    1.7016   23.6424 H   0  0  0  0  0  0  0  0  0  0  0  0
   10.7567   -0.2690   22.5479 H   0  0  0  0  0  0  0  0  0  0  0  0
    6.7486    0.4313   16.8331 H   0  0  0  0  0  0  0  0  0  0  0  0
    8.0917   -1.6083   21.0911 H   0  0  0  0  0  0  0  0  0  0  0  0
  1  2  1  0  0  0  0
  1  3  2  0  0  0  0
  2  6  2  0  0  0  0
  3 12  1  0  0  0  0
  4  7  2  0  0  0  0
  4 13  1  0  0  0  0
  5  8  1  0  0  0  0
  5 13  2  0  0  0  0
  6 15  1  0  0  0  0
  7 16  1  0  0  0  0
  8 16  2  0  0  0  0
  9 10  2  0  0  0  0
  9 14  1  0  0  0  0
 10 32  1  0  0  0  0
 11 14  2  0  0  0  0
 11 32  1  0  0  0  0
 12 15  2  0  0  0  0
 12 17  1  0  0  0  0
 13 25  1  0  0  0  0
 14 24  1  0  0  0  0
 15 27  1  0  0  0  0
 16 28  1  0  0  0  0
 17 26  2  0  0  0  0
 17 29  1  0  0  0  0
 18 20  1  0  0  0  0
 18 28  1  0  0  0  0
 18 30  2  0  0  0  0
 19 25  1  1  0  0  0
 19 29  1  0  0  0  0
 19 31  2  0  0  0  0
 20 21  1  0  0  0  0
 21 22  1  0  0  0  0
 22 23  1  0  0  0  0
 23 28  1  0  0  0  0
 24 25  1  0  0  0  0
 26 27  1  0  0  0  0
  1 33  1  0  0  0  0
  2 34  1  0  0  0  0
  3 35  1  0  0  0  0
  4 36  1  0  0  0  0
  5 37  1  0  0  0  0
  6 38  1  0  0  0  0
  7 39  1  0  0  0  0
  8 40  1  0  0  0  0
  9 41  1  0  0  0  0
 10 42  1  0  0  0  0
 11 43  1  0  0  0  0
 20 44  1  0  0  0  0
 20 45  1  0  0  0  0
 21 46  1  0  0  0  0
 21 47  1  0  0  0  0
 22 48  1  0  0  0  0
 22 49  1  0  0  0  0
 23 50  1  0  0  0  0
 23 51  1  0  0  0  0
 24 52  1  0  0  0  0
 24 53  1  0  0  0  0
 25 54  1  0  0  0  0
 27 55  1  0  0  0  0
 29 56  1  0  0  0  0
M  END
> <clash_score>
0

> <docking_score>
-6.738008499145508

> <overlap_score>
0.8532915115356445

$$$$
BENZO_244_2
  -OEChem-08232013533D

 56 60  0     1  0  0  0  0  0999 V2000
    4.2460    1.7520   20.8250 C   0  0  0  0  0  0  0  0  0  0  0  0
    3.8860    2.1050   19.5250 C   0  0  0  0  0  0  0  0  0  0  0  0
    5.3890    1.0010   21.0690 C   0  0  0  0  0  0  0  0  0  0  0  0
    9.5890   -2.4950   23.2210 C   0  0  0  0  0  0  0  0  0  0  0  0
    8.2550   -1.0010   24.5520 C   0  0  0  0  0  0  0  0  0  0  0  0
    4.6610    1.7170   18.4380 C   0  0  0  0  0  0  0  0  0  0  0  0
    9.1890   -3.5540   24.0140 C   0  0  0  0  0  0  0  0  0  0  0  0
    7.8700   -2.0610   25.3550 C   0  0  0  0  0  0  0  0  0  0  0  0
   13.1712   -1.1116   24.0649 C   0  0  0  0  0  0  0  0  0  0  0  0
   13.5969   -1.1482   25.3744 C   0  0  0  0  0  0  0  0  0  0  0  0
   11.4682    0.0593   25.1285 C   0  0  0  0  0  0  0  0  0  0  0  0
    6.1460    0.6070   19.9750 C   0  0  0  0  0  0  0  0  0  0  0  0
    9.1280   -1.2090   23.4870 C   0  0  0  0  0  0  0  0  0  0  0  0
   11.9381   -0.4120   23.9222 C   0  0  0  0  0  0  0  0  0  0  0  0
    5.7970    0.9500   18.6730 C   0  0  0  0  0  0  0  0  0  0  0  0
    8.3450   -3.3440   25.0980 C   0  0  0  0  0  0  0  0  0  0  0  0
    7.2710   -0.1460   19.8310 C   0  0  0  0  0  0  0  0  0  0  0  0
    6.6194   -4.8191   26.1158 C   0  0  0  0  0  0  0  0  0  0  0  0
    9.0430    0.2380   21.4940 C   0  0  0  0  0  0  0  0  0  0  0  0
    6.4366   -5.9938   27.0605 C   0  0  0  0  0  0  0  0  0  0  0  0
    7.2458   -5.7947   28.3299 C   0  0  0  0  0  0  0  0  0  0  0  0
    8.7184   -5.5215   28.0404 C   0  0  0  0  0  0  0  0  0  0  0  0
    9.0024   -5.2744   26.5596 C   0  0  0  0  0  0  0  0  0  0  0  0
   11.2301   -0.2125   22.6019 C   0  0  0  0  0  0  0  0  0  0  0  0
    9.5820   -0.1080   22.7000 C   0  0  2  0  0  0  0  0  0  0  0  0
    7.5840   -0.2700   18.5160 N   0  0  0  0  0  0  0  0  0  0  0  0
    6.7100    0.3850   17.8100 N   0  0  0  0  0  0  0  0  0  0  0  0
    7.9658   -4.4384   25.9449 N   0  0  0  0  0  0  0  0  0  0  0  0
    8.0950   -0.7700   20.8440 N   0  0  0  0  0  0  0  0  0  0  0  0
    5.6415   -4.3469   25.5373 O   0  0  0  0  0  0  0  0  0  0  0  0
    9.2950    1.3000   20.9480 O   0  0  0  0  0  0  0  0  0  0  0  0
   12.5120   -0.3415   26.4255 S   0  0  0  0  0  0  0  0  0  0  0  0
    3.6223    2.0725   21.6574 H   0  0  0  0  0  0  0  0  0  0  0  0
    2.9864    2.6933   19.3609 H   0  0  0  0  0  0  0  0  0  0  0  0
    5.6689    0.7392   22.0836 H   0  0  0  0  0  0  0  0  0  0  0  0
   10.2695   -2.6718   22.3873 H   0  0  0  0  0  0  0  0  0  0  0  0
    7.8712   -0.0014   24.7587 H   0  0  0  0  0  0  0  0  0  0  0  0
    4.3807    2.0116   17.4186 H   0  0  0  0  0  0  0  0  0  0  0  0
    9.5431   -4.5618   23.7801 H   0  0  0  0  0  0  0  0  0  0  0  0
    7.1923   -1.8823   26.1912 H   0  0  0  0  0  0  0  0  0  0  0  0
   13.7212   -1.5668   23.2509 H   0  0  0  0  0  0  0  0  0  0  0  0
   14.4926   -1.6106   25.7645 H   0  0  0  0  0  0  0  0  0  0  0  0
   10.5621    0.6191   25.3146 H   0  0  0  0  0  0  0  0  0  0  0  0
    5.3901   -6.0734   27.3117 H   0  0  0  0  0  0  0  0  0  0  0  0
    6.7606   -6.8843   26.5429 H   0  0  0  0  0  0  0  0  0  0  0  0
    6.8221   -4.9563   28.9212 H   0  0  0  0  0  0  0  0  0  0  0  0
    7.1526   -6.6910   28.9757 H   0  0  0  0  0  0  0  0  0  0  0  0
    9.0539   -4.6418   28.6288 H   0  0  0  0  0  0  0  0  0  0  0  0
    9.3393   -6.3684   28.4053 H   0  0  0  0  0  0  0  0  0  0  0  0
    9.9475   -4.7506   26.4523 H   0  0  0  0  0  0  0  0  0  0  0  0
    9.0509   -6.2236   26.0372 H   0  0  0  0  0  0  0  0  0  0  0  0
   11.5792    0.7206   22.1406 H   0  0  0  0  0  0  0  0  0  0  0  0
   11.5533   -1.0126   21.9215 H   0  0  0  0  0  0  0  0  0  0  0  0
    9.5402    0.8508   23.4127 H   0  0  0  0  0  0  0  0  0  0  0  0
    6.7486    0.4313   16.8331 H   0  0  0  0  0  0  0  0  0  0  0  0
    8.0917   -1.6083   21.0911 H   0  0  0  0  0  0  0  0  0  0  0  0
  1  2  1  0  0  0  0
  1  3  2  0  0  0  0
  2  6  2  0  0  0  0
  3 12  1  0  0  0  0
  4  7  2  0  0  0  0
  4 13  1  0  0  0  0
  5  8  1  0  0  0  0
  5 13  2  0  0  0  0
  6 15  1  0  0  0  0
  7 16  1  0  0  0  0
  8 16  2  0  0  0  0
  9 10  2  0  0  0  0
  9 14  1  0  0  0  0
 10 32  1  0  0  0  0
 11 14  2  0  0  0  0
 11 32  1  0  0  0  0
 12 15  2  0  0  0  0
 12 17  1  0  0  0  0
 13 25  1  0  0  0  0
 14 24  1  0  0  0  0
 15 27  1  0  0  0  0
 16 28  1  0  0  0  0
 17 26  2  0  0  0  0
 17 29  1  0  0  0  0
 18 20  1  0  0  0  0
 18 28  1  0  0  0  0
 18 30  2  0  0  0  0
 19 25  1  6  0  0  0
 19 29  1  0  0  0  0
 19 31  2  0  0  0  0
 20 21  1  0  0  0  0
 21 22  1  0  0  0  0
 22 23  1  0  0  0  0
 23 28  1  0  0  0  0
 24 25  1  0  0  0  0
 26 27  1  0  0  0  0
  1 33  1  0  0  0  0
  2 34  1  0  0  0  0
  3 35  1  0  0  0  0
  4 36  1  0  0  0  0
  5 37  1  0  0  0  0
  6 38  1  0  0  0  0
  7 39  1  0  0  0  0
  8 40  1  0  0  0  0
  9 41  1  0  0  0  0
 10 42  1  0  0  0  0
 11 43  1  0  0  0  0
 20 44  1  0  0  0  0
 20 45  1  0  0  0  0
 21 46  1  0  0  0  0
 21 47  1  0  0  0  0
 22 48  1  0  0  0  0
 22 49  1  0  0  0  0
 23 50  1  0  0  0  0
 23 51  1  0  0  0  0
 24 52  1  0  0  0  0
 24 53  1  0  0  0  0
 25 54  1  0  0  0  0
 27 55  1  0  0  0  0
 29 56  1  0  0  0  0
M  END
> <clash_score>
0

> <docking_score>
-6.2679443359375

> <overlap_score>
0.9224667549133301

$$$$
BENZO_246_2
  -OEChem-08232013533D

 59 63  0     1  0  0  0  0  0999 V2000
    4.2460    1.7520   20.8250 C   0  0  0  0  0  0  0  0  0  0  0  0
    3.8860    2.1050   19.5250 C   0  0  0  0  0  0  0  0  0  0  0  0
   13.7993   -1.2938   25.1853 C   0  0  0  0  0  0  0  0  0  0  0  0
    5.3890    1.0010   21.0690 C   0  0  0  0  0  0  0  0  0  0  0  0
   13.1448   -1.1103   23.9673 C   0  0  0  0  0  0  0  0  0  0  0  0
    9.5890   -2.4950   23.2210 C   0  0  0  0  0  0  0  0  0  0  0  0
    8.2550   -1.0010   24.5520 C   0  0  0  0  0  0  0  0  0  0  0  0
    4.6610    1.7170   18.4380 C   0  0  0  0  0  0  0  0  0  0  0  0
    9.1890   -3.5540   24.0140 C   0  0  0  0  0  0  0  0  0  0  0  0
    7.8700   -2.0610   25.3550 C   0  0  0  0  0  0  0  0  0  0  0  0
   13.2471   -0.7791   26.3583 C   0  0  0  0  0  0  0  0  0  0  0  0
   11.3860    0.1028   25.0952 C   0  0  0  0  0  0  0  0  0  0  0  0
    6.1460    0.6070   19.9750 C   0  0  0  0  0  0  0  0  0  0  0  0
    9.1280   -1.2090   23.4870 C   0  0  0  0  0  0  0  0  0  0  0  0
   11.9381   -0.4120   23.9222 C   0  0  0  0  0  0  0  0  0  0  0  0
    5.7970    0.9500   18.6730 C   0  0  0  0  0  0  0  0  0  0  0  0
    8.3450   -3.3440   25.0980 C   0  0  0  0  0  0  0  0  0  0  0  0
   12.0405   -0.0808   26.3132 C   0  0  0  0  0  0  0  0  0  0  0  0
    7.2710   -0.1460   19.8310 C   0  0  0  0  0  0  0  0  0  0  0  0
    6.6194   -4.8191   26.1158 C   0  0  0  0  0  0  0  0  0  0  0  0
    9.0430    0.2380   21.4940 C   0  0  0  0  0  0  0  0  0  0  0  0
    6.4366   -5.9938   27.0605 C   0  0  0  0  0  0  0  0  0  0  0  0
    7.2458   -5.7947   28.3299 C   0  0  0  0  0  0  0  0  0  0  0  0
    8.7184   -5.5215   28.0404 C   0  0  0  0  0  0  0  0  0  0  0  0
    9.0024   -5.2744   26.5596 C   0  0  0  0  0  0  0  0  0  0  0  0
   11.2301   -0.2125   22.6019 C   0  0  0  0  0  0  0  0  0  0  0  0
    9.5820   -0.1080   22.7000 C   0  0  2  0  0  0  0  0  0  0  0  0
    7.5840   -0.2700   18.5160 N   0  0  0  0  0  0  0  0  0  0  0  0
    6.7100    0.3850   17.8100 N   0  0  0  0  0  0  0  0  0  0  0  0
    7.9658   -4.4384   25.9449 N   0  0  0  0  0  0  0  0  0  0  0  0
    8.0950   -0.7700   20.8440 N   0  0  0  0  0  0  0  0  0  0  0  0
    5.6415   -4.3469   25.5373 O   0  0  0  0  0  0  0  0  0  0  0  0
    9.2950    1.3000   20.9480 O   0  0  0  0  0  0  0  0  0  0  0  0
   11.3603    0.5550   27.7606 Cl  0  0  0  0  0  0  0  0  0  0  0  0
    3.6223    2.0725   21.6574 H   0  0  0  0  0  0  0  0  0  0  0  0
    2.9864    2.6933   19.3609 H   0  0  0  0  0  0  0  0  0  0  0  0
   14.7389   -1.8375   25.2200 H   0  0  0  0  0  0  0  0  0  0  0  0
    5.6689    0.7392   22.0836 H   0  0  0  0  0  0  0  0  0  0  0  0
   13.5824   -1.5147   23.0583 H   0  0  0  0  0  0  0  0  0  0  0  0
   10.2695   -2.6718   22.3873 H   0  0  0  0  0  0  0  0  0  0  0  0
    7.8712   -0.0014   24.7587 H   0  0  0  0  0  0  0  0  0  0  0  0
    4.3807    2.0116   17.4186 H   0  0  0  0  0  0  0  0  0  0  0  0
    9.5431   -4.5618   23.7801 H   0  0  0  0  0  0  0  0  0  0  0  0
    7.1923   -1.8823   26.1912 H   0  0  0  0  0  0  0  0  0  0  0  0
   13.7684   -0.9296   27.3005 H   0  0  0  0  0  0  0  0  0  0  0  0
   10.4447    0.6461   25.0549 H   0  0  0  0  0  0  0  0  0  0  0  0
    5.3901   -6.0734   27.3117 H   0  0  0  0  0  0  0  0  0  0  0  0
    6.7606   -6.8843   26.5429 H   0  0  0  0  0  0  0  0  0  0  0  0
    6.8221   -4.9563   28.9212 H   0  0  0  0  0  0  0  0  0  0  0  0
    7.1526   -6.6910   28.9757 H   0  0  0  0  0  0  0  0  0  0  0  0
    9.0539   -4.6418   28.6288 H   0  0  0  0  0  0  0  0  0  0  0  0
    9.3393   -6.3684   28.4053 H   0  0  0  0  0  0  0  0  0  0  0  0
    9.9475   -4.7506   26.4523 H   0  0  0  0  0  0  0  0  0  0  0  0
    9.0509   -6.2236   26.0372 H   0  0  0  0  0  0  0  0  0  0  0  0
   11.5792    0.7206   22.1406 H   0  0  0  0  0  0  0  0  0  0  0  0
   11.5533   -1.0126   21.9215 H   0  0  0  0  0  0  0  0  0  0  0  0
    9.5402    0.8508   23.4127 H   0  0  0  0  0  0  0  0  0  0  0  0
    6.7486    0.4313   16.8331 H   0  0  0  0  0  0  0  0  0  0  0  0
    8.0917   -1.6083   21.0911 H   0  0  0  0  0  0  0  0  0  0  0  0
  1  2  1  0  0  0  0
  1  4  2  0  0  0  0
  2  8  2  0  0  0  0
  3  5  2  0  0  0  0
  3 11  1  0  0  0  0
  4 13  1  0  0  0  0
  5 15  1  0  0  0  0
  6  9  2  0  0  0  0
  6 14  1  0  0  0  0
  7 10  1  0  0  0  0
  7 14  2  0  0  0  0
  8 16  1  0  0  0  0
  9 17  1  0  0  0  0
 10 17  2  0  0  0  0
 11 18  2  0  0  0  0
 12 15  2  0  0  0  0
 12 18  1  0  0  0  0
 13 16  2  0  0  0  0
 13 19  1  0  0  0  0
 14 27  1  0  0  0  0
 15 26  1  0  0  0  0
 16 29  1  0  0  0  0
 17 30  1  0  0  0  0
 18 34  1  0  0  0  0
 19 28  2  0  0  0  0
 19 31  1  0  0  0  0
 20 22  1  0  0  0  0
 20 30  1  0  0  0  0
 20 32  2  0  0  0  0
 21 27  1  6  0  0  0
 21 31  1  0  0  0  0
 21 33  2  0  0  0  0
 22 23  1  0  0  0  0
 23 24  1  0  0  0  0
 24 25  1  0  0  0  0
 25 30  1  0  0  0  0
 26 27  1  0  0  0  0
 28 29  1  0  0  0  0
  1 35  1  0  0  0  0
  2 36  1  0  0  0  0
  3 37  1  0  0  0  0
  4 38  1  0  0  0  0
  5 39  1  0  0  0  0
  6 40  1  0  0  0  0
  7 41  1  0  0  0  0
  8 42  1  0  0  0  0
  9 43  1  0  0  0  0
 10 44  1  0  0  0  0
 11 45  1  0  0  0  0
 12 46  1  0  0  0  0
 22 47  1  0  0  0  0
 22 48  1  0  0  0  0
 23 49  1  0  0  0  0
 23 50  1  0  0  0  0
 24 51  1  0  0  0  0
 24 52  1  0  0  0  0
 25 53  1  0  0  0  0
 25 54  1  0  0  0  0
 26 55  1  0  0  0  0
 26 56  1  0  0  0  0
 27 57  1  0  0  0  0
 29 58  1  0  0  0  0
 31 59  1  0  0  0  0
M  END
> <clash_score>
0.7026228882814392

> <docking_score>
-5.022496223449707

> <overlap_score>
0.924889862537384

$$$$
BENZO_247_1
  -OEChem-08232013533D

 59 63  0     1  0  0  0  0  0999 V2000
    4.2460    1.7520   20.8250 C   0  0  0  0  0  0  0  0  0  0  0  0
    3.8860    2.1050   19.5250 C   0  0  0  0  0  0  0  0  0  0  0  0
    5.3890    1.0010   21.0690 C   0  0  0  0  0  0  0  0  0  0  0  0
    9.5890   -2.4950   23.2210 C   0  0  0  0  0  0  0  0  0  0  0  0
    8.2550   -1.0010   24.5520 C   0  0  0  0  0  0  0  0  0  0  0  0
    4.6610    1.7170   18.4380 C   0  0  0  0  0  0  0  0  0  0  0  0
    9.1890   -3.5540   24.0140 C   0  0  0  0  0  0  0  0  0  0  0  0
    7.8700   -2.0610   25.3550 C   0  0  0  0  0  0  0  0  0  0  0  0
   13.3220   -0.5322   24.1508 C   0  0  0  0  0  0  0  0  0  0  0  0
   11.3738   -0.5141   25.1703 C   0  0  0  0  0  0  0  0  0  0  0  0
    6.1460    0.6070   19.9750 C   0  0  0  0  0  0  0  0  0  0  0  0
    9.1280   -1.2090   23.4870 C   0  0  0  0  0  0  0  0  0  0  0  0
   11.9381   -0.4120   23.9222 C   0  0  0  0  0  0  0  0  0  0  0  0
    5.7970    0.9500   18.6730 C   0  0  0  0  0  0  0  0  0  0  0  0
    8.3450   -3.3440   25.0980 C   0  0  0  0  0  0  0  0  0  0  0  0
    7.2710   -0.1460   19.8310 C   0  0  0  0  0  0  0  0  0  0  0  0
    8.2612   -4.4533   27.3232 C   0  0  0  0  0  0  0  0  0  0  0  0
    9.0430    0.2380   21.4940 C   0  0  0  0  0  0  0  0  0  0  0  0
    7.7639   -5.6979   28.0369 C   0  0  0  0  0  0  0  0  0  0  0  0
    6.3258   -5.9996   27.6538 C   0  0  0  0  0  0  0  0  0  0  0  0
    6.1385   -6.0983   26.1431 C   0  0  0  0  0  0  0  0  0  0  0  0
    7.3646   -5.6395   25.3553 C   0  0  0  0  0  0  0  0  0  0  0  0
   12.3183   -0.8369   27.4686 C   0  0  0  0  0  0  0  0  0  0  0  0
   11.2301   -0.2125   22.6019 C   0  0  0  0  0  0  0  0  0  0  0  0
    9.5820   -0.1080   22.7000 C   0  0  1  0  0  0  0  0  0  0  0  0
   13.6188   -0.6978   25.4425 N   0  0  0  0  0  0  0  0  0  0  0  0
    7.5840   -0.2700   18.5160 N   0  0  0  0  0  0  0  0  0  0  0  0
    6.7100    0.3850   17.8100 N   0  0  0  0  0  0  0  0  0  0  0  0
   12.4135   -0.6823   26.0368 N   0  0  0  0  0  0  0  0  0  0  0  0
    7.9658   -4.4385   25.9450 N   0  0  0  0  0  0  0  0  0  0  0  0
    8.0950   -0.7700   20.8440 N   0  0  0  0  0  0  0  0  0  0  0  0
    8.9160   -3.6176   27.9452 O   0  0  0  0  0  0  0  0  0  0  0  0
    9.2950    1.3000   20.9480 O   0  0  0  0  0  0  0  0  0  0  0  0
    3.6223    2.0725   21.6574 H   0  0  0  0  0  0  0  0  0  0  0  0
    2.9864    2.6933   19.3609 H   0  0  0  0  0  0  0  0  0  0  0  0
    5.6689    0.7392   22.0836 H   0  0  0  0  0  0  0  0  0  0  0  0
   10.2695   -2.6718   22.3873 H   0  0  0  0  0  0  0  0  0  0  0  0
    7.8712   -0.0014   24.7587 H   0  0  0  0  0  0  0  0  0  0  0  0
    4.3807    2.0116   17.4186 H   0  0  0  0  0  0  0  0  0  0  0  0
    9.5431   -4.5618   23.7801 H   0  0  0  0  0  0  0  0  0  0  0  0
    7.1923   -1.8823   26.1912 H   0  0  0  0  0  0  0  0  0  0  0  0
   14.1285   -0.5054   23.4318 H   0  0  0  0  0  0  0  0  0  0  0  0
   10.3466   -0.4809   25.5074 H   0  0  0  0  0  0  0  0  0  0  0  0
    8.3914   -6.5295   27.7556 H   0  0  0  0  0  0  0  0  0  0  0  0
    7.8414   -5.5198   29.0990 H   0  0  0  0  0  0  0  0  0  0  0  0
    5.9977   -6.9465   28.1311 H   0  0  0  0  0  0  0  0  0  0  0  0
    5.6587   -5.2139   28.0619 H   0  0  0  0  0  0  0  0  0  0  0  0
    5.8986   -7.1470   25.8680 H   0  0  0  0  0  0  0  0  0  0  0  0
    5.2500   -5.5067   25.8324 H   0  0  0  0  0  0  0  0  0  0  0  0
    8.1195   -6.4201   25.3688 H   0  0  0  0  0  0  0  0  0  0  0  0
    7.0780   -5.4282   24.3307 H   0  0  0  0  0  0  0  0  0  0  0  0
   12.2259   -1.9040   27.6873 H   0  0  0  0  0  0  0  0  0  0  0  0
   13.2159   -0.4265   27.9396 H   0  0  0  0  0  0  0  0  0  0  0  0
   11.4422   -0.2936   27.8333 H   0  0  0  0  0  0  0  0  0  0  0  0
   11.5792    0.7206   22.1406 H   0  0  0  0  0  0  0  0  0  0  0  0
   11.5533   -1.0126   21.9215 H   0  0  0  0  0  0  0  0  0  0  0  0
    9.5402    0.8508   23.4127 H   0  0  0  0  0  0  0  0  0  0  0  0
    6.7486    0.4313   16.8331 H   0  0  0  0  0  0  0  0  0  0  0  0
    8.0917   -1.6083   21.0911 H   0  0  0  0  0  0  0  0  0  0  0  0
  1  2  1  0  0  0  0
  1  3  2  0  0  0  0
  2  6  2  0  0  0  0
  3 11  1  0  0  0  0
  4  7  2  0  0  0  0
  4 12  1  0  0  0  0
  5  8  1  0  0  0  0
  5 12  2  0  0  0  0
  6 14  1  0  0  0  0
  7 15  1  0  0  0  0
  8 15  2  0  0  0  0
  9 13  1  0  0  0  0
  9 26  2  0  0  0  0
 10 13  2  0  0  0  0
 10 29  1  0  0  0  0
 11 14  2  0  0  0  0
 11 16  1  0  0  0  0
 12 25  1  0  0  0  0
 13 24  1  0  0  0  0
 14 28  1  0  0  0  0
 15 30  1  0  0  0  0
 16 27  2  0  0  0  0
 16 31  1  0  0  0  0
 17 19  1  0  0  0  0
 17 30  1  0  0  0  0
 17 32  2  0  0  0  0
 18 25  1  0  0  0  0
 18 31  1  0  0  0  0
 18 33  2  0  0  0  0
 19 20  1  0  0  0  0
 20 21  1  0  0  0  0
 21 22  1  0  0  0  0
 22 30  1  0  0  0  0
 23 29  1  0  0  0  0
 24 25  1  1  0  0  0
 26 29  1  0  0  0  0
 27 28  1  0  0  0  0
  1 34  1  0  0  0  0
  2 35  1  0  0  0  0
  3 36  1  0  0  0  0
  4 37  1  0  0  0  0
  5 38  1  0  0  0  0
  6 39  1  0  0  0  0
  7 40  1  0  0  0  0
  8 41  1  0  0  0  0
  9 42  1  0  0  0  0
 10 43  1  0  0  0  0
 19 44  1  0  0  0  0
 19 45  1  0  0  0  0
 20 46  1  0  0  0  0
 20 47  1  0  0  0  0
 21 48  1  0  0  0  0
 21 49  1  0  0  0  0
 22 50  1  0  0  0  0
 22 51  1  0  0  0  0
 23 52  1  0  0  0  0
 23 53  1  0  0  0  0
 23 54  1  0  0  0  0
 24 55  1  0  0  0  0
 24 56  1  0  0  0  0
 25 57  1  0  0  0  0
 28 58  1  0  0  0  0
 31 59  1  0  0  0  0
M  END
> <clash_score>
0.6568275608698446

> <docking_score>
-6.2697038650512695

> <overlap_score>
0.93819659948349

$$$$
BENZO_246_1
  -OEChem-08232013533D

 59 63  0     1  0  0  0  0  0999 V2000
    4.2460    1.7520   20.8250 C   0  0  0  0  0  0  0  0  0  0  0  0
    3.8860    2.1050   19.5250 C   0  0  0  0  0  0  0  0  0  0  0  0
   12.8937    2.8016   22.4237 C   0  0  0  0  0  0  0  0  0  0  0  0
    5.3890    1.0010   21.0690 C   0  0  0  0  0  0  0  0  0  0  0  0
   11.9210    1.8506   22.7318 C   0  0  0  0  0  0  0  0  0  0  0  0
    9.5890   -2.4950   23.2210 C   0  0  0  0  0  0  0  0  0  0  0  0
    8.2550   -1.0010   24.5520 C   0  0  0  0  0  0  0  0  0  0  0  0
    4.6610    1.7170   18.4380 C   0  0  0  0  0  0  0  0  0  0  0  0
    9.1890   -3.5540   24.0140 C   0  0  0  0  0  0  0  0  0  0  0  0
    7.8700   -2.0610   25.3550 C   0  0  0  0  0  0  0  0  0  0  0  0
   12.6848    4.1426   22.7457 C   0  0  0  0  0  0  0  0  0  0  0  0
   10.5302    3.5816   23.6839 C   0  0  0  0  0  0  0  0  0  0  0  0
    6.1460    0.6070   19.9750 C   0  0  0  0  0  0  0  0  0  0  0  0
    9.1280   -1.2090   23.4870 C   0  0  0  0  0  0  0  0  0  0  0  0
   10.7393    2.2406   23.3619 C   0  0  0  0  0  0  0  0  0  0  0  0
    5.7970    0.9500   18.6730 C   0  0  0  0  0  0  0  0  0  0  0  0
    8.3450   -3.3440   25.0980 C   0  0  0  0  0  0  0  0  0  0  0  0
   11.5030    4.5326   23.3758 C   0  0  0  0  0  0  0  0  0  0  0  0
    7.2710   -0.1460   19.8310 C   0  0  0  0  0  0  0  0  0  0  0  0
    8.2612   -4.4533   27.3232 C   0  0  0  0  0  0  0  0  0  0  0  0
    9.0430    0.2380   21.4940 C   0  0  0  0  0  0  0  0  0  0  0  0
    7.7639   -5.6979   28.0369 C   0  0  0  0  0  0  0  0  0  0  0  0
    6.3258   -5.9996   27.6538 C   0  0  0  0  0  0  0  0  0  0  0  0
    6.1385   -6.0983   26.1431 C   0  0  0  0  0  0  0  0  0  0  0  0
    7.3646   -5.6395   25.3553 C   0  0  0  0  0  0  0  0  0  0  0  0
    9.6852    1.2097   23.6944 C   0  0  0  0  0  0  0  0  0  0  0  0
    9.5820   -0.1080   22.7000 C   0  0  1  0  0  0  0  0  0  0  0  0
    7.5840   -0.2700   18.5160 N   0  0  0  0  0  0  0  0  0  0  0  0
    6.7100    0.3850   17.8100 N   0  0  0  0  0  0  0  0  0  0  0  0
    7.9658   -4.4385   25.9450 N   0  0  0  0  0  0  0  0  0  0  0  0
    8.0950   -0.7700   20.8440 N   0  0  0  0  0  0  0  0  0  0  0  0
    8.9160   -3.6176   27.9452 O   0  0  0  0  0  0  0  0  0  0  0  0
    9.2950    1.3000   20.9480 O   0  0  0  0  0  0  0  0  0  0  0  0
   11.2452    6.1875   23.7718 Cl  0  0  0  0  0  0  0  0  0  0  0  0
    3.6223    2.0725   21.6574 H   0  0  0  0  0  0  0  0  0  0  0  0
    2.9864    2.6933   19.3609 H   0  0  0  0  0  0  0  0  0  0  0  0
   13.8138    2.4975   21.9329 H   0  0  0  0  0  0  0  0  0  0  0  0
    5.6689    0.7392   22.0836 H   0  0  0  0  0  0  0  0  0  0  0  0
   12.0923    0.8079   22.4771 H   0  0  0  0  0  0  0  0  0  0  0  0
   10.2695   -2.6718   22.3873 H   0  0  0  0  0  0  0  0  0  0  0  0
    7.8712   -0.0014   24.7587 H   0  0  0  0  0  0  0  0  0  0  0  0
    4.3807    2.0116   17.4186 H   0  0  0  0  0  0  0  0  0  0  0  0
    9.5431   -4.5618   23.7801 H   0  0  0  0  0  0  0  0  0  0  0  0
    7.1923   -1.8823   26.1912 H   0  0  0  0  0  0  0  0  0  0  0  0
   13.4515    4.8730   22.4993 H   0  0  0  0  0  0  0  0  0  0  0  0
    9.6074    3.8805   24.1756 H   0  0  0  0  0  0  0  0  0  0  0  0
    8.3914   -6.5295   27.7556 H   0  0  0  0  0  0  0  0  0  0  0  0
    7.8414   -5.5198   29.0990 H   0  0  0  0  0  0  0  0  0  0  0  0
    5.9977   -6.9465   28.1311 H   0  0  0  0  0  0  0  0  0  0  0  0
    5.6587   -5.2139   28.0619 H   0  0  0  0  0  0  0  0  0  0  0  0
    5.8986   -7.1470   25.8680 H   0  0  0  0  0  0  0  0  0  0  0  0
    5.2500   -5.5067   25.8324 H   0  0  0  0  0  0  0  0  0  0  0  0
    8.1195   -6.4201   25.3688 H   0  0  0  0  0  0  0  0  0  0  0  0
    7.0780   -5.4282   24.3307 H   0  0  0  0  0  0  0  0  0  0  0  0
    9.7996    0.8985   24.7410 H   0  0  0  0  0  0  0  0  0  0  0  0
    8.7039    1.7016   23.6424 H   0  0  0  0  0  0  0  0  0  0  0  0
   10.7567   -0.2690   22.5479 H   0  0  0  0  0  0  0  0  0  0  0  0
    6.7486    0.4313   16.8331 H   0  0  0  0  0  0  0  0  0  0  0  0
    8.0917   -1.6083   21.0911 H   0  0  0  0  0  0  0  0  0  0  0  0
  1  2  1  0  0  0  0
  1  4  2  0  0  0  0
  2  8  2  0  0  0  0
  3  5  2  0  0  0  0
  3 11  1  0  0  0  0
  4 13  1  0  0  0  0
  5 15  1  0  0  0  0
  6  9  2  0  0  0  0
  6 14  1  0  0  0  0
  7 10  1  0  0  0  0
  7 14  2  0  0  0  0
  8 16  1  0  0  0  0
  9 17  1  0  0  0  0
 10 17  2  0  0  0  0
 11 18  2  0  0  0  0
 12 15  2  0  0  0  0
 12 18  1  0  0  0  0
 13 16  2  0  0  0  0
 13 19  1  0  0  0  0
 14 27  1  0  0  0  0
 15 26  1  0  0  0  0
 16 29  1  0  0  0  0
 17 30  1  0  0  0  0
 18 34  1  0  0  0  0
 19 28  2  0  0  0  0
 19 31  1  0  0  0  0
 20 22  1  0  0  0  0
 20 30  1  0  0  0  0
 20 32  2  0  0  0  0
 21 27  1  1  0  0  0
 21 31  1  0  0  0  0
 21 33  2  0  0  0  0
 22 23  1  0  0  0  0
 23 24  1  0  0  0  0
 24 25  1  0  0  0  0
 25 30  1  0  0  0  0
 26 27  1  0  0  0  0
 28 29  1  0  0  0  0
  1 35  1  0  0  0  0
  2 36  1  0  0  0  0
  3 37  1  0  0  0  0
  4 38  1  0  0  0  0
  5 39  1  0  0  0  0
  6 40  1  0  0  0  0
  7 41  1  0  0  0  0
  8 42  1  0  0  0  0
  9 43  1  0  0  0  0
 10 44  1  0  0  0  0
 11 45  1  0  0  0  0
 12 46  1  0  0  0  0
 22 47  1  0  0  0  0
 22 48  1  0  0  0  0
 23 49  1  0  0  0  0
 23 50  1  0  0  0  0
 24 51  1  0  0  0  0
 24 52  1  0  0  0  0
 25 53  1  0  0  0  0
 25 54  1  0  0  0  0
 26 55  1  0  0  0  0
 26 56  1  0  0  0  0
 27 57  1  0  0  0  0
 29 58  1  0  0  0  0
 31 59  1  0  0  0  0
M  END
> <clash_score>
0

> <docking_score>
-8.576032638549805

> <overlap_score>
0.8504801392555237

$$$$
BENZO_247_2
  -OEChem-08232013533D

 59 63  0     1  0  0  0  0  0999 V2000
    4.2460    1.7520   20.8250 C   0  0  0  0  0  0  0  0  0  0  0  0
    3.8860    2.1050   19.5250 C   0  0  0  0  0  0  0  0  0  0  0  0
    5.3890    1.0010   21.0690 C   0  0  0  0  0  0  0  0  0  0  0  0
    9.5890   -2.4950   23.2210 C   0  0  0  0  0  0  0  0  0  0  0  0
    8.2550   -1.0010   24.5520 C   0  0  0  0  0  0  0  0  0  0  0  0
    4.6610    1.7170   18.4380 C   0  0  0  0  0  0  0  0  0  0  0  0
    9.1890   -3.5540   24.0140 C   0  0  0  0  0  0  0  0  0  0  0  0
    7.8700   -2.0610   25.3550 C   0  0  0  0  0  0  0  0  0  0  0  0
   11.6577    2.2238   22.2952 C   0  0  0  0  0  0  0  0  0  0  0  0
   11.0138    3.4070   24.0331 C   0  0  0  0  0  0  0  0  0  0  0  0
    6.1460    0.6070   19.9750 C   0  0  0  0  0  0  0  0  0  0  0  0
    9.1280   -1.2090   23.4870 C   0  0  0  0  0  0  0  0  0  0  0  0
   10.7393    2.2406   23.3619 C   0  0  0  0  0  0  0  0  0  0  0  0
    5.7970    0.9500   18.6730 C   0  0  0  0  0  0  0  0  0  0  0  0
    8.3450   -3.3440   25.0980 C   0  0  0  0  0  0  0  0  0  0  0  0
    7.2710   -0.1460   19.8310 C   0  0  0  0  0  0  0  0  0  0  0  0
    8.2612   -4.4533   27.3232 C   0  0  0  0  0  0  0  0  0  0  0  0
    9.0430    0.2380   21.4940 C   0  0  0  0  0  0  0  0  0  0  0  0
    7.7639   -5.6979   28.0369 C   0  0  0  0  0  0  0  0  0  0  0  0
    6.3258   -5.9996   27.6538 C   0  0  0  0  0  0  0  0  0  0  0  0
    6.1385   -6.0983   26.1431 C   0  0  0  0  0  0  0  0  0  0  0  0
    7.3646   -5.6395   25.3553 C   0  0  0  0  0  0  0  0  0  0  0  0
   12.6770    5.2480   23.6821 C   0  0  0  0  0  0  0  0  0  0  0  0
    9.6852    1.2097   23.6944 C   0  0  0  0  0  0  0  0  0  0  0  0
    9.5820   -0.1080   22.7000 C   0  0  2  0  0  0  0  0  0  0  0  0
   12.4560    3.2947   22.2852 N   0  0  0  0  0  0  0  0  0  0  0  0
    7.5840   -0.2700   18.5160 N   0  0  0  0  0  0  0  0  0  0  0  0
    6.7100    0.3850   17.8100 N   0  0  0  0  0  0  0  0  0  0  0  0
   12.0398    3.9953   23.3539 N   0  0  0  0  0  0  0  0  0  0  0  0
    7.9658   -4.4385   25.9450 N   0  0  0  0  0  0  0  0  0  0  0  0
    8.0950   -0.7700   20.8440 N   0  0  0  0  0  0  0  0  0  0  0  0
    8.9160   -3.6176   27.9452 O   0  0  0  0  0  0  0  0  0  0  0  0
    9.2950    1.3000   20.9480 O   0  0  0  0  0  0  0  0  0  0  0  0
    3.6223    2.0725   21.6574 H   0  0  0  0  0  0  0  0  0  0  0  0
    2.9864    2.6933   19.3609 H   0  0  0  0  0  0  0  0  0  0  0  0
    5.6689    0.7392   22.0836 H   0  0  0  0  0  0  0  0  0  0  0  0
   10.2695   -2.6718   22.3873 H   0  0  0  0  0  0  0  0  0  0  0  0
    7.8712   -0.0014   24.7587 H   0  0  0  0  0  0  0  0  0  0  0  0
    4.3807    2.0116   17.4186 H   0  0  0  0  0  0  0  0  0  0  0  0
    9.5431   -4.5618   23.7801 H   0  0  0  0  0  0  0  0  0  0  0  0
    7.1923   -1.8823   26.1912 H   0  0  0  0  0  0  0  0  0  0  0  0
   11.7800    1.4776   21.5229 H   0  0  0  0  0  0  0  0  0  0  0  0
   10.5765    3.8580   24.9136 H   0  0  0  0  0  0  0  0  0  0  0  0
    8.3914   -6.5295   27.7556 H   0  0  0  0  0  0  0  0  0  0  0  0
    7.8414   -5.5198   29.0990 H   0  0  0  0  0  0  0  0  0  0  0  0
    5.9977   -6.9465   28.1311 H   0  0  0  0  0  0  0  0  0  0  0  0
    5.6587   -5.2139   28.0619 H   0  0  0  0  0  0  0  0  0  0  0  0
    5.8986   -7.1470   25.8680 H   0  0  0  0  0  0  0  0  0  0  0  0
    5.2500   -5.5067   25.8324 H   0  0  0  0  0  0  0  0  0  0  0  0
    8.1195   -6.4201   25.3688 H   0  0  0  0  0  0  0  0  0  0  0  0
    7.0780   -5.4282   24.3307 H   0  0  0  0  0  0  0  0  0  0  0  0
   13.5110    5.0358   24.3562 H   0  0  0  0  0  0  0  0  0  0  0  0
   13.0376    5.7241   22.7660 H   0  0  0  0  0  0  0  0  0  0  0  0
   11.9508    5.9069   24.1662 H   0  0  0  0  0  0  0  0  0  0  0  0
    9.7996    0.8985   24.7410 H   0  0  0  0  0  0  0  0  0  0  0  0
    8.7039    1.7016   23.6424 H   0  0  0  0  0  0  0  0  0  0  0  0
   10.7567   -0.2690   22.5479 H   0  0  0  0  0  0  0  0  0  0  0  0
    6.7486    0.4313   16.8331 H   0  0  0  0  0  0  0  0  0  0  0  0
    8.0917   -1.6083   21.0911 H   0  0  0  0  0  0  0  0  0  0  0  0
  1  2  1  0  0  0  0
  1  3  2  0  0  0  0
  2  6  2  0  0  0  0
  3 11  1  0  0  0  0
  4  7  2  0  0  0  0
  4 12  1  0  0  0  0
  5  8  1  0  0  0  0
  5 12  2  0  0  0  0
  6 14  1  0  0  0  0
  7 15  1  0  0  0  0
  8 15  2  0  0  0  0
  9 13  1  0  0  0  0
  9 26  2  0  0  0  0
 10 13  2  0  0  0  0
 10 29  1  0  0  0  0
 11 14  2  0  0  0  0
 11 16  1  0  0  0  0
 12 25  1  0  0  0  0
 13 24  1  0  0  0  0
 14 28  1  0  0  0  0
 15 30  1  0  0  0  0
 16 27  2  0  0  0  0
 16 31  1  0  0  0  0
 17 19  1  0  0  0  0
 17 30  1  0  0  0  0
 17 32  2  0  0  0  0
 18 25  1  0  0  0  0
 18 31  1  0  0  0  0
 18 33  2  0  0  0  0
 19 20  1  0  0  0  0
 20 21  1  0  0  0  0
 21 22  1  0  0  0  0
 22 30  1  0  0  0  0
 23 29  1  0  0  0  0
 24 25  1  6  0  0  0
 26 29  1  0  0  0  0
 27 28  1  0  0  0  0
  1 34  1  0  0  0  0
  2 35  1  0  0  0  0
  3 36  1  0  0  0  0
  4 37  1  0  0  0  0
  5 38  1  0  0  0  0
  6 39  1  0  0  0  0
  7 40  1  0  0  0  0
  8 41  1  0  0  0  0
  9 42  1  0  0  0  0
 10 43  1  0  0  0  0
 19 44  1  0  0  0  0
 19 45  1  0  0  0  0
 20 46  1  0  0  0  0
 20 47  1  0  0  0  0
 21 48  1  0  0  0  0
 21 49  1  0  0  0  0
 22 50  1  0  0  0  0
 22 51  1  0  0  0  0
 23 52  1  0  0  0  0
 23 53  1  0  0  0  0
 23 54  1  0  0  0  0
 24 55  1  0  0  0  0
 24 56  1  0  0  0  0
 25 57  1  0  0  0  0
 28 58  1  0  0  0  0
 31 59  1  0  0  0  0
M  END
> <clash_score>
0

> <docking_score>
-6.986591339111328

> <overlap_score>
0.8474575281143188

$$$$
BENZO_249_1
  -OEChem-08232013533D

 58 62  0     1  0  0  0  0  0999 V2000
   12.7867    1.1712   26.6741 C   0  0  0  0  0  0  0  0  0  0  0  0
    4.2460    1.7520   20.8250 C   0  0  0  0  0  0  0  0  0  0  0  0
   11.5946    1.8532   26.9175 C   0  0  0  0  0  0  0  0  0  0  0  0
   12.9730    0.5019   25.4645 C   0  0  0  0  0  0  0  0  0  0  0  0
    3.8860    2.1050   19.5250 C   0  0  0  0  0  0  0  0  0  0  0  0
    5.3890    1.0010   21.0690 C   0  0  0  0  0  0  0  0  0  0  0  0
   10.5886    1.8659   25.9513 C   0  0  0  0  0  0  0  0  0  0  0  0
   11.9671    0.5146   24.4983 C   0  0  0  0  0  0  0  0  0  0  0  0
    9.5890   -2.4950   23.2210 C   0  0  0  0  0  0  0  0  0  0  0  0
    8.2550   -1.0010   24.5520 C   0  0  0  0  0  0  0  0  0  0  0  0
    4.6610    1.7170   18.4380 C   0  0  0  0  0  0  0  0  0  0  0  0
    9.1890   -3.5540   24.0140 C   0  0  0  0  0  0  0  0  0  0  0  0
    7.8700   -2.0610   25.3550 C   0  0  0  0  0  0  0  0  0  0  0  0
    6.1460    0.6070   19.9750 C   0  0  0  0  0  0  0  0  0  0  0  0
   10.7749    1.1966   24.7417 C   0  0  0  0  0  0  0  0  0  0  0  0
    9.1280   -1.2090   23.4870 C   0  0  0  0  0  0  0  0  0  0  0  0
    5.7970    0.9500   18.6730 C   0  0  0  0  0  0  0  0  0  0  0  0
    8.3450   -3.3440   25.0980 C   0  0  0  0  0  0  0  0  0  0  0  0
    7.2710   -0.1460   19.8310 C   0  0  0  0  0  0  0  0  0  0  0  0
    9.0430    0.2380   21.4940 C   0  0  0  0  0  0  0  0  0  0  0  0
    8.9526   -5.2008   26.6600 C   0  0  0  0  0  0  0  0  0  0  0  0
    6.6115   -4.5057   26.4392 C   0  0  0  0  0  0  0  0  0  0  0  0
    8.9053   -4.7827   28.1257 C   0  0  0  0  0  0  0  0  0  0  0  0
    6.6391   -4.1219   27.9194 C   0  0  0  0  0  0  0  0  0  0  0  0
    9.6852    1.2097   23.6944 C   0  0  0  0  0  0  0  0  0  0  0  0
    9.5820   -0.1080   22.7000 C   0  0  1  0  0  0  0  0  0  0  0  0
    7.5840   -0.2700   18.5160 N   0  0  0  0  0  0  0  0  0  0  0  0
    6.7100    0.3850   17.8100 N   0  0  0  0  0  0  0  0  0  0  0  0
    7.9774   -4.4013   25.9152 N   0  0  0  0  0  0  0  0  0  0  0  0
    8.0950   -0.7700   20.8440 N   0  0  0  0  0  0  0  0  0  0  0  0
    9.2950    1.3000   20.9480 O   0  0  0  0  0  0  0  0  0  0  0  0
    7.5748   -4.9364   28.6347 O   0  0  0  0  0  0  0  0  0  0  0  0
   13.5704    1.1625   27.4260 H   0  0  0  0  0  0  0  0  0  0  0  0
    3.6223    2.0725   21.6574 H   0  0  0  0  0  0  0  0  0  0  0  0
   11.4498    2.3753   27.8588 H   0  0  0  0  0  0  0  0  0  0  0  0
   13.9015   -0.0282   25.2743 H   0  0  0  0  0  0  0  0  0  0  0  0
    2.9864    2.6933   19.3609 H   0  0  0  0  0  0  0  0  0  0  0  0
    5.6689    0.7392   22.0836 H   0  0  0  0  0  0  0  0  0  0  0  0
    9.6629    2.3997   26.1496 H   0  0  0  0  0  0  0  0  0  0  0  0
   12.1210   -0.0097   23.5589 H   0  0  0  0  0  0  0  0  0  0  0  0
   10.2684   -2.6719   22.3867 H   0  0  0  0  0  0  0  0  0  0  0  0
    7.8717   -0.0016   24.7596 H   0  0  0  0  0  0  0  0  0  0  0  0
    4.3807    2.0116   17.4186 H   0  0  0  0  0  0  0  0  0  0  0  0
    9.5443   -4.5616   23.7817 H   0  0  0  0  0  0  0  0  0  0  0  0
    7.1921   -1.8821   26.1908 H   0  0  0  0  0  0  0  0  0  0  0  0
    9.9614   -5.0503   26.2701 H   0  0  0  0  0  0  0  0  0  0  0  0
    8.6932   -6.2593   26.5731 H   0  0  0  0  0  0  0  0  0  0  0  0
    6.2625   -5.5339   26.3355 H   0  0  0  0  0  0  0  0  0  0  0  0
    5.9348   -3.8414   25.9036 H   0  0  0  0  0  0  0  0  0  0  0  0
    9.5615   -5.4255   28.7162 H   0  0  0  0  0  0  0  0  0  0  0  0
    9.2365   -3.7494   28.2620 H   0  0  0  0  0  0  0  0  0  0  0  0
    6.8895   -3.0633   28.0551 H   0  0  0  0  0  0  0  0  0  0  0  0
    5.6514   -4.2861   28.3610 H   0  0  0  0  0  0  0  0  0  0  0  0
    8.7197    1.4079   24.1780 H   0  0  0  0  0  0  0  0  0  0  0  0
    9.8623    2.0699   23.0340 H   0  0  0  0  0  0  0  0  0  0  0  0
   10.7567   -0.2690   22.5478 H   0  0  0  0  0  0  0  0  0  0  0  0
    6.7486    0.4313   16.8331 H   0  0  0  0  0  0  0  0  0  0  0  0
    8.0917   -1.6083   21.0911 H   0  0  0  0  0  0  0  0  0  0  0  0
  1  3  1  0  0  0  0
  1  4  2  0  0  0  0
  2  5  1  0  0  0  0
  2  6  2  0  0  0  0
  3  7  2  0  0  0  0
  4  8  1  0  0  0  0
  5 11  2  0  0  0  0
  6 14  1  0  0  0  0
  7 15  1  0  0  0  0
  8 15  2  0  0  0  0
  9 12  2  0  0  0  0
  9 16  1  0  0  0  0
 10 13  1  0  0  0  0
 10 16  2  0  0  0  0
 11 17  1  0  0  0  0
 12 18  1  0  0  0  0
 13 18  2  0  0  0  0
 14 17  2  0  0  0  0
 14 19  1  0  0  0  0
 15 25  1  0  0  0  0
 16 26  1  0  0  0  0
 17 28  1  0  0  0  0
 18 29  1  0  0  0  0
 19 27  2  0  0  0  0
 19 30  1  0  0  0  0
 20 26  1  1  0  0  0
 20 30  1  0  0  0  0
 20 31  2  0  0  0  0
 21 23  1  0  0  0  0
 21 29  1  0  0  0  0
 22 24  1  0  0  0  0
 22 29  1  0  0  0  0
 23 32  1  0  0  0  0
 24 32  1  0  0  0  0
 25 26  1  0  0  0  0
 27 28  1  0  0  0  0
  1 33  1  0  0  0  0
  2 34  1  0  0  0  0
  3 35  1  0  0  0  0
  4 36  1  0  0  0  0
  5 37  1  0  0  0  0
  6 38  1  0  0  0  0
  7 39  1  0  0  0  0
  8 40  1  0  0  0  0
  9 41  1  0  0  0  0
 10 42  1  0  0  0  0
 11 43  1  0  0  0  0
 12 44  1  0  0  0  0
 13 45  1  0  0  0  0
 21 46  1  0  0  0  0
 21 47  1  0  0  0  0
 22 48  1  0  0  0  0
 22 49  1  0  0  0  0
 23 50  1  0  0  0  0
 23 51  1  0  0  0  0
 24 52  1  0  0  0  0
 24 53  1  0  0  0  0
 25 54  1  0  0  0  0
 25 55  1  0  0  0  0
 26 56  1  0  0  0  0
 28 57  1  0  0  0  0
 30 58  1  0  0  0  0
M  END
> <clash_score>
4.41239365524512

> <docking_score>
-3.993785858154297

> <overlap_score>
0.8525295257568359

$$$$
BENZO_249_2
  -OEChem-08232013533D

 58 62  0     1  0  0  0  0  0999 V2000
   13.2443   -0.7791   26.3598 C   0  0  0  0  0  0  0  0  0  0  0  0
    4.2460    1.7520   20.8250 C   0  0  0  0  0  0  0  0  0  0  0  0
   13.7975   -1.2944   25.1876 C   0  0  0  0  0  0  0  0  0  0  0  0
   12.0380   -0.0803   26.3132 C   0  0  0  0  0  0  0  0  0  0  0  0
    3.8860    2.1050   19.5250 C   0  0  0  0  0  0  0  0  0  0  0  0
    5.3890    1.0010   21.0690 C   0  0  0  0  0  0  0  0  0  0  0  0
   13.1445   -1.1108   23.9688 C   0  0  0  0  0  0  0  0  0  0  0  0
   11.3850    0.1033   25.0944 C   0  0  0  0  0  0  0  0  0  0  0  0
    9.5890   -2.4950   23.2210 C   0  0  0  0  0  0  0  0  0  0  0  0
    8.2550   -1.0010   24.5520 C   0  0  0  0  0  0  0  0  0  0  0  0
    4.6610    1.7170   18.4380 C   0  0  0  0  0  0  0  0  0  0  0  0
    9.1890   -3.5540   24.0140 C   0  0  0  0  0  0  0  0  0  0  0  0
    7.8700   -2.0610   25.3550 C   0  0  0  0  0  0  0  0  0  0  0  0
    6.1460    0.6070   19.9750 C   0  0  0  0  0  0  0  0  0  0  0  0
   11.9382   -0.4119   23.9222 C   0  0  0  0  0  0  0  0  0  0  0  0
    9.1280   -1.2090   23.4870 C   0  0  0  0  0  0  0  0  0  0  0  0
    5.7970    0.9500   18.6730 C   0  0  0  0  0  0  0  0  0  0  0  0
    8.3450   -3.3440   25.0980 C   0  0  0  0  0  0  0  0  0  0  0  0
    7.2710   -0.1460   19.8310 C   0  0  0  0  0  0  0  0  0  0  0  0
    9.0430    0.2380   21.4940 C   0  0  0  0  0  0  0  0  0  0  0  0
    8.9526   -5.2008   26.6600 C   0  0  0  0  0  0  0  0  0  0  0  0
    6.6115   -4.5057   26.4392 C   0  0  0  0  0  0  0  0  0  0  0  0
    8.9053   -4.7827   28.1257 C   0  0  0  0  0  0  0  0  0  0  0  0
    6.6391   -4.1219   27.9194 C   0  0  0  0  0  0  0  0  0  0  0  0
   11.2301   -0.2124   22.6019 C   0  0  0  0  0  0  0  0  0  0  0  0
    9.5820   -0.1080   22.7000 C   0  0  2  0  0  0  0  0  0  0  0  0
    7.5840   -0.2700   18.5160 N   0  0  0  0  0  0  0  0  0  0  0  0
    6.7100    0.3850   17.8100 N   0  0  0  0  0  0  0  0  0  0  0  0
    7.9774   -4.4013   25.9152 N   0  0  0  0  0  0  0  0  0  0  0  0
    8.0950   -0.7700   20.8440 N   0  0  0  0  0  0  0  0  0  0  0  0
    9.2950    1.3000   20.9480 O   0  0  0  0  0  0  0  0  0  0  0  0
    7.5748   -4.9364   28.6347 O   0  0  0  0  0  0  0  0  0  0  0  0
   13.7523   -0.9233   27.3089 H   0  0  0  0  0  0  0  0  0  0  0  0
    3.6223    2.0725   21.6574 H   0  0  0  0  0  0  0  0  0  0  0  0
   14.7362   -1.8395   25.2238 H   0  0  0  0  0  0  0  0  0  0  0  0
   11.6065    0.3201   27.2258 H   0  0  0  0  0  0  0  0  0  0  0  0
    2.9864    2.6933   19.3609 H   0  0  0  0  0  0  0  0  0  0  0  0
    5.6689    0.7392   22.0836 H   0  0  0  0  0  0  0  0  0  0  0  0
   13.5830   -1.5156   23.0605 H   0  0  0  0  0  0  0  0  0  0  0  0
   10.4456    0.6492   25.0677 H   0  0  0  0  0  0  0  0  0  0  0  0
   10.2684   -2.6719   22.3867 H   0  0  0  0  0  0  0  0  0  0  0  0
    7.8717   -0.0016   24.7596 H   0  0  0  0  0  0  0  0  0  0  0  0
    4.3807    2.0116   17.4186 H   0  0  0  0  0  0  0  0  0  0  0  0
    9.5443   -4.5616   23.7817 H   0  0  0  0  0  0  0  0  0  0  0  0
    7.1921   -1.8821   26.1908 H   0  0  0  0  0  0  0  0  0  0  0  0
    9.9614   -5.0503   26.2701 H   0  0  0  0  0  0  0  0  0  0  0  0
    8.6932   -6.2593   26.5731 H   0  0  0  0  0  0  0  0  0  0  0  0
    6.2625   -5.5339   26.3355 H   0  0  0  0  0  0  0  0  0  0  0  0
    5.9348   -3.8414   25.9036 H   0  0  0  0  0  0  0  0  0  0  0  0
    9.5615   -5.4255   28.7162 H   0  0  0  0  0  0  0  0  0  0  0  0
    9.2365   -3.7494   28.2620 H   0  0  0  0  0  0  0  0  0  0  0  0
    6.8895   -3.0633   28.0551 H   0  0  0  0  0  0  0  0  0  0  0  0
    5.6514   -4.2861   28.3610 H   0  0  0  0  0  0  0  0  0  0  0  0
   11.5792    0.7206   22.1405 H   0  0  0  0  0  0  0  0  0  0  0  0
   11.5533   -1.0125   21.9215 H   0  0  0  0  0  0  0  0  0  0  0  0
    9.5402    0.8508   23.4127 H   0  0  0  0  0  0  0  0  0  0  0  0
    6.7486    0.4313   16.8331 H   0  0  0  0  0  0  0  0  0  0  0  0
    8.0917   -1.6083   21.0911 H   0  0  0  0  0  0  0  0  0  0  0  0
  1  3  1  0  0  0  0
  1  4  2  0  0  0  0
  2  5  1  0  0  0  0
  2  6  2  0  0  0  0
  3  7  2  0  0  0  0
  4  8  1  0  0  0  0
  5 11  2  0  0  0  0
  6 14  1  0  0  0  0
  7 15  1  0  0  0  0
  8 15  2  0  0  0  0
  9 12  2  0  0  0  0
  9 16  1  0  0  0  0
 10 13  1  0  0  0  0
 10 16  2  0  0  0  0
 11 17  1  0  0  0  0
 12 18  1  0  0  0  0
 13 18  2  0  0  0  0
 14 17  2  0  0  0  0
 14 19  1  0  0  0  0
 15 25  1  0  0  0  0
 16 26  1  0  0  0  0
 17 28  1  0  0  0  0
 18 29  1  0  0  0  0
 19 27  2  0  0  0  0
 19 30  1  0  0  0  0
 20 26  1  6  0  0  0
 20 30  1  0  0  0  0
 20 31  2  0  0  0  0
 21 23  1  0  0  0  0
 21 29  1  0  0  0  0
 22 24  1  0  0  0  0
 22 29  1  0  0  0  0
 23 32  1  0  0  0  0
 24 32  1  0  0  0  0
 25 26  1  0  0  0  0
 27 28  1  0  0  0  0
  1 33  1  0  0  0  0
  2 34  1  0  0  0  0
  3 35  1  0  0  0  0
  4 36  1  0  0  0  0
  5 37  1  0  0  0  0
  6 38  1  0  0  0  0
  7 39  1  0  0  0  0
  8 40  1  0  0  0  0
  9 41  1  0  0  0  0
 10 42  1  0  0  0  0
 11 43  1  0  0  0  0
 12 44  1  0  0  0  0
 13 45  1  0  0  0  0
 21 46  1  0  0  0  0
 21 47  1  0  0  0  0
 22 48  1  0  0  0  0
 22 49  1  0  0  0  0
 23 50  1  0  0  0  0
 23 51  1  0  0  0  0
 24 52  1  0  0  0  0
 24 53  1  0  0  0  0
 25 54  1  0  0  0  0
 25 55  1  0  0  0  0
 26 56  1  0  0  0  0
 28 57  1  0  0  0  0
 30 58  1  0  0  0  0
M  END
> <clash_score>
0

> <docking_score>
-5.897548198699951

> <overlap_score>
0.9247123003005981

$$$$
BENZO_248_1
  -OEChem-08232013543D

 55 59  0     1  0  0  0  0  0999 V2000
    4.2460    1.7520   20.8250 C   0  0  0  0  0  0  0  0  0  0  0  0
    3.8860    2.1050   19.5250 C   0  0  0  0  0  0  0  0  0  0  0  0
    5.3890    1.0010   21.0690 C   0  0  0  0  0  0  0  0  0  0  0  0
    9.5890   -2.4950   23.2210 C   0  0  0  0  0  0  0  0  0  0  0  0
    8.2550   -1.0010   24.5520 C   0  0  0  0  0  0  0  0  0  0  0  0
    4.6610    1.7170   18.4380 C   0  0  0  0  0  0  0  0  0  0  0  0
    9.1890   -3.5540   24.0140 C   0  0  0  0  0  0  0  0  0  0  0  0
    7.8700   -2.0610   25.3550 C   0  0  0  0  0  0  0  0  0  0  0  0
   11.1861    0.0281   25.4458 C   0  0  0  0  0  0  0  0  0  0  0  0
   12.1963    0.2939   26.3439 C   0  0  0  0  0  0  0  0  0  0  0  0
   11.4863    2.3111   25.1287 C   0  0  0  0  0  0  0  0  0  0  0  0
    6.1460    0.6070   19.9750 C   0  0  0  0  0  0  0  0  0  0  0  0
    9.1280   -1.2090   23.4870 C   0  0  0  0  0  0  0  0  0  0  0  0
   10.7749    1.1966   24.7417 C   0  0  0  0  0  0  0  0  0  0  0  0
    5.7970    0.9500   18.6730 C   0  0  0  0  0  0  0  0  0  0  0  0
    8.3450   -3.3440   25.0980 C   0  0  0  0  0  0  0  0  0  0  0  0
    7.2710   -0.1460   19.8310 C   0  0  0  0  0  0  0  0  0  0  0  0
    9.0430    0.2380   21.4940 C   0  0  0  0  0  0  0  0  0  0  0  0
    6.7636   -5.1648   25.5740 C   0  0  0  0  0  0  0  0  0  0  0  0
    8.3038   -4.3778   27.3502 C   0  0  0  0  0  0  0  0  0  0  0  0
    6.8057   -6.5368   26.2370 C   0  0  0  0  0  0  0  0  0  0  0  0
    8.2632   -5.7919   27.9188 C   0  0  0  0  0  0  0  0  0  0  0  0
    9.6852    1.2097   23.6944 C   0  0  0  0  0  0  0  0  0  0  0  0
    9.5820   -0.1080   22.7000 C   0  0  1  0  0  0  0  0  0  0  0  0
    7.5840   -0.2700   18.5160 N   0  0  0  0  0  0  0  0  0  0  0  0
    6.7100    0.3850   17.8100 N   0  0  0  0  0  0  0  0  0  0  0  0
    7.9748   -4.4087   25.9209 N   0  0  0  0  0  0  0  0  0  0  0  0
    8.0950   -0.7700   20.8440 N   0  0  0  0  0  0  0  0  0  0  0  0
    9.2950    1.3000   20.9480 O   0  0  0  0  0  0  0  0  0  0  0  0
    7.0041   -6.4052   27.6445 O   0  0  0  0  0  0  0  0  0  0  0  0
   12.6447    1.9465   26.3359 S   0  0  0  0  0  0  0  0  0  0  0  0
    3.6223    2.0725   21.6574 H   0  0  0  0  0  0  0  0  0  0  0  0
    2.9864    2.6933   19.3609 H   0  0  0  0  0  0  0  0  0  0  0  0
    5.6689    0.7392   22.0836 H   0  0  0  0  0  0  0  0  0  0  0  0
   10.2684   -2.6719   22.3867 H   0  0  0  0  0  0  0  0  0  0  0  0
    7.8717   -0.0016   24.7596 H   0  0  0  0  0  0  0  0  0  0  0  0
    4.3807    2.0116   17.4186 H   0  0  0  0  0  0  0  0  0  0  0  0
    9.5443   -4.5616   23.7817 H   0  0  0  0  0  0  0  0  0  0  0  0
    7.1922   -1.8821   26.1908 H   0  0  0  0  0  0  0  0  0  0  0  0
   10.7648   -0.9591   25.3042 H   0  0  0  0  0  0  0  0  0  0  0  0
   12.6919   -0.4031   27.0048 H   0  0  0  0  0  0  0  0  0  0  0  0
   11.3836    3.3236   24.7637 H   0  0  0  0  0  0  0  0  0  0  0  0
    6.6795   -5.2859   24.4876 H   0  0  0  0  0  0  0  0  0  0  0  0
    5.8835   -4.6130   25.9282 H   0  0  0  0  0  0  0  0  0  0  0  0
    7.5706   -3.7507   27.8738 H   0  0  0  0  0  0  0  0  0  0  0  0
    9.2992   -3.9474   27.5112 H   0  0  0  0  0  0  0  0  0  0  0  0
    5.8522   -7.0520   26.0823 H   0  0  0  0  0  0  0  0  0  0  0  0
    7.5937   -7.1675   25.8080 H   0  0  0  0  0  0  0  0  0  0  0  0
    9.0741   -6.4110   27.5161 H   0  0  0  0  0  0  0  0  0  0  0  0
    8.3861   -5.7563   29.0060 H   0  0  0  0  0  0  0  0  0  0  0  0
    8.7197    1.4079   24.1780 H   0  0  0  0  0  0  0  0  0  0  0  0
    9.8623    2.0699   23.0340 H   0  0  0  0  0  0  0  0  0  0  0  0
   10.7567   -0.2690   22.5478 H   0  0  0  0  0  0  0  0  0  0  0  0
    6.7486    0.4313   16.8331 H   0  0  0  0  0  0  0  0  0  0  0  0
    8.0917   -1.6083   21.0911 H   0  0  0  0  0  0  0  0  0  0  0  0
  1  2  1  0  0  0  0
  1  3  2  0  0  0  0
  2  6  2  0  0  0  0
  3 12  1  0  0  0  0
  4  7  2  0  0  0  0
  4 13  1  0  0  0  0
  5  8  1  0  0  0  0
  5 13  2  0  0  0  0
  6 15  1  0  0  0  0
  7 16  1  0  0  0  0
  8 16  2  0  0  0  0
  9 10  2  0  0  0  0
  9 14  1  0  0  0  0
 10 31  1  0  0  0  0
 11 14  2  0  0  0  0
 11 31  1  0  0  0  0
 12 15  2  0  0  0  0
 12 17  1  0  0  0  0
 13 24  1  0  0  0  0
 14 23  1  0  0  0  0
 15 26  1  0  0  0  0
 16 27  1  0  0  0  0
 17 25  2  0  0  0  0
 17 28  1  0  0  0  0
 18 24  1  1  0  0  0
 18 28  1  0  0  0  0
 18 29  2  0  0  0  0
 19 21  1  0  0  0  0
 19 27  1  0  0  0  0
 20 22  1  0  0  0  0
 20 27  1  0  0  0  0
 21 30  1  0  0  0  0
 22 30  1  0  0  0  0
 23 24  1  0  0  0  0
 25 26  1  0  0  0  0
  1 32  1  0  0  0  0
  2 33  1  0  0  0  0
  3 34  1  0  0  0  0
  4 35  1  0  0  0  0
  5 36  1  0  0  0  0
  6 37  1  0  0  0  0
  7 38  1  0  0  0  0
  8 39  1  0  0  0  0
  9 40  1  0  0  0  0
 10 41  1  0  0  0  0
 11 42  1  0  0  0  0
 19 43  1  0  0  0  0
 19 44  1  0  0  0  0
 20 45  1  0  0  0  0
 20 46  1  0  0  0  0
 21 47  1  0  0  0  0
 21 48  1  0  0  0  0
 22 49  1  0  0  0  0
 22 50  1  0  0  0  0
 23 51  1  0  0  0  0
 23 52  1  0  0  0  0
 24 53  1  0  0  0  0
 26 54  1  0  0  0  0
 28 55  1  0  0  0  0
M  END
> <clash_score>
2.24898384983848

> <docking_score>
-4.209649562835693

> <overlap_score>
0.8369736075401306

$$$$
BENZO_248_2
  -OEChem-08232013543D

 55 59  0     1  0  0  0  0  0999 V2000
    4.2460    1.7520   20.8250 C   0  0  0  0  0  0  0  0  0  0  0  0
    3.8860    2.1050   19.5250 C   0  0  0  0  0  0  0  0  0  0  0  0
    5.3890    1.0010   21.0690 C   0  0  0  0  0  0  0  0  0  0  0  0
    9.5890   -2.4950   23.2210 C   0  0  0  0  0  0  0  0  0  0  0  0
    8.2550   -1.0010   24.5520 C   0  0  0  0  0  0  0  0  0  0  0  0
    4.6610    1.7170   18.4380 C   0  0  0  0  0  0  0  0  0  0  0  0
    9.1890   -3.5540   24.0140 C   0  0  0  0  0  0  0  0  0  0  0  0
    7.8700   -2.0610   25.3550 C   0  0  0  0  0  0  0  0  0  0  0  0
   13.1712   -1.1115   24.0648 C   0  0  0  0  0  0  0  0  0  0  0  0
   13.5969   -1.1481   25.3744 C   0  0  0  0  0  0  0  0  0  0  0  0
   11.4683    0.0594   25.1285 C   0  0  0  0  0  0  0  0  0  0  0  0
    6.1460    0.6070   19.9750 C   0  0  0  0  0  0  0  0  0  0  0  0
    9.1280   -1.2090   23.4870 C   0  0  0  0  0  0  0  0  0  0  0  0
   11.9382   -0.4119   23.9222 C   0  0  0  0  0  0  0  0  0  0  0  0
    5.7970    0.9500   18.6730 C   0  0  0  0  0  0  0  0  0  0  0  0
    8.3450   -3.3440   25.0980 C   0  0  0  0  0  0  0  0  0  0  0  0
    7.2710   -0.1460   19.8310 C   0  0  0  0  0  0  0  0  0  0  0  0
    9.0430    0.2380   21.4940 C   0  0  0  0  0  0  0  0  0  0  0  0
    8.9526   -5.2008   26.6600 C   0  0  0  0  0  0  0  0  0  0  0  0
    6.6115   -4.5057   26.4392 C   0  0  0  0  0  0  0  0  0  0  0  0
    8.9053   -4.7827   28.1257 C   0  0  0  0  0  0  0  0  0  0  0  0
    6.6391   -4.1219   27.9194 C   0  0  0  0  0  0  0  0  0  0  0  0
   11.2301   -0.2124   22.6019 C   0  0  0  0  0  0  0  0  0  0  0  0
    9.5820   -0.1080   22.7000 C   0  0  2  0  0  0  0  0  0  0  0  0
    7.5840   -0.2700   18.5160 N   0  0  0  0  0  0  0  0  0  0  0  0
    6.7100    0.3850   17.8100 N   0  0  0  0  0  0  0  0  0  0  0  0
    7.9774   -4.4013   25.9152 N   0  0  0  0  0  0  0  0  0  0  0  0
    8.0950   -0.7700   20.8440 N   0  0  0  0  0  0  0  0  0  0  0  0
    9.2950    1.3000   20.9480 O   0  0  0  0  0  0  0  0  0  0  0  0
    7.5748   -4.9364   28.6347 O   0  0  0  0  0  0  0  0  0  0  0  0
   12.5120   -0.3414   26.4254 S   0  0  0  0  0  0  0  0  0  0  0  0
    3.6223    2.0725   21.6574 H   0  0  0  0  0  0  0  0  0  0  0  0
    2.9864    2.6933   19.3609 H   0  0  0  0  0  0  0  0  0  0  0  0
    5.6689    0.7392   22.0836 H   0  0  0  0  0  0  0  0  0  0  0  0
   10.2684   -2.6719   22.3867 H   0  0  0  0  0  0  0  0  0  0  0  0
    7.8717   -0.0016   24.7596 H   0  0  0  0  0  0  0  0  0  0  0  0
    4.3807    2.0116   17.4186 H   0  0  0  0  0  0  0  0  0  0  0  0
    9.5443   -4.5616   23.7817 H   0  0  0  0  0  0  0  0  0  0  0  0
    7.1921   -1.8821   26.1908 H   0  0  0  0  0  0  0  0  0  0  0  0
   13.7212   -1.5668   23.2509 H   0  0  0  0  0  0  0  0  0  0  0  0
   14.4926   -1.6105   25.7644 H   0  0  0  0  0  0  0  0  0  0  0  0
   10.5622    0.6192   25.3146 H   0  0  0  0  0  0  0  0  0  0  0  0
    9.9614   -5.0503   26.2701 H   0  0  0  0  0  0  0  0  0  0  0  0
    8.6932   -6.2593   26.5731 H   0  0  0  0  0  0  0  0  0  0  0  0
    6.2625   -5.5339   26.3355 H   0  0  0  0  0  0  0  0  0  0  0  0
    5.9348   -3.8414   25.9036 H   0  0  0  0  0  0  0  0  0  0  0  0
    9.5615   -5.4255   28.7162 H   0  0  0  0  0  0  0  0  0  0  0  0
    9.2365   -3.7494   28.2620 H   0  0  0  0  0  0  0  0  0  0  0  0
    6.8895   -3.0633   28.0551 H   0  0  0  0  0  0  0  0  0  0  0  0
    5.6514   -4.2861   28.3610 H   0  0  0  0  0  0  0  0  0  0  0  0
   11.5792    0.7206   22.1405 H   0  0  0  0  0  0  0  0  0  0  0  0
   11.5533   -1.0125   21.9215 H   0  0  0  0  0  0  0  0  0  0  0  0
    9.5402    0.8508   23.4127 H   0  0  0  0  0  0  0  0  0  0  0  0
    6.7486    0.4313   16.8331 H   0  0  0  0  0  0  0  0  0  0  0  0
    8.0917   -1.6083   21.0911 H   0  0  0  0  0  0  0  0  0  0  0  0
  1  2  1  0  0  0  0
  1  3  2  0  0  0  0
  2  6  2  0  0  0  0
  3 12  1  0  0  0  0
  4  7  2  0  0  0  0
  4 13  1  0  0  0  0
  5  8  1  0  0  0  0
  5 13  2  0  0  0  0
  6 15  1  0  0  0  0
  7 16  1  0  0  0  0
  8 16  2  0  0  0  0
  9 10  2  0  0  0  0
  9 14  1  0  0  0  0
 10 31  1  0  0  0  0
 11 14  2  0  0  0  0
 11 31  1  0  0  0  0
 12 15  2  0  0  0  0
 12 17  1  0  0  0  0
 13 24  1  0  0  0  0
 14 23  1  0  0  0  0
 15 26  1  0  0  0  0
 16 27  1  0  0  0  0
 17 25  2  0  0  0  0
 17 28  1  0  0  0  0
 18 24  1  6  0  0  0
 18 28  1  0  0  0  0
 18 29  2  0  0  0  0
 19 21  1  0  0  0  0
 19 27  1  0  0  0  0
 20 22  1  0  0  0  0
 20 27  1  0  0  0  0
 21 30  1  0  0  0  0
 22 30  1  0  0  0  0
 23 24  1  0  0  0  0
 25 26  1  0  0  0  0
  1 32  1  0  0  0  0
  2 33  1  0  0  0  0
  3 34  1  0  0  0  0
  4 35  1  0  0  0  0
  5 36  1  0  0  0  0
  6 37  1  0  0  0  0
  7 38  1  0  0  0  0
  8 39  1  0  0  0  0
  9 40  1  0  0  0  0
 10 41  1  0  0  0  0
 11 42  1  0  0  0  0
 19 43  1  0  0  0  0
 19 44  1  0  0  0  0
 20 45  1  0  0  0  0
 20 46  1  0  0  0  0
 21 47  1  0  0  0  0
 21 48  1  0  0  0  0
 22 49  1  0  0  0  0
 22 50  1  0  0  0  0
 23 51  1  0  0  0  0
 23 52  1  0  0  0  0
 24 53  1  0  0  0  0
 26 54  1  0  0  0  0
 28 55  1  0  0  0  0
M  END
> <clash_score>
0

> <docking_score>
-6.412125587463379

> <overlap_score>
0.9211782217025757

$$$$
BENZO_252_1
  -OEChem-08232013543D

 49 52  0     1  0  0  0  0  0999 V2000
    9.5890   -2.4950   23.2210 C   0  0  0  0  0  0  0  0  0  0  0  0
    8.2550   -1.0010   24.5520 C   0  0  0  0  0  0  0  0  0  0  0  0
    9.1890   -3.5540   24.0140 C   0  0  0  0  0  0  0  0  0  0  0  0
    7.8700   -2.0610   25.3550 C   0  0  0  0  0  0  0  0  0  0  0  0
   13.2019   -0.5524   24.2528 C   0  0  0  0  0  0  0  0  0  0  0  0
   13.6437   -0.1439   25.4920 C   0  0  0  0  0  0  0  0  0  0  0  0
   11.4901    0.8830   24.8943 C   0  0  0  0  0  0  0  0  0  0  0  0
    9.1280   -1.2090   23.4870 C   0  0  0  0  0  0  0  0  0  0  0  0
   11.9545    0.0425   23.9064 C   0  0  0  0  0  0  0  0  0  0  0  0
    8.3450   -3.3440   25.0980 C   0  0  0  0  0  0  0  0  0  0  0  0
    6.1460    0.6070   19.9750 C   0  0  0  0  0  0  0  0  0  0  0  0
    7.2710   -0.1460   19.8310 C   0  0  0  0  0  0  0  0  0  0  0  0
    5.3890    1.0010   21.0690 C   0  0  0  0  0  0  0  0  0  0  0  0
    4.2460    1.7520   20.8250 C   0  0  0  0  0  0  0  0  0  0  0  0
    3.8860    2.1050   19.5250 C   0  0  0  0  0  0  0  0  0  0  0  0
    4.6610    1.7170   18.4380 C   0  0  0  0  0  0  0  0  0  0  0  0
    9.0430    0.2380   21.4940 C   0  0  0  0  0  0  0  0  0  0  0  0
    8.7676   -4.7591   27.0899 C   0  0  0  0  0  0  0  0  0  0  0  0
    6.7779   -5.1872   25.6386 C   0  0  0  0  0  0  0  0  0  0  0  0
   11.2273   -0.2199   22.6076 C   0  0  0  0  0  0  0  0  0  0  0  0
    9.5820   -0.1080   22.7000 C   0  0  1  0  0  0  0  0  0  0  0  0
    7.5840   -0.2700   18.5160 N   0  0  0  0  0  0  0  0  0  0  0  0
    6.7100    0.3850   17.8100 N   0  0  0  0  0  0  0  0  0  0  0  0
    5.7970    0.9500   18.6730 N   0  0  0  0  0  0  0  0  0  0  0  0
    8.0950   -0.7700   20.8440 N   0  0  0  0  0  0  0  0  0  0  0  0
    7.9717   -4.4175   25.9277 N   0  0  0  0  0  0  0  0  0  0  0  0
    9.2950    1.3000   20.9480 O   0  0  0  0  0  0  0  0  0  0  0  0
   12.5564    0.9525   26.2323 S   0  0  0  0  0  0  0  0  0  0  0  0
   10.2684   -2.6719   22.3867 H   0  0  0  0  0  0  0  0  0  0  0  0
    7.8717   -0.0016   24.7596 H   0  0  0  0  0  0  0  0  0  0  0  0
    9.5443   -4.5616   23.7817 H   0  0  0  0  0  0  0  0  0  0  0  0
    7.1921   -1.8821   26.1908 H   0  0  0  0  0  0  0  0  0  0  0  0
   13.7507   -1.2457   23.6279 H   0  0  0  0  0  0  0  0  0  0  0  0
   14.5524   -0.4373   25.9983 H   0  0  0  0  0  0  0  0  0  0  0  0
   10.5759    1.4603   24.8987 H   0  0  0  0  0  0  0  0  0  0  0  0
    5.6529    0.7487   22.0767 H   0  0  0  0  0  0  0  0  0  0  0  0
    3.6388    2.0586   21.6675 H   0  0  0  0  0  0  0  0  0  0  0  0
    2.9822    2.6968   19.3330 H   0  0  0  0  0  0  0  0  0  0  0  0
    4.4111    1.9893   17.4360 H   0  0  0  0  0  0  0  0  0  0  0  0
    8.3153   -5.6195   27.6048 H   0  0  0  0  0  0  0  0  0  0  0  0
    9.7885   -5.0174   26.7720 H   0  0  0  0  0  0  0  0  0  0  0  0
    8.8035   -3.8993   27.7752 H   0  0  0  0  0  0  0  0  0  0  0  0
    6.6575   -5.9762   26.3956 H   0  0  0  0  0  0  0  0  0  0  0  0
    5.9006   -4.5239   25.6577 H   0  0  0  0  0  0  0  0  0  0  0  0
    6.8695   -5.6455   24.6428 H   0  0  0  0  0  0  0  0  0  0  0  0
   11.5534    0.5103   21.8555 H   0  0  0  0  0  0  0  0  0  0  0  0
   11.5573   -1.1968   22.2276 H   0  0  0  0  0  0  0  0  0  0  0  0
    9.5374    0.8439   23.4178 H   0  0  0  0  0  0  0  0  0  0  0  0
    8.0713   -1.6185   21.0737 H   0  0  0  0  0  0  0  0  0  0  0  0
  1  3  2  0  0  0  0
  1  8  1  0  0  0  0
  2  4  1  0  0  0  0
  2  8  2  0  0  0  0
  3 10  1  0  0  0  0
  4 10  2  0  0  0  0
  5  6  2  0  0  0  0
  5  9  1  0  0  0  0
  6 28  1  0  0  0  0
  7  9  2  0  0  0  0
  7 28  1  0  0  0  0
  8 21  1  0  0  0  0
  9 20  1  0  0  0  0
 10 26  1  0  0  0  0
 11 12  2  0  0  0  0
 11 13  1  0  0  0  0
 11 24  1  0  0  0  0
 12 22  1  0  0  0  0
 12 25  1  0  0  0  0
 13 14  2  0  0  0  0
 14 15  1  0  0  0  0
 15 16  2  0  0  0  0
 16 24  1  0  0  0  0
 17 21  1  0  0  0  0
 17 25  1  0  0  0  0
 17 27  2  0  0  0  0
 18 26  1  0  0  0  0
 19 26  1  0  0  0  0
 20 21  1  1  0  0  0
 22 23  2  0  0  0  0
 23 24  1  0  0  0  0
  1 29  1  0  0  0  0
  2 30  1  0  0  0  0
  3 31  1  0  0  0  0
  4 32  1  0  0  0  0
  5 33  1  0  0  0  0
  6 34  1  0  0  0  0
  7 35  1  0  0  0  0
 13 36  1  0  0  0  0
 14 37  1  0  0  0  0
 15 38  1  0  0  0  0
 16 39  1  0  0  0  0
 18 40  1  0  0  0  0
 18 41  1  0  0  0  0
 18 42  1  0  0  0  0
 19 43  1  0  0  0  0
 19 44  1  0  0  0  0
 19 45  1  0  0  0  0
 20 46  1  0  0  0  0
 20 47  1  0  0  0  0
 21 48  1  0  0  0  0
 25 49  1  0  0  0  0
M  END
> <clash_score>
0.7028813472502705

> <docking_score>
-6.411286354064941

> <overlap_score>
0.866506040096283

$$$$
BENZO_253_1
  -OEChem-08232013543D

 52 55  0     1  0  0  0  0  0999 V2000
   13.2081   -0.8233   26.3776 C   0  0  0  0  0  0  0  0  0  0  0  0
   13.7678   -1.3337   25.2064 C   0  0  0  0  0  0  0  0  0  0  0  0
   12.0060   -0.1174   26.3261 C   0  0  0  0  0  0  0  0  0  0  0  0
   13.1256   -1.1382   23.9837 C   0  0  0  0  0  0  0  0  0  0  0  0
   11.3638    0.0781   25.1034 C   0  0  0  0  0  0  0  0  0  0  0  0
    9.5890   -2.4950   23.2210 C   0  0  0  0  0  0  0  0  0  0  0  0
    8.2550   -1.0010   24.5520 C   0  0  0  0  0  0  0  0  0  0  0  0
    9.1890   -3.5540   24.0140 C   0  0  0  0  0  0  0  0  0  0  0  0
    7.8700   -2.0610   25.3550 C   0  0  0  0  0  0  0  0  0  0  0  0
   11.9236   -0.4323   23.9322 C   0  0  0  0  0  0  0  0  0  0  0  0
    9.1280   -1.2090   23.4870 C   0  0  0  0  0  0  0  0  0  0  0  0
    8.3450   -3.3440   25.0980 C   0  0  0  0  0  0  0  0  0  0  0  0
    6.1460    0.6070   19.9750 C   0  0  0  0  0  0  0  0  0  0  0  0
    7.2710   -0.1460   19.8310 C   0  0  0  0  0  0  0  0  0  0  0  0
    5.3890    1.0010   21.0690 C   0  0  0  0  0  0  0  0  0  0  0  0
    4.2460    1.7520   20.8250 C   0  0  0  0  0  0  0  0  0  0  0  0
    3.8860    2.1050   19.5250 C   0  0  0  0  0  0  0  0  0  0  0  0
    4.6610    1.7170   18.4380 C   0  0  0  0  0  0  0  0  0  0  0  0
    9.0430    0.2380   21.4940 C   0  0  0  0  0  0  0  0  0  0  0  0
    7.2615   -5.5564   25.3807 C   0  0  0  0  0  0  0  0  0  0  0  0
    8.3055   -4.4046   27.3383 C   0  0  0  0  0  0  0  0  0  0  0  0
   11.2273   -0.2199   22.6076 C   0  0  0  0  0  0  0  0  0  0  0  0
    9.5820   -0.1080   22.7000 C   0  0  1  0  0  0  0  0  0  0  0  0
    7.5840   -0.2700   18.5160 N   0  0  0  0  0  0  0  0  0  0  0  0
    6.7100    0.3850   17.8100 N   0  0  0  0  0  0  0  0  0  0  0  0
    5.7970    0.9500   18.6730 N   0  0  0  0  0  0  0  0  0  0  0  0
    8.0950   -0.7700   20.8440 N   0  0  0  0  0  0  0  0  0  0  0  0
    7.9717   -4.4175   25.9277 N   0  0  0  0  0  0  0  0  0  0  0  0
    9.2950    1.3000   20.9480 O   0  0  0  0  0  0  0  0  0  0  0  0
   13.7076   -0.9767   27.3297 H   0  0  0  0  0  0  0  0  0  0  0  0
   14.7032   -1.8843   25.2464 H   0  0  0  0  0  0  0  0  0  0  0  0
   11.5694    0.2792   27.2379 H   0  0  0  0  0  0  0  0  0  0  0  0
   13.5692   -1.5394   23.0762 H   0  0  0  0  0  0  0  0  0  0  0  0
   10.4277    0.6294   25.0729 H   0  0  0  0  0  0  0  0  0  0  0  0
   10.2684   -2.6719   22.3867 H   0  0  0  0  0  0  0  0  0  0  0  0
    7.8717   -0.0016   24.7596 H   0  0  0  0  0  0  0  0  0  0  0  0
    9.5443   -4.5616   23.7817 H   0  0  0  0  0  0  0  0  0  0  0  0
    7.1921   -1.8821   26.1908 H   0  0  0  0  0  0  0  0  0  0  0  0
    5.6529    0.7487   22.0767 H   0  0  0  0  0  0  0  0  0  0  0  0
    3.6388    2.0586   21.6675 H   0  0  0  0  0  0  0  0  0  0  0  0
    2.9822    2.6968   19.3330 H   0  0  0  0  0  0  0  0  0  0  0  0
    4.4111    1.9893   17.4360 H   0  0  0  0  0  0  0  0  0  0  0  0
    7.0614   -6.2836   26.1815 H   0  0  0  0  0  0  0  0  0  0  0  0
    6.3092   -5.2198   24.9451 H   0  0  0  0  0  0  0  0  0  0  0  0
    7.8746   -6.0304   24.6001 H   0  0  0  0  0  0  0  0  0  0  0  0
    7.9313   -5.3239   27.8125 H   0  0  0  0  0  0  0  0  0  0  0  0
    9.3978   -4.3499   27.4560 H   0  0  0  0  0  0  0  0  0  0  0  0
    7.8408   -3.5300   27.8169 H   0  0  0  0  0  0  0  0  0  0  0  0
   11.5842    0.7150   22.1561 H   0  0  0  0  0  0  0  0  0  0  0  0
   11.5525   -1.0164   21.9239 H   0  0  0  0  0  0  0  0  0  0  0  0
    9.5374    0.8439   23.4178 H   0  0  0  0  0  0  0  0  0  0  0  0
    8.0713   -1.6185   21.0737 H   0  0  0  0  0  0  0  0  0  0  0  0
  1  2  1  0  0  0  0
  1  3  2  0  0  0  0
  2  4  2  0  0  0  0
  3  5  1  0  0  0  0
  4 10  1  0  0  0  0
  5 10  2  0  0  0  0
  6  8  2  0  0  0  0
  6 11  1  0  0  0  0
  7  9  1  0  0  0  0
  7 11  2  0  0  0  0
  8 12  1  0  0  0  0
  9 12  2  0  0  0  0
 10 22  1  0  0  0  0
 11 23  1  0  0  0  0
 12 28  1  0  0  0  0
 13 14  2  0  0  0  0
 13 15  1  0  0  0  0
 13 26  1  0  0  0  0
 14 24  1  0  0  0  0
 14 27  1  0  0  0  0
 15 16  2  0  0  0  0
 16 17  1  0  0  0  0
 17 18  2  0  0  0  0
 18 26  1  0  0  0  0
 19 23  1  0  0  0  0
 19 27  1  0  0  0  0
 19 29  2  0  0  0  0
 20 28  1  0  0  0  0
 21 28  1  0  0  0  0
 22 23  1  1  0  0  0
 24 25  2  0  0  0  0
 25 26  1  0  0  0  0
  1 30  1  0  0  0  0
  2 31  1  0  0  0  0
  3 32  1  0  0  0  0
  4 33  1  0  0  0  0
  5 34  1  0  0  0  0
  6 35  1  0  0  0  0
  7 36  1  0  0  0  0
  8 37  1  0  0  0  0
  9 38  1  0  0  0  0
 15 39  1  0  0  0  0
 16 40  1  0  0  0  0
 17 41  1  0  0  0  0
 18 42  1  0  0  0  0
 20 43  1  0  0  0  0
 20 44  1  0  0  0  0
 20 45  1  0  0  0  0
 21 46  1  0  0  0  0
 21 47  1  0  0  0  0
 21 48  1  0  0  0  0
 22 49  1  0  0  0  0
 22 50  1  0  0  0  0
 23 51  1  0  0  0  0
 27 52  1  0  0  0  0
M  END
> <clash_score>
0

> <docking_score>
-5.759110450744629

> <overlap_score>
0.8757724761962891

$$$$
BENZO_251_2
  -OEChem-08232013543D

 58 62  0     1  0  0  0  0  0999 V2000
    4.2460    1.7520   20.8250 C   0  0  0  0  0  0  0  0  0  0  0  0
    3.8860    2.1050   19.5250 C   0  0  0  0  0  0  0  0  0  0  0  0
    5.3890    1.0010   21.0690 C   0  0  0  0  0  0  0  0  0  0  0  0
    9.5890   -2.4950   23.2210 C   0  0  0  0  0  0  0  0  0  0  0  0
    8.2550   -1.0010   24.5520 C   0  0  0  0  0  0  0  0  0  0  0  0
    4.6610    1.7170   18.4380 C   0  0  0  0  0  0  0  0  0  0  0  0
    9.1890   -3.5540   24.0140 C   0  0  0  0  0  0  0  0  0  0  0  0
    7.8700   -2.0610   25.3550 C   0  0  0  0  0  0  0  0  0  0  0  0
   11.9810    2.0341   22.7316 C   0  0  0  0  0  0  0  0  0  0  0  0
   10.6982    3.5917   23.6053 C   0  0  0  0  0  0  0  0  0  0  0  0
    6.1460    0.6070   19.9750 C   0  0  0  0  0  0  0  0  0  0  0  0
    9.1280   -1.2090   23.4870 C   0  0  0  0  0  0  0  0  0  0  0  0
   10.7392    2.2406   23.3619 C   0  0  0  0  0  0  0  0  0  0  0  0
    5.7970    0.9500   18.6730 C   0  0  0  0  0  0  0  0  0  0  0  0
    8.3450   -3.3440   25.0980 C   0  0  0  0  0  0  0  0  0  0  0  0
    7.2710   -0.1460   19.8310 C   0  0  0  0  0  0  0  0  0  0  0  0
    9.0430    0.2380   21.4940 C   0  0  0  0  0  0  0  0  0  0  0  0
    8.3252   -4.3381   27.3461 C   0  0  0  0  0  0  0  0  0  0  0  0
    7.8819   -5.7639   25.3670 C   0  0  0  0  0  0  0  0  0  0  0  0
    7.4311   -5.2808   28.1434 C   0  0  0  0  0  0  0  0  0  0  0  0
    7.0119   -6.6310   26.2702 C   0  0  0  0  0  0  0  0  0  0  0  0
   12.2887    5.4744   23.1530 C   0  0  0  0  0  0  0  0  0  0  0  0
    9.6852    1.2097   23.6944 C   0  0  0  0  0  0  0  0  0  0  0  0
    9.5820   -0.1080   22.7000 C   0  0  2  0  0  0  0  0  0  0  0  0
   12.6784    3.1636   22.5838 N   0  0  0  0  0  0  0  0  0  0  0  0
    7.5840   -0.2700   18.5160 N   0  0  0  0  0  0  0  0  0  0  0  0
    6.7100    0.3850   17.8100 N   0  0  0  0  0  0  0  0  0  0  0  0
   11.8720    4.0929   23.1245 N   0  0  0  0  0  0  0  0  0  0  0  0
    7.9748   -4.4087   25.9209 N   0  0  0  0  0  0  0  0  0  0  0  0
    8.0950   -0.7700   20.8440 N   0  0  0  0  0  0  0  0  0  0  0  0
    9.2950    1.3000   20.9480 O   0  0  0  0  0  0  0  0  0  0  0  0
    7.5000   -6.6034   27.6110 O   0  0  0  0  0  0  0  0  0  0  0  0
    3.6223    2.0725   21.6574 H   0  0  0  0  0  0  0  0  0  0  0  0
    2.9864    2.6933   19.3609 H   0  0  0  0  0  0  0  0  0  0  0  0
    5.6689    0.7392   22.0836 H   0  0  0  0  0  0  0  0  0  0  0  0
   10.2684   -2.6719   22.3867 H   0  0  0  0  0  0  0  0  0  0  0  0
    7.8717   -0.0016   24.7596 H   0  0  0  0  0  0  0  0  0  0  0  0
    4.3807    2.0116   17.4186 H   0  0  0  0  0  0  0  0  0  0  0  0
    9.5443   -4.5616   23.7817 H   0  0  0  0  0  0  0  0  0  0  0  0
    7.1922   -1.8821   26.1908 H   0  0  0  0  0  0  0  0  0  0  0  0
   12.4086    1.1088   22.3723 H   0  0  0  0  0  0  0  0  0  0  0  0
    9.9517    4.2237   24.0670 H   0  0  0  0  0  0  0  0  0  0  0  0
    8.2083   -3.3157   27.7244 H   0  0  0  0  0  0  0  0  0  0  0  0
    9.3746   -4.6338   27.4718 H   0  0  0  0  0  0  0  0  0  0  0  0
    8.8893   -6.1956   25.3037 H   0  0  0  0  0  0  0  0  0  0  0  0
    7.4544   -5.7434   24.3576 H   0  0  0  0  0  0  0  0  0  0  0  0
    7.7715   -5.3226   29.1831 H   0  0  0  0  0  0  0  0  0  0  0  0
    6.3897   -4.9373   28.1518 H   0  0  0  0  0  0  0  0  0  0  0  0
    5.9637   -6.3086   26.2493 H   0  0  0  0  0  0  0  0  0  0  0  0
    7.0429   -7.6698   25.9261 H   0  0  0  0  0  0  0  0  0  0  0  0
   12.8313    5.6438   24.0868 H   0  0  0  0  0  0  0  0  0  0  0  0
   12.9336    5.6781   22.2937 H   0  0  0  0  0  0  0  0  0  0  0  0
   11.4069    6.1190   23.0997 H   0  0  0  0  0  0  0  0  0  0  0  0
    9.7996    0.8986   24.7410 H   0  0  0  0  0  0  0  0  0  0  0  0
    8.7039    1.7016   23.6423 H   0  0  0  0  0  0  0  0  0  0  0  0
   10.7567   -0.2690   22.5478 H   0  0  0  0  0  0  0  0  0  0  0  0
    6.7486    0.4313   16.8331 H   0  0  0  0  0  0  0  0  0  0  0  0
    8.0917   -1.6083   21.0911 H   0  0  0  0  0  0  0  0  0  0  0  0
  1  2  1  0  0  0  0
  1  3  2  0  0  0  0
  2  6  2  0  0  0  0
  3 11  1  0  0  0  0
  4  7  2  0  0  0  0
  4 12  1  0  0  0  0
  5  8  1  0  0  0  0
  5 12  2  0  0  0  0
  6 14  1  0  0  0  0
  7 15  1  0  0  0  0
  8 15  2  0  0  0  0
  9 13  1  0  0  0  0
  9 25  2  0  0  0  0
 10 13  2  0  0  0  0
 10 28  1  0  0  0  0
 11 14  2  0  0  0  0
 11 16  1  0  0  0  0
 12 24  1  0  0  0  0
 13 23  1  0  0  0  0
 14 27  1  0  0  0  0
 15 29  1  0  0  0  0
 16 26  2  0  0  0  0
 16 30  1  0  0  0  0
 17 24  1  0  0  0  0
 17 30  1  0  0  0  0
 17 31  2  0  0  0  0
 18 20  1  0  0  0  0
 18 29  1  0  0  0  0
 19 21  1  0  0  0  0
 19 29  1  0  0  0  0
 20 32  1  0  0  0  0
 21 32  1  0  0  0  0
 22 28  1  0  0  0  0
 23 24  1  6  0  0  0
 25 28  1  0  0  0  0
 26 27  1  0  0  0  0
  1 33  1  0  0  0  0
  2 34  1  0  0  0  0
  3 35  1  0  0  0  0
  4 36  1  0  0  0  0
  5 37  1  0  0  0  0
  6 38  1  0  0  0  0
  7 39  1  0  0  0  0
  8 40  1  0  0  0  0
  9 41  1  0  0  0  0
 10 42  1  0  0  0  0
 18 43  1  0  0  0  0
 18 44  1  0  0  0  0
 19 45  1  0  0  0  0
 19 46  1  0  0  0  0
 20 47  1  0  0  0  0
 20 48  1  0  0  0  0
 21 49  1  0  0  0  0
 21 50  1  0  0  0  0
 22 51  1  0  0  0  0
 22 52  1  0  0  0  0
 22 53  1  0  0  0  0
 23 54  1  0  0  0  0
 23 55  1  0  0  0  0
 24 56  1  0  0  0  0
 27 57  1  0  0  0  0
 30 58  1  0  0  0  0
M  END
> <clash_score>
0

> <docking_score>
-6.8063459396362305

> <overlap_score>
0.8332194685935974

$$$$
BENZO_250_1
  -OEChem-08232013543D

 58 62  0     1  0  0  0  0  0999 V2000
    4.2460    1.7520   20.8250 C   0  0  0  0  0  0  0  0  0  0  0  0
    3.8860    2.1050   19.5250 C   0  0  0  0  0  0  0  0  0  0  0  0
   12.6445    0.0926   25.8011 C   0  0  0  0  0  0  0  0  0  0  0  0
    5.3890    1.0010   21.0690 C   0  0  0  0  0  0  0  0  0  0  0  0
   11.6380    0.1048   24.8355 C   0  0  0  0  0  0  0  0  0  0  0  0
    9.5890   -2.4950   23.2210 C   0  0  0  0  0  0  0  0  0  0  0  0
    8.2550   -1.0010   24.5520 C   0  0  0  0  0  0  0  0  0  0  0  0
    4.6610    1.7170   18.4380 C   0  0  0  0  0  0  0  0  0  0  0  0
    9.1890   -3.5540   24.0140 C   0  0  0  0  0  0  0  0  0  0  0  0
    7.8700   -2.0610   25.3550 C   0  0  0  0  0  0  0  0  0  0  0  0
   12.7880    1.1720   26.6728 C   0  0  0  0  0  0  0  0  0  0  0  0
   10.9183    2.2761   25.6134 C   0  0  0  0  0  0  0  0  0  0  0  0
    6.1460    0.6070   19.9750 C   0  0  0  0  0  0  0  0  0  0  0  0
    9.1280   -1.2090   23.4870 C   0  0  0  0  0  0  0  0  0  0  0  0
   10.7749    1.1966   24.7417 C   0  0  0  0  0  0  0  0  0  0  0  0
    5.7970    0.9500   18.6730 C   0  0  0  0  0  0  0  0  0  0  0  0
    8.3450   -3.3440   25.0980 C   0  0  0  0  0  0  0  0  0  0  0  0
   11.9249    2.2638   26.5790 C   0  0  0  0  0  0  0  0  0  0  0  0
    7.2710   -0.1460   19.8310 C   0  0  0  0  0  0  0  0  0  0  0  0
    9.0430    0.2380   21.4940 C   0  0  0  0  0  0  0  0  0  0  0  0
    8.9526   -5.2008   26.6600 C   0  0  0  0  0  0  0  0  0  0  0  0
    6.6115   -4.5057   26.4392 C   0  0  0  0  0  0  0  0  0  0  0  0
    8.9053   -4.7827   28.1257 C   0  0  0  0  0  0  0  0  0  0  0  0
    6.6391   -4.1219   27.9194 C   0  0  0  0  0  0  0  0  0  0  0  0
    9.6852    1.2097   23.6944 C   0  0  0  0  0  0  0  0  0  0  0  0
    9.5820   -0.1080   22.7000 C   0  0  1  0  0  0  0  0  0  0  0  0
    7.5840   -0.2700   18.5160 N   0  0  0  0  0  0  0  0  0  0  0  0
    6.7100    0.3850   17.8100 N   0  0  0  0  0  0  0  0  0  0  0  0
    7.9774   -4.4013   25.9152 N   0  0  0  0  0  0  0  0  0  0  0  0
    8.0950   -0.7700   20.8440 N   0  0  0  0  0  0  0  0  0  0  0  0
    9.2950    1.3000   20.9480 O   0  0  0  0  0  0  0  0  0  0  0  0
    7.5748   -4.9364   28.6347 O   0  0  0  0  0  0  0  0  0  0  0  0
   12.1030    3.5958   27.6540 Cl  0  0  0  0  0  0  0  0  0  0  0  0
    3.6223    2.0725   21.6574 H   0  0  0  0  0  0  0  0  0  0  0  0
    2.9864    2.6933   19.3609 H   0  0  0  0  0  0  0  0  0  0  0  0
   13.3165   -0.7577   25.8737 H   0  0  0  0  0  0  0  0  0  0  0  0
    5.6689    0.7392   22.0836 H   0  0  0  0  0  0  0  0  0  0  0  0
   11.5336   -0.7405   24.1604 H   0  0  0  0  0  0  0  0  0  0  0  0
   10.2684   -2.6719   22.3867 H   0  0  0  0  0  0  0  0  0  0  0  0
    7.8717   -0.0016   24.7596 H   0  0  0  0  0  0  0  0  0  0  0  0
    4.3807    2.0116   17.4186 H   0  0  0  0  0  0  0  0  0  0  0  0
    9.5443   -4.5616   23.7817 H   0  0  0  0  0  0  0  0  0  0  0  0
    7.1921   -1.8821   26.1908 H   0  0  0  0  0  0  0  0  0  0  0  0
   13.5772    1.1489   27.4203 H   0  0  0  0  0  0  0  0  0  0  0  0
   10.2425    3.1247   25.5365 H   0  0  0  0  0  0  0  0  0  0  0  0
    9.9614   -5.0503   26.2701 H   0  0  0  0  0  0  0  0  0  0  0  0
    8.6932   -6.2593   26.5731 H   0  0  0  0  0  0  0  0  0  0  0  0
    6.2625   -5.5339   26.3355 H   0  0  0  0  0  0  0  0  0  0  0  0
    5.9348   -3.8414   25.9036 H   0  0  0  0  0  0  0  0  0  0  0  0
    9.5615   -5.4255   28.7162 H   0  0  0  0  0  0  0  0  0  0  0  0
    9.2365   -3.7494   28.2620 H   0  0  0  0  0  0  0  0  0  0  0  0
    6.8895   -3.0633   28.0551 H   0  0  0  0  0  0  0  0  0  0  0  0
    5.6514   -4.2861   28.3610 H   0  0  0  0  0  0  0  0  0  0  0  0
    8.7197    1.4079   24.1780 H   0  0  0  0  0  0  0  0  0  0  0  0
    9.8623    2.0699   23.0340 H   0  0  0  0  0  0  0  0  0  0  0  0
   10.7567   -0.2690   22.5478 H   0  0  0  0  0  0  0  0  0  0  0  0
    6.7486    0.4313   16.8331 H   0  0  0  0  0  0  0  0  0  0  0  0
    8.0917   -1.6083   21.0911 H   0  0  0  0  0  0  0  0  0  0  0  0
  1  2  1  0  0  0  0
  1  4  2  0  0  0  0
  2  8  2  0  0  0  0
  3  5  2  0  0  0  0
  3 11  1  0  0  0  0
  4 13  1  0  0  0  0
  5 15  1  0  0  0  0
  6  9  2  0  0  0  0
  6 14  1  0  0  0  0
  7 10  1  0  0  0  0
  7 14  2  0  0  0  0
  8 16  1  0  0  0  0
  9 17  1  0  0  0  0
 10 17  2  0  0  0  0
 11 18  2  0  0  0  0
 12 15  2  0  0  0  0
 12 18  1  0  0  0  0
 13 16  2  0  0  0  0
 13 19  1  0  0  0  0
 14 26  1  0  0  0  0
 15 25  1  0  0  0  0
 16 28  1  0  0  0  0
 17 29  1  0  0  0  0
 18 33  1  0  0  0  0
 19 27  2  0  0  0  0
 19 30  1  0  0  0  0
 20 26  1  1  0  0  0
 20 30  1  0  0  0  0
 20 31  2  0  0  0  0
 21 23  1  0  0  0  0
 21 29  1  0  0  0  0
 22 24  1  0  0  0  0
 22 29  1  0  0  0  0
 23 32  1  0  0  0  0
 24 32  1  0  0  0  0
 25 26  1  0  0  0  0
 27 28  1  0  0  0  0
  1 34  1  0  0  0  0
  2 35  1  0  0  0  0
  3 36  1  0  0  0  0
  4 37  1  0  0  0  0
  5 38  1  0  0  0  0
  6 39  1  0  0  0  0
  7 40  1  0  0  0  0
  8 41  1  0  0  0  0
  9 42  1  0  0  0  0
 10 43  1  0  0  0  0
 11 44  1  0  0  0  0
 12 45  1  0  0  0  0
 21 46  1  0  0  0  0
 21 47  1  0  0  0  0
 22 48  1  0  0  0  0
 22 49  1  0  0  0  0
 23 50  1  0  0  0  0
 23 51  1  0  0  0  0
 24 52  1  0  0  0  0
 24 53  1  0  0  0  0
 25 54  1  0  0  0  0
 25 55  1  0  0  0  0
 26 56  1  0  0  0  0
 28 57  1  0  0  0  0
 30 58  1  0  0  0  0
M  END
> <clash_score>
5.493964177703434

> <docking_score>
-3.589054584503174

> <overlap_score>
0.8461745977401733

$$$$
BENZO_250_2
  -OEChem-08232013543D

 58 62  0     1  0  0  0  0  0999 V2000
    4.2460    1.7520   20.8250 C   0  0  0  0  0  0  0  0  0  0  0  0
    3.8860    2.1050   19.5250 C   0  0  0  0  0  0  0  0  0  0  0  0
   13.7993   -1.2937   25.1853 C   0  0  0  0  0  0  0  0  0  0  0  0
    5.3890    1.0010   21.0690 C   0  0  0  0  0  0  0  0  0  0  0  0
   13.1448   -1.1102   23.9673 C   0  0  0  0  0  0  0  0  0  0  0  0
    9.5890   -2.4950   23.2210 C   0  0  0  0  0  0  0  0  0  0  0  0
    8.2550   -1.0010   24.5520 C   0  0  0  0  0  0  0  0  0  0  0  0
    4.6610    1.7170   18.4380 C   0  0  0  0  0  0  0  0  0  0  0  0
    9.1890   -3.5540   24.0140 C   0  0  0  0  0  0  0  0  0  0  0  0
    7.8700   -2.0610   25.3550 C   0  0  0  0  0  0  0  0  0  0  0  0
   13.2472   -0.7790   26.3583 C   0  0  0  0  0  0  0  0  0  0  0  0
   11.3860    0.1028   25.0952 C   0  0  0  0  0  0  0  0  0  0  0  0
    6.1460    0.6070   19.9750 C   0  0  0  0  0  0  0  0  0  0  0  0
    9.1280   -1.2090   23.4870 C   0  0  0  0  0  0  0  0  0  0  0  0
   11.9382   -0.4119   23.9222 C   0  0  0  0  0  0  0  0  0  0  0  0
    5.7970    0.9500   18.6730 C   0  0  0  0  0  0  0  0  0  0  0  0
    8.3450   -3.3440   25.0980 C   0  0  0  0  0  0  0  0  0  0  0  0
   12.0405   -0.0807   26.3132 C   0  0  0  0  0  0  0  0  0  0  0  0
    7.2710   -0.1460   19.8310 C   0  0  0  0  0  0  0  0  0  0  0  0
    9.0430    0.2380   21.4940 C   0  0  0  0  0  0  0  0  0  0  0  0
    8.9526   -5.2008   26.6600 C   0  0  0  0  0  0  0  0  0  0  0  0
    6.6115   -4.5057   26.4392 C   0  0  0  0  0  0  0  0  0  0  0  0
    8.9053   -4.7827   28.1257 C   0  0  0  0  0  0  0  0  0  0  0  0
    6.6391   -4.1219   27.9194 C   0  0  0  0  0  0  0  0  0  0  0  0
   11.2301   -0.2124   22.6019 C   0  0  0  0  0  0  0  0  0  0  0  0
    9.5820   -0.1080   22.7000 C   0  0  2  0  0  0  0  0  0  0  0  0
    7.5840   -0.2700   18.5160 N   0  0  0  0  0  0  0  0  0  0  0  0
    6.7100    0.3850   17.8100 N   0  0  0  0  0  0  0  0  0  0  0  0
    7.9774   -4.4013   25.9152 N   0  0  0  0  0  0  0  0  0  0  0  0
    8.0950   -0.7700   20.8440 N   0  0  0  0  0  0  0  0  0  0  0  0
    9.2950    1.3000   20.9480 O   0  0  0  0  0  0  0  0  0  0  0  0
    7.5748   -4.9364   28.6347 O   0  0  0  0  0  0  0  0  0  0  0  0
   11.3604    0.5551   27.7606 Cl  0  0  0  0  0  0  0  0  0  0  0  0
    3.6223    2.0725   21.6574 H   0  0  0  0  0  0  0  0  0  0  0  0
    2.9864    2.6933   19.3609 H   0  0  0  0  0  0  0  0  0  0  0  0
   14.7390   -1.8374   25.2199 H   0  0  0  0  0  0  0  0  0  0  0  0
    5.6689    0.7392   22.0836 H   0  0  0  0  0  0  0  0  0  0  0  0
   13.5824   -1.5147   23.0583 H   0  0  0  0  0  0  0  0  0  0  0  0
   10.2684   -2.6719   22.3867 H   0  0  0  0  0  0  0  0  0  0  0  0
    7.8717   -0.0016   24.7596 H   0  0  0  0  0  0  0  0  0  0  0  0
    4.3807    2.0116   17.4186 H   0  0  0  0  0  0  0  0  0  0  0  0
    9.5443   -4.5616   23.7817 H   0  0  0  0  0  0  0  0  0  0  0  0
    7.1921   -1.8821   26.1908 H   0  0  0  0  0  0  0  0  0  0  0  0
   13.7685   -0.9294   27.3004 H   0  0  0  0  0  0  0  0  0  0  0  0
   10.4447    0.6461   25.0548 H   0  0  0  0  0  0  0  0  0  0  0  0
    9.9614   -5.0503   26.2701 H   0  0  0  0  0  0  0  0  0  0  0  0
    8.6932   -6.2593   26.5731 H   0  0  0  0  0  0  0  0  0  0  0  0
    6.2625   -5.5339   26.3355 H   0  0  0  0  0  0  0  0  0  0  0  0
    5.9348   -3.8414   25.9036 H   0  0  0  0  0  0  0  0  0  0  0  0
    9.5615   -5.4255   28.7162 H   0  0  0  0  0  0  0  0  0  0  0  0
    9.2365   -3.7494   28.2620 H   0  0  0  0  0  0  0  0  0  0  0  0
    6.8895   -3.0633   28.0551 H   0  0  0  0  0  0  0  0  0  0  0  0
    5.6514   -4.2861   28.3610 H   0  0  0  0  0  0  0  0  0  0  0  0
   11.5792    0.7206   22.1405 H   0  0  0  0  0  0  0  0  0  0  0  0
   11.5533   -1.0125   21.9215 H   0  0  0  0  0  0  0  0  0  0  0  0
    9.5402    0.8508   23.4127 H   0  0  0  0  0  0  0  0  0  0  0  0
    6.7486    0.4313   16.8331 H   0  0  0  0  0  0  0  0  0  0  0  0
    8.0917   -1.6083   21.0911 H   0  0  0  0  0  0  0  0  0  0  0  0
  1  2  1  0  0  0  0
  1  4  2  0  0  0  0
  2  8  2  0  0  0  0
  3  5  2  0  0  0  0
  3 11  1  0  0  0  0
  4 13  1  0  0  0  0
  5 15  1  0  0  0  0
  6  9  2  0  0  0  0
  6 14  1  0  0  0  0
  7 10  1  0  0  0  0
  7 14  2  0  0  0  0
  8 16  1  0  0  0  0
  9 17  1  0  0  0  0
 10 17  2  0  0  0  0
 11 18  2  0  0  0  0
 12 15  2  0  0  0  0
 12 18  1  0  0  0  0
 13 16  2  0  0  0  0
 13 19  1  0  0  0  0
 14 26  1  0  0  0  0
 15 25  1  0  0  0  0
 16 28  1  0  0  0  0
 17 29  1  0  0  0  0
 18 33  1  0  0  0  0
 19 27  2  0  0  0  0
 19 30  1  0  0  0  0
 20 26  1  6  0  0  0
 20 30  1  0  0  0  0
 20 31  2  0  0  0  0
 21 23  1  0  0  0  0
 21 29  1  0  0  0  0
 22 24  1  0  0  0  0
 22 29  1  0  0  0  0
 23 32  1  0  0  0  0
 24 32  1  0  0  0  0
 25 26  1  0  0  0  0
 27 28  1  0  0  0  0
  1 34  1  0  0  0  0
  2 35  1  0  0  0  0
  3 36  1  0  0  0  0
  4 37  1  0  0  0  0
  5 38  1  0  0  0  0
  6 39  1  0  0  0  0
  7 40  1  0  0  0  0
  8 41  1  0  0  0  0
  9 42  1  0  0  0  0
 10 43  1  0  0  0  0
 11 44  1  0  0  0  0
 12 45  1  0  0  0  0
 21 46  1  0  0  0  0
 21 47  1  0  0  0  0
 22 48  1  0  0  0  0
 22 49  1  0  0  0  0
 23 50  1  0  0  0  0
 23 51  1  0  0  0  0
 24 52  1  0  0  0  0
 24 53  1  0  0  0  0
 25 54  1  0  0  0  0
 25 55  1  0  0  0  0
 26 56  1  0  0  0  0
 28 57  1  0  0  0  0
 30 58  1  0  0  0  0
M  END
> <clash_score>
0.702622923338925

> <docking_score>
-5.166656494140625

> <overlap_score>
0.9236098527908325

$$$$
BENZO_251_1
  -OEChem-08232013543D

 58 62  0     1  0  0  0  0  0999 V2000
    4.2460    1.7520   20.8250 C   0  0  0  0  0  0  0  0  0  0  0  0
    3.8860    2.1050   19.5250 C   0  0  0  0  0  0  0  0  0  0  0  0
    5.3890    1.0010   21.0690 C   0  0  0  0  0  0  0  0  0  0  0  0
    9.5890   -2.4950   23.2210 C   0  0  0  0  0  0  0  0  0  0  0  0
    8.2550   -1.0010   24.5520 C   0  0  0  0  0  0  0  0  0  0  0  0
    4.6610    1.7170   18.4380 C   0  0  0  0  0  0  0  0  0  0  0  0
    9.1890   -3.5540   24.0140 C   0  0  0  0  0  0  0  0  0  0  0  0
    7.8700   -2.0610   25.3550 C   0  0  0  0  0  0  0  0  0  0  0  0
   13.3220   -0.5321   24.1508 C   0  0  0  0  0  0  0  0  0  0  0  0
   11.3739   -0.5140   25.1703 C   0  0  0  0  0  0  0  0  0  0  0  0
    6.1460    0.6070   19.9750 C   0  0  0  0  0  0  0  0  0  0  0  0
    9.1280   -1.2090   23.4870 C   0  0  0  0  0  0  0  0  0  0  0  0
   11.9382   -0.4119   23.9222 C   0  0  0  0  0  0  0  0  0  0  0  0
    5.7970    0.9500   18.6730 C   0  0  0  0  0  0  0  0  0  0  0  0
    8.3450   -3.3440   25.0980 C   0  0  0  0  0  0  0  0  0  0  0  0
    7.2710   -0.1460   19.8310 C   0  0  0  0  0  0  0  0  0  0  0  0
    9.0430    0.2380   21.4940 C   0  0  0  0  0  0  0  0  0  0  0  0
    8.8181   -4.7107   27.0857 C   0  0  0  0  0  0  0  0  0  0  0  0
    7.2576   -5.5563   25.3547 C   0  0  0  0  0  0  0  0  0  0  0  0
    8.0193   -5.5151   28.1049 C   0  0  0  0  0  0  0  0  0  0  0  0
    6.5423   -6.3161   26.4664 C   0  0  0  0  0  0  0  0  0  0  0  0
   12.3185   -0.8368   27.4686 C   0  0  0  0  0  0  0  0  0  0  0  0
   11.2301   -0.2124   22.6019 C   0  0  0  0  0  0  0  0  0  0  0  0
    9.5820   -0.1080   22.7000 C   0  0  1  0  0  0  0  0  0  0  0  0
   13.6189   -0.6977   25.4425 N   0  0  0  0  0  0  0  0  0  0  0  0
    7.5840   -0.2700   18.5160 N   0  0  0  0  0  0  0  0  0  0  0  0
    6.7100    0.3850   17.8100 N   0  0  0  0  0  0  0  0  0  0  0  0
   12.4136   -0.6822   26.0368 N   0  0  0  0  0  0  0  0  0  0  0  0
    7.9748   -4.4087   25.9209 N   0  0  0  0  0  0  0  0  0  0  0  0
    8.0950   -0.7700   20.8440 N   0  0  0  0  0  0  0  0  0  0  0  0
    9.2950    1.3000   20.9480 O   0  0  0  0  0  0  0  0  0  0  0  0
    7.4618   -6.6794   27.4955 O   0  0  0  0  0  0  0  0  0  0  0  0
    3.6223    2.0725   21.6574 H   0  0  0  0  0  0  0  0  0  0  0  0
    2.9864    2.6933   19.3609 H   0  0  0  0  0  0  0  0  0  0  0  0
    5.6689    0.7392   22.0836 H   0  0  0  0  0  0  0  0  0  0  0  0
   10.2684   -2.6719   22.3867 H   0  0  0  0  0  0  0  0  0  0  0  0
    7.8717   -0.0016   24.7596 H   0  0  0  0  0  0  0  0  0  0  0  0
    4.3807    2.0116   17.4186 H   0  0  0  0  0  0  0  0  0  0  0  0
    9.5443   -4.5616   23.7817 H   0  0  0  0  0  0  0  0  0  0  0  0
    7.1922   -1.8821   26.1908 H   0  0  0  0  0  0  0  0  0  0  0  0
   14.1286   -0.5054   23.4317 H   0  0  0  0  0  0  0  0  0  0  0  0
   10.3467   -0.4808   25.5074 H   0  0  0  0  0  0  0  0  0  0  0  0
    9.1812   -3.7873   27.5519 H   0  0  0  0  0  0  0  0  0  0  0  0
    9.6869   -5.2951   26.7566 H   0  0  0  0  0  0  0  0  0  0  0  0
    7.9776   -6.2212   24.8604 H   0  0  0  0  0  0  0  0  0  0  0  0
    6.5260   -5.2277   24.6071 H   0  0  0  0  0  0  0  0  0  0  0  0
    8.6785   -5.8462   28.9137 H   0  0  0  0  0  0  0  0  0  0  0  0
    7.2212   -4.9136   28.5564 H   0  0  0  0  0  0  0  0  0  0  0  0
    5.7209   -5.7272   26.8924 H   0  0  0  0  0  0  0  0  0  0  0  0
    6.1110   -7.2387   26.0647 H   0  0  0  0  0  0  0  0  0  0  0  0
   12.2261   -1.9039   27.6872 H   0  0  0  0  0  0  0  0  0  0  0  0
   13.2160   -0.4264   27.9396 H   0  0  0  0  0  0  0  0  0  0  0  0
   11.4423   -0.2935   27.8333 H   0  0  0  0  0  0  0  0  0  0  0  0
   11.5792    0.7206   22.1405 H   0  0  0  0  0  0  0  0  0  0  0  0
   11.5533   -1.0125   21.9215 H   0  0  0  0  0  0  0  0  0  0  0  0
    9.5402    0.8508   23.4127 H   0  0  0  0  0  0  0  0  0  0  0  0
    6.7486    0.4313   16.8331 H   0  0  0  0  0  0  0  0  0  0  0  0
    8.0917   -1.6083   21.0911 H   0  0  0  0  0  0  0  0  0  0  0  0
  1  2  1  0  0  0  0
  1  3  2  0  0  0  0
  2  6  2  0  0  0  0
  3 11  1  0  0  0  0
  4  7  2  0  0  0  0
  4 12  1  0  0  0  0
  5  8  1  0  0  0  0
  5 12  2  0  0  0  0
  6 14  1  0  0  0  0
  7 15  1  0  0  0  0
  8 15  2  0  0  0  0
  9 13  1  0  0  0  0
  9 25  2  0  0  0  0
 10 13  2  0  0  0  0
 10 28  1  0  0  0  0
 11 14  2  0  0  0  0
 11 16  1  0  0  0  0
 12 24  1  0  0  0  0
 13 23  1  0  0  0  0
 14 27  1  0  0  0  0
 15 29  1  0  0  0  0
 16 26  2  0  0  0  0
 16 30  1  0  0  0  0
 17 24  1  0  0  0  0
 17 30  1  0  0  0  0
 17 31  2  0  0  0  0
 18 20  1  0  0  0  0
 18 29  1  0  0  0  0
 19 21  1  0  0  0  0
 19 29  1  0  0  0  0
 20 32  1  0  0  0  0
 21 32  1  0  0  0  0
 22 28  1  0  0  0  0
 23 24  1  1  0  0  0
 25 28  1  0  0  0  0
 26 27  1  0  0  0  0
  1 33  1  0  0  0  0
  2 34  1  0  0  0  0
  3 35  1  0  0  0  0
  4 36  1  0  0  0  0
  5 37  1  0  0  0  0
  6 38  1  0  0  0  0
  7 39  1  0  0  0  0
  8 40  1  0  0  0  0
  9 41  1  0  0  0  0
 10 42  1  0  0  0  0
 18 43  1  0  0  0  0
 18 44  1  0  0  0  0
 19 45  1  0  0  0  0
 19 46  1  0  0  0  0
 20 47  1  0  0  0  0
 20 48  1  0  0  0  0
 21 49  1  0  0  0  0
 21 50  1  0  0  0  0
 22 51  1  0  0  0  0
 22 52  1  0  0  0  0
 22 53  1  0  0  0  0
 23 54  1  0  0  0  0
 23 55  1  0  0  0  0
 24 56  1  0  0  0  0
 27 57  1  0  0  0  0
 30 58  1  0  0  0  0
M  END
> <clash_score>
0.6568127051227806

> <docking_score>
-6.278656959533691

> <overlap_score>
0.919378399848938

$$$$
BENZO_253_2
  -OEChem-08232013543D

 52 55  0     1  0  0  0  0  0999 V2000
   12.7724    1.1059   26.6945 C   0  0  0  0  0  0  0  0  0  0  0  0
   11.5849    1.7953   26.9397 C   0  0  0  0  0  0  0  0  0  0  0  0
   12.9583    0.4475   25.4788 C   0  0  0  0  0  0  0  0  0  0  0  0
   10.5832    1.8262   25.9695 C   0  0  0  0  0  0  0  0  0  0  0  0
   11.9567    0.4785   24.5086 C   0  0  0  0  0  0  0  0  0  0  0  0
    9.5890   -2.4950   23.2210 C   0  0  0  0  0  0  0  0  0  0  0  0
    8.2550   -1.0010   24.5520 C   0  0  0  0  0  0  0  0  0  0  0  0
    9.1890   -3.5540   24.0140 C   0  0  0  0  0  0  0  0  0  0  0  0
    7.8700   -2.0610   25.3550 C   0  0  0  0  0  0  0  0  0  0  0  0
   10.7691    1.1678   24.7539 C   0  0  0  0  0  0  0  0  0  0  0  0
    9.1280   -1.2090   23.4870 C   0  0  0  0  0  0  0  0  0  0  0  0
    8.3450   -3.3440   25.0980 C   0  0  0  0  0  0  0  0  0  0  0  0
    6.1460    0.6070   19.9750 C   0  0  0  0  0  0  0  0  0  0  0  0
    7.2710   -0.1460   19.8310 C   0  0  0  0  0  0  0  0  0  0  0  0
    5.3890    1.0010   21.0690 C   0  0  0  0  0  0  0  0  0  0  0  0
    4.2460    1.7520   20.8250 C   0  0  0  0  0  0  0  0  0  0  0  0
    3.8860    2.1050   19.5250 C   0  0  0  0  0  0  0  0  0  0  0  0
    4.6610    1.7170   18.4380 C   0  0  0  0  0  0  0  0  0  0  0  0
    9.0430    0.2380   21.4940 C   0  0  0  0  0  0  0  0  0  0  0  0
    7.2615   -5.5564   25.3807 C   0  0  0  0  0  0  0  0  0  0  0  0
    8.3055   -4.4046   27.3383 C   0  0  0  0  0  0  0  0  0  0  0  0
    9.6841    1.2008   23.7022 C   0  0  0  0  0  0  0  0  0  0  0  0
    9.5820   -0.1080   22.7000 C   0  0  2  0  0  0  0  0  0  0  0  0
    7.5840   -0.2700   18.5160 N   0  0  0  0  0  0  0  0  0  0  0  0
    6.7100    0.3850   17.8100 N   0  0  0  0  0  0  0  0  0  0  0  0
    5.7970    0.9500   18.6730 N   0  0  0  0  0  0  0  0  0  0  0  0
    8.0950   -0.7700   20.8440 N   0  0  0  0  0  0  0  0  0  0  0  0
    7.9717   -4.4175   25.9277 N   0  0  0  0  0  0  0  0  0  0  0  0
    9.2950    1.3000   20.9480 O   0  0  0  0  0  0  0  0  0  0  0  0
   13.5528    1.0830   27.4495 H   0  0  0  0  0  0  0  0  0  0  0  0
   11.4404    2.3089   27.8858 H   0  0  0  0  0  0  0  0  0  0  0  0
   13.8832   -0.0884   25.2871 H   0  0  0  0  0  0  0  0  0  0  0  0
    9.6612    2.3657   26.1694 H   0  0  0  0  0  0  0  0  0  0  0  0
   12.1103   -0.0375   23.5645 H   0  0  0  0  0  0  0  0  0  0  0  0
   10.2684   -2.6719   22.3867 H   0  0  0  0  0  0  0  0  0  0  0  0
    7.8717   -0.0016   24.7596 H   0  0  0  0  0  0  0  0  0  0  0  0
    9.5443   -4.5616   23.7817 H   0  0  0  0  0  0  0  0  0  0  0  0
    7.1921   -1.8821   26.1908 H   0  0  0  0  0  0  0  0  0  0  0  0
    5.6529    0.7487   22.0767 H   0  0  0  0  0  0  0  0  0  0  0  0
    3.6388    2.0586   21.6675 H   0  0  0  0  0  0  0  0  0  0  0  0
    2.9822    2.6968   19.3330 H   0  0  0  0  0  0  0  0  0  0  0  0
    4.4111    1.9893   17.4360 H   0  0  0  0  0  0  0  0  0  0  0  0
    7.0614   -6.2836   26.1815 H   0  0  0  0  0  0  0  0  0  0  0  0
    6.3092   -5.2198   24.9451 H   0  0  0  0  0  0  0  0  0  0  0  0
    7.8746   -6.0304   24.6001 H   0  0  0  0  0  0  0  0  0  0  0  0
    7.9313   -5.3239   27.8125 H   0  0  0  0  0  0  0  0  0  0  0  0
    9.3978   -4.3499   27.4560 H   0  0  0  0  0  0  0  0  0  0  0  0
    7.8408   -3.5300   27.8169 H   0  0  0  0  0  0  0  0  0  0  0  0
    8.7167    1.3910   24.1851 H   0  0  0  0  0  0  0  0  0  0  0  0
    9.8647    2.0727   23.0582 H   0  0  0  0  0  0  0  0  0  0  0  0
   10.7539   -0.2760   22.5528 H   0  0  0  0  0  0  0  0  0  0  0  0
    8.0713   -1.6185   21.0737 H   0  0  0  0  0  0  0  0  0  0  0  0
  1  2  1  0  0  0  0
  1  3  2  0  0  0  0
  2  4  2  0  0  0  0
  3  5  1  0  0  0  0
  4 10  1  0  0  0  0
  5 10  2  0  0  0  0
  6  8  2  0  0  0  0
  6 11  1  0  0  0  0
  7  9  1  0  0  0  0
  7 11  2  0  0  0  0
  8 12  1  0  0  0  0
  9 12  2  0  0  0  0
 10 22  1  0  0  0  0
 11 23  1  0  0  0  0
 12 28  1  0  0  0  0
 13 14  2  0  0  0  0
 13 15  1  0  0  0  0
 13 26  1  0  0  0  0
 14 24  1  0  0  0  0
 14 27  1  0  0  0  0
 15 16  2  0  0  0  0
 16 17  1  0  0  0  0
 17 18  2  0  0  0  0
 18 26  1  0  0  0  0
 19 23  1  0  0  0  0
 19 27  1  0  0  0  0
 19 29  2  0  0  0  0
 20 28  1  0  0  0  0
 21 28  1  0  0  0  0
 22 23  1  6  0  0  0
 24 25  2  0  0  0  0
 25 26  1  0  0  0  0
  1 30  1  0  0  0  0
  2 31  1  0  0  0  0
  3 32  1  0  0  0  0
  4 33  1  0  0  0  0
  5 34  1  0  0  0  0
  6 35  1  0  0  0  0
  7 36  1  0  0  0  0
  8 37  1  0  0  0  0
  9 38  1  0  0  0  0
 15 39  1  0  0  0  0
 16 40  1  0  0  0  0
 17 41  1  0  0  0  0
 18 42  1  0  0  0  0
 20 43  1  0  0  0  0
 20 44  1  0  0  0  0
 20 45  1  0  0  0  0
 21 46  1  0  0  0  0
 21 47  1  0  0  0  0
 21 48  1  0  0  0  0
 22 49  1  0  0  0  0
 22 50  1  0  0  0  0
 23 51  1  0  0  0  0
 27 52  1  0  0  0  0
M  END
> <clash_score>
4.383194472586325

> <docking_score>
-3.9126946926116943

> <overlap_score>
0.8049845099449158

$$$$
BENZO_252_2
  -OEChem-08232013543D

 49 52  0     1  0  0  0  0  0999 V2000
    9.5890   -2.4950   23.2210 C   0  0  0  0  0  0  0  0  0  0  0  0
    8.2550   -1.0010   24.5520 C   0  0  0  0  0  0  0  0  0  0  0  0
    9.1890   -3.5540   24.0140 C   0  0  0  0  0  0  0  0  0  0  0  0
    7.8700   -2.0610   25.3550 C   0  0  0  0  0  0  0  0  0  0  0  0
   12.1466    0.9424   24.4676 C   0  0  0  0  0  0  0  0  0  0  0  0
   12.9217    0.9621   25.6062 C   0  0  0  0  0  0  0  0  0  0  0  0
   10.5439    1.3509   26.1006 C   0  0  0  0  0  0  0  0  0  0  0  0
    9.1280   -1.2090   23.4870 C   0  0  0  0  0  0  0  0  0  0  0  0
   10.7691    1.1678   24.7539 C   0  0  0  0  0  0  0  0  0  0  0  0
    8.3450   -3.3440   25.0980 C   0  0  0  0  0  0  0  0  0  0  0  0
    6.1460    0.6070   19.9750 C   0  0  0  0  0  0  0  0  0  0  0  0
    7.2710   -0.1460   19.8310 C   0  0  0  0  0  0  0  0  0  0  0  0
    5.3890    1.0010   21.0690 C   0  0  0  0  0  0  0  0  0  0  0  0
    4.2460    1.7520   20.8250 C   0  0  0  0  0  0  0  0  0  0  0  0
    3.8860    2.1050   19.5250 C   0  0  0  0  0  0  0  0  0  0  0  0
    4.6610    1.7170   18.4380 C   0  0  0  0  0  0  0  0  0  0  0  0
    9.0430    0.2380   21.4940 C   0  0  0  0  0  0  0  0  0  0  0  0
    8.7676   -4.7591   27.0899 C   0  0  0  0  0  0  0  0  0  0  0  0
    6.7779   -5.1872   25.6386 C   0  0  0  0  0  0  0  0  0  0  0  0
    9.6841    1.2008   23.7022 C   0  0  0  0  0  0  0  0  0  0  0  0
    9.5820   -0.1080   22.7000 C   0  0  2  0  0  0  0  0  0  0  0  0
    7.5840   -0.2700   18.5160 N   0  0  0  0  0  0  0  0  0  0  0  0
    6.7100    0.3850   17.8100 N   0  0  0  0  0  0  0  0  0  0  0  0
    5.7970    0.9500   18.6730 N   0  0  0  0  0  0  0  0  0  0  0  0
    8.0950   -0.7700   20.8440 N   0  0  0  0  0  0  0  0  0  0  0  0
    7.9717   -4.4175   25.9277 N   0  0  0  0  0  0  0  0  0  0  0  0
    9.2950    1.3000   20.9480 O   0  0  0  0  0  0  0  0  0  0  0  0
   11.9894    1.2512   27.0132 S   0  0  0  0  0  0  0  0  0  0  0  0
   10.2684   -2.6719   22.3867 H   0  0  0  0  0  0  0  0  0  0  0  0
    7.8717   -0.0016   24.7596 H   0  0  0  0  0  0  0  0  0  0  0  0
    9.5443   -4.5616   23.7817 H   0  0  0  0  0  0  0  0  0  0  0  0
    7.1921   -1.8821   26.1908 H   0  0  0  0  0  0  0  0  0  0  0  0
   12.5526    0.7736   23.4782 H   0  0  0  0  0  0  0  0  0  0  0  0
   13.9906    0.8198   25.6793 H   0  0  0  0  0  0  0  0  0  0  0  0
    9.6013    1.5375   26.5964 H   0  0  0  0  0  0  0  0  0  0  0  0
    5.6529    0.7487   22.0767 H   0  0  0  0  0  0  0  0  0  0  0  0
    3.6388    2.0586   21.6675 H   0  0  0  0  0  0  0  0  0  0  0  0
    2.9822    2.6968   19.3330 H   0  0  0  0  0  0  0  0  0  0  0  0
    4.4111    1.9893   17.4360 H   0  0  0  0  0  0  0  0  0  0  0  0
    8.3153   -5.6195   27.6048 H   0  0  0  0  0  0  0  0  0  0  0  0
    9.7885   -5.0174   26.7720 H   0  0  0  0  0  0  0  0  0  0  0  0
    8.8035   -3.8993   27.7752 H   0  0  0  0  0  0  0  0  0  0  0  0
    6.6575   -5.9762   26.3956 H   0  0  0  0  0  0  0  0  0  0  0  0
    5.9006   -4.5239   25.6577 H   0  0  0  0  0  0  0  0  0  0  0  0
    6.8695   -5.6455   24.6428 H   0  0  0  0  0  0  0  0  0  0  0  0
    8.7167    1.3910   24.1851 H   0  0  0  0  0  0  0  0  0  0  0  0
    9.8647    2.0727   23.0582 H   0  0  0  0  0  0  0  0  0  0  0  0
   10.7539   -0.2760   22.5528 H   0  0  0  0  0  0  0  0  0  0  0  0
    8.0713   -1.6185   21.0737 H   0  0  0  0  0  0  0  0  0  0  0  0
  1  3  2  0  0  0  0
  1  8  1  0  0  0  0
  2  4  1  0  0  0  0
  2  8  2  0  0  0  0
  3 10  1  0  0  0  0
  4 10  2  0  0  0  0
  5  6  2  0  0  0  0
  5  9  1  0  0  0  0
  6 28  1  0  0  0  0
  7  9  2  0  0  0  0
  7 28  1  0  0  0  0
  8 21  1  0  0  0  0
  9 20  1  0  0  0  0
 10 26  1  0  0  0  0
 11 12  2  0  0  0  0
 11 13  1  0  0  0  0
 11 24  1  0  0  0  0
 12 22  1  0  0  0  0
 12 25  1  0  0  0  0
 13 14  2  0  0  0  0
 14 15  1  0  0  0  0
 15 16  2  0  0  0  0
 16 24  1  0  0  0  0
 17 21  1  0  0  0  0
 17 25  1  0  0  0  0
 17 27  2  0  0  0  0
 18 26  1  0  0  0  0
 19 26  1  0  0  0  0
 20 21  1  6  0  0  0
 22 23  2  0  0  0  0
 23 24  1  0  0  0  0
  1 29  1  0  0  0  0
  2 30  1  0  0  0  0
  3 31  1  0  0  0  0
  4 32  1  0  0  0  0
  5 33  1  0  0  0  0
  6 34  1  0  0  0  0
  7 35  1  0  0  0  0
 13 36  1  0  0  0  0
 14 37  1  0  0  0  0
 15 38  1  0  0  0  0
 16 39  1  0  0  0  0
 18 40  1  0  0  0  0
 18 41  1  0  0  0  0
 18 42  1  0  0  0  0
 19 43  1  0  0  0  0
 19 44  1  0  0  0  0
 19 45  1  0  0  0  0
 20 46  1  0  0  0  0
 20 47  1  0  0  0  0
 21 48  1  0  0  0  0
 25 49  1  0  0  0  0
M  END
> <clash_score>
1.4548722096270712

> <docking_score>
-4.34428596496582

> <overlap_score>
0.79567551612854

$$$$
BENZO_255_1
  -OEChem-08232013543D

 52 55  0     1  0  0  0  0  0999 V2000
    9.5890   -2.4950   23.2210 C   0  0  0  0  0  0  0  0  0  0  0  0
    8.2550   -1.0010   24.5520 C   0  0  0  0  0  0  0  0  0  0  0  0
    9.1890   -3.5540   24.0140 C   0  0  0  0  0  0  0  0  0  0  0  0
    7.8700   -2.0610   25.3550 C   0  0  0  0  0  0  0  0  0  0  0  0
   13.1332   -1.1110   24.1732 C   0  0  0  0  0  0  0  0  0  0  0  0
   11.5178   -0.0030   25.1721 C   0  0  0  0  0  0  0  0  0  0  0  0
    9.1280   -1.2090   23.4870 C   0  0  0  0  0  0  0  0  0  0  0  0
   11.9236   -0.4323   23.9322 C   0  0  0  0  0  0  0  0  0  0  0  0
    8.3450   -3.3440   25.0980 C   0  0  0  0  0  0  0  0  0  0  0  0
    6.1460    0.6070   19.9750 C   0  0  0  0  0  0  0  0  0  0  0  0
    7.2710   -0.1460   19.8310 C   0  0  0  0  0  0  0  0  0  0  0  0
    5.3890    1.0010   21.0690 C   0  0  0  0  0  0  0  0  0  0  0  0
    4.2460    1.7520   20.8250 C   0  0  0  0  0  0  0  0  0  0  0  0
    3.8860    2.1050   19.5250 C   0  0  0  0  0  0  0  0  0  0  0  0
    4.6610    1.7170   18.4380 C   0  0  0  0  0  0  0  0  0  0  0  0
    9.0430    0.2380   21.4940 C   0  0  0  0  0  0  0  0  0  0  0  0
   12.4834   -0.2219   27.4740 C   0  0  0  0  0  0  0  0  0  0  0  0
    7.2615   -5.5564   25.3807 C   0  0  0  0  0  0  0  0  0  0  0  0
    8.3055   -4.4046   27.3383 C   0  0  0  0  0  0  0  0  0  0  0  0
   11.2273   -0.2199   22.6076 C   0  0  0  0  0  0  0  0  0  0  0  0
    9.5820   -0.1080   22.7000 C   0  0  1  0  0  0  0  0  0  0  0  0
   13.4737   -1.1150   25.4647 N   0  0  0  0  0  0  0  0  0  0  0  0
    7.5840   -0.2700   18.5160 N   0  0  0  0  0  0  0  0  0  0  0  0
    6.7100    0.3850   17.8100 N   0  0  0  0  0  0  0  0  0  0  0  0
   12.4721   -0.4335   26.0464 N   0  0  0  0  0  0  0  0  0  0  0  0
    5.7970    0.9500   18.6730 N   0  0  0  0  0  0  0  0  0  0  0  0
    8.0950   -0.7700   20.8440 N   0  0  0  0  0  0  0  0  0  0  0  0
    7.9717   -4.4175   25.9277 N   0  0  0  0  0  0  0  0  0  0  0  0
    9.2950    1.3000   20.9480 O   0  0  0  0  0  0  0  0  0  0  0  0
   10.2684   -2.6719   22.3867 H   0  0  0  0  0  0  0  0  0  0  0  0
    7.8717   -0.0016   24.7596 H   0  0  0  0  0  0  0  0  0  0  0  0
    9.5443   -4.5616   23.7817 H   0  0  0  0  0  0  0  0  0  0  0  0
    7.1921   -1.8821   26.1908 H   0  0  0  0  0  0  0  0  0  0  0  0
   13.7829   -1.6028   23.4631 H   0  0  0  0  0  0  0  0  0  0  0  0
   10.6535    0.5594   25.4986 H   0  0  0  0  0  0  0  0  0  0  0  0
    5.6529    0.7487   22.0767 H   0  0  0  0  0  0  0  0  0  0  0  0
    3.6388    2.0586   21.6675 H   0  0  0  0  0  0  0  0  0  0  0  0
    2.9822    2.6968   19.3330 H   0  0  0  0  0  0  0  0  0  0  0  0
    4.4111    1.9893   17.4360 H   0  0  0  0  0  0  0  0  0  0  0  0
   11.9614   -1.0599   27.9433 H   0  0  0  0  0  0  0  0  0  0  0  0
   13.5174   -0.1700   27.8262 H   0  0  0  0  0  0  0  0  0  0  0  0
   11.9792    0.7209   27.7036 H   0  0  0  0  0  0  0  0  0  0  0  0
    7.0614   -6.2836   26.1815 H   0  0  0  0  0  0  0  0  0  0  0  0
    6.3092   -5.2198   24.9451 H   0  0  0  0  0  0  0  0  0  0  0  0
    7.8746   -6.0304   24.6001 H   0  0  0  0  0  0  0  0  0  0  0  0
    7.9313   -5.3239   27.8125 H   0  0  0  0  0  0  0  0  0  0  0  0
    9.3978   -4.3499   27.4560 H   0  0  0  0  0  0  0  0  0  0  0  0
    7.8408   -3.5300   27.8169 H   0  0  0  0  0  0  0  0  0  0  0  0
   11.5842    0.7150   22.1561 H   0  0  0  0  0  0  0  0  0  0  0  0
   11.5525   -1.0164   21.9239 H   0  0  0  0  0  0  0  0  0  0  0  0
    9.5374    0.8439   23.4178 H   0  0  0  0  0  0  0  0  0  0  0  0
    8.0713   -1.6185   21.0737 H   0  0  0  0  0  0  0  0  0  0  0  0
  1  3  2  0  0  0  0
  1  7  1  0  0  0  0
  2  4  1  0  0  0  0
  2  7  2  0  0  0  0
  3  9  1  0  0  0  0
  4  9  2  0  0  0  0
  5  8  1  0  0  0  0
  5 22  2  0  0  0  0
  6  8  2  0  0  0  0
  6 25  1  0  0  0  0
  7 21  1  0  0  0  0
  8 20  1  0  0  0  0
  9 28  1  0  0  0  0
 10 11  2  0  0  0  0
 10 12  1  0  0  0  0
 10 26  1  0  0  0  0
 11 23  1  0  0  0  0
 11 27  1  0  0  0  0
 12 13  2  0  0  0  0
 13 14  1  0  0  0  0
 14 15  2  0  0  0  0
 15 26  1  0  0  0  0
 16 21  1  0  0  0  0
 16 27  1  0  0  0  0
 16 29  2  0  0  0  0
 17 25  1  0  0  0  0
 18 28  1  0  0  0  0
 19 28  1  0  0  0  0
 20 21  1  1  0  0  0
 22 25  1  0  0  0  0
 23 24  2  0  0  0  0
 24 26  1  0  0  0  0
  1 30  1  0  0  0  0
  2 31  1  0  0  0  0
  3 32  1  0  0  0  0
  4 33  1  0  0  0  0
  5 34  1  0  0  0  0
  6 35  1  0  0  0  0
 12 36  1  0  0  0  0
 13 37  1  0  0  0  0
 14 38  1  0  0  0  0
 15 39  1  0  0  0  0
 17 40  1  0  0  0  0
 17 41  1  0  0  0  0
 17 42  1  0  0  0  0
 18 43  1  0  0  0  0
 18 44  1  0  0  0  0
 18 45  1  0  0  0  0
 19 46  1  0  0  0  0
 19 47  1  0  0  0  0
 19 48  1  0  0  0  0
 20 49  1  0  0  0  0
 20 50  1  0  0  0  0
 21 51  1  0  0  0  0
 27 52  1  0  0  0  0
M  END
> <clash_score>
0

> <docking_score>
-5.322974681854248

> <overlap_score>
0.8710945844650269

$$$$
BENZO_255_2
  -OEChem-08232013543D

 52 55  0     1  0  0  0  0  0999 V2000
    9.5890   -2.4950   23.2210 C   0  0  0  0  0  0  0  0  0  0  0  0
    8.2550   -1.0010   24.5520 C   0  0  0  0  0  0  0  0  0  0  0  0
    9.1890   -3.5540   24.0140 C   0  0  0  0  0  0  0  0  0  0  0  0
    7.8700   -2.0610   25.3550 C   0  0  0  0  0  0  0  0  0  0  0  0
   11.7155    0.1520   24.9872 C   0  0  0  0  0  0  0  0  0  0  0  0
   11.0544    2.1258   25.6959 C   0  0  0  0  0  0  0  0  0  0  0  0
    9.1280   -1.2090   23.4870 C   0  0  0  0  0  0  0  0  0  0  0  0
   10.7691    1.1678   24.7539 C   0  0  0  0  0  0  0  0  0  0  0  0
    8.3450   -3.3440   25.0980 C   0  0  0  0  0  0  0  0  0  0  0  0
    6.1460    0.6070   19.9750 C   0  0  0  0  0  0  0  0  0  0  0  0
    7.2710   -0.1460   19.8310 C   0  0  0  0  0  0  0  0  0  0  0  0
    5.3890    1.0010   21.0690 C   0  0  0  0  0  0  0  0  0  0  0  0
    4.2460    1.7520   20.8250 C   0  0  0  0  0  0  0  0  0  0  0  0
    3.8860    2.1050   19.5250 C   0  0  0  0  0  0  0  0  0  0  0  0
    4.6610    1.7170   18.4380 C   0  0  0  0  0  0  0  0  0  0  0  0
    9.0430    0.2380   21.4940 C   0  0  0  0  0  0  0  0  0  0  0  0
   12.7726    2.3013   27.5113 C   0  0  0  0  0  0  0  0  0  0  0  0
    7.2615   -5.5564   25.3807 C   0  0  0  0  0  0  0  0  0  0  0  0
    8.3055   -4.4046   27.3383 C   0  0  0  0  0  0  0  0  0  0  0  0
    9.6841    1.2008   23.7022 C   0  0  0  0  0  0  0  0  0  0  0  0
    9.5820   -0.1080   22.7000 C   0  0  2  0  0  0  0  0  0  0  0  0
   12.5403    0.4381   25.9980 N   0  0  0  0  0  0  0  0  0  0  0  0
    7.5840   -0.2700   18.5160 N   0  0  0  0  0  0  0  0  0  0  0  0
    6.7100    0.3850   17.8100 N   0  0  0  0  0  0  0  0  0  0  0  0
   12.1132    1.6445   26.4082 N   0  0  0  0  0  0  0  0  0  0  0  0
    5.7970    0.9500   18.6730 N   0  0  0  0  0  0  0  0  0  0  0  0
    8.0950   -0.7700   20.8440 N   0  0  0  0  0  0  0  0  0  0  0  0
    7.9717   -4.4175   25.9277 N   0  0  0  0  0  0  0  0  0  0  0  0
    9.2950    1.3000   20.9480 O   0  0  0  0  0  0  0  0  0  0  0  0
   10.2684   -2.6719   22.3867 H   0  0  0  0  0  0  0  0  0  0  0  0
    7.8717   -0.0016   24.7596 H   0  0  0  0  0  0  0  0  0  0  0  0
    9.5443   -4.5616   23.7817 H   0  0  0  0  0  0  0  0  0  0  0  0
    7.1921   -1.8821   26.1908 H   0  0  0  0  0  0  0  0  0  0  0  0
   11.8409   -0.7851   24.4635 H   0  0  0  0  0  0  0  0  0  0  0  0
   10.6061    3.0857   25.9138 H   0  0  0  0  0  0  0  0  0  0  0  0
    5.6529    0.7487   22.0767 H   0  0  0  0  0  0  0  0  0  0  0  0
    3.6388    2.0586   21.6675 H   0  0  0  0  0  0  0  0  0  0  0  0
    2.9822    2.6968   19.3330 H   0  0  0  0  0  0  0  0  0  0  0  0
    4.4111    1.9893   17.4360 H   0  0  0  0  0  0  0  0  0  0  0  0
   12.2713    1.9965   28.4337 H   0  0  0  0  0  0  0  0  0  0  0  0
   13.8256    2.0072   27.5334 H   0  0  0  0  0  0  0  0  0  0  0  0
   12.7061    3.3847   27.3788 H   0  0  0  0  0  0  0  0  0  0  0  0
    7.0614   -6.2836   26.1815 H   0  0  0  0  0  0  0  0  0  0  0  0
    6.3092   -5.2198   24.9451 H   0  0  0  0  0  0  0  0  0  0  0  0
    7.8746   -6.0304   24.6001 H   0  0  0  0  0  0  0  0  0  0  0  0
    7.9313   -5.3239   27.8125 H   0  0  0  0  0  0  0  0  0  0  0  0
    9.3978   -4.3499   27.4560 H   0  0  0  0  0  0  0  0  0  0  0  0
    7.8408   -3.5300   27.8169 H   0  0  0  0  0  0  0  0  0  0  0  0
    8.7167    1.3910   24.1851 H   0  0  0  0  0  0  0  0  0  0  0  0
    9.8647    2.0727   23.0582 H   0  0  0  0  0  0  0  0  0  0  0  0
   10.7539   -0.2760   22.5528 H   0  0  0  0  0  0  0  0  0  0  0  0
    8.0713   -1.6185   21.0737 H   0  0  0  0  0  0  0  0  0  0  0  0
  1  3  2  0  0  0  0
  1  7  1  0  0  0  0
  2  4  1  0  0  0  0
  2  7  2  0  0  0  0
  3  9  1  0  0  0  0
  4  9  2  0  0  0  0
  5  8  1  0  0  0  0
  5 22  2  0  0  0  0
  6  8  2  0  0  0  0
  6 25  1  0  0  0  0
  7 21  1  0  0  0  0
  8 20  1  0  0  0  0
  9 28  1  0  0  0  0
 10 11  2  0  0  0  0
 10 12  1  0  0  0  0
 10 26  1  0  0  0  0
 11 23  1  0  0  0  0
 11 27  1  0  0  0  0
 12 13  2  0  0  0  0
 13 14  1  0  0  0  0
 14 15  2  0  0  0  0
 15 26  1  0  0  0  0
 16 21  1  0  0  0  0
 16 27  1  0  0  0  0
 16 29  2  0  0  0  0
 17 25  1  0  0  0  0
 18 28  1  0  0  0  0
 19 28  1  0  0  0  0
 20 21  1  6  0  0  0
 22 25  1  0  0  0  0
 23 24  2  0  0  0  0
 24 26  1  0  0  0  0
  1 30  1  0  0  0  0
  2 31  1  0  0  0  0
  3 32  1  0  0  0  0
  4 33  1  0  0  0  0
  5 34  1  0  0  0  0
  6 35  1  0  0  0  0
 12 36  1  0  0  0  0
 13 37  1  0  0  0  0
 14 38  1  0  0  0  0
 15 39  1  0  0  0  0
 17 40  1  0  0  0  0
 17 41  1  0  0  0  0
 17 42  1  0  0  0  0
 18 43  1  0  0  0  0
 18 44  1  0  0  0  0
 18 45  1  0  0  0  0
 19 46  1  0  0  0  0
 19 47  1  0  0  0  0
 19 48  1  0  0  0  0
 20 49  1  0  0  0  0
 20 50  1  0  0  0  0
 21 51  1  0  0  0  0
 27 52  1  0  0  0  0
M  END
> <clash_score>
3.2086022107449237

> <docking_score>
-3.2656311988830566

> <overlap_score>
0.7944057583808899

$$$$
BENZO_254_1
  -OEChem-08232013543D

 52 55  0     1  0  0  0  0  0999 V2000
   13.7696   -1.3331   25.2040 C   0  0  0  0  0  0  0  0  0  0  0  0
   13.1260   -1.1377   23.9821 C   0  0  0  0  0  0  0  0  0  0  0  0
    9.5890   -2.4950   23.2210 C   0  0  0  0  0  0  0  0  0  0  0  0
    8.2550   -1.0010   24.5520 C   0  0  0  0  0  0  0  0  0  0  0  0
    9.1890   -3.5540   24.0140 C   0  0  0  0  0  0  0  0  0  0  0  0
    7.8700   -2.0610   25.3550 C   0  0  0  0  0  0  0  0  0  0  0  0
   13.2109   -0.8232   26.3761 C   0  0  0  0  0  0  0  0  0  0  0  0
   11.3649    0.0776   25.1042 C   0  0  0  0  0  0  0  0  0  0  0  0
    9.1280   -1.2090   23.4870 C   0  0  0  0  0  0  0  0  0  0  0  0
   11.9236   -0.4323   23.9322 C   0  0  0  0  0  0  0  0  0  0  0  0
    8.3450   -3.3440   25.0980 C   0  0  0  0  0  0  0  0  0  0  0  0
   12.0086   -0.1179   26.3261 C   0  0  0  0  0  0  0  0  0  0  0  0
    6.1460    0.6070   19.9750 C   0  0  0  0  0  0  0  0  0  0  0  0
    7.2710   -0.1460   19.8310 C   0  0  0  0  0  0  0  0  0  0  0  0
    5.3890    1.0010   21.0690 C   0  0  0  0  0  0  0  0  0  0  0  0
    4.2460    1.7520   20.8250 C   0  0  0  0  0  0  0  0  0  0  0  0
    3.8860    2.1050   19.5250 C   0  0  0  0  0  0  0  0  0  0  0  0
    4.6610    1.7170   18.4380 C   0  0  0  0  0  0  0  0  0  0  0  0
    9.0430    0.2380   21.4940 C   0  0  0  0  0  0  0  0  0  0  0  0
    7.2615   -5.5564   25.3807 C   0  0  0  0  0  0  0  0  0  0  0  0
    8.3055   -4.4046   27.3383 C   0  0  0  0  0  0  0  0  0  0  0  0
   11.2273   -0.2199   22.6076 C   0  0  0  0  0  0  0  0  0  0  0  0
    9.5820   -0.1080   22.7000 C   0  0  1  0  0  0  0  0  0  0  0  0
    7.5840   -0.2700   18.5160 N   0  0  0  0  0  0  0  0  0  0  0  0
    6.7100    0.3850   17.8100 N   0  0  0  0  0  0  0  0  0  0  0  0
    5.7970    0.9500   18.6730 N   0  0  0  0  0  0  0  0  0  0  0  0
    8.0950   -0.7700   20.8440 N   0  0  0  0  0  0  0  0  0  0  0  0
    7.9717   -4.4175   25.9277 N   0  0  0  0  0  0  0  0  0  0  0  0
    9.2950    1.3000   20.9480 O   0  0  0  0  0  0  0  0  0  0  0  0
   11.3203    0.5119   27.7723 Cl  0  0  0  0  0  0  0  0  0  0  0  0
   14.7060   -1.8822   25.2425 H   0  0  0  0  0  0  0  0  0  0  0  0
   13.5686   -1.5384   23.0739 H   0  0  0  0  0  0  0  0  0  0  0  0
   10.2684   -2.6719   22.3867 H   0  0  0  0  0  0  0  0  0  0  0  0
    7.8717   -0.0016   24.7596 H   0  0  0  0  0  0  0  0  0  0  0  0
    9.5443   -4.5616   23.7817 H   0  0  0  0  0  0  0  0  0  0  0  0
    7.1921   -1.8821   26.1908 H   0  0  0  0  0  0  0  0  0  0  0  0
   13.7238   -0.9829   27.3213 H   0  0  0  0  0  0  0  0  0  0  0  0
   10.4270    0.6263   25.0600 H   0  0  0  0  0  0  0  0  0  0  0  0
    5.6529    0.7487   22.0767 H   0  0  0  0  0  0  0  0  0  0  0  0
    3.6388    2.0586   21.6675 H   0  0  0  0  0  0  0  0  0  0  0  0
    2.9822    2.6968   19.3330 H   0  0  0  0  0  0  0  0  0  0  0  0
    4.4111    1.9893   17.4360 H   0  0  0  0  0  0  0  0  0  0  0  0
    7.0614   -6.2836   26.1815 H   0  0  0  0  0  0  0  0  0  0  0  0
    6.3092   -5.2198   24.9451 H   0  0  0  0  0  0  0  0  0  0  0  0
    7.8746   -6.0304   24.6001 H   0  0  0  0  0  0  0  0  0  0  0  0
    7.9313   -5.3239   27.8125 H   0  0  0  0  0  0  0  0  0  0  0  0
    9.3978   -4.3499   27.4560 H   0  0  0  0  0  0  0  0  0  0  0  0
    7.8408   -3.5300   27.8169 H   0  0  0  0  0  0  0  0  0  0  0  0
   11.5842    0.7150   22.1561 H   0  0  0  0  0  0  0  0  0  0  0  0
   11.5525   -1.0164   21.9239 H   0  0  0  0  0  0  0  0  0  0  0  0
    9.5374    0.8439   23.4178 H   0  0  0  0  0  0  0  0  0  0  0  0
    8.0713   -1.6185   21.0737 H   0  0  0  0  0  0  0  0  0  0  0  0
  1  2  2  0  0  0  0
  1  7  1  0  0  0  0
  2 10  1  0  0  0  0
  3  5  2  0  0  0  0
  3  9  1  0  0  0  0
  4  6  1  0  0  0  0
  4  9  2  0  0  0  0
  5 11  1  0  0  0  0
  6 11  2  0  0  0  0
  7 12  2  0  0  0  0
  8 10  2  0  0  0  0
  8 12  1  0  0  0  0
  9 23  1  0  0  0  0
 10 22  1  0  0  0  0
 11 28  1  0  0  0  0
 12 30  1  0  0  0  0
 13 14  2  0  0  0  0
 13 15  1  0  0  0  0
 13 26  1  0  0  0  0
 14 24  1  0  0  0  0
 14 27  1  0  0  0  0
 15 16  2  0  0  0  0
 16 17  1  0  0  0  0
 17 18  2  0  0  0  0
 18 26  1  0  0  0  0
 19 23  1  0  0  0  0
 19 27  1  0  0  0  0
 19 29  2  0  0  0  0
 20 28  1  0  0  0  0
 21 28  1  0  0  0  0
 22 23  1  1  0  0  0
 24 25  2  0  0  0  0
 25 26  1  0  0  0  0
  1 31  1  0  0  0  0
  2 32  1  0  0  0  0
  3 33  1  0  0  0  0
  4 34  1  0  0  0  0
  5 35  1  0  0  0  0
  6 36  1  0  0  0  0
  7 37  1  0  0  0  0
  8 38  1  0  0  0  0
 15 39  1  0  0  0  0
 16 40  1  0  0  0  0
 17 41  1  0  0  0  0
 18 42  1  0  0  0  0
 20 43  1  0  0  0  0
 20 44  1  0  0  0  0
 20 45  1  0  0  0  0
 21 46  1  0  0  0  0
 21 47  1  0  0  0  0
 21 48  1  0  0  0  0
 22 49  1  0  0  0  0
 22 50  1  0  0  0  0
 23 51  1  0  0  0  0
 27 52  1  0  0  0  0
M  END
> <clash_score>
0.7019283175170448

> <docking_score>
-5.025055885314941

> <overlap_score>
0.874727189540863

$$$$
BENZO_254_2
  -OEChem-08232013543D

 52 55  0     1  0  0  0  0  0999 V2000
   12.6250    0.0375   25.8098 C   0  0  0  0  0  0  0  0  0  0  0  0
   11.6228    0.0680   24.8402 C   0  0  0  0  0  0  0  0  0  0  0  0
    9.5890   -2.4950   23.2210 C   0  0  0  0  0  0  0  0  0  0  0  0
    8.2550   -1.0010   24.5520 C   0  0  0  0  0  0  0  0  0  0  0  0
    9.1890   -3.5540   24.0140 C   0  0  0  0  0  0  0  0  0  0  0  0
    7.8700   -2.0610   25.3550 C   0  0  0  0  0  0  0  0  0  0  0  0
   12.7736    1.1067   26.6932 C   0  0  0  0  0  0  0  0  0  0  0  0
   10.9177    2.2371   25.6373 C   0  0  0  0  0  0  0  0  0  0  0  0
    9.1280   -1.2090   23.4870 C   0  0  0  0  0  0  0  0  0  0  0  0
   10.7691    1.1678   24.7539 C   0  0  0  0  0  0  0  0  0  0  0  0
    8.3450   -3.3440   25.0980 C   0  0  0  0  0  0  0  0  0  0  0  0
   11.9200    2.2065   26.6069 C   0  0  0  0  0  0  0  0  0  0  0  0
    6.1460    0.6070   19.9750 C   0  0  0  0  0  0  0  0  0  0  0  0
    7.2710   -0.1460   19.8310 C   0  0  0  0  0  0  0  0  0  0  0  0
    5.3890    1.0010   21.0690 C   0  0  0  0  0  0  0  0  0  0  0  0
    4.2460    1.7520   20.8250 C   0  0  0  0  0  0  0  0  0  0  0  0
    3.8860    2.1050   19.5250 C   0  0  0  0  0  0  0  0  0  0  0  0
    4.6610    1.7170   18.4380 C   0  0  0  0  0  0  0  0  0  0  0  0
    9.0430    0.2380   21.4940 C   0  0  0  0  0  0  0  0  0  0  0  0
    7.2615   -5.5564   25.3807 C   0  0  0  0  0  0  0  0  0  0  0  0
    8.3055   -4.4046   27.3383 C   0  0  0  0  0  0  0  0  0  0  0  0
    9.6841    1.2008   23.7022 C   0  0  0  0  0  0  0  0  0  0  0  0
    9.5820   -0.1080   22.7000 C   0  0  2  0  0  0  0  0  0  0  0  0
    7.5840   -0.2700   18.5160 N   0  0  0  0  0  0  0  0  0  0  0  0
    6.7100    0.3850   17.8100 N   0  0  0  0  0  0  0  0  0  0  0  0
    5.7970    0.9500   18.6730 N   0  0  0  0  0  0  0  0  0  0  0  0
    8.0950   -0.7700   20.8440 N   0  0  0  0  0  0  0  0  0  0  0  0
    7.9717   -4.4175   25.9277 N   0  0  0  0  0  0  0  0  0  0  0  0
    9.2950    1.3000   20.9480 O   0  0  0  0  0  0  0  0  0  0  0  0
   12.1046    3.5259   27.6963 Cl  0  0  0  0  0  0  0  0  0  0  0  0
   13.2896   -0.8190   25.8765 H   0  0  0  0  0  0  0  0  0  0  0  0
   11.5143   -0.7695   24.1559 H   0  0  0  0  0  0  0  0  0  0  0  0
   10.2684   -2.6719   22.3867 H   0  0  0  0  0  0  0  0  0  0  0  0
    7.8717   -0.0016   24.7596 H   0  0  0  0  0  0  0  0  0  0  0  0
    9.5443   -4.5616   23.7817 H   0  0  0  0  0  0  0  0  0  0  0  0
    7.1921   -1.8821   26.1908 H   0  0  0  0  0  0  0  0  0  0  0  0
   13.5594    1.0694   27.4437 H   0  0  0  0  0  0  0  0  0  0  0  0
   10.2493    3.0921   25.5662 H   0  0  0  0  0  0  0  0  0  0  0  0
    5.6529    0.7487   22.0767 H   0  0  0  0  0  0  0  0  0  0  0  0
    3.6388    2.0586   21.6675 H   0  0  0  0  0  0  0  0  0  0  0  0
    2.9822    2.6968   19.3330 H   0  0  0  0  0  0  0  0  0  0  0  0
    4.4111    1.9893   17.4360 H   0  0  0  0  0  0  0  0  0  0  0  0
    7.0614   -6.2836   26.1815 H   0  0  0  0  0  0  0  0  0  0  0  0
    6.3092   -5.2198   24.9451 H   0  0  0  0  0  0  0  0  0  0  0  0
    7.8746   -6.0304   24.6001 H   0  0  0  0  0  0  0  0  0  0  0  0
    7.9313   -5.3239   27.8125 H   0  0  0  0  0  0  0  0  0  0  0  0
    9.3978   -4.3499   27.4560 H   0  0  0  0  0  0  0  0  0  0  0  0
    7.8408   -3.5300   27.8169 H   0  0  0  0  0  0  0  0  0  0  0  0
    8.7167    1.3910   24.1851 H   0  0  0  0  0  0  0  0  0  0  0  0
    9.8647    2.0727   23.0582 H   0  0  0  0  0  0  0  0  0  0  0  0
   10.7539   -0.2760   22.5528 H   0  0  0  0  0  0  0  0  0  0  0  0
    8.0713   -1.6185   21.0737 H   0  0  0  0  0  0  0  0  0  0  0  0
  1  2  2  0  0  0  0
  1  7  1  0  0  0  0
  2 10  1  0  0  0  0
  3  5  2  0  0  0  0
  3  9  1  0  0  0  0
  4  6  1  0  0  0  0
  4  9  2  0  0  0  0
  5 11  1  0  0  0  0
  6 11  2  0  0  0  0
  7 12  2  0  0  0  0
  8 10  2  0  0  0  0
  8 12  1  0  0  0  0
  9 23  1  0  0  0  0
 10 22  1  0  0  0  0
 11 28  1  0  0  0  0
 12 30  1  0  0  0  0
 13 14  2  0  0  0  0
 13 15  1  0  0  0  0
 13 26  1  0  0  0  0
 14 24  1  0  0  0  0
 14 27  1  0  0  0  0
 15 16  2  0  0  0  0
 16 17  1  0  0  0  0
 17 18  2  0  0  0  0
 18 26  1  0  0  0  0
 19 23  1  0  0  0  0
 19 27  1  0  0  0  0
 19 29  2  0  0  0  0
 20 28  1  0  0  0  0
 21 28  1  0  0  0  0
 22 23  1  6  0  0  0
 24 25  2  0  0  0  0
 25 26  1  0  0  0  0
  1 31  1  0  0  0  0
  2 32  1  0  0  0  0
  3 33  1  0  0  0  0
  4 34  1  0  0  0  0
  5 35  1  0  0  0  0
  6 36  1  0  0  0  0
  7 37  1  0  0  0  0
  8 38  1  0  0  0  0
 15 39  1  0  0  0  0
 16 40  1  0  0  0  0
 17 41  1  0  0  0  0
 18 42  1  0  0  0  0
 20 43  1  0  0  0  0
 20 44  1  0  0  0  0
 20 45  1  0  0  0  0
 21 46  1  0  0  0  0
 21 47  1  0  0  0  0
 21 48  1  0  0  0  0
 22 49  1  0  0  0  0
 22 50  1  0  0  0  0
 23 51  1  0  0  0  0
 27 52  1  0  0  0  0
M  END
> <clash_score>
5.492917406128749

> <docking_score>
-3.520848035812378

> <overlap_score>
0.7982831597328186

$$$$
BENZO_257_1
  -OEChem-08232013543D

 54 57  0     1  0  0  0  0  0999 V2000
   13.2081   -0.8233   26.3776 C   0  0  0  0  0  0  0  0  0  0  0  0
   13.7678   -1.3337   25.2064 C   0  0  0  0  0  0  0  0  0  0  0  0
   12.0060   -0.1174   26.3261 C   0  0  0  0  0  0  0  0  0  0  0  0
   13.1256   -1.1382   23.9837 C   0  0  0  0  0  0  0  0  0  0  0  0
   11.3638    0.0781   25.1034 C   0  0  0  0  0  0  0  0  0  0  0  0
    9.5890   -2.4950   23.2210 C   0  0  0  0  0  0  0  0  0  0  0  0
    8.2550   -1.0010   24.5520 C   0  0  0  0  0  0  0  0  0  0  0  0
    9.1890   -3.5540   24.0140 C   0  0  0  0  0  0  0  0  0  0  0  0
    7.8700   -2.0610   25.3550 C   0  0  0  0  0  0  0  0  0  0  0  0
   11.9236   -0.4323   23.9322 C   0  0  0  0  0  0  0  0  0  0  0  0
    9.1280   -1.2090   23.4870 C   0  0  0  0  0  0  0  0  0  0  0  0
    8.3450   -3.3440   25.0980 C   0  0  0  0  0  0  0  0  0  0  0  0
    6.1460    0.6070   19.9750 C   0  0  0  0  0  0  0  0  0  0  0  0
    7.2710   -0.1460   19.8310 C   0  0  0  0  0  0  0  0  0  0  0  0
    5.3890    1.0010   21.0690 C   0  0  0  0  0  0  0  0  0  0  0  0
    4.2460    1.7520   20.8250 C   0  0  0  0  0  0  0  0  0  0  0  0
    3.8860    2.1050   19.5250 C   0  0  0  0  0  0  0  0  0  0  0  0
    4.6610    1.7170   18.4380 C   0  0  0  0  0  0  0  0  0  0  0  0
    7.6600   -4.3754   27.2874 C   0  0  0  0  0  0  0  0  0  0  0  0
    9.0430    0.2380   21.4940 C   0  0  0  0  0  0  0  0  0  0  0  0
    8.4363   -6.7635   27.6039 C   0  0  0  0  0  0  0  0  0  0  0  0
   11.2273   -0.2199   22.6076 C   0  0  0  0  0  0  0  0  0  0  0  0
    7.3108   -5.7640   27.8018 C   0  0  0  0  0  0  0  0  0  0  0  0
    9.5820   -0.1080   22.7000 C   0  0  1  0  0  0  0  0  0  0  0  0
    7.5840   -0.2700   18.5160 N   0  0  0  0  0  0  0  0  0  0  0  0
    6.7100    0.3850   17.8100 N   0  0  0  0  0  0  0  0  0  0  0  0
    5.7970    0.9500   18.6730 N   0  0  0  0  0  0  0  0  0  0  0  0
    7.9771   -4.4057   25.9197 N   0  0  0  0  0  0  0  0  0  0  0  0
    8.0950   -0.7700   20.8440 N   0  0  0  0  0  0  0  0  0  0  0  0
    7.6497   -3.3897   28.0173 O   0  0  0  0  0  0  0  0  0  0  0  0
    9.2950    1.3000   20.9480 O   0  0  0  0  0  0  0  0  0  0  0  0
   13.7076   -0.9767   27.3297 H   0  0  0  0  0  0  0  0  0  0  0  0
   14.7032   -1.8843   25.2464 H   0  0  0  0  0  0  0  0  0  0  0  0
   11.5694    0.2792   27.2379 H   0  0  0  0  0  0  0  0  0  0  0  0
   13.5692   -1.5394   23.0762 H   0  0  0  0  0  0  0  0  0  0  0  0
   10.4277    0.6294   25.0729 H   0  0  0  0  0  0  0  0  0  0  0  0
   10.2695   -2.6718   22.3873 H   0  0  0  0  0  0  0  0  0  0  0  0
    7.8712   -0.0014   24.7587 H   0  0  0  0  0  0  0  0  0  0  0  0
    9.5431   -4.5618   23.7801 H   0  0  0  0  0  0  0  0  0  0  0  0
    7.1923   -1.8823   26.1912 H   0  0  0  0  0  0  0  0  0  0  0  0
    5.6529    0.7487   22.0767 H   0  0  0  0  0  0  0  0  0  0  0  0
    3.6388    2.0586   21.6675 H   0  0  0  0  0  0  0  0  0  0  0  0
    2.9822    2.6968   19.3330 H   0  0  0  0  0  0  0  0  0  0  0  0
    4.4111    1.9893   17.4360 H   0  0  0  0  0  0  0  0  0  0  0  0
    8.6963   -6.8583   26.5445 H   0  0  0  0  0  0  0  0  0  0  0  0
    8.1391   -7.7500   27.9727 H   0  0  0  0  0  0  0  0  0  0  0  0
    9.3369   -6.4534   28.1441 H   0  0  0  0  0  0  0  0  0  0  0  0
   11.5842    0.7150   22.1561 H   0  0  0  0  0  0  0  0  0  0  0  0
   11.5525   -1.0164   21.9239 H   0  0  0  0  0  0  0  0  0  0  0  0
    7.0718   -5.6894   28.8689 H   0  0  0  0  0  0  0  0  0  0  0  0
    6.4145   -6.1140   27.2767 H   0  0  0  0  0  0  0  0  0  0  0  0
    9.5374    0.8439   23.4178 H   0  0  0  0  0  0  0  0  0  0  0  0
    7.9294   -5.3301   25.4756 H   0  0  0  0  0  0  0  0  0  0  0  0
    8.0713   -1.6185   21.0737 H   0  0  0  0  0  0  0  0  0  0  0  0
  1  2  1  0  0  0  0
  1  3  2  0  0  0  0
  2  4  2  0  0  0  0
  3  5  1  0  0  0  0
  4 10  1  0  0  0  0
  5 10  2  0  0  0  0
  6  8  2  0  0  0  0
  6 11  1  0  0  0  0
  7  9  1  0  0  0  0
  7 11  2  0  0  0  0
  8 12  1  0  0  0  0
  9 12  2  0  0  0  0
 10 22  1  0  0  0  0
 11 24  1  0  0  0  0
 12 28  1  0  0  0  0
 13 14  2  0  0  0  0
 13 15  1  0  0  0  0
 13 27  1  0  0  0  0
 14 25  1  0  0  0  0
 14 29  1  0  0  0  0
 15 16  2  0  0  0  0
 16 17  1  0  0  0  0
 17 18  2  0  0  0  0
 18 27  1  0  0  0  0
 19 23  1  0  0  0  0
 19 28  1  0  0  0  0
 19 30  2  0  0  0  0
 20 24  1  0  0  0  0
 20 29  1  0  0  0  0
 20 31  2  0  0  0  0
 21 23  1  0  0  0  0
 22 24  1  1  0  0  0
 25 26  2  0  0  0  0
 26 27  1  0  0  0  0
  1 32  1  0  0  0  0
  2 33  1  0  0  0  0
  3 34  1  0  0  0  0
  4 35  1  0  0  0  0
  5 36  1  0  0  0  0
  6 37  1  0  0  0  0
  7 38  1  0  0  0  0
  8 39  1  0  0  0  0
  9 40  1  0  0  0  0
 15 41  1  0  0  0  0
 16 42  1  0  0  0  0
 17 43  1  0  0  0  0
 18 44  1  0  0  0  0
 21 45  1  0  0  0  0
 21 46  1  0  0  0  0
 21 47  1  0  0  0  0
 22 48  1  0  0  0  0
 22 49  1  0  0  0  0
 23 50  1  0  0  0  0
 23 51  1  0  0  0  0
 24 52  1  0  0  0  0
 28 53  1  0  0  0  0
 29 54  1  0  0  0  0
M  END
> <clash_score>
0

> <docking_score>
-5.528395652770996

> <overlap_score>
0.9151052236557007

$$$$
BENZO_257_2
  -OEChem-08232013543D

 54 57  0     1  0  0  0  0  0999 V2000
   12.7116    4.1121   22.7757 C   0  0  0  0  0  0  0  0  0  0  0  0
   11.5300    4.5099   23.4011 C   0  0  0  0  0  0  0  0  0  0  0  0
   12.9112    2.7704   22.4506 C   0  0  0  0  0  0  0  0  0  0  0  0
   10.5480    3.5659   23.7016 C   0  0  0  0  0  0  0  0  0  0  0  0
   11.9292    1.8264   22.7511 C   0  0  0  0  0  0  0  0  0  0  0  0
    9.5890   -2.4950   23.2210 C   0  0  0  0  0  0  0  0  0  0  0  0
    8.2550   -1.0010   24.5520 C   0  0  0  0  0  0  0  0  0  0  0  0
    9.1890   -3.5540   24.0140 C   0  0  0  0  0  0  0  0  0  0  0  0
    7.8700   -2.0610   25.3550 C   0  0  0  0  0  0  0  0  0  0  0  0
   10.7476    2.2242   23.3766 C   0  0  0  0  0  0  0  0  0  0  0  0
    9.1280   -1.2090   23.4870 C   0  0  0  0  0  0  0  0  0  0  0  0
    8.3450   -3.3440   25.0980 C   0  0  0  0  0  0  0  0  0  0  0  0
    6.1460    0.6070   19.9750 C   0  0  0  0  0  0  0  0  0  0  0  0
    7.2710   -0.1460   19.8310 C   0  0  0  0  0  0  0  0  0  0  0  0
    5.3890    1.0010   21.0690 C   0  0  0  0  0  0  0  0  0  0  0  0
    4.2460    1.7520   20.8250 C   0  0  0  0  0  0  0  0  0  0  0  0
    3.8860    2.1050   19.5250 C   0  0  0  0  0  0  0  0  0  0  0  0
    4.6610    1.7170   18.4380 C   0  0  0  0  0  0  0  0  0  0  0  0
    7.6600   -4.3754   27.2874 C   0  0  0  0  0  0  0  0  0  0  0  0
    9.0430    0.2380   21.4940 C   0  0  0  0  0  0  0  0  0  0  0  0
    8.4363   -6.7635   27.6039 C   0  0  0  0  0  0  0  0  0  0  0  0
    9.6841    1.2008   23.7022 C   0  0  0  0  0  0  0  0  0  0  0  0
    7.3108   -5.7640   27.8018 C   0  0  0  0  0  0  0  0  0  0  0  0
    9.5820   -0.1080   22.7000 C   0  0  2  0  0  0  0  0  0  0  0  0
    7.5840   -0.2700   18.5160 N   0  0  0  0  0  0  0  0  0  0  0  0
    6.7100    0.3850   17.8100 N   0  0  0  0  0  0  0  0  0  0  0  0
    5.7970    0.9500   18.6730 N   0  0  0  0  0  0  0  0  0  0  0  0
    7.9771   -4.4057   25.9197 N   0  0  0  0  0  0  0  0  0  0  0  0
    8.0950   -0.7700   20.8440 N   0  0  0  0  0  0  0  0  0  0  0  0
    7.6497   -3.3897   28.0173 O   0  0  0  0  0  0  0  0  0  0  0  0
    9.2950    1.3000   20.9480 O   0  0  0  0  0  0  0  0  0  0  0  0
   13.4755    4.8474   22.5405 H   0  0  0  0  0  0  0  0  0  0  0  0
   11.3739    5.5547   23.6533 H   0  0  0  0  0  0  0  0  0  0  0  0
   13.8306    2.4605   21.9627 H   0  0  0  0  0  0  0  0  0  0  0  0
    9.6306    3.8849   24.1892 H   0  0  0  0  0  0  0  0  0  0  0  0
   12.0935    0.7832   22.4943 H   0  0  0  0  0  0  0  0  0  0  0  0
   10.2695   -2.6718   22.3873 H   0  0  0  0  0  0  0  0  0  0  0  0
    7.8712   -0.0014   24.7587 H   0  0  0  0  0  0  0  0  0  0  0  0
    9.5431   -4.5618   23.7801 H   0  0  0  0  0  0  0  0  0  0  0  0
    7.1923   -1.8823   26.1912 H   0  0  0  0  0  0  0  0  0  0  0  0
    5.6529    0.7487   22.0767 H   0  0  0  0  0  0  0  0  0  0  0  0
    3.6388    2.0586   21.6675 H   0  0  0  0  0  0  0  0  0  0  0  0
    2.9822    2.6968   19.3330 H   0  0  0  0  0  0  0  0  0  0  0  0
    4.4111    1.9893   17.4360 H   0  0  0  0  0  0  0  0  0  0  0  0
    8.6963   -6.8583   26.5445 H   0  0  0  0  0  0  0  0  0  0  0  0
    8.1391   -7.7500   27.9727 H   0  0  0  0  0  0  0  0  0  0  0  0
    9.3369   -6.4534   28.1441 H   0  0  0  0  0  0  0  0  0  0  0  0
    9.7989    0.8777   24.7451 H   0  0  0  0  0  0  0  0  0  0  0  0
    8.7078    1.7032   23.6586 H   0  0  0  0  0  0  0  0  0  0  0  0
    7.0718   -5.6894   28.8689 H   0  0  0  0  0  0  0  0  0  0  0  0
    6.4145   -6.1140   27.2767 H   0  0  0  0  0  0  0  0  0  0  0  0
   10.7539   -0.2760   22.5528 H   0  0  0  0  0  0  0  0  0  0  0  0
    7.9294   -5.3301   25.4756 H   0  0  0  0  0  0  0  0  0  0  0  0
    8.0713   -1.6185   21.0737 H   0  0  0  0  0  0  0  0  0  0  0  0
  1  2  1  0  0  0  0
  1  3  2  0  0  0  0
  2  4  2  0  0  0  0
  3  5  1  0  0  0  0
  4 10  1  0  0  0  0
  5 10  2  0  0  0  0
  6  8  2  0  0  0  0
  6 11  1  0  0  0  0
  7  9  1  0  0  0  0
  7 11  2  0  0  0  0
  8 12  1  0  0  0  0
  9 12  2  0  0  0  0
 10 22  1  0  0  0  0
 11 24  1  0  0  0  0
 12 28  1  0  0  0  0
 13 14  2  0  0  0  0
 13 15  1  0  0  0  0
 13 27  1  0  0  0  0
 14 25  1  0  0  0  0
 14 29  1  0  0  0  0
 15 16  2  0  0  0  0
 16 17  1  0  0  0  0
 17 18  2  0  0  0  0
 18 27  1  0  0  0  0
 19 23  1  0  0  0  0
 19 28  1  0  0  0  0
 19 30  2  0  0  0  0
 20 24  1  0  0  0  0
 20 29  1  0  0  0  0
 20 31  2  0  0  0  0
 21 23  1  0  0  0  0
 22 24  1  6  0  0  0
 25 26  2  0  0  0  0
 26 27  1  0  0  0  0
  1 32  1  0  0  0  0
  2 33  1  0  0  0  0
  3 34  1  0  0  0  0
  4 35  1  0  0  0  0
  5 36  1  0  0  0  0
  6 37  1  0  0  0  0
  7 38  1  0  0  0  0
  8 39  1  0  0  0  0
  9 40  1  0  0  0  0
 15 41  1  0  0  0  0
 16 42  1  0  0  0  0
 17 43  1  0  0  0  0
 18 44  1  0  0  0  0
 21 45  1  0  0  0  0
 21 46  1  0  0  0  0
 21 47  1  0  0  0  0
 22 48  1  0  0  0  0
 22 49  1  0  0  0  0
 23 50  1  0  0  0  0
 23 51  1  0  0  0  0
 24 52  1  0  0  0  0
 28 53  1  0  0  0  0
 29 54  1  0  0  0  0
M  END
> <clash_score>
0

> <docking_score>
-8.112052917480469

> <overlap_score>
0.8246577978134155

$$$$
BENZO_256_1
  -OEChem-08232013543D

 51 54  0     1  0  0  0  0  0999 V2000
    9.5890   -2.4950   23.2210 C   0  0  0  0  0  0  0  0  0  0  0  0
    8.2550   -1.0010   24.5520 C   0  0  0  0  0  0  0  0  0  0  0  0
    9.1890   -3.5540   24.0140 C   0  0  0  0  0  0  0  0  0  0  0  0
    7.8700   -2.0610   25.3550 C   0  0  0  0  0  0  0  0  0  0  0  0
   13.2019   -0.5524   24.2528 C   0  0  0  0  0  0  0  0  0  0  0  0
   13.6437   -0.1439   25.4920 C   0  0  0  0  0  0  0  0  0  0  0  0
   11.4901    0.8830   24.8943 C   0  0  0  0  0  0  0  0  0  0  0  0
    9.1280   -1.2090   23.4870 C   0  0  0  0  0  0  0  0  0  0  0  0
   11.9545    0.0425   23.9064 C   0  0  0  0  0  0  0  0  0  0  0  0
    8.3450   -3.3440   25.0980 C   0  0  0  0  0  0  0  0  0  0  0  0
    6.1460    0.6070   19.9750 C   0  0  0  0  0  0  0  0  0  0  0  0
    7.2710   -0.1460   19.8310 C   0  0  0  0  0  0  0  0  0  0  0  0
    5.3890    1.0010   21.0690 C   0  0  0  0  0  0  0  0  0  0  0  0
    4.2460    1.7520   20.8250 C   0  0  0  0  0  0  0  0  0  0  0  0
    3.8860    2.1050   19.5250 C   0  0  0  0  0  0  0  0  0  0  0  0
    4.6610    1.7170   18.4380 C   0  0  0  0  0  0  0  0  0  0  0  0
    7.6600   -4.3754   27.2874 C   0  0  0  0  0  0  0  0  0  0  0  0
    9.0430    0.2380   21.4940 C   0  0  0  0  0  0  0  0  0  0  0  0
    6.9949   -5.7777   29.2867 C   0  0  0  0  0  0  0  0  0  0  0  0
   11.2273   -0.2199   22.6076 C   0  0  0  0  0  0  0  0  0  0  0  0
    7.3108   -5.7640   27.8018 C   0  0  0  0  0  0  0  0  0  0  0  0
    9.5820   -0.1080   22.7000 C   0  0  1  0  0  0  0  0  0  0  0  0
    7.5840   -0.2700   18.5160 N   0  0  0  0  0  0  0  0  0  0  0  0
    6.7100    0.3850   17.8100 N   0  0  0  0  0  0  0  0  0  0  0  0
    5.7970    0.9500   18.6730 N   0  0  0  0  0  0  0  0  0  0  0  0
    7.9771   -4.4057   25.9197 N   0  0  0  0  0  0  0  0  0  0  0  0
    8.0950   -0.7700   20.8440 N   0  0  0  0  0  0  0  0  0  0  0  0
    7.6497   -3.3897   28.0173 O   0  0  0  0  0  0  0  0  0  0  0  0
    9.2950    1.3000   20.9480 O   0  0  0  0  0  0  0  0  0  0  0  0
   12.5564    0.9525   26.2323 S   0  0  0  0  0  0  0  0  0  0  0  0
   10.2695   -2.6718   22.3873 H   0  0  0  0  0  0  0  0  0  0  0  0
    7.8712   -0.0014   24.7587 H   0  0  0  0  0  0  0  0  0  0  0  0
    9.5431   -4.5618   23.7801 H   0  0  0  0  0  0  0  0  0  0  0  0
    7.1923   -1.8823   26.1912 H   0  0  0  0  0  0  0  0  0  0  0  0
   13.7507   -1.2457   23.6279 H   0  0  0  0  0  0  0  0  0  0  0  0
   14.5524   -0.4373   25.9983 H   0  0  0  0  0  0  0  0  0  0  0  0
   10.5759    1.4603   24.8987 H   0  0  0  0  0  0  0  0  0  0  0  0
    5.6529    0.7487   22.0767 H   0  0  0  0  0  0  0  0  0  0  0  0
    3.6388    2.0586   21.6675 H   0  0  0  0  0  0  0  0  0  0  0  0
    2.9822    2.6968   19.3330 H   0  0  0  0  0  0  0  0  0  0  0  0
    4.4111    1.9893   17.4360 H   0  0  0  0  0  0  0  0  0  0  0  0
    7.8442   -5.4112   29.8727 H   0  0  0  0  0  0  0  0  0  0  0  0
    6.7644   -6.7949   29.6179 H   0  0  0  0  0  0  0  0  0  0  0  0
    6.1326   -5.1412   29.5110 H   0  0  0  0  0  0  0  0  0  0  0  0
   11.5534    0.5103   21.8555 H   0  0  0  0  0  0  0  0  0  0  0  0
   11.5573   -1.1968   22.2276 H   0  0  0  0  0  0  0  0  0  0  0  0
    6.4453   -6.1349   27.2407 H   0  0  0  0  0  0  0  0  0  0  0  0
    8.1567   -6.4317   27.6017 H   0  0  0  0  0  0  0  0  0  0  0  0
    9.5374    0.8439   23.4178 H   0  0  0  0  0  0  0  0  0  0  0  0
    7.9294   -5.3301   25.4756 H   0  0  0  0  0  0  0  0  0  0  0  0
    8.0713   -1.6185   21.0737 H   0  0  0  0  0  0  0  0  0  0  0  0
  1  3  2  0  0  0  0
  1  8  1  0  0  0  0
  2  4  1  0  0  0  0
  2  8  2  0  0  0  0
  3 10  1  0  0  0  0
  4 10  2  0  0  0  0
  5  6  2  0  0  0  0
  5  9  1  0  0  0  0
  6 30  1  0  0  0  0
  7  9  2  0  0  0  0
  7 30  1  0  0  0  0
  8 22  1  0  0  0  0
  9 20  1  0  0  0  0
 10 26  1  0  0  0  0
 11 12  2  0  0  0  0
 11 13  1  0  0  0  0
 11 25  1  0  0  0  0
 12 23  1  0  0  0  0
 12 27  1  0  0  0  0
 13 14  2  0  0  0  0
 14 15  1  0  0  0  0
 15 16  2  0  0  0  0
 16 25  1  0  0  0  0
 17 21  1  0  0  0  0
 17 26  1  0  0  0  0
 17 28  2  0  0  0  0
 18 22  1  0  0  0  0
 18 27  1  0  0  0  0
 18 29  2  0  0  0  0
 19 21  1  0  0  0  0
 20 22  1  1  0  0  0
 23 24  2  0  0  0  0
 24 25  1  0  0  0  0
  1 31  1  0  0  0  0
  2 32  1  0  0  0  0
  3 33  1  0  0  0  0
  4 34  1  0  0  0  0
  5 35  1  0  0  0  0
  6 36  1  0  0  0  0
  7 37  1  0  0  0  0
 13 38  1  0  0  0  0
 14 39  1  0  0  0  0
 15 40  1  0  0  0  0
 16 41  1  0  0  0  0
 19 42  1  0  0  0  0
 19 43  1  0  0  0  0
 19 44  1  0  0  0  0
 20 45  1  0  0  0  0
 20 46  1  0  0  0  0
 21 47  1  0  0  0  0
 21 48  1  0  0  0  0
 22 49  1  0  0  0  0
 26 50  1  0  0  0  0
 27 51  1  0  0  0  0
M  END
> <clash_score>
0.7028813472502705

> <docking_score>
-6.911798000335693

> <overlap_score>
0.9106550812721252

$$$$
BENZO_256_2
  -OEChem-08232013543D

 51 54  0     1  0  0  0  0  0999 V2000
    9.5890   -2.4950   23.2210 C   0  0  0  0  0  0  0  0  0  0  0  0
    8.2550   -1.0010   24.5520 C   0  0  0  0  0  0  0  0  0  0  0  0
    9.1890   -3.5540   24.0140 C   0  0  0  0  0  0  0  0  0  0  0  0
    7.8700   -2.0610   25.3550 C   0  0  0  0  0  0  0  0  0  0  0  0
   12.0333    1.8963   22.8573 C   0  0  0  0  0  0  0  0  0  0  0  0
   12.8088    3.0159   22.6506 C   0  0  0  0  0  0  0  0  0  0  0  0
   10.5895    3.5820   23.5474 C   0  0  0  0  0  0  0  0  0  0  0  0
    9.1280   -1.2090   23.4870 C   0  0  0  0  0  0  0  0  0  0  0  0
   10.7476    2.2242   23.3766 C   0  0  0  0  0  0  0  0  0  0  0  0
    8.3450   -3.3440   25.0980 C   0  0  0  0  0  0  0  0  0  0  0  0
    6.1460    0.6070   19.9750 C   0  0  0  0  0  0  0  0  0  0  0  0
    7.2710   -0.1460   19.8310 C   0  0  0  0  0  0  0  0  0  0  0  0
    5.3890    1.0010   21.0690 C   0  0  0  0  0  0  0  0  0  0  0  0
    4.2460    1.7520   20.8250 C   0  0  0  0  0  0  0  0  0  0  0  0
    3.8860    2.1050   19.5250 C   0  0  0  0  0  0  0  0  0  0  0  0
    4.6610    1.7170   18.4380 C   0  0  0  0  0  0  0  0  0  0  0  0
    8.2023   -4.5553   27.2977 C   0  0  0  0  0  0  0  0  0  0  0  0
    9.0430    0.2380   21.4940 C   0  0  0  0  0  0  0  0  0  0  0  0
    7.8890   -6.0855   29.2893 C   0  0  0  0  0  0  0  0  0  0  0  0
    9.6841    1.2008   23.7022 C   0  0  0  0  0  0  0  0  0  0  0  0
    7.6346   -5.8715   27.8079 C   0  0  0  0  0  0  0  0  0  0  0  0
    9.5820   -0.1080   22.7000 C   0  0  2  0  0  0  0  0  0  0  0  0
    7.5840   -0.2700   18.5160 N   0  0  0  0  0  0  0  0  0  0  0  0
    6.7100    0.3850   17.8100 N   0  0  0  0  0  0  0  0  0  0  0  0
    5.7970    0.9500   18.6730 N   0  0  0  0  0  0  0  0  0  0  0  0
    7.9771   -4.4057   25.9197 N   0  0  0  0  0  0  0  0  0  0  0  0
    8.0950   -0.7700   20.8440 N   0  0  0  0  0  0  0  0  0  0  0  0
    8.7739   -3.7626   28.0389 O   0  0  0  0  0  0  0  0  0  0  0  0
    9.2950    1.3000   20.9480 O   0  0  0  0  0  0  0  0  0  0  0  0
   11.9872    4.4551   23.0822 S   0  0  0  0  0  0  0  0  0  0  0  0
   10.2695   -2.6718   22.3873 H   0  0  0  0  0  0  0  0  0  0  0  0
    7.8712   -0.0014   24.7587 H   0  0  0  0  0  0  0  0  0  0  0  0
    9.5431   -4.5618   23.7801 H   0  0  0  0  0  0  0  0  0  0  0  0
    7.1923   -1.8823   26.1912 H   0  0  0  0  0  0  0  0  0  0  0  0
   12.3762    0.8915   22.6449 H   0  0  0  0  0  0  0  0  0  0  0  0
   13.8186    3.0576   22.2676 H   0  0  0  0  0  0  0  0  0  0  0  0
    9.7225    4.1070   23.9238 H   0  0  0  0  0  0  0  0  0  0  0  0
    5.6529    0.7487   22.0767 H   0  0  0  0  0  0  0  0  0  0  0  0
    3.6388    2.0586   21.6675 H   0  0  0  0  0  0  0  0  0  0  0  0
    2.9822    2.6968   19.3330 H   0  0  0  0  0  0  0  0  0  0  0  0
    4.4111    1.9893   17.4360 H   0  0  0  0  0  0  0  0  0  0  0  0
    8.9617   -6.0800   29.5089 H   0  0  0  0  0  0  0  0  0  0  0  0
    7.4789   -7.0476   29.6112 H   0  0  0  0  0  0  0  0  0  0  0  0
    7.4201   -5.2966   29.8866 H   0  0  0  0  0  0  0  0  0  0  0  0
    9.7989    0.8777   24.7451 H   0  0  0  0  0  0  0  0  0  0  0  0
    8.7078    1.7032   23.6586 H   0  0  0  0  0  0  0  0  0  0  0  0
    6.5553   -5.8815   27.6173 H   0  0  0  0  0  0  0  0  0  0  0  0
    8.0879   -6.6901   27.2371 H   0  0  0  0  0  0  0  0  0  0  0  0
   10.7539   -0.2760   22.5528 H   0  0  0  0  0  0  0  0  0  0  0  0
    7.4774   -5.1800   25.4671 H   0  0  0  0  0  0  0  0  0  0  0  0
    8.0713   -1.6185   21.0737 H   0  0  0  0  0  0  0  0  0  0  0  0
  1  3  2  0  0  0  0
  1  8  1  0  0  0  0
  2  4  1  0  0  0  0
  2  8  2  0  0  0  0
  3 10  1  0  0  0  0
  4 10  2  0  0  0  0
  5  6  2  0  0  0  0
  5  9  1  0  0  0  0
  6 30  1  0  0  0  0
  7  9  2  0  0  0  0
  7 30  1  0  0  0  0
  8 22  1  0  0  0  0
  9 20  1  0  0  0  0
 10 26  1  0  0  0  0
 11 12  2  0  0  0  0
 11 13  1  0  0  0  0
 11 25  1  0  0  0  0
 12 23  1  0  0  0  0
 12 27  1  0  0  0  0
 13 14  2  0  0  0  0
 14 15  1  0  0  0  0
 15 16  2  0  0  0  0
 16 25  1  0  0  0  0
 17 21  1  0  0  0  0
 17 26  1  0  0  0  0
 17 28  2  0  0  0  0
 18 22  1  0  0  0  0
 18 27  1  0  0  0  0
 18 29  2  0  0  0  0
 19 21  1  0  0  0  0
 20 22  1  6  0  0  0
 23 24  2  0  0  0  0
 24 25  1  0  0  0  0
  1 31  1  0  0  0  0
  2 32  1  0  0  0  0
  3 33  1  0  0  0  0
  4 34  1  0  0  0  0
  5 35  1  0  0  0  0
  6 36  1  0  0  0  0
  7 37  1  0  0  0  0
 13 38  1  0  0  0  0
 14 39  1  0  0  0  0
 15 40  1  0  0  0  0
 16 41  1  0  0  0  0
 19 42  1  0  0  0  0
 19 43  1  0  0  0  0
 19 44  1  0  0  0  0
 20 45  1  0  0  0  0
 20 46  1  0  0  0  0
 21 47  1  0  0  0  0
 21 48  1  0  0  0  0
 22 49  1  0  0  0  0
 26 50  1  0  0  0  0
 27 51  1  0  0  0  0
M  END
> <clash_score>
0

> <docking_score>
-8.408463478088379

> <overlap_score>
0.8424112796783447

$$$$
BENZO_258_1
  -OEChem-08232013543D

 54 57  0     1  0  0  0  0  0999 V2000
   13.7696   -1.3331   25.2040 C   0  0  0  0  0  0  0  0  0  0  0  0
   13.1260   -1.1377   23.9821 C   0  0  0  0  0  0  0  0  0  0  0  0
    9.5890   -2.4950   23.2210 C   0  0  0  0  0  0  0  0  0  0  0  0
    8.2550   -1.0010   24.5520 C   0  0  0  0  0  0  0  0  0  0  0  0
    9.1890   -3.5540   24.0140 C   0  0  0  0  0  0  0  0  0  0  0  0
    7.8700   -2.0610   25.3550 C   0  0  0  0  0  0  0  0  0  0  0  0
   13.2109   -0.8232   26.3761 C   0  0  0  0  0  0  0  0  0  0  0  0
   11.3649    0.0776   25.1042 C   0  0  0  0  0  0  0  0  0  0  0  0
    9.1280   -1.2090   23.4870 C   0  0  0  0  0  0  0  0  0  0  0  0
   11.9236   -0.4323   23.9322 C   0  0  0  0  0  0  0  0  0  0  0  0
    8.3450   -3.3440   25.0980 C   0  0  0  0  0  0  0  0  0  0  0  0
   12.0086   -0.1179   26.3261 C   0  0  0  0  0  0  0  0  0  0  0  0
    6.1460    0.6070   19.9750 C   0  0  0  0  0  0  0  0  0  0  0  0
    7.2710   -0.1460   19.8310 C   0  0  0  0  0  0  0  0  0  0  0  0
    5.3890    1.0010   21.0690 C   0  0  0  0  0  0  0  0  0  0  0  0
    4.2460    1.7520   20.8250 C   0  0  0  0  0  0  0  0  0  0  0  0
    3.8860    2.1050   19.5250 C   0  0  0  0  0  0  0  0  0  0  0  0
    4.6610    1.7170   18.4380 C   0  0  0  0  0  0  0  0  0  0  0  0
    7.6600   -4.3754   27.2874 C   0  0  0  0  0  0  0  0  0  0  0  0
    9.0430    0.2380   21.4940 C   0  0  0  0  0  0  0  0  0  0  0  0
    8.4363   -6.7635   27.6039 C   0  0  0  0  0  0  0  0  0  0  0  0
   11.2273   -0.2199   22.6076 C   0  0  0  0  0  0  0  0  0  0  0  0
    7.3108   -5.7640   27.8018 C   0  0  0  0  0  0  0  0  0  0  0  0
    9.5820   -0.1080   22.7000 C   0  0  1  0  0  0  0  0  0  0  0  0
    7.5840   -0.2700   18.5160 N   0  0  0  0  0  0  0  0  0  0  0  0
    6.7100    0.3850   17.8100 N   0  0  0  0  0  0  0  0  0  0  0  0
    5.7970    0.9500   18.6730 N   0  0  0  0  0  0  0  0  0  0  0  0
    7.9771   -4.4057   25.9197 N   0  0  0  0  0  0  0  0  0  0  0  0
    8.0950   -0.7700   20.8440 N   0  0  0  0  0  0  0  0  0  0  0  0
    7.6497   -3.3897   28.0173 O   0  0  0  0  0  0  0  0  0  0  0  0
    9.2950    1.3000   20.9480 O   0  0  0  0  0  0  0  0  0  0  0  0
   11.3203    0.5119   27.7723 Cl  0  0  0  0  0  0  0  0  0  0  0  0
   14.7060   -1.8822   25.2425 H   0  0  0  0  0  0  0  0  0  0  0  0
   13.5686   -1.5384   23.0739 H   0  0  0  0  0  0  0  0  0  0  0  0
   10.2695   -2.6718   22.3873 H   0  0  0  0  0  0  0  0  0  0  0  0
    7.8712   -0.0014   24.7587 H   0  0  0  0  0  0  0  0  0  0  0  0
    9.5431   -4.5618   23.7801 H   0  0  0  0  0  0  0  0  0  0  0  0
    7.1923   -1.8823   26.1912 H   0  0  0  0  0  0  0  0  0  0  0  0
   13.7238   -0.9829   27.3213 H   0  0  0  0  0  0  0  0  0  0  0  0
   10.4270    0.6263   25.0600 H   0  0  0  0  0  0  0  0  0  0  0  0
    5.6529    0.7487   22.0767 H   0  0  0  0  0  0  0  0  0  0  0  0
    3.6388    2.0586   21.6675 H   0  0  0  0  0  0  0  0  0  0  0  0
    2.9822    2.6968   19.3330 H   0  0  0  0  0  0  0  0  0  0  0  0
    4.4111    1.9893   17.4360 H   0  0  0  0  0  0  0  0  0  0  0  0
    8.6963   -6.8583   26.5445 H   0  0  0  0  0  0  0  0  0  0  0  0
    8.1391   -7.7500   27.9727 H   0  0  0  0  0  0  0  0  0  0  0  0
    9.3369   -6.4534   28.1441 H   0  0  0  0  0  0  0  0  0  0  0  0
   11.5842    0.7150   22.1561 H   0  0  0  0  0  0  0  0  0  0  0  0
   11.5525   -1.0164   21.9239 H   0  0  0  0  0  0  0  0  0  0  0  0
    7.0718   -5.6894   28.8689 H   0  0  0  0  0  0  0  0  0  0  0  0
    6.4145   -6.1140   27.2767 H   0  0  0  0  0  0  0  0  0  0  0  0
    9.5374    0.8439   23.4178 H   0  0  0  0  0  0  0  0  0  0  0  0
    7.9294   -5.3301   25.4756 H   0  0  0  0  0  0  0  0  0  0  0  0
    8.0713   -1.6185   21.0737 H   0  0  0  0  0  0  0  0  0  0  0  0
  1  2  2  0  0  0  0
  1  7  1  0  0  0  0
  2 10  1  0  0  0  0
  3  5  2  0  0  0  0
  3  9  1  0  0  0  0
  4  6  1  0  0  0  0
  4  9  2  0  0  0  0
  5 11  1  0  0  0  0
  6 11  2  0  0  0  0
  7 12  2  0  0  0  0
  8 10  2  0  0  0  0
  8 12  1  0  0  0  0
  9 24  1  0  0  0  0
 10 22  1  0  0  0  0
 11 28  1  0  0  0  0
 12 32  1  0  0  0  0
 13 14  2  0  0  0  0
 13 15  1  0  0  0  0
 13 27  1  0  0  0  0
 14 25  1  0  0  0  0
 14 29  1  0  0  0  0
 15 16  2  0  0  0  0
 16 17  1  0  0  0  0
 17 18  2  0  0  0  0
 18 27  1  0  0  0  0
 19 23  1  0  0  0  0
 19 28  1  0  0  0  0
 19 30  2  0  0  0  0
 20 24  1  0  0  0  0
 20 29  1  0  0  0  0
 20 31  2  0  0  0  0
 21 23  1  0  0  0  0
 22 24  1  1  0  0  0
 25 26  2  0  0  0  0
 26 27  1  0  0  0  0
  1 33  1  0  0  0  0
  2 34  1  0  0  0  0
  3 35  1  0  0  0  0
  4 36  1  0  0  0  0
  5 37  1  0  0  0  0
  6 38  1  0  0  0  0
  7 39  1  0  0  0  0
  8 40  1  0  0  0  0
 15 41  1  0  0  0  0
 16 42  1  0  0  0  0
 17 43  1  0  0  0  0
 18 44  1  0  0  0  0
 21 45  1  0  0  0  0
 21 46  1  0  0  0  0
 21 47  1  0  0  0  0
 22 48  1  0  0  0  0
 22 49  1  0  0  0  0
 23 50  1  0  0  0  0
 23 51  1  0  0  0  0
 24 52  1  0  0  0  0
 28 53  1  0  0  0  0
 29 54  1  0  0  0  0
M  END
> <clash_score>
0.7019283175170448

> <docking_score>
-4.794339179992676

> <overlap_score>
0.9140122532844543

$$$$
BENZO_261_1
  -OEChem-08232013543D

 59 63  0     1  0  0  0  0  0999 V2000
   12.7867    1.1712   26.6741 C   0  0  0  0  0  0  0  0  0  0  0  0
   11.5946    1.8532   26.9175 C   0  0  0  0  0  0  0  0  0  0  0  0
   12.9730    0.5019   25.4645 C   0  0  0  0  0  0  0  0  0  0  0  0
   10.5886    1.8659   25.9513 C   0  0  0  0  0  0  0  0  0  0  0  0
   11.9671    0.5146   24.4983 C   0  0  0  0  0  0  0  0  0  0  0  0
    9.5890   -2.4950   23.2210 C   0  0  0  0  0  0  0  0  0  0  0  0
    8.2550   -1.0010   24.5520 C   0  0  0  0  0  0  0  0  0  0  0  0
    9.1890   -3.5540   24.0140 C   0  0  0  0  0  0  0  0  0  0  0  0
    7.8700   -2.0610   25.3550 C   0  0  0  0  0  0  0  0  0  0  0  0
   10.7749    1.1966   24.7417 C   0  0  0  0  0  0  0  0  0  0  0  0
    9.1280   -1.2090   23.4870 C   0  0  0  0  0  0  0  0  0  0  0  0
    8.3450   -3.3440   25.0980 C   0  0  0  0  0  0  0  0  0  0  0  0
    6.1460    0.6070   19.9750 C   0  0  0  0  0  0  0  0  0  0  0  0
    7.2710   -0.1460   19.8310 C   0  0  0  0  0  0  0  0  0  0  0  0
    5.3890    1.0010   21.0690 C   0  0  0  0  0  0  0  0  0  0  0  0
    4.2460    1.7520   20.8250 C   0  0  0  0  0  0  0  0  0  0  0  0
    3.8860    2.1050   19.5250 C   0  0  0  0  0  0  0  0  0  0  0  0
    4.6610    1.7170   18.4380 C   0  0  0  0  0  0  0  0  0  0  0  0
    9.0430    0.2380   21.4940 C   0  0  0  0  0  0  0  0  0  0  0  0
    7.9496   -4.9537   28.7345 C   0  0  0  0  0  0  0  0  0  0  0  0
    6.8919   -4.0607   28.0818 C   0  0  0  0  0  0  0  0  0  0  0  0
    9.2470   -4.9693   27.9230 C   0  0  0  0  0  0  0  0  0  0  0  0
    6.6889   -4.4385   26.6147 C   0  0  0  0  0  0  0  0  0  0  0  0
    8.9871   -5.3207   26.4549 C   0  0  0  0  0  0  0  0  0  0  0  0
    9.6852    1.2097   23.6944 C   0  0  0  0  0  0  0  0  0  0  0  0
    9.5820   -0.1080   22.7000 C   0  0  1  0  0  0  0  0  0  0  0  0
    7.5840   -0.2700   18.5160 N   0  0  0  0  0  0  0  0  0  0  0  0
    6.7100    0.3850   17.8100 N   0  0  0  0  0  0  0  0  0  0  0  0
    5.7970    0.9500   18.6730 N   0  0  0  0  0  0  0  0  0  0  0  0
    7.9769   -4.4027   25.9163 N   0  0  0  0  0  0  0  0  0  0  0  0
    8.0950   -0.7700   20.8440 N   0  0  0  0  0  0  0  0  0  0  0  0
    9.2950    1.3000   20.9480 O   0  0  0  0  0  0  0  0  0  0  0  0
   13.5704    1.1625   27.4260 H   0  0  0  0  0  0  0  0  0  0  0  0
   11.4498    2.3753   27.8588 H   0  0  0  0  0  0  0  0  0  0  0  0
   13.9015   -0.0282   25.2743 H   0  0  0  0  0  0  0  0  0  0  0  0
    9.6629    2.3997   26.1496 H   0  0  0  0  0  0  0  0  0  0  0  0
   12.1210   -0.0097   23.5589 H   0  0  0  0  0  0  0  0  0  0  0  0
   10.2684   -2.6719   22.3867 H   0  0  0  0  0  0  0  0  0  0  0  0
    7.8717   -0.0016   24.7596 H   0  0  0  0  0  0  0  0  0  0  0  0
    9.5443   -4.5616   23.7817 H   0  0  0  0  0  0  0  0  0  0  0  0
    7.1921   -1.8821   26.1908 H   0  0  0  0  0  0  0  0  0  0  0  0
    5.6529    0.7487   22.0767 H   0  0  0  0  0  0  0  0  0  0  0  0
    3.6388    2.0586   21.6675 H   0  0  0  0  0  0  0  0  0  0  0  0
    2.9822    2.6968   19.3330 H   0  0  0  0  0  0  0  0  0  0  0  0
    4.4111    1.9893   17.4360 H   0  0  0  0  0  0  0  0  0  0  0  0
    8.1558   -4.5961   29.7550 H   0  0  0  0  0  0  0  0  0  0  0  0
    7.5611   -5.9778   28.8324 H   0  0  0  0  0  0  0  0  0  0  0  0
    5.9459   -4.1594   28.6209 H   0  0  0  0  0  0  0  0  0  0  0  0
    7.2011   -3.0160   28.1536 H   0  0  0  0  0  0  0  0  0  0  0  0
    9.7290   -3.9880   27.9846 H   0  0  0  0  0  0  0  0  0  0  0  0
    9.9437   -5.6964   28.3562 H   0  0  0  0  0  0  0  0  0  0  0  0
    6.2543   -5.4402   26.5659 H   0  0  0  0  0  0  0  0  0  0  0  0
    5.9909   -3.7397   26.1451 H   0  0  0  0  0  0  0  0  0  0  0  0
    9.9128   -5.2367   25.8843 H   0  0  0  0  0  0  0  0  0  0  0  0
    8.6365   -6.3517   26.3987 H   0  0  0  0  0  0  0  0  0  0  0  0
    8.7197    1.4079   24.1780 H   0  0  0  0  0  0  0  0  0  0  0  0
    9.8623    2.0699   23.0340 H   0  0  0  0  0  0  0  0  0  0  0  0
   10.7567   -0.2690   22.5478 H   0  0  0  0  0  0  0  0  0  0  0  0
    8.0917   -1.6083   21.0911 H   0  0  0  0  0  0  0  0  0  0  0  0
  1  2  1  0  0  0  0
  1  3  2  0  0  0  0
  2  4  2  0  0  0  0
  3  5  1  0  0  0  0
  4 10  1  0  0  0  0
  5 10  2  0  0  0  0
  6  8  2  0  0  0  0
  6 11  1  0  0  0  0
  7  9  1  0  0  0  0
  7 11  2  0  0  0  0
  8 12  1  0  0  0  0
  9 12  2  0  0  0  0
 10 25  1  0  0  0  0
 11 26  1  0  0  0  0
 12 30  1  0  0  0  0
 13 14  2  0  0  0  0
 13 15  1  0  0  0  0
 13 29  1  0  0  0  0
 14 27  1  0  0  0  0
 14 31  1  0  0  0  0
 15 16  2  0  0  0  0
 16 17  1  0  0  0  0
 17 18  2  0  0  0  0
 18 29  1  0  0  0  0
 19 26  1  1  0  0  0
 19 31  1  0  0  0  0
 19 32  2  0  0  0  0
 20 21  1  0  0  0  0
 20 22  1  0  0  0  0
 21 23  1  0  0  0  0
 22 24  1  0  0  0  0
 23 30  1  0  0  0  0
 24 30  1  0  0  0  0
 25 26  1  0  0  0  0
 27 28  2  0  0  0  0
 28 29  1  0  0  0  0
  1 33  1  0  0  0  0
  2 34  1  0  0  0  0
  3 35  1  0  0  0  0
  4 36  1  0  0  0  0
  5 37  1  0  0  0  0
  6 38  1  0  0  0  0
  7 39  1  0  0  0  0
  8 40  1  0  0  0  0
  9 41  1  0  0  0  0
 15 42  1  0  0  0  0
 16 43  1  0  0  0  0
 17 44  1  0  0  0  0
 18 45  1  0  0  0  0
 20 46  1  0  0  0  0
 20 47  1  0  0  0  0
 21 48  1  0  0  0  0
 21 49  1  0  0  0  0
 22 50  1  0  0  0  0
 22 51  1  0  0  0  0
 23 52  1  0  0  0  0
 23 53  1  0  0  0  0
 24 54  1  0  0  0  0
 24 55  1  0  0  0  0
 25 56  1  0  0  0  0
 25 57  1  0  0  0  0
 26 58  1  0  0  0  0
 31 59  1  0  0  0  0
M  END
> <clash_score>
4.412390761190569

> <docking_score>
-4.419809341430664

> <overlap_score>
0.8484475016593933

$$$$
BENZO_261_2
  -OEChem-08232013543D

 59 63  0     1  0  0  0  0  0999 V2000
   13.2443   -0.7791   26.3598 C   0  0  0  0  0  0  0  0  0  0  0  0
   13.7975   -1.2944   25.1876 C   0  0  0  0  0  0  0  0  0  0  0  0
   12.0380   -0.0803   26.3132 C   0  0  0  0  0  0  0  0  0  0  0  0
   13.1445   -1.1108   23.9688 C   0  0  0  0  0  0  0  0  0  0  0  0
   11.3850    0.1033   25.0944 C   0  0  0  0  0  0  0  0  0  0  0  0
    9.5890   -2.4950   23.2210 C   0  0  0  0  0  0  0  0  0  0  0  0
    8.2550   -1.0010   24.5520 C   0  0  0  0  0  0  0  0  0  0  0  0
    9.1890   -3.5540   24.0140 C   0  0  0  0  0  0  0  0  0  0  0  0
    7.8700   -2.0610   25.3550 C   0  0  0  0  0  0  0  0  0  0  0  0
   11.9382   -0.4119   23.9222 C   0  0  0  0  0  0  0  0  0  0  0  0
    9.1280   -1.2090   23.4870 C   0  0  0  0  0  0  0  0  0  0  0  0
    8.3450   -3.3440   25.0980 C   0  0  0  0  0  0  0  0  0  0  0  0
    6.1460    0.6070   19.9750 C   0  0  0  0  0  0  0  0  0  0  0  0
    7.2710   -0.1460   19.8310 C   0  0  0  0  0  0  0  0  0  0  0  0
    5.3890    1.0010   21.0690 C   0  0  0  0  0  0  0  0  0  0  0  0
    4.2460    1.7520   20.8250 C   0  0  0  0  0  0  0  0  0  0  0  0
    3.8860    2.1050   19.5250 C   0  0  0  0  0  0  0  0  0  0  0  0
    4.6610    1.7170   18.4380 C   0  0  0  0  0  0  0  0  0  0  0  0
    9.0430    0.2380   21.4940 C   0  0  0  0  0  0  0  0  0  0  0  0
    7.9496   -4.9537   28.7345 C   0  0  0  0  0  0  0  0  0  0  0  0
    6.8919   -4.0607   28.0818 C   0  0  0  0  0  0  0  0  0  0  0  0
    9.2470   -4.9693   27.9230 C   0  0  0  0  0  0  0  0  0  0  0  0
    6.6889   -4.4385   26.6147 C   0  0  0  0  0  0  0  0  0  0  0  0
    8.9871   -5.3207   26.4549 C   0  0  0  0  0  0  0  0  0  0  0  0
   11.2301   -0.2124   22.6019 C   0  0  0  0  0  0  0  0  0  0  0  0
    9.5820   -0.1080   22.7000 C   0  0  2  0  0  0  0  0  0  0  0  0
    7.5840   -0.2700   18.5160 N   0  0  0  0  0  0  0  0  0  0  0  0
    6.7100    0.3850   17.8100 N   0  0  0  0  0  0  0  0  0  0  0  0
    5.7970    0.9500   18.6730 N   0  0  0  0  0  0  0  0  0  0  0  0
    7.9769   -4.4027   25.9163 N   0  0  0  0  0  0  0  0  0  0  0  0
    8.0950   -0.7700   20.8440 N   0  0  0  0  0  0  0  0  0  0  0  0
    9.2950    1.3000   20.9480 O   0  0  0  0  0  0  0  0  0  0  0  0
   13.7523   -0.9233   27.3089 H   0  0  0  0  0  0  0  0  0  0  0  0
   14.7362   -1.8395   25.2238 H   0  0  0  0  0  0  0  0  0  0  0  0
   11.6065    0.3201   27.2258 H   0  0  0  0  0  0  0  0  0  0  0  0
   13.5830   -1.5156   23.0605 H   0  0  0  0  0  0  0  0  0  0  0  0
   10.4456    0.6492   25.0677 H   0  0  0  0  0  0  0  0  0  0  0  0
   10.2684   -2.6719   22.3867 H   0  0  0  0  0  0  0  0  0  0  0  0
    7.8717   -0.0016   24.7596 H   0  0  0  0  0  0  0  0  0  0  0  0
    9.5443   -4.5616   23.7817 H   0  0  0  0  0  0  0  0  0  0  0  0
    7.1921   -1.8821   26.1908 H   0  0  0  0  0  0  0  0  0  0  0  0
    5.6529    0.7487   22.0767 H   0  0  0  0  0  0  0  0  0  0  0  0
    3.6388    2.0586   21.6675 H   0  0  0  0  0  0  0  0  0  0  0  0
    2.9822    2.6968   19.3330 H   0  0  0  0  0  0  0  0  0  0  0  0
    4.4111    1.9893   17.4360 H   0  0  0  0  0  0  0  0  0  0  0  0
    8.1558   -4.5961   29.7550 H   0  0  0  0  0  0  0  0  0  0  0  0
    7.5611   -5.9778   28.8324 H   0  0  0  0  0  0  0  0  0  0  0  0
    5.9459   -4.1594   28.6209 H   0  0  0  0  0  0  0  0  0  0  0  0
    7.2011   -3.0160   28.1536 H   0  0  0  0  0  0  0  0  0  0  0  0
    9.7290   -3.9880   27.9846 H   0  0  0  0  0  0  0  0  0  0  0  0
    9.9437   -5.6964   28.3562 H   0  0  0  0  0  0  0  0  0  0  0  0
    6.2543   -5.4402   26.5659 H   0  0  0  0  0  0  0  0  0  0  0  0
    5.9909   -3.7397   26.1451 H   0  0  0  0  0  0  0  0  0  0  0  0
    9.9128   -5.2367   25.8843 H   0  0  0  0  0  0  0  0  0  0  0  0
    8.6365   -6.3517   26.3987 H   0  0  0  0  0  0  0  0  0  0  0  0
   11.5792    0.7206   22.1405 H   0  0  0  0  0  0  0  0  0  0  0  0
   11.5533   -1.0125   21.9215 H   0  0  0  0  0  0  0  0  0  0  0  0
    9.5402    0.8508   23.4127 H   0  0  0  0  0  0  0  0  0  0  0  0
    8.0917   -1.6083   21.0911 H   0  0  0  0  0  0  0  0  0  0  0  0
  1  2  1  0  0  0  0
  1  3  2  0  0  0  0
  2  4  2  0  0  0  0
  3  5  1  0  0  0  0
  4 10  1  0  0  0  0
  5 10  2  0  0  0  0
  6  8  2  0  0  0  0
  6 11  1  0  0  0  0
  7  9  1  0  0  0  0
  7 11  2  0  0  0  0
  8 12  1  0  0  0  0
  9 12  2  0  0  0  0
 10 25  1  0  0  0  0
 11 26  1  0  0  0  0
 12 30  1  0  0  0  0
 13 14  2  0  0  0  0
 13 15  1  0  0  0  0
 13 29  1  0  0  0  0
 14 27  1  0  0  0  0
 14 31  1  0  0  0  0
 15 16  2  0  0  0  0
 16 17  1  0  0  0  0
 17 18  2  0  0  0  0
 18 29  1  0  0  0  0
 19 26  1  6  0  0  0
 19 31  1  0  0  0  0
 19 32  2  0  0  0  0
 20 21  1  0  0  0  0
 20 22  1  0  0  0  0
 21 23  1  0  0  0  0
 22 24  1  0  0  0  0
 23 30  1  0  0  0  0
 24 30  1  0  0  0  0
 25 26  1  0  0  0  0
 27 28  2  0  0  0  0
 28 29  1  0  0  0  0
  1 33  1  0  0  0  0
  2 34  1  0  0  0  0
  3 35  1  0  0  0  0
  4 36  1  0  0  0  0
  5 37  1  0  0  0  0
  6 38  1  0  0  0  0
  7 39  1  0  0  0  0
  8 40  1  0  0  0  0
  9 41  1  0  0  0  0
 15 42  1  0  0  0  0
 16 43  1  0  0  0  0
 17 44  1  0  0  0  0
 18 45  1  0  0  0  0
 20 46  1  0  0  0  0
 20 47  1  0  0  0  0
 21 48  1  0  0  0  0
 21 49  1  0  0  0  0
 22 50  1  0  0  0  0
 22 51  1  0  0  0  0
 23 52  1  0  0  0  0
 23 53  1  0  0  0  0
 24 54  1  0  0  0  0
 24 55  1  0  0  0  0
 25 56  1  0  0  0  0
 25 57  1  0  0  0  0
 26 58  1  0  0  0  0
 31 59  1  0  0  0  0
M  END
> <clash_score>
0

> <docking_score>
-6.3235673904418945

> <overlap_score>
0.9206491112709045

$$$$
BENZO_258_2
  -OEChem-08232013543D

 54 57  0     1  0  0  0  0  0999 V2000
   13.0071    3.0433   23.6223 C   0  0  0  0  0  0  0  0  0  0  0  0
   12.0249    2.0998   23.9233 C   0  0  0  0  0  0  0  0  0  0  0  0
    9.5890   -2.4950   23.2210 C   0  0  0  0  0  0  0  0  0  0  0  0
    8.2550   -1.0010   24.5520 C   0  0  0  0  0  0  0  0  0  0  0  0
    9.1890   -3.5540   24.0140 C   0  0  0  0  0  0  0  0  0  0  0  0
    7.8700   -2.0610   25.3550 C   0  0  0  0  0  0  0  0  0  0  0  0
   12.7122    4.1112   22.7748 C   0  0  0  0  0  0  0  0  0  0  0  0
   10.4526    3.2920   22.5291 C   0  0  0  0  0  0  0  0  0  0  0  0
    9.1280   -1.2090   23.4870 C   0  0  0  0  0  0  0  0  0  0  0  0
   10.7476    2.2242   23.3766 C   0  0  0  0  0  0  0  0  0  0  0  0
    8.3450   -3.3440   25.0980 C   0  0  0  0  0  0  0  0  0  0  0  0
   11.4349    4.2356   22.2282 C   0  0  0  0  0  0  0  0  0  0  0  0
    6.1460    0.6070   19.9750 C   0  0  0  0  0  0  0  0  0  0  0  0
    7.2710   -0.1460   19.8310 C   0  0  0  0  0  0  0  0  0  0  0  0
    5.3890    1.0010   21.0690 C   0  0  0  0  0  0  0  0  0  0  0  0
    4.2460    1.7520   20.8250 C   0  0  0  0  0  0  0  0  0  0  0  0
    3.8860    2.1050   19.5250 C   0  0  0  0  0  0  0  0  0  0  0  0
    4.6610    1.7170   18.4380 C   0  0  0  0  0  0  0  0  0  0  0  0
    8.2023   -4.5553   27.2977 C   0  0  0  0  0  0  0  0  0  0  0  0
    9.0430    0.2380   21.4940 C   0  0  0  0  0  0  0  0  0  0  0  0
    7.8890   -6.0855   29.2893 C   0  0  0  0  0  0  0  0  0  0  0  0
    9.6841    1.2008   23.7022 C   0  0  0  0  0  0  0  0  0  0  0  0
    7.6346   -5.8715   27.8079 C   0  0  0  0  0  0  0  0  0  0  0  0
    9.5820   -0.1080   22.7000 C   0  0  2  0  0  0  0  0  0  0  0  0
    7.5840   -0.2700   18.5160 N   0  0  0  0  0  0  0  0  0  0  0  0
    6.7100    0.3850   17.8100 N   0  0  0  0  0  0  0  0  0  0  0  0
    5.7970    0.9500   18.6730 N   0  0  0  0  0  0  0  0  0  0  0  0
    7.9771   -4.4057   25.9197 N   0  0  0  0  0  0  0  0  0  0  0  0
    8.0950   -0.7700   20.8440 N   0  0  0  0  0  0  0  0  0  0  0  0
    8.7739   -3.7626   28.0389 O   0  0  0  0  0  0  0  0  0  0  0  0
    9.2950    1.3000   20.9480 O   0  0  0  0  0  0  0  0  0  0  0  0
   11.0719    5.5527   21.1817 Cl  0  0  0  0  0  0  0  0  0  0  0  0
   14.0017    2.9460   24.0481 H   0  0  0  0  0  0  0  0  0  0  0  0
   12.2636    1.2709   24.5845 H   0  0  0  0  0  0  0  0  0  0  0  0
   10.2695   -2.6718   22.3873 H   0  0  0  0  0  0  0  0  0  0  0  0
    7.8712   -0.0014   24.7587 H   0  0  0  0  0  0  0  0  0  0  0  0
    9.5431   -4.5618   23.7801 H   0  0  0  0  0  0  0  0  0  0  0  0
    7.1923   -1.8823   26.1912 H   0  0  0  0  0  0  0  0  0  0  0  0
   13.4877    4.8389   22.5488 H   0  0  0  0  0  0  0  0  0  0  0  0
    9.4551    3.3848   22.1058 H   0  0  0  0  0  0  0  0  0  0  0  0
    5.6529    0.7487   22.0767 H   0  0  0  0  0  0  0  0  0  0  0  0
    3.6388    2.0586   21.6675 H   0  0  0  0  0  0  0  0  0  0  0  0
    2.9822    2.6968   19.3330 H   0  0  0  0  0  0  0  0  0  0  0  0
    4.4111    1.9893   17.4360 H   0  0  0  0  0  0  0  0  0  0  0  0
    8.9617   -6.0800   29.5089 H   0  0  0  0  0  0  0  0  0  0  0  0
    7.4789   -7.0476   29.6112 H   0  0  0  0  0  0  0  0  0  0  0  0
    7.4201   -5.2966   29.8866 H   0  0  0  0  0  0  0  0  0  0  0  0
    9.7989    0.8777   24.7451 H   0  0  0  0  0  0  0  0  0  0  0  0
    8.7078    1.7032   23.6586 H   0  0  0  0  0  0  0  0  0  0  0  0
    6.5553   -5.8815   27.6173 H   0  0  0  0  0  0  0  0  0  0  0  0
    8.0879   -6.6901   27.2371 H   0  0  0  0  0  0  0  0  0  0  0  0
   10.7539   -0.2760   22.5528 H   0  0  0  0  0  0  0  0  0  0  0  0
    7.4774   -5.1800   25.4671 H   0  0  0  0  0  0  0  0  0  0  0  0
    8.0713   -1.6185   21.0737 H   0  0  0  0  0  0  0  0  0  0  0  0
  1  2  2  0  0  0  0
  1  7  1  0  0  0  0
  2 10  1  0  0  0  0
  3  5  2  0  0  0  0
  3  9  1  0  0  0  0
  4  6  1  0  0  0  0
  4  9  2  0  0  0  0
  5 11  1  0  0  0  0
  6 11  2  0  0  0  0
  7 12  2  0  0  0  0
  8 10  2  0  0  0  0
  8 12  1  0  0  0  0
  9 24  1  0  0  0  0
 10 22  1  0  0  0  0
 11 28  1  0  0  0  0
 12 32  1  0  0  0  0
 13 14  2  0  0  0  0
 13 15  1  0  0  0  0
 13 27  1  0  0  0  0
 14 25  1  0  0  0  0
 14 29  1  0  0  0  0
 15 16  2  0  0  0  0
 16 17  1  0  0  0  0
 17 18  2  0  0  0  0
 18 27  1  0  0  0  0
 19 23  1  0  0  0  0
 19 28  1  0  0  0  0
 19 30  2  0  0  0  0
 20 24  1  0  0  0  0
 20 29  1  0  0  0  0
 20 31  2  0  0  0  0
 21 23  1  0  0  0  0
 22 24  1  6  0  0  0
 25 26  2  0  0  0  0
 26 27  1  0  0  0  0
  1 33  1  0  0  0  0
  2 34  1  0  0  0  0
  3 35  1  0  0  0  0
  4 36  1  0  0  0  0
  5 37  1  0  0  0  0
  6 38  1  0  0  0  0
  7 39  1  0  0  0  0
  8 40  1  0  0  0  0
 15 41  1  0  0  0  0
 16 42  1  0  0  0  0
 17 43  1  0  0  0  0
 18 44  1  0  0  0  0
 21 45  1  0  0  0  0
 21 46  1  0  0  0  0
 21 47  1  0  0  0  0
 22 48  1  0  0  0  0
 22 49  1  0  0  0  0
 23 50  1  0  0  0  0
 23 51  1  0  0  0  0
 24 52  1  0  0  0  0
 28 53  1  0  0  0  0
 29 54  1  0  0  0  0
M  END
> <clash_score>
0.7409494713413645

> <docking_score>
-5.3487114906311035

> <overlap_score>
0.8378835320472717

$$$$
BENZO_259_1
  -OEChem-08232013543D

 54 57  0     1  0  0  0  0  0999 V2000
    9.5890   -2.4950   23.2210 C   0  0  0  0  0  0  0  0  0  0  0  0
    8.2550   -1.0010   24.5520 C   0  0  0  0  0  0  0  0  0  0  0  0
    9.1890   -3.5540   24.0140 C   0  0  0  0  0  0  0  0  0  0  0  0
    7.8700   -2.0610   25.3550 C   0  0  0  0  0  0  0  0  0  0  0  0
   13.3049   -0.5618   24.1710 C   0  0  0  0  0  0  0  0  0  0  0  0
   11.3487   -0.5397   25.1750 C   0  0  0  0  0  0  0  0  0  0  0  0
    9.1280   -1.2090   23.4870 C   0  0  0  0  0  0  0  0  0  0  0  0
   11.9236   -0.4323   23.9322 C   0  0  0  0  0  0  0  0  0  0  0  0
    8.3450   -3.3440   25.0980 C   0  0  0  0  0  0  0  0  0  0  0  0
    6.1460    0.6070   19.9750 C   0  0  0  0  0  0  0  0  0  0  0  0
    7.2710   -0.1460   19.8310 C   0  0  0  0  0  0  0  0  0  0  0  0
    5.3890    1.0010   21.0690 C   0  0  0  0  0  0  0  0  0  0  0  0
    4.2460    1.7520   20.8250 C   0  0  0  0  0  0  0  0  0  0  0  0
    3.8860    2.1050   19.5250 C   0  0  0  0  0  0  0  0  0  0  0  0
    4.6610    1.7170   18.4380 C   0  0  0  0  0  0  0  0  0  0  0  0
    7.6600   -4.3754   27.2874 C   0  0  0  0  0  0  0  0  0  0  0  0
    9.0430    0.2380   21.4940 C   0  0  0  0  0  0  0  0  0  0  0  0
    6.9949   -5.7777   29.2867 C   0  0  0  0  0  0  0  0  0  0  0  0
   12.2730   -0.8833   27.4785 C   0  0  0  0  0  0  0  0  0  0  0  0
   11.2273   -0.2199   22.6076 C   0  0  0  0  0  0  0  0  0  0  0  0
    7.3108   -5.7640   27.8018 C   0  0  0  0  0  0  0  0  0  0  0  0
    9.5820   -0.1080   22.7000 C   0  0  1  0  0  0  0  0  0  0  0  0
   13.5904   -0.7378   25.4639 N   0  0  0  0  0  0  0  0  0  0  0  0
    7.5840   -0.2700   18.5160 N   0  0  0  0  0  0  0  0  0  0  0  0
    6.7100    0.3850   17.8100 N   0  0  0  0  0  0  0  0  0  0  0  0
   12.3805   -0.7196   26.0486 N   0  0  0  0  0  0  0  0  0  0  0  0
    5.7970    0.9500   18.6730 N   0  0  0  0  0  0  0  0  0  0  0  0
    7.9771   -4.4057   25.9197 N   0  0  0  0  0  0  0  0  0  0  0  0
    8.0950   -0.7700   20.8440 N   0  0  0  0  0  0  0  0  0  0  0  0
    7.6497   -3.3897   28.0173 O   0  0  0  0  0  0  0  0  0  0  0  0
    9.2950    1.3000   20.9480 O   0  0  0  0  0  0  0  0  0  0  0  0
   10.2695   -2.6718   22.3873 H   0  0  0  0  0  0  0  0  0  0  0  0
    7.8712   -0.0014   24.7587 H   0  0  0  0  0  0  0  0  0  0  0  0
    9.5431   -4.5618   23.7801 H   0  0  0  0  0  0  0  0  0  0  0  0
    7.1923   -1.8823   26.1912 H   0  0  0  0  0  0  0  0  0  0  0  0
   14.1173   -0.5347   23.4586 H   0  0  0  0  0  0  0  0  0  0  0  0
   10.3191   -0.5030   25.5040 H   0  0  0  0  0  0  0  0  0  0  0  0
    5.6529    0.7487   22.0767 H   0  0  0  0  0  0  0  0  0  0  0  0
    3.6388    2.0586   21.6675 H   0  0  0  0  0  0  0  0  0  0  0  0
    2.9822    2.6968   19.3330 H   0  0  0  0  0  0  0  0  0  0  0  0
    4.4111    1.9893   17.4360 H   0  0  0  0  0  0  0  0  0  0  0  0
    7.8442   -5.4112   29.8727 H   0  0  0  0  0  0  0  0  0  0  0  0
    6.7644   -6.7949   29.6179 H   0  0  0  0  0  0  0  0  0  0  0  0
    6.1326   -5.1412   29.5110 H   0  0  0  0  0  0  0  0  0  0  0  0
   12.1730   -1.9514   27.6891 H   0  0  0  0  0  0  0  0  0  0  0  0
   13.1690   -0.4811   27.9595 H   0  0  0  0  0  0  0  0  0  0  0  0
   11.3970   -0.3376   27.8399 H   0  0  0  0  0  0  0  0  0  0  0  0
   11.5842    0.7150   22.1561 H   0  0  0  0  0  0  0  0  0  0  0  0
   11.5525   -1.0164   21.9239 H   0  0  0  0  0  0  0  0  0  0  0  0
    6.4453   -6.1349   27.2407 H   0  0  0  0  0  0  0  0  0  0  0  0
    8.1567   -6.4317   27.6017 H   0  0  0  0  0  0  0  0  0  0  0  0
    9.5374    0.8439   23.4178 H   0  0  0  0  0  0  0  0  0  0  0  0
    7.9294   -5.3301   25.4756 H   0  0  0  0  0  0  0  0  0  0  0  0
    8.0713   -1.6185   21.0737 H   0  0  0  0  0  0  0  0  0  0  0  0
  1  3  2  0  0  0  0
  1  7  1  0  0  0  0
  2  4  1  0  0  0  0
  2  7  2  0  0  0  0
  3  9  1  0  0  0  0
  4  9  2  0  0  0  0
  5  8  1  0  0  0  0
  5 23  2  0  0  0  0
  6  8  2  0  0  0  0
  6 26  1  0  0  0  0
  7 22  1  0  0  0  0
  8 20  1  0  0  0  0
  9 28  1  0  0  0  0
 10 11  2  0  0  0  0
 10 12  1  0  0  0  0
 10 27  1  0  0  0  0
 11 24  1  0  0  0  0
 11 29  1  0  0  0  0
 12 13  2  0  0  0  0
 13 14  1  0  0  0  0
 14 15  2  0  0  0  0
 15 27  1  0  0  0  0
 16 21  1  0  0  0  0
 16 28  1  0  0  0  0
 16 30  2  0  0  0  0
 17 22  1  0  0  0  0
 17 29  1  0  0  0  0
 17 31  2  0  0  0  0
 18 21  1  0  0  0  0
 19 26  1  0  0  0  0
 20 22  1  1  0  0  0
 23 26  1  0  0  0  0
 24 25  2  0  0  0  0
 25 27  1  0  0  0  0
  1 32  1  0  0  0  0
  2 33  1  0  0  0  0
  3 34  1  0  0  0  0
  4 35  1  0  0  0  0
  5 36  1  0  0  0  0
  6 37  1  0  0  0  0
 12 38  1  0  0  0  0
 13 39  1  0  0  0  0
 14 40  1  0  0  0  0
 15 41  1  0  0  0  0
 18 42  1  0  0  0  0
 18 43  1  0  0  0  0
 18 44  1  0  0  0  0
 19 45  1  0  0  0  0
 19 46  1  0  0  0  0
 19 47  1  0  0  0  0
 20 48  1  0  0  0  0
 20 49  1  0  0  0  0
 21 50  1  0  0  0  0
 21 51  1  0  0  0  0
 22 52  1  0  0  0  0
 28 53  1  0  0  0  0
 29 54  1  0  0  0  0
M  END
> <clash_score>
0.6627995857596533

> <docking_score>
-6.974149227142334

> <overlap_score>
0.9125070571899414

$$$$
BENZO_260_2
  -OEChem-08232013543D

 56 60  0     1  0  0  0  0  0999 V2000
    9.5890   -2.4950   23.2210 C   0  0  0  0  0  0  0  0  0  0  0  0
    8.2550   -1.0010   24.5520 C   0  0  0  0  0  0  0  0  0  0  0  0
    9.1890   -3.5540   24.0140 C   0  0  0  0  0  0  0  0  0  0  0  0
    7.8700   -2.0610   25.3550 C   0  0  0  0  0  0  0  0  0  0  0  0
   13.2184   -0.5267   24.2342 C   0  0  0  0  0  0  0  0  0  0  0  0
   13.6684   -0.1076   25.4669 C   0  0  0  0  0  0  0  0  0  0  0  0
   11.5072    0.9085   24.8781 C   0  0  0  0  0  0  0  0  0  0  0  0
    9.1280   -1.2090   23.4870 C   0  0  0  0  0  0  0  0  0  0  0  0
   11.9665    0.0619   23.8930 C   0  0  0  0  0  0  0  0  0  0  0  0
    8.3450   -3.3440   25.0980 C   0  0  0  0  0  0  0  0  0  0  0  0
    6.1460    0.6070   19.9750 C   0  0  0  0  0  0  0  0  0  0  0  0
    7.2710   -0.1460   19.8310 C   0  0  0  0  0  0  0  0  0  0  0  0
    5.3890    1.0010   21.0690 C   0  0  0  0  0  0  0  0  0  0  0  0
    4.2460    1.7520   20.8250 C   0  0  0  0  0  0  0  0  0  0  0  0
    3.8860    2.1050   19.5250 C   0  0  0  0  0  0  0  0  0  0  0  0
    4.6610    1.7170   18.4380 C   0  0  0  0  0  0  0  0  0  0  0  0
    9.0430    0.2380   21.4940 C   0  0  0  0  0  0  0  0  0  0  0  0
    7.5761   -4.8248   28.7286 C   0  0  0  0  0  0  0  0  0  0  0  0
    8.9786   -4.7540   28.1202 C   0  0  0  0  0  0  0  0  0  0  0  0
    6.5567   -4.0681   27.8739 C   0  0  0  0  0  0  0  0  0  0  0  0
    8.9617   -5.1961   26.6571 C   0  0  0  0  0  0  0  0  0  0  0  0
    6.6010   -4.5235   26.4120 C   0  0  0  0  0  0  0  0  0  0  0  0
   11.2301   -0.2124   22.6019 C   0  0  0  0  0  0  0  0  0  0  0  0
    9.5820   -0.1080   22.7000 C   0  0  2  0  0  0  0  0  0  0  0  0
    7.5840   -0.2700   18.5160 N   0  0  0  0  0  0  0  0  0  0  0  0
    6.7100    0.3850   17.8100 N   0  0  0  0  0  0  0  0  0  0  0  0
    5.7970    0.9500   18.6730 N   0  0  0  0  0  0  0  0  0  0  0  0
    7.9769   -4.4028   25.9163 N   0  0  0  0  0  0  0  0  0  0  0  0
    8.0950   -0.7700   20.8440 N   0  0  0  0  0  0  0  0  0  0  0  0
    9.2950    1.3000   20.9480 O   0  0  0  0  0  0  0  0  0  0  0  0
   12.5835    0.9912   26.2073 S   0  0  0  0  0  0  0  0  0  0  0  0
   10.2684   -2.6719   22.3867 H   0  0  0  0  0  0  0  0  0  0  0  0
    7.8717   -0.0016   24.7596 H   0  0  0  0  0  0  0  0  0  0  0  0
    9.5443   -4.5616   23.7817 H   0  0  0  0  0  0  0  0  0  0  0  0
    7.1921   -1.8821   26.1908 H   0  0  0  0  0  0  0  0  0  0  0  0
   13.7644   -1.2231   23.6104 H   0  0  0  0  0  0  0  0  0  0  0  0
   14.5818   -0.3944   25.9683 H   0  0  0  0  0  0  0  0  0  0  0  0
   10.5914    1.4831   24.8852 H   0  0  0  0  0  0  0  0  0  0  0  0
    5.6529    0.7487   22.0767 H   0  0  0  0  0  0  0  0  0  0  0  0
    3.6388    2.0586   21.6675 H   0  0  0  0  0  0  0  0  0  0  0  0
    2.9822    2.6968   19.3330 H   0  0  0  0  0  0  0  0  0  0  0  0
    4.4111    1.9893   17.4360 H   0  0  0  0  0  0  0  0  0  0  0  0
    7.2686   -5.8772   28.8258 H   0  0  0  0  0  0  0  0  0  0  0  0
    7.5913   -4.4060   29.7452 H   0  0  0  0  0  0  0  0  0  0  0  0
    9.3572   -3.7308   28.1906 H   0  0  0  0  0  0  0  0  0  0  0  0
    9.6566   -5.3928   28.6900 H   0  0  0  0  0  0  0  0  0  0  0  0
    5.5511   -4.2278   28.2766 H   0  0  0  0  0  0  0  0  0  0  0  0
    6.7568   -2.9917   27.9288 H   0  0  0  0  0  0  0  0  0  0  0  0
    9.9607   -5.0572   26.2357 H   0  0  0  0  0  0  0  0  0  0  0  0
    8.7084   -6.2581   26.5936 H   0  0  0  0  0  0  0  0  0  0  0  0
    6.2641   -5.5580   26.3358 H   0  0  0  0  0  0  0  0  0  0  0  0
    5.9273   -3.8947   25.8292 H   0  0  0  0  0  0  0  0  0  0  0  0
   11.5483    0.5130   21.8418 H   0  0  0  0  0  0  0  0  0  0  0  0
   11.5601   -1.1911   22.2267 H   0  0  0  0  0  0  0  0  0  0  0  0
    9.5402    0.8508   23.4127 H   0  0  0  0  0  0  0  0  0  0  0  0
    8.0917   -1.6083   21.0911 H   0  0  0  0  0  0  0  0  0  0  0  0
  1  3  2  0  0  0  0
  1  8  1  0  0  0  0
  2  4  1  0  0  0  0
  2  8  2  0  0  0  0
  3 10  1  0  0  0  0
  4 10  2  0  0  0  0
  5  6  2  0  0  0  0
  5  9  1  0  0  0  0
  6 31  1  0  0  0  0
  7  9  2  0  0  0  0
  7 31  1  0  0  0  0
  8 24  1  0  0  0  0
  9 23  1  0  0  0  0
 10 28  1  0  0  0  0
 11 12  2  0  0  0  0
 11 13  1  0  0  0  0
 11 27  1  0  0  0  0
 12 25  1  0  0  0  0
 12 29  1  0  0  0  0
 13 14  2  0  0  0  0
 14 15  1  0  0  0  0
 15 16  2  0  0  0  0
 16 27  1  0  0  0  0
 17 24  1  6  0  0  0
 17 29  1  0  0  0  0
 17 30  2  0  0  0  0
 18 19  1  0  0  0  0
 18 20  1  0  0  0  0
 19 21  1  0  0  0  0
 20 22  1  0  0  0  0
 21 28  1  0  0  0  0
 22 28  1  0  0  0  0
 23 24  1  0  0  0  0
 25 26  2  0  0  0  0
 26 27  1  0  0  0  0
  1 32  1  0  0  0  0
  2 33  1  0  0  0  0
  3 34  1  0  0  0  0
  4 35  1  0  0  0  0
  5 36  1  0  0  0  0
  6 37  1  0  0  0  0
  7 38  1  0  0  0  0
 13 39  1  0  0  0  0
 14 40  1  0  0  0  0
 15 41  1  0  0  0  0
 16 42  1  0  0  0  0
 18 43  1  0  0  0  0
 18 44  1  0  0  0  0
 19 45  1  0  0  0  0
 19 46  1  0  0  0  0
 20 47  1  0  0  0  0
 20 48  1  0  0  0  0
 21 49  1  0  0  0  0
 21 50  1  0  0  0  0
 22 51  1  0  0  0  0
 22 52  1  0  0  0  0
 23 53  1  0  0  0  0
 23 54  1  0  0  0  0
 24 55  1  0  0  0  0
 29 56  1  0  0  0  0
M  END
> <clash_score>
0.7105916266505203

> <docking_score>
-6.889013290405273

> <overlap_score>
0.9129956364631653

$$$$
BENZO_260_1
  -OEChem-08232013543D

 56 60  0     1  0  0  0  0  0999 V2000
    9.5890   -2.4950   23.2210 C   0  0  0  0  0  0  0  0  0  0  0  0
    8.2550   -1.0010   24.5520 C   0  0  0  0  0  0  0  0  0  0  0  0
    9.1890   -3.5540   24.0140 C   0  0  0  0  0  0  0  0  0  0  0  0
    7.8700   -2.0610   25.3550 C   0  0  0  0  0  0  0  0  0  0  0  0
   12.1512    0.9670   24.4534 C   0  0  0  0  0  0  0  0  0  0  0  0
   12.9313    1.0078   25.5880 C   0  0  0  0  0  0  0  0  0  0  0  0
   10.5554    1.4038   26.0859 C   0  0  0  0  0  0  0  0  0  0  0  0
    9.1280   -1.2090   23.4870 C   0  0  0  0  0  0  0  0  0  0  0  0
   10.7749    1.1966   24.7417 C   0  0  0  0  0  0  0  0  0  0  0  0
    8.3450   -3.3440   25.0980 C   0  0  0  0  0  0  0  0  0  0  0  0
    6.1460    0.6070   19.9750 C   0  0  0  0  0  0  0  0  0  0  0  0
    7.2710   -0.1460   19.8310 C   0  0  0  0  0  0  0  0  0  0  0  0
    5.3890    1.0010   21.0690 C   0  0  0  0  0  0  0  0  0  0  0  0
    4.2460    1.7520   20.8250 C   0  0  0  0  0  0  0  0  0  0  0  0
    3.8860    2.1050   19.5250 C   0  0  0  0  0  0  0  0  0  0  0  0
    4.6610    1.7170   18.4380 C   0  0  0  0  0  0  0  0  0  0  0  0
    9.0430    0.2380   21.4940 C   0  0  0  0  0  0  0  0  0  0  0  0
    7.5761   -4.8248   28.7286 C   0  0  0  0  0  0  0  0  0  0  0  0
    8.9786   -4.7540   28.1202 C   0  0  0  0  0  0  0  0  0  0  0  0
    6.5567   -4.0681   27.8739 C   0  0  0  0  0  0  0  0  0  0  0  0
    8.9617   -5.1961   26.6571 C   0  0  0  0  0  0  0  0  0  0  0  0
    6.6010   -4.5235   26.4120 C   0  0  0  0  0  0  0  0  0  0  0  0
    9.6852    1.2097   23.6944 C   0  0  0  0  0  0  0  0  0  0  0  0
    9.5820   -0.1080   22.7000 C   0  0  1  0  0  0  0  0  0  0  0  0
    7.5840   -0.2700   18.5160 N   0  0  0  0  0  0  0  0  0  0  0  0
    6.7100    0.3850   17.8100 N   0  0  0  0  0  0  0  0  0  0  0  0
    5.7970    0.9500   18.6730 N   0  0  0  0  0  0  0  0  0  0  0  0
    7.9769   -4.4028   25.9163 N   0  0  0  0  0  0  0  0  0  0  0  0
    8.0950   -0.7700   20.8440 N   0  0  0  0  0  0  0  0  0  0  0  0
    9.2950    1.3000   20.9480 O   0  0  0  0  0  0  0  0  0  0  0  0
   12.0050    1.3216   26.9937 S   0  0  0  0  0  0  0  0  0  0  0  0
   10.2684   -2.6719   22.3867 H   0  0  0  0  0  0  0  0  0  0  0  0
    7.8717   -0.0016   24.7596 H   0  0  0  0  0  0  0  0  0  0  0  0
    9.5443   -4.5616   23.7817 H   0  0  0  0  0  0  0  0  0  0  0  0
    7.1921   -1.8821   26.1908 H   0  0  0  0  0  0  0  0  0  0  0  0
   12.5530    0.7806   23.4654 H   0  0  0  0  0  0  0  0  0  0  0  0
   14.0007    0.8676   25.6589 H   0  0  0  0  0  0  0  0  0  0  0  0
    9.6149    1.5987   26.5824 H   0  0  0  0  0  0  0  0  0  0  0  0
    5.6529    0.7487   22.0767 H   0  0  0  0  0  0  0  0  0  0  0  0
    3.6388    2.0586   21.6675 H   0  0  0  0  0  0  0  0  0  0  0  0
    2.9822    2.6968   19.3330 H   0  0  0  0  0  0  0  0  0  0  0  0
    4.4111    1.9893   17.4360 H   0  0  0  0  0  0  0  0  0  0  0  0
    7.2686   -5.8772   28.8258 H   0  0  0  0  0  0  0  0  0  0  0  0
    7.5913   -4.4060   29.7452 H   0  0  0  0  0  0  0  0  0  0  0  0
    9.3572   -3.7308   28.1906 H   0  0  0  0  0  0  0  0  0  0  0  0
    9.6566   -5.3928   28.6900 H   0  0  0  0  0  0  0  0  0  0  0  0
    5.5511   -4.2278   28.2766 H   0  0  0  0  0  0  0  0  0  0  0  0
    6.7568   -2.9917   27.9288 H   0  0  0  0  0  0  0  0  0  0  0  0
    9.9607   -5.0572   26.2357 H   0  0  0  0  0  0  0  0  0  0  0  0
    8.7084   -6.2581   26.5936 H   0  0  0  0  0  0  0  0  0  0  0  0
    6.2641   -5.5580   26.3358 H   0  0  0  0  0  0  0  0  0  0  0  0
    5.9273   -3.8947   25.8292 H   0  0  0  0  0  0  0  0  0  0  0  0
    8.7197    1.4079   24.1780 H   0  0  0  0  0  0  0  0  0  0  0  0
    9.8623    2.0699   23.0340 H   0  0  0  0  0  0  0  0  0  0  0  0
   10.7567   -0.2690   22.5478 H   0  0  0  0  0  0  0  0  0  0  0  0
    8.0917   -1.6083   21.0911 H   0  0  0  0  0  0  0  0  0  0  0  0
  1  3  2  0  0  0  0
  1  8  1  0  0  0  0
  2  4  1  0  0  0  0
  2  8  2  0  0  0  0
  3 10  1  0  0  0  0
  4 10  2  0  0  0  0
  5  6  2  0  0  0  0
  5  9  1  0  0  0  0
  6 31  1  0  0  0  0
  7  9  2  0  0  0  0
  7 31  1  0  0  0  0
  8 24  1  0  0  0  0
  9 23  1  0  0  0  0
 10 28  1  0  0  0  0
 11 12  2  0  0  0  0
 11 13  1  0  0  0  0
 11 27  1  0  0  0  0
 12 25  1  0  0  0  0
 12 29  1  0  0  0  0
 13 14  2  0  0  0  0
 14 15  1  0  0  0  0
 15 16  2  0  0  0  0
 16 27  1  0  0  0  0
 17 24  1  1  0  0  0
 17 29  1  0  0  0  0
 17 30  2  0  0  0  0
 18 19  1  0  0  0  0
 18 20  1  0  0  0  0
 19 21  1  0  0  0  0
 20 22  1  0  0  0  0
 21 28  1  0  0  0  0
 22 28  1  0  0  0  0
 23 24  1  0  0  0  0
 25 26  2  0  0  0  0
 26 27  1  0  0  0  0
  1 32  1  0  0  0  0
  2 33  1  0  0  0  0
  3 34  1  0  0  0  0
  4 35  1  0  0  0  0
  5 36  1  0  0  0  0
  6 37  1  0  0  0  0
  7 38  1  0  0  0  0
 13 39  1  0  0  0  0
 14 40  1  0  0  0  0
 15 41  1  0  0  0  0
 16 42  1  0  0  0  0
 18 43  1  0  0  0  0
 18 44  1  0  0  0  0
 19 45  1  0  0  0  0
 19 46  1  0  0  0  0
 20 47  1  0  0  0  0
 20 48  1  0  0  0  0
 21 49  1  0  0  0  0
 21 50  1  0  0  0  0
 22 51  1  0  0  0  0
 22 52  1  0  0  0  0
 23 53  1  0  0  0  0
 23 54  1  0  0  0  0
 24 55  1  0  0  0  0
 29 56  1  0  0  0  0
M  END
> <clash_score>
2.6880314190474834

> <docking_score>
-4.829799652099609

> <overlap_score>
0.8419069051742554

$$$$
BENZO_259_2
  -OEChem-08232013543D

 54 57  0     1  0  0  0  0  0999 V2000
    9.5890   -2.4950   23.2210 C   0  0  0  0  0  0  0  0  0  0  0  0
    8.2550   -1.0010   24.5520 C   0  0  0  0  0  0  0  0  0  0  0  0
    9.1890   -3.5540   24.0140 C   0  0  0  0  0  0  0  0  0  0  0  0
    7.8700   -2.0610   25.3550 C   0  0  0  0  0  0  0  0  0  0  0  0
   11.9902    2.0095   22.7508 C   0  0  0  0  0  0  0  0  0  0  0  0
   10.7163    3.5749   23.6235 C   0  0  0  0  0  0  0  0  0  0  0  0
    9.1280   -1.2090   23.4870 C   0  0  0  0  0  0  0  0  0  0  0  0
   10.7476    2.2242   23.3766 C   0  0  0  0  0  0  0  0  0  0  0  0
    8.3450   -3.3440   25.0980 C   0  0  0  0  0  0  0  0  0  0  0  0
    6.1460    0.6070   19.9750 C   0  0  0  0  0  0  0  0  0  0  0  0
    7.2710   -0.1460   19.8310 C   0  0  0  0  0  0  0  0  0  0  0  0
    5.3890    1.0010   21.0690 C   0  0  0  0  0  0  0  0  0  0  0  0
    4.2460    1.7520   20.8250 C   0  0  0  0  0  0  0  0  0  0  0  0
    3.8860    2.1050   19.5250 C   0  0  0  0  0  0  0  0  0  0  0  0
    4.6610    1.7170   18.4380 C   0  0  0  0  0  0  0  0  0  0  0  0
    8.2023   -4.5553   27.2977 C   0  0  0  0  0  0  0  0  0  0  0  0
    9.0430    0.2380   21.4940 C   0  0  0  0  0  0  0  0  0  0  0  0
    7.8890   -6.0855   29.2893 C   0  0  0  0  0  0  0  0  0  0  0  0
   12.3234    5.4461   23.1826 C   0  0  0  0  0  0  0  0  0  0  0  0
    9.6841    1.2008   23.7022 C   0  0  0  0  0  0  0  0  0  0  0  0
    7.6346   -5.8715   27.8079 C   0  0  0  0  0  0  0  0  0  0  0  0
    9.5820   -0.1080   22.7000 C   0  0  2  0  0  0  0  0  0  0  0  0
   12.6971    3.1339   22.6087 N   0  0  0  0  0  0  0  0  0  0  0  0
    7.5840   -0.2700   18.5160 N   0  0  0  0  0  0  0  0  0  0  0  0
    6.7100    0.3850   17.8100 N   0  0  0  0  0  0  0  0  0  0  0  0
   11.8960    4.0681   23.1487 N   0  0  0  0  0  0  0  0  0  0  0  0
    5.7970    0.9500   18.6730 N   0  0  0  0  0  0  0  0  0  0  0  0
    7.9771   -4.4057   25.9197 N   0  0  0  0  0  0  0  0  0  0  0  0
    8.0950   -0.7700   20.8440 N   0  0  0  0  0  0  0  0  0  0  0  0
    8.7739   -3.7626   28.0389 O   0  0  0  0  0  0  0  0  0  0  0  0
    9.2950    1.3000   20.9480 O   0  0  0  0  0  0  0  0  0  0  0  0
   10.2695   -2.6718   22.3873 H   0  0  0  0  0  0  0  0  0  0  0  0
    7.8712   -0.0014   24.7587 H   0  0  0  0  0  0  0  0  0  0  0  0
    9.5431   -4.5618   23.7801 H   0  0  0  0  0  0  0  0  0  0  0  0
    7.1923   -1.8823   26.1912 H   0  0  0  0  0  0  0  0  0  0  0  0
   12.4119    1.0818   22.3906 H   0  0  0  0  0  0  0  0  0  0  0  0
    9.9731    4.2116   24.0840 H   0  0  0  0  0  0  0  0  0  0  0  0
    5.6529    0.7487   22.0767 H   0  0  0  0  0  0  0  0  0  0  0  0
    3.6388    2.0586   21.6675 H   0  0  0  0  0  0  0  0  0  0  0  0
    2.9822    2.6968   19.3330 H   0  0  0  0  0  0  0  0  0  0  0  0
    4.4111    1.9893   17.4360 H   0  0  0  0  0  0  0  0  0  0  0  0
    8.9617   -6.0800   29.5089 H   0  0  0  0  0  0  0  0  0  0  0  0
    7.4789   -7.0476   29.6112 H   0  0  0  0  0  0  0  0  0  0  0  0
    7.4201   -5.2966   29.8866 H   0  0  0  0  0  0  0  0  0  0  0  0
   12.8637    5.6088   24.1189 H   0  0  0  0  0  0  0  0  0  0  0  0
   12.9734    5.6469   22.3264 H   0  0  0  0  0  0  0  0  0  0  0  0
   11.4470    6.0978   23.1275 H   0  0  0  0  0  0  0  0  0  0  0  0
    9.7989    0.8777   24.7451 H   0  0  0  0  0  0  0  0  0  0  0  0
    8.7078    1.7032   23.6586 H   0  0  0  0  0  0  0  0  0  0  0  0
    6.5553   -5.8815   27.6173 H   0  0  0  0  0  0  0  0  0  0  0  0
    8.0879   -6.6901   27.2371 H   0  0  0  0  0  0  0  0  0  0  0  0
   10.7539   -0.2760   22.5528 H   0  0  0  0  0  0  0  0  0  0  0  0
    7.4774   -5.1800   25.4671 H   0  0  0  0  0  0  0  0  0  0  0  0
    8.0713   -1.6185   21.0737 H   0  0  0  0  0  0  0  0  0  0  0  0
  1  3  2  0  0  0  0
  1  7  1  0  0  0  0
  2  4  1  0  0  0  0
  2  7  2  0  0  0  0
  3  9  1  0  0  0  0
  4  9  2  0  0  0  0
  5  8  1  0  0  0  0
  5 23  2  0  0  0  0
  6  8  2  0  0  0  0
  6 26  1  0  0  0  0
  7 22  1  0  0  0  0
  8 20  1  0  0  0  0
  9 28  1  0  0  0  0
 10 11  2  0  0  0  0
 10 12  1  0  0  0  0
 10 27  1  0  0  0  0
 11 24  1  0  0  0  0
 11 29  1  0  0  0  0
 12 13  2  0  0  0  0
 13 14  1  0  0  0  0
 14 15  2  0  0  0  0
 15 27  1  0  0  0  0
 16 21  1  0  0  0  0
 16 28  1  0  0  0  0
 16 30  2  0  0  0  0
 17 22  1  0  0  0  0
 17 29  1  0  0  0  0
 17 31  2  0  0  0  0
 18 21  1  0  0  0  0
 19 26  1  0  0  0  0
 20 22  1  6  0  0  0
 23 26  1  0  0  0  0
 24 25  2  0  0  0  0
 25 27  1  0  0  0  0
  1 32  1  0  0  0  0
  2 33  1  0  0  0  0
  3 34  1  0  0  0  0
  4 35  1  0  0  0  0
  5 36  1  0  0  0  0
  6 37  1  0  0  0  0
 12 38  1  0  0  0  0
 13 39  1  0  0  0  0
 14 40  1  0  0  0  0
 15 41  1  0  0  0  0
 18 42  1  0  0  0  0
 18 43  1  0  0  0  0
 18 44  1  0  0  0  0
 19 45  1  0  0  0  0
 19 46  1  0  0  0  0
 19 47  1  0  0  0  0
 20 48  1  0  0  0  0
 20 49  1  0  0  0  0
 21 50  1  0  0  0  0
 21 51  1  0  0  0  0
 22 52  1  0  0  0  0
 28 53  1  0  0  0  0
 29 54  1  0  0  0  0
M  END
> <clash_score>
0

> <docking_score>
-7.959253311157227

> <overlap_score>
0.839091956615448

$$$$
BENZO_265_1
  -OEChem-08232013543D

 47 50  0     1  0  0  0  0  0999 V2000
   13.2081   -0.8233   26.3776 C   0  0  0  0  0  0  0  0  0  0  0  0
   13.7678   -1.3337   25.2064 C   0  0  0  0  0  0  0  0  0  0  0  0
   12.0060   -0.1174   26.3261 C   0  0  0  0  0  0  0  0  0  0  0  0
   13.1256   -1.1382   23.9837 C   0  0  0  0  0  0  0  0  0  0  0  0
   11.3638    0.0781   25.1034 C   0  0  0  0  0  0  0  0  0  0  0  0
    9.1890   -3.5540   24.0140 C   0  0  0  0  0  0  0  0  0  0  0  0
    7.8700   -2.0610   25.3550 C   0  0  0  0  0  0  0  0  0  0  0  0
    9.5890   -2.4950   23.2210 C   0  0  0  0  0  0  0  0  0  0  0  0
    8.2550   -1.0010   24.5520 C   0  0  0  0  0  0  0  0  0  0  0  0
    8.3450   -3.3440   25.0980 C   0  0  0  0  0  0  0  0  0  0  0  0
   11.9236   -0.4323   23.9322 C   0  0  0  0  0  0  0  0  0  0  0  0
    9.1280   -1.2090   23.4870 C   0  0  0  0  0  0  0  0  0  0  0  0
    6.1460    0.6070   19.9750 C   0  0  0  0  0  0  0  0  0  0  0  0
    7.2710   -0.1460   19.8310 C   0  0  0  0  0  0  0  0  0  0  0  0
    5.3890    1.0010   21.0690 C   0  0  0  0  0  0  0  0  0  0  0  0
    4.2460    1.7520   20.8250 C   0  0  0  0  0  0  0  0  0  0  0  0
    3.8860    2.1050   19.5250 C   0  0  0  0  0  0  0  0  0  0  0  0
    4.6610    1.7170   18.4380 C   0  0  0  0  0  0  0  0  0  0  0  0
    9.0430    0.2380   21.4940 C   0  0  0  0  0  0  0  0  0  0  0  0
    7.9517   -4.4787   25.9770 C   0  0  0  0  0  0  0  0  0  0  0  0
   11.2273   -0.2199   22.6076 C   0  0  0  0  0  0  0  0  0  0  0  0
    9.5820   -0.1080   22.7000 C   0  0  1  0  0  0  0  0  0  0  0  0
    7.5840   -0.2700   18.5160 N   0  0  0  0  0  0  0  0  0  0  0  0
    6.7100    0.3850   17.8100 N   0  0  0  0  0  0  0  0  0  0  0  0
    5.7970    0.9500   18.6730 N   0  0  0  0  0  0  0  0  0  0  0  0
    8.0950   -0.7700   20.8440 N   0  0  0  0  0  0  0  0  0  0  0  0
    9.2950    1.3000   20.9480 O   0  0  0  0  0  0  0  0  0  0  0  0
   13.7076   -0.9767   27.3297 H   0  0  0  0  0  0  0  0  0  0  0  0
   14.7032   -1.8843   25.2464 H   0  0  0  0  0  0  0  0  0  0  0  0
   11.5694    0.2792   27.2379 H   0  0  0  0  0  0  0  0  0  0  0  0
   13.5692   -1.5394   23.0762 H   0  0  0  0  0  0  0  0  0  0  0  0
   10.4277    0.6294   25.0729 H   0  0  0  0  0  0  0  0  0  0  0  0
    9.5416   -4.5625   23.7818 H   0  0  0  0  0  0  0  0  0  0  0  0
    7.1926   -1.8847   26.1916 H   0  0  0  0  0  0  0  0  0  0  0  0
   10.2688   -2.6720   22.3870 H   0  0  0  0  0  0  0  0  0  0  0  0
    7.8705   -0.0015   24.7579 H   0  0  0  0  0  0  0  0  0  0  0  0
    5.6529    0.7487   22.0767 H   0  0  0  0  0  0  0  0  0  0  0  0
    3.6388    2.0586   21.6675 H   0  0  0  0  0  0  0  0  0  0  0  0
    2.9822    2.6968   19.3330 H   0  0  0  0  0  0  0  0  0  0  0  0
    4.4111    1.9893   17.4360 H   0  0  0  0  0  0  0  0  0  0  0  0
    8.6661   -4.5883   26.8021 H   0  0  0  0  0  0  0  0  0  0  0  0
    6.9508   -4.3263   26.4014 H   0  0  0  0  0  0  0  0  0  0  0  0
    7.9188   -5.4228   25.4175 H   0  0  0  0  0  0  0  0  0  0  0  0
   11.5842    0.7150   22.1561 H   0  0  0  0  0  0  0  0  0  0  0  0
   11.5525   -1.0164   21.9239 H   0  0  0  0  0  0  0  0  0  0  0  0
    9.5374    0.8439   23.4178 H   0  0  0  0  0  0  0  0  0  0  0  0
    8.0713   -1.6185   21.0737 H   0  0  0  0  0  0  0  0  0  0  0  0
  1  2  1  0  0  0  0
  1  3  2  0  0  0  0
  2  4  2  0  0  0  0
  3  5  1  0  0  0  0
  4 11  1  0  0  0  0
  5 11  2  0  0  0  0
  6  8  2  0  0  0  0
  6 10  1  0  0  0  0
  7  9  1  0  0  0  0
  7 10  2  0  0  0  0
  8 12  1  0  0  0  0
  9 12  2  0  0  0  0
 10 20  1  0  0  0  0
 11 21  1  0  0  0  0
 12 22  1  0  0  0  0
 13 14  2  0  0  0  0
 13 15  1  0  0  0  0
 13 25  1  0  0  0  0
 14 23  1  0  0  0  0
 14 26  1  0  0  0  0
 15 16  2  0  0  0  0
 16 17  1  0  0  0  0
 17 18  2  0  0  0  0
 18 25  1  0  0  0  0
 19 22  1  0  0  0  0
 19 26  1  0  0  0  0
 19 27  2  0  0  0  0
 21 22  1  1  0  0  0
 23 24  2  0  0  0  0
 24 25  1  0  0  0  0
  1 28  1  0  0  0  0
  2 29  1  0  0  0  0
  3 30  1  0  0  0  0
  4 31  1  0  0  0  0
  5 32  1  0  0  0  0
  6 33  1  0  0  0  0
  7 34  1  0  0  0  0
  8 35  1  0  0  0  0
  9 36  1  0  0  0  0
 15 37  1  0  0  0  0
 16 38  1  0  0  0  0
 17 39  1  0  0  0  0
 18 40  1  0  0  0  0
 20 41  1  0  0  0  0
 20 42  1  0  0  0  0
 20 43  1  0  0  0  0
 21 44  1  0  0  0  0
 21 45  1  0  0  0  0
 22 46  1  0  0  0  0
 26 47  1  0  0  0  0
M  END
> <clash_score>
0

> <docking_score>
-5.496881484985352

> <overlap_score>
0.8309792280197144

$$$$
BENZO_265_2
  -OEChem-08232013543D

 47 50  0     1  0  0  0  0  0999 V2000
   12.7714    1.1058   26.6955 C   0  0  0  0  0  0  0  0  0  0  0  0
   12.3476    2.3261   26.1695 C   0  0  0  0  0  0  0  0  0  0  0  0
   12.1941   -0.0836   26.2506 C   0  0  0  0  0  0  0  0  0  0  0  0
   11.3464    2.3572   25.1987 C   0  0  0  0  0  0  0  0  0  0  0  0
   11.1930   -0.0526   25.2799 C   0  0  0  0  0  0  0  0  0  0  0  0
    9.1890   -3.5540   24.0140 C   0  0  0  0  0  0  0  0  0  0  0  0
    7.8700   -2.0610   25.3550 C   0  0  0  0  0  0  0  0  0  0  0  0
    9.5890   -2.4950   23.2210 C   0  0  0  0  0  0  0  0  0  0  0  0
    8.2550   -1.0010   24.5520 C   0  0  0  0  0  0  0  0  0  0  0  0
    8.3450   -3.3440   25.0980 C   0  0  0  0  0  0  0  0  0  0  0  0
   10.7691    1.1678   24.7539 C   0  0  0  0  0  0  0  0  0  0  0  0
    9.1280   -1.2090   23.4870 C   0  0  0  0  0  0  0  0  0  0  0  0
    6.1460    0.6070   19.9750 C   0  0  0  0  0  0  0  0  0  0  0  0
    7.2710   -0.1460   19.8310 C   0  0  0  0  0  0  0  0  0  0  0  0
    5.3890    1.0010   21.0690 C   0  0  0  0  0  0  0  0  0  0  0  0
    4.2460    1.7520   20.8250 C   0  0  0  0  0  0  0  0  0  0  0  0
    3.8860    2.1050   19.5250 C   0  0  0  0  0  0  0  0  0  0  0  0
    4.6610    1.7170   18.4380 C   0  0  0  0  0  0  0  0  0  0  0  0
    9.0430    0.2380   21.4940 C   0  0  0  0  0  0  0  0  0  0  0  0
    7.9517   -4.4787   25.9770 C   0  0  0  0  0  0  0  0  0  0  0  0
    9.6841    1.2008   23.7022 C   0  0  0  0  0  0  0  0  0  0  0  0
    9.5820   -0.1080   22.7000 C   0  0  2  0  0  0  0  0  0  0  0  0
    7.5840   -0.2700   18.5160 N   0  0  0  0  0  0  0  0  0  0  0  0
    6.7100    0.3850   17.8100 N   0  0  0  0  0  0  0  0  0  0  0  0
    5.7970    0.9500   18.6730 N   0  0  0  0  0  0  0  0  0  0  0  0
    8.0950   -0.7700   20.8440 N   0  0  0  0  0  0  0  0  0  0  0  0
    9.2950    1.3000   20.9480 O   0  0  0  0  0  0  0  0  0  0  0  0
   13.5519    1.0817   27.4504 H   0  0  0  0  0  0  0  0  0  0  0  0
   12.7977    3.2523   26.5149 H   0  0  0  0  0  0  0  0  0  0  0  0
   12.5246   -1.0340   26.6591 H   0  0  0  0  0  0  0  0  0  0  0  0
   11.0224    3.3127   24.7947 H   0  0  0  0  0  0  0  0  0  0  0  0
   10.7489   -0.9842   24.9394 H   0  0  0  0  0  0  0  0  0  0  0  0
    9.5416   -4.5625   23.7818 H   0  0  0  0  0  0  0  0  0  0  0  0
    7.1926   -1.8847   26.1916 H   0  0  0  0  0  0  0  0  0  0  0  0
   10.2688   -2.6720   22.3870 H   0  0  0  0  0  0  0  0  0  0  0  0
    7.8705   -0.0015   24.7579 H   0  0  0  0  0  0  0  0  0  0  0  0
    5.6529    0.7487   22.0767 H   0  0  0  0  0  0  0  0  0  0  0  0
    3.6388    2.0586   21.6675 H   0  0  0  0  0  0  0  0  0  0  0  0
    2.9822    2.6968   19.3330 H   0  0  0  0  0  0  0  0  0  0  0  0
    4.4111    1.9893   17.4360 H   0  0  0  0  0  0  0  0  0  0  0  0
    8.6661   -4.5883   26.8021 H   0  0  0  0  0  0  0  0  0  0  0  0
    6.9508   -4.3263   26.4014 H   0  0  0  0  0  0  0  0  0  0  0  0
    7.9188   -5.4228   25.4175 H   0  0  0  0  0  0  0  0  0  0  0  0
    8.7167    1.3910   24.1851 H   0  0  0  0  0  0  0  0  0  0  0  0
    9.8647    2.0727   23.0582 H   0  0  0  0  0  0  0  0  0  0  0  0
   10.7539   -0.2760   22.5528 H   0  0  0  0  0  0  0  0  0  0  0  0
    8.0713   -1.6185   21.0737 H   0  0  0  0  0  0  0  0  0  0  0  0
  1  2  1  0  0  0  0
  1  3  2  0  0  0  0
  2  4  2  0  0  0  0
  3  5  1  0  0  0  0
  4 11  1  0  0  0  0
  5 11  2  0  0  0  0
  6  8  2  0  0  0  0
  6 10  1  0  0  0  0
  7  9  1  0  0  0  0
  7 10  2  0  0  0  0
  8 12  1  0  0  0  0
  9 12  2  0  0  0  0
 10 20  1  0  0  0  0
 11 21  1  0  0  0  0
 12 22  1  0  0  0  0
 13 14  2  0  0  0  0
 13 15  1  0  0  0  0
 13 25  1  0  0  0  0
 14 23  1  0  0  0  0
 14 26  1  0  0  0  0
 15 16  2  0  0  0  0
 16 17  1  0  0  0  0
 17 18  2  0  0  0  0
 18 25  1  0  0  0  0
 19 22  1  0  0  0  0
 19 26  1  0  0  0  0
 19 27  2  0  0  0  0
 21 22  1  6  0  0  0
 23 24  2  0  0  0  0
 24 25  1  0  0  0  0
  1 28  1  0  0  0  0
  2 29  1  0  0  0  0
  3 30  1  0  0  0  0
  4 31  1  0  0  0  0
  5 32  1  0  0  0  0
  6 33  1  0  0  0  0
  7 34  1  0  0  0  0
  8 35  1  0  0  0  0
  9 36  1  0  0  0  0
 15 37  1  0  0  0  0
 16 38  1  0  0  0  0
 17 39  1  0  0  0  0
 18 40  1  0  0  0  0
 20 41  1  0  0  0  0
 20 42  1  0  0  0  0
 20 43  1  0  0  0  0
 21 44  1  0  0  0  0
 21 45  1  0  0  0  0
 22 46  1  0  0  0  0
 26 47  1  0  0  0  0
M  END
> <clash_score>
3.057015603833436

> <docking_score>
-3.707981824874878

> <overlap_score>
0.7437711954116821

$$$$
BENZO_264_2
  -OEChem-08232013543D

 44 47  0     1  0  0  0  0  0999 V2000
    9.1890   -3.5540   24.0140 C   0  0  0  0  0  0  0  0  0  0  0  0
    7.8700   -2.0610   25.3550 C   0  0  0  0  0  0  0  0  0  0  0  0
    9.5890   -2.4950   23.2210 C   0  0  0  0  0  0  0  0  0  0  0  0
    8.2550   -1.0010   24.5520 C   0  0  0  0  0  0  0  0  0  0  0  0
   11.7386    0.4828   25.1094 C   0  0  0  0  0  0  0  0  0  0  0  0
   12.1652    0.4005   26.4166 C   0  0  0  0  0  0  0  0  0  0  0  0
    9.8792    1.2919   26.2454 C   0  0  0  0  0  0  0  0  0  0  0  0
    8.3450   -3.3440   25.0980 C   0  0  0  0  0  0  0  0  0  0  0  0
    9.1280   -1.2090   23.4870 C   0  0  0  0  0  0  0  0  0  0  0  0
   10.4144    0.9993   25.0101 C   0  0  0  0  0  0  0  0  0  0  0  0
    6.1460    0.6070   19.9750 C   0  0  0  0  0  0  0  0  0  0  0  0
    7.2710   -0.1460   19.8310 C   0  0  0  0  0  0  0  0  0  0  0  0
    5.3890    1.0010   21.0690 C   0  0  0  0  0  0  0  0  0  0  0  0
    4.2460    1.7520   20.8250 C   0  0  0  0  0  0  0  0  0  0  0  0
    3.8860    2.1050   19.5250 C   0  0  0  0  0  0  0  0  0  0  0  0
    4.6610    1.7170   18.4380 C   0  0  0  0  0  0  0  0  0  0  0  0
    9.0430    0.2380   21.4940 C   0  0  0  0  0  0  0  0  0  0  0  0
    7.9517   -4.4787   25.9770 C   0  0  0  0  0  0  0  0  0  0  0  0
    9.6841    1.2008   23.7022 C   0  0  0  0  0  0  0  0  0  0  0  0
    9.5820   -0.1080   22.7000 C   0  0  2  0  0  0  0  0  0  0  0  0
    7.5840   -0.2700   18.5160 N   0  0  0  0  0  0  0  0  0  0  0  0
    6.7100    0.3850   17.8100 N   0  0  0  0  0  0  0  0  0  0  0  0
    5.7970    0.9500   18.6730 N   0  0  0  0  0  0  0  0  0  0  0  0
    8.0950   -0.7700   20.8440 N   0  0  0  0  0  0  0  0  0  0  0  0
    9.2950    1.3000   20.9480 O   0  0  0  0  0  0  0  0  0  0  0  0
   10.9716    0.9444   27.5174 S   0  0  0  0  0  0  0  0  0  0  0  0
    9.5416   -4.5625   23.7818 H   0  0  0  0  0  0  0  0  0  0  0  0
    7.1926   -1.8847   26.1916 H   0  0  0  0  0  0  0  0  0  0  0  0
   10.2688   -2.6720   22.3870 H   0  0  0  0  0  0  0  0  0  0  0  0
    7.8705   -0.0015   24.7579 H   0  0  0  0  0  0  0  0  0  0  0  0
   12.3506    0.1851   24.2673 H   0  0  0  0  0  0  0  0  0  0  0  0
   13.1203    0.0464   26.7779 H   0  0  0  0  0  0  0  0  0  0  0  0
    8.8993    1.6920   26.4662 H   0  0  0  0  0  0  0  0  0  0  0  0
    5.6529    0.7487   22.0767 H   0  0  0  0  0  0  0  0  0  0  0  0
    3.6388    2.0586   21.6675 H   0  0  0  0  0  0  0  0  0  0  0  0
    2.9822    2.6968   19.3330 H   0  0  0  0  0  0  0  0  0  0  0  0
    4.4111    1.9893   17.4360 H   0  0  0  0  0  0  0  0  0  0  0  0
    8.6661   -4.5883   26.8021 H   0  0  0  0  0  0  0  0  0  0  0  0
    6.9508   -4.3263   26.4014 H   0  0  0  0  0  0  0  0  0  0  0  0
    7.9188   -5.4228   25.4175 H   0  0  0  0  0  0  0  0  0  0  0  0
    8.6850    1.6088   23.9038 H   0  0  0  0  0  0  0  0  0  0  0  0
   10.2105    1.9839   23.1390 H   0  0  0  0  0  0  0  0  0  0  0  0
   10.7539   -0.2760   22.5528 H   0  0  0  0  0  0  0  0  0  0  0  0
    8.0713   -1.6185   21.0737 H   0  0  0  0  0  0  0  0  0  0  0  0
  1  3  2  0  0  0  0
  1  8  1  0  0  0  0
  2  4  1  0  0  0  0
  2  8  2  0  0  0  0
  3  9  1  0  0  0  0
  4  9  2  0  0  0  0
  5  6  2  0  0  0  0
  5 10  1  0  0  0  0
  6 26  1  0  0  0  0
  7 10  2  0  0  0  0
  7 26  1  0  0  0  0
  8 18  1  0  0  0  0
  9 20  1  0  0  0  0
 10 19  1  0  0  0  0
 11 12  2  0  0  0  0
 11 13  1  0  0  0  0
 11 23  1  0  0  0  0
 12 21  1  0  0  0  0
 12 24  1  0  0  0  0
 13 14  2  0  0  0  0
 14 15  1  0  0  0  0
 15 16  2  0  0  0  0
 16 23  1  0  0  0  0
 17 20  1  0  0  0  0
 17 24  1  0  0  0  0
 17 25  2  0  0  0  0
 19 20  1  6  0  0  0
 21 22  2  0  0  0  0
 22 23  1  0  0  0  0
  1 27  1  0  0  0  0
  2 28  1  0  0  0  0
  3 29  1  0  0  0  0
  4 30  1  0  0  0  0
  5 31  1  0  0  0  0
  6 32  1  0  0  0  0
  7 33  1  0  0  0  0
 13 34  1  0  0  0  0
 14 35  1  0  0  0  0
 15 36  1  0  0  0  0
 16 37  1  0  0  0  0
 18 38  1  0  0  0  0
 18 39  1  0  0  0  0
 18 40  1  0  0  0  0
 19 41  1  0  0  0  0
 19 42  1  0  0  0  0
 20 43  1  0  0  0  0
 24 44  1  0  0  0  0
M  END
> <clash_score>
2.2243094529018723

> <docking_score>
-3.5362837314605713

> <overlap_score>
0.7431653738021851

$$$$
BENZO_264_1
  -OEChem-08232013543D

 44 47  0     1  0  0  0  0  0999 V2000
    9.1890   -3.5540   24.0140 C   0  0  0  0  0  0  0  0  0  0  0  0
    7.8700   -2.0610   25.3550 C   0  0  0  0  0  0  0  0  0  0  0  0
    9.5890   -2.4950   23.2210 C   0  0  0  0  0  0  0  0  0  0  0  0
    8.2550   -1.0010   24.5520 C   0  0  0  0  0  0  0  0  0  0  0  0
   13.1524   -1.1384   24.0797 C   0  0  0  0  0  0  0  0  0  0  0  0
   13.5671   -1.1866   25.3924 C   0  0  0  0  0  0  0  0  0  0  0  0
   11.4459    0.0321   25.1380 C   0  0  0  0  0  0  0  0  0  0  0  0
    8.3450   -3.3440   25.0980 C   0  0  0  0  0  0  0  0  0  0  0  0
    9.1280   -1.2090   23.4870 C   0  0  0  0  0  0  0  0  0  0  0  0
   11.9236   -0.4323   23.9322 C   0  0  0  0  0  0  0  0  0  0  0  0
    6.1460    0.6070   19.9750 C   0  0  0  0  0  0  0  0  0  0  0  0
    7.2710   -0.1460   19.8310 C   0  0  0  0  0  0  0  0  0  0  0  0
    5.3890    1.0010   21.0690 C   0  0  0  0  0  0  0  0  0  0  0  0
    4.2460    1.7520   20.8250 C   0  0  0  0  0  0  0  0  0  0  0  0
    3.8860    2.1050   19.5250 C   0  0  0  0  0  0  0  0  0  0  0  0
    4.6610    1.7170   18.4380 C   0  0  0  0  0  0  0  0  0  0  0  0
    9.0430    0.2380   21.4940 C   0  0  0  0  0  0  0  0  0  0  0  0
    7.9517   -4.4787   25.9770 C   0  0  0  0  0  0  0  0  0  0  0  0
   11.2273   -0.2199   22.6076 C   0  0  0  0  0  0  0  0  0  0  0  0
    9.5820   -0.1080   22.7000 C   0  0  1  0  0  0  0  0  0  0  0  0
    7.5840   -0.2700   18.5160 N   0  0  0  0  0  0  0  0  0  0  0  0
    6.7100    0.3850   17.8100 N   0  0  0  0  0  0  0  0  0  0  0  0
    5.7970    0.9500   18.6730 N   0  0  0  0  0  0  0  0  0  0  0  0
    8.0950   -0.7700   20.8440 N   0  0  0  0  0  0  0  0  0  0  0  0
    9.2950    1.3000   20.9480 O   0  0  0  0  0  0  0  0  0  0  0  0
   12.4772   -0.3829   26.4405 S   0  0  0  0  0  0  0  0  0  0  0  0
    9.5416   -4.5625   23.7818 H   0  0  0  0  0  0  0  0  0  0  0  0
    7.1926   -1.8847   26.1916 H   0  0  0  0  0  0  0  0  0  0  0  0
   10.2688   -2.6720   22.3870 H   0  0  0  0  0  0  0  0  0  0  0  0
    7.8705   -0.0015   24.7579 H   0  0  0  0  0  0  0  0  0  0  0  0
   13.7070   -1.5901   23.2669 H   0  0  0  0  0  0  0  0  0  0  0  0
   14.4576   -1.6558   25.7863 H   0  0  0  0  0  0  0  0  0  0  0  0
   10.5407    0.5945   25.3209 H   0  0  0  0  0  0  0  0  0  0  0  0
    5.6529    0.7487   22.0767 H   0  0  0  0  0  0  0  0  0  0  0  0
    3.6388    2.0586   21.6675 H   0  0  0  0  0  0  0  0  0  0  0  0
    2.9822    2.6968   19.3330 H   0  0  0  0  0  0  0  0  0  0  0  0
    4.4111    1.9893   17.4360 H   0  0  0  0  0  0  0  0  0  0  0  0
    8.6661   -4.5883   26.8021 H   0  0  0  0  0  0  0  0  0  0  0  0
    6.9508   -4.3263   26.4014 H   0  0  0  0  0  0  0  0  0  0  0  0
    7.9188   -5.4228   25.4175 H   0  0  0  0  0  0  0  0  0  0  0  0
   11.5842    0.7150   22.1561 H   0  0  0  0  0  0  0  0  0  0  0  0
   11.5525   -1.0164   21.9239 H   0  0  0  0  0  0  0  0  0  0  0  0
    9.5374    0.8439   23.4178 H   0  0  0  0  0  0  0  0  0  0  0  0
    8.0713   -1.6185   21.0737 H   0  0  0  0  0  0  0  0  0  0  0  0
  1  3  2  0  0  0  0
  1  8  1  0  0  0  0
  2  4  1  0  0  0  0
  2  8  2  0  0  0  0
  3  9  1  0  0  0  0
  4  9  2  0  0  0  0
  5  6  2  0  0  0  0
  5 10  1  0  0  0  0
  6 26  1  0  0  0  0
  7 10  2  0  0  0  0
  7 26  1  0  0  0  0
  8 18  1  0  0  0  0
  9 20  1  0  0  0  0
 10 19  1  0  0  0  0
 11 12  2  0  0  0  0
 11 13  1  0  0  0  0
 11 23  1  0  0  0  0
 12 21  1  0  0  0  0
 12 24  1  0  0  0  0
 13 14  2  0  0  0  0
 14 15  1  0  0  0  0
 15 16  2  0  0  0  0
 16 23  1  0  0  0  0
 17 20  1  0  0  0  0
 17 24  1  0  0  0  0
 17 25  2  0  0  0  0
 19 20  1  1  0  0  0
 21 22  2  0  0  0  0
 22 23  1  0  0  0  0
  1 27  1  0  0  0  0
  2 28  1  0  0  0  0
  3 29  1  0  0  0  0
  4 30  1  0  0  0  0
  5 31  1  0  0  0  0
  6 32  1  0  0  0  0
  7 33  1  0  0  0  0
 13 34  1  0  0  0  0
 14 35  1  0  0  0  0
 15 36  1  0  0  0  0
 16 37  1  0  0  0  0
 18 38  1  0  0  0  0
 18 39  1  0  0  0  0
 18 40  1  0  0  0  0
 19 41  1  0  0  0  0
 19 42  1  0  0  0  0
 20 43  1  0  0  0  0
 24 44  1  0  0  0  0
M  END
> <clash_score>
0

> <docking_score>
-6.0017194747924805

> <overlap_score>
0.827311098575592

$$$$
BENZO_263_1
  -OEChem-08232013543D

 59 63  0     1  0  0  0  0  0999 V2000
    9.5890   -2.4950   23.2210 C   0  0  0  0  0  0  0  0  0  0  0  0
    8.2550   -1.0010   24.5520 C   0  0  0  0  0  0  0  0  0  0  0  0
    9.1890   -3.5540   24.0140 C   0  0  0  0  0  0  0  0  0  0  0  0
    7.8700   -2.0610   25.3550 C   0  0  0  0  0  0  0  0  0  0  0  0
   13.3220   -0.5321   24.1508 C   0  0  0  0  0  0  0  0  0  0  0  0
   11.3739   -0.5140   25.1703 C   0  0  0  0  0  0  0  0  0  0  0  0
    9.1280   -1.2090   23.4870 C   0  0  0  0  0  0  0  0  0  0  0  0
   11.9382   -0.4119   23.9222 C   0  0  0  0  0  0  0  0  0  0  0  0
    8.3450   -3.3440   25.0980 C   0  0  0  0  0  0  0  0  0  0  0  0
    6.1460    0.6070   19.9750 C   0  0  0  0  0  0  0  0  0  0  0  0
    7.2710   -0.1460   19.8310 C   0  0  0  0  0  0  0  0  0  0  0  0
    5.3890    1.0010   21.0690 C   0  0  0  0  0  0  0  0  0  0  0  0
    4.2460    1.7520   20.8250 C   0  0  0  0  0  0  0  0  0  0  0  0
    3.8860    2.1050   19.5250 C   0  0  0  0  0  0  0  0  0  0  0  0
    4.6610    1.7170   18.4380 C   0  0  0  0  0  0  0  0  0  0  0  0
    9.0430    0.2380   21.4940 C   0  0  0  0  0  0  0  0  0  0  0  0
    7.2166   -6.5202   27.7387 C   0  0  0  0  0  0  0  0  0  0  0  0
    6.3969   -6.2129   26.4916 C   0  0  0  0  0  0  0  0  0  0  0  0
    8.6789   -6.1571   27.5092 C   0  0  0  0  0  0  0  0  0  0  0  0
    6.5550   -4.7563   26.0581 C   0  0  0  0  0  0  0  0  0  0  0  0
    8.8315   -4.6994   27.0803 C   0  0  0  0  0  0  0  0  0  0  0  0
   12.3185   -0.8368   27.4686 C   0  0  0  0  0  0  0  0  0  0  0  0
   11.2301   -0.2124   22.6019 C   0  0  0  0  0  0  0  0  0  0  0  0
    9.5820   -0.1080   22.7000 C   0  0  1  0  0  0  0  0  0  0  0  0
   13.6189   -0.6977   25.4425 N   0  0  0  0  0  0  0  0  0  0  0  0
    7.5840   -0.2700   18.5160 N   0  0  0  0  0  0  0  0  0  0  0  0
    6.7100    0.3850   17.8100 N   0  0  0  0  0  0  0  0  0  0  0  0
   12.4136   -0.6822   26.0368 N   0  0  0  0  0  0  0  0  0  0  0  0
    5.7970    0.9500   18.6730 N   0  0  0  0  0  0  0  0  0  0  0  0
    7.9744   -4.4098   25.9218 N   0  0  0  0  0  0  0  0  0  0  0  0
    8.0950   -0.7700   20.8440 N   0  0  0  0  0  0  0  0  0  0  0  0
    9.2950    1.3000   20.9480 O   0  0  0  0  0  0  0  0  0  0  0  0
   10.2684   -2.6719   22.3867 H   0  0  0  0  0  0  0  0  0  0  0  0
    7.8717   -0.0016   24.7596 H   0  0  0  0  0  0  0  0  0  0  0  0
    9.5443   -4.5616   23.7817 H   0  0  0  0  0  0  0  0  0  0  0  0
    7.1921   -1.8821   26.1908 H   0  0  0  0  0  0  0  0  0  0  0  0
   14.1286   -0.5054   23.4317 H   0  0  0  0  0  0  0  0  0  0  0  0
   10.3467   -0.4808   25.5074 H   0  0  0  0  0  0  0  0  0  0  0  0
    5.6529    0.7487   22.0767 H   0  0  0  0  0  0  0  0  0  0  0  0
    3.6388    2.0586   21.6675 H   0  0  0  0  0  0  0  0  0  0  0  0
    2.9822    2.6968   19.3330 H   0  0  0  0  0  0  0  0  0  0  0  0
    4.4111    1.9893   17.4360 H   0  0  0  0  0  0  0  0  0  0  0  0
    6.8223   -5.9540   28.5911 H   0  0  0  0  0  0  0  0  0  0  0  0
    7.1313   -7.5835   27.9885 H   0  0  0  0  0  0  0  0  0  0  0  0
    6.7086   -6.8739   25.6731 H   0  0  0  0  0  0  0  0  0  0  0  0
    5.3392   -6.4247   26.6852 H   0  0  0  0  0  0  0  0  0  0  0  0
    9.2495   -6.3303   28.4287 H   0  0  0  0  0  0  0  0  0  0  0  0
    9.1068   -6.8127   26.7406 H   0  0  0  0  0  0  0  0  0  0  0  0
    6.0341   -4.6143   25.1030 H   0  0  0  0  0  0  0  0  0  0  0  0
    6.0814   -4.0959   26.7963 H   0  0  0  0  0  0  0  0  0  0  0  0
    8.5669   -4.0359   27.9136 H   0  0  0  0  0  0  0  0  0  0  0  0
    9.8836   -4.5143   26.8301 H   0  0  0  0  0  0  0  0  0  0  0  0
   12.2261   -1.9039   27.6872 H   0  0  0  0  0  0  0  0  0  0  0  0
   13.2160   -0.4264   27.9396 H   0  0  0  0  0  0  0  0  0  0  0  0
   11.4423   -0.2935   27.8333 H   0  0  0  0  0  0  0  0  0  0  0  0
   11.5792    0.7206   22.1405 H   0  0  0  0  0  0  0  0  0  0  0  0
   11.5533   -1.0125   21.9215 H   0  0  0  0  0  0  0  0  0  0  0  0
    9.5402    0.8508   23.4127 H   0  0  0  0  0  0  0  0  0  0  0  0
    8.0917   -1.6083   21.0911 H   0  0  0  0  0  0  0  0  0  0  0  0
  1  3  2  0  0  0  0
  1  7  1  0  0  0  0
  2  4  1  0  0  0  0
  2  7  2  0  0  0  0
  3  9  1  0  0  0  0
  4  9  2  0  0  0  0
  5  8  1  0  0  0  0
  5 25  2  0  0  0  0
  6  8  2  0  0  0  0
  6 28  1  0  0  0  0
  7 24  1  0  0  0  0
  8 23  1  0  0  0  0
  9 30  1  0  0  0  0
 10 11  2  0  0  0  0
 10 12  1  0  0  0  0
 10 29  1  0  0  0  0
 11 26  1  0  0  0  0
 11 31  1  0  0  0  0
 12 13  2  0  0  0  0
 13 14  1  0  0  0  0
 14 15  2  0  0  0  0
 15 29  1  0  0  0  0
 16 24  1  0  0  0  0
 16 31  1  0  0  0  0
 16 32  2  0  0  0  0
 17 18  1  0  0  0  0
 17 19  1  0  0  0  0
 18 20  1  0  0  0  0
 19 21  1  0  0  0  0
 20 30  1  0  0  0  0
 21 30  1  0  0  0  0
 22 28  1  0  0  0  0
 23 24  1  1  0  0  0
 25 28  1  0  0  0  0
 26 27  2  0  0  0  0
 27 29  1  0  0  0  0
  1 33  1  0  0  0  0
  2 34  1  0  0  0  0
  3 35  1  0  0  0  0
  4 36  1  0  0  0  0
  5 37  1  0  0  0  0
  6 38  1  0  0  0  0
 12 39  1  0  0  0  0
 13 40  1  0  0  0  0
 14 41  1  0  0  0  0
 15 42  1  0  0  0  0
 17 43  1  0  0  0  0
 17 44  1  0  0  0  0
 18 45  1  0  0  0  0
 18 46  1  0  0  0  0
 19 47  1  0  0  0  0
 19 48  1  0  0  0  0
 20 49  1  0  0  0  0
 20 50  1  0  0  0  0
 21 51  1  0  0  0  0
 21 52  1  0  0  0  0
 22 53  1  0  0  0  0
 22 54  1  0  0  0  0
 22 55  1  0  0  0  0
 23 56  1  0  0  0  0
 23 57  1  0  0  0  0
 24 58  1  0  0  0  0
 31 59  1  0  0  0  0
M  END
> <clash_score>
0.6568125957053412

> <docking_score>
-6.115533828735352

> <overlap_score>
0.9128094911575317

$$$$
BENZO_263_2
  -OEChem-08232013543D

 59 63  0     1  0  0  0  0  0999 V2000
    9.5890   -2.4950   23.2210 C   0  0  0  0  0  0  0  0  0  0  0  0
    8.2550   -1.0010   24.5520 C   0  0  0  0  0  0  0  0  0  0  0  0
    9.1890   -3.5540   24.0140 C   0  0  0  0  0  0  0  0  0  0  0  0
    7.8700   -2.0610   25.3550 C   0  0  0  0  0  0  0  0  0  0  0  0
   12.0923    1.6786   24.6236 C   0  0  0  0  0  0  0  0  0  0  0  0
   10.6999    0.7130   26.0250 C   0  0  0  0  0  0  0  0  0  0  0  0
    9.1280   -1.2090   23.4870 C   0  0  0  0  0  0  0  0  0  0  0  0
   10.7749    1.1966   24.7417 C   0  0  0  0  0  0  0  0  0  0  0  0
    8.3450   -3.3440   25.0980 C   0  0  0  0  0  0  0  0  0  0  0  0
    6.1460    0.6070   19.9750 C   0  0  0  0  0  0  0  0  0  0  0  0
    7.2710   -0.1460   19.8310 C   0  0  0  0  0  0  0  0  0  0  0  0
    5.3890    1.0010   21.0690 C   0  0  0  0  0  0  0  0  0  0  0  0
    4.2460    1.7520   20.8250 C   0  0  0  0  0  0  0  0  0  0  0  0
    3.8860    2.1050   19.5250 C   0  0  0  0  0  0  0  0  0  0  0  0
    4.6610    1.7170   18.4380 C   0  0  0  0  0  0  0  0  0  0  0  0
    9.0430    0.2380   21.4940 C   0  0  0  0  0  0  0  0  0  0  0  0
    7.9496   -4.9537   28.7345 C   0  0  0  0  0  0  0  0  0  0  0  0
    6.8919   -4.0607   28.0818 C   0  0  0  0  0  0  0  0  0  0  0  0
    9.2470   -4.9693   27.9230 C   0  0  0  0  0  0  0  0  0  0  0  0
    6.6889   -4.4385   26.6147 C   0  0  0  0  0  0  0  0  0  0  0  0
    8.9871   -5.3207   26.4549 C   0  0  0  0  0  0  0  0  0  0  0  0
   12.3371    0.5840   27.9175 C   0  0  0  0  0  0  0  0  0  0  0  0
    9.6852    1.2097   23.6944 C   0  0  0  0  0  0  0  0  0  0  0  0
    9.5820   -0.1080   22.7000 C   0  0  2  0  0  0  0  0  0  0  0  0
   12.8030    1.5161   25.7428 N   0  0  0  0  0  0  0  0  0  0  0  0
    7.5840   -0.2700   18.5160 N   0  0  0  0  0  0  0  0  0  0  0  0
    6.7100    0.3850   17.8100 N   0  0  0  0  0  0  0  0  0  0  0  0
   11.9290    0.9267   26.5763 N   0  0  0  0  0  0  0  0  0  0  0  0
    5.7970    0.9500   18.6730 N   0  0  0  0  0  0  0  0  0  0  0  0
    7.9769   -4.4027   25.9163 N   0  0  0  0  0  0  0  0  0  0  0  0
    8.0950   -0.7700   20.8440 N   0  0  0  0  0  0  0  0  0  0  0  0
    9.2950    1.3000   20.9480 O   0  0  0  0  0  0  0  0  0  0  0  0
   10.2684   -2.6719   22.3867 H   0  0  0  0  0  0  0  0  0  0  0  0
    7.8717   -0.0016   24.7596 H   0  0  0  0  0  0  0  0  0  0  0  0
    9.5443   -4.5616   23.7817 H   0  0  0  0  0  0  0  0  0  0  0  0
    7.1921   -1.8821   26.1908 H   0  0  0  0  0  0  0  0  0  0  0  0
   12.5660    2.1426   23.7701 H   0  0  0  0  0  0  0  0  0  0  0  0
    9.8962    0.2478   26.5796 H   0  0  0  0  0  0  0  0  0  0  0  0
    5.6529    0.7487   22.0767 H   0  0  0  0  0  0  0  0  0  0  0  0
    3.6388    2.0586   21.6675 H   0  0  0  0  0  0  0  0  0  0  0  0
    2.9822    2.6968   19.3330 H   0  0  0  0  0  0  0  0  0  0  0  0
    4.4111    1.9893   17.4360 H   0  0  0  0  0  0  0  0  0  0  0  0
    8.1558   -4.5961   29.7550 H   0  0  0  0  0  0  0  0  0  0  0  0
    7.5611   -5.9778   28.8324 H   0  0  0  0  0  0  0  0  0  0  0  0
    5.9459   -4.1594   28.6209 H   0  0  0  0  0  0  0  0  0  0  0  0
    7.2011   -3.0160   28.1536 H   0  0  0  0  0  0  0  0  0  0  0  0
    9.7290   -3.9880   27.9846 H   0  0  0  0  0  0  0  0  0  0  0  0
    9.9437   -5.6964   28.3562 H   0  0  0  0  0  0  0  0  0  0  0  0
    6.2543   -5.4402   26.5659 H   0  0  0  0  0  0  0  0  0  0  0  0
    5.9909   -3.7397   26.1451 H   0  0  0  0  0  0  0  0  0  0  0  0
    9.9128   -5.2367   25.8843 H   0  0  0  0  0  0  0  0  0  0  0  0
    8.6365   -6.3517   26.3987 H   0  0  0  0  0  0  0  0  0  0  0  0
   12.7446   -0.4302   27.8973 H   0  0  0  0  0  0  0  0  0  0  0  0
   13.0952    1.2938   28.2601 H   0  0  0  0  0  0  0  0  0  0  0  0
   11.4711    0.6360   28.5832 H   0  0  0  0  0  0  0  0  0  0  0  0
    8.7197    1.4079   24.1780 H   0  0  0  0  0  0  0  0  0  0  0  0
    9.8623    2.0699   23.0340 H   0  0  0  0  0  0  0  0  0  0  0  0
   10.7567   -0.2690   22.5478 H   0  0  0  0  0  0  0  0  0  0  0  0
    8.0917   -1.6083   21.0911 H   0  0  0  0  0  0  0  0  0  0  0  0
  1  3  2  0  0  0  0
  1  7  1  0  0  0  0
  2  4  1  0  0  0  0
  2  7  2  0  0  0  0
  3  9  1  0  0  0  0
  4  9  2  0  0  0  0
  5  8  1  0  0  0  0
  5 25  2  0  0  0  0
  6  8  2  0  0  0  0
  6 28  1  0  0  0  0
  7 24  1  0  0  0  0
  8 23  1  0  0  0  0
  9 30  1  0  0  0  0
 10 11  2  0  0  0  0
 10 12  1  0  0  0  0
 10 29  1  0  0  0  0
 11 26  1  0  0  0  0
 11 31  1  0  0  0  0
 12 13  2  0  0  0  0
 13 14  1  0  0  0  0
 14 15  2  0  0  0  0
 15 29  1  0  0  0  0
 16 24  1  0  0  0  0
 16 31  1  0  0  0  0
 16 32  2  0  0  0  0
 17 18  1  0  0  0  0
 17 19  1  0  0  0  0
 18 20  1  0  0  0  0
 19 21  1  0  0  0  0
 20 30  1  0  0  0  0
 21 30  1  0  0  0  0
 22 28  1  0  0  0  0
 23 24  1  6  0  0  0
 25 28  1  0  0  0  0
 26 27  2  0  0  0  0
 27 29  1  0  0  0  0
  1 33  1  0  0  0  0
  2 34  1  0  0  0  0
  3 35  1  0  0  0  0
  4 36  1  0  0  0  0
  5 37  1  0  0  0  0
  6 38  1  0  0  0  0
 12 39  1  0  0  0  0
 13 40  1  0  0  0  0
 14 41  1  0  0  0  0
 15 42  1  0  0  0  0
 17 43  1  0  0  0  0
 17 44  1  0  0  0  0
 18 45  1  0  0  0  0
 18 46  1  0  0  0  0
 19 47  1  0  0  0  0
 19 48  1  0  0  0  0
 20 49  1  0  0  0  0
 20 50  1  0  0  0  0
 21 51  1  0  0  0  0
 21 52  1  0  0  0  0
 22 53  1  0  0  0  0
 22 54  1  0  0  0  0
 22 55  1  0  0  0  0
 23 56  1  0  0  0  0
 23 57  1  0  0  0  0
 24 58  1  0  0  0  0
 31 59  1  0  0  0  0
M  END
> <clash_score>
2.0015532831426643

> <docking_score>
-3.9790573120117188

> <overlap_score>
0.829846203327179

$$$$
BENZO_262_2
  -OEChem-08232013543D

 59 63  0     1  0  0  0  0  0999 V2000
   13.7993   -1.2937   25.1853 C   0  0  0  0  0  0  0  0  0  0  0  0
   13.1448   -1.1102   23.9673 C   0  0  0  0  0  0  0  0  0  0  0  0
    9.5890   -2.4950   23.2210 C   0  0  0  0  0  0  0  0  0  0  0  0
    8.2550   -1.0010   24.5520 C   0  0  0  0  0  0  0  0  0  0  0  0
    9.1890   -3.5540   24.0140 C   0  0  0  0  0  0  0  0  0  0  0  0
    7.8700   -2.0610   25.3550 C   0  0  0  0  0  0  0  0  0  0  0  0
   13.2472   -0.7790   26.3583 C   0  0  0  0  0  0  0  0  0  0  0  0
   11.3860    0.1028   25.0952 C   0  0  0  0  0  0  0  0  0  0  0  0
    9.1280   -1.2090   23.4870 C   0  0  0  0  0  0  0  0  0  0  0  0
   11.9382   -0.4119   23.9222 C   0  0  0  0  0  0  0  0  0  0  0  0
    8.3450   -3.3440   25.0980 C   0  0  0  0  0  0  0  0  0  0  0  0
   12.0405   -0.0807   26.3132 C   0  0  0  0  0  0  0  0  0  0  0  0
    6.1460    0.6070   19.9750 C   0  0  0  0  0  0  0  0  0  0  0  0
    7.2710   -0.1460   19.8310 C   0  0  0  0  0  0  0  0  0  0  0  0
    5.3890    1.0010   21.0690 C   0  0  0  0  0  0  0  0  0  0  0  0
    4.2460    1.7520   20.8250 C   0  0  0  0  0  0  0  0  0  0  0  0
    3.8860    2.1050   19.5250 C   0  0  0  0  0  0  0  0  0  0  0  0
    4.6610    1.7170   18.4380 C   0  0  0  0  0  0  0  0  0  0  0  0
    9.0430    0.2380   21.4940 C   0  0  0  0  0  0  0  0  0  0  0  0
    7.9496   -4.9537   28.7345 C   0  0  0  0  0  0  0  0  0  0  0  0
    6.8919   -4.0607   28.0818 C   0  0  0  0  0  0  0  0  0  0  0  0
    9.2470   -4.9693   27.9230 C   0  0  0  0  0  0  0  0  0  0  0  0
    6.6889   -4.4385   26.6147 C   0  0  0  0  0  0  0  0  0  0  0  0
    8.9871   -5.3207   26.4549 C   0  0  0  0  0  0  0  0  0  0  0  0
   11.2301   -0.2124   22.6019 C   0  0  0  0  0  0  0  0  0  0  0  0
    9.5820   -0.1080   22.7000 C   0  0  2  0  0  0  0  0  0  0  0  0
    7.5840   -0.2700   18.5160 N   0  0  0  0  0  0  0  0  0  0  0  0
    6.7100    0.3850   17.8100 N   0  0  0  0  0  0  0  0  0  0  0  0
    5.7970    0.9500   18.6730 N   0  0  0  0  0  0  0  0  0  0  0  0
    7.9769   -4.4027   25.9163 N   0  0  0  0  0  0  0  0  0  0  0  0
    8.0950   -0.7700   20.8440 N   0  0  0  0  0  0  0  0  0  0  0  0
    9.2950    1.3000   20.9480 O   0  0  0  0  0  0  0  0  0  0  0  0
   11.3604    0.5551   27.7606 Cl  0  0  0  0  0  0  0  0  0  0  0  0
   14.7390   -1.8374   25.2199 H   0  0  0  0  0  0  0  0  0  0  0  0
   13.5824   -1.5147   23.0583 H   0  0  0  0  0  0  0  0  0  0  0  0
   10.2684   -2.6719   22.3867 H   0  0  0  0  0  0  0  0  0  0  0  0
    7.8717   -0.0016   24.7596 H   0  0  0  0  0  0  0  0  0  0  0  0
    9.5443   -4.5616   23.7817 H   0  0  0  0  0  0  0  0  0  0  0  0
    7.1921   -1.8821   26.1908 H   0  0  0  0  0  0  0  0  0  0  0  0
   13.7685   -0.9294   27.3004 H   0  0  0  0  0  0  0  0  0  0  0  0
   10.4447    0.6461   25.0548 H   0  0  0  0  0  0  0  0  0  0  0  0
    5.6529    0.7487   22.0767 H   0  0  0  0  0  0  0  0  0  0  0  0
    3.6388    2.0586   21.6675 H   0  0  0  0  0  0  0  0  0  0  0  0
    2.9822    2.6968   19.3330 H   0  0  0  0  0  0  0  0  0  0  0  0
    4.4111    1.9893   17.4360 H   0  0  0  0  0  0  0  0  0  0  0  0
    8.1558   -4.5961   29.7550 H   0  0  0  0  0  0  0  0  0  0  0  0
    7.5611   -5.9778   28.8324 H   0  0  0  0  0  0  0  0  0  0  0  0
    5.9459   -4.1594   28.6209 H   0  0  0  0  0  0  0  0  0  0  0  0
    7.2011   -3.0160   28.1536 H   0  0  0  0  0  0  0  0  0  0  0  0
    9.7290   -3.9880   27.9846 H   0  0  0  0  0  0  0  0  0  0  0  0
    9.9437   -5.6964   28.3562 H   0  0  0  0  0  0  0  0  0  0  0  0
    6.2543   -5.4402   26.5659 H   0  0  0  0  0  0  0  0  0  0  0  0
    5.9909   -3.7397   26.1451 H   0  0  0  0  0  0  0  0  0  0  0  0
    9.9128   -5.2367   25.8843 H   0  0  0  0  0  0  0  0  0  0  0  0
    8.6365   -6.3517   26.3987 H   0  0  0  0  0  0  0  0  0  0  0  0
   11.5792    0.7206   22.1405 H   0  0  0  0  0  0  0  0  0  0  0  0
   11.5533   -1.0125   21.9215 H   0  0  0  0  0  0  0  0  0  0  0  0
    9.5402    0.8508   23.4127 H   0  0  0  0  0  0  0  0  0  0  0  0
    8.0917   -1.6083   21.0911 H   0  0  0  0  0  0  0  0  0  0  0  0
  1  2  2  0  0  0  0
  1  7  1  0  0  0  0
  2 10  1  0  0  0  0
  3  5  2  0  0  0  0
  3  9  1  0  0  0  0
  4  6  1  0  0  0  0
  4  9  2  0  0  0  0
  5 11  1  0  0  0  0
  6 11  2  0  0  0  0
  7 12  2  0  0  0  0
  8 10  2  0  0  0  0
  8 12  1  0  0  0  0
  9 26  1  0  0  0  0
 10 25  1  0  0  0  0
 11 30  1  0  0  0  0
 12 33  1  0  0  0  0
 13 14  2  0  0  0  0
 13 15  1  0  0  0  0
 13 29  1  0  0  0  0
 14 27  1  0  0  0  0
 14 31  1  0  0  0  0
 15 16  2  0  0  0  0
 16 17  1  0  0  0  0
 17 18  2  0  0  0  0
 18 29  1  0  0  0  0
 19 26  1  6  0  0  0
 19 31  1  0  0  0  0
 19 32  2  0  0  0  0
 20 21  1  0  0  0  0
 20 22  1  0  0  0  0
 21 23  1  0  0  0  0
 22 24  1  0  0  0  0
 23 30  1  0  0  0  0
 24 30  1  0  0  0  0
 25 26  1  0  0  0  0
 27 28  2  0  0  0  0
 28 29  1  0  0  0  0
  1 34  1  0  0  0  0
  2 35  1  0  0  0  0
  3 36  1  0  0  0  0
  4 37  1  0  0  0  0
  5 38  1  0  0  0  0
  6 39  1  0  0  0  0
  7 40  1  0  0  0  0
  8 41  1  0  0  0  0
 15 42  1  0  0  0  0
 16 43  1  0  0  0  0
 17 44  1  0  0  0  0
 18 45  1  0  0  0  0
 20 46  1  0  0  0  0
 20 47  1  0  0  0  0
 21 48  1  0  0  0  0
 21 49  1  0  0  0  0
 22 50  1  0  0  0  0
 22 51  1  0  0  0  0
 23 52  1  0  0  0  0
 23 53  1  0  0  0  0
 24 54  1  0  0  0  0
 24 55  1  0  0  0  0
 25 56  1  0  0  0  0
 25 57  1  0  0  0  0
 26 58  1  0  0  0  0
 31 59  1  0  0  0  0
M  END
> <clash_score>
0.7026221430381941

> <docking_score>
-5.592677116394043

> <overlap_score>
0.9195516705513

$$$$
BENZO_262_1
  -OEChem-08232013543D

 59 63  0     1  0  0  0  0  0999 V2000
   12.6445    0.0926   25.8011 C   0  0  0  0  0  0  0  0  0  0  0  0
   11.6380    0.1048   24.8355 C   0  0  0  0  0  0  0  0  0  0  0  0
    9.5890   -2.4950   23.2210 C   0  0  0  0  0  0  0  0  0  0  0  0
    8.2550   -1.0010   24.5520 C   0  0  0  0  0  0  0  0  0  0  0  0
    9.1890   -3.5540   24.0140 C   0  0  0  0  0  0  0  0  0  0  0  0
    7.8700   -2.0610   25.3550 C   0  0  0  0  0  0  0  0  0  0  0  0
   12.7880    1.1720   26.6728 C   0  0  0  0  0  0  0  0  0  0  0  0
   10.9183    2.2761   25.6134 C   0  0  0  0  0  0  0  0  0  0  0  0
    9.1280   -1.2090   23.4870 C   0  0  0  0  0  0  0  0  0  0  0  0
   10.7749    1.1966   24.7417 C   0  0  0  0  0  0  0  0  0  0  0  0
    8.3450   -3.3440   25.0980 C   0  0  0  0  0  0  0  0  0  0  0  0
   11.9249    2.2638   26.5790 C   0  0  0  0  0  0  0  0  0  0  0  0
    6.1460    0.6070   19.9750 C   0  0  0  0  0  0  0  0  0  0  0  0
    7.2710   -0.1460   19.8310 C   0  0  0  0  0  0  0  0  0  0  0  0
    5.3890    1.0010   21.0690 C   0  0  0  0  0  0  0  0  0  0  0  0
    4.2460    1.7520   20.8250 C   0  0  0  0  0  0  0  0  0  0  0  0
    3.8860    2.1050   19.5250 C   0  0  0  0  0  0  0  0  0  0  0  0
    4.6610    1.7170   18.4380 C   0  0  0  0  0  0  0  0  0  0  0  0
    9.0430    0.2380   21.4940 C   0  0  0  0  0  0  0  0  0  0  0  0
    7.9496   -4.9537   28.7345 C   0  0  0  0  0  0  0  0  0  0  0  0
    6.8919   -4.0607   28.0818 C   0  0  0  0  0  0  0  0  0  0  0  0
    9.2470   -4.9693   27.9230 C   0  0  0  0  0  0  0  0  0  0  0  0
    6.6889   -4.4385   26.6147 C   0  0  0  0  0  0  0  0  0  0  0  0
    8.9871   -5.3207   26.4549 C   0  0  0  0  0  0  0  0  0  0  0  0
    9.6852    1.2097   23.6944 C   0  0  0  0  0  0  0  0  0  0  0  0
    9.5820   -0.1080   22.7000 C   0  0  1  0  0  0  0  0  0  0  0  0
    7.5840   -0.2700   18.5160 N   0  0  0  0  0  0  0  0  0  0  0  0
    6.7100    0.3850   17.8100 N   0  0  0  0  0  0  0  0  0  0  0  0
    5.7970    0.9500   18.6730 N   0  0  0  0  0  0  0  0  0  0  0  0
    7.9769   -4.4027   25.9163 N   0  0  0  0  0  0  0  0  0  0  0  0
    8.0950   -0.7700   20.8440 N   0  0  0  0  0  0  0  0  0  0  0  0
    9.2950    1.3000   20.9480 O   0  0  0  0  0  0  0  0  0  0  0  0
   12.1030    3.5958   27.6540 Cl  0  0  0  0  0  0  0  0  0  0  0  0
   13.3165   -0.7577   25.8737 H   0  0  0  0  0  0  0  0  0  0  0  0
   11.5336   -0.7405   24.1604 H   0  0  0  0  0  0  0  0  0  0  0  0
   10.2684   -2.6719   22.3867 H   0  0  0  0  0  0  0  0  0  0  0  0
    7.8717   -0.0016   24.7596 H   0  0  0  0  0  0  0  0  0  0  0  0
    9.5443   -4.5616   23.7817 H   0  0  0  0  0  0  0  0  0  0  0  0
    7.1921   -1.8821   26.1908 H   0  0  0  0  0  0  0  0  0  0  0  0
   13.5772    1.1489   27.4203 H   0  0  0  0  0  0  0  0  0  0  0  0
   10.2425    3.1247   25.5365 H   0  0  0  0  0  0  0  0  0  0  0  0
    5.6529    0.7487   22.0767 H   0  0  0  0  0  0  0  0  0  0  0  0
    3.6388    2.0586   21.6675 H   0  0  0  0  0  0  0  0  0  0  0  0
    2.9822    2.6968   19.3330 H   0  0  0  0  0  0  0  0  0  0  0  0
    4.4111    1.9893   17.4360 H   0  0  0  0  0  0  0  0  0  0  0  0
    8.1558   -4.5961   29.7550 H   0  0  0  0  0  0  0  0  0  0  0  0
    7.5611   -5.9778   28.8324 H   0  0  0  0  0  0  0  0  0  0  0  0
    5.9459   -4.1594   28.6209 H   0  0  0  0  0  0  0  0  0  0  0  0
    7.2011   -3.0160   28.1536 H   0  0  0  0  0  0  0  0  0  0  0  0
    9.7290   -3.9880   27.9846 H   0  0  0  0  0  0  0  0  0  0  0  0
    9.9437   -5.6964   28.3562 H   0  0  0  0  0  0  0  0  0  0  0  0
    6.2543   -5.4402   26.5659 H   0  0  0  0  0  0  0  0  0  0  0  0
    5.9909   -3.7397   26.1451 H   0  0  0  0  0  0  0  0  0  0  0  0
    9.9128   -5.2367   25.8843 H   0  0  0  0  0  0  0  0  0  0  0  0
    8.6365   -6.3517   26.3987 H   0  0  0  0  0  0  0  0  0  0  0  0
    8.7197    1.4079   24.1780 H   0  0  0  0  0  0  0  0  0  0  0  0
    9.8623    2.0699   23.0340 H   0  0  0  0  0  0  0  0  0  0  0  0
   10.7567   -0.2690   22.5478 H   0  0  0  0  0  0  0  0  0  0  0  0
    8.0917   -1.6083   21.0911 H   0  0  0  0  0  0  0  0  0  0  0  0
  1  2  2  0  0  0  0
  1  7  1  0  0  0  0
  2 10  1  0  0  0  0
  3  5  2  0  0  0  0
  3  9  1  0  0  0  0
  4  6  1  0  0  0  0
  4  9  2  0  0  0  0
  5 11  1  0  0  0  0
  6 11  2  0  0  0  0
  7 12  2  0  0  0  0
  8 10  2  0  0  0  0
  8 12  1  0  0  0  0
  9 26  1  0  0  0  0
 10 25  1  0  0  0  0
 11 30  1  0  0  0  0
 12 33  1  0  0  0  0
 13 14  2  0  0  0  0
 13 15  1  0  0  0  0
 13 29  1  0  0  0  0
 14 27  1  0  0  0  0
 14 31  1  0  0  0  0
 15 16  2  0  0  0  0
 16 17  1  0  0  0  0
 17 18  2  0  0  0  0
 18 29  1  0  0  0  0
 19 26  1  1  0  0  0
 19 31  1  0  0  0  0
 19 32  2  0  0  0  0
 20 21  1  0  0  0  0
 20 22  1  0  0  0  0
 21 23  1  0  0  0  0
 22 24  1  0  0  0  0
 23 30  1  0  0  0  0
 24 30  1  0  0  0  0
 25 26  1  0  0  0  0
 27 28  2  0  0  0  0
 28 29  1  0  0  0  0
  1 34  1  0  0  0  0
  2 35  1  0  0  0  0
  3 36  1  0  0  0  0
  4 37  1  0  0  0  0
  5 38  1  0  0  0  0
  6 39  1  0  0  0  0
  7 40  1  0  0  0  0
  8 41  1  0  0  0  0
 15 42  1  0  0  0  0
 16 43  1  0  0  0  0
 17 44  1  0  0  0  0
 18 45  1  0  0  0  0
 20 46  1  0  0  0  0
 20 47  1  0  0  0  0
 21 48  1  0  0  0  0
 21 49  1  0  0  0  0
 22 50  1  0  0  0  0
 22 51  1  0  0  0  0
 23 52  1  0  0  0  0
 23 53  1  0  0  0  0
 24 54  1  0  0  0  0
 24 55  1  0  0  0  0
 25 56  1  0  0  0  0
 25 57  1  0  0  0  0
 26 58  1  0  0  0  0
 31 59  1  0  0  0  0
M  END
> <clash_score>
5.493965050688214

> <docking_score>
-4.015071868896484

> <overlap_score>
0.8420959711074829

$$$$
BENZO_267_1
  -OEChem-08232013543D

 47 50  0     1  0  0  0  0  0999 V2000
    9.1890   -3.5540   24.0140 C   0  0  0  0  0  0  0  0  0  0  0  0
    7.8700   -2.0610   25.3550 C   0  0  0  0  0  0  0  0  0  0  0  0
    9.5890   -2.4950   23.2210 C   0  0  0  0  0  0  0  0  0  0  0  0
    8.2550   -1.0010   24.5520 C   0  0  0  0  0  0  0  0  0  0  0  0
   13.1332   -1.1110   24.1732 C   0  0  0  0  0  0  0  0  0  0  0  0
   11.5178   -0.0030   25.1721 C   0  0  0  0  0  0  0  0  0  0  0  0
    8.3450   -3.3440   25.0980 C   0  0  0  0  0  0  0  0  0  0  0  0
    9.1280   -1.2090   23.4870 C   0  0  0  0  0  0  0  0  0  0  0  0
   11.9236   -0.4323   23.9322 C   0  0  0  0  0  0  0  0  0  0  0  0
    6.1460    0.6070   19.9750 C   0  0  0  0  0  0  0  0  0  0  0  0
    7.2710   -0.1460   19.8310 C   0  0  0  0  0  0  0  0  0  0  0  0
    5.3890    1.0010   21.0690 C   0  0  0  0  0  0  0  0  0  0  0  0
    4.2460    1.7520   20.8250 C   0  0  0  0  0  0  0  0  0  0  0  0
    3.8860    2.1050   19.5250 C   0  0  0  0  0  0  0  0  0  0  0  0
    4.6610    1.7170   18.4380 C   0  0  0  0  0  0  0  0  0  0  0  0
    9.0430    0.2380   21.4940 C   0  0  0  0  0  0  0  0  0  0  0  0
    7.9517   -4.4787   25.9770 C   0  0  0  0  0  0  0  0  0  0  0  0
   12.4834   -0.2219   27.4740 C   0  0  0  0  0  0  0  0  0  0  0  0
   11.2273   -0.2199   22.6076 C   0  0  0  0  0  0  0  0  0  0  0  0
    9.5820   -0.1080   22.7000 C   0  0  1  0  0  0  0  0  0  0  0  0
   13.4737   -1.1150   25.4647 N   0  0  0  0  0  0  0  0  0  0  0  0
    7.5840   -0.2700   18.5160 N   0  0  0  0  0  0  0  0  0  0  0  0
    6.7100    0.3850   17.8100 N   0  0  0  0  0  0  0  0  0  0  0  0
   12.4721   -0.4335   26.0464 N   0  0  0  0  0  0  0  0  0  0  0  0
    5.7970    0.9500   18.6730 N   0  0  0  0  0  0  0  0  0  0  0  0
    8.0950   -0.7700   20.8440 N   0  0  0  0  0  0  0  0  0  0  0  0
    9.2950    1.3000   20.9480 O   0  0  0  0  0  0  0  0  0  0  0  0
    9.5416   -4.5625   23.7818 H   0  0  0  0  0  0  0  0  0  0  0  0
    7.1926   -1.8847   26.1916 H   0  0  0  0  0  0  0  0  0  0  0  0
   10.2688   -2.6720   22.3870 H   0  0  0  0  0  0  0  0  0  0  0  0
    7.8705   -0.0015   24.7579 H   0  0  0  0  0  0  0  0  0  0  0  0
   13.7829   -1.6028   23.4631 H   0  0  0  0  0  0  0  0  0  0  0  0
   10.6535    0.5594   25.4986 H   0  0  0  0  0  0  0  0  0  0  0  0
    5.6529    0.7487   22.0767 H   0  0  0  0  0  0  0  0  0  0  0  0
    3.6388    2.0586   21.6675 H   0  0  0  0  0  0  0  0  0  0  0  0
    2.9822    2.6968   19.3330 H   0  0  0  0  0  0  0  0  0  0  0  0
    4.4111    1.9893   17.4360 H   0  0  0  0  0  0  0  0  0  0  0  0
    8.6661   -4.5883   26.8021 H   0  0  0  0  0  0  0  0  0  0  0  0
    6.9508   -4.3263   26.4014 H   0  0  0  0  0  0  0  0  0  0  0  0
    7.9188   -5.4228   25.4175 H   0  0  0  0  0  0  0  0  0  0  0  0
   11.9614   -1.0599   27.9433 H   0  0  0  0  0  0  0  0  0  0  0  0
   13.5174   -0.1700   27.8262 H   0  0  0  0  0  0  0  0  0  0  0  0
   11.9792    0.7209   27.7036 H   0  0  0  0  0  0  0  0  0  0  0  0
   11.5842    0.7150   22.1561 H   0  0  0  0  0  0  0  0  0  0  0  0
   11.5525   -1.0164   21.9239 H   0  0  0  0  0  0  0  0  0  0  0  0
    9.5374    0.8439   23.4178 H   0  0  0  0  0  0  0  0  0  0  0  0
    8.0713   -1.6185   21.0737 H   0  0  0  0  0  0  0  0  0  0  0  0
  1  3  2  0  0  0  0
  1  7  1  0  0  0  0
  2  4  1  0  0  0  0
  2  7  2  0  0  0  0
  3  8  1  0  0  0  0
  4  8  2  0  0  0  0
  5  9  1  0  0  0  0
  5 21  2  0  0  0  0
  6  9  2  0  0  0  0
  6 24  1  0  0  0  0
  7 17  1  0  0  0  0
  8 20  1  0  0  0  0
  9 19  1  0  0  0  0
 10 11  2  0  0  0  0
 10 12  1  0  0  0  0
 10 25  1  0  0  0  0
 11 22  1  0  0  0  0
 11 26  1  0  0  0  0
 12 13  2  0  0  0  0
 13 14  1  0  0  0  0
 14 15  2  0  0  0  0
 15 25  1  0  0  0  0
 16 20  1  0  0  0  0
 16 26  1  0  0  0  0
 16 27  2  0  0  0  0
 18 24  1  0  0  0  0
 19 20  1  1  0  0  0
 21 24  1  0  0  0  0
 22 23  2  0  0  0  0
 23 25  1  0  0  0  0
  1 28  1  0  0  0  0
  2 29  1  0  0  0  0
  3 30  1  0  0  0  0
  4 31  1  0  0  0  0
  5 32  1  0  0  0  0
  6 33  1  0  0  0  0
 12 34  1  0  0  0  0
 13 35  1  0  0  0  0
 14 36  1  0  0  0  0
 15 37  1  0  0  0  0
 17 38  1  0  0  0  0
 17 39  1  0  0  0  0
 17 40  1  0  0  0  0
 18 41  1  0  0  0  0
 18 42  1  0  0  0  0
 18 43  1  0  0  0  0
 19 44  1  0  0  0  0
 19 45  1  0  0  0  0
 20 46  1  0  0  0  0
 26 47  1  0  0  0  0
M  END
> <clash_score>
0

> <docking_score>
-5.060744762420654

> <overlap_score>
0.826299250125885

$$$$
BENZO_267_2
  -OEChem-08232013543D

 47 50  0     1  0  0  0  0  0999 V2000
    9.1890   -3.5540   24.0140 C   0  0  0  0  0  0  0  0  0  0  0  0
    7.8700   -2.0610   25.3550 C   0  0  0  0  0  0  0  0  0  0  0  0
    9.5890   -2.4950   23.2210 C   0  0  0  0  0  0  0  0  0  0  0  0
    8.2550   -1.0010   24.5520 C   0  0  0  0  0  0  0  0  0  0  0  0
   11.7155    0.1520   24.9872 C   0  0  0  0  0  0  0  0  0  0  0  0
   11.0544    2.1258   25.6959 C   0  0  0  0  0  0  0  0  0  0  0  0
    8.3450   -3.3440   25.0980 C   0  0  0  0  0  0  0  0  0  0  0  0
    9.1280   -1.2090   23.4870 C   0  0  0  0  0  0  0  0  0  0  0  0
   10.7691    1.1678   24.7539 C   0  0  0  0  0  0  0  0  0  0  0  0
    6.1460    0.6070   19.9750 C   0  0  0  0  0  0  0  0  0  0  0  0
    7.2710   -0.1460   19.8310 C   0  0  0  0  0  0  0  0  0  0  0  0
    5.3890    1.0010   21.0690 C   0  0  0  0  0  0  0  0  0  0  0  0
    4.2460    1.7520   20.8250 C   0  0  0  0  0  0  0  0  0  0  0  0
    3.8860    2.1050   19.5250 C   0  0  0  0  0  0  0  0  0  0  0  0
    4.6610    1.7170   18.4380 C   0  0  0  0  0  0  0  0  0  0  0  0
    9.0430    0.2380   21.4940 C   0  0  0  0  0  0  0  0  0  0  0  0
    7.9517   -4.4787   25.9770 C   0  0  0  0  0  0  0  0  0  0  0  0
   12.7726    2.3013   27.5113 C   0  0  0  0  0  0  0  0  0  0  0  0
    9.6841    1.2008   23.7022 C   0  0  0  0  0  0  0  0  0  0  0  0
    9.5820   -0.1080   22.7000 C   0  0  2  0  0  0  0  0  0  0  0  0
   12.5403    0.4381   25.9980 N   0  0  0  0  0  0  0  0  0  0  0  0
    7.5840   -0.2700   18.5160 N   0  0  0  0  0  0  0  0  0  0  0  0
    6.7100    0.3850   17.8100 N   0  0  0  0  0  0  0  0  0  0  0  0
   12.1132    1.6445   26.4082 N   0  0  0  0  0  0  0  0  0  0  0  0
    5.7970    0.9500   18.6730 N   0  0  0  0  0  0  0  0  0  0  0  0
    8.0950   -0.7700   20.8440 N   0  0  0  0  0  0  0  0  0  0  0  0
    9.2950    1.3000   20.9480 O   0  0  0  0  0  0  0  0  0  0  0  0
    9.5416   -4.5625   23.7818 H   0  0  0  0  0  0  0  0  0  0  0  0
    7.1926   -1.8847   26.1916 H   0  0  0  0  0  0  0  0  0  0  0  0
   10.2688   -2.6720   22.3870 H   0  0  0  0  0  0  0  0  0  0  0  0
    7.8705   -0.0015   24.7579 H   0  0  0  0  0  0  0  0  0  0  0  0
   11.8409   -0.7851   24.4635 H   0  0  0  0  0  0  0  0  0  0  0  0
   10.6061    3.0857   25.9138 H   0  0  0  0  0  0  0  0  0  0  0  0
    5.6529    0.7487   22.0767 H   0  0  0  0  0  0  0  0  0  0  0  0
    3.6388    2.0586   21.6675 H   0  0  0  0  0  0  0  0  0  0  0  0
    2.9822    2.6968   19.3330 H   0  0  0  0  0  0  0  0  0  0  0  0
    4.4111    1.9893   17.4360 H   0  0  0  0  0  0  0  0  0  0  0  0
    8.6661   -4.5883   26.8021 H   0  0  0  0  0  0  0  0  0  0  0  0
    6.9508   -4.3263   26.4014 H   0  0  0  0  0  0  0  0  0  0  0  0
    7.9188   -5.4228   25.4175 H   0  0  0  0  0  0  0  0  0  0  0  0
   12.2713    1.9965   28.4337 H   0  0  0  0  0  0  0  0  0  0  0  0
   13.8256    2.0072   27.5334 H   0  0  0  0  0  0  0  0  0  0  0  0
   12.7061    3.3847   27.3788 H   0  0  0  0  0  0  0  0  0  0  0  0
    8.7167    1.3910   24.1851 H   0  0  0  0  0  0  0  0  0  0  0  0
    9.8647    2.0727   23.0582 H   0  0  0  0  0  0  0  0  0  0  0  0
   10.7539   -0.2760   22.5528 H   0  0  0  0  0  0  0  0  0  0  0  0
    8.0713   -1.6185   21.0737 H   0  0  0  0  0  0  0  0  0  0  0  0
  1  3  2  0  0  0  0
  1  7  1  0  0  0  0
  2  4  1  0  0  0  0
  2  7  2  0  0  0  0
  3  8  1  0  0  0  0
  4  8  2  0  0  0  0
  5  9  1  0  0  0  0
  5 21  2  0  0  0  0
  6  9  2  0  0  0  0
  6 24  1  0  0  0  0
  7 17  1  0  0  0  0
  8 20  1  0  0  0  0
  9 19  1  0  0  0  0
 10 11  2  0  0  0  0
 10 12  1  0  0  0  0
 10 25  1  0  0  0  0
 11 22  1  0  0  0  0
 11 26  1  0  0  0  0
 12 13  2  0  0  0  0
 13 14  1  0  0  0  0
 14 15  2  0  0  0  0
 15 25  1  0  0  0  0
 16 20  1  0  0  0  0
 16 26  1  0  0  0  0
 16 27  2  0  0  0  0
 18 24  1  0  0  0  0
 19 20  1  6  0  0  0
 21 24  1  0  0  0  0
 22 23  2  0  0  0  0
 23 25  1  0  0  0  0
  1 28  1  0  0  0  0
  2 29  1  0  0  0  0
  3 30  1  0  0  0  0
  4 31  1  0  0  0  0
  5 32  1  0  0  0  0
  6 33  1  0  0  0  0
 12 34  1  0  0  0  0
 13 35  1  0  0  0  0
 14 36  1  0  0  0  0
 15 37  1  0  0  0  0
 17 38  1  0  0  0  0
 17 39  1  0  0  0  0
 17 40  1  0  0  0  0
 18 41  1  0  0  0  0
 18 42  1  0  0  0  0
 18 43  1  0  0  0  0
 19 44  1  0  0  0  0
 19 45  1  0  0  0  0
 20 46  1  0  0  0  0
 26 47  1  0  0  0  0
M  END
> <clash_score>
3.2086022107449237

> <docking_score>
-3.003401279449463

> <overlap_score>
0.7493647933006287

$$$$
BENZO_266_1
  -OEChem-08232013543D

 47 50  0     1  0  0  0  0  0999 V2000
   13.7696   -1.3331   25.2040 C   0  0  0  0  0  0  0  0  0  0  0  0
   13.1260   -1.1377   23.9821 C   0  0  0  0  0  0  0  0  0  0  0  0
    9.1890   -3.5540   24.0140 C   0  0  0  0  0  0  0  0  0  0  0  0
    7.8700   -2.0610   25.3550 C   0  0  0  0  0  0  0  0  0  0  0  0
    9.5890   -2.4950   23.2210 C   0  0  0  0  0  0  0  0  0  0  0  0
    8.2550   -1.0010   24.5520 C   0  0  0  0  0  0  0  0  0  0  0  0
   13.2109   -0.8232   26.3761 C   0  0  0  0  0  0  0  0  0  0  0  0
   11.3649    0.0776   25.1042 C   0  0  0  0  0  0  0  0  0  0  0  0
    8.3450   -3.3440   25.0980 C   0  0  0  0  0  0  0  0  0  0  0  0
    9.1280   -1.2090   23.4870 C   0  0  0  0  0  0  0  0  0  0  0  0
   11.9236   -0.4323   23.9322 C   0  0  0  0  0  0  0  0  0  0  0  0
   12.0086   -0.1179   26.3261 C   0  0  0  0  0  0  0  0  0  0  0  0
    6.1460    0.6070   19.9750 C   0  0  0  0  0  0  0  0  0  0  0  0
    7.2710   -0.1460   19.8310 C   0  0  0  0  0  0  0  0  0  0  0  0
    5.3890    1.0010   21.0690 C   0  0  0  0  0  0  0  0  0  0  0  0
    4.2460    1.7520   20.8250 C   0  0  0  0  0  0  0  0  0  0  0  0
    3.8860    2.1050   19.5250 C   0  0  0  0  0  0  0  0  0  0  0  0
    4.6610    1.7170   18.4380 C   0  0  0  0  0  0  0  0  0  0  0  0
    9.0430    0.2380   21.4940 C   0  0  0  0  0  0  0  0  0  0  0  0
    7.9517   -4.4787   25.9770 C   0  0  0  0  0  0  0  0  0  0  0  0
   11.2273   -0.2199   22.6076 C   0  0  0  0  0  0  0  0  0  0  0  0
    9.5820   -0.1080   22.7000 C   0  0  1  0  0  0  0  0  0  0  0  0
    7.5840   -0.2700   18.5160 N   0  0  0  0  0  0  0  0  0  0  0  0
    6.7100    0.3850   17.8100 N   0  0  0  0  0  0  0  0  0  0  0  0
    5.7970    0.9500   18.6730 N   0  0  0  0  0  0  0  0  0  0  0  0
    8.0950   -0.7700   20.8440 N   0  0  0  0  0  0  0  0  0  0  0  0
    9.2950    1.3000   20.9480 O   0  0  0  0  0  0  0  0  0  0  0  0
   11.3203    0.5119   27.7723 Cl  0  0  0  0  0  0  0  0  0  0  0  0
   14.7060   -1.8822   25.2425 H   0  0  0  0  0  0  0  0  0  0  0  0
   13.5686   -1.5384   23.0739 H   0  0  0  0  0  0  0  0  0  0  0  0
    9.5416   -4.5625   23.7818 H   0  0  0  0  0  0  0  0  0  0  0  0
    7.1926   -1.8847   26.1916 H   0  0  0  0  0  0  0  0  0  0  0  0
   10.2688   -2.6720   22.3870 H   0  0  0  0  0  0  0  0  0  0  0  0
    7.8705   -0.0015   24.7579 H   0  0  0  0  0  0  0  0  0  0  0  0
   13.7238   -0.9829   27.3213 H   0  0  0  0  0  0  0  0  0  0  0  0
   10.4270    0.6263   25.0600 H   0  0  0  0  0  0  0  0  0  0  0  0
    5.6529    0.7487   22.0767 H   0  0  0  0  0  0  0  0  0  0  0  0
    3.6388    2.0586   21.6675 H   0  0  0  0  0  0  0  0  0  0  0  0
    2.9822    2.6968   19.3330 H   0  0  0  0  0  0  0  0  0  0  0  0
    4.4111    1.9893   17.4360 H   0  0  0  0  0  0  0  0  0  0  0  0
    8.6661   -4.5883   26.8021 H   0  0  0  0  0  0  0  0  0  0  0  0
    6.9508   -4.3263   26.4014 H   0  0  0  0  0  0  0  0  0  0  0  0
    7.9188   -5.4228   25.4175 H   0  0  0  0  0  0  0  0  0  0  0  0
   11.5842    0.7150   22.1561 H   0  0  0  0  0  0  0  0  0  0  0  0
   11.5525   -1.0164   21.9239 H   0  0  0  0  0  0  0  0  0  0  0  0
    9.5374    0.8439   23.4178 H   0  0  0  0  0  0  0  0  0  0  0  0
    8.0713   -1.6185   21.0737 H   0  0  0  0  0  0  0  0  0  0  0  0
  1  2  2  0  0  0  0
  1  7  1  0  0  0  0
  2 11  1  0  0  0  0
  3  5  2  0  0  0  0
  3  9  1  0  0  0  0
  4  6  1  0  0  0  0
  4  9  2  0  0  0  0
  5 10  1  0  0  0  0
  6 10  2  0  0  0  0
  7 12  2  0  0  0  0
  8 11  2  0  0  0  0
  8 12  1  0  0  0  0
  9 20  1  0  0  0  0
 10 22  1  0  0  0  0
 11 21  1  0  0  0  0
 12 28  1  0  0  0  0
 13 14  2  0  0  0  0
 13 15  1  0  0  0  0
 13 25  1  0  0  0  0
 14 23  1  0  0  0  0
 14 26  1  0  0  0  0
 15 16  2  0  0  0  0
 16 17  1  0  0  0  0
 17 18  2  0  0  0  0
 18 25  1  0  0  0  0
 19 22  1  0  0  0  0
 19 26  1  0  0  0  0
 19 27  2  0  0  0  0
 21 22  1  1  0  0  0
 23 24  2  0  0  0  0
 24 25  1  0  0  0  0
  1 29  1  0  0  0  0
  2 30  1  0  0  0  0
  3 31  1  0  0  0  0
  4 32  1  0  0  0  0
  5 33  1  0  0  0  0
  6 34  1  0  0  0  0
  7 35  1  0  0  0  0
  8 36  1  0  0  0  0
 15 37  1  0  0  0  0
 16 38  1  0  0  0  0
 17 39  1  0  0  0  0
 18 40  1  0  0  0  0
 20 41  1  0  0  0  0
 20 42  1  0  0  0  0
 20 43  1  0  0  0  0
 21 44  1  0  0  0  0
 21 45  1  0  0  0  0
 22 46  1  0  0  0  0
 26 47  1  0  0  0  0
M  END
> <clash_score>
0.7019283175170448

> <docking_score>
-4.762826919555664

> <overlap_score>
0.8299891948699951

$$$$
BENZO_266_2
  -OEChem-08232013543D

 47 50  0     1  0  0  0  0  0999 V2000
   12.9593    0.4495   25.4778 C   0  0  0  0  0  0  0  0  0  0  0  0
   11.9571    0.4794   24.5081 C   0  0  0  0  0  0  0  0  0  0  0  0
    9.1890   -3.5540   24.0140 C   0  0  0  0  0  0  0  0  0  0  0  0
    7.8700   -2.0610   25.3550 C   0  0  0  0  0  0  0  0  0  0  0  0
    9.5890   -2.4950   23.2210 C   0  0  0  0  0  0  0  0  0  0  0  0
    8.2550   -1.0010   24.5520 C   0  0  0  0  0  0  0  0  0  0  0  0
   12.7735    1.1081   26.6933 C   0  0  0  0  0  0  0  0  0  0  0  0
   10.5833    1.8264   25.9694 C   0  0  0  0  0  0  0  0  0  0  0  0
    8.3450   -3.3440   25.0980 C   0  0  0  0  0  0  0  0  0  0  0  0
    9.1280   -1.2090   23.4870 C   0  0  0  0  0  0  0  0  0  0  0  0
   10.7691    1.1678   24.7539 C   0  0  0  0  0  0  0  0  0  0  0  0
   11.5856    1.7966   26.9391 C   0  0  0  0  0  0  0  0  0  0  0  0
    6.1460    0.6070   19.9750 C   0  0  0  0  0  0  0  0  0  0  0  0
    7.2710   -0.1460   19.8310 C   0  0  0  0  0  0  0  0  0  0  0  0
    5.3890    1.0010   21.0690 C   0  0  0  0  0  0  0  0  0  0  0  0
    4.2460    1.7520   20.8250 C   0  0  0  0  0  0  0  0  0  0  0  0
    3.8860    2.1050   19.5250 C   0  0  0  0  0  0  0  0  0  0  0  0
    4.6610    1.7170   18.4380 C   0  0  0  0  0  0  0  0  0  0  0  0
    9.0430    0.2380   21.4940 C   0  0  0  0  0  0  0  0  0  0  0  0
    7.9517   -4.4787   25.9770 C   0  0  0  0  0  0  0  0  0  0  0  0
    9.6841    1.2008   23.7022 C   0  0  0  0  0  0  0  0  0  0  0  0
    9.5820   -0.1080   22.7000 C   0  0  2  0  0  0  0  0  0  0  0  0
    7.5840   -0.2700   18.5160 N   0  0  0  0  0  0  0  0  0  0  0  0
    6.7100    0.3850   17.8100 N   0  0  0  0  0  0  0  0  0  0  0  0
    5.7970    0.9500   18.6730 N   0  0  0  0  0  0  0  0  0  0  0  0
    8.0950   -0.7700   20.8440 N   0  0  0  0  0  0  0  0  0  0  0  0
    9.2950    1.3000   20.9480 O   0  0  0  0  0  0  0  0  0  0  0  0
   11.3574    2.6099   28.4385 Cl  0  0  0  0  0  0  0  0  0  0  0  0
   13.8843   -0.0866   25.2859 H   0  0  0  0  0  0  0  0  0  0  0  0
   12.1105   -0.0365   23.5638 H   0  0  0  0  0  0  0  0  0  0  0  0
    9.5416   -4.5625   23.7818 H   0  0  0  0  0  0  0  0  0  0  0  0
    7.1926   -1.8847   26.1916 H   0  0  0  0  0  0  0  0  0  0  0  0
   10.2688   -2.6720   22.3870 H   0  0  0  0  0  0  0  0  0  0  0  0
    7.8705   -0.0015   24.7579 H   0  0  0  0  0  0  0  0  0  0  0  0
   13.5634    1.0766   27.4398 H   0  0  0  0  0  0  0  0  0  0  0  0
    9.6551    2.3614   26.1564 H   0  0  0  0  0  0  0  0  0  0  0  0
    5.6529    0.7487   22.0767 H   0  0  0  0  0  0  0  0  0  0  0  0
    3.6388    2.0586   21.6675 H   0  0  0  0  0  0  0  0  0  0  0  0
    2.9822    2.6968   19.3330 H   0  0  0  0  0  0  0  0  0  0  0  0
    4.4111    1.9893   17.4360 H   0  0  0  0  0  0  0  0  0  0  0  0
    8.6661   -4.5883   26.8021 H   0  0  0  0  0  0  0  0  0  0  0  0
    6.9508   -4.3263   26.4014 H   0  0  0  0  0  0  0  0  0  0  0  0
    7.9188   -5.4228   25.4175 H   0  0  0  0  0  0  0  0  0  0  0  0
    8.7167    1.3910   24.1851 H   0  0  0  0  0  0  0  0  0  0  0  0
    9.8647    2.0727   23.0582 H   0  0  0  0  0  0  0  0  0  0  0  0
   10.7539   -0.2760   22.5528 H   0  0  0  0  0  0  0  0  0  0  0  0
    8.0713   -1.6185   21.0737 H   0  0  0  0  0  0  0  0  0  0  0  0
  1  2  2  0  0  0  0
  1  7  1  0  0  0  0
  2 11  1  0  0  0  0
  3  5  2  0  0  0  0
  3  9  1  0  0  0  0
  4  6  1  0  0  0  0
  4  9  2  0  0  0  0
  5 10  1  0  0  0  0
  6 10  2  0  0  0  0
  7 12  2  0  0  0  0
  8 11  2  0  0  0  0
  8 12  1  0  0  0  0
  9 20  1  0  0  0  0
 10 22  1  0  0  0  0
 11 21  1  0  0  0  0
 12 28  1  0  0  0  0
 13 14  2  0  0  0  0
 13 15  1  0  0  0  0
 13 25  1  0  0  0  0
 14 23  1  0  0  0  0
 14 26  1  0  0  0  0
 15 16  2  0  0  0  0
 16 17  1  0  0  0  0
 17 18  2  0  0  0  0
 18 25  1  0  0  0  0
 19 22  1  0  0  0  0
 19 26  1  0  0  0  0
 19 27  2  0  0  0  0
 21 22  1  6  0  0  0
 23 24  2  0  0  0  0
 24 25  1  0  0  0  0
  1 29  1  0  0  0  0
  2 30  1  0  0  0  0
  3 31  1  0  0  0  0
  4 32  1  0  0  0  0
  5 33  1  0  0  0  0
  6 34  1  0  0  0  0
  7 35  1  0  0  0  0
  8 36  1  0  0  0  0
 15 37  1  0  0  0  0
 16 38  1  0  0  0  0
 17 39  1  0  0  0  0
 18 40  1  0  0  0  0
 20 41  1  0  0  0  0
 20 42  1  0  0  0  0
 20 43  1  0  0  0  0
 21 44  1  0  0  0  0
 21 45  1  0  0  0  0
 22 46  1  0  0  0  0
 26 47  1  0  0  0  0
M  END
> <clash_score>
7.492665502358015

> <docking_score>
-2.9973504543304443

> <overlap_score>
0.7589684128761292

$$$$
BENZO_269_1
  -OEChem-08232013543D

 48 51  0     1  0  0  0  0  0999 V2000
   13.2081   -0.8233   26.3776 C   0  0  0  0  0  0  0  0  0  0  0  0
   13.7678   -1.3337   25.2064 C   0  0  0  0  0  0  0  0  0  0  0  0
   12.0060   -0.1174   26.3261 C   0  0  0  0  0  0  0  0  0  0  0  0
   13.1256   -1.1382   23.9837 C   0  0  0  0  0  0  0  0  0  0  0  0
   11.3638    0.0781   25.1034 C   0  0  0  0  0  0  0  0  0  0  0  0
    9.5890   -2.4950   23.2210 C   0  0  0  0  0  0  0  0  0  0  0  0
    8.2550   -1.0010   24.5520 C   0  0  0  0  0  0  0  0  0  0  0  0
    9.1890   -3.5540   24.0140 C   0  0  0  0  0  0  0  0  0  0  0  0
    7.8700   -2.0610   25.3550 C   0  0  0  0  0  0  0  0  0  0  0  0
   11.9236   -0.4323   23.9322 C   0  0  0  0  0  0  0  0  0  0  0  0
    9.1280   -1.2090   23.4870 C   0  0  0  0  0  0  0  0  0  0  0  0
    8.3450   -3.3440   25.0980 C   0  0  0  0  0  0  0  0  0  0  0  0
    6.1460    0.6070   19.9750 C   0  0  0  0  0  0  0  0  0  0  0  0
    7.2710   -0.1460   19.8310 C   0  0  0  0  0  0  0  0  0  0  0  0
    5.3890    1.0010   21.0690 C   0  0  0  0  0  0  0  0  0  0  0  0
    4.2460    1.7520   20.8250 C   0  0  0  0  0  0  0  0  0  0  0  0
    3.8860    2.1050   19.5250 C   0  0  0  0  0  0  0  0  0  0  0  0
    4.6610    1.7170   18.4380 C   0  0  0  0  0  0  0  0  0  0  0  0
    9.0430    0.2380   21.4940 C   0  0  0  0  0  0  0  0  0  0  0  0
    7.1165   -4.0863   26.9914 C   0  0  0  0  0  0  0  0  0  0  0  0
   11.2273   -0.2199   22.6076 C   0  0  0  0  0  0  0  0  0  0  0  0
    9.5820   -0.1080   22.7000 C   0  0  1  0  0  0  0  0  0  0  0  0
    7.5840   -0.2700   18.5160 N   0  0  0  0  0  0  0  0  0  0  0  0
    6.7100    0.3850   17.8100 N   0  0  0  0  0  0  0  0  0  0  0  0
    5.7970    0.9500   18.6730 N   0  0  0  0  0  0  0  0  0  0  0  0
    8.0950   -0.7700   20.8440 N   0  0  0  0  0  0  0  0  0  0  0  0
    9.2950    1.3000   20.9480 O   0  0  0  0  0  0  0  0  0  0  0  0
    7.9856   -4.3803   25.8987 O   0  0  0  0  0  0  0  0  0  0  0  0
   13.7076   -0.9767   27.3297 H   0  0  0  0  0  0  0  0  0  0  0  0
   14.7032   -1.8843   25.2464 H   0  0  0  0  0  0  0  0  0  0  0  0
   11.5694    0.2792   27.2379 H   0  0  0  0  0  0  0  0  0  0  0  0
   13.5692   -1.5394   23.0762 H   0  0  0  0  0  0  0  0  0  0  0  0
   10.4277    0.6294   25.0729 H   0  0  0  0  0  0  0  0  0  0  0  0
   10.2677   -2.6721   22.3861 H   0  0  0  0  0  0  0  0  0  0  0  0
    7.8705   -0.0015   24.7586 H   0  0  0  0  0  0  0  0  0  0  0  0
    9.5403   -4.5634   23.7844 H   0  0  0  0  0  0  0  0  0  0  0  0
    7.1918   -1.8874   26.1909 H   0  0  0  0  0  0  0  0  0  0  0  0
    5.6529    0.7487   22.0767 H   0  0  0  0  0  0  0  0  0  0  0  0
    3.6388    2.0586   21.6675 H   0  0  0  0  0  0  0  0  0  0  0  0
    2.9822    2.6968   19.3330 H   0  0  0  0  0  0  0  0  0  0  0  0
    4.4111    1.9893   17.4360 H   0  0  0  0  0  0  0  0  0  0  0  0
    6.9091   -5.0025   27.5497 H   0  0  0  0  0  0  0  0  0  0  0  0
    6.1847   -3.6591   26.6124 H   0  0  0  0  0  0  0  0  0  0  0  0
    7.6050   -3.3639   27.6497 H   0  0  0  0  0  0  0  0  0  0  0  0
   11.5842    0.7150   22.1561 H   0  0  0  0  0  0  0  0  0  0  0  0
   11.5525   -1.0164   21.9239 H   0  0  0  0  0  0  0  0  0  0  0  0
    9.5374    0.8439   23.4178 H   0  0  0  0  0  0  0  0  0  0  0  0
    8.0713   -1.6185   21.0737 H   0  0  0  0  0  0  0  0  0  0  0  0
  1  2  1  0  0  0  0
  1  3  2  0  0  0  0
  2  4  2  0  0  0  0
  3  5  1  0  0  0  0
  4 10  1  0  0  0  0
  5 10  2  0  0  0  0
  6  8  2  0  0  0  0
  6 11  1  0  0  0  0
  7  9  1  0  0  0  0
  7 11  2  0  0  0  0
  8 12  1  0  0  0  0
  9 12  2  0  0  0  0
 10 21  1  0  0  0  0
 11 22  1  0  0  0  0
 12 28  1  0  0  0  0
 13 14  2  0  0  0  0
 13 15  1  0  0  0  0
 13 25  1  0  0  0  0
 14 23  1  0  0  0  0
 14 26  1  0  0  0  0
 15 16  2  0  0  0  0
 16 17  1  0  0  0  0
 17 18  2  0  0  0  0
 18 25  1  0  0  0  0
 19 22  1  0  0  0  0
 19 26  1  0  0  0  0
 19 27  2  0  0  0  0
 20 28  1  0  0  0  0
 21 22  1  1  0  0  0
 23 24  2  0  0  0  0
 24 25  1  0  0  0  0
  1 29  1  0  0  0  0
  2 30  1  0  0  0  0
  3 31  1  0  0  0  0
  4 32  1  0  0  0  0
  5 33  1  0  0  0  0
  6 34  1  0  0  0  0
  7 35  1  0  0  0  0
  8 36  1  0  0  0  0
  9 37  1  0  0  0  0
 15 38  1  0  0  0  0
 16 39  1  0  0  0  0
 17 40  1  0  0  0  0
 18 41  1  0  0  0  0
 20 42  1  0  0  0  0
 20 43  1  0  0  0  0
 20 44  1  0  0  0  0
 21 45  1  0  0  0  0
 21 46  1  0  0  0  0
 22 47  1  0  0  0  0
 26 48  1  0  0  0  0
M  END
> <clash_score>
0

> <docking_score>
-5.035630702972412

> <overlap_score>
0.8506907224655151

$$$$
BENZO_269_2
  -OEChem-08232013543D

 48 51  0     1  0  0  0  0  0999 V2000
   12.7714    1.1058   26.6955 C   0  0  0  0  0  0  0  0  0  0  0  0
   12.3476    2.3261   26.1695 C   0  0  0  0  0  0  0  0  0  0  0  0
   12.1941   -0.0836   26.2506 C   0  0  0  0  0  0  0  0  0  0  0  0
   11.3464    2.3572   25.1987 C   0  0  0  0  0  0  0  0  0  0  0  0
   11.1930   -0.0526   25.2799 C   0  0  0  0  0  0  0  0  0  0  0  0
    9.5890   -2.4950   23.2210 C   0  0  0  0  0  0  0  0  0  0  0  0
    8.2550   -1.0010   24.5520 C   0  0  0  0  0  0  0  0  0  0  0  0
    9.1890   -3.5540   24.0140 C   0  0  0  0  0  0  0  0  0  0  0  0
    7.8700   -2.0610   25.3550 C   0  0  0  0  0  0  0  0  0  0  0  0
   10.7691    1.1678   24.7539 C   0  0  0  0  0  0  0  0  0  0  0  0
    9.1280   -1.2090   23.4870 C   0  0  0  0  0  0  0  0  0  0  0  0
    8.3450   -3.3440   25.0980 C   0  0  0  0  0  0  0  0  0  0  0  0
    6.1460    0.6070   19.9750 C   0  0  0  0  0  0  0  0  0  0  0  0
    7.2710   -0.1460   19.8310 C   0  0  0  0  0  0  0  0  0  0  0  0
    5.3890    1.0010   21.0690 C   0  0  0  0  0  0  0  0  0  0  0  0
    4.2460    1.7520   20.8250 C   0  0  0  0  0  0  0  0  0  0  0  0
    3.8860    2.1050   19.5250 C   0  0  0  0  0  0  0  0  0  0  0  0
    4.6610    1.7170   18.4380 C   0  0  0  0  0  0  0  0  0  0  0  0
    9.0430    0.2380   21.4940 C   0  0  0  0  0  0  0  0  0  0  0  0
    7.1165   -4.0863   26.9914 C   0  0  0  0  0  0  0  0  0  0  0  0
    9.6841    1.2008   23.7022 C   0  0  0  0  0  0  0  0  0  0  0  0
    9.5820   -0.1080   22.7000 C   0  0  2  0  0  0  0  0  0  0  0  0
    7.5840   -0.2700   18.5160 N   0  0  0  0  0  0  0  0  0  0  0  0
    6.7100    0.3850   17.8100 N   0  0  0  0  0  0  0  0  0  0  0  0
    5.7970    0.9500   18.6730 N   0  0  0  0  0  0  0  0  0  0  0  0
    8.0950   -0.7700   20.8440 N   0  0  0  0  0  0  0  0  0  0  0  0
    9.2950    1.3000   20.9480 O   0  0  0  0  0  0  0  0  0  0  0  0
    7.9856   -4.3803   25.8987 O   0  0  0  0  0  0  0  0  0  0  0  0
   13.5519    1.0817   27.4504 H   0  0  0  0  0  0  0  0  0  0  0  0
   12.7977    3.2523   26.5149 H   0  0  0  0  0  0  0  0  0  0  0  0
   12.5246   -1.0340   26.6591 H   0  0  0  0  0  0  0  0  0  0  0  0
   11.0224    3.3127   24.7947 H   0  0  0  0  0  0  0  0  0  0  0  0
   10.7489   -0.9842   24.9394 H   0  0  0  0  0  0  0  0  0  0  0  0
   10.2677   -2.6721   22.3861 H   0  0  0  0  0  0  0  0  0  0  0  0
    7.8705   -0.0015   24.7586 H   0  0  0  0  0  0  0  0  0  0  0  0
    9.5403   -4.5634   23.7844 H   0  0  0  0  0  0  0  0  0  0  0  0
    7.1918   -1.8874   26.1909 H   0  0  0  0  0  0  0  0  0  0  0  0
    5.6529    0.7487   22.0767 H   0  0  0  0  0  0  0  0  0  0  0  0
    3.6388    2.0586   21.6675 H   0  0  0  0  0  0  0  0  0  0  0  0
    2.9822    2.6968   19.3330 H   0  0  0  0  0  0  0  0  0  0  0  0
    4.4111    1.9893   17.4360 H   0  0  0  0  0  0  0  0  0  0  0  0
    6.9091   -5.0025   27.5497 H   0  0  0  0  0  0  0  0  0  0  0  0
    6.1847   -3.6591   26.6124 H   0  0  0  0  0  0  0  0  0  0  0  0
    7.6050   -3.3639   27.6497 H   0  0  0  0  0  0  0  0  0  0  0  0
    8.7167    1.3910   24.1851 H   0  0  0  0  0  0  0  0  0  0  0  0
    9.8647    2.0727   23.0582 H   0  0  0  0  0  0  0  0  0  0  0  0
   10.7539   -0.2760   22.5528 H   0  0  0  0  0  0  0  0  0  0  0  0
    8.0713   -1.6185   21.0737 H   0  0  0  0  0  0  0  0  0  0  0  0
  1  2  1  0  0  0  0
  1  3  2  0  0  0  0
  2  4  2  0  0  0  0
  3  5  1  0  0  0  0
  4 10  1  0  0  0  0
  5 10  2  0  0  0  0
  6  8  2  0  0  0  0
  6 11  1  0  0  0  0
  7  9  1  0  0  0  0
  7 11  2  0  0  0  0
  8 12  1  0  0  0  0
  9 12  2  0  0  0  0
 10 21  1  0  0  0  0
 11 22  1  0  0  0  0
 12 28  1  0  0  0  0
 13 14  2  0  0  0  0
 13 15  1  0  0  0  0
 13 25  1  0  0  0  0
 14 23  1  0  0  0  0
 14 26  1  0  0  0  0
 15 16  2  0  0  0  0
 16 17  1  0  0  0  0
 17 18  2  0  0  0  0
 18 25  1  0  0  0  0
 19 22  1  0  0  0  0
 19 26  1  0  0  0  0
 19 27  2  0  0  0  0
 20 28  1  0  0  0  0
 21 22  1  6  0  0  0
 23 24  2  0  0  0  0
 24 25  1  0  0  0  0
  1 29  1  0  0  0  0
  2 30  1  0  0  0  0
  3 31  1  0  0  0  0
  4 32  1  0  0  0  0
  5 33  1  0  0  0  0
  6 34  1  0  0  0  0
  7 35  1  0  0  0  0
  8 36  1  0  0  0  0
  9 37  1  0  0  0  0
 15 38  1  0  0  0  0
 16 39  1  0  0  0  0
 17 40  1  0  0  0  0
 18 41  1  0  0  0  0
 20 42  1  0  0  0  0
 20 43  1  0  0  0  0
 20 44  1  0  0  0  0
 21 45  1  0  0  0  0
 21 46  1  0  0  0  0
 22 47  1  0  0  0  0
 26 48  1  0  0  0  0
M  END
> <clash_score>
3.057015603833436

> <docking_score>
-3.2467331886291504

> <overlap_score>
0.7636336088180542

$$$$
BENZO_268_1
  -OEChem-08232013543D

 45 48  0     1  0  0  0  0  0999 V2000
    9.5890   -2.4950   23.2210 C   0  0  0  0  0  0  0  0  0  0  0  0
    8.2550   -1.0010   24.5520 C   0  0  0  0  0  0  0  0  0  0  0  0
    9.1890   -3.5540   24.0140 C   0  0  0  0  0  0  0  0  0  0  0  0
    7.8700   -2.0610   25.3550 C   0  0  0  0  0  0  0  0  0  0  0  0
   11.4269    0.0504   25.1773 C   0  0  0  0  0  0  0  0  0  0  0  0
   12.2544   -0.2804   26.2278 C   0  0  0  0  0  0  0  0  0  0  0  0
   13.1121   -1.1136   24.0784 C   0  0  0  0  0  0  0  0  0  0  0  0
    9.1280   -1.2090   23.4870 C   0  0  0  0  0  0  0  0  0  0  0  0
   11.9236   -0.4323   23.9322 C   0  0  0  0  0  0  0  0  0  0  0  0
    8.3450   -3.3440   25.0980 C   0  0  0  0  0  0  0  0  0  0  0  0
    6.1460    0.6070   19.9750 C   0  0  0  0  0  0  0  0  0  0  0  0
    7.2710   -0.1460   19.8310 C   0  0  0  0  0  0  0  0  0  0  0  0
    5.3890    1.0010   21.0690 C   0  0  0  0  0  0  0  0  0  0  0  0
    4.2460    1.7520   20.8250 C   0  0  0  0  0  0  0  0  0  0  0  0
    3.8860    2.1050   19.5250 C   0  0  0  0  0  0  0  0  0  0  0  0
    4.6610    1.7170   18.4380 C   0  0  0  0  0  0  0  0  0  0  0  0
    9.0430    0.2380   21.4940 C   0  0  0  0  0  0  0  0  0  0  0  0
    7.1165   -4.0863   26.9914 C   0  0  0  0  0  0  0  0  0  0  0  0
   11.2273   -0.2199   22.6076 C   0  0  0  0  0  0  0  0  0  0  0  0
    9.5820   -0.1080   22.7000 C   0  0  1  0  0  0  0  0  0  0  0  0
    7.5840   -0.2700   18.5160 N   0  0  0  0  0  0  0  0  0  0  0  0
    6.7100    0.3850   17.8100 N   0  0  0  0  0  0  0  0  0  0  0  0
    5.7970    0.9500   18.6730 N   0  0  0  0  0  0  0  0  0  0  0  0
    8.0950   -0.7700   20.8440 N   0  0  0  0  0  0  0  0  0  0  0  0
    9.2950    1.3000   20.9480 O   0  0  0  0  0  0  0  0  0  0  0  0
    7.9856   -4.3803   25.8987 O   0  0  0  0  0  0  0  0  0  0  0  0
   13.6239   -1.1694   25.7116 S   0  0  0  0  0  0  0  0  0  0  0  0
   10.2677   -2.6721   22.3861 H   0  0  0  0  0  0  0  0  0  0  0  0
    7.8705   -0.0015   24.7586 H   0  0  0  0  0  0  0  0  0  0  0  0
    9.5403   -4.5634   23.7844 H   0  0  0  0  0  0  0  0  0  0  0  0
    7.1918   -1.8874   26.1909 H   0  0  0  0  0  0  0  0  0  0  0  0
   10.5098    0.6126   25.3007 H   0  0  0  0  0  0  0  0  0  0  0  0
   12.1206   -0.0420   27.2735 H   0  0  0  0  0  0  0  0  0  0  0  0
   13.7079   -1.5816   23.3071 H   0  0  0  0  0  0  0  0  0  0  0  0
    5.6529    0.7487   22.0767 H   0  0  0  0  0  0  0  0  0  0  0  0
    3.6388    2.0586   21.6675 H   0  0  0  0  0  0  0  0  0  0  0  0
    2.9822    2.6968   19.3330 H   0  0  0  0  0  0  0  0  0  0  0  0
    4.4111    1.9893   17.4360 H   0  0  0  0  0  0  0  0  0  0  0  0
    6.9091   -5.0025   27.5497 H   0  0  0  0  0  0  0  0  0  0  0  0
    6.1847   -3.6591   26.6124 H   0  0  0  0  0  0  0  0  0  0  0  0
    7.6050   -3.3639   27.6497 H   0  0  0  0  0  0  0  0  0  0  0  0
   11.5842    0.7150   22.1561 H   0  0  0  0  0  0  0  0  0  0  0  0
   11.5525   -1.0164   21.9239 H   0  0  0  0  0  0  0  0  0  0  0  0
    9.5374    0.8439   23.4178 H   0  0  0  0  0  0  0  0  0  0  0  0
    8.0713   -1.6185   21.0737 H   0  0  0  0  0  0  0  0  0  0  0  0
  1  3  2  0  0  0  0
  1  8  1  0  0  0  0
  2  4  1  0  0  0  0
  2  8  2  0  0  0  0
  3 10  1  0  0  0  0
  4 10  2  0  0  0  0
  5  6  2  0  0  0  0
  5  9  1  0  0  0  0
  6 27  1  0  0  0  0
  7  9  2  0  0  0  0
  7 27  1  0  0  0  0
  8 20  1  0  0  0  0
  9 19  1  0  0  0  0
 10 26  1  0  0  0  0
 11 12  2  0  0  0  0
 11 13  1  0  0  0  0
 11 23  1  0  0  0  0
 12 21  1  0  0  0  0
 12 24  1  0  0  0  0
 13 14  2  0  0  0  0
 14 15  1  0  0  0  0
 15 16  2  0  0  0  0
 16 23  1  0  0  0  0
 17 20  1  0  0  0  0
 17 24  1  0  0  0  0
 17 25  2  0  0  0  0
 18 26  1  0  0  0  0
 19 20  1  1  0  0  0
 21 22  2  0  0  0  0
 22 23  1  0  0  0  0
  1 28  1  0  0  0  0
  2 29  1  0  0  0  0
  3 30  1  0  0  0  0
  4 31  1  0  0  0  0
  5 32  1  0  0  0  0
  6 33  1  0  0  0  0
  7 34  1  0  0  0  0
 13 35  1  0  0  0  0
 14 36  1  0  0  0  0
 15 37  1  0  0  0  0
 16 38  1  0  0  0  0
 18 39  1  0  0  0  0
 18 40  1  0  0  0  0
 18 41  1  0  0  0  0
 19 42  1  0  0  0  0
 19 43  1  0  0  0  0
 20 44  1  0  0  0  0
 24 45  1  0  0  0  0
M  END
> <clash_score>
0

> <docking_score>
-5.56924295425415

> <overlap_score>
0.8438331484794617

$$$$
BENZO_268_2
  -OEChem-08232013543D

 45 48  0     1  0  0  0  0  0999 V2000
    9.5890   -2.4950   23.2210 C   0  0  0  0  0  0  0  0  0  0  0  0
    8.2550   -1.0010   24.5520 C   0  0  0  0  0  0  0  0  0  0  0  0
    9.1890   -3.5540   24.0140 C   0  0  0  0  0  0  0  0  0  0  0  0
    7.8700   -2.0610   25.3550 C   0  0  0  0  0  0  0  0  0  0  0  0
   11.1765   -0.0135   25.4385 C   0  0  0  0  0  0  0  0  0  0  0  0
   12.1828    0.2352   26.3457 C   0  0  0  0  0  0  0  0  0  0  0  0
   11.4796    2.2746   25.1641 C   0  0  0  0  0  0  0  0  0  0  0  0
    9.1280   -1.2090   23.4870 C   0  0  0  0  0  0  0  0  0  0  0  0
   10.7691    1.1678   24.7539 C   0  0  0  0  0  0  0  0  0  0  0  0
    8.3450   -3.3440   25.0980 C   0  0  0  0  0  0  0  0  0  0  0  0
    6.1460    0.6070   19.9750 C   0  0  0  0  0  0  0  0  0  0  0  0
    7.2710   -0.1460   19.8310 C   0  0  0  0  0  0  0  0  0  0  0  0
    5.3890    1.0010   21.0690 C   0  0  0  0  0  0  0  0  0  0  0  0
    4.2460    1.7520   20.8250 C   0  0  0  0  0  0  0  0  0  0  0  0
    3.8860    2.1050   19.5250 C   0  0  0  0  0  0  0  0  0  0  0  0
    4.6610    1.7170   18.4380 C   0  0  0  0  0  0  0  0  0  0  0  0
    9.0430    0.2380   21.4940 C   0  0  0  0  0  0  0  0  0  0  0  0
    7.1165   -4.0863   26.9914 C   0  0  0  0  0  0  0  0  0  0  0  0
    9.6841    1.2008   23.7022 C   0  0  0  0  0  0  0  0  0  0  0  0
    9.5820   -0.1080   22.7000 C   0  0  2  0  0  0  0  0  0  0  0  0
    7.5840   -0.2700   18.5160 N   0  0  0  0  0  0  0  0  0  0  0  0
    6.7100    0.3850   17.8100 N   0  0  0  0  0  0  0  0  0  0  0  0
    5.7970    0.9500   18.6730 N   0  0  0  0  0  0  0  0  0  0  0  0
    8.0950   -0.7700   20.8440 N   0  0  0  0  0  0  0  0  0  0  0  0
    9.2950    1.3000   20.9480 O   0  0  0  0  0  0  0  0  0  0  0  0
    7.9856   -4.3803   25.8987 O   0  0  0  0  0  0  0  0  0  0  0  0
   12.6325    1.8873   26.3696 S   0  0  0  0  0  0  0  0  0  0  0  0
   10.2677   -2.6721   22.3861 H   0  0  0  0  0  0  0  0  0  0  0  0
    7.8705   -0.0015   24.7586 H   0  0  0  0  0  0  0  0  0  0  0  0
    9.5403   -4.5634   23.7844 H   0  0  0  0  0  0  0  0  0  0  0  0
    7.1918   -1.8874   26.1909 H   0  0  0  0  0  0  0  0  0  0  0  0
   10.7551   -0.9977   25.2772 H   0  0  0  0  0  0  0  0  0  0  0  0
   12.6750   -0.4740   26.9961 H   0  0  0  0  0  0  0  0  0  0  0  0
   11.3793    3.2937   24.8171 H   0  0  0  0  0  0  0  0  0  0  0  0
    5.6529    0.7487   22.0767 H   0  0  0  0  0  0  0  0  0  0  0  0
    3.6388    2.0586   21.6675 H   0  0  0  0  0  0  0  0  0  0  0  0
    2.9822    2.6968   19.3330 H   0  0  0  0  0  0  0  0  0  0  0  0
    4.4111    1.9893   17.4360 H   0  0  0  0  0  0  0  0  0  0  0  0
    6.9091   -5.0025   27.5497 H   0  0  0  0  0  0  0  0  0  0  0  0
    6.1847   -3.6591   26.6124 H   0  0  0  0  0  0  0  0  0  0  0  0
    7.6050   -3.3639   27.6497 H   0  0  0  0  0  0  0  0  0  0  0  0
    8.7167    1.3910   24.1851 H   0  0  0  0  0  0  0  0  0  0  0  0
    9.8647    2.0727   23.0582 H   0  0  0  0  0  0  0  0  0  0  0  0
   10.7539   -0.2760   22.5528 H   0  0  0  0  0  0  0  0  0  0  0  0
    8.0713   -1.6185   21.0737 H   0  0  0  0  0  0  0  0  0  0  0  0
  1  3  2  0  0  0  0
  1  8  1  0  0  0  0
  2  4  1  0  0  0  0
  2  8  2  0  0  0  0
  3 10  1  0  0  0  0
  4 10  2  0  0  0  0
  5  6  2  0  0  0  0
  5  9  1  0  0  0  0
  6 27  1  0  0  0  0
  7  9  2  0  0  0  0
  7 27  1  0  0  0  0
  8 20  1  0  0  0  0
  9 19  1  0  0  0  0
 10 26  1  0  0  0  0
 11 12  2  0  0  0  0
 11 13  1  0  0  0  0
 11 23  1  0  0  0  0
 12 21  1  0  0  0  0
 12 24  1  0  0  0  0
 13 14  2  0  0  0  0
 14 15  1  0  0  0  0
 15 16  2  0  0  0  0
 16 23  1  0  0  0  0
 17 20  1  0  0  0  0
 17 24  1  0  0  0  0
 17 25  2  0  0  0  0
 18 26  1  0  0  0  0
 19 20  1  6  0  0  0
 21 22  2  0  0  0  0
 22 23  1  0  0  0  0
  1 28  1  0  0  0  0
  2 29  1  0  0  0  0
  3 30  1  0  0  0  0
  4 31  1  0  0  0  0
  5 32  1  0  0  0  0
  6 33  1  0  0  0  0
  7 34  1  0  0  0  0
 13 35  1  0  0  0  0
 14 36  1  0  0  0  0
 15 37  1  0  0  0  0
 16 38  1  0  0  0  0
 18 39  1  0  0  0  0
 18 40  1  0  0  0  0
 18 41  1  0  0  0  0
 19 42  1  0  0  0  0
 19 43  1  0  0  0  0
 20 44  1  0  0  0  0
 24 45  1  0  0  0  0
M  END
> <clash_score>
2.2272638698133886

> <docking_score>
-3.690666675567627

> <overlap_score>
0.7626579403877258

$$$$
BENZO_271_1
  -OEChem-08232013543D

 48 51  0     1  0  0  0  0  0999 V2000
    9.5890   -2.4950   23.2210 C   0  0  0  0  0  0  0  0  0  0  0  0
    8.2550   -1.0010   24.5520 C   0  0  0  0  0  0  0  0  0  0  0  0
    9.1890   -3.5540   24.0140 C   0  0  0  0  0  0  0  0  0  0  0  0
    7.8700   -2.0610   25.3550 C   0  0  0  0  0  0  0  0  0  0  0  0
   13.1332   -1.1110   24.1732 C   0  0  0  0  0  0  0  0  0  0  0  0
   11.5178   -0.0030   25.1721 C   0  0  0  0  0  0  0  0  0  0  0  0
    9.1280   -1.2090   23.4870 C   0  0  0  0  0  0  0  0  0  0  0  0
   11.9236   -0.4323   23.9322 C   0  0  0  0  0  0  0  0  0  0  0  0
    8.3450   -3.3440   25.0980 C   0  0  0  0  0  0  0  0  0  0  0  0
    6.1460    0.6070   19.9750 C   0  0  0  0  0  0  0  0  0  0  0  0
    7.2710   -0.1460   19.8310 C   0  0  0  0  0  0  0  0  0  0  0  0
    5.3890    1.0010   21.0690 C   0  0  0  0  0  0  0  0  0  0  0  0
    4.2460    1.7520   20.8250 C   0  0  0  0  0  0  0  0  0  0  0  0
    3.8860    2.1050   19.5250 C   0  0  0  0  0  0  0  0  0  0  0  0
    4.6610    1.7170   18.4380 C   0  0  0  0  0  0  0  0  0  0  0  0
    9.0430    0.2380   21.4940 C   0  0  0  0  0  0  0  0  0  0  0  0
   12.4834   -0.2219   27.4740 C   0  0  0  0  0  0  0  0  0  0  0  0
    7.1165   -4.0863   26.9914 C   0  0  0  0  0  0  0  0  0  0  0  0
   11.2273   -0.2199   22.6076 C   0  0  0  0  0  0  0  0  0  0  0  0
    9.5820   -0.1080   22.7000 C   0  0  1  0  0  0  0  0  0  0  0  0
   13.4737   -1.1150   25.4647 N   0  0  0  0  0  0  0  0  0  0  0  0
    7.5840   -0.2700   18.5160 N   0  0  0  0  0  0  0  0  0  0  0  0
    6.7100    0.3850   17.8100 N   0  0  0  0  0  0  0  0  0  0  0  0
   12.4721   -0.4335   26.0464 N   0  0  0  0  0  0  0  0  0  0  0  0
    5.7970    0.9500   18.6730 N   0  0  0  0  0  0  0  0  0  0  0  0
    8.0950   -0.7700   20.8440 N   0  0  0  0  0  0  0  0  0  0  0  0
    9.2950    1.3000   20.9480 O   0  0  0  0  0  0  0  0  0  0  0  0
    7.9856   -4.3803   25.8987 O   0  0  0  0  0  0  0  0  0  0  0  0
   10.2677   -2.6721   22.3861 H   0  0  0  0  0  0  0  0  0  0  0  0
    7.8705   -0.0015   24.7586 H   0  0  0  0  0  0  0  0  0  0  0  0
    9.5403   -4.5634   23.7844 H   0  0  0  0  0  0  0  0  0  0  0  0
    7.1918   -1.8874   26.1909 H   0  0  0  0  0  0  0  0  0  0  0  0
   13.7829   -1.6028   23.4631 H   0  0  0  0  0  0  0  0  0  0  0  0
   10.6535    0.5594   25.4986 H   0  0  0  0  0  0  0  0  0  0  0  0
    5.6529    0.7487   22.0767 H   0  0  0  0  0  0  0  0  0  0  0  0
    3.6388    2.0586   21.6675 H   0  0  0  0  0  0  0  0  0  0  0  0
    2.9822    2.6968   19.3330 H   0  0  0  0  0  0  0  0  0  0  0  0
    4.4111    1.9893   17.4360 H   0  0  0  0  0  0  0  0  0  0  0  0
   11.9614   -1.0599   27.9433 H   0  0  0  0  0  0  0  0  0  0  0  0
   13.5174   -0.1700   27.8262 H   0  0  0  0  0  0  0  0  0  0  0  0
   11.9792    0.7209   27.7036 H   0  0  0  0  0  0  0  0  0  0  0  0
    6.9091   -5.0025   27.5497 H   0  0  0  0  0  0  0  0  0  0  0  0
    6.1847   -3.6591   26.6124 H   0  0  0  0  0  0  0  0  0  0  0  0
    7.6050   -3.3639   27.6497 H   0  0  0  0  0  0  0  0  0  0  0  0
   11.5842    0.7150   22.1561 H   0  0  0  0  0  0  0  0  0  0  0  0
   11.5525   -1.0164   21.9239 H   0  0  0  0  0  0  0  0  0  0  0  0
    9.5374    0.8439   23.4178 H   0  0  0  0  0  0  0  0  0  0  0  0
    8.0713   -1.6185   21.0737 H   0  0  0  0  0  0  0  0  0  0  0  0
  1  3  2  0  0  0  0
  1  7  1  0  0  0  0
  2  4  1  0  0  0  0
  2  7  2  0  0  0  0
  3  9  1  0  0  0  0
  4  9  2  0  0  0  0
  5  8  1  0  0  0  0
  5 21  2  0  0  0  0
  6  8  2  0  0  0  0
  6 24  1  0  0  0  0
  7 20  1  0  0  0  0
  8 19  1  0  0  0  0
  9 28  1  0  0  0  0
 10 11  2  0  0  0  0
 10 12  1  0  0  0  0
 10 25  1  0  0  0  0
 11 22  1  0  0  0  0
 11 26  1  0  0  0  0
 12 13  2  0  0  0  0
 13 14  1  0  0  0  0
 14 15  2  0  0  0  0
 15 25  1  0  0  0  0
 16 20  1  0  0  0  0
 16 26  1  0  0  0  0
 16 27  2  0  0  0  0
 17 24  1  0  0  0  0
 18 28  1  0  0  0  0
 19 20  1  1  0  0  0
 21 24  1  0  0  0  0
 22 23  2  0  0  0  0
 23 25  1  0  0  0  0
  1 29  1  0  0  0  0
  2 30  1  0  0  0  0
  3 31  1  0  0  0  0
  4 32  1  0  0  0  0
  5 33  1  0  0  0  0
  6 34  1  0  0  0  0
 12 35  1  0  0  0  0
 13 36  1  0  0  0  0
 14 37  1  0  0  0  0
 15 38  1  0  0  0  0
 17 39  1  0  0  0  0
 17 40  1  0  0  0  0
 17 41  1  0  0  0  0
 18 42  1  0  0  0  0
 18 43  1  0  0  0  0
 18 44  1  0  0  0  0
 19 45  1  0  0  0  0
 19 46  1  0  0  0  0
 20 47  1  0  0  0  0
 26 48  1  0  0  0  0
M  END
> <clash_score>
0

> <docking_score>
-4.599498748779297

> <overlap_score>
0.8460131883621216

$$$$
BENZO_271_2
  -OEChem-08232013543D

 48 51  0     1  0  0  0  0  0999 V2000
    9.5890   -2.4950   23.2210 C   0  0  0  0  0  0  0  0  0  0  0  0
    8.2550   -1.0010   24.5520 C   0  0  0  0  0  0  0  0  0  0  0  0
    9.1890   -3.5540   24.0140 C   0  0  0  0  0  0  0  0  0  0  0  0
    7.8700   -2.0610   25.3550 C   0  0  0  0  0  0  0  0  0  0  0  0
   11.7155    0.1520   24.9872 C   0  0  0  0  0  0  0  0  0  0  0  0
   11.0544    2.1258   25.6959 C   0  0  0  0  0  0  0  0  0  0  0  0
    9.1280   -1.2090   23.4870 C   0  0  0  0  0  0  0  0  0  0  0  0
   10.7691    1.1678   24.7539 C   0  0  0  0  0  0  0  0  0  0  0  0
    8.3450   -3.3440   25.0980 C   0  0  0  0  0  0  0  0  0  0  0  0
    6.1460    0.6070   19.9750 C   0  0  0  0  0  0  0  0  0  0  0  0
    7.2710   -0.1460   19.8310 C   0  0  0  0  0  0  0  0  0  0  0  0
    5.3890    1.0010   21.0690 C   0  0  0  0  0  0  0  0  0  0  0  0
    4.2460    1.7520   20.8250 C   0  0  0  0  0  0  0  0  0  0  0  0
    3.8860    2.1050   19.5250 C   0  0  0  0  0  0  0  0  0  0  0  0
    4.6610    1.7170   18.4380 C   0  0  0  0  0  0  0  0  0  0  0  0
    9.0430    0.2380   21.4940 C   0  0  0  0  0  0  0  0  0  0  0  0
   12.7726    2.3013   27.5113 C   0  0  0  0  0  0  0  0  0  0  0  0
    8.5105   -5.6662   25.5725 C   0  0  0  0  0  0  0  0  0  0  0  0
    9.6841    1.2008   23.7022 C   0  0  0  0  0  0  0  0  0  0  0  0
    9.5820   -0.1080   22.7000 C   0  0  2  0  0  0  0  0  0  0  0  0
   12.5403    0.4381   25.9980 N   0  0  0  0  0  0  0  0  0  0  0  0
    7.5840   -0.2700   18.5160 N   0  0  0  0  0  0  0  0  0  0  0  0
    6.7100    0.3850   17.8100 N   0  0  0  0  0  0  0  0  0  0  0  0
   12.1132    1.6445   26.4082 N   0  0  0  0  0  0  0  0  0  0  0  0
    5.7970    0.9500   18.6730 N   0  0  0  0  0  0  0  0  0  0  0  0
    8.0950   -0.7700   20.8440 N   0  0  0  0  0  0  0  0  0  0  0  0
    9.2950    1.3000   20.9480 O   0  0  0  0  0  0  0  0  0  0  0  0
    7.9856   -4.3803   25.8987 O   0  0  0  0  0  0  0  0  0  0  0  0
   10.2677   -2.6721   22.3861 H   0  0  0  0  0  0  0  0  0  0  0  0
    7.8705   -0.0015   24.7586 H   0  0  0  0  0  0  0  0  0  0  0  0
    9.5403   -4.5634   23.7844 H   0  0  0  0  0  0  0  0  0  0  0  0
    7.1918   -1.8874   26.1909 H   0  0  0  0  0  0  0  0  0  0  0  0
   11.8409   -0.7851   24.4635 H   0  0  0  0  0  0  0  0  0  0  0  0
   10.6061    3.0857   25.9138 H   0  0  0  0  0  0  0  0  0  0  0  0
    5.6529    0.7487   22.0767 H   0  0  0  0  0  0  0  0  0  0  0  0
    3.6388    2.0586   21.6675 H   0  0  0  0  0  0  0  0  0  0  0  0
    2.9822    2.6968   19.3330 H   0  0  0  0  0  0  0  0  0  0  0  0
    4.4111    1.9893   17.4360 H   0  0  0  0  0  0  0  0  0  0  0  0
   12.2713    1.9965   28.4337 H   0  0  0  0  0  0  0  0  0  0  0  0
   13.8256    2.0072   27.5334 H   0  0  0  0  0  0  0  0  0  0  0  0
   12.7061    3.3847   27.3788 H   0  0  0  0  0  0  0  0  0  0  0  0
    8.1445   -6.4032   26.2915 H   0  0  0  0  0  0  0  0  0  0  0  0
    9.6027   -5.6312   25.5944 H   0  0  0  0  0  0  0  0  0  0  0  0
    8.1768   -5.9424   24.5694 H   0  0  0  0  0  0  0  0  0  0  0  0
    8.7167    1.3910   24.1851 H   0  0  0  0  0  0  0  0  0  0  0  0
    9.8647    2.0727   23.0582 H   0  0  0  0  0  0  0  0  0  0  0  0
   10.7539   -0.2760   22.5528 H   0  0  0  0  0  0  0  0  0  0  0  0
    8.0713   -1.6185   21.0737 H   0  0  0  0  0  0  0  0  0  0  0  0
  1  3  2  0  0  0  0
  1  7  1  0  0  0  0
  2  4  1  0  0  0  0
  2  7  2  0  0  0  0
  3  9  1  0  0  0  0
  4  9  2  0  0  0  0
  5  8  1  0  0  0  0
  5 21  2  0  0  0  0
  6  8  2  0  0  0  0
  6 24  1  0  0  0  0
  7 20  1  0  0  0  0
  8 19  1  0  0  0  0
  9 28  1  0  0  0  0
 10 11  2  0  0  0  0
 10 12  1  0  0  0  0
 10 25  1  0  0  0  0
 11 22  1  0  0  0  0
 11 26  1  0  0  0  0
 12 13  2  0  0  0  0
 13 14  1  0  0  0  0
 14 15  2  0  0  0  0
 15 25  1  0  0  0  0
 16 20  1  0  0  0  0
 16 26  1  0  0  0  0
 16 27  2  0  0  0  0
 17 24  1  0  0  0  0
 18 28  1  0  0  0  0
 19 20  1  6  0  0  0
 21 24  1  0  0  0  0
 22 23  2  0  0  0  0
 23 25  1  0  0  0  0
  1 29  1  0  0  0  0
  2 30  1  0  0  0  0
  3 31  1  0  0  0  0
  4 32  1  0  0  0  0
  5 33  1  0  0  0  0
  6 34  1  0  0  0  0
 12 35  1  0  0  0  0
 13 36  1  0  0  0  0
 14 37  1  0  0  0  0
 15 38  1  0  0  0  0
 17 39  1  0  0  0  0
 17 40  1  0  0  0  0
 17 41  1  0  0  0  0
 18 42  1  0  0  0  0
 18 43  1  0  0  0  0
 18 44  1  0  0  0  0
 19 45  1  0  0  0  0
 19 46  1  0  0  0  0
 20 47  1  0  0  0  0
 26 48  1  0  0  0  0
M  END
> <clash_score>
3.2086022107449237

> <docking_score>
-3.122950553894043

> <overlap_score>
0.7628608345985413

$$$$
BENZO_270_2
  -OEChem-08232013543D

 48 51  0     1  0  0  0  0  0999 V2000
   11.5820    1.7950   26.9408 C   0  0  0  0  0  0  0  0  0  0  0  0
   10.5816    1.8259   25.9694 C   0  0  0  0  0  0  0  0  0  0  0  0
    9.5890   -2.4950   23.2210 C   0  0  0  0  0  0  0  0  0  0  0  0
    8.2550   -1.0010   24.5520 C   0  0  0  0  0  0  0  0  0  0  0  0
    9.1890   -3.5540   24.0140 C   0  0  0  0  0  0  0  0  0  0  0  0
    7.8700   -2.0610   25.3550 C   0  0  0  0  0  0  0  0  0  0  0  0
   12.7701    1.1060   26.6968 C   0  0  0  0  0  0  0  0  0  0  0  0
   11.9572    0.4788   24.5098 C   0  0  0  0  0  0  0  0  0  0  0  0
    9.1280   -1.2090   23.4870 C   0  0  0  0  0  0  0  0  0  0  0  0
   10.7691    1.1678   24.7539 C   0  0  0  0  0  0  0  0  0  0  0  0
    8.3450   -3.3440   25.0980 C   0  0  0  0  0  0  0  0  0  0  0  0
   12.9577    0.4479   25.4813 C   0  0  0  0  0  0  0  0  0  0  0  0
    6.1460    0.6070   19.9750 C   0  0  0  0  0  0  0  0  0  0  0  0
    7.2710   -0.1460   19.8310 C   0  0  0  0  0  0  0  0  0  0  0  0
    5.3890    1.0010   21.0690 C   0  0  0  0  0  0  0  0  0  0  0  0
    4.2460    1.7520   20.8250 C   0  0  0  0  0  0  0  0  0  0  0  0
    3.8860    2.1050   19.5250 C   0  0  0  0  0  0  0  0  0  0  0  0
    4.6610    1.7170   18.4380 C   0  0  0  0  0  0  0  0  0  0  0  0
    9.0430    0.2380   21.4940 C   0  0  0  0  0  0  0  0  0  0  0  0
    8.5105   -5.6662   25.5725 C   0  0  0  0  0  0  0  0  0  0  0  0
    9.6841    1.2008   23.7022 C   0  0  0  0  0  0  0  0  0  0  0  0
    9.5820   -0.1080   22.7000 C   0  0  2  0  0  0  0  0  0  0  0  0
    7.5840   -0.2700   18.5160 N   0  0  0  0  0  0  0  0  0  0  0  0
    6.7100    0.3850   17.8100 N   0  0  0  0  0  0  0  0  0  0  0  0
    5.7970    0.9500   18.6730 N   0  0  0  0  0  0  0  0  0  0  0  0
    8.0950   -0.7700   20.8440 N   0  0  0  0  0  0  0  0  0  0  0  0
    9.2950    1.3000   20.9480 O   0  0  0  0  0  0  0  0  0  0  0  0
    7.9856   -4.3803   25.8987 O   0  0  0  0  0  0  0  0  0  0  0  0
   14.4232   -0.4029   25.1812 Cl  0  0  0  0  0  0  0  0  0  0  0  0
   11.4356    2.3075   27.8872 H   0  0  0  0  0  0  0  0  0  0  0  0
    9.6591    2.3651   26.1681 H   0  0  0  0  0  0  0  0  0  0  0  0
   10.2677   -2.6721   22.3861 H   0  0  0  0  0  0  0  0  0  0  0  0
    7.8705   -0.0015   24.7586 H   0  0  0  0  0  0  0  0  0  0  0  0
    9.5403   -4.5634   23.7844 H   0  0  0  0  0  0  0  0  0  0  0  0
    7.1918   -1.8874   26.1909 H   0  0  0  0  0  0  0  0  0  0  0  0
   13.5411    1.0902   27.4632 H   0  0  0  0  0  0  0  0  0  0  0  0
   12.0988   -0.0323   23.5603 H   0  0  0  0  0  0  0  0  0  0  0  0
    5.6529    0.7487   22.0767 H   0  0  0  0  0  0  0  0  0  0  0  0
    3.6388    2.0586   21.6675 H   0  0  0  0  0  0  0  0  0  0  0  0
    2.9822    2.6968   19.3330 H   0  0  0  0  0  0  0  0  0  0  0  0
    4.4111    1.9893   17.4360 H   0  0  0  0  0  0  0  0  0  0  0  0
    8.1445   -6.4032   26.2915 H   0  0  0  0  0  0  0  0  0  0  0  0
    9.6027   -5.6312   25.5944 H   0  0  0  0  0  0  0  0  0  0  0  0
    8.1768   -5.9424   24.5694 H   0  0  0  0  0  0  0  0  0  0  0  0
    8.7167    1.3910   24.1851 H   0  0  0  0  0  0  0  0  0  0  0  0
    9.8647    2.0727   23.0582 H   0  0  0  0  0  0  0  0  0  0  0  0
   10.7539   -0.2760   22.5528 H   0  0  0  0  0  0  0  0  0  0  0  0
    8.0713   -1.6185   21.0737 H   0  0  0  0  0  0  0  0  0  0  0  0
  1  2  2  0  0  0  0
  1  7  1  0  0  0  0
  2 10  1  0  0  0  0
  3  5  2  0  0  0  0
  3  9  1  0  0  0  0
  4  6  1  0  0  0  0
  4  9  2  0  0  0  0
  5 11  1  0  0  0  0
  6 11  2  0  0  0  0
  7 12  2  0  0  0  0
  8 10  2  0  0  0  0
  8 12  1  0  0  0  0
  9 22  1  0  0  0  0
 10 21  1  0  0  0  0
 11 28  1  0  0  0  0
 12 29  1  0  0  0  0
 13 14  2  0  0  0  0
 13 15  1  0  0  0  0
 13 25  1  0  0  0  0
 14 23  1  0  0  0  0
 14 26  1  0  0  0  0
 15 16  2  0  0  0  0
 16 17  1  0  0  0  0
 17 18  2  0  0  0  0
 18 25  1  0  0  0  0
 19 22  1  0  0  0  0
 19 26  1  0  0  0  0
 19 27  2  0  0  0  0
 20 28  1  0  0  0  0
 21 22  1  6  0  0  0
 23 24  2  0  0  0  0
 24 25  1  0  0  0  0
  1 30  1  0  0  0  0
  2 31  1  0  0  0  0
  3 32  1  0  0  0  0
  4 33  1  0  0  0  0
  5 34  1  0  0  0  0
  6 35  1  0  0  0  0
  7 36  1  0  0  0  0
  8 37  1  0  0  0  0
 15 38  1  0  0  0  0
 16 39  1  0  0  0  0
 17 40  1  0  0  0  0
 18 41  1  0  0  0  0
 20 42  1  0  0  0  0
 20 43  1  0  0  0  0
 20 44  1  0  0  0  0
 21 45  1  0  0  0  0
 21 46  1  0  0  0  0
 22 47  1  0  0  0  0
 26 48  1  0  0  0  0
M  END
> <clash_score>
4.383878283821707

> <docking_score>
-3.0073118209838867

> <overlap_score>
0.7816112637519836

$$$$
BENZO_270_1
  -OEChem-08232013543D

 48 51  0     1  0  0  0  0  0999 V2000
   12.0047   -0.1195   26.3264 C   0  0  0  0  0  0  0  0  0  0  0  0
   11.3632    0.0771   25.1035 C   0  0  0  0  0  0  0  0  0  0  0  0
    9.5890   -2.4950   23.2210 C   0  0  0  0  0  0  0  0  0  0  0  0
    8.2550   -1.0010   24.5520 C   0  0  0  0  0  0  0  0  0  0  0  0
    9.1890   -3.5540   24.0140 C   0  0  0  0  0  0  0  0  0  0  0  0
    7.8700   -2.0610   25.3550 C   0  0  0  0  0  0  0  0  0  0  0  0
   13.2066   -0.8255   26.3780 C   0  0  0  0  0  0  0  0  0  0  0  0
   13.1255   -1.1384   23.9837 C   0  0  0  0  0  0  0  0  0  0  0  0
    9.1280   -1.2090   23.4870 C   0  0  0  0  0  0  0  0  0  0  0  0
   11.9236   -0.4323   23.9322 C   0  0  0  0  0  0  0  0  0  0  0  0
    8.3450   -3.3440   25.0980 C   0  0  0  0  0  0  0  0  0  0  0  0
   13.7670   -1.3350   25.2066 C   0  0  0  0  0  0  0  0  0  0  0  0
    6.1460    0.6070   19.9750 C   0  0  0  0  0  0  0  0  0  0  0  0
    7.2710   -0.1460   19.8310 C   0  0  0  0  0  0  0  0  0  0  0  0
    5.3890    1.0010   21.0690 C   0  0  0  0  0  0  0  0  0  0  0  0
    4.2460    1.7520   20.8250 C   0  0  0  0  0  0  0  0  0  0  0  0
    3.8860    2.1050   19.5250 C   0  0  0  0  0  0  0  0  0  0  0  0
    4.6610    1.7170   18.4380 C   0  0  0  0  0  0  0  0  0  0  0  0
    9.0430    0.2380   21.4940 C   0  0  0  0  0  0  0  0  0  0  0  0
    8.5105   -5.6662   25.5725 C   0  0  0  0  0  0  0  0  0  0  0  0
   11.2273   -0.2199   22.6076 C   0  0  0  0  0  0  0  0  0  0  0  0
    9.5820   -0.1080   22.7000 C   0  0  1  0  0  0  0  0  0  0  0  0
    7.5840   -0.2700   18.5160 N   0  0  0  0  0  0  0  0  0  0  0  0
    6.7100    0.3850   17.8100 N   0  0  0  0  0  0  0  0  0  0  0  0
    5.7970    0.9500   18.6730 N   0  0  0  0  0  0  0  0  0  0  0  0
    8.0950   -0.7700   20.8440 N   0  0  0  0  0  0  0  0  0  0  0  0
    9.2950    1.3000   20.9480 O   0  0  0  0  0  0  0  0  0  0  0  0
    7.9856   -4.3803   25.8987 O   0  0  0  0  0  0  0  0  0  0  0  0
   15.2493   -2.2070   25.2710 Cl  0  0  0  0  0  0  0  0  0  0  0  0
   11.5679    0.2773   27.2383 H   0  0  0  0  0  0  0  0  0  0  0  0
   10.4270    0.6284   25.0728 H   0  0  0  0  0  0  0  0  0  0  0  0
   10.2677   -2.6721   22.3861 H   0  0  0  0  0  0  0  0  0  0  0  0
    7.8705   -0.0015   24.7586 H   0  0  0  0  0  0  0  0  0  0  0  0
    9.5403   -4.5634   23.7844 H   0  0  0  0  0  0  0  0  0  0  0  0
    7.1918   -1.8874   26.1909 H   0  0  0  0  0  0  0  0  0  0  0  0
   13.6953   -0.9714   27.3382 H   0  0  0  0  0  0  0  0  0  0  0  0
   13.5586   -1.5332   23.0675 H   0  0  0  0  0  0  0  0  0  0  0  0
    5.6529    0.7487   22.0767 H   0  0  0  0  0  0  0  0  0  0  0  0
    3.6388    2.0586   21.6675 H   0  0  0  0  0  0  0  0  0  0  0  0
    2.9822    2.6968   19.3330 H   0  0  0  0  0  0  0  0  0  0  0  0
    4.4111    1.9893   17.4360 H   0  0  0  0  0  0  0  0  0  0  0  0
    8.1445   -6.4032   26.2915 H   0  0  0  0  0  0  0  0  0  0  0  0
    9.6027   -5.6312   25.5944 H   0  0  0  0  0  0  0  0  0  0  0  0
    8.1768   -5.9424   24.5694 H   0  0  0  0  0  0  0  0  0  0  0  0
   11.5842    0.7150   22.1561 H   0  0  0  0  0  0  0  0  0  0  0  0
   11.5525   -1.0164   21.9239 H   0  0  0  0  0  0  0  0  0  0  0  0
    9.5374    0.8439   23.4178 H   0  0  0  0  0  0  0  0  0  0  0  0
    8.0713   -1.6185   21.0737 H   0  0  0  0  0  0  0  0  0  0  0  0
  1  2  2  0  0  0  0
  1  7  1  0  0  0  0
  2 10  1  0  0  0  0
  3  5  2  0  0  0  0
  3  9  1  0  0  0  0
  4  6  1  0  0  0  0
  4  9  2  0  0  0  0
  5 11  1  0  0  0  0
  6 11  2  0  0  0  0
  7 12  2  0  0  0  0
  8 10  2  0  0  0  0
  8 12  1  0  0  0  0
  9 22  1  0  0  0  0
 10 21  1  0  0  0  0
 11 28  1  0  0  0  0
 12 29  1  0  0  0  0
 13 14  2  0  0  0  0
 13 15  1  0  0  0  0
 13 25  1  0  0  0  0
 14 23  1  0  0  0  0
 14 26  1  0  0  0  0
 15 16  2  0  0  0  0
 16 17  1  0  0  0  0
 17 18  2  0  0  0  0
 18 25  1  0  0  0  0
 19 22  1  0  0  0  0
 19 26  1  0  0  0  0
 19 27  2  0  0  0  0
 20 28  1  0  0  0  0
 21 22  1  1  0  0  0
 23 24  2  0  0  0  0
 24 25  1  0  0  0  0
  1 30  1  0  0  0  0
  2 31  1  0  0  0  0
  3 32  1  0  0  0  0
  4 33  1  0  0  0  0
  5 34  1  0  0  0  0
  6 35  1  0  0  0  0
  7 36  1  0  0  0  0
  8 37  1  0  0  0  0
 15 38  1  0  0  0  0
 16 39  1  0  0  0  0
 17 40  1  0  0  0  0
 18 41  1  0  0  0  0
 20 42  1  0  0  0  0
 20 43  1  0  0  0  0
 20 44  1  0  0  0  0
 21 45  1  0  0  0  0
 21 46  1  0  0  0  0
 22 47  1  0  0  0  0
 26 48  1  0  0  0  0
M  END
> <clash_score>
0

> <docking_score>
-4.700346946716309

> <overlap_score>
0.846626341342926

$$$$
BENZO_273_1
  -OEChem-08232013543D

 58 62  0     1  0  0  0  0  0999 V2000
   12.6859    4.1423   22.7481 C   0  0  0  0  0  0  0  0  0  0  0  0
   11.5036    4.5324   23.3772 C   0  0  0  0  0  0  0  0  0  0  0  0
   12.8948    2.8014   22.4259 C   0  0  0  0  0  0  0  0  0  0  0  0
   10.5303    3.5816   23.6841 C   0  0  0  0  0  0  0  0  0  0  0  0
   11.9215    1.8505   22.7328 C   0  0  0  0  0  0  0  0  0  0  0  0
    9.5890   -2.4950   23.2210 C   0  0  0  0  0  0  0  0  0  0  0  0
    8.2550   -1.0010   24.5520 C   0  0  0  0  0  0  0  0  0  0  0  0
    9.1890   -3.5540   24.0140 C   0  0  0  0  0  0  0  0  0  0  0  0
    7.8700   -2.0610   25.3550 C   0  0  0  0  0  0  0  0  0  0  0  0
   10.7393    2.2406   23.3619 C   0  0  0  0  0  0  0  0  0  0  0  0
    9.1280   -1.2090   23.4870 C   0  0  0  0  0  0  0  0  0  0  0  0
    8.3450   -3.3440   25.0980 C   0  0  0  0  0  0  0  0  0  0  0  0
    6.1460    0.6070   19.9750 C   0  0  0  0  0  0  0  0  0  0  0  0
    7.2710   -0.1460   19.8310 C   0  0  0  0  0  0  0  0  0  0  0  0
    5.3890    1.0010   21.0690 C   0  0  0  0  0  0  0  0  0  0  0  0
    4.2460    1.7520   20.8250 C   0  0  0  0  0  0  0  0  0  0  0  0
    3.8860    2.1050   19.5250 C   0  0  0  0  0  0  0  0  0  0  0  0
    4.6610    1.7170   18.4380 C   0  0  0  0  0  0  0  0  0  0  0  0
    8.2712   -4.4336   27.3225 C   0  0  0  0  0  0  0  0  0  0  0  0
    9.0430    0.2380   21.4940 C   0  0  0  0  0  0  0  0  0  0  0  0
    7.5739   -5.4743   28.1816 C   0  0  0  0  0  0  0  0  0  0  0  0
    7.3190   -6.7949   27.4884 C   0  0  0  0  0  0  0  0  0  0  0  0
    6.5818   -6.5304   26.1943 C   0  0  0  0  0  0  0  0  0  0  0  0
    7.4451   -5.6594   25.2973 C   0  0  0  0  0  0  0  0  0  0  0  0
    9.6852    1.2097   23.6944 C   0  0  0  0  0  0  0  0  0  0  0  0
    9.5820   -0.1080   22.7000 C   0  0  1  0  0  0  0  0  0  0  0  0
    7.5840   -0.2700   18.5160 N   0  0  0  0  0  0  0  0  0  0  0  0
    6.7100    0.3850   17.8100 N   0  0  0  0  0  0  0  0  0  0  0  0
    5.7970    0.9500   18.6730 N   0  0  0  0  0  0  0  0  0  0  0  0
    7.9635   -4.4451   25.9501 N   0  0  0  0  0  0  0  0  0  0  0  0
    8.0950   -0.7700   20.8440 N   0  0  0  0  0  0  0  0  0  0  0  0
    9.0077   -3.6181   27.8843 O   0  0  0  0  0  0  0  0  0  0  0  0
    9.2950    1.3000   20.9480 O   0  0  0  0  0  0  0  0  0  0  0  0
   13.4430    4.8831   22.5080 H   0  0  0  0  0  0  0  0  0  0  0  0
   11.3403    5.5767   23.6272 H   0  0  0  0  0  0  0  0  0  0  0  0
   13.8146    2.4975   21.9351 H   0  0  0  0  0  0  0  0  0  0  0  0
    9.6123    3.8946   24.1745 H   0  0  0  0  0  0  0  0  0  0  0  0
   12.0930    0.8080   22.4781 H   0  0  0  0  0  0  0  0  0  0  0  0
   10.2695   -2.6718   22.3873 H   0  0  0  0  0  0  0  0  0  0  0  0
    7.8712   -0.0014   24.7587 H   0  0  0  0  0  0  0  0  0  0  0  0
    9.5431   -4.5618   23.7801 H   0  0  0  0  0  0  0  0  0  0  0  0
    7.1923   -1.8823   26.1912 H   0  0  0  0  0  0  0  0  0  0  0  0
    5.6529    0.7487   22.0767 H   0  0  0  0  0  0  0  0  0  0  0  0
    3.6388    2.0586   21.6675 H   0  0  0  0  0  0  0  0  0  0  0  0
    2.9822    2.6968   19.3330 H   0  0  0  0  0  0  0  0  0  0  0  0
    4.4111    1.9893   17.4360 H   0  0  0  0  0  0  0  0  0  0  0  0
    8.1899   -5.6491   29.0712 H   0  0  0  0  0  0  0  0  0  0  0  0
    6.6268   -5.0349   28.5175 H   0  0  0  0  0  0  0  0  0  0  0  0
    8.2675   -7.3067   27.2851 H   0  0  0  0  0  0  0  0  0  0  0  0
    6.7259   -7.4492   28.1364 H   0  0  0  0  0  0  0  0  0  0  0  0
    6.3607   -7.4763   25.6875 H   0  0  0  0  0  0  0  0  0  0  0  0
    5.6224   -6.0369   26.3915 H   0  0  0  0  0  0  0  0  0  0  0  0
    8.3165   -6.2318   24.9547 H   0  0  0  0  0  0  0  0  0  0  0  0
    6.8693   -5.3612   24.4129 H   0  0  0  0  0  0  0  0  0  0  0  0
    9.7996    0.8985   24.7410 H   0  0  0  0  0  0  0  0  0  0  0  0
    8.7039    1.7016   23.6424 H   0  0  0  0  0  0  0  0  0  0  0  0
   10.7567   -0.2690   22.5479 H   0  0  0  0  0  0  0  0  0  0  0  0
    8.0917   -1.6083   21.0911 H   0  0  0  0  0  0  0  0  0  0  0  0
  1  2  1  0  0  0  0
  1  3  2  0  0  0  0
  2  4  2  0  0  0  0
  3  5  1  0  0  0  0
  4 10  1  0  0  0  0
  5 10  2  0  0  0  0
  6  8  2  0  0  0  0
  6 11  1  0  0  0  0
  7  9  1  0  0  0  0
  7 11  2  0  0  0  0
  8 12  1  0  0  0  0
  9 12  2  0  0  0  0
 10 25  1  0  0  0  0
 11 26  1  0  0  0  0
 12 30  1  0  0  0  0
 13 14  2  0  0  0  0
 13 15  1  0  0  0  0
 13 29  1  0  0  0  0
 14 27  1  0  0  0  0
 14 31  1  0  0  0  0
 15 16  2  0  0  0  0
 16 17  1  0  0  0  0
 17 18  2  0  0  0  0
 18 29  1  0  0  0  0
 19 21  1  0  0  0  0
 19 30  1  0  0  0  0
 19 32  2  0  0  0  0
 20 26  1  1  0  0  0
 20 31  1  0  0  0  0
 20 33  2  0  0  0  0
 21 22  1  0  0  0  0
 22 23  1  0  0  0  0
 23 24  1  0  0  0  0
 24 30  1  0  0  0  0
 25 26  1  0  0  0  0
 27 28  2  0  0  0  0
 28 29  1  0  0  0  0
  1 34  1  0  0  0  0
  2 35  1  0  0  0  0
  3 36  1  0  0  0  0
  4 37  1  0  0  0  0
  5 38  1  0  0  0  0
  6 39  1  0  0  0  0
  7 40  1  0  0  0  0
  8 41  1  0  0  0  0
  9 42  1  0  0  0  0
 15 43  1  0  0  0  0
 16 44  1  0  0  0  0
 17 45  1  0  0  0  0
 18 46  1  0  0  0  0
 21 47  1  0  0  0  0
 21 48  1  0  0  0  0
 22 49  1  0  0  0  0
 22 50  1  0  0  0  0
 23 51  1  0  0  0  0
 23 52  1  0  0  0  0
 24 53  1  0  0  0  0
 24 54  1  0  0  0  0
 25 55  1  0  0  0  0
 25 56  1  0  0  0  0
 26 57  1  0  0  0  0
 31 58  1  0  0  0  0
M  END
> <clash_score>
0

> <docking_score>
-7.661623001098633

> <overlap_score>
0.8526010513305664

$$$$
BENZO_273_2
  -OEChem-08232013543D

 58 62  0     1  0  0  0  0  0999 V2000
   13.2442   -0.7792   26.3598 C   0  0  0  0  0  0  0  0  0  0  0  0
   13.7975   -1.2945   25.1877 C   0  0  0  0  0  0  0  0  0  0  0  0
   12.0379   -0.0804   26.3133 C   0  0  0  0  0  0  0  0  0  0  0  0
   13.1444   -1.1109   23.9689 C   0  0  0  0  0  0  0  0  0  0  0  0
   11.3849    0.1033   25.0945 C   0  0  0  0  0  0  0  0  0  0  0  0
    9.5890   -2.4950   23.2210 C   0  0  0  0  0  0  0  0  0  0  0  0
    8.2550   -1.0010   24.5520 C   0  0  0  0  0  0  0  0  0  0  0  0
    9.1890   -3.5540   24.0140 C   0  0  0  0  0  0  0  0  0  0  0  0
    7.8700   -2.0610   25.3550 C   0  0  0  0  0  0  0  0  0  0  0  0
   11.9381   -0.4120   23.9222 C   0  0  0  0  0  0  0  0  0  0  0  0
    9.1280   -1.2090   23.4870 C   0  0  0  0  0  0  0  0  0  0  0  0
    8.3450   -3.3440   25.0980 C   0  0  0  0  0  0  0  0  0  0  0  0
    6.1460    0.6070   19.9750 C   0  0  0  0  0  0  0  0  0  0  0  0
    7.2710   -0.1460   19.8310 C   0  0  0  0  0  0  0  0  0  0  0  0
    5.3890    1.0010   21.0690 C   0  0  0  0  0  0  0  0  0  0  0  0
    4.2460    1.7520   20.8250 C   0  0  0  0  0  0  0  0  0  0  0  0
    3.8860    2.1050   19.5250 C   0  0  0  0  0  0  0  0  0  0  0  0
    4.6610    1.7170   18.4380 C   0  0  0  0  0  0  0  0  0  0  0  0
    6.6194   -4.8191   26.1158 C   0  0  0  0  0  0  0  0  0  0  0  0
    9.0430    0.2380   21.4940 C   0  0  0  0  0  0  0  0  0  0  0  0
    6.4366   -5.9938   27.0605 C   0  0  0  0  0  0  0  0  0  0  0  0
    7.2458   -5.7947   28.3299 C   0  0  0  0  0  0  0  0  0  0  0  0
    8.7184   -5.5215   28.0404 C   0  0  0  0  0  0  0  0  0  0  0  0
    9.0024   -5.2744   26.5596 C   0  0  0  0  0  0  0  0  0  0  0  0
   11.2301   -0.2125   22.6019 C   0  0  0  0  0  0  0  0  0  0  0  0
    9.5820   -0.1080   22.7000 C   0  0  2  0  0  0  0  0  0  0  0  0
    7.5840   -0.2700   18.5160 N   0  0  0  0  0  0  0  0  0  0  0  0
    6.7100    0.3850   17.8100 N   0  0  0  0  0  0  0  0  0  0  0  0
    5.7970    0.9500   18.6730 N   0  0  0  0  0  0  0  0  0  0  0  0
    7.9658   -4.4384   25.9449 N   0  0  0  0  0  0  0  0  0  0  0  0
    8.0950   -0.7700   20.8440 N   0  0  0  0  0  0  0  0  0  0  0  0
    5.6415   -4.3469   25.5373 O   0  0  0  0  0  0  0  0  0  0  0  0
    9.2950    1.3000   20.9480 O   0  0  0  0  0  0  0  0  0  0  0  0
   13.7522   -0.9234   27.3090 H   0  0  0  0  0  0  0  0  0  0  0  0
   14.7362   -1.8396   25.2239 H   0  0  0  0  0  0  0  0  0  0  0  0
   11.6064    0.3200   27.2258 H   0  0  0  0  0  0  0  0  0  0  0  0
   13.5830   -1.5157   23.0606 H   0  0  0  0  0  0  0  0  0  0  0  0
   10.4455    0.6492   25.0677 H   0  0  0  0  0  0  0  0  0  0  0  0
   10.2695   -2.6718   22.3873 H   0  0  0  0  0  0  0  0  0  0  0  0
    7.8712   -0.0014   24.7587 H   0  0  0  0  0  0  0  0  0  0  0  0
    9.5431   -4.5618   23.7801 H   0  0  0  0  0  0  0  0  0  0  0  0
    7.1923   -1.8823   26.1912 H   0  0  0  0  0  0  0  0  0  0  0  0
    5.6529    0.7487   22.0767 H   0  0  0  0  0  0  0  0  0  0  0  0
    3.6388    2.0586   21.6675 H   0  0  0  0  0  0  0  0  0  0  0  0
    2.9822    2.6968   19.3330 H   0  0  0  0  0  0  0  0  0  0  0  0
    4.4111    1.9893   17.4360 H   0  0  0  0  0  0  0  0  0  0  0  0
    5.3901   -6.0734   27.3117 H   0  0  0  0  0  0  0  0  0  0  0  0
    6.7606   -6.8843   26.5429 H   0  0  0  0  0  0  0  0  0  0  0  0
    6.8221   -4.9563   28.9212 H   0  0  0  0  0  0  0  0  0  0  0  0
    7.1526   -6.6910   28.9757 H   0  0  0  0  0  0  0  0  0  0  0  0
    9.0539   -4.6418   28.6288 H   0  0  0  0  0  0  0  0  0  0  0  0
    9.3393   -6.3684   28.4053 H   0  0  0  0  0  0  0  0  0  0  0  0
    9.9475   -4.7506   26.4523 H   0  0  0  0  0  0  0  0  0  0  0  0
    9.0509   -6.2236   26.0372 H   0  0  0  0  0  0  0  0  0  0  0  0
   11.5792    0.7206   22.1406 H   0  0  0  0  0  0  0  0  0  0  0  0
   11.5533   -1.0126   21.9215 H   0  0  0  0  0  0  0  0  0  0  0  0
    9.5402    0.8508   23.4127 H   0  0  0  0  0  0  0  0  0  0  0  0
    8.0917   -1.6083   21.0911 H   0  0  0  0  0  0  0  0  0  0  0  0
  1  2  1  0  0  0  0
  1  3  2  0  0  0  0
  2  4  2  0  0  0  0
  3  5  1  0  0  0  0
  4 10  1  0  0  0  0
  5 10  2  0  0  0  0
  6  8  2  0  0  0  0
  6 11  1  0  0  0  0
  7  9  1  0  0  0  0
  7 11  2  0  0  0  0
  8 12  1  0  0  0  0
  9 12  2  0  0  0  0
 10 25  1  0  0  0  0
 11 26  1  0  0  0  0
 12 30  1  0  0  0  0
 13 14  2  0  0  0  0
 13 15  1  0  0  0  0
 13 29  1  0  0  0  0
 14 27  1  0  0  0  0
 14 31  1  0  0  0  0
 15 16  2  0  0  0  0
 16 17  1  0  0  0  0
 17 18  2  0  0  0  0
 18 29  1  0  0  0  0
 19 21  1  0  0  0  0
 19 30  1  0  0  0  0
 19 32  2  0  0  0  0
 20 26  1  6  0  0  0
 20 31  1  0  0  0  0
 20 33  2  0  0  0  0
 21 22  1  0  0  0  0
 22 23  1  0  0  0  0
 23 24  1  0  0  0  0
 24 30  1  0  0  0  0
 25 26  1  0  0  0  0
 27 28  2  0  0  0  0
 28 29  1  0  0  0  0
  1 34  1  0  0  0  0
  2 35  1  0  0  0  0
  3 36  1  0  0  0  0
  4 37  1  0  0  0  0
  5 38  1  0  0  0  0
  6 39  1  0  0  0  0
  7 40  1  0  0  0  0
  8 41  1  0  0  0  0
  9 42  1  0  0  0  0
 15 43  1  0  0  0  0
 16 44  1  0  0  0  0
 17 45  1  0  0  0  0
 18 46  1  0  0  0  0
 21 47  1  0  0  0  0
 21 48  1  0  0  0  0
 22 49  1  0  0  0  0
 22 50  1  0  0  0  0
 23 51  1  0  0  0  0
 23 52  1  0  0  0  0
 24 53  1  0  0  0  0
 24 54  1  0  0  0  0
 25 55  1  0  0  0  0
 25 56  1  0  0  0  0
 26 57  1  0  0  0  0
 31 58  1  0  0  0  0
M  END
> <clash_score>
0

> <docking_score>
-6.444641590118408

> <overlap_score>
0.925991952419281

$$$$
BENZO_272_1
  -OEChem-08232013543D

 55 59  0     1  0  0  0  0  0999 V2000
    9.5890   -2.4950   23.2210 C   0  0  0  0  0  0  0  0  0  0  0  0
    8.2550   -1.0010   24.5520 C   0  0  0  0  0  0  0  0  0  0  0  0
    9.1890   -3.5540   24.0140 C   0  0  0  0  0  0  0  0  0  0  0  0
    7.8700   -2.0610   25.3550 C   0  0  0  0  0  0  0  0  0  0  0  0
   12.0300    1.9207   22.8503 C   0  0  0  0  0  0  0  0  0  0  0  0
   12.7947    3.0460   22.6348 C   0  0  0  0  0  0  0  0  0  0  0  0
   10.5667    3.5984   23.5182 C   0  0  0  0  0  0  0  0  0  0  0  0
    9.1280   -1.2090   23.4870 C   0  0  0  0  0  0  0  0  0  0  0  0
   10.7393    2.2406   23.3619 C   0  0  0  0  0  0  0  0  0  0  0  0
    8.3450   -3.3440   25.0980 C   0  0  0  0  0  0  0  0  0  0  0  0
    6.1460    0.6070   19.9750 C   0  0  0  0  0  0  0  0  0  0  0  0
    7.2710   -0.1460   19.8310 C   0  0  0  0  0  0  0  0  0  0  0  0
    5.3890    1.0010   21.0690 C   0  0  0  0  0  0  0  0  0  0  0  0
    4.2460    1.7520   20.8250 C   0  0  0  0  0  0  0  0  0  0  0  0
    3.8860    2.1050   19.5250 C   0  0  0  0  0  0  0  0  0  0  0  0
    4.6610    1.7170   18.4380 C   0  0  0  0  0  0  0  0  0  0  0  0
    8.2712   -4.4336   27.3225 C   0  0  0  0  0  0  0  0  0  0  0  0
    9.0430    0.2380   21.4940 C   0  0  0  0  0  0  0  0  0  0  0  0
    7.5739   -5.4743   28.1816 C   0  0  0  0  0  0  0  0  0  0  0  0
    7.3190   -6.7949   27.4884 C   0  0  0  0  0  0  0  0  0  0  0  0
    6.5818   -6.5304   26.1943 C   0  0  0  0  0  0  0  0  0  0  0  0
    7.4451   -5.6594   25.2973 C   0  0  0  0  0  0  0  0  0  0  0  0
    9.6852    1.2097   23.6944 C   0  0  0  0  0  0  0  0  0  0  0  0
    9.5820   -0.1080   22.7000 C   0  0  1  0  0  0  0  0  0  0  0  0
    7.5840   -0.2700   18.5160 N   0  0  0  0  0  0  0  0  0  0  0  0
    6.7100    0.3850   17.8100 N   0  0  0  0  0  0  0  0  0  0  0  0
    5.7970    0.9500   18.6730 N   0  0  0  0  0  0  0  0  0  0  0  0
    7.9635   -4.4451   25.9501 N   0  0  0  0  0  0  0  0  0  0  0  0
    8.0950   -0.7700   20.8440 N   0  0  0  0  0  0  0  0  0  0  0  0
    9.0077   -3.6181   27.8843 O   0  0  0  0  0  0  0  0  0  0  0  0
    9.2950    1.3000   20.9480 O   0  0  0  0  0  0  0  0  0  0  0  0
   11.9570    4.4810   23.0487 S   0  0  0  0  0  0  0  0  0  0  0  0
   10.2695   -2.6718   22.3873 H   0  0  0  0  0  0  0  0  0  0  0  0
    7.8712   -0.0014   24.7587 H   0  0  0  0  0  0  0  0  0  0  0  0
    9.5431   -4.5618   23.7801 H   0  0  0  0  0  0  0  0  0  0  0  0
    7.1923   -1.8823   26.1912 H   0  0  0  0  0  0  0  0  0  0  0  0
   12.3840    0.9173   22.6495 H   0  0  0  0  0  0  0  0  0  0  0  0
   13.8054    3.0942   22.2548 H   0  0  0  0  0  0  0  0  0  0  0  0
    9.6930    4.1183   23.8862 H   0  0  0  0  0  0  0  0  0  0  0  0
    5.6529    0.7487   22.0767 H   0  0  0  0  0  0  0  0  0  0  0  0
    3.6388    2.0586   21.6675 H   0  0  0  0  0  0  0  0  0  0  0  0
    2.9822    2.6968   19.3330 H   0  0  0  0  0  0  0  0  0  0  0  0
    4.4111    1.9893   17.4360 H   0  0  0  0  0  0  0  0  0  0  0  0
    8.1899   -5.6491   29.0712 H   0  0  0  0  0  0  0  0  0  0  0  0
    6.6268   -5.0349   28.5175 H   0  0  0  0  0  0  0  0  0  0  0  0
    8.2675   -7.3067   27.2851 H   0  0  0  0  0  0  0  0  0  0  0  0
    6.7259   -7.4492   28.1364 H   0  0  0  0  0  0  0  0  0  0  0  0
    6.3607   -7.4763   25.6875 H   0  0  0  0  0  0  0  0  0  0  0  0
    5.6224   -6.0369   26.3915 H   0  0  0  0  0  0  0  0  0  0  0  0
    8.3165   -6.2318   24.9547 H   0  0  0  0  0  0  0  0  0  0  0  0
    6.8693   -5.3612   24.4129 H   0  0  0  0  0  0  0  0  0  0  0  0
    9.7996    0.8985   24.7410 H   0  0  0  0  0  0  0  0  0  0  0  0
    8.7039    1.7016   23.6424 H   0  0  0  0  0  0  0  0  0  0  0  0
   10.7567   -0.2690   22.5479 H   0  0  0  0  0  0  0  0  0  0  0  0
    8.0917   -1.6083   21.0911 H   0  0  0  0  0  0  0  0  0  0  0  0
  1  3  2  0  0  0  0
  1  8  1  0  0  0  0
  2  4  1  0  0  0  0
  2  8  2  0  0  0  0
  3 10  1  0  0  0  0
  4 10  2  0  0  0  0
  5  6  2  0  0  0  0
  5  9  1  0  0  0  0
  6 32  1  0  0  0  0
  7  9  2  0  0  0  0
  7 32  1  0  0  0  0
  8 24  1  0  0  0  0
  9 23  1  0  0  0  0
 10 28  1  0  0  0  0
 11 12  2  0  0  0  0
 11 13  1  0  0  0  0
 11 27  1  0  0  0  0
 12 25  1  0  0  0  0
 12 29  1  0  0  0  0
 13 14  2  0  0  0  0
 14 15  1  0  0  0  0
 15 16  2  0  0  0  0
 16 27  1  0  0  0  0
 17 19  1  0  0  0  0
 17 28  1  0  0  0  0
 17 30  2  0  0  0  0
 18 24  1  1  0  0  0
 18 29  1  0  0  0  0
 18 31  2  0  0  0  0
 19 20  1  0  0  0  0
 20 21  1  0  0  0  0
 21 22  1  0  0  0  0
 22 28  1  0  0  0  0
 23 24  1  0  0  0  0
 25 26  2  0  0  0  0
 26 27  1  0  0  0  0
  1 33  1  0  0  0  0
  2 34  1  0  0  0  0
  3 35  1  0  0  0  0
  4 36  1  0  0  0  0
  5 37  1  0  0  0  0
  6 38  1  0  0  0  0
  7 39  1  0  0  0  0
 13 40  1  0  0  0  0
 14 41  1  0  0  0  0
 15 42  1  0  0  0  0
 16 43  1  0  0  0  0
 19 44  1  0  0  0  0
 19 45  1  0  0  0  0
 20 46  1  0  0  0  0
 20 47  1  0  0  0  0
 21 48  1  0  0  0  0
 21 49  1  0  0  0  0
 22 50  1  0  0  0  0
 22 51  1  0  0  0  0
 23 52  1  0  0  0  0
 23 53  1  0  0  0  0
 24 54  1  0  0  0  0
 29 55  1  0  0  0  0
M  END
> <clash_score>
0

> <docking_score>
-7.429264068603516

> <overlap_score>
0.8532915115356445

$$$$
BENZO_272_2
  -OEChem-08232013543D

 55 59  0     1  0  0  0  0  0999 V2000
    9.5890   -2.4950   23.2210 C   0  0  0  0  0  0  0  0  0  0  0  0
    8.2550   -1.0010   24.5520 C   0  0  0  0  0  0  0  0  0  0  0  0
    9.1890   -3.5540   24.0140 C   0  0  0  0  0  0  0  0  0  0  0  0
    7.8700   -2.0610   25.3550 C   0  0  0  0  0  0  0  0  0  0  0  0
   13.1712   -1.1116   24.0649 C   0  0  0  0  0  0  0  0  0  0  0  0
   13.5969   -1.1482   25.3744 C   0  0  0  0  0  0  0  0  0  0  0  0
   11.4682    0.0593   25.1285 C   0  0  0  0  0  0  0  0  0  0  0  0
    9.1280   -1.2090   23.4870 C   0  0  0  0  0  0  0  0  0  0  0  0
   11.9381   -0.4120   23.9222 C   0  0  0  0  0  0  0  0  0  0  0  0
    8.3450   -3.3440   25.0980 C   0  0  0  0  0  0  0  0  0  0  0  0
    6.1460    0.6070   19.9750 C   0  0  0  0  0  0  0  0  0  0  0  0
    7.2710   -0.1460   19.8310 C   0  0  0  0  0  0  0  0  0  0  0  0
    5.3890    1.0010   21.0690 C   0  0  0  0  0  0  0  0  0  0  0  0
    4.2460    1.7520   20.8250 C   0  0  0  0  0  0  0  0  0  0  0  0
    3.8860    2.1050   19.5250 C   0  0  0  0  0  0  0  0  0  0  0  0
    4.6610    1.7170   18.4380 C   0  0  0  0  0  0  0  0  0  0  0  0
    6.6194   -4.8191   26.1158 C   0  0  0  0  0  0  0  0  0  0  0  0
    9.0430    0.2380   21.4940 C   0  0  0  0  0  0  0  0  0  0  0  0
    6.4366   -5.9938   27.0605 C   0  0  0  0  0  0  0  0  0  0  0  0
    7.2458   -5.7947   28.3299 C   0  0  0  0  0  0  0  0  0  0  0  0
    8.7184   -5.5215   28.0404 C   0  0  0  0  0  0  0  0  0  0  0  0
    9.0024   -5.2744   26.5596 C   0  0  0  0  0  0  0  0  0  0  0  0
   11.2301   -0.2125   22.6019 C   0  0  0  0  0  0  0  0  0  0  0  0
    9.5820   -0.1080   22.7000 C   0  0  2  0  0  0  0  0  0  0  0  0
    7.5840   -0.2700   18.5160 N   0  0  0  0  0  0  0  0  0  0  0  0
    6.7100    0.3850   17.8100 N   0  0  0  0  0  0  0  0  0  0  0  0
    5.7970    0.9500   18.6730 N   0  0  0  0  0  0  0  0  0  0  0  0
    7.9658   -4.4384   25.9449 N   0  0  0  0  0  0  0  0  0  0  0  0
    8.0950   -0.7700   20.8440 N   0  0  0  0  0  0  0  0  0  0  0  0
    5.6415   -4.3469   25.5373 O   0  0  0  0  0  0  0  0  0  0  0  0
    9.2950    1.3000   20.9480 O   0  0  0  0  0  0  0  0  0  0  0  0
   12.5120   -0.3415   26.4255 S   0  0  0  0  0  0  0  0  0  0  0  0
   10.2695   -2.6718   22.3873 H   0  0  0  0  0  0  0  0  0  0  0  0
    7.8712   -0.0014   24.7587 H   0  0  0  0  0  0  0  0  0  0  0  0
    9.5431   -4.5618   23.7801 H   0  0  0  0  0  0  0  0  0  0  0  0
    7.1923   -1.8823   26.1912 H   0  0  0  0  0  0  0  0  0  0  0  0
   13.7212   -1.5668   23.2509 H   0  0  0  0  0  0  0  0  0  0  0  0
   14.4926   -1.6106   25.7645 H   0  0  0  0  0  0  0  0  0  0  0  0
   10.5621    0.6191   25.3146 H   0  0  0  0  0  0  0  0  0  0  0  0
    5.6529    0.7487   22.0767 H   0  0  0  0  0  0  0  0  0  0  0  0
    3.6388    2.0586   21.6675 H   0  0  0  0  0  0  0  0  0  0  0  0
    2.9822    2.6968   19.3330 H   0  0  0  0  0  0  0  0  0  0  0  0
    4.4111    1.9893   17.4360 H   0  0  0  0  0  0  0  0  0  0  0  0
    5.3901   -6.0734   27.3117 H   0  0  0  0  0  0  0  0  0  0  0  0
    6.7606   -6.8843   26.5429 H   0  0  0  0  0  0  0  0  0  0  0  0
    6.8221   -4.9563   28.9212 H   0  0  0  0  0  0  0  0  0  0  0  0
    7.1526   -6.6910   28.9757 H   0  0  0  0  0  0  0  0  0  0  0  0
    9.0539   -4.6418   28.6288 H   0  0  0  0  0  0  0  0  0  0  0  0
    9.3393   -6.3684   28.4053 H   0  0  0  0  0  0  0  0  0  0  0  0
    9.9475   -4.7506   26.4523 H   0  0  0  0  0  0  0  0  0  0  0  0
    9.0509   -6.2236   26.0372 H   0  0  0  0  0  0  0  0  0  0  0  0
   11.5792    0.7206   22.1406 H   0  0  0  0  0  0  0  0  0  0  0  0
   11.5533   -1.0126   21.9215 H   0  0  0  0  0  0  0  0  0  0  0  0
    9.5402    0.8508   23.4127 H   0  0  0  0  0  0  0  0  0  0  0  0
    8.0917   -1.6083   21.0911 H   0  0  0  0  0  0  0  0  0  0  0  0
  1  3  2  0  0  0  0
  1  8  1  0  0  0  0
  2  4  1  0  0  0  0
  2  8  2  0  0  0  0
  3 10  1  0  0  0  0
  4 10  2  0  0  0  0
  5  6  2  0  0  0  0
  5  9  1  0  0  0  0
  6 32  1  0  0  0  0
  7  9  2  0  0  0  0
  7 32  1  0  0  0  0
  8 24  1  0  0  0  0
  9 23  1  0  0  0  0
 10 28  1  0  0  0  0
 11 12  2  0  0  0  0
 11 13  1  0  0  0  0
 11 27  1  0  0  0  0
 12 25  1  0  0  0  0
 12 29  1  0  0  0  0
 13 14  2  0  0  0  0
 14 15  1  0  0  0  0
 15 16  2  0  0  0  0
 16 27  1  0  0  0  0
 17 19  1  0  0  0  0
 17 28  1  0  0  0  0
 17 30  2  0  0  0  0
 18 24  1  6  0  0  0
 18 29  1  0  0  0  0
 18 31  2  0  0  0  0
 19 20  1  0  0  0  0
 20 21  1  0  0  0  0
 21 22  1  0  0  0  0
 22 28  1  0  0  0  0
 23 24  1  0  0  0  0
 25 26  2  0  0  0  0
 26 27  1  0  0  0  0
  1 33  1  0  0  0  0
  2 34  1  0  0  0  0
  3 35  1  0  0  0  0
  4 36  1  0  0  0  0
  5 37  1  0  0  0  0
  6 38  1  0  0  0  0
  7 39  1  0  0  0  0
 13 40  1  0  0  0  0
 14 41  1  0  0  0  0
 15 42  1  0  0  0  0
 16 43  1  0  0  0  0
 19 44  1  0  0  0  0
 19 45  1  0  0  0  0
 20 46  1  0  0  0  0
 20 47  1  0  0  0  0
 21 48  1  0  0  0  0
 21 49  1  0  0  0  0
 22 50  1  0  0  0  0
 22 51  1  0  0  0  0
 23 52  1  0  0  0  0
 23 53  1  0  0  0  0
 24 54  1  0  0  0  0
 29 55  1  0  0  0  0
M  END
> <clash_score>
0

> <docking_score>
-6.959201335906982

> <overlap_score>
0.9224667549133301

$$$$
BENZO_275_1
  -OEChem-08232013543D

 58 62  0     1  0  0  0  0  0999 V2000
    9.5890   -2.4950   23.2210 C   0  0  0  0  0  0  0  0  0  0  0  0
    8.2550   -1.0010   24.5520 C   0  0  0  0  0  0  0  0  0  0  0  0
    9.1890   -3.5540   24.0140 C   0  0  0  0  0  0  0  0  0  0  0  0
    7.8700   -2.0610   25.3550 C   0  0  0  0  0  0  0  0  0  0  0  0
   13.3220   -0.5322   24.1508 C   0  0  0  0  0  0  0  0  0  0  0  0
   11.3738   -0.5141   25.1703 C   0  0  0  0  0  0  0  0  0  0  0  0
    9.1280   -1.2090   23.4870 C   0  0  0  0  0  0  0  0  0  0  0  0
   11.9381   -0.4120   23.9222 C   0  0  0  0  0  0  0  0  0  0  0  0
    8.3450   -3.3440   25.0980 C   0  0  0  0  0  0  0  0  0  0  0  0
    6.1460    0.6070   19.9750 C   0  0  0  0  0  0  0  0  0  0  0  0
    7.2710   -0.1460   19.8310 C   0  0  0  0  0  0  0  0  0  0  0  0
    5.3890    1.0010   21.0690 C   0  0  0  0  0  0  0  0  0  0  0  0
    4.2460    1.7520   20.8250 C   0  0  0  0  0  0  0  0  0  0  0  0
    3.8860    2.1050   19.5250 C   0  0  0  0  0  0  0  0  0  0  0  0
    4.6610    1.7170   18.4380 C   0  0  0  0  0  0  0  0  0  0  0  0
    8.2612   -4.4533   27.3232 C   0  0  0  0  0  0  0  0  0  0  0  0
    9.0430    0.2380   21.4940 C   0  0  0  0  0  0  0  0  0  0  0  0
    7.7639   -5.6979   28.0369 C   0  0  0  0  0  0  0  0  0  0  0  0
    6.3258   -5.9996   27.6538 C   0  0  0  0  0  0  0  0  0  0  0  0
    6.1385   -6.0983   26.1431 C   0  0  0  0  0  0  0  0  0  0  0  0
    7.3646   -5.6395   25.3553 C   0  0  0  0  0  0  0  0  0  0  0  0
   12.3183   -0.8369   27.4686 C   0  0  0  0  0  0  0  0  0  0  0  0
   11.2301   -0.2125   22.6019 C   0  0  0  0  0  0  0  0  0  0  0  0
    9.5820   -0.1080   22.7000 C   0  0  1  0  0  0  0  0  0  0  0  0
   13.6188   -0.6978   25.4425 N   0  0  0  0  0  0  0  0  0  0  0  0
    7.5840   -0.2700   18.5160 N   0  0  0  0  0  0  0  0  0  0  0  0
    6.7100    0.3850   17.8100 N   0  0  0  0  0  0  0  0  0  0  0  0
   12.4135   -0.6823   26.0368 N   0  0  0  0  0  0  0  0  0  0  0  0
    5.7970    0.9500   18.6730 N   0  0  0  0  0  0  0  0  0  0  0  0
    7.9658   -4.4385   25.9450 N   0  0  0  0  0  0  0  0  0  0  0  0
    8.0950   -0.7700   20.8440 N   0  0  0  0  0  0  0  0  0  0  0  0
    8.9160   -3.6176   27.9452 O   0  0  0  0  0  0  0  0  0  0  0  0
    9.2950    1.3000   20.9480 O   0  0  0  0  0  0  0  0  0  0  0  0
   10.2695   -2.6718   22.3873 H   0  0  0  0  0  0  0  0  0  0  0  0
    7.8712   -0.0014   24.7587 H   0  0  0  0  0  0  0  0  0  0  0  0
    9.5431   -4.5618   23.7801 H   0  0  0  0  0  0  0  0  0  0  0  0
    7.1923   -1.8823   26.1912 H   0  0  0  0  0  0  0  0  0  0  0  0
   14.1285   -0.5054   23.4318 H   0  0  0  0  0  0  0  0  0  0  0  0
   10.3466   -0.4809   25.5074 H   0  0  0  0  0  0  0  0  0  0  0  0
    5.6529    0.7487   22.0767 H   0  0  0  0  0  0  0  0  0  0  0  0
    3.6388    2.0586   21.6675 H   0  0  0  0  0  0  0  0  0  0  0  0
    2.9822    2.6968   19.3330 H   0  0  0  0  0  0  0  0  0  0  0  0
    4.4111    1.9893   17.4360 H   0  0  0  0  0  0  0  0  0  0  0  0
    8.3914   -6.5295   27.7556 H   0  0  0  0  0  0  0  0  0  0  0  0
    7.8414   -5.5198   29.0990 H   0  0  0  0  0  0  0  0  0  0  0  0
    5.9977   -6.9465   28.1311 H   0  0  0  0  0  0  0  0  0  0  0  0
    5.6587   -5.2139   28.0619 H   0  0  0  0  0  0  0  0  0  0  0  0
    5.8986   -7.1470   25.8680 H   0  0  0  0  0  0  0  0  0  0  0  0
    5.2500   -5.5067   25.8324 H   0  0  0  0  0  0  0  0  0  0  0  0
    8.1195   -6.4201   25.3688 H   0  0  0  0  0  0  0  0  0  0  0  0
    7.0780   -5.4282   24.3307 H   0  0  0  0  0  0  0  0  0  0  0  0
   12.2259   -1.9040   27.6873 H   0  0  0  0  0  0  0  0  0  0  0  0
   13.2159   -0.4265   27.9396 H   0  0  0  0  0  0  0  0  0  0  0  0
   11.4422   -0.2936   27.8333 H   0  0  0  0  0  0  0  0  0  0  0  0
   11.5792    0.7206   22.1406 H   0  0  0  0  0  0  0  0  0  0  0  0
   11.5533   -1.0126   21.9215 H   0  0  0  0  0  0  0  0  0  0  0  0
    9.5402    0.8508   23.4127 H   0  0  0  0  0  0  0  0  0  0  0  0
    8.0917   -1.6083   21.0911 H   0  0  0  0  0  0  0  0  0  0  0  0
  1  3  2  0  0  0  0
  1  7  1  0  0  0  0
  2  4  1  0  0  0  0
  2  7  2  0  0  0  0
  3  9  1  0  0  0  0
  4  9  2  0  0  0  0
  5  8  1  0  0  0  0
  5 25  2  0  0  0  0
  6  8  2  0  0  0  0
  6 28  1  0  0  0  0
  7 24  1  0  0  0  0
  8 23  1  0  0  0  0
  9 30  1  0  0  0  0
 10 11  2  0  0  0  0
 10 12  1  0  0  0  0
 10 29  1  0  0  0  0
 11 26  1  0  0  0  0
 11 31  1  0  0  0  0
 12 13  2  0  0  0  0
 13 14  1  0  0  0  0
 14 15  2  0  0  0  0
 15 29  1  0  0  0  0
 16 18  1  0  0  0  0
 16 30  1  0  0  0  0
 16 32  2  0  0  0  0
 17 24  1  0  0  0  0
 17 31  1  0  0  0  0
 17 33  2  0  0  0  0
 18 19  1  0  0  0  0
 19 20  1  0  0  0  0
 20 21  1  0  0  0  0
 21 30  1  0  0  0  0
 22 28  1  0  0  0  0
 23 24  1  1  0  0  0
 25 28  1  0  0  0  0
 26 27  2  0  0  0  0
 27 29  1  0  0  0  0
  1 34  1  0  0  0  0
  2 35  1  0  0  0  0
  3 36  1  0  0  0  0
  4 37  1  0  0  0  0
  5 38  1  0  0  0  0
  6 39  1  0  0  0  0
 12 40  1  0  0  0  0
 13 41  1  0  0  0  0
 14 42  1  0  0  0  0
 15 43  1  0  0  0  0
 18 44  1  0  0  0  0
 18 45  1  0  0  0  0
 19 46  1  0  0  0  0
 19 47  1  0  0  0  0
 20 48  1  0  0  0  0
 20 49  1  0  0  0  0
 21 50  1  0  0  0  0
 21 51  1  0  0  0  0
 22 52  1  0  0  0  0
 22 53  1  0  0  0  0
 22 54  1  0  0  0  0
 23 55  1  0  0  0  0
 23 56  1  0  0  0  0
 24 57  1  0  0  0  0
 31 58  1  0  0  0  0
M  END
> <clash_score>
0.6568275608698446

> <docking_score>
-6.960958480834961

> <overlap_score>
0.93819659948349

$$$$
BENZO_274_2
  -OEChem-08232013543D

 58 62  0     1  0  0  0  0  0999 V2000
   13.7993   -1.2938   25.1853 C   0  0  0  0  0  0  0  0  0  0  0  0
   13.1448   -1.1103   23.9673 C   0  0  0  0  0  0  0  0  0  0  0  0
    9.5890   -2.4950   23.2210 C   0  0  0  0  0  0  0  0  0  0  0  0
    8.2550   -1.0010   24.5520 C   0  0  0  0  0  0  0  0  0  0  0  0
    9.1890   -3.5540   24.0140 C   0  0  0  0  0  0  0  0  0  0  0  0
    7.8700   -2.0610   25.3550 C   0  0  0  0  0  0  0  0  0  0  0  0
   13.2471   -0.7791   26.3583 C   0  0  0  0  0  0  0  0  0  0  0  0
   11.3860    0.1028   25.0952 C   0  0  0  0  0  0  0  0  0  0  0  0
    9.1280   -1.2090   23.4870 C   0  0  0  0  0  0  0  0  0  0  0  0
   11.9381   -0.4120   23.9222 C   0  0  0  0  0  0  0  0  0  0  0  0
    8.3450   -3.3440   25.0980 C   0  0  0  0  0  0  0  0  0  0  0  0
   12.0405   -0.0808   26.3132 C   0  0  0  0  0  0  0  0  0  0  0  0
    6.1460    0.6070   19.9750 C   0  0  0  0  0  0  0  0  0  0  0  0
    7.2710   -0.1460   19.8310 C   0  0  0  0  0  0  0  0  0  0  0  0
    5.3890    1.0010   21.0690 C   0  0  0  0  0  0  0  0  0  0  0  0
    4.2460    1.7520   20.8250 C   0  0  0  0  0  0  0  0  0  0  0  0
    3.8860    2.1050   19.5250 C   0  0  0  0  0  0  0  0  0  0  0  0
    4.6610    1.7170   18.4380 C   0  0  0  0  0  0  0  0  0  0  0  0
    6.6194   -4.8191   26.1158 C   0  0  0  0  0  0  0  0  0  0  0  0
    9.0430    0.2380   21.4940 C   0  0  0  0  0  0  0  0  0  0  0  0
    6.4366   -5.9938   27.0605 C   0  0  0  0  0  0  0  0  0  0  0  0
    7.2458   -5.7947   28.3299 C   0  0  0  0  0  0  0  0  0  0  0  0
    8.7184   -5.5215   28.0404 C   0  0  0  0  0  0  0  0  0  0  0  0
    9.0024   -5.2744   26.5596 C   0  0  0  0  0  0  0  0  0  0  0  0
   11.2301   -0.2125   22.6019 C   0  0  0  0  0  0  0  0  0  0  0  0
    9.5820   -0.1080   22.7000 C   0  0  2  0  0  0  0  0  0  0  0  0
    7.5840   -0.2700   18.5160 N   0  0  0  0  0  0  0  0  0  0  0  0
    6.7100    0.3850   17.8100 N   0  0  0  0  0  0  0  0  0  0  0  0
    5.7970    0.9500   18.6730 N   0  0  0  0  0  0  0  0  0  0  0  0
    7.9658   -4.4384   25.9449 N   0  0  0  0  0  0  0  0  0  0  0  0
    8.0950   -0.7700   20.8440 N   0  0  0  0  0  0  0  0  0  0  0  0
    5.6415   -4.3469   25.5373 O   0  0  0  0  0  0  0  0  0  0  0  0
    9.2950    1.3000   20.9480 O   0  0  0  0  0  0  0  0  0  0  0  0
   11.3603    0.5550   27.7606 Cl  0  0  0  0  0  0  0  0  0  0  0  0
   14.7389   -1.8375   25.2200 H   0  0  0  0  0  0  0  0  0  0  0  0
   13.5824   -1.5147   23.0583 H   0  0  0  0  0  0  0  0  0  0  0  0
   10.2695   -2.6718   22.3873 H   0  0  0  0  0  0  0  0  0  0  0  0
    7.8712   -0.0014   24.7587 H   0  0  0  0  0  0  0  0  0  0  0  0
    9.5431   -4.5618   23.7801 H   0  0  0  0  0  0  0  0  0  0  0  0
    7.1923   -1.8823   26.1912 H   0  0  0  0  0  0  0  0  0  0  0  0
   13.7684   -0.9296   27.3005 H   0  0  0  0  0  0  0  0  0  0  0  0
   10.4447    0.6461   25.0549 H   0  0  0  0  0  0  0  0  0  0  0  0
    5.6529    0.7487   22.0767 H   0  0  0  0  0  0  0  0  0  0  0  0
    3.6388    2.0586   21.6675 H   0  0  0  0  0  0  0  0  0  0  0  0
    2.9822    2.6968   19.3330 H   0  0  0  0  0  0  0  0  0  0  0  0
    4.4111    1.9893   17.4360 H   0  0  0  0  0  0  0  0  0  0  0  0
    5.3901   -6.0734   27.3117 H   0  0  0  0  0  0  0  0  0  0  0  0
    6.7606   -6.8843   26.5429 H   0  0  0  0  0  0  0  0  0  0  0  0
    6.8221   -4.9563   28.9212 H   0  0  0  0  0  0  0  0  0  0  0  0
    7.1526   -6.6910   28.9757 H   0  0  0  0  0  0  0  0  0  0  0  0
    9.0539   -4.6418   28.6288 H   0  0  0  0  0  0  0  0  0  0  0  0
    9.3393   -6.3684   28.4053 H   0  0  0  0  0  0  0  0  0  0  0  0
    9.9475   -4.7506   26.4523 H   0  0  0  0  0  0  0  0  0  0  0  0
    9.0509   -6.2236   26.0372 H   0  0  0  0  0  0  0  0  0  0  0  0
   11.5792    0.7206   22.1406 H   0  0  0  0  0  0  0  0  0  0  0  0
   11.5533   -1.0126   21.9215 H   0  0  0  0  0  0  0  0  0  0  0  0
    9.5402    0.8508   23.4127 H   0  0  0  0  0  0  0  0  0  0  0  0
    8.0917   -1.6083   21.0911 H   0  0  0  0  0  0  0  0  0  0  0  0
  1  2  2  0  0  0  0
  1  7  1  0  0  0  0
  2 10  1  0  0  0  0
  3  5  2  0  0  0  0
  3  9  1  0  0  0  0
  4  6  1  0  0  0  0
  4  9  2  0  0  0  0
  5 11  1  0  0  0  0
  6 11  2  0  0  0  0
  7 12  2  0  0  0  0
  8 10  2  0  0  0  0
  8 12  1  0  0  0  0
  9 26  1  0  0  0  0
 10 25  1  0  0  0  0
 11 30  1  0  0  0  0
 12 34  1  0  0  0  0
 13 14  2  0  0  0  0
 13 15  1  0  0  0  0
 13 29  1  0  0  0  0
 14 27  1  0  0  0  0
 14 31  1  0  0  0  0
 15 16  2  0  0  0  0
 16 17  1  0  0  0  0
 17 18  2  0  0  0  0
 18 29  1  0  0  0  0
 19 21  1  0  0  0  0
 19 30  1  0  0  0  0
 19 32  2  0  0  0  0
 20 26  1  6  0  0  0
 20 31  1  0  0  0  0
 20 33  2  0  0  0  0
 21 22  1  0  0  0  0
 22 23  1  0  0  0  0
 23 24  1  0  0  0  0
 24 30  1  0  0  0  0
 25 26  1  0  0  0  0
 27 28  2  0  0  0  0
 28 29  1  0  0  0  0
  1 35  1  0  0  0  0
  2 36  1  0  0  0  0
  3 37  1  0  0  0  0
  4 38  1  0  0  0  0
  5 39  1  0  0  0  0
  6 40  1  0  0  0  0
  7 41  1  0  0  0  0
  8 42  1  0  0  0  0
 15 43  1  0  0  0  0
 16 44  1  0  0  0  0
 17 45  1  0  0  0  0
 18 46  1  0  0  0  0
 21 47  1  0  0  0  0
 21 48  1  0  0  0  0
 22 49  1  0  0  0  0
 22 50  1  0  0  0  0
 23 51  1  0  0  0  0
 23 52  1  0  0  0  0
 24 53  1  0  0  0  0
 24 54  1  0  0  0  0
 25 55  1  0  0  0  0
 25 56  1  0  0  0  0
 26 57  1  0  0  0  0
 31 58  1  0  0  0  0
M  END
> <clash_score>
0.7026228882814392

> <docking_score>
-5.713752269744873

> <overlap_score>
0.924889862537384

$$$$
BENZO_275_2
  -OEChem-08232013543D

 58 62  0     1  0  0  0  0  0999 V2000
    9.5890   -2.4950   23.2210 C   0  0  0  0  0  0  0  0  0  0  0  0
    8.2550   -1.0010   24.5520 C   0  0  0  0  0  0  0  0  0  0  0  0
    9.1890   -3.5540   24.0140 C   0  0  0  0  0  0  0  0  0  0  0  0
    7.8700   -2.0610   25.3550 C   0  0  0  0  0  0  0  0  0  0  0  0
   11.6577    2.2238   22.2952 C   0  0  0  0  0  0  0  0  0  0  0  0
   11.0138    3.4070   24.0331 C   0  0  0  0  0  0  0  0  0  0  0  0
    9.1280   -1.2090   23.4870 C   0  0  0  0  0  0  0  0  0  0  0  0
   10.7393    2.2406   23.3619 C   0  0  0  0  0  0  0  0  0  0  0  0
    8.3450   -3.3440   25.0980 C   0  0  0  0  0  0  0  0  0  0  0  0
    6.1460    0.6070   19.9750 C   0  0  0  0  0  0  0  0  0  0  0  0
    7.2710   -0.1460   19.8310 C   0  0  0  0  0  0  0  0  0  0  0  0
    5.3890    1.0010   21.0690 C   0  0  0  0  0  0  0  0  0  0  0  0
    4.2460    1.7520   20.8250 C   0  0  0  0  0  0  0  0  0  0  0  0
    3.8860    2.1050   19.5250 C   0  0  0  0  0  0  0  0  0  0  0  0
    4.6610    1.7170   18.4380 C   0  0  0  0  0  0  0  0  0  0  0  0
    8.2612   -4.4533   27.3232 C   0  0  0  0  0  0  0  0  0  0  0  0
    9.0430    0.2380   21.4940 C   0  0  0  0  0  0  0  0  0  0  0  0
    7.7639   -5.6979   28.0369 C   0  0  0  0  0  0  0  0  0  0  0  0
    6.3258   -5.9996   27.6538 C   0  0  0  0  0  0  0  0  0  0  0  0
    6.1385   -6.0983   26.1431 C   0  0  0  0  0  0  0  0  0  0  0  0
    7.3646   -5.6395   25.3553 C   0  0  0  0  0  0  0  0  0  0  0  0
   12.6770    5.2480   23.6821 C   0  0  0  0  0  0  0  0  0  0  0  0
    9.6852    1.2097   23.6944 C   0  0  0  0  0  0  0  0  0  0  0  0
    9.5820   -0.1080   22.7000 C   0  0  2  0  0  0  0  0  0  0  0  0
   12.4560    3.2947   22.2852 N   0  0  0  0  0  0  0  0  0  0  0  0
    7.5840   -0.2700   18.5160 N   0  0  0  0  0  0  0  0  0  0  0  0
    6.7100    0.3850   17.8100 N   0  0  0  0  0  0  0  0  0  0  0  0
   12.0398    3.9953   23.3539 N   0  0  0  0  0  0  0  0  0  0  0  0
    5.7970    0.9500   18.6730 N   0  0  0  0  0  0  0  0  0  0  0  0
    7.9658   -4.4385   25.9450 N   0  0  0  0  0  0  0  0  0  0  0  0
    8.0950   -0.7700   20.8440 N   0  0  0  0  0  0  0  0  0  0  0  0
    8.9160   -3.6176   27.9452 O   0  0  0  0  0  0  0  0  0  0  0  0
    9.2950    1.3000   20.9480 O   0  0  0  0  0  0  0  0  0  0  0  0
   10.2695   -2.6718   22.3873 H   0  0  0  0  0  0  0  0  0  0  0  0
    7.8712   -0.0014   24.7587 H   0  0  0  0  0  0  0  0  0  0  0  0
    9.5431   -4.5618   23.7801 H   0  0  0  0  0  0  0  0  0  0  0  0
    7.1923   -1.8823   26.1912 H   0  0  0  0  0  0  0  0  0  0  0  0
   11.7800    1.4776   21.5229 H   0  0  0  0  0  0  0  0  0  0  0  0
   10.5765    3.8580   24.9136 H   0  0  0  0  0  0  0  0  0  0  0  0
    5.6529    0.7487   22.0767 H   0  0  0  0  0  0  0  0  0  0  0  0
    3.6388    2.0586   21.6675 H   0  0  0  0  0  0  0  0  0  0  0  0
    2.9822    2.6968   19.3330 H   0  0  0  0  0  0  0  0  0  0  0  0
    4.4111    1.9893   17.4360 H   0  0  0  0  0  0  0  0  0  0  0  0
    8.3914   -6.5295   27.7556 H   0  0  0  0  0  0  0  0  0  0  0  0
    7.8414   -5.5198   29.0990 H   0  0  0  0  0  0  0  0  0  0  0  0
    5.9977   -6.9465   28.1311 H   0  0  0  0  0  0  0  0  0  0  0  0
    5.6587   -5.2139   28.0619 H   0  0  0  0  0  0  0  0  0  0  0  0
    5.8986   -7.1470   25.8680 H   0  0  0  0  0  0  0  0  0  0  0  0
    5.2500   -5.5067   25.8324 H   0  0  0  0  0  0  0  0  0  0  0  0
    8.1195   -6.4201   25.3688 H   0  0  0  0  0  0  0  0  0  0  0  0
    7.0780   -5.4282   24.3307 H   0  0  0  0  0  0  0  0  0  0  0  0
   13.5110    5.0358   24.3562 H   0  0  0  0  0  0  0  0  0  0  0  0
   13.0376    5.7241   22.7660 H   0  0  0  0  0  0  0  0  0  0  0  0
   11.9508    5.9069   24.1662 H   0  0  0  0  0  0  0  0  0  0  0  0
    9.7996    0.8985   24.7410 H   0  0  0  0  0  0  0  0  0  0  0  0
    8.7039    1.7016   23.6424 H   0  0  0  0  0  0  0  0  0  0  0  0
   10.7567   -0.2690   22.5479 H   0  0  0  0  0  0  0  0  0  0  0  0
    8.0917   -1.6083   21.0911 H   0  0  0  0  0  0  0  0  0  0  0  0
  1  3  2  0  0  0  0
  1  7  1  0  0  0  0
  2  4  1  0  0  0  0
  2  7  2  0  0  0  0
  3  9  1  0  0  0  0
  4  9  2  0  0  0  0
  5  8  1  0  0  0  0
  5 25  2  0  0  0  0
  6  8  2  0  0  0  0
  6 28  1  0  0  0  0
  7 24  1  0  0  0  0
  8 23  1  0  0  0  0
  9 30  1  0  0  0  0
 10 11  2  0  0  0  0
 10 12  1  0  0  0  0
 10 29  1  0  0  0  0
 11 26  1  0  0  0  0
 11 31  1  0  0  0  0
 12 13  2  0  0  0  0
 13 14  1  0  0  0  0
 14 15  2  0  0  0  0
 15 29  1  0  0  0  0
 16 18  1  0  0  0  0
 16 30  1  0  0  0  0
 16 32  2  0  0  0  0
 17 24  1  0  0  0  0
 17 31  1  0  0  0  0
 17 33  2  0  0  0  0
 18 19  1  0  0  0  0
 19 20  1  0  0  0  0
 20 21  1  0  0  0  0
 21 30  1  0  0  0  0
 22 28  1  0  0  0  0
 23 24  1  6  0  0  0
 25 28  1  0  0  0  0
 26 27  2  0  0  0  0
 27 29  1  0  0  0  0
  1 34  1  0  0  0  0
  2 35  1  0  0  0  0
  3 36  1  0  0  0  0
  4 37  1  0  0  0  0
  5 38  1  0  0  0  0
  6 39  1  0  0  0  0
 12 40  1  0  0  0  0
 13 41  1  0  0  0  0
 14 42  1  0  0  0  0
 15 43  1  0  0  0  0
 18 44  1  0  0  0  0
 18 45  1  0  0  0  0
 19 46  1  0  0  0  0
 19 47  1  0  0  0  0
 20 48  1  0  0  0  0
 20 49  1  0  0  0  0
 21 50  1  0  0  0  0
 21 51  1  0  0  0  0
 22 52  1  0  0  0  0
 22 53  1  0  0  0  0
 22 54  1  0  0  0  0
 23 55  1  0  0  0  0
 23 56  1  0  0  0  0
 24 57  1  0  0  0  0
 31 58  1  0  0  0  0
M  END
> <clash_score>
0

> <docking_score>
-7.677846908569336

> <overlap_score>
0.8474575281143188

$$$$
BENZO_277_1
  -OEChem-08232013543D

 57 61  0     1  0  0  0  0  0999 V2000
   12.7867    1.1712   26.6741 C   0  0  0  0  0  0  0  0  0  0  0  0
   11.5946    1.8532   26.9175 C   0  0  0  0  0  0  0  0  0  0  0  0
   12.9730    0.5019   25.4645 C   0  0  0  0  0  0  0  0  0  0  0  0
   10.5886    1.8659   25.9513 C   0  0  0  0  0  0  0  0  0  0  0  0
   11.9671    0.5146   24.4983 C   0  0  0  0  0  0  0  0  0  0  0  0
    9.5890   -2.4950   23.2210 C   0  0  0  0  0  0  0  0  0  0  0  0
    8.2550   -1.0010   24.5520 C   0  0  0  0  0  0  0  0  0  0  0  0
    9.1890   -3.5540   24.0140 C   0  0  0  0  0  0  0  0  0  0  0  0
    7.8700   -2.0610   25.3550 C   0  0  0  0  0  0  0  0  0  0  0  0
   10.7749    1.1966   24.7417 C   0  0  0  0  0  0  0  0  0  0  0  0
    9.1280   -1.2090   23.4870 C   0  0  0  0  0  0  0  0  0  0  0  0
    8.3450   -3.3440   25.0980 C   0  0  0  0  0  0  0  0  0  0  0  0
    6.1460    0.6070   19.9750 C   0  0  0  0  0  0  0  0  0  0  0  0
    7.2710   -0.1460   19.8310 C   0  0  0  0  0  0  0  0  0  0  0  0
    5.3890    1.0010   21.0690 C   0  0  0  0  0  0  0  0  0  0  0  0
    4.2460    1.7520   20.8250 C   0  0  0  0  0  0  0  0  0  0  0  0
    3.8860    2.1050   19.5250 C   0  0  0  0  0  0  0  0  0  0  0  0
    4.6610    1.7170   18.4380 C   0  0  0  0  0  0  0  0  0  0  0  0
    9.0430    0.2380   21.4940 C   0  0  0  0  0  0  0  0  0  0  0  0
    8.9526   -5.2008   26.6600 C   0  0  0  0  0  0  0  0  0  0  0  0
    6.6115   -4.5057   26.4392 C   0  0  0  0  0  0  0  0  0  0  0  0
    8.9053   -4.7827   28.1257 C   0  0  0  0  0  0  0  0  0  0  0  0
    6.6391   -4.1219   27.9194 C   0  0  0  0  0  0  0  0  0  0  0  0
    9.6852    1.2097   23.6944 C   0  0  0  0  0  0  0  0  0  0  0  0
    9.5820   -0.1080   22.7000 C   0  0  1  0  0  0  0  0  0  0  0  0
    7.5840   -0.2700   18.5160 N   0  0  0  0  0  0  0  0  0  0  0  0
    6.7100    0.3850   17.8100 N   0  0  0  0  0  0  0  0  0  0  0  0
    5.7970    0.9500   18.6730 N   0  0  0  0  0  0  0  0  0  0  0  0
    7.9774   -4.4013   25.9152 N   0  0  0  0  0  0  0  0  0  0  0  0
    8.0950   -0.7700   20.8440 N   0  0  0  0  0  0  0  0  0  0  0  0
    9.2950    1.3000   20.9480 O   0  0  0  0  0  0  0  0  0  0  0  0
    7.5748   -4.9364   28.6347 O   0  0  0  0  0  0  0  0  0  0  0  0
   13.5704    1.1625   27.4260 H   0  0  0  0  0  0  0  0  0  0  0  0
   11.4498    2.3753   27.8588 H   0  0  0  0  0  0  0  0  0  0  0  0
   13.9015   -0.0282   25.2743 H   0  0  0  0  0  0  0  0  0  0  0  0
    9.6629    2.3997   26.1496 H   0  0  0  0  0  0  0  0  0  0  0  0
   12.1210   -0.0097   23.5589 H   0  0  0  0  0  0  0  0  0  0  0  0
   10.2684   -2.6719   22.3867 H   0  0  0  0  0  0  0  0  0  0  0  0
    7.8717   -0.0016   24.7596 H   0  0  0  0  0  0  0  0  0  0  0  0
    9.5443   -4.5616   23.7817 H   0  0  0  0  0  0  0  0  0  0  0  0
    7.1921   -1.8821   26.1908 H   0  0  0  0  0  0  0  0  0  0  0  0
    5.6529    0.7487   22.0767 H   0  0  0  0  0  0  0  0  0  0  0  0
    3.6388    2.0586   21.6675 H   0  0  0  0  0  0  0  0  0  0  0  0
    2.9822    2.6968   19.3331 H   0  0  0  0  0  0  0  0  0  0  0  0
    4.4111    1.9893   17.4360 H   0  0  0  0  0  0  0  0  0  0  0  0
    9.9614   -5.0503   26.2701 H   0  0  0  0  0  0  0  0  0  0  0  0
    8.6932   -6.2593   26.5731 H   0  0  0  0  0  0  0  0  0  0  0  0
    6.2625   -5.5339   26.3355 H   0  0  0  0  0  0  0  0  0  0  0  0
    5.9348   -3.8414   25.9036 H   0  0  0  0  0  0  0  0  0  0  0  0
    9.5615   -5.4255   28.7162 H   0  0  0  0  0  0  0  0  0  0  0  0
    9.2365   -3.7494   28.2620 H   0  0  0  0  0  0  0  0  0  0  0  0
    6.8895   -3.0633   28.0551 H   0  0  0  0  0  0  0  0  0  0  0  0
    5.6514   -4.2861   28.3610 H   0  0  0  0  0  0  0  0  0  0  0  0
    8.7197    1.4079   24.1780 H   0  0  0  0  0  0  0  0  0  0  0  0
    9.8623    2.0699   23.0340 H   0  0  0  0  0  0  0  0  0  0  0  0
   10.7567   -0.2690   22.5478 H   0  0  0  0  0  0  0  0  0  0  0  0
    8.0917   -1.6083   21.0911 H   0  0  0  0  0  0  0  0  0  0  0  0
  1  2  1  0  0  0  0
  1  3  2  0  0  0  0
  2  4  2  0  0  0  0
  3  5  1  0  0  0  0
  4 10  1  0  0  0  0
  5 10  2  0  0  0  0
  6  8  2  0  0  0  0
  6 11  1  0  0  0  0
  7  9  1  0  0  0  0
  7 11  2  0  0  0  0
  8 12  1  0  0  0  0
  9 12  2  0  0  0  0
 10 24  1  0  0  0  0
 11 25  1  0  0  0  0
 12 29  1  0  0  0  0
 13 14  2  0  0  0  0
 13 15  1  0  0  0  0
 13 28  1  0  0  0  0
 14 26  1  0  0  0  0
 14 30  1  0  0  0  0
 15 16  2  0  0  0  0
 16 17  1  0  0  0  0
 17 18  2  0  0  0  0
 18 28  1  0  0  0  0
 19 25  1  1  0  0  0
 19 30  1  0  0  0  0
 19 31  2  0  0  0  0
 20 22  1  0  0  0  0
 20 29  1  0  0  0  0
 21 23  1  0  0  0  0
 21 29  1  0  0  0  0
 22 32  1  0  0  0  0
 23 32  1  0  0  0  0
 24 25  1  0  0  0  0
 26 27  2  0  0  0  0
 27 28  1  0  0  0  0
  1 33  1  0  0  0  0
  2 34  1  0  0  0  0
  3 35  1  0  0  0  0
  4 36  1  0  0  0  0
  5 37  1  0  0  0  0
  6 38  1  0  0  0  0
  7 39  1  0  0  0  0
  8 40  1  0  0  0  0
  9 41  1  0  0  0  0
 15 42  1  0  0  0  0
 16 43  1  0  0  0  0
 17 44  1  0  0  0  0
 18 45  1  0  0  0  0
 20 46  1  0  0  0  0
 20 47  1  0  0  0  0
 21 48  1  0  0  0  0
 21 49  1  0  0  0  0
 22 50  1  0  0  0  0
 22 51  1  0  0  0  0
 23 52  1  0  0  0  0
 23 53  1  0  0  0  0
 24 54  1  0  0  0  0
 24 55  1  0  0  0  0
 25 56  1  0  0  0  0
 30 57  1  0  0  0  0
M  END
> <clash_score>
4.41239365524512

> <docking_score>
-4.6850409507751465

> <overlap_score>
0.8525295257568359

$$$$
BENZO_276_1
  -OEChem-08232013543D

 54 58  0     1  0  0  0  0  0999 V2000
    9.5890   -2.4950   23.2210 C   0  0  0  0  0  0  0  0  0  0  0  0
    8.2550   -1.0010   24.5520 C   0  0  0  0  0  0  0  0  0  0  0  0
    9.1890   -3.5540   24.0140 C   0  0  0  0  0  0  0  0  0  0  0  0
    7.8700   -2.0610   25.3550 C   0  0  0  0  0  0  0  0  0  0  0  0
   11.1861    0.0281   25.4458 C   0  0  0  0  0  0  0  0  0  0  0  0
   12.1963    0.2939   26.3439 C   0  0  0  0  0  0  0  0  0  0  0  0
   11.4863    2.3111   25.1287 C   0  0  0  0  0  0  0  0  0  0  0  0
    9.1280   -1.2090   23.4870 C   0  0  0  0  0  0  0  0  0  0  0  0
   10.7749    1.1966   24.7417 C   0  0  0  0  0  0  0  0  0  0  0  0
    8.3450   -3.3440   25.0980 C   0  0  0  0  0  0  0  0  0  0  0  0
    6.1460    0.6070   19.9750 C   0  0  0  0  0  0  0  0  0  0  0  0
    7.2710   -0.1460   19.8310 C   0  0  0  0  0  0  0  0  0  0  0  0
    5.3890    1.0010   21.0690 C   0  0  0  0  0  0  0  0  0  0  0  0
    4.2460    1.7520   20.8250 C   0  0  0  0  0  0  0  0  0  0  0  0
    3.8860    2.1050   19.5250 C   0  0  0  0  0  0  0  0  0  0  0  0
    4.6610    1.7170   18.4380 C   0  0  0  0  0  0  0  0  0  0  0  0
    9.0430    0.2380   21.4940 C   0  0  0  0  0  0  0  0  0  0  0  0
    6.7636   -5.1648   25.5740 C   0  0  0  0  0  0  0  0  0  0  0  0
    8.3038   -4.3778   27.3502 C   0  0  0  0  0  0  0  0  0  0  0  0
    6.8057   -6.5368   26.2370 C   0  0  0  0  0  0  0  0  0  0  0  0
    8.2632   -5.7919   27.9188 C   0  0  0  0  0  0  0  0  0  0  0  0
    9.6852    1.2097   23.6944 C   0  0  0  0  0  0  0  0  0  0  0  0
    9.5820   -0.1080   22.7000 C   0  0  1  0  0  0  0  0  0  0  0  0
    7.5840   -0.2700   18.5160 N   0  0  0  0  0  0  0  0  0  0  0  0
    6.7100    0.3850   17.8100 N   0  0  0  0  0  0  0  0  0  0  0  0
    5.7970    0.9500   18.6730 N   0  0  0  0  0  0  0  0  0  0  0  0
    7.9748   -4.4087   25.9209 N   0  0  0  0  0  0  0  0  0  0  0  0
    8.0950   -0.7700   20.8440 N   0  0  0  0  0  0  0  0  0  0  0  0
    9.2950    1.3000   20.9480 O   0  0  0  0  0  0  0  0  0  0  0  0
    7.0041   -6.4052   27.6445 O   0  0  0  0  0  0  0  0  0  0  0  0
   12.6447    1.9465   26.3359 S   0  0  0  0  0  0  0  0  0  0  0  0
   10.2684   -2.6719   22.3867 H   0  0  0  0  0  0  0  0  0  0  0  0
    7.8717   -0.0016   24.7596 H   0  0  0  0  0  0  0  0  0  0  0  0
    9.5443   -4.5616   23.7817 H   0  0  0  0  0  0  0  0  0  0  0  0
    7.1922   -1.8821   26.1908 H   0  0  0  0  0  0  0  0  0  0  0  0
   10.7648   -0.9591   25.3042 H   0  0  0  0  0  0  0  0  0  0  0  0
   12.6919   -0.4031   27.0048 H   0  0  0  0  0  0  0  0  0  0  0  0
   11.3836    3.3236   24.7637 H   0  0  0  0  0  0  0  0  0  0  0  0
    5.6529    0.7487   22.0767 H   0  0  0  0  0  0  0  0  0  0  0  0
    3.6388    2.0586   21.6675 H   0  0  0  0  0  0  0  0  0  0  0  0
    2.9822    2.6968   19.3331 H   0  0  0  0  0  0  0  0  0  0  0  0
    4.4111    1.9893   17.4360 H   0  0  0  0  0  0  0  0  0  0  0  0
    6.6795   -5.2859   24.4876 H   0  0  0  0  0  0  0  0  0  0  0  0
    5.8835   -4.6130   25.9282 H   0  0  0  0  0  0  0  0  0  0  0  0
    7.5706   -3.7507   27.8738 H   0  0  0  0  0  0  0  0  0  0  0  0
    9.2992   -3.9474   27.5112 H   0  0  0  0  0  0  0  0  0  0  0  0
    5.8522   -7.0520   26.0823 H   0  0  0  0  0  0  0  0  0  0  0  0
    7.5937   -7.1675   25.8080 H   0  0  0  0  0  0  0  0  0  0  0  0
    9.0741   -6.4110   27.5161 H   0  0  0  0  0  0  0  0  0  0  0  0
    8.3861   -5.7563   29.0060 H   0  0  0  0  0  0  0  0  0  0  0  0
    8.7197    1.4079   24.1780 H   0  0  0  0  0  0  0  0  0  0  0  0
    9.8623    2.0699   23.0340 H   0  0  0  0  0  0  0  0  0  0  0  0
   10.7567   -0.2690   22.5478 H   0  0  0  0  0  0  0  0  0  0  0  0
    8.0917   -1.6083   21.0911 H   0  0  0  0  0  0  0  0  0  0  0  0
  1  3  2  0  0  0  0
  1  8  1  0  0  0  0
  2  4  1  0  0  0  0
  2  8  2  0  0  0  0
  3 10  1  0  0  0  0
  4 10  2  0  0  0  0
  5  6  2  0  0  0  0
  5  9  1  0  0  0  0
  6 31  1  0  0  0  0
  7  9  2  0  0  0  0
  7 31  1  0  0  0  0
  8 23  1  0  0  0  0
  9 22  1  0  0  0  0
 10 27  1  0  0  0  0
 11 12  2  0  0  0  0
 11 13  1  0  0  0  0
 11 26  1  0  0  0  0
 12 24  1  0  0  0  0
 12 28  1  0  0  0  0
 13 14  2  0  0  0  0
 14 15  1  0  0  0  0
 15 16  2  0  0  0  0
 16 26  1  0  0  0  0
 17 23  1  1  0  0  0
 17 28  1  0  0  0  0
 17 29  2  0  0  0  0
 18 20  1  0  0  0  0
 18 27  1  0  0  0  0
 19 21  1  0  0  0  0
 19 27  1  0  0  0  0
 20 30  1  0  0  0  0
 21 30  1  0  0  0  0
 22 23  1  0  0  0  0
 24 25  2  0  0  0  0
 25 26  1  0  0  0  0
  1 32  1  0  0  0  0
  2 33  1  0  0  0  0
  3 34  1  0  0  0  0
  4 35  1  0  0  0  0
  5 36  1  0  0  0  0
  6 37  1  0  0  0  0
  7 38  1  0  0  0  0
 13 39  1  0  0  0  0
 14 40  1  0  0  0  0
 15 41  1  0  0  0  0
 16 42  1  0  0  0  0
 18 43  1  0  0  0  0
 18 44  1  0  0  0  0
 19 45  1  0  0  0  0
 19 46  1  0  0  0  0
 20 47  1  0  0  0  0
 20 48  1  0  0  0  0
 21 49  1  0  0  0  0
 21 50  1  0  0  0  0
 22 51  1  0  0  0  0
 22 52  1  0  0  0  0
 23 53  1  0  0  0  0
 28 54  1  0  0  0  0
M  END
> <clash_score>
2.24898384983848

> <docking_score>
-4.900906562805176

> <overlap_score>
0.8369736075401306

$$$$
BENZO_274_1
  -OEChem-08232013543D

 58 62  0     1  0  0  0  0  0999 V2000
   12.8937    2.8016   22.4237 C   0  0  0  0  0  0  0  0  0  0  0  0
   11.9210    1.8506   22.7318 C   0  0  0  0  0  0  0  0  0  0  0  0
    9.5890   -2.4950   23.2210 C   0  0  0  0  0  0  0  0  0  0  0  0
    8.2550   -1.0010   24.5520 C   0  0  0  0  0  0  0  0  0  0  0  0
    9.1890   -3.5540   24.0140 C   0  0  0  0  0  0  0  0  0  0  0  0
    7.8700   -2.0610   25.3550 C   0  0  0  0  0  0  0  0  0  0  0  0
   12.6848    4.1426   22.7457 C   0  0  0  0  0  0  0  0  0  0  0  0
   10.5302    3.5816   23.6839 C   0  0  0  0  0  0  0  0  0  0  0  0
    9.1280   -1.2090   23.4870 C   0  0  0  0  0  0  0  0  0  0  0  0
   10.7393    2.2406   23.3619 C   0  0  0  0  0  0  0  0  0  0  0  0
    8.3450   -3.3440   25.0980 C   0  0  0  0  0  0  0  0  0  0  0  0
   11.5030    4.5326   23.3758 C   0  0  0  0  0  0  0  0  0  0  0  0
    6.1460    0.6070   19.9750 C   0  0  0  0  0  0  0  0  0  0  0  0
    7.2710   -0.1460   19.8310 C   0  0  0  0  0  0  0  0  0  0  0  0
    5.3890    1.0010   21.0690 C   0  0  0  0  0  0  0  0  0  0  0  0
    4.2460    1.7520   20.8250 C   0  0  0  0  0  0  0  0  0  0  0  0
    3.8860    2.1050   19.5250 C   0  0  0  0  0  0  0  0  0  0  0  0
    4.6610    1.7170   18.4380 C   0  0  0  0  0  0  0  0  0  0  0  0
    8.2612   -4.4533   27.3232 C   0  0  0  0  0  0  0  0  0  0  0  0
    9.0430    0.2380   21.4940 C   0  0  0  0  0  0  0  0  0  0  0  0
    7.7639   -5.6979   28.0369 C   0  0  0  0  0  0  0  0  0  0  0  0
    6.3258   -5.9996   27.6538 C   0  0  0  0  0  0  0  0  0  0  0  0
    6.1385   -6.0983   26.1431 C   0  0  0  0  0  0  0  0  0  0  0  0
    7.3646   -5.6395   25.3553 C   0  0  0  0  0  0  0  0  0  0  0  0
    9.6852    1.2097   23.6944 C   0  0  0  0  0  0  0  0  0  0  0  0
    9.5820   -0.1080   22.7000 C   0  0  1  0  0  0  0  0  0  0  0  0
    7.5840   -0.2700   18.5160 N   0  0  0  0  0  0  0  0  0  0  0  0
    6.7100    0.3850   17.8100 N   0  0  0  0  0  0  0  0  0  0  0  0
    5.7970    0.9500   18.6730 N   0  0  0  0  0  0  0  0  0  0  0  0
    7.9658   -4.4385   25.9450 N   0  0  0  0  0  0  0  0  0  0  0  0
    8.0950   -0.7700   20.8440 N   0  0  0  0  0  0  0  0  0  0  0  0
    8.9160   -3.6176   27.9452 O   0  0  0  0  0  0  0  0  0  0  0  0
    9.2950    1.3000   20.9480 O   0  0  0  0  0  0  0  0  0  0  0  0
   11.2452    6.1875   23.7718 Cl  0  0  0  0  0  0  0  0  0  0  0  0
   13.8138    2.4975   21.9329 H   0  0  0  0  0  0  0  0  0  0  0  0
   12.0923    0.8079   22.4771 H   0  0  0  0  0  0  0  0  0  0  0  0
   10.2695   -2.6718   22.3873 H   0  0  0  0  0  0  0  0  0  0  0  0
    7.8712   -0.0014   24.7587 H   0  0  0  0  0  0  0  0  0  0  0  0
    9.5431   -4.5618   23.7801 H   0  0  0  0  0  0  0  0  0  0  0  0
    7.1923   -1.8823   26.1912 H   0  0  0  0  0  0  0  0  0  0  0  0
   13.4515    4.8730   22.4993 H   0  0  0  0  0  0  0  0  0  0  0  0
    9.6074    3.8805   24.1756 H   0  0  0  0  0  0  0  0  0  0  0  0
    5.6529    0.7487   22.0767 H   0  0  0  0  0  0  0  0  0  0  0  0
    3.6388    2.0586   21.6675 H   0  0  0  0  0  0  0  0  0  0  0  0
    2.9822    2.6968   19.3330 H   0  0  0  0  0  0  0  0  0  0  0  0
    4.4111    1.9893   17.4360 H   0  0  0  0  0  0  0  0  0  0  0  0
    8.3914   -6.5295   27.7556 H   0  0  0  0  0  0  0  0  0  0  0  0
    7.8414   -5.5198   29.0990 H   0  0  0  0  0  0  0  0  0  0  0  0
    5.9977   -6.9465   28.1311 H   0  0  0  0  0  0  0  0  0  0  0  0
    5.6587   -5.2139   28.0619 H   0  0  0  0  0  0  0  0  0  0  0  0
    5.8986   -7.1470   25.8680 H   0  0  0  0  0  0  0  0  0  0  0  0
    5.2500   -5.5067   25.8324 H   0  0  0  0  0  0  0  0  0  0  0  0
    8.1195   -6.4201   25.3688 H   0  0  0  0  0  0  0  0  0  0  0  0
    7.0780   -5.4282   24.3307 H   0  0  0  0  0  0  0  0  0  0  0  0
    9.7996    0.8985   24.7410 H   0  0  0  0  0  0  0  0  0  0  0  0
    8.7039    1.7016   23.6424 H   0  0  0  0  0  0  0  0  0  0  0  0
   10.7567   -0.2690   22.5479 H   0  0  0  0  0  0  0  0  0  0  0  0
    8.0917   -1.6083   21.0911 H   0  0  0  0  0  0  0  0  0  0  0  0
  1  2  2  0  0  0  0
  1  7  1  0  0  0  0
  2 10  1  0  0  0  0
  3  5  2  0  0  0  0
  3  9  1  0  0  0  0
  4  6  1  0  0  0  0
  4  9  2  0  0  0  0
  5 11  1  0  0  0  0
  6 11  2  0  0  0  0
  7 12  2  0  0  0  0
  8 10  2  0  0  0  0
  8 12  1  0  0  0  0
  9 26  1  0  0  0  0
 10 25  1  0  0  0  0
 11 30  1  0  0  0  0
 12 34  1  0  0  0  0
 13 14  2  0  0  0  0
 13 15  1  0  0  0  0
 13 29  1  0  0  0  0
 14 27  1  0  0  0  0
 14 31  1  0  0  0  0
 15 16  2  0  0  0  0
 16 17  1  0  0  0  0
 17 18  2  0  0  0  0
 18 29  1  0  0  0  0
 19 21  1  0  0  0  0
 19 30  1  0  0  0  0
 19 32  2  0  0  0  0
 20 26  1  1  0  0  0
 20 31  1  0  0  0  0
 20 33  2  0  0  0  0
 21 22  1  0  0  0  0
 22 23  1  0  0  0  0
 23 24  1  0  0  0  0
 24 30  1  0  0  0  0
 25 26  1  0  0  0  0
 27 28  2  0  0  0  0
 28 29  1  0  0  0  0
  1 35  1  0  0  0  0
  2 36  1  0  0  0  0
  3 37  1  0  0  0  0
  4 38  1  0  0  0  0
  5 39  1  0  0  0  0
  6 40  1  0  0  0  0
  7 41  1  0  0  0  0
  8 42  1  0  0  0  0
 15 43  1  0  0  0  0
 16 44  1  0  0  0  0
 17 45  1  0  0  0  0
 18 46  1  0  0  0  0
 21 47  1  0  0  0  0
 21 48  1  0  0  0  0
 22 49  1  0  0  0  0
 22 50  1  0  0  0  0
 23 51  1  0  0  0  0
 23 52  1  0  0  0  0
 24 53  1  0  0  0  0
 24 54  1  0  0  0  0
 25 55  1  0  0  0  0
 25 56  1  0  0  0  0
 26 57  1  0  0  0  0
 31 58  1  0  0  0  0
M  END
> <clash_score>
0

> <docking_score>
-9.267290115356445

> <overlap_score>
0.8504801392555237

$$$$
BENZO_277_2
  -OEChem-08232013543D

 57 61  0     1  0  0  0  0  0999 V2000
   13.2443   -0.7791   26.3598 C   0  0  0  0  0  0  0  0  0  0  0  0
   13.7975   -1.2944   25.1876 C   0  0  0  0  0  0  0  0  0  0  0  0
   12.0380   -0.0803   26.3132 C   0  0  0  0  0  0  0  0  0  0  0  0
   13.1445   -1.1108   23.9688 C   0  0  0  0  0  0  0  0  0  0  0  0
   11.3850    0.1033   25.0944 C   0  0  0  0  0  0  0  0  0  0  0  0
    9.5890   -2.4950   23.2210 C   0  0  0  0  0  0  0  0  0  0  0  0
    8.2550   -1.0010   24.5520 C   0  0  0  0  0  0  0  0  0  0  0  0
    9.1890   -3.5540   24.0140 C   0  0  0  0  0  0  0  0  0  0  0  0
    7.8700   -2.0610   25.3550 C   0  0  0  0  0  0  0  0  0  0  0  0
   11.9382   -0.4119   23.9222 C   0  0  0  0  0  0  0  0  0  0  0  0
    9.1280   -1.2090   23.4870 C   0  0  0  0  0  0  0  0  0  0  0  0
    8.3450   -3.3440   25.0980 C   0  0  0  0  0  0  0  0  0  0  0  0
    6.1460    0.6070   19.9750 C   0  0  0  0  0  0  0  0  0  0  0  0
    7.2710   -0.1460   19.8310 C   0  0  0  0  0  0  0  0  0  0  0  0
    5.3890    1.0010   21.0690 C   0  0  0  0  0  0  0  0  0  0  0  0
    4.2460    1.7520   20.8250 C   0  0  0  0  0  0  0  0  0  0  0  0
    3.8860    2.1050   19.5250 C   0  0  0  0  0  0  0  0  0  0  0  0
    4.6610    1.7170   18.4380 C   0  0  0  0  0  0  0  0  0  0  0  0
    9.0430    0.2380   21.4940 C   0  0  0  0  0  0  0  0  0  0  0  0
    8.9526   -5.2008   26.6600 C   0  0  0  0  0  0  0  0  0  0  0  0
    6.6115   -4.5057   26.4392 C   0  0  0  0  0  0  0  0  0  0  0  0
    8.9053   -4.7827   28.1257 C   0  0  0  0  0  0  0  0  0  0  0  0
    6.6391   -4.1219   27.9194 C   0  0  0  0  0  0  0  0  0  0  0  0
   11.2301   -0.2124   22.6019 C   0  0  0  0  0  0  0  0  0  0  0  0
    9.5820   -0.1080   22.7000 C   0  0  2  0  0  0  0  0  0  0  0  0
    7.5840   -0.2700   18.5160 N   0  0  0  0  0  0  0  0  0  0  0  0
    6.7100    0.3850   17.8100 N   0  0  0  0  0  0  0  0  0  0  0  0
    5.7970    0.9500   18.6730 N   0  0  0  0  0  0  0  0  0  0  0  0
    7.9774   -4.4013   25.9152 N   0  0  0  0  0  0  0  0  0  0  0  0
    8.0950   -0.7700   20.8440 N   0  0  0  0  0  0  0  0  0  0  0  0
    9.2950    1.3000   20.9480 O   0  0  0  0  0  0  0  0  0  0  0  0
    7.5748   -4.9364   28.6347 O   0  0  0  0  0  0  0  0  0  0  0  0
   13.7523   -0.9233   27.3089 H   0  0  0  0  0  0  0  0  0  0  0  0
   14.7362   -1.8395   25.2238 H   0  0  0  0  0  0  0  0  0  0  0  0
   11.6065    0.3201   27.2258 H   0  0  0  0  0  0  0  0  0  0  0  0
   13.5830   -1.5156   23.0605 H   0  0  0  0  0  0  0  0  0  0  0  0
   10.4456    0.6492   25.0677 H   0  0  0  0  0  0  0  0  0  0  0  0
   10.2684   -2.6719   22.3867 H   0  0  0  0  0  0  0  0  0  0  0  0
    7.8717   -0.0016   24.7596 H   0  0  0  0  0  0  0  0  0  0  0  0
    9.5443   -4.5616   23.7817 H   0  0  0  0  0  0  0  0  0  0  0  0
    7.1921   -1.8821   26.1908 H   0  0  0  0  0  0  0  0  0  0  0  0
    5.6529    0.7487   22.0767 H   0  0  0  0  0  0  0  0  0  0  0  0
    3.6388    2.0586   21.6675 H   0  0  0  0  0  0  0  0  0  0  0  0
    2.9822    2.6968   19.3330 H   0  0  0  0  0  0  0  0  0  0  0  0
    4.4111    1.9893   17.4360 H   0  0  0  0  0  0  0  0  0  0  0  0
    9.9614   -5.0503   26.2701 H   0  0  0  0  0  0  0  0  0  0  0  0
    8.6932   -6.2593   26.5731 H   0  0  0  0  0  0  0  0  0  0  0  0
    6.2625   -5.5339   26.3355 H   0  0  0  0  0  0  0  0  0  0  0  0
    5.9348   -3.8414   25.9036 H   0  0  0  0  0  0  0  0  0  0  0  0
    9.5615   -5.4255   28.7162 H   0  0  0  0  0  0  0  0  0  0  0  0
    9.2365   -3.7494   28.2620 H   0  0  0  0  0  0  0  0  0  0  0  0
    6.8895   -3.0633   28.0551 H   0  0  0  0  0  0  0  0  0  0  0  0
    5.6514   -4.2861   28.3610 H   0  0  0  0  0  0  0  0  0  0  0  0
   11.5792    0.7206   22.1405 H   0  0  0  0  0  0  0  0  0  0  0  0
   11.5533   -1.0125   21.9215 H   0  0  0  0  0  0  0  0  0  0  0  0
    9.5402    0.8508   23.4127 H   0  0  0  0  0  0  0  0  0  0  0  0
    8.0917   -1.6083   21.0911 H   0  0  0  0  0  0  0  0  0  0  0  0
  1  2  1  0  0  0  0
  1  3  2  0  0  0  0
  2  4  2  0  0  0  0
  3  5  1  0  0  0  0
  4 10  1  0  0  0  0
  5 10  2  0  0  0  0
  6  8  2  0  0  0  0
  6 11  1  0  0  0  0
  7  9  1  0  0  0  0
  7 11  2  0  0  0  0
  8 12  1  0  0  0  0
  9 12  2  0  0  0  0
 10 24  1  0  0  0  0
 11 25  1  0  0  0  0
 12 29  1  0  0  0  0
 13 14  2  0  0  0  0
 13 15  1  0  0  0  0
 13 28  1  0  0  0  0
 14 26  1  0  0  0  0
 14 30  1  0  0  0  0
 15 16  2  0  0  0  0
 16 17  1  0  0  0  0
 17 18  2  0  0  0  0
 18 28  1  0  0  0  0
 19 25  1  6  0  0  0
 19 30  1  0  0  0  0
 19 31  2  0  0  0  0
 20 22  1  0  0  0  0
 20 29  1  0  0  0  0
 21 23  1  0  0  0  0
 21 29  1  0  0  0  0
 22 32  1  0  0  0  0
 23 32  1  0  0  0  0
 24 25  1  0  0  0  0
 26 27  2  0  0  0  0
 27 28  1  0  0  0  0
  1 33  1  0  0  0  0
  2 34  1  0  0  0  0
  3 35  1  0  0  0  0
  4 36  1  0  0  0  0
  5 37  1  0  0  0  0
  6 38  1  0  0  0  0
  7 39  1  0  0  0  0
  8 40  1  0  0  0  0
  9 41  1  0  0  0  0
 15 42  1  0  0  0  0
 16 43  1  0  0  0  0
 17 44  1  0  0  0  0
 18 45  1  0  0  0  0
 20 46  1  0  0  0  0
 20 47  1  0  0  0  0
 21 48  1  0  0  0  0
 21 49  1  0  0  0  0
 22 50  1  0  0  0  0
 22 51  1  0  0  0  0
 23 52  1  0  0  0  0
 23 53  1  0  0  0  0
 24 54  1  0  0  0  0
 24 55  1  0  0  0  0
 25 56  1  0  0  0  0
 30 57  1  0  0  0  0
M  END
> <clash_score>
0

> <docking_score>
-6.588801860809326

> <overlap_score>
0.9247123003005981

$$$$
BENZO_276_2
  -OEChem-08232013543D

 54 58  0     1  0  0  0  0  0999 V2000
    9.5890   -2.4950   23.2210 C   0  0  0  0  0  0  0  0  0  0  0  0
    8.2550   -1.0010   24.5520 C   0  0  0  0  0  0  0  0  0  0  0  0
    9.1890   -3.5540   24.0140 C   0  0  0  0  0  0  0  0  0  0  0  0
    7.8700   -2.0610   25.3550 C   0  0  0  0  0  0  0  0  0  0  0  0
   13.1712   -1.1115   24.0648 C   0  0  0  0  0  0  0  0  0  0  0  0
   13.5969   -1.1481   25.3744 C   0  0  0  0  0  0  0  0  0  0  0  0
   11.4683    0.0594   25.1285 C   0  0  0  0  0  0  0  0  0  0  0  0
    9.1280   -1.2090   23.4870 C   0  0  0  0  0  0  0  0  0  0  0  0
   11.9382   -0.4119   23.9222 C   0  0  0  0  0  0  0  0  0  0  0  0
    8.3450   -3.3440   25.0980 C   0  0  0  0  0  0  0  0  0  0  0  0
    6.1460    0.6070   19.9750 C   0  0  0  0  0  0  0  0  0  0  0  0
    7.2710   -0.1460   19.8310 C   0  0  0  0  0  0  0  0  0  0  0  0
    5.3890    1.0010   21.0690 C   0  0  0  0  0  0  0  0  0  0  0  0
    4.2460    1.7520   20.8250 C   0  0  0  0  0  0  0  0  0  0  0  0
    3.8860    2.1050   19.5250 C   0  0  0  0  0  0  0  0  0  0  0  0
    4.6610    1.7170   18.4380 C   0  0  0  0  0  0  0  0  0  0  0  0
    9.0430    0.2380   21.4940 C   0  0  0  0  0  0  0  0  0  0  0  0
    8.9526   -5.2008   26.6600 C   0  0  0  0  0  0  0  0  0  0  0  0
    6.6115   -4.5057   26.4392 C   0  0  0  0  0  0  0  0  0  0  0  0
    8.9053   -4.7827   28.1257 C   0  0  0  0  0  0  0  0  0  0  0  0
    6.6391   -4.1219   27.9194 C   0  0  0  0  0  0  0  0  0  0  0  0
   11.2301   -0.2124   22.6019 C   0  0  0  0  0  0  0  0  0  0  0  0
    9.5820   -0.1080   22.7000 C   0  0  2  0  0  0  0  0  0  0  0  0
    7.5840   -0.2700   18.5160 N   0  0  0  0  0  0  0  0  0  0  0  0
    6.7100    0.3850   17.8100 N   0  0  0  0  0  0  0  0  0  0  0  0
    5.7970    0.9500   18.6730 N   0  0  0  0  0  0  0  0  0  0  0  0
    7.9774   -4.4013   25.9152 N   0  0  0  0  0  0  0  0  0  0  0  0
    8.0950   -0.7700   20.8440 N   0  0  0  0  0  0  0  0  0  0  0  0
    9.2950    1.3000   20.9480 O   0  0  0  0  0  0  0  0  0  0  0  0
    7.5748   -4.9364   28.6347 O   0  0  0  0  0  0  0  0  0  0  0  0
   12.5120   -0.3414   26.4254 S   0  0  0  0  0  0  0  0  0  0  0  0
   10.2684   -2.6719   22.3867 H   0  0  0  0  0  0  0  0  0  0  0  0
    7.8717   -0.0016   24.7596 H   0  0  0  0  0  0  0  0  0  0  0  0
    9.5443   -4.5616   23.7817 H   0  0  0  0  0  0  0  0  0  0  0  0
    7.1921   -1.8821   26.1908 H   0  0  0  0  0  0  0  0  0  0  0  0
   13.7212   -1.5668   23.2509 H   0  0  0  0  0  0  0  0  0  0  0  0
   14.4926   -1.6105   25.7644 H   0  0  0  0  0  0  0  0  0  0  0  0
   10.5622    0.6192   25.3146 H   0  0  0  0  0  0  0  0  0  0  0  0
    5.6529    0.7487   22.0767 H   0  0  0  0  0  0  0  0  0  0  0  0
    3.6388    2.0586   21.6675 H   0  0  0  0  0  0  0  0  0  0  0  0
    2.9822    2.6968   19.3330 H   0  0  0  0  0  0  0  0  0  0  0  0
    4.4111    1.9893   17.4360 H   0  0  0  0  0  0  0  0  0  0  0  0
    9.9614   -5.0503   26.2701 H   0  0  0  0  0  0  0  0  0  0  0  0
    8.6932   -6.2593   26.5731 H   0  0  0  0  0  0  0  0  0  0  0  0
    6.2625   -5.5339   26.3355 H   0  0  0  0  0  0  0  0  0  0  0  0
    5.9348   -3.8414   25.9036 H   0  0  0  0  0  0  0  0  0  0  0  0
    9.5615   -5.4255   28.7162 H   0  0  0  0  0  0  0  0  0  0  0  0
    9.2365   -3.7494   28.2620 H   0  0  0  0  0  0  0  0  0  0  0  0
    6.8895   -3.0633   28.0551 H   0  0  0  0  0  0  0  0  0  0  0  0
    5.6514   -4.2861   28.3610 H   0  0  0  0  0  0  0  0  0  0  0  0
   11.5792    0.7206   22.1405 H   0  0  0  0  0  0  0  0  0  0  0  0
   11.5533   -1.0125   21.9215 H   0  0  0  0  0  0  0  0  0  0  0  0
    9.5402    0.8508   23.4127 H   0  0  0  0  0  0  0  0  0  0  0  0
    8.0917   -1.6083   21.0911 H   0  0  0  0  0  0  0  0  0  0  0  0
  1  3  2  0  0  0  0
  1  8  1  0  0  0  0
  2  4  1  0  0  0  0
  2  8  2  0  0  0  0
  3 10  1  0  0  0  0
  4 10  2  0  0  0  0
  5  6  2  0  0  0  0
  5  9  1  0  0  0  0
  6 31  1  0  0  0  0
  7  9  2  0  0  0  0
  7 31  1  0  0  0  0
  8 23  1  0  0  0  0
  9 22  1  0  0  0  0
 10 27  1  0  0  0  0
 11 12  2  0  0  0  0
 11 13  1  0  0  0  0
 11 26  1  0  0  0  0
 12 24  1  0  0  0  0
 12 28  1  0  0  0  0
 13 14  2  0  0  0  0
 14 15  1  0  0  0  0
 15 16  2  0  0  0  0
 16 26  1  0  0  0  0
 17 23  1  6  0  0  0
 17 28  1  0  0  0  0
 17 29  2  0  0  0  0
 18 20  1  0  0  0  0
 18 27  1  0  0  0  0
 19 21  1  0  0  0  0
 19 27  1  0  0  0  0
 20 30  1  0  0  0  0
 21 30  1  0  0  0  0
 22 23  1  0  0  0  0
 24 25  2  0  0  0  0
 25 26  1  0  0  0  0
  1 32  1  0  0  0  0
  2 33  1  0  0  0  0
  3 34  1  0  0  0  0
  4 35  1  0  0  0  0
  5 36  1  0  0  0  0
  6 37  1  0  0  0  0
  7 38  1  0  0  0  0
 13 39  1  0  0  0  0
 14 40  1  0  0  0  0
 15 41  1  0  0  0  0
 16 42  1  0  0  0  0
 18 43  1  0  0  0  0
 18 44  1  0  0  0  0
 19 45  1  0  0  0  0
 19 46  1  0  0  0  0
 20 47  1  0  0  0  0
 20 48  1  0  0  0  0
 21 49  1  0  0  0  0
 21 50  1  0  0  0  0
 22 51  1  0  0  0  0
 22 52  1  0  0  0  0
 23 53  1  0  0  0  0
 28 54  1  0  0  0  0
M  END
> <clash_score>
0

> <docking_score>
-7.10338020324707

> <overlap_score>
0.9211782217025757

$$$$
BENZO_281_1
  -OEChem-08232013543D

 54 57  0     1  0  0  0  0  0999 V2000
   13.2081   -0.8233   26.3776 C   0  0  0  0  0  0  0  0  0  0  0  0
    4.2460    1.7520   20.8250 C   0  0  0  0  0  0  0  0  0  0  0  0
   13.7678   -1.3337   25.2064 C   0  0  0  0  0  0  0  0  0  0  0  0
   12.0060   -0.1174   26.3261 C   0  0  0  0  0  0  0  0  0  0  0  0
    3.8860    2.1050   19.5250 C   0  0  0  0  0  0  0  0  0  0  0  0
    5.3890    1.0010   21.0690 C   0  0  0  0  0  0  0  0  0  0  0  0
   13.1256   -1.1382   23.9837 C   0  0  0  0  0  0  0  0  0  0  0  0
   11.3638    0.0781   25.1034 C   0  0  0  0  0  0  0  0  0  0  0  0
    9.5890   -2.4950   23.2210 C   0  0  0  0  0  0  0  0  0  0  0  0
    8.2550   -1.0010   24.5520 C   0  0  0  0  0  0  0  0  0  0  0  0
    4.6610    1.7170   18.4380 C   0  0  0  0  0  0  0  0  0  0  0  0
    9.1890   -3.5540   24.0140 C   0  0  0  0  0  0  0  0  0  0  0  0
    7.8700   -2.0610   25.3550 C   0  0  0  0  0  0  0  0  0  0  0  0
    7.5840   -0.2700   18.5160 C   0  0  0  0  0  0  0  0  0  0  0  0
    6.1460    0.6070   19.9750 C   0  0  0  0  0  0  0  0  0  0  0  0
   11.9236   -0.4323   23.9322 C   0  0  0  0  0  0  0  0  0  0  0  0
    9.1280   -1.2090   23.4870 C   0  0  0  0  0  0  0  0  0  0  0  0
    5.7970    0.9500   18.6730 C   0  0  0  0  0  0  0  0  0  0  0  0
    8.3450   -3.3440   25.0980 C   0  0  0  0  0  0  0  0  0  0  0  0
    7.2710   -0.1460   19.8310 C   0  0  0  0  0  0  0  0  0  0  0  0
    9.0430    0.2380   21.4940 C   0  0  0  0  0  0  0  0  0  0  0  0
    7.2615   -5.5563   25.3804 C   0  0  0  0  0  0  0  0  0  0  0  0
    8.3045   -4.4045   27.3385 C   0  0  0  0  0  0  0  0  0  0  0  0
   11.2273   -0.2199   22.6076 C   0  0  0  0  0  0  0  0  0  0  0  0
    9.5820   -0.1080   22.7000 C   0  0  1  0  0  0  0  0  0  0  0  0
    6.7100    0.3850   17.8100 N   0  0  0  0  0  0  0  0  0  0  0  0
    8.0950   -0.7700   20.8440 N   0  0  0  0  0  0  0  0  0  0  0  0
    7.9717   -4.4175   25.9277 N   0  0  0  0  0  0  0  0  0  0  0  0
    9.2950    1.3000   20.9480 O   0  0  0  0  0  0  0  0  0  0  0  0
   13.7076   -0.9768   27.3297 H   0  0  0  0  0  0  0  0  0  0  0  0
    3.6208    2.0704   21.6579 H   0  0  0  0  0  0  0  0  0  0  0  0
   14.7032   -1.8843   25.2464 H   0  0  0  0  0  0  0  0  0  0  0  0
   11.5694    0.2792   27.2379 H   0  0  0  0  0  0  0  0  0  0  0  0
    2.9857    2.6926   19.3615 H   0  0  0  0  0  0  0  0  0  0  0  0
    5.6664    0.7407   22.0807 H   0  0  0  0  0  0  0  0  0  0  0  0
   13.5692   -1.5394   23.0762 H   0  0  0  0  0  0  0  0  0  0  0  0
   10.4277    0.6294   25.0729 H   0  0  0  0  0  0  0  0  0  0  0  0
   10.2684   -2.6719   22.3867 H   0  0  0  0  0  0  0  0  0  0  0  0
    7.8717   -0.0016   24.7596 H   0  0  0  0  0  0  0  0  0  0  0  0
    4.3794    2.0106   17.4221 H   0  0  0  0  0  0  0  0  0  0  0  0
    9.5443   -4.5616   23.7817 H   0  0  0  0  0  0  0  0  0  0  0  0
    7.1921   -1.8821   26.1908 H   0  0  0  0  0  0  0  0  0  0  0  0
    8.4172   -0.8135   18.0384 H   0  0  0  0  0  0  0  0  0  0  0  0
    7.0607   -6.2833   26.1812 H   0  0  0  0  0  0  0  0  0  0  0  0
    6.3096   -5.2194   24.9441 H   0  0  0  0  0  0  0  0  0  0  0  0
    7.8750   -6.0305   24.6002 H   0  0  0  0  0  0  0  0  0  0  0  0
    7.9298   -5.3236   27.8126 H   0  0  0  0  0  0  0  0  0  0  0  0
    9.3968   -4.3501   27.4569 H   0  0  0  0  0  0  0  0  0  0  0  0
    7.8398   -3.5297   27.8166 H   0  0  0  0  0  0  0  0  0  0  0  0
   11.5842    0.7150   22.1561 H   0  0  0  0  0  0  0  0  0  0  0  0
   11.5525   -1.0164   21.9239 H   0  0  0  0  0  0  0  0  0  0  0  0
    9.5374    0.8439   23.4178 H   0  0  0  0  0  0  0  0  0  0  0  0
    6.6715    0.4865   16.8044 H   0  0  0  0  0  0  0  0  0  0  0  0
    8.0730   -1.6176   21.0751 H   0  0  0  0  0  0  0  0  0  0  0  0
  1  3  1  0  0  0  0
  1  4  2  0  0  0  0
  2  5  1  0  0  0  0
  2  6  2  0  0  0  0
  3  7  2  0  0  0  0
  4  8  1  0  0  0  0
  5 11  2  0  0  0  0
  6 15  1  0  0  0  0
  7 16  1  0  0  0  0
  8 16  2  0  0  0  0
  9 12  2  0  0  0  0
  9 17  1  0  0  0  0
 10 13  1  0  0  0  0
 10 17  2  0  0  0  0
 11 18  1  0  0  0  0
 12 19  1  0  0  0  0
 13 19  2  0  0  0  0
 14 20  2  0  0  0  0
 14 26  1  0  0  0  0
 15 18  2  0  0  0  0
 15 20  1  0  0  0  0
 16 24  1  0  0  0  0
 17 25  1  0  0  0  0
 18 26  1  0  0  0  0
 19 28  1  0  0  0  0
 20 27  1  0  0  0  0
 21 25  1  0  0  0  0
 21 27  1  0  0  0  0
 21 29  2  0  0  0  0
 22 28  1  0  0  0  0
 23 28  1  0  0  0  0
 24 25  1  1  0  0  0
  1 30  1  0  0  0  0
  2 31  1  0  0  0  0
  3 32  1  0  0  0  0
  4 33  1  0  0  0  0
  5 34  1  0  0  0  0
  6 35  1  0  0  0  0
  7 36  1  0  0  0  0
  8 37  1  0  0  0  0
  9 38  1  0  0  0  0
 10 39  1  0  0  0  0
 11 40  1  0  0  0  0
 12 41  1  0  0  0  0
 13 42  1  0  0  0  0
 14 43  1  0  0  0  0
 22 44  1  0  0  0  0
 22 45  1  0  0  0  0
 22 46  1  0  0  0  0
 23 47  1  0  0  0  0
 23 48  1  0  0  0  0
 23 49  1  0  0  0  0
 24 50  1  0  0  0  0
 24 51  1  0  0  0  0
 25 52  1  0  0  0  0
 26 53  1  0  0  0  0
 27 54  1  0  0  0  0
M  END
> <clash_score>
0

> <docking_score>
-5.4340410232543945

> <overlap_score>
0.875769317150116

$$$$
BENZO_281_2
  -OEChem-08232013543D

 54 57  0     1  0  0  0  0  0999 V2000
   12.7724    1.1059   26.6945 C   0  0  0  0  0  0  0  0  0  0  0  0
    4.2460    1.7520   20.8250 C   0  0  0  0  0  0  0  0  0  0  0  0
   11.5849    1.7953   26.9397 C   0  0  0  0  0  0  0  0  0  0  0  0
   12.9583    0.4475   25.4788 C   0  0  0  0  0  0  0  0  0  0  0  0
    3.8860    2.1050   19.5250 C   0  0  0  0  0  0  0  0  0  0  0  0
    5.3890    1.0010   21.0690 C   0  0  0  0  0  0  0  0  0  0  0  0
   10.5833    1.8262   25.9695 C   0  0  0  0  0  0  0  0  0  0  0  0
   11.9567    0.4785   24.5086 C   0  0  0  0  0  0  0  0  0  0  0  0
    9.5890   -2.4950   23.2210 C   0  0  0  0  0  0  0  0  0  0  0  0
    8.2550   -1.0010   24.5520 C   0  0  0  0  0  0  0  0  0  0  0  0
    4.6610    1.7170   18.4380 C   0  0  0  0  0  0  0  0  0  0  0  0
    9.1890   -3.5540   24.0140 C   0  0  0  0  0  0  0  0  0  0  0  0
    7.8700   -2.0610   25.3550 C   0  0  0  0  0  0  0  0  0  0  0  0
    7.5840   -0.2700   18.5160 C   0  0  0  0  0  0  0  0  0  0  0  0
    6.1460    0.6070   19.9750 C   0  0  0  0  0  0  0  0  0  0  0  0
   10.7691    1.1678   24.7539 C   0  0  0  0  0  0  0  0  0  0  0  0
    9.1280   -1.2090   23.4870 C   0  0  0  0  0  0  0  0  0  0  0  0
    5.7970    0.9500   18.6730 C   0  0  0  0  0  0  0  0  0  0  0  0
    8.3450   -3.3440   25.0980 C   0  0  0  0  0  0  0  0  0  0  0  0
    7.2710   -0.1460   19.8310 C   0  0  0  0  0  0  0  0  0  0  0  0
    9.0430    0.2380   21.4940 C   0  0  0  0  0  0  0  0  0  0  0  0
    7.2615   -5.5563   25.3804 C   0  0  0  0  0  0  0  0  0  0  0  0
    8.3045   -4.4045   27.3385 C   0  0  0  0  0  0  0  0  0  0  0  0
    9.6841    1.2008   23.7022 C   0  0  0  0  0  0  0  0  0  0  0  0
    9.5820   -0.1080   22.7000 C   0  0  2  0  0  0  0  0  0  0  0  0
    6.7100    0.3850   17.8100 N   0  0  0  0  0  0  0  0  0  0  0  0
    8.0950   -0.7700   20.8440 N   0  0  0  0  0  0  0  0  0  0  0  0
    7.9717   -4.4175   25.9277 N   0  0  0  0  0  0  0  0  0  0  0  0
    9.2950    1.3000   20.9480 O   0  0  0  0  0  0  0  0  0  0  0  0
   13.5528    1.0830   27.4495 H   0  0  0  0  0  0  0  0  0  0  0  0
    3.6208    2.0704   21.6579 H   0  0  0  0  0  0  0  0  0  0  0  0
   11.4404    2.3089   27.8858 H   0  0  0  0  0  0  0  0  0  0  0  0
   13.8832   -0.0884   25.2871 H   0  0  0  0  0  0  0  0  0  0  0  0
    2.9857    2.6926   19.3615 H   0  0  0  0  0  0  0  0  0  0  0  0
    5.6664    0.7407   22.0807 H   0  0  0  0  0  0  0  0  0  0  0  0
    9.6612    2.3657   26.1694 H   0  0  0  0  0  0  0  0  0  0  0  0
   12.1103   -0.0375   23.5645 H   0  0  0  0  0  0  0  0  0  0  0  0
   10.2684   -2.6719   22.3867 H   0  0  0  0  0  0  0  0  0  0  0  0
    7.8717   -0.0016   24.7596 H   0  0  0  0  0  0  0  0  0  0  0  0
    4.3794    2.0106   17.4221 H   0  0  0  0  0  0  0  0  0  0  0  0
    9.5443   -4.5616   23.7817 H   0  0  0  0  0  0  0  0  0  0  0  0
    7.1921   -1.8821   26.1908 H   0  0  0  0  0  0  0  0  0  0  0  0
    8.4172   -0.8135   18.0384 H   0  0  0  0  0  0  0  0  0  0  0  0
    7.0607   -6.2833   26.1812 H   0  0  0  0  0  0  0  0  0  0  0  0
    6.3096   -5.2194   24.9441 H   0  0  0  0  0  0  0  0  0  0  0  0
    7.8750   -6.0305   24.6002 H   0  0  0  0  0  0  0  0  0  0  0  0
    7.9298   -5.3236   27.8126 H   0  0  0  0  0  0  0  0  0  0  0  0
    9.3968   -4.3501   27.4569 H   0  0  0  0  0  0  0  0  0  0  0  0
    7.8398   -3.5297   27.8166 H   0  0  0  0  0  0  0  0  0  0  0  0
    8.7167    1.3910   24.1851 H   0  0  0  0  0  0  0  0  0  0  0  0
    9.8647    2.0727   23.0582 H   0  0  0  0  0  0  0  0  0  0  0  0
   10.7539   -0.2760   22.5528 H   0  0  0  0  0  0  0  0  0  0  0  0
    6.6715    0.4865   16.8044 H   0  0  0  0  0  0  0  0  0  0  0  0
    8.0730   -1.6176   21.0751 H   0  0  0  0  0  0  0  0  0  0  0  0
  1  3  1  0  0  0  0
  1  4  2  0  0  0  0
  2  5  1  0  0  0  0
  2  6  2  0  0  0  0
  3  7  2  0  0  0  0
  4  8  1  0  0  0  0
  5 11  2  0  0  0  0
  6 15  1  0  0  0  0
  7 16  1  0  0  0  0
  8 16  2  0  0  0  0
  9 12  2  0  0  0  0
  9 17  1  0  0  0  0
 10 13  1  0  0  0  0
 10 17  2  0  0  0  0
 11 18  1  0  0  0  0
 12 19  1  0  0  0  0
 13 19  2  0  0  0  0
 14 20  2  0  0  0  0
 14 26  1  0  0  0  0
 15 18  2  0  0  0  0
 15 20  1  0  0  0  0
 16 24  1  0  0  0  0
 17 25  1  0  0  0  0
 18 26  1  0  0  0  0
 19 28  1  0  0  0  0
 20 27  1  0  0  0  0
 21 25  1  0  0  0  0
 21 27  1  0  0  0  0
 21 29  2  0  0  0  0
 22 28  1  0  0  0  0
 23 28  1  0  0  0  0
 24 25  1  6  0  0  0
  1 30  1  0  0  0  0
  2 31  1  0  0  0  0
  3 32  1  0  0  0  0
  4 33  1  0  0  0  0
  5 34  1  0  0  0  0
  6 35  1  0  0  0  0
  7 36  1  0  0  0  0
  8 37  1  0  0  0  0
  9 38  1  0  0  0  0
 10 39  1  0  0  0  0
 11 40  1  0  0  0  0
 12 41  1  0  0  0  0
 13 42  1  0  0  0  0
 14 43  1  0  0  0  0
 22 44  1  0  0  0  0
 22 45  1  0  0  0  0
 22 46  1  0  0  0  0
 23 47  1  0  0  0  0
 23 48  1  0  0  0  0
 23 49  1  0  0  0  0
 24 50  1  0  0  0  0
 24 51  1  0  0  0  0
 25 52  1  0  0  0  0
 26 53  1  0  0  0  0
 27 54  1  0  0  0  0
M  END
> <clash_score>
4.383193227119751

> <docking_score>
-3.5876107215881348

> <overlap_score>
0.8049809336662292

$$$$
BENZO_280_1
  -OEChem-08232013543D

 51 54  0     1  0  0  0  0  0999 V2000
    4.2460    1.7520   20.8250 C   0  0  0  0  0  0  0  0  0  0  0  0
    3.8860    2.1050   19.5250 C   0  0  0  0  0  0  0  0  0  0  0  0
    5.3890    1.0010   21.0690 C   0  0  0  0  0  0  0  0  0  0  0  0
    9.5890   -2.4950   23.2210 C   0  0  0  0  0  0  0  0  0  0  0  0
    8.2550   -1.0010   24.5520 C   0  0  0  0  0  0  0  0  0  0  0  0
    4.6610    1.7170   18.4380 C   0  0  0  0  0  0  0  0  0  0  0  0
    9.1890   -3.5540   24.0140 C   0  0  0  0  0  0  0  0  0  0  0  0
    7.8700   -2.0610   25.3550 C   0  0  0  0  0  0  0  0  0  0  0  0
   13.2019   -0.5524   24.2528 C   0  0  0  0  0  0  0  0  0  0  0  0
    7.5840   -0.2700   18.5160 C   0  0  0  0  0  0  0  0  0  0  0  0
   13.6437   -0.1439   25.4920 C   0  0  0  0  0  0  0  0  0  0  0  0
   11.4901    0.8830   24.8943 C   0  0  0  0  0  0  0  0  0  0  0  0
    6.1460    0.6070   19.9750 C   0  0  0  0  0  0  0  0  0  0  0  0
    9.1280   -1.2090   23.4870 C   0  0  0  0  0  0  0  0  0  0  0  0
   11.9545    0.0425   23.9064 C   0  0  0  0  0  0  0  0  0  0  0  0
    5.7970    0.9500   18.6730 C   0  0  0  0  0  0  0  0  0  0  0  0
    8.3450   -3.3440   25.0980 C   0  0  0  0  0  0  0  0  0  0  0  0
    7.2710   -0.1460   19.8310 C   0  0  0  0  0  0  0  0  0  0  0  0
    9.0430    0.2380   21.4940 C   0  0  0  0  0  0  0  0  0  0  0  0
    8.7678   -4.7588   27.0899 C   0  0  0  0  0  0  0  0  0  0  0  0
    6.7785   -5.1879   25.6384 C   0  0  0  0  0  0  0  0  0  0  0  0
   11.2273   -0.2199   22.6076 C   0  0  0  0  0  0  0  0  0  0  0  0
    9.5820   -0.1080   22.7000 C   0  0  1  0  0  0  0  0  0  0  0  0
    6.7100    0.3850   17.8100 N   0  0  0  0  0  0  0  0  0  0  0  0
    8.0950   -0.7700   20.8440 N   0  0  0  0  0  0  0  0  0  0  0  0
    7.9717   -4.4175   25.9277 N   0  0  0  0  0  0  0  0  0  0  0  0
    9.2950    1.3000   20.9480 O   0  0  0  0  0  0  0  0  0  0  0  0
   12.5564    0.9524   26.2323 S   0  0  0  0  0  0  0  0  0  0  0  0
    3.6208    2.0704   21.6579 H   0  0  0  0  0  0  0  0  0  0  0  0
    2.9857    2.6926   19.3615 H   0  0  0  0  0  0  0  0  0  0  0  0
    5.6664    0.7407   22.0807 H   0  0  0  0  0  0  0  0  0  0  0  0
   10.2684   -2.6719   22.3867 H   0  0  0  0  0  0  0  0  0  0  0  0
    7.8717   -0.0016   24.7596 H   0  0  0  0  0  0  0  0  0  0  0  0
    4.3794    2.0106   17.4221 H   0  0  0  0  0  0  0  0  0  0  0  0
    9.5443   -4.5616   23.7817 H   0  0  0  0  0  0  0  0  0  0  0  0
    7.1921   -1.8821   26.1908 H   0  0  0  0  0  0  0  0  0  0  0  0
   13.7507   -1.2457   23.6279 H   0  0  0  0  0  0  0  0  0  0  0  0
    8.4172   -0.8135   18.0384 H   0  0  0  0  0  0  0  0  0  0  0  0
   14.5524   -0.4373   25.9983 H   0  0  0  0  0  0  0  0  0  0  0  0
   10.5759    1.4603   24.8987 H   0  0  0  0  0  0  0  0  0  0  0  0
    8.3161   -5.6197   27.6045 H   0  0  0  0  0  0  0  0  0  0  0  0
    9.7889   -5.0164   26.7719 H   0  0  0  0  0  0  0  0  0  0  0  0
    8.8031   -3.8992   27.7753 H   0  0  0  0  0  0  0  0  0  0  0  0
    6.6585   -5.9772   26.3951 H   0  0  0  0  0  0  0  0  0  0  0  0
    5.9007   -4.5252   25.6576 H   0  0  0  0  0  0  0  0  0  0  0  0
    6.8704   -5.6459   24.6425 H   0  0  0  0  0  0  0  0  0  0  0  0
   11.5534    0.5103   21.8555 H   0  0  0  0  0  0  0  0  0  0  0  0
   11.5573   -1.1968   22.2276 H   0  0  0  0  0  0  0  0  0  0  0  0
    9.5374    0.8439   23.4178 H   0  0  0  0  0  0  0  0  0  0  0  0
    6.6715    0.4865   16.8044 H   0  0  0  0  0  0  0  0  0  0  0  0
    8.0730   -1.6176   21.0751 H   0  0  0  0  0  0  0  0  0  0  0  0
  1  2  1  0  0  0  0
  1  3  2  0  0  0  0
  2  6  2  0  0  0  0
  3 13  1  0  0  0  0
  4  7  2  0  0  0  0
  4 14  1  0  0  0  0
  5  8  1  0  0  0  0
  5 14  2  0  0  0  0
  6 16  1  0  0  0  0
  7 17  1  0  0  0  0
  8 17  2  0  0  0  0
  9 11  2  0  0  0  0
  9 15  1  0  0  0  0
 10 18  2  0  0  0  0
 10 24  1  0  0  0  0
 11 28  1  0  0  0  0
 12 15  2  0  0  0  0
 12 28  1  0  0  0  0
 13 16  2  0  0  0  0
 13 18  1  0  0  0  0
 14 23  1  0  0  0  0
 15 22  1  0  0  0  0
 16 24  1  0  0  0  0
 17 26  1  0  0  0  0
 18 25  1  0  0  0  0
 19 23  1  0  0  0  0
 19 25  1  0  0  0  0
 19 27  2  0  0  0  0
 20 26  1  0  0  0  0
 21 26  1  0  0  0  0
 22 23  1  1  0  0  0
  1 29  1  0  0  0  0
  2 30  1  0  0  0  0
  3 31  1  0  0  0  0
  4 32  1  0  0  0  0
  5 33  1  0  0  0  0
  6 34  1  0  0  0  0
  7 35  1  0  0  0  0
  8 36  1  0  0  0  0
  9 37  1  0  0  0  0
 10 38  1  0  0  0  0
 11 39  1  0  0  0  0
 12 40  1  0  0  0  0
 20 41  1  0  0  0  0
 20 42  1  0  0  0  0
 20 43  1  0  0  0  0
 21 44  1  0  0  0  0
 21 45  1  0  0  0  0
 21 46  1  0  0  0  0
 22 47  1  0  0  0  0
 22 48  1  0  0  0  0
 23 49  1  0  0  0  0
 24 50  1  0  0  0  0
 25 51  1  0  0  0  0
M  END
> <clash_score>
0.702880291167105

> <docking_score>
-6.086450576782227

> <overlap_score>
0.8665052652359009

$$$$
BENZO_280_2
  -OEChem-08232013543D

 51 54  0     1  0  0  0  0  0999 V2000
    4.2460    1.7520   20.8250 C   0  0  0  0  0  0  0  0  0  0  0  0
    3.8860    2.1050   19.5250 C   0  0  0  0  0  0  0  0  0  0  0  0
    5.3890    1.0010   21.0690 C   0  0  0  0  0  0  0  0  0  0  0  0
    9.5890   -2.4950   23.2210 C   0  0  0  0  0  0  0  0  0  0  0  0
    8.2550   -1.0010   24.5520 C   0  0  0  0  0  0  0  0  0  0  0  0
    4.6610    1.7170   18.4380 C   0  0  0  0  0  0  0  0  0  0  0  0
    9.1890   -3.5540   24.0140 C   0  0  0  0  0  0  0  0  0  0  0  0
    7.8700   -2.0610   25.3550 C   0  0  0  0  0  0  0  0  0  0  0  0
   12.1466    0.9424   24.4676 C   0  0  0  0  0  0  0  0  0  0  0  0
    7.5840   -0.2700   18.5160 C   0  0  0  0  0  0  0  0  0  0  0  0
   12.9217    0.9621   25.6062 C   0  0  0  0  0  0  0  0  0  0  0  0
   10.5439    1.3509   26.1006 C   0  0  0  0  0  0  0  0  0  0  0  0
    6.1460    0.6070   19.9750 C   0  0  0  0  0  0  0  0  0  0  0  0
    9.1280   -1.2090   23.4870 C   0  0  0  0  0  0  0  0  0  0  0  0
   10.7691    1.1678   24.7539 C   0  0  0  0  0  0  0  0  0  0  0  0
    5.7970    0.9500   18.6730 C   0  0  0  0  0  0  0  0  0  0  0  0
    8.3450   -3.3440   25.0980 C   0  0  0  0  0  0  0  0  0  0  0  0
    7.2710   -0.1460   19.8310 C   0  0  0  0  0  0  0  0  0  0  0  0
    9.0430    0.2380   21.4940 C   0  0  0  0  0  0  0  0  0  0  0  0
    8.7678   -4.7588   27.0899 C   0  0  0  0  0  0  0  0  0  0  0  0
    6.7785   -5.1879   25.6384 C   0  0  0  0  0  0  0  0  0  0  0  0
    9.6841    1.2008   23.7022 C   0  0  0  0  0  0  0  0  0  0  0  0
    9.5820   -0.1080   22.7000 C   0  0  2  0  0  0  0  0  0  0  0  0
    6.7100    0.3850   17.8100 N   0  0  0  0  0  0  0  0  0  0  0  0
    8.0950   -0.7700   20.8440 N   0  0  0  0  0  0  0  0  0  0  0  0
    7.9717   -4.4175   25.9277 N   0  0  0  0  0  0  0  0  0  0  0  0
    9.2950    1.3000   20.9480 O   0  0  0  0  0  0  0  0  0  0  0  0
   11.9894    1.2512   27.0132 S   0  0  0  0  0  0  0  0  0  0  0  0
    3.6208    2.0704   21.6579 H   0  0  0  0  0  0  0  0  0  0  0  0
    2.9857    2.6926   19.3615 H   0  0  0  0  0  0  0  0  0  0  0  0
    5.6664    0.7407   22.0807 H   0  0  0  0  0  0  0  0  0  0  0  0
   10.2684   -2.6719   22.3867 H   0  0  0  0  0  0  0  0  0  0  0  0
    7.8717   -0.0016   24.7596 H   0  0  0  0  0  0  0  0  0  0  0  0
    4.3794    2.0106   17.4221 H   0  0  0  0  0  0  0  0  0  0  0  0
    9.5443   -4.5616   23.7817 H   0  0  0  0  0  0  0  0  0  0  0  0
    7.1921   -1.8821   26.1908 H   0  0  0  0  0  0  0  0  0  0  0  0
   12.5526    0.7736   23.4782 H   0  0  0  0  0  0  0  0  0  0  0  0
    8.4172   -0.8135   18.0384 H   0  0  0  0  0  0  0  0  0  0  0  0
   13.9906    0.8198   25.6793 H   0  0  0  0  0  0  0  0  0  0  0  0
    9.6013    1.5375   26.5964 H   0  0  0  0  0  0  0  0  0  0  0  0
    8.3161   -5.6197   27.6045 H   0  0  0  0  0  0  0  0  0  0  0  0
    9.7889   -5.0164   26.7719 H   0  0  0  0  0  0  0  0  0  0  0  0
    8.8031   -3.8992   27.7753 H   0  0  0  0  0  0  0  0  0  0  0  0
    6.6585   -5.9772   26.3951 H   0  0  0  0  0  0  0  0  0  0  0  0
    5.9007   -4.5252   25.6576 H   0  0  0  0  0  0  0  0  0  0  0  0
    6.8704   -5.6459   24.6425 H   0  0  0  0  0  0  0  0  0  0  0  0
    8.7167    1.3910   24.1851 H   0  0  0  0  0  0  0  0  0  0  0  0
    9.8647    2.0727   23.0582 H   0  0  0  0  0  0  0  0  0  0  0  0
   10.7539   -0.2760   22.5528 H   0  0  0  0  0  0  0  0  0  0  0  0
    6.6715    0.4865   16.8044 H   0  0  0  0  0  0  0  0  0  0  0  0
    8.0730   -1.6176   21.0751 H   0  0  0  0  0  0  0  0  0  0  0  0
  1  2  1  0  0  0  0
  1  3  2  0  0  0  0
  2  6  2  0  0  0  0
  3 13  1  0  0  0  0
  4  7  2  0  0  0  0
  4 14  1  0  0  0  0
  5  8  1  0  0  0  0
  5 14  2  0  0  0  0
  6 16  1  0  0  0  0
  7 17  1  0  0  0  0
  8 17  2  0  0  0  0
  9 11  2  0  0  0  0
  9 15  1  0  0  0  0
 10 18  2  0  0  0  0
 10 24  1  0  0  0  0
 11 28  1  0  0  0  0
 12 15  2  0  0  0  0
 12 28  1  0  0  0  0
 13 16  2  0  0  0  0
 13 18  1  0  0  0  0
 14 23  1  0  0  0  0
 15 22  1  0  0  0  0
 16 24  1  0  0  0  0
 17 26  1  0  0  0  0
 18 25  1  0  0  0  0
 19 23  1  0  0  0  0
 19 25  1  0  0  0  0
 19 27  2  0  0  0  0
 20 26  1  0  0  0  0
 21 26  1  0  0  0  0
 22 23  1  6  0  0  0
  1 29  1  0  0  0  0
  2 30  1  0  0  0  0
  3 31  1  0  0  0  0
  4 32  1  0  0  0  0
  5 33  1  0  0  0  0
  6 34  1  0  0  0  0
  7 35  1  0  0  0  0
  8 36  1  0  0  0  0
  9 37  1  0  0  0  0
 10 38  1  0  0  0  0
 11 39  1  0  0  0  0
 12 40  1  0  0  0  0
 20 41  1  0  0  0  0
 20 42  1  0  0  0  0
 20 43  1  0  0  0  0
 21 44  1  0  0  0  0
 21 45  1  0  0  0  0
 21 46  1  0  0  0  0
 22 47  1  0  0  0  0
 22 48  1  0  0  0  0
 23 49  1  0  0  0  0
 24 50  1  0  0  0  0
 25 51  1  0  0  0  0
M  END
> <clash_score>
1.454871159828141

> <docking_score>
-4.01944637298584

> <overlap_score>
0.7956746220588684

$$$$
BENZO_279_1
  -OEChem-08232013543D

 57 61  0     1  0  0  0  0  0999 V2000
    9.5890   -2.4950   23.2210 C   0  0  0  0  0  0  0  0  0  0  0  0
    8.2550   -1.0010   24.5520 C   0  0  0  0  0  0  0  0  0  0  0  0
    9.1890   -3.5540   24.0140 C   0  0  0  0  0  0  0  0  0  0  0  0
    7.8700   -2.0610   25.3550 C   0  0  0  0  0  0  0  0  0  0  0  0
   13.3220   -0.5321   24.1508 C   0  0  0  0  0  0  0  0  0  0  0  0
   11.3739   -0.5140   25.1703 C   0  0  0  0  0  0  0  0  0  0  0  0
    9.1280   -1.2090   23.4870 C   0  0  0  0  0  0  0  0  0  0  0  0
   11.9382   -0.4119   23.9222 C   0  0  0  0  0  0  0  0  0  0  0  0
    8.3450   -3.3440   25.0980 C   0  0  0  0  0  0  0  0  0  0  0  0
    6.1460    0.6070   19.9750 C   0  0  0  0  0  0  0  0  0  0  0  0
    7.2710   -0.1460   19.8310 C   0  0  0  0  0  0  0  0  0  0  0  0
    5.3890    1.0010   21.0690 C   0  0  0  0  0  0  0  0  0  0  0  0
    4.2460    1.7520   20.8250 C   0  0  0  0  0  0  0  0  0  0  0  0
    3.8860    2.1050   19.5250 C   0  0  0  0  0  0  0  0  0  0  0  0
    4.6610    1.7170   18.4380 C   0  0  0  0  0  0  0  0  0  0  0  0
    9.0430    0.2380   21.4940 C   0  0  0  0  0  0  0  0  0  0  0  0
    8.8181   -4.7107   27.0857 C   0  0  0  0  0  0  0  0  0  0  0  0
    7.2576   -5.5563   25.3547 C   0  0  0  0  0  0  0  0  0  0  0  0
    8.0193   -5.5151   28.1049 C   0  0  0  0  0  0  0  0  0  0  0  0
    6.5423   -6.3161   26.4664 C   0  0  0  0  0  0  0  0  0  0  0  0
   12.3185   -0.8368   27.4686 C   0  0  0  0  0  0  0  0  0  0  0  0
   11.2301   -0.2124   22.6019 C   0  0  0  0  0  0  0  0  0  0  0  0
    9.5820   -0.1080   22.7000 C   0  0  1  0  0  0  0  0  0  0  0  0
   13.6189   -0.6977   25.4425 N   0  0  0  0  0  0  0  0  0  0  0  0
    7.5840   -0.2700   18.5160 N   0  0  0  0  0  0  0  0  0  0  0  0
    6.7100    0.3850   17.8100 N   0  0  0  0  0  0  0  0  0  0  0  0
   12.4136   -0.6822   26.0368 N   0  0  0  0  0  0  0  0  0  0  0  0
    5.7970    0.9500   18.6730 N   0  0  0  0  0  0  0  0  0  0  0  0
    7.9748   -4.4087   25.9209 N   0  0  0  0  0  0  0  0  0  0  0  0
    8.0950   -0.7700   20.8440 N   0  0  0  0  0  0  0  0  0  0  0  0
    9.2950    1.3000   20.9480 O   0  0  0  0  0  0  0  0  0  0  0  0
    7.4618   -6.6794   27.4955 O   0  0  0  0  0  0  0  0  0  0  0  0
   10.2684   -2.6719   22.3867 H   0  0  0  0  0  0  0  0  0  0  0  0
    7.8717   -0.0016   24.7596 H   0  0  0  0  0  0  0  0  0  0  0  0
    9.5443   -4.5616   23.7817 H   0  0  0  0  0  0  0  0  0  0  0  0
    7.1922   -1.8821   26.1908 H   0  0  0  0  0  0  0  0  0  0  0  0
   14.1286   -0.5054   23.4317 H   0  0  0  0  0  0  0  0  0  0  0  0
   10.3467   -0.4808   25.5074 H   0  0  0  0  0  0  0  0  0  0  0  0
    5.6529    0.7487   22.0767 H   0  0  0  0  0  0  0  0  0  0  0  0
    3.6388    2.0586   21.6675 H   0  0  0  0  0  0  0  0  0  0  0  0
    2.9822    2.6968   19.3330 H   0  0  0  0  0  0  0  0  0  0  0  0
    4.4111    1.9893   17.4360 H   0  0  0  0  0  0  0  0  0  0  0  0
    9.1812   -3.7873   27.5519 H   0  0  0  0  0  0  0  0  0  0  0  0
    9.6869   -5.2951   26.7566 H   0  0  0  0  0  0  0  0  0  0  0  0
    7.9776   -6.2212   24.8604 H   0  0  0  0  0  0  0  0  0  0  0  0
    6.5260   -5.2277   24.6071 H   0  0  0  0  0  0  0  0  0  0  0  0
    8.6785   -5.8462   28.9137 H   0  0  0  0  0  0  0  0  0  0  0  0
    7.2212   -4.9136   28.5564 H   0  0  0  0  0  0  0  0  0  0  0  0
    5.7209   -5.7272   26.8924 H   0  0  0  0  0  0  0  0  0  0  0  0
    6.1110   -7.2387   26.0647 H   0  0  0  0  0  0  0  0  0  0  0  0
   12.2261   -1.9039   27.6872 H   0  0  0  0  0  0  0  0  0  0  0  0
   13.2160   -0.4264   27.9396 H   0  0  0  0  0  0  0  0  0  0  0  0
   11.4423   -0.2935   27.8333 H   0  0  0  0  0  0  0  0  0  0  0  0
   11.5792    0.7206   22.1405 H   0  0  0  0  0  0  0  0  0  0  0  0
   11.5533   -1.0125   21.9215 H   0  0  0  0  0  0  0  0  0  0  0  0
    9.5402    0.8508   23.4127 H   0  0  0  0  0  0  0  0  0  0  0  0
    8.0917   -1.6083   21.0911 H   0  0  0  0  0  0  0  0  0  0  0  0
  1  3  2  0  0  0  0
  1  7  1  0  0  0  0
  2  4  1  0  0  0  0
  2  7  2  0  0  0  0
  3  9  1  0  0  0  0
  4  9  2  0  0  0  0
  5  8  1  0  0  0  0
  5 24  2  0  0  0  0
  6  8  2  0  0  0  0
  6 27  1  0  0  0  0
  7 23  1  0  0  0  0
  8 22  1  0  0  0  0
  9 29  1  0  0  0  0
 10 11  2  0  0  0  0
 10 12  1  0  0  0  0
 10 28  1  0  0  0  0
 11 25  1  0  0  0  0
 11 30  1  0  0  0  0
 12 13  2  0  0  0  0
 13 14  1  0  0  0  0
 14 15  2  0  0  0  0
 15 28  1  0  0  0  0
 16 23  1  0  0  0  0
 16 30  1  0  0  0  0
 16 31  2  0  0  0  0
 17 19  1  0  0  0  0
 17 29  1  0  0  0  0
 18 20  1  0  0  0  0
 18 29  1  0  0  0  0
 19 32  1  0  0  0  0
 20 32  1  0  0  0  0
 21 27  1  0  0  0  0
 22 23  1  1  0  0  0
 24 27  1  0  0  0  0
 25 26  2  0  0  0  0
 26 28  1  0  0  0  0
  1 33  1  0  0  0  0
  2 34  1  0  0  0  0
  3 35  1  0  0  0  0
  4 36  1  0  0  0  0
  5 37  1  0  0  0  0
  6 38  1  0  0  0  0
 12 39  1  0  0  0  0
 13 40  1  0  0  0  0
 14 41  1  0  0  0  0
 15 42  1  0  0  0  0
 17 43  1  0  0  0  0
 17 44  1  0  0  0  0
 18 45  1  0  0  0  0
 18 46  1  0  0  0  0
 19 47  1  0  0  0  0
 19 48  1  0  0  0  0
 20 49  1  0  0  0  0
 20 50  1  0  0  0  0
 21 51  1  0  0  0  0
 21 52  1  0  0  0  0
 21 53  1  0  0  0  0
 22 54  1  0  0  0  0
 22 55  1  0  0  0  0
 23 56  1  0  0  0  0
 30 57  1  0  0  0  0
M  END
> <clash_score>
0.6568127051227806

> <docking_score>
-6.969913959503174

> <overlap_score>
0.919378399848938

$$$$
BENZO_279_2
  -OEChem-08232013543D

 57 61  0     1  0  0  0  0  0999 V2000
    9.5890   -2.4950   23.2210 C   0  0  0  0  0  0  0  0  0  0  0  0
    8.2550   -1.0010   24.5520 C   0  0  0  0  0  0  0  0  0  0  0  0
    9.1890   -3.5540   24.0140 C   0  0  0  0  0  0  0  0  0  0  0  0
    7.8700   -2.0610   25.3550 C   0  0  0  0  0  0  0  0  0  0  0  0
   11.9810    2.0341   22.7316 C   0  0  0  0  0  0  0  0  0  0  0  0
   10.6982    3.5917   23.6053 C   0  0  0  0  0  0  0  0  0  0  0  0
    9.1280   -1.2090   23.4870 C   0  0  0  0  0  0  0  0  0  0  0  0
   10.7392    2.2406   23.3619 C   0  0  0  0  0  0  0  0  0  0  0  0
    8.3450   -3.3440   25.0980 C   0  0  0  0  0  0  0  0  0  0  0  0
    6.1460    0.6070   19.9750 C   0  0  0  0  0  0  0  0  0  0  0  0
    7.2710   -0.1460   19.8310 C   0  0  0  0  0  0  0  0  0  0  0  0
    5.3890    1.0010   21.0690 C   0  0  0  0  0  0  0  0  0  0  0  0
    4.2460    1.7520   20.8250 C   0  0  0  0  0  0  0  0  0  0  0  0
    3.8860    2.1050   19.5250 C   0  0  0  0  0  0  0  0  0  0  0  0
    4.6610    1.7170   18.4380 C   0  0  0  0  0  0  0  0  0  0  0  0
    9.0430    0.2380   21.4940 C   0  0  0  0  0  0  0  0  0  0  0  0
    8.3252   -4.3381   27.3461 C   0  0  0  0  0  0  0  0  0  0  0  0
    7.8819   -5.7639   25.3670 C   0  0  0  0  0  0  0  0  0  0  0  0
    7.4311   -5.2808   28.1434 C   0  0  0  0  0  0  0  0  0  0  0  0
    7.0119   -6.6310   26.2702 C   0  0  0  0  0  0  0  0  0  0  0  0
   12.2887    5.4744   23.1530 C   0  0  0  0  0  0  0  0  0  0  0  0
    9.6852    1.2097   23.6944 C   0  0  0  0  0  0  0  0  0  0  0  0
    9.5820   -0.1080   22.7000 C   0  0  2  0  0  0  0  0  0  0  0  0
   12.6784    3.1636   22.5838 N   0  0  0  0  0  0  0  0  0  0  0  0
    7.5840   -0.2700   18.5160 N   0  0  0  0  0  0  0  0  0  0  0  0
    6.7100    0.3850   17.8100 N   0  0  0  0  0  0  0  0  0  0  0  0
   11.8720    4.0929   23.1245 N   0  0  0  0  0  0  0  0  0  0  0  0
    5.7970    0.9500   18.6730 N   0  0  0  0  0  0  0  0  0  0  0  0
    7.9748   -4.4087   25.9209 N   0  0  0  0  0  0  0  0  0  0  0  0
    8.0950   -0.7700   20.8440 N   0  0  0  0  0  0  0  0  0  0  0  0
    9.2950    1.3000   20.9480 O   0  0  0  0  0  0  0  0  0  0  0  0
    7.5000   -6.6034   27.6110 O   0  0  0  0  0  0  0  0  0  0  0  0
   10.2684   -2.6719   22.3867 H   0  0  0  0  0  0  0  0  0  0  0  0
    7.8717   -0.0016   24.7596 H   0  0  0  0  0  0  0  0  0  0  0  0
    9.5443   -4.5616   23.7817 H   0  0  0  0  0  0  0  0  0  0  0  0
    7.1922   -1.8821   26.1908 H   0  0  0  0  0  0  0  0  0  0  0  0
   12.4086    1.1088   22.3723 H   0  0  0  0  0  0  0  0  0  0  0  0
    9.9517    4.2237   24.0670 H   0  0  0  0  0  0  0  0  0  0  0  0
    5.6529    0.7487   22.0767 H   0  0  0  0  0  0  0  0  0  0  0  0
    3.6388    2.0586   21.6675 H   0  0  0  0  0  0  0  0  0  0  0  0
    2.9822    2.6968   19.3331 H   0  0  0  0  0  0  0  0  0  0  0  0
    4.4111    1.9893   17.4360 H   0  0  0  0  0  0  0  0  0  0  0  0
    8.2083   -3.3157   27.7244 H   0  0  0  0  0  0  0  0  0  0  0  0
    9.3746   -4.6338   27.4718 H   0  0  0  0  0  0  0  0  0  0  0  0
    8.8893   -6.1956   25.3037 H   0  0  0  0  0  0  0  0  0  0  0  0
    7.4544   -5.7434   24.3576 H   0  0  0  0  0  0  0  0  0  0  0  0
    7.7715   -5.3226   29.1831 H   0  0  0  0  0  0  0  0  0  0  0  0
    6.3897   -4.9373   28.1518 H   0  0  0  0  0  0  0  0  0  0  0  0
    5.9637   -6.3086   26.2493 H   0  0  0  0  0  0  0  0  0  0  0  0
    7.0429   -7.6698   25.9261 H   0  0  0  0  0  0  0  0  0  0  0  0
   12.8313    5.6438   24.0868 H   0  0  0  0  0  0  0  0  0  0  0  0
   12.9336    5.6781   22.2937 H   0  0  0  0  0  0  0  0  0  0  0  0
   11.4069    6.1190   23.0997 H   0  0  0  0  0  0  0  0  0  0  0  0
    9.7996    0.8986   24.7410 H   0  0  0  0  0  0  0  0  0  0  0  0
    8.7039    1.7016   23.6423 H   0  0  0  0  0  0  0  0  0  0  0  0
   10.7567   -0.2690   22.5478 H   0  0  0  0  0  0  0  0  0  0  0  0
    8.0917   -1.6083   21.0911 H   0  0  0  0  0  0  0  0  0  0  0  0
  1  3  2  0  0  0  0
  1  7  1  0  0  0  0
  2  4  1  0  0  0  0
  2  7  2  0  0  0  0
  3  9  1  0  0  0  0
  4  9  2  0  0  0  0
  5  8  1  0  0  0  0
  5 24  2  0  0  0  0
  6  8  2  0  0  0  0
  6 27  1  0  0  0  0
  7 23  1  0  0  0  0
  8 22  1  0  0  0  0
  9 29  1  0  0  0  0
 10 11  2  0  0  0  0
 10 12  1  0  0  0  0
 10 28  1  0  0  0  0
 11 25  1  0  0  0  0
 11 30  1  0  0  0  0
 12 13  2  0  0  0  0
 13 14  1  0  0  0  0
 14 15  2  0  0  0  0
 15 28  1  0  0  0  0
 16 23  1  0  0  0  0
 16 30  1  0  0  0  0
 16 31  2  0  0  0  0
 17 19  1  0  0  0  0
 17 29  1  0  0  0  0
 18 20  1  0  0  0  0
 18 29  1  0  0  0  0
 19 32  1  0  0  0  0
 20 32  1  0  0  0  0
 21 27  1  0  0  0  0
 22 23  1  6  0  0  0
 24 27  1  0  0  0  0
 25 26  2  0  0  0  0
 26 28  1  0  0  0  0
  1 33  1  0  0  0  0
  2 34  1  0  0  0  0
  3 35  1  0  0  0  0
  4 36  1  0  0  0  0
  5 37  1  0  0  0  0
  6 38  1  0  0  0  0
 12 39  1  0  0  0  0
 13 40  1  0  0  0  0
 14 41  1  0  0  0  0
 15 42  1  0  0  0  0
 17 43  1  0  0  0  0
 17 44  1  0  0  0  0
 18 45  1  0  0  0  0
 18 46  1  0  0  0  0
 19 47  1  0  0  0  0
 19 48  1  0  0  0  0
 20 49  1  0  0  0  0
 20 50  1  0  0  0  0
 21 51  1  0  0  0  0
 21 52  1  0  0  0  0
 21 53  1  0  0  0  0
 22 54  1  0  0  0  0
 22 55  1  0  0  0  0
 23 56  1  0  0  0  0
 30 57  1  0  0  0  0
M  END
> <clash_score>
0

> <docking_score>
-7.497601509094238

> <overlap_score>
0.8332194685935974

$$$$
BENZO_278_2
  -OEChem-08232013543D

 57 61  0     1  0  0  0  0  0999 V2000
   13.7993   -1.2937   25.1853 C   0  0  0  0  0  0  0  0  0  0  0  0
   13.1448   -1.1102   23.9673 C   0  0  0  0  0  0  0  0  0  0  0  0
    9.5890   -2.4950   23.2210 C   0  0  0  0  0  0  0  0  0  0  0  0
    8.2550   -1.0010   24.5520 C   0  0  0  0  0  0  0  0  0  0  0  0
    9.1890   -3.5540   24.0140 C   0  0  0  0  0  0  0  0  0  0  0  0
    7.8700   -2.0610   25.3550 C   0  0  0  0  0  0  0  0  0  0  0  0
   13.2472   -0.7790   26.3583 C   0  0  0  0  0  0  0  0  0  0  0  0
   11.3860    0.1028   25.0952 C   0  0  0  0  0  0  0  0  0  0  0  0
    9.1280   -1.2090   23.4870 C   0  0  0  0  0  0  0  0  0  0  0  0
   11.9382   -0.4119   23.9222 C   0  0  0  0  0  0  0  0  0  0  0  0
    8.3450   -3.3440   25.0980 C   0  0  0  0  0  0  0  0  0  0  0  0
   12.0405   -0.0807   26.3132 C   0  0  0  0  0  0  0  0  0  0  0  0
    6.1460    0.6070   19.9750 C   0  0  0  0  0  0  0  0  0  0  0  0
    7.2710   -0.1460   19.8310 C   0  0  0  0  0  0  0  0  0  0  0  0
    5.3890    1.0010   21.0690 C   0  0  0  0  0  0  0  0  0  0  0  0
    4.2460    1.7520   20.8250 C   0  0  0  0  0  0  0  0  0  0  0  0
    3.8860    2.1050   19.5250 C   0  0  0  0  0  0  0  0  0  0  0  0
    4.6610    1.7170   18.4380 C   0  0  0  0  0  0  0  0  0  0  0  0
    9.0430    0.2380   21.4940 C   0  0  0  0  0  0  0  0  0  0  0  0
    8.9526   -5.2008   26.6600 C   0  0  0  0  0  0  0  0  0  0  0  0
    6.6115   -4.5057   26.4392 C   0  0  0  0  0  0  0  0  0  0  0  0
    8.9053   -4.7827   28.1257 C   0  0  0  0  0  0  0  0  0  0  0  0
    6.6391   -4.1219   27.9194 C   0  0  0  0  0  0  0  0  0  0  0  0
   11.2301   -0.2124   22.6019 C   0  0  0  0  0  0  0  0  0  0  0  0
    9.5820   -0.1080   22.7000 C   0  0  2  0  0  0  0  0  0  0  0  0
    7.5840   -0.2700   18.5160 N   0  0  0  0  0  0  0  0  0  0  0  0
    6.7100    0.3850   17.8100 N   0  0  0  0  0  0  0  0  0  0  0  0
    5.7970    0.9500   18.6730 N   0  0  0  0  0  0  0  0  0  0  0  0
    7.9774   -4.4013   25.9152 N   0  0  0  0  0  0  0  0  0  0  0  0
    8.0950   -0.7700   20.8440 N   0  0  0  0  0  0  0  0  0  0  0  0
    9.2950    1.3000   20.9480 O   0  0  0  0  0  0  0  0  0  0  0  0
    7.5748   -4.9364   28.6347 O   0  0  0  0  0  0  0  0  0  0  0  0
   11.3604    0.5551   27.7606 Cl  0  0  0  0  0  0  0  0  0  0  0  0
   14.7390   -1.8374   25.2199 H   0  0  0  0  0  0  0  0  0  0  0  0
   13.5824   -1.5147   23.0583 H   0  0  0  0  0  0  0  0  0  0  0  0
   10.2684   -2.6719   22.3867 H   0  0  0  0  0  0  0  0  0  0  0  0
    7.8717   -0.0016   24.7596 H   0  0  0  0  0  0  0  0  0  0  0  0
    9.5443   -4.5616   23.7817 H   0  0  0  0  0  0  0  0  0  0  0  0
    7.1921   -1.8821   26.1908 H   0  0  0  0  0  0  0  0  0  0  0  0
   13.7685   -0.9294   27.3004 H   0  0  0  0  0  0  0  0  0  0  0  0
   10.4447    0.6461   25.0548 H   0  0  0  0  0  0  0  0  0  0  0  0
    5.6529    0.7487   22.0767 H   0  0  0  0  0  0  0  0  0  0  0  0
    3.6388    2.0586   21.6675 H   0  0  0  0  0  0  0  0  0  0  0  0
    2.9822    2.6968   19.3330 H   0  0  0  0  0  0  0  0  0  0  0  0
    4.4111    1.9893   17.4360 H   0  0  0  0  0  0  0  0  0  0  0  0
    9.9614   -5.0503   26.2701 H   0  0  0  0  0  0  0  0  0  0  0  0
    8.6932   -6.2593   26.5731 H   0  0  0  0  0  0  0  0  0  0  0  0
    6.2625   -5.5339   26.3355 H   0  0  0  0  0  0  0  0  0  0  0  0
    5.9348   -3.8414   25.9036 H   0  0  0  0  0  0  0  0  0  0  0  0
    9.5615   -5.4255   28.7162 H   0  0  0  0  0  0  0  0  0  0  0  0
    9.2365   -3.7494   28.2620 H   0  0  0  0  0  0  0  0  0  0  0  0
    6.8895   -3.0633   28.0551 H   0  0  0  0  0  0  0  0  0  0  0  0
    5.6514   -4.2861   28.3610 H   0  0  0  0  0  0  0  0  0  0  0  0
   11.5792    0.7206   22.1405 H   0  0  0  0  0  0  0  0  0  0  0  0
   11.5533   -1.0125   21.9215 H   0  0  0  0  0  0  0  0  0  0  0  0
    9.5402    0.8508   23.4127 H   0  0  0  0  0  0  0  0  0  0  0  0
    8.0917   -1.6083   21.0911 H   0  0  0  0  0  0  0  0  0  0  0  0
  1  2  2  0  0  0  0
  1  7  1  0  0  0  0
  2 10  1  0  0  0  0
  3  5  2  0  0  0  0
  3  9  1  0  0  0  0
  4  6  1  0  0  0  0
  4  9  2  0  0  0  0
  5 11  1  0  0  0  0
  6 11  2  0  0  0  0
  7 12  2  0  0  0  0
  8 10  2  0  0  0  0
  8 12  1  0  0  0  0
  9 25  1  0  0  0  0
 10 24  1  0  0  0  0
 11 29  1  0  0  0  0
 12 33  1  0  0  0  0
 13 14  2  0  0  0  0
 13 15  1  0  0  0  0
 13 28  1  0  0  0  0
 14 26  1  0  0  0  0
 14 30  1  0  0  0  0
 15 16  2  0  0  0  0
 16 17  1  0  0  0  0
 17 18  2  0  0  0  0
 18 28  1  0  0  0  0
 19 25  1  6  0  0  0
 19 30  1  0  0  0  0
 19 31  2  0  0  0  0
 20 22  1  0  0  0  0
 20 29  1  0  0  0  0
 21 23  1  0  0  0  0
 21 29  1  0  0  0  0
 22 32  1  0  0  0  0
 23 32  1  0  0  0  0
 24 25  1  0  0  0  0
 26 27  2  0  0  0  0
 27 28  1  0  0  0  0
  1 34  1  0  0  0  0
  2 35  1  0  0  0  0
  3 36  1  0  0  0  0
  4 37  1  0  0  0  0
  5 38  1  0  0  0  0
  6 39  1  0  0  0  0
  7 40  1  0  0  0  0
  8 41  1  0  0  0  0
 15 42  1  0  0  0  0
 16 43  1  0  0  0  0
 17 44  1  0  0  0  0
 18 45  1  0  0  0  0
 20 46  1  0  0  0  0
 20 47  1  0  0  0  0
 21 48  1  0  0  0  0
 21 49  1  0  0  0  0
 22 50  1  0  0  0  0
 22 51  1  0  0  0  0
 23 52  1  0  0  0  0
 23 53  1  0  0  0  0
 24 54  1  0  0  0  0
 24 55  1  0  0  0  0
 25 56  1  0  0  0  0
 30 57  1  0  0  0  0
M  END
> <clash_score>
0.702622923338925

> <docking_score>
-5.857914924621582

> <overlap_score>
0.9236098527908325

$$$$
BENZO_278_1
  -OEChem-08232013543D

 57 61  0     1  0  0  0  0  0999 V2000
   12.6445    0.0926   25.8011 C   0  0  0  0  0  0  0  0  0  0  0  0
   11.6380    0.1048   24.8355 C   0  0  0  0  0  0  0  0  0  0  0  0
    9.5890   -2.4950   23.2210 C   0  0  0  0  0  0  0  0  0  0  0  0
    8.2550   -1.0010   24.5520 C   0  0  0  0  0  0  0  0  0  0  0  0
    9.1890   -3.5540   24.0140 C   0  0  0  0  0  0  0  0  0  0  0  0
    7.8700   -2.0610   25.3550 C   0  0  0  0  0  0  0  0  0  0  0  0
   12.7880    1.1720   26.6728 C   0  0  0  0  0  0  0  0  0  0  0  0
   10.9183    2.2761   25.6134 C   0  0  0  0  0  0  0  0  0  0  0  0
    9.1280   -1.2090   23.4870 C   0  0  0  0  0  0  0  0  0  0  0  0
   10.7749    1.1966   24.7417 C   0  0  0  0  0  0  0  0  0  0  0  0
    8.3450   -3.3440   25.0980 C   0  0  0  0  0  0  0  0  0  0  0  0
   11.9249    2.2638   26.5790 C   0  0  0  0  0  0  0  0  0  0  0  0
    6.1460    0.6070   19.9750 C   0  0  0  0  0  0  0  0  0  0  0  0
    7.2710   -0.1460   19.8310 C   0  0  0  0  0  0  0  0  0  0  0  0
    5.3890    1.0010   21.0690 C   0  0  0  0  0  0  0  0  0  0  0  0
    4.2460    1.7520   20.8250 C   0  0  0  0  0  0  0  0  0  0  0  0
    3.8860    2.1050   19.5250 C   0  0  0  0  0  0  0  0  0  0  0  0
    4.6610    1.7170   18.4380 C   0  0  0  0  0  0  0  0  0  0  0  0
    9.0430    0.2380   21.4940 C   0  0  0  0  0  0  0  0  0  0  0  0
    8.9526   -5.2008   26.6600 C   0  0  0  0  0  0  0  0  0  0  0  0
    6.6115   -4.5057   26.4392 C   0  0  0  0  0  0  0  0  0  0  0  0
    8.9053   -4.7827   28.1257 C   0  0  0  0  0  0  0  0  0  0  0  0
    6.6391   -4.1219   27.9194 C   0  0  0  0  0  0  0  0  0  0  0  0
    9.6852    1.2097   23.6944 C   0  0  0  0  0  0  0  0  0  0  0  0
    9.5820   -0.1080   22.7000 C   0  0  1  0  0  0  0  0  0  0  0  0
    7.5840   -0.2700   18.5160 N   0  0  0  0  0  0  0  0  0  0  0  0
    6.7100    0.3850   17.8100 N   0  0  0  0  0  0  0  0  0  0  0  0
    5.7970    0.9500   18.6730 N   0  0  0  0  0  0  0  0  0  0  0  0
    7.9774   -4.4013   25.9152 N   0  0  0  0  0  0  0  0  0  0  0  0
    8.0950   -0.7700   20.8440 N   0  0  0  0  0  0  0  0  0  0  0  0
    9.2950    1.3000   20.9480 O   0  0  0  0  0  0  0  0  0  0  0  0
    7.5748   -4.9364   28.6347 O   0  0  0  0  0  0  0  0  0  0  0  0
   12.1030    3.5958   27.6540 Cl  0  0  0  0  0  0  0  0  0  0  0  0
   13.3165   -0.7577   25.8737 H   0  0  0  0  0  0  0  0  0  0  0  0
   11.5336   -0.7405   24.1604 H   0  0  0  0  0  0  0  0  0  0  0  0
   10.2684   -2.6719   22.3867 H   0  0  0  0  0  0  0  0  0  0  0  0
    7.8717   -0.0016   24.7596 H   0  0  0  0  0  0  0  0  0  0  0  0
    9.5443   -4.5616   23.7817 H   0  0  0  0  0  0  0  0  0  0  0  0
    7.1921   -1.8821   26.1908 H   0  0  0  0  0  0  0  0  0  0  0  0
   13.5772    1.1489   27.4203 H   0  0  0  0  0  0  0  0  0  0  0  0
   10.2425    3.1247   25.5365 H   0  0  0  0  0  0  0  0  0  0  0  0
    5.6529    0.7487   22.0767 H   0  0  0  0  0  0  0  0  0  0  0  0
    3.6388    2.0586   21.6675 H   0  0  0  0  0  0  0  0  0  0  0  0
    2.9822    2.6968   19.3331 H   0  0  0  0  0  0  0  0  0  0  0  0
    4.4111    1.9893   17.4360 H   0  0  0  0  0  0  0  0  0  0  0  0
    9.9614   -5.0503   26.2701 H   0  0  0  0  0  0  0  0  0  0  0  0
    8.6932   -6.2593   26.5731 H   0  0  0  0  0  0  0  0  0  0  0  0
    6.2625   -5.5339   26.3355 H   0  0  0  0  0  0  0  0  0  0  0  0
    5.9348   -3.8414   25.9036 H   0  0  0  0  0  0  0  0  0  0  0  0
    9.5615   -5.4255   28.7162 H   0  0  0  0  0  0  0  0  0  0  0  0
    9.2365   -3.7494   28.2620 H   0  0  0  0  0  0  0  0  0  0  0  0
    6.8895   -3.0633   28.0551 H   0  0  0  0  0  0  0  0  0  0  0  0
    5.6514   -4.2861   28.3610 H   0  0  0  0  0  0  0  0  0  0  0  0
    8.7197    1.4079   24.1780 H   0  0  0  0  0  0  0  0  0  0  0  0
    9.8623    2.0699   23.0340 H   0  0  0  0  0  0  0  0  0  0  0  0
   10.7567   -0.2690   22.5478 H   0  0  0  0  0  0  0  0  0  0  0  0
    8.0917   -1.6083   21.0911 H   0  0  0  0  0  0  0  0  0  0  0  0
  1  2  2  0  0  0  0
  1  7  1  0  0  0  0
  2 10  1  0  0  0  0
  3  5  2  0  0  0  0
  3  9  1  0  0  0  0
  4  6  1  0  0  0  0
  4  9  2  0  0  0  0
  5 11  1  0  0  0  0
  6 11  2  0  0  0  0
  7 12  2  0  0  0  0
  8 10  2  0  0  0  0
  8 12  1  0  0  0  0
  9 25  1  0  0  0  0
 10 24  1  0  0  0  0
 11 29  1  0  0  0  0
 12 33  1  0  0  0  0
 13 14  2  0  0  0  0
 13 15  1  0  0  0  0
 13 28  1  0  0  0  0
 14 26  1  0  0  0  0
 14 30  1  0  0  0  0
 15 16  2  0  0  0  0
 16 17  1  0  0  0  0
 17 18  2  0  0  0  0
 18 28  1  0  0  0  0
 19 25  1  1  0  0  0
 19 30  1  0  0  0  0
 19 31  2  0  0  0  0
 20 22  1  0  0  0  0
 20 29  1  0  0  0  0
 21 23  1  0  0  0  0
 21 29  1  0  0  0  0
 22 32  1  0  0  0  0
 23 32  1  0  0  0  0
 24 25  1  0  0  0  0
 26 27  2  0  0  0  0
 27 28  1  0  0  0  0
  1 34  1  0  0  0  0
  2 35  1  0  0  0  0
  3 36  1  0  0  0  0
  4 37  1  0  0  0  0
  5 38  1  0  0  0  0
  6 39  1  0  0  0  0
  7 40  1  0  0  0  0
  8 41  1  0  0  0  0
 15 42  1  0  0  0  0
 16 43  1  0  0  0  0
 17 44  1  0  0  0  0
 18 45  1  0  0  0  0
 20 46  1  0  0  0  0
 20 47  1  0  0  0  0
 21 48  1  0  0  0  0
 21 49  1  0  0  0  0
 22 50  1  0  0  0  0
 22 51  1  0  0  0  0
 23 52  1  0  0  0  0
 23 53  1  0  0  0  0
 24 54  1  0  0  0  0
 24 55  1  0  0  0  0
 25 56  1  0  0  0  0
 30 57  1  0  0  0  0
M  END
> <clash_score>
5.493964177703434

> <docking_score>
-4.280311584472656

> <overlap_score>
0.8461745977401733

$$$$
BENZO_282_1
  -OEChem-08232013543D

 54 57  0     1  0  0  0  0  0999 V2000
    4.2460    1.7520   20.8250 C   0  0  0  0  0  0  0  0  0  0  0  0
    3.8860    2.1050   19.5250 C   0  0  0  0  0  0  0  0  0  0  0  0
   13.7696   -1.3331   25.2040 C   0  0  0  0  0  0  0  0  0  0  0  0
    5.3890    1.0010   21.0690 C   0  0  0  0  0  0  0  0  0  0  0  0
   13.1260   -1.1377   23.9821 C   0  0  0  0  0  0  0  0  0  0  0  0
    9.5890   -2.4950   23.2210 C   0  0  0  0  0  0  0  0  0  0  0  0
    8.2550   -1.0010   24.5520 C   0  0  0  0  0  0  0  0  0  0  0  0
    4.6610    1.7170   18.4380 C   0  0  0  0  0  0  0  0  0  0  0  0
    9.1890   -3.5540   24.0140 C   0  0  0  0  0  0  0  0  0  0  0  0
    7.8700   -2.0610   25.3550 C   0  0  0  0  0  0  0  0  0  0  0  0
   13.2109   -0.8232   26.3761 C   0  0  0  0  0  0  0  0  0  0  0  0
   11.3649    0.0776   25.1042 C   0  0  0  0  0  0  0  0  0  0  0  0
    7.5840   -0.2700   18.5160 C   0  0  0  0  0  0  0  0  0  0  0  0
    6.1460    0.6070   19.9750 C   0  0  0  0  0  0  0  0  0  0  0  0
    9.1280   -1.2090   23.4870 C   0  0  0  0  0  0  0  0  0  0  0  0
   11.9236   -0.4323   23.9322 C   0  0  0  0  0  0  0  0  0  0  0  0
    5.7970    0.9500   18.6730 C   0  0  0  0  0  0  0  0  0  0  0  0
    8.3450   -3.3440   25.0980 C   0  0  0  0  0  0  0  0  0  0  0  0
    7.2710   -0.1460   19.8310 C   0  0  0  0  0  0  0  0  0  0  0  0
   12.0086   -0.1179   26.3261 C   0  0  0  0  0  0  0  0  0  0  0  0
    9.0430    0.2380   21.4940 C   0  0  0  0  0  0  0  0  0  0  0  0
    7.2615   -5.5563   25.3804 C   0  0  0  0  0  0  0  0  0  0  0  0
    8.3045   -4.4045   27.3385 C   0  0  0  0  0  0  0  0  0  0  0  0
   11.2273   -0.2199   22.6076 C   0  0  0  0  0  0  0  0  0  0  0  0
    9.5820   -0.1080   22.7000 C   0  0  1  0  0  0  0  0  0  0  0  0
    6.7100    0.3850   17.8100 N   0  0  0  0  0  0  0  0  0  0  0  0
    8.0950   -0.7700   20.8440 N   0  0  0  0  0  0  0  0  0  0  0  0
    7.9717   -4.4175   25.9277 N   0  0  0  0  0  0  0  0  0  0  0  0
    9.2950    1.3000   20.9480 O   0  0  0  0  0  0  0  0  0  0  0  0
   11.3203    0.5119   27.7723 Cl  0  0  0  0  0  0  0  0  0  0  0  0
    3.6208    2.0704   21.6579 H   0  0  0  0  0  0  0  0  0  0  0  0
    2.9857    2.6926   19.3615 H   0  0  0  0  0  0  0  0  0  0  0  0
   14.7060   -1.8822   25.2425 H   0  0  0  0  0  0  0  0  0  0  0  0
    5.6664    0.7407   22.0807 H   0  0  0  0  0  0  0  0  0  0  0  0
   13.5686   -1.5384   23.0739 H   0  0  0  0  0  0  0  0  0  0  0  0
   10.2684   -2.6719   22.3867 H   0  0  0  0  0  0  0  0  0  0  0  0
    7.8717   -0.0016   24.7596 H   0  0  0  0  0  0  0  0  0  0  0  0
    4.3794    2.0106   17.4221 H   0  0  0  0  0  0  0  0  0  0  0  0
    9.5443   -4.5616   23.7817 H   0  0  0  0  0  0  0  0  0  0  0  0
    7.1921   -1.8821   26.1908 H   0  0  0  0  0  0  0  0  0  0  0  0
   13.7238   -0.9829   27.3213 H   0  0  0  0  0  0  0  0  0  0  0  0
   10.4270    0.6263   25.0600 H   0  0  0  0  0  0  0  0  0  0  0  0
    8.4172   -0.8135   18.0384 H   0  0  0  0  0  0  0  0  0  0  0  0
    7.0607   -6.2833   26.1812 H   0  0  0  0  0  0  0  0  0  0  0  0
    6.3096   -5.2194   24.9441 H   0  0  0  0  0  0  0  0  0  0  0  0
    7.8750   -6.0305   24.6002 H   0  0  0  0  0  0  0  0  0  0  0  0
    7.9298   -5.3236   27.8126 H   0  0  0  0  0  0  0  0  0  0  0  0
    9.3968   -4.3501   27.4569 H   0  0  0  0  0  0  0  0  0  0  0  0
    7.8398   -3.5297   27.8166 H   0  0  0  0  0  0  0  0  0  0  0  0
   11.5842    0.7150   22.1561 H   0  0  0  0  0  0  0  0  0  0  0  0
   11.5525   -1.0164   21.9239 H   0  0  0  0  0  0  0  0  0  0  0  0
    9.5374    0.8439   23.4178 H   0  0  0  0  0  0  0  0  0  0  0  0
    6.6715    0.4865   16.8044 H   0  0  0  0  0  0  0  0  0  0  0  0
    8.0730   -1.6176   21.0751 H   0  0  0  0  0  0  0  0  0  0  0  0
  1  2  1  0  0  0  0
  1  4  2  0  0  0  0
  2  8  2  0  0  0  0
  3  5  2  0  0  0  0
  3 11  1  0  0  0  0
  4 14  1  0  0  0  0
  5 16  1  0  0  0  0
  6  9  2  0  0  0  0
  6 15  1  0  0  0  0
  7 10  1  0  0  0  0
  7 15  2  0  0  0  0
  8 17  1  0  0  0  0
  9 18  1  0  0  0  0
 10 18  2  0  0  0  0
 11 20  2  0  0  0  0
 12 16  2  0  0  0  0
 12 20  1  0  0  0  0
 13 19  2  0  0  0  0
 13 26  1  0  0  0  0
 14 17  2  0  0  0  0
 14 19  1  0  0  0  0
 15 25  1  0  0  0  0
 16 24  1  0  0  0  0
 17 26  1  0  0  0  0
 18 28  1  0  0  0  0
 19 27  1  0  0  0  0
 20 30  1  0  0  0  0
 21 25  1  0  0  0  0
 21 27  1  0  0  0  0
 21 29  2  0  0  0  0
 22 28  1  0  0  0  0
 23 28  1  0  0  0  0
 24 25  1  1  0  0  0
  1 31  1  0  0  0  0
  2 32  1  0  0  0  0
  3 33  1  0  0  0  0
  4 34  1  0  0  0  0
  5 35  1  0  0  0  0
  6 36  1  0  0  0  0
  7 37  1  0  0  0  0
  8 38  1  0  0  0  0
  9 39  1  0  0  0  0
 10 40  1  0  0  0  0
 11 41  1  0  0  0  0
 12 42  1  0  0  0  0
 13 43  1  0  0  0  0
 22 44  1  0  0  0  0
 22 45  1  0  0  0  0
 22 46  1  0  0  0  0
 23 47  1  0  0  0  0
 23 48  1  0  0  0  0
 23 49  1  0  0  0  0
 24 50  1  0  0  0  0
 24 51  1  0  0  0  0
 25 52  1  0  0  0  0
 26 53  1  0  0  0  0
 27 54  1  0  0  0  0
M  END
> <clash_score>
0.7019246194212356

> <docking_score>
-4.699981689453125

> <overlap_score>
0.8747240900993347

$$$$
BENZO_283_1
  -OEChem-08232013543D

 54 57  0     1  0  0  0  0  0999 V2000
    4.2460    1.7520   20.8250 C   0  0  0  0  0  0  0  0  0  0  0  0
    3.8860    2.1050   19.5250 C   0  0  0  0  0  0  0  0  0  0  0  0
    5.3890    1.0010   21.0690 C   0  0  0  0  0  0  0  0  0  0  0  0
    9.5890   -2.4950   23.2210 C   0  0  0  0  0  0  0  0  0  0  0  0
    8.2550   -1.0010   24.5520 C   0  0  0  0  0  0  0  0  0  0  0  0
    4.6610    1.7170   18.4380 C   0  0  0  0  0  0  0  0  0  0  0  0
    9.1890   -3.5540   24.0140 C   0  0  0  0  0  0  0  0  0  0  0  0
    7.8700   -2.0610   25.3550 C   0  0  0  0  0  0  0  0  0  0  0  0
   13.1332   -1.1110   24.1732 C   0  0  0  0  0  0  0  0  0  0  0  0
   11.5178   -0.0030   25.1721 C   0  0  0  0  0  0  0  0  0  0  0  0
    7.5840   -0.2700   18.5160 C   0  0  0  0  0  0  0  0  0  0  0  0
    6.1460    0.6070   19.9750 C   0  0  0  0  0  0  0  0  0  0  0  0
    9.1280   -1.2090   23.4870 C   0  0  0  0  0  0  0  0  0  0  0  0
   11.9236   -0.4323   23.9322 C   0  0  0  0  0  0  0  0  0  0  0  0
    5.7970    0.9500   18.6730 C   0  0  0  0  0  0  0  0  0  0  0  0
    8.3450   -3.3440   25.0980 C   0  0  0  0  0  0  0  0  0  0  0  0
    7.2710   -0.1460   19.8310 C   0  0  0  0  0  0  0  0  0  0  0  0
    9.0430    0.2380   21.4940 C   0  0  0  0  0  0  0  0  0  0  0  0
   12.4834   -0.2219   27.4740 C   0  0  0  0  0  0  0  0  0  0  0  0
    7.2615   -5.5563   25.3804 C   0  0  0  0  0  0  0  0  0  0  0  0
    8.3045   -4.4045   27.3385 C   0  0  0  0  0  0  0  0  0  0  0  0
   11.2273   -0.2199   22.6076 C   0  0  0  0  0  0  0  0  0  0  0  0
    9.5820   -0.1080   22.7000 C   0  0  1  0  0  0  0  0  0  0  0  0
   13.4738   -1.1150   25.4647 N   0  0  0  0  0  0  0  0  0  0  0  0
    6.7100    0.3850   17.8100 N   0  0  0  0  0  0  0  0  0  0  0  0
   12.4721   -0.4335   26.0464 N   0  0  0  0  0  0  0  0  0  0  0  0
    8.0950   -0.7700   20.8440 N   0  0  0  0  0  0  0  0  0  0  0  0
    7.9717   -4.4175   25.9277 N   0  0  0  0  0  0  0  0  0  0  0  0
    9.2950    1.3000   20.9480 O   0  0  0  0  0  0  0  0  0  0  0  0
    3.6208    2.0704   21.6579 H   0  0  0  0  0  0  0  0  0  0  0  0
    2.9857    2.6926   19.3615 H   0  0  0  0  0  0  0  0  0  0  0  0
    5.6664    0.7407   22.0807 H   0  0  0  0  0  0  0  0  0  0  0  0
   10.2684   -2.6719   22.3867 H   0  0  0  0  0  0  0  0  0  0  0  0
    7.8717   -0.0016   24.7596 H   0  0  0  0  0  0  0  0  0  0  0  0
    4.3794    2.0106   17.4221 H   0  0  0  0  0  0  0  0  0  0  0  0
    9.5443   -4.5616   23.7817 H   0  0  0  0  0  0  0  0  0  0  0  0
    7.1921   -1.8821   26.1908 H   0  0  0  0  0  0  0  0  0  0  0  0
   13.7829   -1.6028   23.4631 H   0  0  0  0  0  0  0  0  0  0  0  0
   10.6535    0.5594   25.4986 H   0  0  0  0  0  0  0  0  0  0  0  0
    8.4172   -0.8135   18.0384 H   0  0  0  0  0  0  0  0  0  0  0  0
   11.9614   -1.0599   27.9433 H   0  0  0  0  0  0  0  0  0  0  0  0
   13.5174   -0.1700   27.8262 H   0  0  0  0  0  0  0  0  0  0  0  0
   11.9792    0.7209   27.7036 H   0  0  0  0  0  0  0  0  0  0  0  0
    7.0607   -6.2833   26.1812 H   0  0  0  0  0  0  0  0  0  0  0  0
    6.3096   -5.2194   24.9441 H   0  0  0  0  0  0  0  0  0  0  0  0
    7.8750   -6.0305   24.6002 H   0  0  0  0  0  0  0  0  0  0  0  0
    7.9298   -5.3236   27.8126 H   0  0  0  0  0  0  0  0  0  0  0  0
    9.3968   -4.3501   27.4569 H   0  0  0  0  0  0  0  0  0  0  0  0
    7.8398   -3.5297   27.8166 H   0  0  0  0  0  0  0  0  0  0  0  0
   11.5842    0.7150   22.1561 H   0  0  0  0  0  0  0  0  0  0  0  0
   11.5525   -1.0164   21.9239 H   0  0  0  0  0  0  0  0  0  0  0  0
    9.5374    0.8439   23.4178 H   0  0  0  0  0  0  0  0  0  0  0  0
    6.6715    0.4865   16.8044 H   0  0  0  0  0  0  0  0  0  0  0  0
    8.0730   -1.6176   21.0751 H   0  0  0  0  0  0  0  0  0  0  0  0
  1  2  1  0  0  0  0
  1  3  2  0  0  0  0
  2  6  2  0  0  0  0
  3 12  1  0  0  0  0
  4  7  2  0  0  0  0
  4 13  1  0  0  0  0
  5  8  1  0  0  0  0
  5 13  2  0  0  0  0
  6 15  1  0  0  0  0
  7 16  1  0  0  0  0
  8 16  2  0  0  0  0
  9 14  1  0  0  0  0
  9 24  2  0  0  0  0
 10 14  2  0  0  0  0
 10 26  1  0  0  0  0
 11 17  2  0  0  0  0
 11 25  1  0  0  0  0
 12 15  2  0  0  0  0
 12 17  1  0  0  0  0
 13 23  1  0  0  0  0
 14 22  1  0  0  0  0
 15 25  1  0  0  0  0
 16 28  1  0  0  0  0
 17 27  1  0  0  0  0
 18 23  1  0  0  0  0
 18 27  1  0  0  0  0
 18 29  2  0  0  0  0
 19 26  1  0  0  0  0
 20 28  1  0  0  0  0
 21 28  1  0  0  0  0
 22 23  1  1  0  0  0
 24 26  1  0  0  0  0
  1 30  1  0  0  0  0
  2 31  1  0  0  0  0
  3 32  1  0  0  0  0
  4 33  1  0  0  0  0
  5 34  1  0  0  0  0
  6 35  1  0  0  0  0
  7 36  1  0  0  0  0
  8 37  1  0  0  0  0
  9 38  1  0  0  0  0
 10 39  1  0  0  0  0
 11 40  1  0  0  0  0
 19 41  1  0  0  0  0
 19 42  1  0  0  0  0
 19 43  1  0  0  0  0
 20 44  1  0  0  0  0
 20 45  1  0  0  0  0
 20 46  1  0  0  0  0
 21 47  1  0  0  0  0
 21 48  1  0  0  0  0
 21 49  1  0  0  0  0
 22 50  1  0  0  0  0
 22 51  1  0  0  0  0
 23 52  1  0  0  0  0
 25 53  1  0  0  0  0
 27 54  1  0  0  0  0
M  END
> <clash_score>
0

> <docking_score>
-4.9978928565979

> <overlap_score>
0.8710911870002747

$$$$
BENZO_283_2
  -OEChem-08232013543D

 54 57  0     1  0  0  0  0  0999 V2000
    4.2460    1.7520   20.8250 C   0  0  0  0  0  0  0  0  0  0  0  0
    3.8860    2.1050   19.5250 C   0  0  0  0  0  0  0  0  0  0  0  0
    5.3890    1.0010   21.0690 C   0  0  0  0  0  0  0  0  0  0  0  0
    9.5890   -2.4950   23.2210 C   0  0  0  0  0  0  0  0  0  0  0  0
    8.2550   -1.0010   24.5520 C   0  0  0  0  0  0  0  0  0  0  0  0
    4.6610    1.7170   18.4380 C   0  0  0  0  0  0  0  0  0  0  0  0
    9.1890   -3.5540   24.0140 C   0  0  0  0  0  0  0  0  0  0  0  0
    7.8700   -2.0610   25.3550 C   0  0  0  0  0  0  0  0  0  0  0  0
   11.7155    0.1520   24.9872 C   0  0  0  0  0  0  0  0  0  0  0  0
   11.0544    2.1258   25.6959 C   0  0  0  0  0  0  0  0  0  0  0  0
    7.5840   -0.2700   18.5160 C   0  0  0  0  0  0  0  0  0  0  0  0
    6.1460    0.6070   19.9750 C   0  0  0  0  0  0  0  0  0  0  0  0
    9.1280   -1.2090   23.4870 C   0  0  0  0  0  0  0  0  0  0  0  0
   10.7691    1.1678   24.7539 C   0  0  0  0  0  0  0  0  0  0  0  0
    5.7970    0.9500   18.6730 C   0  0  0  0  0  0  0  0  0  0  0  0
    8.3450   -3.3440   25.0980 C   0  0  0  0  0  0  0  0  0  0  0  0
    7.2710   -0.1460   19.8310 C   0  0  0  0  0  0  0  0  0  0  0  0
    9.0430    0.2380   21.4940 C   0  0  0  0  0  0  0  0  0  0  0  0
   12.7726    2.3013   27.5113 C   0  0  0  0  0  0  0  0  0  0  0  0
    7.2615   -5.5563   25.3804 C   0  0  0  0  0  0  0  0  0  0  0  0
    8.3045   -4.4045   27.3385 C   0  0  0  0  0  0  0  0  0  0  0  0
    9.6841    1.2008   23.7022 C   0  0  0  0  0  0  0  0  0  0  0  0
    9.5820   -0.1080   22.7000 C   0  0  2  0  0  0  0  0  0  0  0  0
   12.5403    0.4381   25.9980 N   0  0  0  0  0  0  0  0  0  0  0  0
    6.7100    0.3850   17.8100 N   0  0  0  0  0  0  0  0  0  0  0  0
   12.1132    1.6445   26.4082 N   0  0  0  0  0  0  0  0  0  0  0  0
    8.0950   -0.7700   20.8440 N   0  0  0  0  0  0  0  0  0  0  0  0
    7.9717   -4.4175   25.9277 N   0  0  0  0  0  0  0  0  0  0  0  0
    9.2950    1.3000   20.9480 O   0  0  0  0  0  0  0  0  0  0  0  0
    3.6208    2.0704   21.6579 H   0  0  0  0  0  0  0  0  0  0  0  0
    2.9857    2.6926   19.3615 H   0  0  0  0  0  0  0  0  0  0  0  0
    5.6664    0.7407   22.0807 H   0  0  0  0  0  0  0  0  0  0  0  0
   10.2684   -2.6719   22.3867 H   0  0  0  0  0  0  0  0  0  0  0  0
    7.8717   -0.0016   24.7596 H   0  0  0  0  0  0  0  0  0  0  0  0
    4.3794    2.0106   17.4221 H   0  0  0  0  0  0  0  0  0  0  0  0
    9.5443   -4.5616   23.7817 H   0  0  0  0  0  0  0  0  0  0  0  0
    7.1921   -1.8821   26.1908 H   0  0  0  0  0  0  0  0  0  0  0  0
   11.8409   -0.7851   24.4635 H   0  0  0  0  0  0  0  0  0  0  0  0
   10.6061    3.0857   25.9138 H   0  0  0  0  0  0  0  0  0  0  0  0
    8.4172   -0.8135   18.0384 H   0  0  0  0  0  0  0  0  0  0  0  0
   12.2713    1.9965   28.4337 H   0  0  0  0  0  0  0  0  0  0  0  0
   13.8256    2.0072   27.5334 H   0  0  0  0  0  0  0  0  0  0  0  0
   12.7061    3.3847   27.3788 H   0  0  0  0  0  0  0  0  0  0  0  0
    7.0607   -6.2833   26.1812 H   0  0  0  0  0  0  0  0  0  0  0  0
    6.3096   -5.2194   24.9441 H   0  0  0  0  0  0  0  0  0  0  0  0
    7.8750   -6.0305   24.6002 H   0  0  0  0  0  0  0  0  0  0  0  0
    7.9298   -5.3236   27.8126 H   0  0  0  0  0  0  0  0  0  0  0  0
    9.3968   -4.3501   27.4569 H   0  0  0  0  0  0  0  0  0  0  0  0
    7.8398   -3.5297   27.8166 H   0  0  0  0  0  0  0  0  0  0  0  0
    8.7167    1.3910   24.1851 H   0  0  0  0  0  0  0  0  0  0  0  0
    9.8647    2.0727   23.0582 H   0  0  0  0  0  0  0  0  0  0  0  0
   10.7539   -0.2760   22.5528 H   0  0  0  0  0  0  0  0  0  0  0  0
    6.6715    0.4865   16.8044 H   0  0  0  0  0  0  0  0  0  0  0  0
    8.0730   -1.6176   21.0751 H   0  0  0  0  0  0  0  0  0  0  0  0
  1  2  1  0  0  0  0
  1  3  2  0  0  0  0
  2  6  2  0  0  0  0
  3 12  1  0  0  0  0
  4  7  2  0  0  0  0
  4 13  1  0  0  0  0
  5  8  1  0  0  0  0
  5 13  2  0  0  0  0
  6 15  1  0  0  0  0
  7 16  1  0  0  0  0
  8 16  2  0  0  0  0
  9 14  1  0  0  0  0
  9 24  2  0  0  0  0
 10 14  2  0  0  0  0
 10 26  1  0  0  0  0
 11 17  2  0  0  0  0
 11 25  1  0  0  0  0
 12 15  2  0  0  0  0
 12 17  1  0  0  0  0
 13 23  1  0  0  0  0
 14 22  1  0  0  0  0
 15 25  1  0  0  0  0
 16 28  1  0  0  0  0
 17 27  1  0  0  0  0
 18 23  1  0  0  0  0
 18 27  1  0  0  0  0
 18 29  2  0  0  0  0
 19 26  1  0  0  0  0
 20 28  1  0  0  0  0
 21 28  1  0  0  0  0
 22 23  1  6  0  0  0
 24 26  1  0  0  0  0
  1 30  1  0  0  0  0
  2 31  1  0  0  0  0
  3 32  1  0  0  0  0
  4 33  1  0  0  0  0
  5 34  1  0  0  0  0
  6 35  1  0  0  0  0
  7 36  1  0  0  0  0
  8 37  1  0  0  0  0
  9 38  1  0  0  0  0
 10 39  1  0  0  0  0
 11 40  1  0  0  0  0
 19 41  1  0  0  0  0
 19 42  1  0  0  0  0
 19 43  1  0  0  0  0
 20 44  1  0  0  0  0
 20 45  1  0  0  0  0
 20 46  1  0  0  0  0
 21 47  1  0  0  0  0
 21 48  1  0  0  0  0
 21 49  1  0  0  0  0
 22 50  1  0  0  0  0
 22 51  1  0  0  0  0
 23 52  1  0  0  0  0
 25 53  1  0  0  0  0
 27 54  1  0  0  0  0
M  END
> <clash_score>
3.2086039238368342

> <docking_score>
-2.9405431747436523

> <overlap_score>
0.7944023013114929

$$$$
BENZO_282_2
  -OEChem-08232013543D

 54 57  0     1  0  0  0  0  0999 V2000
    4.2460    1.7520   20.8250 C   0  0  0  0  0  0  0  0  0  0  0  0
    3.8860    2.1050   19.5250 C   0  0  0  0  0  0  0  0  0  0  0  0
   12.6250    0.0375   25.8097 C   0  0  0  0  0  0  0  0  0  0  0  0
    5.3890    1.0010   21.0690 C   0  0  0  0  0  0  0  0  0  0  0  0
   11.6228    0.0681   24.8402 C   0  0  0  0  0  0  0  0  0  0  0  0
    9.5890   -2.4950   23.2210 C   0  0  0  0  0  0  0  0  0  0  0  0
    8.2550   -1.0010   24.5520 C   0  0  0  0  0  0  0  0  0  0  0  0
    4.6610    1.7170   18.4380 C   0  0  0  0  0  0  0  0  0  0  0  0
    9.1890   -3.5540   24.0140 C   0  0  0  0  0  0  0  0  0  0  0  0
    7.8700   -2.0610   25.3550 C   0  0  0  0  0  0  0  0  0  0  0  0
   12.7736    1.1068   26.6932 C   0  0  0  0  0  0  0  0  0  0  0  0
   10.9177    2.2371   25.6372 C   0  0  0  0  0  0  0  0  0  0  0  0
    7.5840   -0.2700   18.5160 C   0  0  0  0  0  0  0  0  0  0  0  0
    6.1460    0.6070   19.9750 C   0  0  0  0  0  0  0  0  0  0  0  0
    9.1280   -1.2090   23.4870 C   0  0  0  0  0  0  0  0  0  0  0  0
   10.7691    1.1678   24.7539 C   0  0  0  0  0  0  0  0  0  0  0  0
    5.7970    0.9500   18.6730 C   0  0  0  0  0  0  0  0  0  0  0  0
    8.3450   -3.3440   25.0980 C   0  0  0  0  0  0  0  0  0  0  0  0
    7.2710   -0.1460   19.8310 C   0  0  0  0  0  0  0  0  0  0  0  0
   11.9200    2.2065   26.6069 C   0  0  0  0  0  0  0  0  0  0  0  0
    9.0430    0.2380   21.4940 C   0  0  0  0  0  0  0  0  0  0  0  0
    7.2615   -5.5563   25.3804 C   0  0  0  0  0  0  0  0  0  0  0  0
    8.3045   -4.4045   27.3385 C   0  0  0  0  0  0  0  0  0  0  0  0
    9.6841    1.2008   23.7022 C   0  0  0  0  0  0  0  0  0  0  0  0
    9.5820   -0.1080   22.7000 C   0  0  2  0  0  0  0  0  0  0  0  0
    6.7100    0.3850   17.8100 N   0  0  0  0  0  0  0  0  0  0  0  0
    8.0950   -0.7700   20.8440 N   0  0  0  0  0  0  0  0  0  0  0  0
    7.9717   -4.4175   25.9277 N   0  0  0  0  0  0  0  0  0  0  0  0
    9.2950    1.3000   20.9480 O   0  0  0  0  0  0  0  0  0  0  0  0
   12.1046    3.5259   27.6963 Cl  0  0  0  0  0  0  0  0  0  0  0  0
    3.6208    2.0704   21.6579 H   0  0  0  0  0  0  0  0  0  0  0  0
    2.9857    2.6926   19.3615 H   0  0  0  0  0  0  0  0  0  0  0  0
   13.2896   -0.8190   25.8765 H   0  0  0  0  0  0  0  0  0  0  0  0
    5.6664    0.7407   22.0807 H   0  0  0  0  0  0  0  0  0  0  0  0
   11.5143   -0.7695   24.1559 H   0  0  0  0  0  0  0  0  0  0  0  0
   10.2684   -2.6719   22.3867 H   0  0  0  0  0  0  0  0  0  0  0  0
    7.8717   -0.0016   24.7596 H   0  0  0  0  0  0  0  0  0  0  0  0
    4.3794    2.0106   17.4221 H   0  0  0  0  0  0  0  0  0  0  0  0
    9.5443   -4.5616   23.7817 H   0  0  0  0  0  0  0  0  0  0  0  0
    7.1921   -1.8821   26.1908 H   0  0  0  0  0  0  0  0  0  0  0  0
   13.5594    1.0694   27.4437 H   0  0  0  0  0  0  0  0  0  0  0  0
   10.2493    3.0921   25.5662 H   0  0  0  0  0  0  0  0  0  0  0  0
    8.4172   -0.8135   18.0384 H   0  0  0  0  0  0  0  0  0  0  0  0
    7.0607   -6.2833   26.1812 H   0  0  0  0  0  0  0  0  0  0  0  0
    6.3096   -5.2194   24.9441 H   0  0  0  0  0  0  0  0  0  0  0  0
    7.8750   -6.0305   24.6002 H   0  0  0  0  0  0  0  0  0  0  0  0
    7.9298   -5.3236   27.8126 H   0  0  0  0  0  0  0  0  0  0  0  0
    9.3968   -4.3501   27.4569 H   0  0  0  0  0  0  0  0  0  0  0  0
    7.8398   -3.5297   27.8166 H   0  0  0  0  0  0  0  0  0  0  0  0
    8.7167    1.3910   24.1851 H   0  0  0  0  0  0  0  0  0  0  0  0
    9.8647    2.0727   23.0582 H   0  0  0  0  0  0  0  0  0  0  0  0
   10.7539   -0.2760   22.5528 H   0  0  0  0  0  0  0  0  0  0  0  0
    6.6715    0.4865   16.8044 H   0  0  0  0  0  0  0  0  0  0  0  0
    8.0730   -1.6176   21.0751 H   0  0  0  0  0  0  0  0  0  0  0  0
  1  2  1  0  0  0  0
  1  4  2  0  0  0  0
  2  8  2  0  0  0  0
  3  5  2  0  0  0  0
  3 11  1  0  0  0  0
  4 14  1  0  0  0  0
  5 16  1  0  0  0  0
  6  9  2  0  0  0  0
  6 15  1  0  0  0  0
  7 10  1  0  0  0  0
  7 15  2  0  0  0  0
  8 17  1  0  0  0  0
  9 18  1  0  0  0  0
 10 18  2  0  0  0  0
 11 20  2  0  0  0  0
 12 16  2  0  0  0  0
 12 20  1  0  0  0  0
 13 19  2  0  0  0  0
 13 26  1  0  0  0  0
 14 17  2  0  0  0  0
 14 19  1  0  0  0  0
 15 25  1  0  0  0  0
 16 24  1  0  0  0  0
 17 26  1  0  0  0  0
 18 28  1  0  0  0  0
 19 27  1  0  0  0  0
 20 30  1  0  0  0  0
 21 25  1  0  0  0  0
 21 27  1  0  0  0  0
 21 29  2  0  0  0  0
 22 28  1  0  0  0  0
 23 28  1  0  0  0  0
 24 25  1  6  0  0  0
  1 31  1  0  0  0  0
  2 32  1  0  0  0  0
  3 33  1  0  0  0  0
  4 34  1  0  0  0  0
  5 35  1  0  0  0  0
  6 36  1  0  0  0  0
  7 37  1  0  0  0  0
  8 38  1  0  0  0  0
  9 39  1  0  0  0  0
 10 40  1  0  0  0  0
 11 41  1  0  0  0  0
 12 42  1  0  0  0  0
 13 43  1  0  0  0  0
 22 44  1  0  0  0  0
 22 45  1  0  0  0  0
 22 46  1  0  0  0  0
 23 47  1  0  0  0  0
 23 48  1  0  0  0  0
 23 49  1  0  0  0  0
 24 50  1  0  0  0  0
 24 51  1  0  0  0  0
 25 52  1  0  0  0  0
 26 53  1  0  0  0  0
 27 54  1  0  0  0  0
M  END
> <clash_score>
5.49291724621995

> <docking_score>
-3.1957645416259766

> <overlap_score>
0.7982797026634216

$$$$
BENZO_285_2
  -OEChem-08232013543D

 56 59  0     1  0  0  0  0  0999 V2000
   12.7116    4.1121   22.7757 C   0  0  0  0  0  0  0  0  0  0  0  0
    4.2460    1.7520   20.8250 C   0  0  0  0  0  0  0  0  0  0  0  0
   11.5300    4.5099   23.4011 C   0  0  0  0  0  0  0  0  0  0  0  0
   12.9112    2.7704   22.4506 C   0  0  0  0  0  0  0  0  0  0  0  0
    3.8860    2.1050   19.5250 C   0  0  0  0  0  0  0  0  0  0  0  0
    5.3890    1.0010   21.0690 C   0  0  0  0  0  0  0  0  0  0  0  0
   10.5480    3.5659   23.7016 C   0  0  0  0  0  0  0  0  0  0  0  0
   11.9292    1.8264   22.7511 C   0  0  0  0  0  0  0  0  0  0  0  0
    9.5890   -2.4950   23.2210 C   0  0  0  0  0  0  0  0  0  0  0  0
    8.2550   -1.0010   24.5520 C   0  0  0  0  0  0  0  0  0  0  0  0
    4.6610    1.7170   18.4380 C   0  0  0  0  0  0  0  0  0  0  0  0
    9.1890   -3.5540   24.0140 C   0  0  0  0  0  0  0  0  0  0  0  0
    7.8700   -2.0610   25.3550 C   0  0  0  0  0  0  0  0  0  0  0  0
    7.5840   -0.2700   18.5160 C   0  0  0  0  0  0  0  0  0  0  0  0
    6.1460    0.6070   19.9750 C   0  0  0  0  0  0  0  0  0  0  0  0
   10.7476    2.2242   23.3766 C   0  0  0  0  0  0  0  0  0  0  0  0
    9.1280   -1.2090   23.4870 C   0  0  0  0  0  0  0  0  0  0  0  0
    5.7970    0.9500   18.6730 C   0  0  0  0  0  0  0  0  0  0  0  0
    8.3450   -3.3440   25.0980 C   0  0  0  0  0  0  0  0  0  0  0  0
    7.2710   -0.1460   19.8310 C   0  0  0  0  0  0  0  0  0  0  0  0
    7.6607   -4.3765   27.2876 C   0  0  0  0  0  0  0  0  0  0  0  0
    9.0430    0.2380   21.4940 C   0  0  0  0  0  0  0  0  0  0  0  0
    8.4364   -6.7651   27.6016 C   0  0  0  0  0  0  0  0  0  0  0  0
    9.6841    1.2008   23.7022 C   0  0  0  0  0  0  0  0  0  0  0  0
    7.3113   -5.7655   27.8009 C   0  0  0  0  0  0  0  0  0  0  0  0
    9.5820   -0.1080   22.7000 C   0  0  2  0  0  0  0  0  0  0  0  0
    6.7100    0.3850   17.8100 N   0  0  0  0  0  0  0  0  0  0  0  0
    7.9771   -4.4057   25.9197 N   0  0  0  0  0  0  0  0  0  0  0  0
    8.0950   -0.7700   20.8440 N   0  0  0  0  0  0  0  0  0  0  0  0
    7.6510   -3.3915   28.0184 O   0  0  0  0  0  0  0  0  0  0  0  0
    9.2950    1.3000   20.9480 O   0  0  0  0  0  0  0  0  0  0  0  0
   13.4755    4.8474   22.5405 H   0  0  0  0  0  0  0  0  0  0  0  0
    3.6208    2.0704   21.6579 H   0  0  0  0  0  0  0  0  0  0  0  0
   11.3739    5.5547   23.6533 H   0  0  0  0  0  0  0  0  0  0  0  0
   13.8306    2.4605   21.9627 H   0  0  0  0  0  0  0  0  0  0  0  0
    2.9857    2.6926   19.3615 H   0  0  0  0  0  0  0  0  0  0  0  0
    5.6664    0.7407   22.0807 H   0  0  0  0  0  0  0  0  0  0  0  0
    9.6306    3.8849   24.1892 H   0  0  0  0  0  0  0  0  0  0  0  0
   12.0935    0.7832   22.4943 H   0  0  0  0  0  0  0  0  0  0  0  0
   10.2695   -2.6718   22.3873 H   0  0  0  0  0  0  0  0  0  0  0  0
    7.8712   -0.0014   24.7587 H   0  0  0  0  0  0  0  0  0  0  0  0
    4.3794    2.0106   17.4221 H   0  0  0  0  0  0  0  0  0  0  0  0
    9.5431   -4.5618   23.7801 H   0  0  0  0  0  0  0  0  0  0  0  0
    7.1923   -1.8823   26.1912 H   0  0  0  0  0  0  0  0  0  0  0  0
    8.4172   -0.8135   18.0384 H   0  0  0  0  0  0  0  0  0  0  0  0
    8.6959   -6.8591   26.5420 H   0  0  0  0  0  0  0  0  0  0  0  0
    8.1391   -7.7519   27.9697 H   0  0  0  0  0  0  0  0  0  0  0  0
    9.3373   -6.4558   28.1416 H   0  0  0  0  0  0  0  0  0  0  0  0
    9.7989    0.8777   24.7451 H   0  0  0  0  0  0  0  0  0  0  0  0
    8.7078    1.7032   23.6586 H   0  0  0  0  0  0  0  0  0  0  0  0
    7.0728   -5.6917   28.8682 H   0  0  0  0  0  0  0  0  0  0  0  0
    6.4147   -6.1147   27.2759 H   0  0  0  0  0  0  0  0  0  0  0  0
   10.7539   -0.2760   22.5528 H   0  0  0  0  0  0  0  0  0  0  0  0
    6.6715    0.4865   16.8044 H   0  0  0  0  0  0  0  0  0  0  0  0
    7.9296   -5.3298   25.4749 H   0  0  0  0  0  0  0  0  0  0  0  0
    8.0730   -1.6176   21.0751 H   0  0  0  0  0  0  0  0  0  0  0  0
  1  3  1  0  0  0  0
  1  4  2  0  0  0  0
  2  5  1  0  0  0  0
  2  6  2  0  0  0  0
  3  7  2  0  0  0  0
  4  8  1  0  0  0  0
  5 11  2  0  0  0  0
  6 15  1  0  0  0  0
  7 16  1  0  0  0  0
  8 16  2  0  0  0  0
  9 12  2  0  0  0  0
  9 17  1  0  0  0  0
 10 13  1  0  0  0  0
 10 17  2  0  0  0  0
 11 18  1  0  0  0  0
 12 19  1  0  0  0  0
 13 19  2  0  0  0  0
 14 20  2  0  0  0  0
 14 27  1  0  0  0  0
 15 18  2  0  0  0  0
 15 20  1  0  0  0  0
 16 24  1  0  0  0  0
 17 26  1  0  0  0  0
 18 27  1  0  0  0  0
 19 28  1  0  0  0  0
 20 29  1  0  0  0  0
 21 25  1  0  0  0  0
 21 28  1  0  0  0  0
 21 30  2  0  0  0  0
 22 26  1  0  0  0  0
 22 29  1  0  0  0  0
 22 31  2  0  0  0  0
 23 25  1  0  0  0  0
 24 26  1  6  0  0  0
  1 32  1  0  0  0  0
  2 33  1  0  0  0  0
  3 34  1  0  0  0  0
  4 35  1  0  0  0  0
  5 36  1  0  0  0  0
  6 37  1  0  0  0  0
  7 38  1  0  0  0  0
  8 39  1  0  0  0  0
  9 40  1  0  0  0  0
 10 41  1  0  0  0  0
 11 42  1  0  0  0  0
 12 43  1  0  0  0  0
 13 44  1  0  0  0  0
 14 45  1  0  0  0  0
 23 46  1  0  0  0  0
 23 47  1  0  0  0  0
 23 48  1  0  0  0  0
 24 49  1  0  0  0  0
 24 50  1  0  0  0  0
 25 51  1  0  0  0  0
 25 52  1  0  0  0  0
 26 53  1  0  0  0  0
 27 54  1  0  0  0  0
 28 55  1  0  0  0  0
 29 56  1  0  0  0  0
M  END
> <clash_score>
0

> <docking_score>
-7.787501335144043

> <overlap_score>
0.824667751789093

$$$$
BENZO_285_1
  -OEChem-08232013543D

 56 59  0     1  0  0  0  0  0999 V2000
   13.2081   -0.8233   26.3776 C   0  0  0  0  0  0  0  0  0  0  0  0
    4.2460    1.7520   20.8250 C   0  0  0  0  0  0  0  0  0  0  0  0
   13.7678   -1.3337   25.2064 C   0  0  0  0  0  0  0  0  0  0  0  0
   12.0060   -0.1174   26.3261 C   0  0  0  0  0  0  0  0  0  0  0  0
    3.8860    2.1050   19.5250 C   0  0  0  0  0  0  0  0  0  0  0  0
    5.3890    1.0010   21.0690 C   0  0  0  0  0  0  0  0  0  0  0  0
   13.1256   -1.1382   23.9837 C   0  0  0  0  0  0  0  0  0  0  0  0
   11.3638    0.0781   25.1034 C   0  0  0  0  0  0  0  0  0  0  0  0
    9.5890   -2.4950   23.2210 C   0  0  0  0  0  0  0  0  0  0  0  0
    8.2550   -1.0010   24.5520 C   0  0  0  0  0  0  0  0  0  0  0  0
    4.6610    1.7170   18.4380 C   0  0  0  0  0  0  0  0  0  0  0  0
    9.1890   -3.5540   24.0140 C   0  0  0  0  0  0  0  0  0  0  0  0
    7.8700   -2.0610   25.3550 C   0  0  0  0  0  0  0  0  0  0  0  0
    7.5840   -0.2700   18.5160 C   0  0  0  0  0  0  0  0  0  0  0  0
    6.1460    0.6070   19.9750 C   0  0  0  0  0  0  0  0  0  0  0  0
   11.9236   -0.4323   23.9322 C   0  0  0  0  0  0  0  0  0  0  0  0
    9.1280   -1.2090   23.4870 C   0  0  0  0  0  0  0  0  0  0  0  0
    5.7970    0.9500   18.6730 C   0  0  0  0  0  0  0  0  0  0  0  0
    8.3450   -3.3440   25.0980 C   0  0  0  0  0  0  0  0  0  0  0  0
    7.2710   -0.1460   19.8310 C   0  0  0  0  0  0  0  0  0  0  0  0
    7.6607   -4.3765   27.2876 C   0  0  0  0  0  0  0  0  0  0  0  0
    9.0430    0.2380   21.4940 C   0  0  0  0  0  0  0  0  0  0  0  0
    8.4364   -6.7651   27.6016 C   0  0  0  0  0  0  0  0  0  0  0  0
   11.2273   -0.2199   22.6076 C   0  0  0  0  0  0  0  0  0  0  0  0
    7.3113   -5.7655   27.8009 C   0  0  0  0  0  0  0  0  0  0  0  0
    9.5820   -0.1080   22.7000 C   0  0  1  0  0  0  0  0  0  0  0  0
    6.7100    0.3850   17.8100 N   0  0  0  0  0  0  0  0  0  0  0  0
    7.9771   -4.4057   25.9197 N   0  0  0  0  0  0  0  0  0  0  0  0
    8.0950   -0.7700   20.8440 N   0  0  0  0  0  0  0  0  0  0  0  0
    7.6510   -3.3915   28.0184 O   0  0  0  0  0  0  0  0  0  0  0  0
    9.2950    1.3000   20.9480 O   0  0  0  0  0  0  0  0  0  0  0  0
   13.7076   -0.9768   27.3297 H   0  0  0  0  0  0  0  0  0  0  0  0
    3.6208    2.0704   21.6579 H   0  0  0  0  0  0  0  0  0  0  0  0
   14.7032   -1.8843   25.2464 H   0  0  0  0  0  0  0  0  0  0  0  0
   11.5694    0.2792   27.2379 H   0  0  0  0  0  0  0  0  0  0  0  0
    2.9857    2.6926   19.3615 H   0  0  0  0  0  0  0  0  0  0  0  0
    5.6664    0.7407   22.0807 H   0  0  0  0  0  0  0  0  0  0  0  0
   13.5692   -1.5394   23.0762 H   0  0  0  0  0  0  0  0  0  0  0  0
   10.4277    0.6294   25.0729 H   0  0  0  0  0  0  0  0  0  0  0  0
   10.2695   -2.6718   22.3873 H   0  0  0  0  0  0  0  0  0  0  0  0
    7.8712   -0.0014   24.7587 H   0  0  0  0  0  0  0  0  0  0  0  0
    4.3794    2.0106   17.4221 H   0  0  0  0  0  0  0  0  0  0  0  0
    9.5431   -4.5618   23.7801 H   0  0  0  0  0  0  0  0  0  0  0  0
    7.1923   -1.8823   26.1912 H   0  0  0  0  0  0  0  0  0  0  0  0
    8.4172   -0.8135   18.0384 H   0  0  0  0  0  0  0  0  0  0  0  0
    8.6959   -6.8591   26.5420 H   0  0  0  0  0  0  0  0  0  0  0  0
    8.1391   -7.7519   27.9697 H   0  0  0  0  0  0  0  0  0  0  0  0
    9.3373   -6.4558   28.1416 H   0  0  0  0  0  0  0  0  0  0  0  0
   11.5842    0.7150   22.1561 H   0  0  0  0  0  0  0  0  0  0  0  0
   11.5525   -1.0164   21.9239 H   0  0  0  0  0  0  0  0  0  0  0  0
    7.0728   -5.6917   28.8682 H   0  0  0  0  0  0  0  0  0  0  0  0
    6.4147   -6.1147   27.2759 H   0  0  0  0  0  0  0  0  0  0  0  0
    9.5374    0.8439   23.4178 H   0  0  0  0  0  0  0  0  0  0  0  0
    6.6715    0.4865   16.8044 H   0  0  0  0  0  0  0  0  0  0  0  0
    7.9296   -5.3298   25.4749 H   0  0  0  0  0  0  0  0  0  0  0  0
    8.0730   -1.6176   21.0751 H   0  0  0  0  0  0  0  0  0  0  0  0
  1  3  1  0  0  0  0
  1  4  2  0  0  0  0
  2  5  1  0  0  0  0
  2  6  2  0  0  0  0
  3  7  2  0  0  0  0
  4  8  1  0  0  0  0
  5 11  2  0  0  0  0
  6 15  1  0  0  0  0
  7 16  1  0  0  0  0
  8 16  2  0  0  0  0
  9 12  2  0  0  0  0
  9 17  1  0  0  0  0
 10 13  1  0  0  0  0
 10 17  2  0  0  0  0
 11 18  1  0  0  0  0
 12 19  1  0  0  0  0
 13 19  2  0  0  0  0
 14 20  2  0  0  0  0
 14 27  1  0  0  0  0
 15 18  2  0  0  0  0
 15 20  1  0  0  0  0
 16 24  1  0  0  0  0
 17 26  1  0  0  0  0
 18 27  1  0  0  0  0
 19 28  1  0  0  0  0
 20 29  1  0  0  0  0
 21 25  1  0  0  0  0
 21 28  1  0  0  0  0
 21 30  2  0  0  0  0
 22 26  1  0  0  0  0
 22 29  1  0  0  0  0
 22 31  2  0  0  0  0
 23 25  1  0  0  0  0
 24 26  1  1  0  0  0
  1 32  1  0  0  0  0
  2 33  1  0  0  0  0
  3 34  1  0  0  0  0
  4 35  1  0  0  0  0
  5 36  1  0  0  0  0
  6 37  1  0  0  0  0
  7 38  1  0  0  0  0
  8 39  1  0  0  0  0
  9 40  1  0  0  0  0
 10 41  1  0  0  0  0
 11 42  1  0  0  0  0
 12 43  1  0  0  0  0
 13 44  1  0  0  0  0
 14 45  1  0  0  0  0
 23 46  1  0  0  0  0
 23 47  1  0  0  0  0
 23 48  1  0  0  0  0
 24 49  1  0  0  0  0
 24 50  1  0  0  0  0
 25 51  1  0  0  0  0
 25 52  1  0  0  0  0
 26 53  1  0  0  0  0
 27 54  1  0  0  0  0
 28 55  1  0  0  0  0
 29 56  1  0  0  0  0
M  END
> <clash_score>
0

> <docking_score>
-5.203864097595215

> <overlap_score>
0.9151155948638916

$$$$
BENZO_284_2
  -OEChem-08232013543D

 53 56  0     1  0  0  0  0  0999 V2000
    4.2460    1.7520   20.8250 C   0  0  0  0  0  0  0  0  0  0  0  0
    3.8860    2.1050   19.5250 C   0  0  0  0  0  0  0  0  0  0  0  0
    5.3890    1.0010   21.0690 C   0  0  0  0  0  0  0  0  0  0  0  0
    9.5890   -2.4950   23.2210 C   0  0  0  0  0  0  0  0  0  0  0  0
    8.2550   -1.0010   24.5520 C   0  0  0  0  0  0  0  0  0  0  0  0
    4.6610    1.7170   18.4380 C   0  0  0  0  0  0  0  0  0  0  0  0
    9.1890   -3.5540   24.0140 C   0  0  0  0  0  0  0  0  0  0  0  0
    7.8700   -2.0610   25.3550 C   0  0  0  0  0  0  0  0  0  0  0  0
   12.0333    1.8963   22.8573 C   0  0  0  0  0  0  0  0  0  0  0  0
    7.5840   -0.2700   18.5160 C   0  0  0  0  0  0  0  0  0  0  0  0
   12.8088    3.0159   22.6506 C   0  0  0  0  0  0  0  0  0  0  0  0
   10.5895    3.5820   23.5474 C   0  0  0  0  0  0  0  0  0  0  0  0
    6.1460    0.6070   19.9750 C   0  0  0  0  0  0  0  0  0  0  0  0
    9.1280   -1.2090   23.4870 C   0  0  0  0  0  0  0  0  0  0  0  0
   10.7476    2.2242   23.3766 C   0  0  0  0  0  0  0  0  0  0  0  0
    5.7970    0.9500   18.6730 C   0  0  0  0  0  0  0  0  0  0  0  0
    8.3450   -3.3440   25.0980 C   0  0  0  0  0  0  0  0  0  0  0  0
    7.2710   -0.1460   19.8310 C   0  0  0  0  0  0  0  0  0  0  0  0
    8.2026   -4.5566   27.2975 C   0  0  0  0  0  0  0  0  0  0  0  0
    9.0430    0.2380   21.4940 C   0  0  0  0  0  0  0  0  0  0  0  0
    7.8889   -6.0882   29.2879 C   0  0  0  0  0  0  0  0  0  0  0  0
    9.6841    1.2008   23.7022 C   0  0  0  0  0  0  0  0  0  0  0  0
    7.6343   -5.8728   27.8068 C   0  0  0  0  0  0  0  0  0  0  0  0
    9.5820   -0.1080   22.7000 C   0  0  2  0  0  0  0  0  0  0  0  0
    6.7100    0.3850   17.8100 N   0  0  0  0  0  0  0  0  0  0  0  0
    7.9771   -4.4057   25.9197 N   0  0  0  0  0  0  0  0  0  0  0  0
    8.0950   -0.7700   20.8440 N   0  0  0  0  0  0  0  0  0  0  0  0
    8.7749   -3.7648   28.0392 O   0  0  0  0  0  0  0  0  0  0  0  0
    9.2950    1.3000   20.9480 O   0  0  0  0  0  0  0  0  0  0  0  0
   11.9872    4.4551   23.0822 S   0  0  0  0  0  0  0  0  0  0  0  0
    3.6208    2.0704   21.6579 H   0  0  0  0  0  0  0  0  0  0  0  0
    2.9857    2.6926   19.3615 H   0  0  0  0  0  0  0  0  0  0  0  0
    5.6664    0.7407   22.0807 H   0  0  0  0  0  0  0  0  0  0  0  0
   10.2695   -2.6718   22.3873 H   0  0  0  0  0  0  0  0  0  0  0  0
    7.8712   -0.0014   24.7587 H   0  0  0  0  0  0  0  0  0  0  0  0
    4.3794    2.0106   17.4221 H   0  0  0  0  0  0  0  0  0  0  0  0
    9.5431   -4.5618   23.7801 H   0  0  0  0  0  0  0  0  0  0  0  0
    7.1923   -1.8823   26.1912 H   0  0  0  0  0  0  0  0  0  0  0  0
   12.3762    0.8915   22.6449 H   0  0  0  0  0  0  0  0  0  0  0  0
    8.4172   -0.8135   18.0384 H   0  0  0  0  0  0  0  0  0  0  0  0
   13.8186    3.0576   22.2676 H   0  0  0  0  0  0  0  0  0  0  0  0
    9.7225    4.1070   23.9238 H   0  0  0  0  0  0  0  0  0  0  0  0
    8.9616   -6.0836   29.5073 H   0  0  0  0  0  0  0  0  0  0  0  0
    7.4783   -7.0503   29.6092 H   0  0  0  0  0  0  0  0  0  0  0  0
    7.4206   -5.2995   29.8860 H   0  0  0  0  0  0  0  0  0  0  0  0
    9.7989    0.8777   24.7451 H   0  0  0  0  0  0  0  0  0  0  0  0
    8.7078    1.7032   23.6586 H   0  0  0  0  0  0  0  0  0  0  0  0
    6.5549   -5.8821   27.6165 H   0  0  0  0  0  0  0  0  0  0  0  0
    8.0869   -6.6912   27.2352 H   0  0  0  0  0  0  0  0  0  0  0  0
   10.7539   -0.2760   22.5528 H   0  0  0  0  0  0  0  0  0  0  0  0
    6.6715    0.4865   16.8044 H   0  0  0  0  0  0  0  0  0  0  0  0
    7.4775   -5.1797   25.4665 H   0  0  0  0  0  0  0  0  0  0  0  0
    8.0730   -1.6176   21.0751 H   0  0  0  0  0  0  0  0  0  0  0  0
  1  2  1  0  0  0  0
  1  3  2  0  0  0  0
  2  6  2  0  0  0  0
  3 13  1  0  0  0  0
  4  7  2  0  0  0  0
  4 14  1  0  0  0  0
  5  8  1  0  0  0  0
  5 14  2  0  0  0  0
  6 16  1  0  0  0  0
  7 17  1  0  0  0  0
  8 17  2  0  0  0  0
  9 11  2  0  0  0  0
  9 15  1  0  0  0  0
 10 18  2  0  0  0  0
 10 25  1  0  0  0  0
 11 30  1  0  0  0  0
 12 15  2  0  0  0  0
 12 30  1  0  0  0  0
 13 16  2  0  0  0  0
 13 18  1  0  0  0  0
 14 24  1  0  0  0  0
 15 22  1  0  0  0  0
 16 25  1  0  0  0  0
 17 26  1  0  0  0  0
 18 27  1  0  0  0  0
 19 23  1  0  0  0  0
 19 26  1  0  0  0  0
 19 28  2  0  0  0  0
 20 24  1  0  0  0  0
 20 27  1  0  0  0  0
 20 29  2  0  0  0  0
 21 23  1  0  0  0  0
 22 24  1  6  0  0  0
  1 31  1  0  0  0  0
  2 32  1  0  0  0  0
  3 33  1  0  0  0  0
  4 34  1  0  0  0  0
  5 35  1  0  0  0  0
  6 36  1  0  0  0  0
  7 37  1  0  0  0  0
  8 38  1  0  0  0  0
  9 39  1  0  0  0  0
 10 40  1  0  0  0  0
 11 41  1  0  0  0  0
 12 42  1  0  0  0  0
 21 43  1  0  0  0  0
 21 44  1  0  0  0  0
 21 45  1  0  0  0  0
 22 46  1  0  0  0  0
 22 47  1  0  0  0  0
 23 48  1  0  0  0  0
 23 49  1  0  0  0  0
 24 50  1  0  0  0  0
 25 51  1  0  0  0  0
 26 52  1  0  0  0  0
 27 53  1  0  0  0  0
M  END
> <clash_score>
0

> <docking_score>
-8.084585189819336

> <overlap_score>
0.8424251079559326

$$$$
BENZO_284_1
  -OEChem-08232013543D

 53 56  0     1  0  0  0  0  0999 V2000
    4.2460    1.7520   20.8250 C   0  0  0  0  0  0  0  0  0  0  0  0
    3.8860    2.1050   19.5250 C   0  0  0  0  0  0  0  0  0  0  0  0
    5.3890    1.0010   21.0690 C   0  0  0  0  0  0  0  0  0  0  0  0
    9.5890   -2.4950   23.2210 C   0  0  0  0  0  0  0  0  0  0  0  0
    8.2550   -1.0010   24.5520 C   0  0  0  0  0  0  0  0  0  0  0  0
    4.6610    1.7170   18.4380 C   0  0  0  0  0  0  0  0  0  0  0  0
    9.1890   -3.5540   24.0140 C   0  0  0  0  0  0  0  0  0  0  0  0
    7.8700   -2.0610   25.3550 C   0  0  0  0  0  0  0  0  0  0  0  0
   13.2019   -0.5524   24.2528 C   0  0  0  0  0  0  0  0  0  0  0  0
    7.5840   -0.2700   18.5160 C   0  0  0  0  0  0  0  0  0  0  0  0
   13.6437   -0.1439   25.4920 C   0  0  0  0  0  0  0  0  0  0  0  0
   11.4901    0.8830   24.8943 C   0  0  0  0  0  0  0  0  0  0  0  0
    6.1460    0.6070   19.9750 C   0  0  0  0  0  0  0  0  0  0  0  0
    9.1280   -1.2090   23.4870 C   0  0  0  0  0  0  0  0  0  0  0  0
   11.9545    0.0425   23.9064 C   0  0  0  0  0  0  0  0  0  0  0  0
    5.7970    0.9500   18.6730 C   0  0  0  0  0  0  0  0  0  0  0  0
    8.3450   -3.3440   25.0980 C   0  0  0  0  0  0  0  0  0  0  0  0
    7.2710   -0.1460   19.8310 C   0  0  0  0  0  0  0  0  0  0  0  0
    7.6607   -4.3765   27.2876 C   0  0  0  0  0  0  0  0  0  0  0  0
    9.0430    0.2380   21.4940 C   0  0  0  0  0  0  0  0  0  0  0  0
    6.9961   -5.7804   29.2859 C   0  0  0  0  0  0  0  0  0  0  0  0
   11.2273   -0.2199   22.6076 C   0  0  0  0  0  0  0  0  0  0  0  0
    7.3113   -5.7655   27.8009 C   0  0  0  0  0  0  0  0  0  0  0  0
    9.5820   -0.1080   22.7000 C   0  0  1  0  0  0  0  0  0  0  0  0
    6.7100    0.3850   17.8100 N   0  0  0  0  0  0  0  0  0  0  0  0
    7.9771   -4.4057   25.9197 N   0  0  0  0  0  0  0  0  0  0  0  0
    8.0950   -0.7700   20.8440 N   0  0  0  0  0  0  0  0  0  0  0  0
    7.6510   -3.3915   28.0184 O   0  0  0  0  0  0  0  0  0  0  0  0
    9.2950    1.3000   20.9480 O   0  0  0  0  0  0  0  0  0  0  0  0
   12.5564    0.9524   26.2323 S   0  0  0  0  0  0  0  0  0  0  0  0
    3.6208    2.0704   21.6579 H   0  0  0  0  0  0  0  0  0  0  0  0
    2.9857    2.6926   19.3615 H   0  0  0  0  0  0  0  0  0  0  0  0
    5.6664    0.7407   22.0807 H   0  0  0  0  0  0  0  0  0  0  0  0
   10.2695   -2.6718   22.3873 H   0  0  0  0  0  0  0  0  0  0  0  0
    7.8712   -0.0014   24.7587 H   0  0  0  0  0  0  0  0  0  0  0  0
    4.3794    2.0106   17.4221 H   0  0  0  0  0  0  0  0  0  0  0  0
    9.5431   -4.5618   23.7801 H   0  0  0  0  0  0  0  0  0  0  0  0
    7.1923   -1.8823   26.1912 H   0  0  0  0  0  0  0  0  0  0  0  0
   13.7507   -1.2457   23.6279 H   0  0  0  0  0  0  0  0  0  0  0  0
    8.4172   -0.8135   18.0384 H   0  0  0  0  0  0  0  0  0  0  0  0
   14.5524   -0.4373   25.9983 H   0  0  0  0  0  0  0  0  0  0  0  0
   10.5759    1.4603   24.8987 H   0  0  0  0  0  0  0  0  0  0  0  0
    7.8457   -5.4147   29.8719 H   0  0  0  0  0  0  0  0  0  0  0  0
    6.7654   -6.7978   29.6163 H   0  0  0  0  0  0  0  0  0  0  0  0
    6.1341   -5.1438   29.5112 H   0  0  0  0  0  0  0  0  0  0  0  0
   11.5534    0.5103   21.8555 H   0  0  0  0  0  0  0  0  0  0  0  0
   11.5573   -1.1968   22.2276 H   0  0  0  0  0  0  0  0  0  0  0  0
    6.4454   -6.1356   27.2399 H   0  0  0  0  0  0  0  0  0  0  0  0
    8.1569   -6.4333   27.5999 H   0  0  0  0  0  0  0  0  0  0  0  0
    9.5374    0.8439   23.4178 H   0  0  0  0  0  0  0  0  0  0  0  0
    6.6715    0.4865   16.8044 H   0  0  0  0  0  0  0  0  0  0  0  0
    7.9296   -5.3298   25.4749 H   0  0  0  0  0  0  0  0  0  0  0  0
    8.0730   -1.6176   21.0751 H   0  0  0  0  0  0  0  0  0  0  0  0
  1  2  1  0  0  0  0
  1  3  2  0  0  0  0
  2  6  2  0  0  0  0
  3 13  1  0  0  0  0
  4  7  2  0  0  0  0
  4 14  1  0  0  0  0
  5  8  1  0  0  0  0
  5 14  2  0  0  0  0
  6 16  1  0  0  0  0
  7 17  1  0  0  0  0
  8 17  2  0  0  0  0
  9 11  2  0  0  0  0
  9 15  1  0  0  0  0
 10 18  2  0  0  0  0
 10 25  1  0  0  0  0
 11 30  1  0  0  0  0
 12 15  2  0  0  0  0
 12 30  1  0  0  0  0
 13 16  2  0  0  0  0
 13 18  1  0  0  0  0
 14 24  1  0  0  0  0
 15 22  1  0  0  0  0
 16 25  1  0  0  0  0
 17 26  1  0  0  0  0
 18 27  1  0  0  0  0
 19 23  1  0  0  0  0
 19 26  1  0  0  0  0
 19 28  2  0  0  0  0
 20 24  1  0  0  0  0
 20 27  1  0  0  0  0
 20 29  2  0  0  0  0
 21 23  1  0  0  0  0
 22 24  1  1  0  0  0
  1 31  1  0  0  0  0
  2 32  1  0  0  0  0
  3 33  1  0  0  0  0
  4 34  1  0  0  0  0
  5 35  1  0  0  0  0
  6 36  1  0  0  0  0
  7 37  1  0  0  0  0
  8 38  1  0  0  0  0
  9 39  1  0  0  0  0
 10 40  1  0  0  0  0
 11 41  1  0  0  0  0
 12 42  1  0  0  0  0
 21 43  1  0  0  0  0
 21 44  1  0  0  0  0
 21 45  1  0  0  0  0
 22 46  1  0  0  0  0
 22 47  1  0  0  0  0
 23 48  1  0  0  0  0
 23 49  1  0  0  0  0
 24 50  1  0  0  0  0
 25 51  1  0  0  0  0
 26 52  1  0  0  0  0
 27 53  1  0  0  0  0
M  END
> <clash_score>
0.702880291167105

> <docking_score>
-6.588578224182129

> <overlap_score>
0.9107049703598022

$$$$
BENZO_286_1
  -OEChem-08232013543D

 56 59  0     1  0  0  0  0  0999 V2000
    4.2460    1.7520   20.8250 C   0  0  0  0  0  0  0  0  0  0  0  0
    3.8860    2.1050   19.5250 C   0  0  0  0  0  0  0  0  0  0  0  0
   13.7696   -1.3331   25.2040 C   0  0  0  0  0  0  0  0  0  0  0  0
    5.3890    1.0010   21.0690 C   0  0  0  0  0  0  0  0  0  0  0  0
   13.1260   -1.1377   23.9821 C   0  0  0  0  0  0  0  0  0  0  0  0
    9.5890   -2.4950   23.2210 C   0  0  0  0  0  0  0  0  0  0  0  0
    8.2550   -1.0010   24.5520 C   0  0  0  0  0  0  0  0  0  0  0  0
    4.6610    1.7170   18.4380 C   0  0  0  0  0  0  0  0  0  0  0  0
    9.1890   -3.5540   24.0140 C   0  0  0  0  0  0  0  0  0  0  0  0
    7.8700   -2.0610   25.3550 C   0  0  0  0  0  0  0  0  0  0  0  0
   13.2109   -0.8232   26.3761 C   0  0  0  0  0  0  0  0  0  0  0  0
   11.3649    0.0776   25.1042 C   0  0  0  0  0  0  0  0  0  0  0  0
    7.5840   -0.2700   18.5160 C   0  0  0  0  0  0  0  0  0  0  0  0
    6.1460    0.6070   19.9750 C   0  0  0  0  0  0  0  0  0  0  0  0
    9.1280   -1.2090   23.4870 C   0  0  0  0  0  0  0  0  0  0  0  0
   11.9236   -0.4323   23.9322 C   0  0  0  0  0  0  0  0  0  0  0  0
    5.7970    0.9500   18.6730 C   0  0  0  0  0  0  0  0  0  0  0  0
    8.3450   -3.3440   25.0980 C   0  0  0  0  0  0  0  0  0  0  0  0
    7.2710   -0.1460   19.8310 C   0  0  0  0  0  0  0  0  0  0  0  0
   12.0086   -0.1179   26.3261 C   0  0  0  0  0  0  0  0  0  0  0  0
    7.6607   -4.3765   27.2876 C   0  0  0  0  0  0  0  0  0  0  0  0
    9.0430    0.2380   21.4940 C   0  0  0  0  0  0  0  0  0  0  0  0
    8.4364   -6.7651   27.6016 C   0  0  0  0  0  0  0  0  0  0  0  0
   11.2273   -0.2199   22.6076 C   0  0  0  0  0  0  0  0  0  0  0  0
    7.3113   -5.7655   27.8009 C   0  0  0  0  0  0  0  0  0  0  0  0
    9.5820   -0.1080   22.7000 C   0  0  1  0  0  0  0  0  0  0  0  0
    6.7100    0.3850   17.8100 N   0  0  0  0  0  0  0  0  0  0  0  0
    7.9771   -4.4057   25.9197 N   0  0  0  0  0  0  0  0  0  0  0  0
    8.0950   -0.7700   20.8440 N   0  0  0  0  0  0  0  0  0  0  0  0
    7.6510   -3.3915   28.0184 O   0  0  0  0  0  0  0  0  0  0  0  0
    9.2950    1.3000   20.9480 O   0  0  0  0  0  0  0  0  0  0  0  0
   11.3203    0.5119   27.7723 Cl  0  0  0  0  0  0  0  0  0  0  0  0
    3.6208    2.0704   21.6579 H   0  0  0  0  0  0  0  0  0  0  0  0
    2.9857    2.6926   19.3615 H   0  0  0  0  0  0  0  0  0  0  0  0
   14.7060   -1.8822   25.2425 H   0  0  0  0  0  0  0  0  0  0  0  0
    5.6664    0.7407   22.0807 H   0  0  0  0  0  0  0  0  0  0  0  0
   13.5686   -1.5384   23.0739 H   0  0  0  0  0  0  0  0  0  0  0  0
   10.2695   -2.6718   22.3873 H   0  0  0  0  0  0  0  0  0  0  0  0
    7.8712   -0.0014   24.7587 H   0  0  0  0  0  0  0  0  0  0  0  0
    4.3794    2.0106   17.4221 H   0  0  0  0  0  0  0  0  0  0  0  0
    9.5431   -4.5618   23.7801 H   0  0  0  0  0  0  0  0  0  0  0  0
    7.1923   -1.8823   26.1912 H   0  0  0  0  0  0  0  0  0  0  0  0
   13.7238   -0.9829   27.3213 H   0  0  0  0  0  0  0  0  0  0  0  0
   10.4270    0.6263   25.0600 H   0  0  0  0  0  0  0  0  0  0  0  0
    8.4172   -0.8135   18.0384 H   0  0  0  0  0  0  0  0  0  0  0  0
    8.6959   -6.8591   26.5420 H   0  0  0  0  0  0  0  0  0  0  0  0
    8.1391   -7.7519   27.9697 H   0  0  0  0  0  0  0  0  0  0  0  0
    9.3373   -6.4558   28.1416 H   0  0  0  0  0  0  0  0  0  0  0  0
   11.5842    0.7150   22.1561 H   0  0  0  0  0  0  0  0  0  0  0  0
   11.5525   -1.0164   21.9239 H   0  0  0  0  0  0  0  0  0  0  0  0
    7.0728   -5.6917   28.8682 H   0  0  0  0  0  0  0  0  0  0  0  0
    6.4147   -6.1147   27.2759 H   0  0  0  0  0  0  0  0  0  0  0  0
    9.5374    0.8439   23.4178 H   0  0  0  0  0  0  0  0  0  0  0  0
    6.6715    0.4865   16.8044 H   0  0  0  0  0  0  0  0  0  0  0  0
    7.9296   -5.3298   25.4749 H   0  0  0  0  0  0  0  0  0  0  0  0
    8.0730   -1.6176   21.0751 H   0  0  0  0  0  0  0  0  0  0  0  0
  1  2  1  0  0  0  0
  1  4  2  0  0  0  0
  2  8  2  0  0  0  0
  3  5  2  0  0  0  0
  3 11  1  0  0  0  0
  4 14  1  0  0  0  0
  5 16  1  0  0  0  0
  6  9  2  0  0  0  0
  6 15  1  0  0  0  0
  7 10  1  0  0  0  0
  7 15  2  0  0  0  0
  8 17  1  0  0  0  0
  9 18  1  0  0  0  0
 10 18  2  0  0  0  0
 11 20  2  0  0  0  0
 12 16  2  0  0  0  0
 12 20  1  0  0  0  0
 13 19  2  0  0  0  0
 13 27  1  0  0  0  0
 14 17  2  0  0  0  0
 14 19  1  0  0  0  0
 15 26  1  0  0  0  0
 16 24  1  0  0  0  0
 17 27  1  0  0  0  0
 18 28  1  0  0  0  0
 19 29  1  0  0  0  0
 20 32  1  0  0  0  0
 21 25  1  0  0  0  0
 21 28  1  0  0  0  0
 21 30  2  0  0  0  0
 22 26  1  0  0  0  0
 22 29  1  0  0  0  0
 22 31  2  0  0  0  0
 23 25  1  0  0  0  0
 24 26  1  1  0  0  0
  1 33  1  0  0  0  0
  2 34  1  0  0  0  0
  3 35  1  0  0  0  0
  4 36  1  0  0  0  0
  5 37  1  0  0  0  0
  6 38  1  0  0  0  0
  7 39  1  0  0  0  0
  8 40  1  0  0  0  0
  9 41  1  0  0  0  0
 10 42  1  0  0  0  0
 11 43  1  0  0  0  0
 12 44  1  0  0  0  0
 13 45  1  0  0  0  0
 23 46  1  0  0  0  0
 23 47  1  0  0  0  0
 23 48  1  0  0  0  0
 24 49  1  0  0  0  0
 24 50  1  0  0  0  0
 25 51  1  0  0  0  0
 25 52  1  0  0  0  0
 26 53  1  0  0  0  0
 27 54  1  0  0  0  0
 28 55  1  0  0  0  0
 29 56  1  0  0  0  0
M  END
> <clash_score>
0.7019246194212356

> <docking_score>
-4.469804763793945

> <overlap_score>
0.9140225648880005

$$$$
BENZO_286_2
  -OEChem-08232013543D

 56 59  0     1  0  0  0  0  0999 V2000
    4.2460    1.7520   20.8250 C   0  0  0  0  0  0  0  0  0  0  0  0
    3.8860    2.1050   19.5250 C   0  0  0  0  0  0  0  0  0  0  0  0
   13.0071    3.0433   23.6223 C   0  0  0  0  0  0  0  0  0  0  0  0
    5.3890    1.0010   21.0690 C   0  0  0  0  0  0  0  0  0  0  0  0
   12.0249    2.0998   23.9233 C   0  0  0  0  0  0  0  0  0  0  0  0
    9.5890   -2.4950   23.2210 C   0  0  0  0  0  0  0  0  0  0  0  0
    8.2550   -1.0010   24.5520 C   0  0  0  0  0  0  0  0  0  0  0  0
    4.6610    1.7170   18.4380 C   0  0  0  0  0  0  0  0  0  0  0  0
    9.1890   -3.5540   24.0140 C   0  0  0  0  0  0  0  0  0  0  0  0
    7.8700   -2.0610   25.3550 C   0  0  0  0  0  0  0  0  0  0  0  0
   12.7122    4.1112   22.7748 C   0  0  0  0  0  0  0  0  0  0  0  0
   10.4526    3.2920   22.5291 C   0  0  0  0  0  0  0  0  0  0  0  0
    7.5840   -0.2700   18.5160 C   0  0  0  0  0  0  0  0  0  0  0  0
    6.1460    0.6070   19.9750 C   0  0  0  0  0  0  0  0  0  0  0  0
    9.1280   -1.2090   23.4870 C   0  0  0  0  0  0  0  0  0  0  0  0
   10.7476    2.2242   23.3766 C   0  0  0  0  0  0  0  0  0  0  0  0
    5.7970    0.9500   18.6730 C   0  0  0  0  0  0  0  0  0  0  0  0
    8.3450   -3.3440   25.0980 C   0  0  0  0  0  0  0  0  0  0  0  0
    7.2710   -0.1460   19.8310 C   0  0  0  0  0  0  0  0  0  0  0  0
   11.4349    4.2356   22.2282 C   0  0  0  0  0  0  0  0  0  0  0  0
    8.2026   -4.5566   27.2975 C   0  0  0  0  0  0  0  0  0  0  0  0
    9.0430    0.2380   21.4940 C   0  0  0  0  0  0  0  0  0  0  0  0
    7.8889   -6.0882   29.2879 C   0  0  0  0  0  0  0  0  0  0  0  0
    9.6841    1.2008   23.7022 C   0  0  0  0  0  0  0  0  0  0  0  0
    7.6343   -5.8728   27.8068 C   0  0  0  0  0  0  0  0  0  0  0  0
    9.5820   -0.1080   22.7000 C   0  0  2  0  0  0  0  0  0  0  0  0
    6.7100    0.3850   17.8100 N   0  0  0  0  0  0  0  0  0  0  0  0
    7.9771   -4.4057   25.9197 N   0  0  0  0  0  0  0  0  0  0  0  0
    8.0950   -0.7700   20.8440 N   0  0  0  0  0  0  0  0  0  0  0  0
    8.7749   -3.7648   28.0392 O   0  0  0  0  0  0  0  0  0  0  0  0
    9.2950    1.3000   20.9480 O   0  0  0  0  0  0  0  0  0  0  0  0
   11.0719    5.5527   21.1817 Cl  0  0  0  0  0  0  0  0  0  0  0  0
    3.6208    2.0704   21.6579 H   0  0  0  0  0  0  0  0  0  0  0  0
    2.9857    2.6926   19.3615 H   0  0  0  0  0  0  0  0  0  0  0  0
   14.0017    2.9460   24.0481 H   0  0  0  0  0  0  0  0  0  0  0  0
    5.6664    0.7407   22.0807 H   0  0  0  0  0  0  0  0  0  0  0  0
   12.2636    1.2709   24.5845 H   0  0  0  0  0  0  0  0  0  0  0  0
   10.2695   -2.6718   22.3873 H   0  0  0  0  0  0  0  0  0  0  0  0
    7.8712   -0.0014   24.7587 H   0  0  0  0  0  0  0  0  0  0  0  0
    4.3794    2.0106   17.4221 H   0  0  0  0  0  0  0  0  0  0  0  0
    9.5431   -4.5618   23.7801 H   0  0  0  0  0  0  0  0  0  0  0  0
    7.1923   -1.8823   26.1912 H   0  0  0  0  0  0  0  0  0  0  0  0
   13.4877    4.8389   22.5488 H   0  0  0  0  0  0  0  0  0  0  0  0
    9.4551    3.3848   22.1058 H   0  0  0  0  0  0  0  0  0  0  0  0
    8.4172   -0.8135   18.0384 H   0  0  0  0  0  0  0  0  0  0  0  0
    8.9616   -6.0836   29.5073 H   0  0  0  0  0  0  0  0  0  0  0  0
    7.4783   -7.0503   29.6092 H   0  0  0  0  0  0  0  0  0  0  0  0
    7.4206   -5.2995   29.8860 H   0  0  0  0  0  0  0  0  0  0  0  0
    9.7989    0.8777   24.7451 H   0  0  0  0  0  0  0  0  0  0  0  0
    8.7078    1.7032   23.6586 H   0  0  0  0  0  0  0  0  0  0  0  0
    6.5549   -5.8821   27.6165 H   0  0  0  0  0  0  0  0  0  0  0  0
    8.0869   -6.6912   27.2352 H   0  0  0  0  0  0  0  0  0  0  0  0
   10.7539   -0.2760   22.5528 H   0  0  0  0  0  0  0  0  0  0  0  0
    6.6715    0.4865   16.8044 H   0  0  0  0  0  0  0  0  0  0  0  0
    7.4775   -5.1797   25.4665 H   0  0  0  0  0  0  0  0  0  0  0  0
    8.0730   -1.6176   21.0751 H   0  0  0  0  0  0  0  0  0  0  0  0
  1  2  1  0  0  0  0
  1  4  2  0  0  0  0
  2  8  2  0  0  0  0
  3  5  2  0  0  0  0
  3 11  1  0  0  0  0
  4 14  1  0  0  0  0
  5 16  1  0  0  0  0
  6  9  2  0  0  0  0
  6 15  1  0  0  0  0
  7 10  1  0  0  0  0
  7 15  2  0  0  0  0
  8 17  1  0  0  0  0
  9 18  1  0  0  0  0
 10 18  2  0  0  0  0
 11 20  2  0  0  0  0
 12 16  2  0  0  0  0
 12 20  1  0  0  0  0
 13 19  2  0  0  0  0
 13 27  1  0  0  0  0
 14 17  2  0  0  0  0
 14 19  1  0  0  0  0
 15 26  1  0  0  0  0
 16 24  1  0  0  0  0
 17 27  1  0  0  0  0
 18 28  1  0  0  0  0
 19 29  1  0  0  0  0
 20 32  1  0  0  0  0
 21 25  1  0  0  0  0
 21 28  1  0  0  0  0
 21 30  2  0  0  0  0
 22 26  1  0  0  0  0
 22 29  1  0  0  0  0
 22 31  2  0  0  0  0
 23 25  1  0  0  0  0
 24 26  1  6  0  0  0
  1 33  1  0  0  0  0
  2 34  1  0  0  0  0
  3 35  1  0  0  0  0
  4 36  1  0  0  0  0
  5 37  1  0  0  0  0
  6 38  1  0  0  0  0
  7 39  1  0  0  0  0
  8 40  1  0  0  0  0
  9 41  1  0  0  0  0
 10 42  1  0  0  0  0
 11 43  1  0  0  0  0
 12 44  1  0  0  0  0
 13 45  1  0  0  0  0
 23 46  1  0  0  0  0
 23 47  1  0  0  0  0
 23 48  1  0  0  0  0
 24 49  1  0  0  0  0
 24 50  1  0  0  0  0
 25 51  1  0  0  0  0
 25 52  1  0  0  0  0
 26 53  1  0  0  0  0
 27 54  1  0  0  0  0
 28 55  1  0  0  0  0
 29 56  1  0  0  0  0
M  END
> <clash_score>
0.74095146364203

> <docking_score>
-5.024837017059326

> <overlap_score>
0.8378973603248596

$$$$
BENZO_289_1
  -OEChem-08232013543D

 61 65  0     1  0  0  0  0  0999 V2000
   12.7867    1.1712   26.6741 C   0  0  0  0  0  0  0  0  0  0  0  0
    4.2460    1.7520   20.8250 C   0  0  0  0  0  0  0  0  0  0  0  0
   11.5946    1.8532   26.9175 C   0  0  0  0  0  0  0  0  0  0  0  0
   12.9730    0.5019   25.4645 C   0  0  0  0  0  0  0  0  0  0  0  0
    3.8860    2.1050   19.5250 C   0  0  0  0  0  0  0  0  0  0  0  0
    5.3890    1.0010   21.0690 C   0  0  0  0  0  0  0  0  0  0  0  0
   10.5886    1.8659   25.9513 C   0  0  0  0  0  0  0  0  0  0  0  0
   11.9671    0.5146   24.4983 C   0  0  0  0  0  0  0  0  0  0  0  0
    9.5890   -2.4950   23.2210 C   0  0  0  0  0  0  0  0  0  0  0  0
    8.2550   -1.0010   24.5520 C   0  0  0  0  0  0  0  0  0  0  0  0
    4.6610    1.7170   18.4380 C   0  0  0  0  0  0  0  0  0  0  0  0
    9.1890   -3.5540   24.0140 C   0  0  0  0  0  0  0  0  0  0  0  0
    7.8700   -2.0610   25.3550 C   0  0  0  0  0  0  0  0  0  0  0  0
    7.5840   -0.2700   18.5160 C   0  0  0  0  0  0  0  0  0  0  0  0
    6.1460    0.6070   19.9750 C   0  0  0  0  0  0  0  0  0  0  0  0
   10.7749    1.1966   24.7417 C   0  0  0  0  0  0  0  0  0  0  0  0
    9.1280   -1.2090   23.4870 C   0  0  0  0  0  0  0  0  0  0  0  0
    5.7970    0.9500   18.6730 C   0  0  0  0  0  0  0  0  0  0  0  0
    8.3450   -3.3440   25.0980 C   0  0  0  0  0  0  0  0  0  0  0  0
    7.2710   -0.1460   19.8310 C   0  0  0  0  0  0  0  0  0  0  0  0
    9.0430    0.2380   21.4940 C   0  0  0  0  0  0  0  0  0  0  0  0
    7.9496   -4.9537   28.7345 C   0  0  0  0  0  0  0  0  0  0  0  0
    6.8919   -4.0607   28.0818 C   0  0  0  0  0  0  0  0  0  0  0  0
    9.2470   -4.9693   27.9230 C   0  0  0  0  0  0  0  0  0  0  0  0
    6.6889   -4.4385   26.6147 C   0  0  0  0  0  0  0  0  0  0  0  0
    8.9871   -5.3207   26.4549 C   0  0  0  0  0  0  0  0  0  0  0  0
    9.6852    1.2097   23.6944 C   0  0  0  0  0  0  0  0  0  0  0  0
    9.5820   -0.1080   22.7000 C   0  0  1  0  0  0  0  0  0  0  0  0
    6.7100    0.3850   17.8100 N   0  0  0  0  0  0  0  0  0  0  0  0
    7.9769   -4.4027   25.9163 N   0  0  0  0  0  0  0  0  0  0  0  0
    8.0950   -0.7700   20.8440 N   0  0  0  0  0  0  0  0  0  0  0  0
    9.2950    1.3000   20.9480 O   0  0  0  0  0  0  0  0  0  0  0  0
   13.5704    1.1625   27.4260 H   0  0  0  0  0  0  0  0  0  0  0  0
    3.6208    2.0704   21.6579 H   0  0  0  0  0  0  0  0  0  0  0  0
   11.4498    2.3753   27.8588 H   0  0  0  0  0  0  0  0  0  0  0  0
   13.9015   -0.0282   25.2743 H   0  0  0  0  0  0  0  0  0  0  0  0
    2.9857    2.6926   19.3615 H   0  0  0  0  0  0  0  0  0  0  0  0
    5.6664    0.7407   22.0807 H   0  0  0  0  0  0  0  0  0  0  0  0
    9.6629    2.3997   26.1496 H   0  0  0  0  0  0  0  0  0  0  0  0
   12.1210   -0.0097   23.5589 H   0  0  0  0  0  0  0  0  0  0  0  0
   10.2684   -2.6719   22.3867 H   0  0  0  0  0  0  0  0  0  0  0  0
    7.8717   -0.0016   24.7596 H   0  0  0  0  0  0  0  0  0  0  0  0
    4.3794    2.0106   17.4221 H   0  0  0  0  0  0  0  0  0  0  0  0
    9.5443   -4.5616   23.7817 H   0  0  0  0  0  0  0  0  0  0  0  0
    7.1921   -1.8821   26.1908 H   0  0  0  0  0  0  0  0  0  0  0  0
    8.4172   -0.8135   18.0384 H   0  0  0  0  0  0  0  0  0  0  0  0
    8.1558   -4.5961   29.7550 H   0  0  0  0  0  0  0  0  0  0  0  0
    7.5611   -5.9778   28.8324 H   0  0  0  0  0  0  0  0  0  0  0  0
    5.9459   -4.1594   28.6209 H   0  0  0  0  0  0  0  0  0  0  0  0
    7.2011   -3.0160   28.1536 H   0  0  0  0  0  0  0  0  0  0  0  0
    9.7290   -3.9880   27.9846 H   0  0  0  0  0  0  0  0  0  0  0  0
    9.9437   -5.6964   28.3562 H   0  0  0  0  0  0  0  0  0  0  0  0
    6.2543   -5.4402   26.5659 H   0  0  0  0  0  0  0  0  0  0  0  0
    5.9909   -3.7397   26.1451 H   0  0  0  0  0  0  0  0  0  0  0  0
    9.9128   -5.2367   25.8843 H   0  0  0  0  0  0  0  0  0  0  0  0
    8.6365   -6.3517   26.3987 H   0  0  0  0  0  0  0  0  0  0  0  0
    8.7197    1.4079   24.1780 H   0  0  0  0  0  0  0  0  0  0  0  0
    9.8623    2.0699   23.0340 H   0  0  0  0  0  0  0  0  0  0  0  0
   10.7567   -0.2690   22.5478 H   0  0  0  0  0  0  0  0  0  0  0  0
    6.6715    0.4865   16.8044 H   0  0  0  0  0  0  0  0  0  0  0  0
    8.0917   -1.6083   21.0911 H   0  0  0  0  0  0  0  0  0  0  0  0
  1  3  1  0  0  0  0
  1  4  2  0  0  0  0
  2  5  1  0  0  0  0
  2  6  2  0  0  0  0
  3  7  2  0  0  0  0
  4  8  1  0  0  0  0
  5 11  2  0  0  0  0
  6 15  1  0  0  0  0
  7 16  1  0  0  0  0
  8 16  2  0  0  0  0
  9 12  2  0  0  0  0
  9 17  1  0  0  0  0
 10 13  1  0  0  0  0
 10 17  2  0  0  0  0
 11 18  1  0  0  0  0
 12 19  1  0  0  0  0
 13 19  2  0  0  0  0
 14 20  2  0  0  0  0
 14 29  1  0  0  0  0
 15 18  2  0  0  0  0
 15 20  1  0  0  0  0
 16 27  1  0  0  0  0
 17 28  1  0  0  0  0
 18 29  1  0  0  0  0
 19 30  1  0  0  0  0
 20 31  1  0  0  0  0
 21 28  1  1  0  0  0
 21 31  1  0  0  0  0
 21 32  2  0  0  0  0
 22 23  1  0  0  0  0
 22 24  1  0  0  0  0
 23 25  1  0  0  0  0
 24 26  1  0  0  0  0
 25 30  1  0  0  0  0
 26 30  1  0  0  0  0
 27 28  1  0  0  0  0
  1 33  1  0  0  0  0
  2 34  1  0  0  0  0
  3 35  1  0  0  0  0
  4 36  1  0  0  0  0
  5 37  1  0  0  0  0
  6 38  1  0  0  0  0
  7 39  1  0  0  0  0
  8 40  1  0  0  0  0
  9 41  1  0  0  0  0
 10 42  1  0  0  0  0
 11 43  1  0  0  0  0
 12 44  1  0  0  0  0
 13 45  1  0  0  0  0
 14 46  1  0  0  0  0
 22 47  1  0  0  0  0
 22 48  1  0  0  0  0
 23 49  1  0  0  0  0
 23 50  1  0  0  0  0
 24 51  1  0  0  0  0
 24 52  1  0  0  0  0
 25 53  1  0  0  0  0
 25 54  1  0  0  0  0
 26 55  1  0  0  0  0
 26 56  1  0  0  0  0
 27 57  1  0  0  0  0
 27 58  1  0  0  0  0
 28 59  1  0  0  0  0
 29 60  1  0  0  0  0
 31 61  1  0  0  0  0
M  END
> <clash_score>
4.412390761190569

> <docking_score>
-4.095004081726074

> <overlap_score>
0.8484475016593933

$$$$
BENZO_288_1
  -OEChem-08232013543D

 58 62  0     1  0  0  0  0  0999 V2000
    4.2460    1.7520   20.8250 C   0  0  0  0  0  0  0  0  0  0  0  0
    3.8860    2.1050   19.5250 C   0  0  0  0  0  0  0  0  0  0  0  0
    5.3890    1.0010   21.0690 C   0  0  0  0  0  0  0  0  0  0  0  0
    9.5890   -2.4950   23.2210 C   0  0  0  0  0  0  0  0  0  0  0  0
    8.2550   -1.0010   24.5520 C   0  0  0  0  0  0  0  0  0  0  0  0
    4.6610    1.7170   18.4380 C   0  0  0  0  0  0  0  0  0  0  0  0
    9.1890   -3.5540   24.0140 C   0  0  0  0  0  0  0  0  0  0  0  0
    7.8700   -2.0610   25.3550 C   0  0  0  0  0  0  0  0  0  0  0  0
   12.1512    0.9670   24.4534 C   0  0  0  0  0  0  0  0  0  0  0  0
    7.5840   -0.2700   18.5160 C   0  0  0  0  0  0  0  0  0  0  0  0
   12.9313    1.0078   25.5880 C   0  0  0  0  0  0  0  0  0  0  0  0
   10.5554    1.4038   26.0859 C   0  0  0  0  0  0  0  0  0  0  0  0
    6.1460    0.6070   19.9750 C   0  0  0  0  0  0  0  0  0  0  0  0
    9.1280   -1.2090   23.4870 C   0  0  0  0  0  0  0  0  0  0  0  0
   10.7749    1.1966   24.7417 C   0  0  0  0  0  0  0  0  0  0  0  0
    5.7970    0.9500   18.6730 C   0  0  0  0  0  0  0  0  0  0  0  0
    8.3450   -3.3440   25.0980 C   0  0  0  0  0  0  0  0  0  0  0  0
    7.2710   -0.1460   19.8310 C   0  0  0  0  0  0  0  0  0  0  0  0
    9.0430    0.2380   21.4940 C   0  0  0  0  0  0  0  0  0  0  0  0
    7.5761   -4.8248   28.7286 C   0  0  0  0  0  0  0  0  0  0  0  0
    8.9786   -4.7540   28.1202 C   0  0  0  0  0  0  0  0  0  0  0  0
    6.5567   -4.0681   27.8739 C   0  0  0  0  0  0  0  0  0  0  0  0
    8.9617   -5.1961   26.6571 C   0  0  0  0  0  0  0  0  0  0  0  0
    6.6010   -4.5235   26.4120 C   0  0  0  0  0  0  0  0  0  0  0  0
    9.6852    1.2097   23.6944 C   0  0  0  0  0  0  0  0  0  0  0  0
    9.5820   -0.1080   22.7000 C   0  0  1  0  0  0  0  0  0  0  0  0
    6.7100    0.3850   17.8100 N   0  0  0  0  0  0  0  0  0  0  0  0
    7.9769   -4.4028   25.9163 N   0  0  0  0  0  0  0  0  0  0  0  0
    8.0950   -0.7700   20.8440 N   0  0  0  0  0  0  0  0  0  0  0  0
    9.2950    1.3000   20.9480 O   0  0  0  0  0  0  0  0  0  0  0  0
   12.0050    1.3216   26.9937 S   0  0  0  0  0  0  0  0  0  0  0  0
    3.6208    2.0704   21.6579 H   0  0  0  0  0  0  0  0  0  0  0  0
    2.9857    2.6926   19.3615 H   0  0  0  0  0  0  0  0  0  0  0  0
    5.6664    0.7407   22.0807 H   0  0  0  0  0  0  0  0  0  0  0  0
   10.2684   -2.6719   22.3867 H   0  0  0  0  0  0  0  0  0  0  0  0
    7.8717   -0.0016   24.7596 H   0  0  0  0  0  0  0  0  0  0  0  0
    4.3794    2.0106   17.4221 H   0  0  0  0  0  0  0  0  0  0  0  0
    9.5443   -4.5616   23.7817 H   0  0  0  0  0  0  0  0  0  0  0  0
    7.1921   -1.8821   26.1908 H   0  0  0  0  0  0  0  0  0  0  0  0
   12.5530    0.7806   23.4654 H   0  0  0  0  0  0  0  0  0  0  0  0
    8.4172   -0.8135   18.0384 H   0  0  0  0  0  0  0  0  0  0  0  0
   14.0007    0.8676   25.6589 H   0  0  0  0  0  0  0  0  0  0  0  0
    9.6149    1.5987   26.5824 H   0  0  0  0  0  0  0  0  0  0  0  0
    7.2686   -5.8772   28.8258 H   0  0  0  0  0  0  0  0  0  0  0  0
    7.5913   -4.4060   29.7452 H   0  0  0  0  0  0  0  0  0  0  0  0
    9.3572   -3.7308   28.1906 H   0  0  0  0  0  0  0  0  0  0  0  0
    9.6566   -5.3928   28.6900 H   0  0  0  0  0  0  0  0  0  0  0  0
    5.5511   -4.2278   28.2766 H   0  0  0  0  0  0  0  0  0  0  0  0
    6.7568   -2.9917   27.9288 H   0  0  0  0  0  0  0  0  0  0  0  0
    9.9607   -5.0572   26.2357 H   0  0  0  0  0  0  0  0  0  0  0  0
    8.7084   -6.2581   26.5936 H   0  0  0  0  0  0  0  0  0  0  0  0
    6.2641   -5.5580   26.3358 H   0  0  0  0  0  0  0  0  0  0  0  0
    5.9273   -3.8947   25.8292 H   0  0  0  0  0  0  0  0  0  0  0  0
    8.7197    1.4079   24.1780 H   0  0  0  0  0  0  0  0  0  0  0  0
    9.8623    2.0699   23.0340 H   0  0  0  0  0  0  0  0  0  0  0  0
   10.7567   -0.2690   22.5478 H   0  0  0  0  0  0  0  0  0  0  0  0
    6.6715    0.4865   16.8044 H   0  0  0  0  0  0  0  0  0  0  0  0
    8.0917   -1.6083   21.0911 H   0  0  0  0  0  0  0  0  0  0  0  0
  1  2  1  0  0  0  0
  1  3  2  0  0  0  0
  2  6  2  0  0  0  0
  3 13  1  0  0  0  0
  4  7  2  0  0  0  0
  4 14  1  0  0  0  0
  5  8  1  0  0  0  0
  5 14  2  0  0  0  0
  6 16  1  0  0  0  0
  7 17  1  0  0  0  0
  8 17  2  0  0  0  0
  9 11  2  0  0  0  0
  9 15  1  0  0  0  0
 10 18  2  0  0  0  0
 10 27  1  0  0  0  0
 11 31  1  0  0  0  0
 12 15  2  0  0  0  0
 12 31  1  0  0  0  0
 13 16  2  0  0  0  0
 13 18  1  0  0  0  0
 14 26  1  0  0  0  0
 15 25  1  0  0  0  0
 16 27  1  0  0  0  0
 17 28  1  0  0  0  0
 18 29  1  0  0  0  0
 19 26  1  1  0  0  0
 19 29  1  0  0  0  0
 19 30  2  0  0  0  0
 20 21  1  0  0  0  0
 20 22  1  0  0  0  0
 21 23  1  0  0  0  0
 22 24  1  0  0  0  0
 23 28  1  0  0  0  0
 24 28  1  0  0  0  0
 25 26  1  0  0  0  0
  1 32  1  0  0  0  0
  2 33  1  0  0  0  0
  3 34  1  0  0  0  0
  4 35  1  0  0  0  0
  5 36  1  0  0  0  0
  6 37  1  0  0  0  0
  7 38  1  0  0  0  0
  8 39  1  0  0  0  0
  9 40  1  0  0  0  0
 10 41  1  0  0  0  0
 11 42  1  0  0  0  0
 12 43  1  0  0  0  0
 20 44  1  0  0  0  0
 20 45  1  0  0  0  0
 21 46  1  0  0  0  0
 21 47  1  0  0  0  0
 22 48  1  0  0  0  0
 22 49  1  0  0  0  0
 23 50  1  0  0  0  0
 23 51  1  0  0  0  0
 24 52  1  0  0  0  0
 24 53  1  0  0  0  0
 25 54  1  0  0  0  0
 25 55  1  0  0  0  0
 26 56  1  0  0  0  0
 27 57  1  0  0  0  0
 29 58  1  0  0  0  0
M  END
> <clash_score>
2.6880314190474834

> <docking_score>
-4.504995346069336

> <overlap_score>
0.8419069051742554

$$$$
BENZO_288_2
  -OEChem-08232013543D

 58 62  0     1  0  0  0  0  0999 V2000
    4.2460    1.7520   20.8250 C   0  0  0  0  0  0  0  0  0  0  0  0
    3.8860    2.1050   19.5250 C   0  0  0  0  0  0  0  0  0  0  0  0
    5.3890    1.0010   21.0690 C   0  0  0  0  0  0  0  0  0  0  0  0
    9.5890   -2.4950   23.2210 C   0  0  0  0  0  0  0  0  0  0  0  0
    8.2550   -1.0010   24.5520 C   0  0  0  0  0  0  0  0  0  0  0  0
    4.6610    1.7170   18.4380 C   0  0  0  0  0  0  0  0  0  0  0  0
    9.1890   -3.5540   24.0140 C   0  0  0  0  0  0  0  0  0  0  0  0
    7.8700   -2.0610   25.3550 C   0  0  0  0  0  0  0  0  0  0  0  0
   13.2184   -0.5267   24.2342 C   0  0  0  0  0  0  0  0  0  0  0  0
    7.5840   -0.2700   18.5160 C   0  0  0  0  0  0  0  0  0  0  0  0
   13.6684   -0.1076   25.4669 C   0  0  0  0  0  0  0  0  0  0  0  0
   11.5072    0.9085   24.8781 C   0  0  0  0  0  0  0  0  0  0  0  0
    6.1460    0.6070   19.9750 C   0  0  0  0  0  0  0  0  0  0  0  0
    9.1280   -1.2090   23.4870 C   0  0  0  0  0  0  0  0  0  0  0  0
   11.9665    0.0619   23.8930 C   0  0  0  0  0  0  0  0  0  0  0  0
    5.7970    0.9500   18.6730 C   0  0  0  0  0  0  0  0  0  0  0  0
    8.3450   -3.3440   25.0980 C   0  0  0  0  0  0  0  0  0  0  0  0
    7.2710   -0.1460   19.8310 C   0  0  0  0  0  0  0  0  0  0  0  0
    9.0430    0.2380   21.4940 C   0  0  0  0  0  0  0  0  0  0  0  0
    7.5761   -4.8248   28.7286 C   0  0  0  0  0  0  0  0  0  0  0  0
    8.9786   -4.7540   28.1202 C   0  0  0  0  0  0  0  0  0  0  0  0
    6.5567   -4.0681   27.8739 C   0  0  0  0  0  0  0  0  0  0  0  0
    8.9617   -5.1961   26.6571 C   0  0  0  0  0  0  0  0  0  0  0  0
    6.6010   -4.5235   26.4120 C   0  0  0  0  0  0  0  0  0  0  0  0
   11.2301   -0.2124   22.6019 C   0  0  0  0  0  0  0  0  0  0  0  0
    9.5820   -0.1080   22.7000 C   0  0  2  0  0  0  0  0  0  0  0  0
    6.7100    0.3850   17.8100 N   0  0  0  0  0  0  0  0  0  0  0  0
    7.9769   -4.4028   25.9163 N   0  0  0  0  0  0  0  0  0  0  0  0
    8.0950   -0.7700   20.8440 N   0  0  0  0  0  0  0  0  0  0  0  0
    9.2950    1.3000   20.9480 O   0  0  0  0  0  0  0  0  0  0  0  0
   12.5835    0.9912   26.2073 S   0  0  0  0  0  0  0  0  0  0  0  0
    3.6208    2.0704   21.6579 H   0  0  0  0  0  0  0  0  0  0  0  0
    2.9857    2.6926   19.3615 H   0  0  0  0  0  0  0  0  0  0  0  0
    5.6664    0.7407   22.0807 H   0  0  0  0  0  0  0  0  0  0  0  0
   10.2684   -2.6719   22.3867 H   0  0  0  0  0  0  0  0  0  0  0  0
    7.8717   -0.0016   24.7596 H   0  0  0  0  0  0  0  0  0  0  0  0
    4.3794    2.0106   17.4221 H   0  0  0  0  0  0  0  0  0  0  0  0
    9.5443   -4.5616   23.7817 H   0  0  0  0  0  0  0  0  0  0  0  0
    7.1921   -1.8821   26.1908 H   0  0  0  0  0  0  0  0  0  0  0  0
   13.7644   -1.2231   23.6104 H   0  0  0  0  0  0  0  0  0  0  0  0
    8.4172   -0.8135   18.0384 H   0  0  0  0  0  0  0  0  0  0  0  0
   14.5818   -0.3944   25.9683 H   0  0  0  0  0  0  0  0  0  0  0  0
   10.5914    1.4831   24.8852 H   0  0  0  0  0  0  0  0  0  0  0  0
    7.2686   -5.8772   28.8258 H   0  0  0  0  0  0  0  0  0  0  0  0
    7.5913   -4.4060   29.7452 H   0  0  0  0  0  0  0  0  0  0  0  0
    9.3572   -3.7308   28.1906 H   0  0  0  0  0  0  0  0  0  0  0  0
    9.6566   -5.3928   28.6900 H   0  0  0  0  0  0  0  0  0  0  0  0
    5.5511   -4.2278   28.2766 H   0  0  0  0  0  0  0  0  0  0  0  0
    6.7568   -2.9917   27.9288 H   0  0  0  0  0  0  0  0  0  0  0  0
    9.9607   -5.0572   26.2357 H   0  0  0  0  0  0  0  0  0  0  0  0
    8.7084   -6.2581   26.5936 H   0  0  0  0  0  0  0  0  0  0  0  0
    6.2641   -5.5580   26.3358 H   0  0  0  0  0  0  0  0  0  0  0  0
    5.9273   -3.8947   25.8292 H   0  0  0  0  0  0  0  0  0  0  0  0
   11.5483    0.5130   21.8418 H   0  0  0  0  0  0  0  0  0  0  0  0
   11.5601   -1.1911   22.2267 H   0  0  0  0  0  0  0  0  0  0  0  0
    9.5402    0.8508   23.4127 H   0  0  0  0  0  0  0  0  0  0  0  0
    6.6715    0.4865   16.8044 H   0  0  0  0  0  0  0  0  0  0  0  0
    8.0917   -1.6083   21.0911 H   0  0  0  0  0  0  0  0  0  0  0  0
  1  2  1  0  0  0  0
  1  3  2  0  0  0  0
  2  6  2  0  0  0  0
  3 13  1  0  0  0  0
  4  7  2  0  0  0  0
  4 14  1  0  0  0  0
  5  8  1  0  0  0  0
  5 14  2  0  0  0  0
  6 16  1  0  0  0  0
  7 17  1  0  0  0  0
  8 17  2  0  0  0  0
  9 11  2  0  0  0  0
  9 15  1  0  0  0  0
 10 18  2  0  0  0  0
 10 27  1  0  0  0  0
 11 31  1  0  0  0  0
 12 15  2  0  0  0  0
 12 31  1  0  0  0  0
 13 16  2  0  0  0  0
 13 18  1  0  0  0  0
 14 26  1  0  0  0  0
 15 25  1  0  0  0  0
 16 27  1  0  0  0  0
 17 28  1  0  0  0  0
 18 29  1  0  0  0  0
 19 26  1  6  0  0  0
 19 29  1  0  0  0  0
 19 30  2  0  0  0  0
 20 21  1  0  0  0  0
 20 22  1  0  0  0  0
 21 23  1  0  0  0  0
 22 24  1  0  0  0  0
 23 28  1  0  0  0  0
 24 28  1  0  0  0  0
 25 26  1  0  0  0  0
  1 32  1  0  0  0  0
  2 33  1  0  0  0  0
  3 34  1  0  0  0  0
  4 35  1  0  0  0  0
  5 36  1  0  0  0  0
  6 37  1  0  0  0  0
  7 38  1  0  0  0  0
  8 39  1  0  0  0  0
  9 40  1  0  0  0  0
 10 41  1  0  0  0  0
 11 42  1  0  0  0  0
 12 43  1  0  0  0  0
 20 44  1  0  0  0  0
 20 45  1  0  0  0  0
 21 46  1  0  0  0  0
 21 47  1  0  0  0  0
 22 48  1  0  0  0  0
 22 49  1  0  0  0  0
 23 50  1  0  0  0  0
 23 51  1  0  0  0  0
 24 52  1  0  0  0  0
 24 53  1  0  0  0  0
 25 54  1  0  0  0  0
 25 55  1  0  0  0  0
 26 56  1  0  0  0  0
 27 57  1  0  0  0  0
 29 58  1  0  0  0  0
M  END
> <clash_score>
0.7105916266505203

> <docking_score>
-6.564210891723633

> <overlap_score>
0.9129956364631653

$$$$
BENZO_289_2
  -OEChem-08232013543D

 61 65  0     1  0  0  0  0  0999 V2000
   13.2443   -0.7791   26.3598 C   0  0  0  0  0  0  0  0  0  0  0  0
    4.2460    1.7520   20.8250 C   0  0  0  0  0  0  0  0  0  0  0  0
   13.7975   -1.2944   25.1876 C   0  0  0  0  0  0  0  0  0  0  0  0
   12.0380   -0.0803   26.3132 C   0  0  0  0  0  0  0  0  0  0  0  0
    3.8860    2.1050   19.5250 C   0  0  0  0  0  0  0  0  0  0  0  0
    5.3890    1.0010   21.0690 C   0  0  0  0  0  0  0  0  0  0  0  0
   13.1445   -1.1108   23.9688 C   0  0  0  0  0  0  0  0  0  0  0  0
   11.3850    0.1033   25.0944 C   0  0  0  0  0  0  0  0  0  0  0  0
    9.5890   -2.4950   23.2210 C   0  0  0  0  0  0  0  0  0  0  0  0
    8.2550   -1.0010   24.5520 C   0  0  0  0  0  0  0  0  0  0  0  0
    4.6610    1.7170   18.4380 C   0  0  0  0  0  0  0  0  0  0  0  0
    9.1890   -3.5540   24.0140 C   0  0  0  0  0  0  0  0  0  0  0  0
    7.8700   -2.0610   25.3550 C   0  0  0  0  0  0  0  0  0  0  0  0
    7.5840   -0.2700   18.5160 C   0  0  0  0  0  0  0  0  0  0  0  0
    6.1460    0.6070   19.9750 C   0  0  0  0  0  0  0  0  0  0  0  0
   11.9382   -0.4119   23.9222 C   0  0  0  0  0  0  0  0  0  0  0  0
    9.1280   -1.2090   23.4870 C   0  0  0  0  0  0  0  0  0  0  0  0
    5.7970    0.9500   18.6730 C   0  0  0  0  0  0  0  0  0  0  0  0
    8.3450   -3.3440   25.0980 C   0  0  0  0  0  0  0  0  0  0  0  0
    7.2710   -0.1460   19.8310 C   0  0  0  0  0  0  0  0  0  0  0  0
    9.0430    0.2380   21.4940 C   0  0  0  0  0  0  0  0  0  0  0  0
    7.9496   -4.9537   28.7345 C   0  0  0  0  0  0  0  0  0  0  0  0
    6.8919   -4.0607   28.0818 C   0  0  0  0  0  0  0  0  0  0  0  0
    9.2470   -4.9693   27.9230 C   0  0  0  0  0  0  0  0  0  0  0  0
    6.6889   -4.4385   26.6147 C   0  0  0  0  0  0  0  0  0  0  0  0
    8.9871   -5.3207   26.4549 C   0  0  0  0  0  0  0  0  0  0  0  0
   11.2301   -0.2124   22.6019 C   0  0  0  0  0  0  0  0  0  0  0  0
    9.5820   -0.1080   22.7000 C   0  0  2  0  0  0  0  0  0  0  0  0
    6.7100    0.3850   17.8100 N   0  0  0  0  0  0  0  0  0  0  0  0
    7.9769   -4.4027   25.9163 N   0  0  0  0  0  0  0  0  0  0  0  0
    8.0950   -0.7700   20.8440 N   0  0  0  0  0  0  0  0  0  0  0  0
    9.2950    1.3000   20.9480 O   0  0  0  0  0  0  0  0  0  0  0  0
   13.7523   -0.9233   27.3089 H   0  0  0  0  0  0  0  0  0  0  0  0
    3.6208    2.0704   21.6579 H   0  0  0  0  0  0  0  0  0  0  0  0
   14.7362   -1.8395   25.2238 H   0  0  0  0  0  0  0  0  0  0  0  0
   11.6065    0.3201   27.2258 H   0  0  0  0  0  0  0  0  0  0  0  0
    2.9857    2.6926   19.3615 H   0  0  0  0  0  0  0  0  0  0  0  0
    5.6664    0.7407   22.0807 H   0  0  0  0  0  0  0  0  0  0  0  0
   13.5830   -1.5156   23.0605 H   0  0  0  0  0  0  0  0  0  0  0  0
   10.4456    0.6492   25.0677 H   0  0  0  0  0  0  0  0  0  0  0  0
   10.2684   -2.6719   22.3867 H   0  0  0  0  0  0  0  0  0  0  0  0
    7.8717   -0.0016   24.7596 H   0  0  0  0  0  0  0  0  0  0  0  0
    4.3794    2.0106   17.4221 H   0  0  0  0  0  0  0  0  0  0  0  0
    9.5443   -4.5616   23.7817 H   0  0  0  0  0  0  0  0  0  0  0  0
    7.1921   -1.8821   26.1908 H   0  0  0  0  0  0  0  0  0  0  0  0
    8.4172   -0.8135   18.0384 H   0  0  0  0  0  0  0  0  0  0  0  0
    8.1558   -4.5961   29.7550 H   0  0  0  0  0  0  0  0  0  0  0  0
    7.5611   -5.9778   28.8324 H   0  0  0  0  0  0  0  0  0  0  0  0
    5.9459   -4.1594   28.6209 H   0  0  0  0  0  0  0  0  0  0  0  0
    7.2011   -3.0160   28.1536 H   0  0  0  0  0  0  0  0  0  0  0  0
    9.7290   -3.9880   27.9846 H   0  0  0  0  0  0  0  0  0  0  0  0
    9.9437   -5.6964   28.3562 H   0  0  0  0  0  0  0  0  0  0  0  0
    6.2543   -5.4402   26.5659 H   0  0  0  0  0  0  0  0  0  0  0  0
    5.9909   -3.7397   26.1451 H   0  0  0  0  0  0  0  0  0  0  0  0
    9.9128   -5.2367   25.8843 H   0  0  0  0  0  0  0  0  0  0  0  0
    8.6365   -6.3517   26.3987 H   0  0  0  0  0  0  0  0  0  0  0  0
   11.5792    0.7206   22.1405 H   0  0  0  0  0  0  0  0  0  0  0  0
   11.5533   -1.0125   21.9215 H   0  0  0  0  0  0  0  0  0  0  0  0
    9.5402    0.8508   23.4127 H   0  0  0  0  0  0  0  0  0  0  0  0
    6.6715    0.4865   16.8044 H   0  0  0  0  0  0  0  0  0  0  0  0
    8.0917   -1.6083   21.0911 H   0  0  0  0  0  0  0  0  0  0  0  0
  1  3  1  0  0  0  0
  1  4  2  0  0  0  0
  2  5  1  0  0  0  0
  2  6  2  0  0  0  0
  3  7  2  0  0  0  0
  4  8  1  0  0  0  0
  5 11  2  0  0  0  0
  6 15  1  0  0  0  0
  7 16  1  0  0  0  0
  8 16  2  0  0  0  0
  9 12  2  0  0  0  0
  9 17  1  0  0  0  0
 10 13  1  0  0  0  0
 10 17  2  0  0  0  0
 11 18  1  0  0  0  0
 12 19  1  0  0  0  0
 13 19  2  0  0  0  0
 14 20  2  0  0  0  0
 14 29  1  0  0  0  0
 15 18  2  0  0  0  0
 15 20  1  0  0  0  0
 16 27  1  0  0  0  0
 17 28  1  0  0  0  0
 18 29  1  0  0  0  0
 19 30  1  0  0  0  0
 20 31  1  0  0  0  0
 21 28  1  6  0  0  0
 21 31  1  0  0  0  0
 21 32  2  0  0  0  0
 22 23  1  0  0  0  0
 22 24  1  0  0  0  0
 23 25  1  0  0  0  0
 24 26  1  0  0  0  0
 25 30  1  0  0  0  0
 26 30  1  0  0  0  0
 27 28  1  0  0  0  0
  1 33  1  0  0  0  0
  2 34  1  0  0  0  0
  3 35  1  0  0  0  0
  4 36  1  0  0  0  0
  5 37  1  0  0  0  0
  6 38  1  0  0  0  0
  7 39  1  0  0  0  0
  8 40  1  0  0  0  0
  9 41  1  0  0  0  0
 10 42  1  0  0  0  0
 11 43  1  0  0  0  0
 12 44  1  0  0  0  0
 13 45  1  0  0  0  0
 14 46  1  0  0  0  0
 22 47  1  0  0  0  0
 22 48  1  0  0  0  0
 23 49  1  0  0  0  0
 23 50  1  0  0  0  0
 24 51  1  0  0  0  0
 24 52  1  0  0  0  0
 25 53  1  0  0  0  0
 25 54  1  0  0  0  0
 26 55  1  0  0  0  0
 26 56  1  0  0  0  0
 27 57  1  0  0  0  0
 27 58  1  0  0  0  0
 28 59  1  0  0  0  0
 29 60  1  0  0  0  0
 31 61  1  0  0  0  0
M  END
> <clash_score>
0

> <docking_score>
-5.998766899108887

> <overlap_score>
0.9206491112709045

$$$$
BENZO_287_1
  -OEChem-08232013543D

 56 59  0     1  0  0  0  0  0999 V2000
    4.2460    1.7520   20.8250 C   0  0  0  0  0  0  0  0  0  0  0  0
    3.8860    2.1050   19.5250 C   0  0  0  0  0  0  0  0  0  0  0  0
    5.3890    1.0010   21.0690 C   0  0  0  0  0  0  0  0  0  0  0  0
    9.5890   -2.4950   23.2210 C   0  0  0  0  0  0  0  0  0  0  0  0
    8.2550   -1.0010   24.5520 C   0  0  0  0  0  0  0  0  0  0  0  0
    4.6610    1.7170   18.4380 C   0  0  0  0  0  0  0  0  0  0  0  0
    9.1890   -3.5540   24.0140 C   0  0  0  0  0  0  0  0  0  0  0  0
    7.8700   -2.0610   25.3550 C   0  0  0  0  0  0  0  0  0  0  0  0
   13.3049   -0.5618   24.1710 C   0  0  0  0  0  0  0  0  0  0  0  0
   11.3488   -0.5397   25.1750 C   0  0  0  0  0  0  0  0  0  0  0  0
    7.5840   -0.2700   18.5160 C   0  0  0  0  0  0  0  0  0  0  0  0
    6.1460    0.6070   19.9750 C   0  0  0  0  0  0  0  0  0  0  0  0
    9.1280   -1.2090   23.4870 C   0  0  0  0  0  0  0  0  0  0  0  0
   11.9236   -0.4323   23.9322 C   0  0  0  0  0  0  0  0  0  0  0  0
    5.7970    0.9500   18.6730 C   0  0  0  0  0  0  0  0  0  0  0  0
    8.3450   -3.3440   25.0980 C   0  0  0  0  0  0  0  0  0  0  0  0
    7.2710   -0.1460   19.8310 C   0  0  0  0  0  0  0  0  0  0  0  0
    7.6607   -4.3765   27.2876 C   0  0  0  0  0  0  0  0  0  0  0  0
    9.0430    0.2380   21.4940 C   0  0  0  0  0  0  0  0  0  0  0  0
    6.9961   -5.7804   29.2859 C   0  0  0  0  0  0  0  0  0  0  0  0
   12.2730   -0.8833   27.4785 C   0  0  0  0  0  0  0  0  0  0  0  0
   11.2273   -0.2199   22.6076 C   0  0  0  0  0  0  0  0  0  0  0  0
    7.3113   -5.7655   27.8009 C   0  0  0  0  0  0  0  0  0  0  0  0
    9.5820   -0.1080   22.7000 C   0  0  1  0  0  0  0  0  0  0  0  0
   13.5904   -0.7378   25.4638 N   0  0  0  0  0  0  0  0  0  0  0  0
    6.7100    0.3850   17.8100 N   0  0  0  0  0  0  0  0  0  0  0  0
   12.3805   -0.7196   26.0486 N   0  0  0  0  0  0  0  0  0  0  0  0
    7.9771   -4.4057   25.9197 N   0  0  0  0  0  0  0  0  0  0  0  0
    8.0950   -0.7700   20.8440 N   0  0  0  0  0  0  0  0  0  0  0  0
    7.6510   -3.3915   28.0184 O   0  0  0  0  0  0  0  0  0  0  0  0
    9.2950    1.3000   20.9480 O   0  0  0  0  0  0  0  0  0  0  0  0
    3.6208    2.0704   21.6579 H   0  0  0  0  0  0  0  0  0  0  0  0
    2.9857    2.6926   19.3615 H   0  0  0  0  0  0  0  0  0  0  0  0
    5.6664    0.7407   22.0807 H   0  0  0  0  0  0  0  0  0  0  0  0
   10.2695   -2.6718   22.3873 H   0  0  0  0  0  0  0  0  0  0  0  0
    7.8712   -0.0014   24.7587 H   0  0  0  0  0  0  0  0  0  0  0  0
    4.3794    2.0106   17.4221 H   0  0  0  0  0  0  0  0  0  0  0  0
    9.5431   -4.5618   23.7801 H   0  0  0  0  0  0  0  0  0  0  0  0
    7.1923   -1.8823   26.1912 H   0  0  0  0  0  0  0  0  0  0  0  0
   14.1173   -0.5347   23.4586 H   0  0  0  0  0  0  0  0  0  0  0  0
   10.3191   -0.5030   25.5040 H   0  0  0  0  0  0  0  0  0  0  0  0
    8.4172   -0.8135   18.0384 H   0  0  0  0  0  0  0  0  0  0  0  0
    7.8457   -5.4147   29.8719 H   0  0  0  0  0  0  0  0  0  0  0  0
    6.7654   -6.7978   29.6163 H   0  0  0  0  0  0  0  0  0  0  0  0
    6.1341   -5.1438   29.5112 H   0  0  0  0  0  0  0  0  0  0  0  0
   12.1730   -1.9514   27.6891 H   0  0  0  0  0  0  0  0  0  0  0  0
   13.1690   -0.4811   27.9595 H   0  0  0  0  0  0  0  0  0  0  0  0
   11.3970   -0.3376   27.8399 H   0  0  0  0  0  0  0  0  0  0  0  0
   11.5842    0.7150   22.1561 H   0  0  0  0  0  0  0  0  0  0  0  0
   11.5525   -1.0164   21.9239 H   0  0  0  0  0  0  0  0  0  0  0  0
    6.4454   -6.1356   27.2399 H   0  0  0  0  0  0  0  0  0  0  0  0
    8.1569   -6.4333   27.5999 H   0  0  0  0  0  0  0  0  0  0  0  0
    9.5374    0.8439   23.4178 H   0  0  0  0  0  0  0  0  0  0  0  0
    6.6715    0.4865   16.8044 H   0  0  0  0  0  0  0  0  0  0  0  0
    7.9296   -5.3298   25.4749 H   0  0  0  0  0  0  0  0  0  0  0  0
    8.0730   -1.6176   21.0751 H   0  0  0  0  0  0  0  0  0  0  0  0
  1  2  1  0  0  0  0
  1  3  2  0  0  0  0
  2  6  2  0  0  0  0
  3 12  1  0  0  0  0
  4  7  2  0  0  0  0
  4 13  1  0  0  0  0
  5  8  1  0  0  0  0
  5 13  2  0  0  0  0
  6 15  1  0  0  0  0
  7 16  1  0  0  0  0
  8 16  2  0  0  0  0
  9 14  1  0  0  0  0
  9 25  2  0  0  0  0
 10 14  2  0  0  0  0
 10 27  1  0  0  0  0
 11 17  2  0  0  0  0
 11 26  1  0  0  0  0
 12 15  2  0  0  0  0
 12 17  1  0  0  0  0
 13 24  1  0  0  0  0
 14 22  1  0  0  0  0
 15 26  1  0  0  0  0
 16 28  1  0  0  0  0
 17 29  1  0  0  0  0
 18 23  1  0  0  0  0
 18 28  1  0  0  0  0
 18 30  2  0  0  0  0
 19 24  1  0  0  0  0
 19 29  1  0  0  0  0
 19 31  2  0  0  0  0
 20 23  1  0  0  0  0
 21 27  1  0  0  0  0
 22 24  1  1  0  0  0
 25 27  1  0  0  0  0
  1 32  1  0  0  0  0
  2 33  1  0  0  0  0
  3 34  1  0  0  0  0
  4 35  1  0  0  0  0
  5 36  1  0  0  0  0
  6 37  1  0  0  0  0
  7 38  1  0  0  0  0
  8 39  1  0  0  0  0
  9 40  1  0  0  0  0
 10 41  1  0  0  0  0
 11 42  1  0  0  0  0
 20 43  1  0  0  0  0
 20 44  1  0  0  0  0
 20 45  1  0  0  0  0
 21 46  1  0  0  0  0
 21 47  1  0  0  0  0
 21 48  1  0  0  0  0
 22 49  1  0  0  0  0
 22 50  1  0  0  0  0
 23 51  1  0  0  0  0
 23 52  1  0  0  0  0
 24 53  1  0  0  0  0
 26 54  1  0  0  0  0
 28 55  1  0  0  0  0
 29 56  1  0  0  0  0
M  END
> <clash_score>
0.6627992652691737

> <docking_score>
-6.650930404663086

> <overlap_score>
0.912557065486908

$$$$
BENZO_287_2
  -OEChem-08232013543D

 56 59  0     1  0  0  0  0  0999 V2000
    4.2460    1.7520   20.8250 C   0  0  0  0  0  0  0  0  0  0  0  0
    3.8860    2.1050   19.5250 C   0  0  0  0  0  0  0  0  0  0  0  0
    5.3890    1.0010   21.0690 C   0  0  0  0  0  0  0  0  0  0  0  0
    9.5890   -2.4950   23.2210 C   0  0  0  0  0  0  0  0  0  0  0  0
    8.2550   -1.0010   24.5520 C   0  0  0  0  0  0  0  0  0  0  0  0
    4.6610    1.7170   18.4380 C   0  0  0  0  0  0  0  0  0  0  0  0
    9.1890   -3.5540   24.0140 C   0  0  0  0  0  0  0  0  0  0  0  0
    7.8700   -2.0610   25.3550 C   0  0  0  0  0  0  0  0  0  0  0  0
   11.9902    2.0095   22.7508 C   0  0  0  0  0  0  0  0  0  0  0  0
   10.7163    3.5749   23.6235 C   0  0  0  0  0  0  0  0  0  0  0  0
    7.5840   -0.2700   18.5160 C   0  0  0  0  0  0  0  0  0  0  0  0
    6.1460    0.6070   19.9750 C   0  0  0  0  0  0  0  0  0  0  0  0
    9.1280   -1.2090   23.4870 C   0  0  0  0  0  0  0  0  0  0  0  0
   10.7476    2.2242   23.3766 C   0  0  0  0  0  0  0  0  0  0  0  0
    5.7970    0.9500   18.6730 C   0  0  0  0  0  0  0  0  0  0  0  0
    8.3450   -3.3440   25.0980 C   0  0  0  0  0  0  0  0  0  0  0  0
    7.2710   -0.1460   19.8310 C   0  0  0  0  0  0  0  0  0  0  0  0
    8.2026   -4.5566   27.2975 C   0  0  0  0  0  0  0  0  0  0  0  0
    9.0430    0.2380   21.4940 C   0  0  0  0  0  0  0  0  0  0  0  0
    7.8889   -6.0882   29.2879 C   0  0  0  0  0  0  0  0  0  0  0  0
   12.3234    5.4461   23.1826 C   0  0  0  0  0  0  0  0  0  0  0  0
    9.6841    1.2008   23.7022 C   0  0  0  0  0  0  0  0  0  0  0  0
    7.6343   -5.8728   27.8068 C   0  0  0  0  0  0  0  0  0  0  0  0
    9.5820   -0.1080   22.7000 C   0  0  2  0  0  0  0  0  0  0  0  0
   12.6970    3.1339   22.6087 N   0  0  0  0  0  0  0  0  0  0  0  0
    6.7100    0.3850   17.8100 N   0  0  0  0  0  0  0  0  0  0  0  0
   11.8960    4.0681   23.1487 N   0  0  0  0  0  0  0  0  0  0  0  0
    7.9771   -4.4057   25.9197 N   0  0  0  0  0  0  0  0  0  0  0  0
    8.0950   -0.7700   20.8440 N   0  0  0  0  0  0  0  0  0  0  0  0
    8.7749   -3.7648   28.0392 O   0  0  0  0  0  0  0  0  0  0  0  0
    9.2950    1.3000   20.9480 O   0  0  0  0  0  0  0  0  0  0  0  0
    3.6208    2.0704   21.6579 H   0  0  0  0  0  0  0  0  0  0  0  0
    2.9857    2.6926   19.3615 H   0  0  0  0  0  0  0  0  0  0  0  0
    5.6664    0.7407   22.0807 H   0  0  0  0  0  0  0  0  0  0  0  0
   10.2695   -2.6718   22.3873 H   0  0  0  0  0  0  0  0  0  0  0  0
    7.8712   -0.0014   24.7587 H   0  0  0  0  0  0  0  0  0  0  0  0
    4.3794    2.0106   17.4221 H   0  0  0  0  0  0  0  0  0  0  0  0
    9.5431   -4.5618   23.7801 H   0  0  0  0  0  0  0  0  0  0  0  0
    7.1923   -1.8823   26.1912 H   0  0  0  0  0  0  0  0  0  0  0  0
   12.4119    1.0818   22.3906 H   0  0  0  0  0  0  0  0  0  0  0  0
    9.9730    4.2116   24.0840 H   0  0  0  0  0  0  0  0  0  0  0  0
    8.4172   -0.8135   18.0384 H   0  0  0  0  0  0  0  0  0  0  0  0
    8.9616   -6.0836   29.5073 H   0  0  0  0  0  0  0  0  0  0  0  0
    7.4783   -7.0503   29.6092 H   0  0  0  0  0  0  0  0  0  0  0  0
    7.4206   -5.2995   29.8860 H   0  0  0  0  0  0  0  0  0  0  0  0
   12.8637    5.6088   24.1189 H   0  0  0  0  0  0  0  0  0  0  0  0
   12.9734    5.6469   22.3264 H   0  0  0  0  0  0  0  0  0  0  0  0
   11.4470    6.0978   23.1275 H   0  0  0  0  0  0  0  0  0  0  0  0
    9.7989    0.8777   24.7451 H   0  0  0  0  0  0  0  0  0  0  0  0
    8.7078    1.7032   23.6586 H   0  0  0  0  0  0  0  0  0  0  0  0
    6.5549   -5.8821   27.6165 H   0  0  0  0  0  0  0  0  0  0  0  0
    8.0869   -6.6912   27.2352 H   0  0  0  0  0  0  0  0  0  0  0  0
   10.7539   -0.2760   22.5528 H   0  0  0  0  0  0  0  0  0  0  0  0
    6.6715    0.4865   16.8044 H   0  0  0  0  0  0  0  0  0  0  0  0
    7.4775   -5.1797   25.4665 H   0  0  0  0  0  0  0  0  0  0  0  0
    8.0730   -1.6176   21.0751 H   0  0  0  0  0  0  0  0  0  0  0  0
  1  2  1  0  0  0  0
  1  3  2  0  0  0  0
  2  6  2  0  0  0  0
  3 12  1  0  0  0  0
  4  7  2  0  0  0  0
  4 13  1  0  0  0  0
  5  8  1  0  0  0  0
  5 13  2  0  0  0  0
  6 15  1  0  0  0  0
  7 16  1  0  0  0  0
  8 16  2  0  0  0  0
  9 14  1  0  0  0  0
  9 25  2  0  0  0  0
 10 14  2  0  0  0  0
 10 27  1  0  0  0  0
 11 17  2  0  0  0  0
 11 26  1  0  0  0  0
 12 15  2  0  0  0  0
 12 17  1  0  0  0  0
 13 24  1  0  0  0  0
 14 22  1  0  0  0  0
 15 26  1  0  0  0  0
 16 28  1  0  0  0  0
 17 29  1  0  0  0  0
 18 23  1  0  0  0  0
 18 28  1  0  0  0  0
 18 30  2  0  0  0  0
 19 24  1  0  0  0  0
 19 29  1  0  0  0  0
 19 31  2  0  0  0  0
 20 23  1  0  0  0  0
 21 27  1  0  0  0  0
 22 24  1  6  0  0  0
 25 27  1  0  0  0  0
  1 32  1  0  0  0  0
  2 33  1  0  0  0  0
  3 34  1  0  0  0  0
  4 35  1  0  0  0  0
  5 36  1  0  0  0  0
  6 37  1  0  0  0  0
  7 38  1  0  0  0  0
  8 39  1  0  0  0  0
  9 40  1  0  0  0  0
 10 41  1  0  0  0  0
 11 42  1  0  0  0  0
 20 43  1  0  0  0  0
 20 44  1  0  0  0  0
 20 45  1  0  0  0  0
 21 46  1  0  0  0  0
 21 47  1  0  0  0  0
 21 48  1  0  0  0  0
 22 49  1  0  0  0  0
 22 50  1  0  0  0  0
 23 51  1  0  0  0  0
 23 52  1  0  0  0  0
 24 53  1  0  0  0  0
 26 54  1  0  0  0  0
 28 55  1  0  0  0  0
 29 56  1  0  0  0  0
M  END
> <clash_score>
0

> <docking_score>
-7.6353654861450195

> <overlap_score>
0.8391058444976807

$$$$
BENZO_293_1
  -OEChem-08232013543D

 49 52  0     1  0  0  0  0  0999 V2000
   13.2081   -0.8233   26.3776 C   0  0  0  0  0  0  0  0  0  0  0  0
    4.2460    1.7520   20.8250 C   0  0  0  0  0  0  0  0  0  0  0  0
   13.7678   -1.3337   25.2064 C   0  0  0  0  0  0  0  0  0  0  0  0
   12.0060   -0.1174   26.3261 C   0  0  0  0  0  0  0  0  0  0  0  0
    3.8860    2.1050   19.5250 C   0  0  0  0  0  0  0  0  0  0  0  0
    5.3890    1.0010   21.0690 C   0  0  0  0  0  0  0  0  0  0  0  0
   13.1256   -1.1382   23.9837 C   0  0  0  0  0  0  0  0  0  0  0  0
   11.3638    0.0781   25.1034 C   0  0  0  0  0  0  0  0  0  0  0  0
    9.1890   -3.5540   24.0140 C   0  0  0  0  0  0  0  0  0  0  0  0
    7.8700   -2.0610   25.3550 C   0  0  0  0  0  0  0  0  0  0  0  0
    9.5890   -2.4950   23.2210 C   0  0  0  0  0  0  0  0  0  0  0  0
    8.2550   -1.0010   24.5520 C   0  0  0  0  0  0  0  0  0  0  0  0
    4.6610    1.7170   18.4380 C   0  0  0  0  0  0  0  0  0  0  0  0
    7.5840   -0.2700   18.5160 C   0  0  0  0  0  0  0  0  0  0  0  0
    6.1460    0.6070   19.9750 C   0  0  0  0  0  0  0  0  0  0  0  0
    8.3450   -3.3440   25.0980 C   0  0  0  0  0  0  0  0  0  0  0  0
   11.9236   -0.4323   23.9322 C   0  0  0  0  0  0  0  0  0  0  0  0
    9.1280   -1.2090   23.4870 C   0  0  0  0  0  0  0  0  0  0  0  0
    5.7970    0.9500   18.6730 C   0  0  0  0  0  0  0  0  0  0  0  0
    7.2710   -0.1460   19.8310 C   0  0  0  0  0  0  0  0  0  0  0  0
    9.0430    0.2380   21.4940 C   0  0  0  0  0  0  0  0  0  0  0  0
    7.9517   -4.4787   25.9770 C   0  0  0  0  0  0  0  0  0  0  0  0
   11.2273   -0.2199   22.6076 C   0  0  0  0  0  0  0  0  0  0  0  0
    9.5820   -0.1080   22.7000 C   0  0  1  0  0  0  0  0  0  0  0  0
    6.7100    0.3850   17.8100 N   0  0  0  0  0  0  0  0  0  0  0  0
    8.0950   -0.7700   20.8440 N   0  0  0  0  0  0  0  0  0  0  0  0
    9.2950    1.3000   20.9480 O   0  0  0  0  0  0  0  0  0  0  0  0
   13.7076   -0.9768   27.3297 H   0  0  0  0  0  0  0  0  0  0  0  0
    3.6208    2.0704   21.6579 H   0  0  0  0  0  0  0  0  0  0  0  0
   14.7032   -1.8843   25.2464 H   0  0  0  0  0  0  0  0  0  0  0  0
   11.5694    0.2792   27.2379 H   0  0  0  0  0  0  0  0  0  0  0  0
    2.9857    2.6926   19.3615 H   0  0  0  0  0  0  0  0  0  0  0  0
    5.6664    0.7407   22.0807 H   0  0  0  0  0  0  0  0  0  0  0  0
   13.5692   -1.5394   23.0762 H   0  0  0  0  0  0  0  0  0  0  0  0
   10.4277    0.6294   25.0729 H   0  0  0  0  0  0  0  0  0  0  0  0
    9.5416   -4.5625   23.7818 H   0  0  0  0  0  0  0  0  0  0  0  0
    7.1926   -1.8847   26.1916 H   0  0  0  0  0  0  0  0  0  0  0  0
   10.2688   -2.6720   22.3870 H   0  0  0  0  0  0  0  0  0  0  0  0
    7.8705   -0.0015   24.7579 H   0  0  0  0  0  0  0  0  0  0  0  0
    4.3794    2.0106   17.4221 H   0  0  0  0  0  0  0  0  0  0  0  0
    8.4172   -0.8135   18.0384 H   0  0  0  0  0  0  0  0  0  0  0  0
    8.6661   -4.5883   26.8021 H   0  0  0  0  0  0  0  0  0  0  0  0
    6.9508   -4.3263   26.4014 H   0  0  0  0  0  0  0  0  0  0  0  0
    7.9188   -5.4228   25.4175 H   0  0  0  0  0  0  0  0  0  0  0  0
   11.5842    0.7150   22.1561 H   0  0  0  0  0  0  0  0  0  0  0  0
   11.5525   -1.0164   21.9239 H   0  0  0  0  0  0  0  0  0  0  0  0
    9.5374    0.8439   23.4178 H   0  0  0  0  0  0  0  0  0  0  0  0
    6.6715    0.4865   16.8044 H   0  0  0  0  0  0  0  0  0  0  0  0
    8.0730   -1.6176   21.0751 H   0  0  0  0  0  0  0  0  0  0  0  0
  1  3  1  0  0  0  0
  1  4  2  0  0  0  0
  2  5  1  0  0  0  0
  2  6  2  0  0  0  0
  3  7  2  0  0  0  0
  4  8  1  0  0  0  0
  5 13  2  0  0  0  0
  6 15  1  0  0  0  0
  7 17  1  0  0  0  0
  8 17  2  0  0  0  0
  9 11  2  0  0  0  0
  9 16  1  0  0  0  0
 10 12  1  0  0  0  0
 10 16  2  0  0  0  0
 11 18  1  0  0  0  0
 12 18  2  0  0  0  0
 13 19  1  0  0  0  0
 14 20  2  0  0  0  0
 14 25  1  0  0  0  0
 15 19  2  0  0  0  0
 15 20  1  0  0  0  0
 16 22  1  0  0  0  0
 17 23  1  0  0  0  0
 18 24  1  0  0  0  0
 19 25  1  0  0  0  0
 20 26  1  0  0  0  0
 21 24  1  0  0  0  0
 21 26  1  0  0  0  0
 21 27  2  0  0  0  0
 23 24  1  1  0  0  0
  1 28  1  0  0  0  0
  2 29  1  0  0  0  0
  3 30  1  0  0  0  0
  4 31  1  0  0  0  0
  5 32  1  0  0  0  0
  6 33  1  0  0  0  0
  7 34  1  0  0  0  0
  8 35  1  0  0  0  0
  9 36  1  0  0  0  0
 10 37  1  0  0  0  0
 11 38  1  0  0  0  0
 12 39  1  0  0  0  0
 13 40  1  0  0  0  0
 14 41  1  0  0  0  0
 22 42  1  0  0  0  0
 22 43  1  0  0  0  0
 22 44  1  0  0  0  0
 23 45  1  0  0  0  0
 23 46  1  0  0  0  0
 24 47  1  0  0  0  0
 25 48  1  0  0  0  0
 26 49  1  0  0  0  0
M  END
> <clash_score>
0

> <docking_score>
-5.172096252441406

> <overlap_score>
0.830979585647583

$$$$
BENZO_292_1
  -OEChem-08232013543D

 46 49  0     1  0  0  0  0  0999 V2000
    4.2460    1.7520   20.8250 C   0  0  0  0  0  0  0  0  0  0  0  0
    3.8860    2.1050   19.5250 C   0  0  0  0  0  0  0  0  0  0  0  0
    5.3890    1.0010   21.0690 C   0  0  0  0  0  0  0  0  0  0  0  0
    9.1890   -3.5540   24.0140 C   0  0  0  0  0  0  0  0  0  0  0  0
    7.8700   -2.0610   25.3550 C   0  0  0  0  0  0  0  0  0  0  0  0
    9.5890   -2.4950   23.2210 C   0  0  0  0  0  0  0  0  0  0  0  0
    8.2550   -1.0010   24.5520 C   0  0  0  0  0  0  0  0  0  0  0  0
    4.6610    1.7170   18.4380 C   0  0  0  0  0  0  0  0  0  0  0  0
   13.1524   -1.1384   24.0797 C   0  0  0  0  0  0  0  0  0  0  0  0
    7.5840   -0.2700   18.5160 C   0  0  0  0  0  0  0  0  0  0  0  0
   13.5671   -1.1866   25.3924 C   0  0  0  0  0  0  0  0  0  0  0  0
   11.4459    0.0321   25.1380 C   0  0  0  0  0  0  0  0  0  0  0  0
    6.1460    0.6070   19.9750 C   0  0  0  0  0  0  0  0  0  0  0  0
    8.3450   -3.3440   25.0980 C   0  0  0  0  0  0  0  0  0  0  0  0
    9.1280   -1.2090   23.4870 C   0  0  0  0  0  0  0  0  0  0  0  0
   11.9236   -0.4323   23.9322 C   0  0  0  0  0  0  0  0  0  0  0  0
    5.7970    0.9500   18.6730 C   0  0  0  0  0  0  0  0  0  0  0  0
    7.2710   -0.1460   19.8310 C   0  0  0  0  0  0  0  0  0  0  0  0
    9.0430    0.2380   21.4940 C   0  0  0  0  0  0  0  0  0  0  0  0
    7.9517   -4.4787   25.9770 C   0  0  0  0  0  0  0  0  0  0  0  0
   11.2273   -0.2199   22.6076 C   0  0  0  0  0  0  0  0  0  0  0  0
    9.5820   -0.1080   22.7000 C   0  0  1  0  0  0  0  0  0  0  0  0
    6.7100    0.3850   17.8100 N   0  0  0  0  0  0  0  0  0  0  0  0
    8.0950   -0.7700   20.8440 N   0  0  0  0  0  0  0  0  0  0  0  0
    9.2950    1.3000   20.9480 O   0  0  0  0  0  0  0  0  0  0  0  0
   12.4772   -0.3829   26.4405 S   0  0  0  0  0  0  0  0  0  0  0  0
    3.6208    2.0704   21.6579 H   0  0  0  0  0  0  0  0  0  0  0  0
    2.9857    2.6926   19.3615 H   0  0  0  0  0  0  0  0  0  0  0  0
    5.6664    0.7407   22.0807 H   0  0  0  0  0  0  0  0  0  0  0  0
    9.5416   -4.5625   23.7818 H   0  0  0  0  0  0  0  0  0  0  0  0
    7.1926   -1.8847   26.1916 H   0  0  0  0  0  0  0  0  0  0  0  0
   10.2688   -2.6720   22.3870 H   0  0  0  0  0  0  0  0  0  0  0  0
    7.8705   -0.0015   24.7579 H   0  0  0  0  0  0  0  0  0  0  0  0
    4.3794    2.0106   17.4221 H   0  0  0  0  0  0  0  0  0  0  0  0
   13.7070   -1.5901   23.2669 H   0  0  0  0  0  0  0  0  0  0  0  0
    8.4172   -0.8135   18.0384 H   0  0  0  0  0  0  0  0  0  0  0  0
   14.4576   -1.6558   25.7862 H   0  0  0  0  0  0  0  0  0  0  0  0
   10.5407    0.5945   25.3209 H   0  0  0  0  0  0  0  0  0  0  0  0
    8.6661   -4.5883   26.8021 H   0  0  0  0  0  0  0  0  0  0  0  0
    6.9508   -4.3263   26.4014 H   0  0  0  0  0  0  0  0  0  0  0  0
    7.9188   -5.4228   25.4175 H   0  0  0  0  0  0  0  0  0  0  0  0
   11.5842    0.7150   22.1561 H   0  0  0  0  0  0  0  0  0  0  0  0
   11.5525   -1.0164   21.9239 H   0  0  0  0  0  0  0  0  0  0  0  0
    9.5374    0.8439   23.4178 H   0  0  0  0  0  0  0  0  0  0  0  0
    6.6715    0.4865   16.8044 H   0  0  0  0  0  0  0  0  0  0  0  0
    8.0730   -1.6176   21.0751 H   0  0  0  0  0  0  0  0  0  0  0  0
  1  2  1  0  0  0  0
  1  3  2  0  0  0  0
  2  8  2  0  0  0  0
  3 13  1  0  0  0  0
  4  6  2  0  0  0  0
  4 14  1  0  0  0  0
  5  7  1  0  0  0  0
  5 14  2  0  0  0  0
  6 15  1  0  0  0  0
  7 15  2  0  0  0  0
  8 17  1  0  0  0  0
  9 11  2  0  0  0  0
  9 16  1  0  0  0  0
 10 18  2  0  0  0  0
 10 23  1  0  0  0  0
 11 26  1  0  0  0  0
 12 16  2  0  0  0  0
 12 26  1  0  0  0  0
 13 17  2  0  0  0  0
 13 18  1  0  0  0  0
 14 20  1  0  0  0  0
 15 22  1  0  0  0  0
 16 21  1  0  0  0  0
 17 23  1  0  0  0  0
 18 24  1  0  0  0  0
 19 22  1  0  0  0  0
 19 24  1  0  0  0  0
 19 25  2  0  0  0  0
 21 22  1  1  0  0  0
  1 27  1  0  0  0  0
  2 28  1  0  0  0  0
  3 29  1  0  0  0  0
  4 30  1  0  0  0  0
  5 31  1  0  0  0  0
  6 32  1  0  0  0  0
  7 33  1  0  0  0  0
  8 34  1  0  0  0  0
  9 35  1  0  0  0  0
 10 36  1  0  0  0  0
 11 37  1  0  0  0  0
 12 38  1  0  0  0  0
 20 39  1  0  0  0  0
 20 40  1  0  0  0  0
 20 41  1  0  0  0  0
 21 42  1  0  0  0  0
 21 43  1  0  0  0  0
 22 44  1  0  0  0  0
 23 45  1  0  0  0  0
 24 46  1  0  0  0  0
M  END
> <clash_score>
0

> <docking_score>
-5.676913261413574

> <overlap_score>
0.8273112773895264

$$$$
BENZO_292_2
  -OEChem-08232013543D

 46 49  0     1  0  0  0  0  0999 V2000
    4.2460    1.7520   20.8250 C   0  0  0  0  0  0  0  0  0  0  0  0
    3.8860    2.1050   19.5250 C   0  0  0  0  0  0  0  0  0  0  0  0
    5.3890    1.0010   21.0690 C   0  0  0  0  0  0  0  0  0  0  0  0
    9.1890   -3.5540   24.0140 C   0  0  0  0  0  0  0  0  0  0  0  0
    7.8700   -2.0610   25.3550 C   0  0  0  0  0  0  0  0  0  0  0  0
    9.5890   -2.4950   23.2210 C   0  0  0  0  0  0  0  0  0  0  0  0
    8.2550   -1.0010   24.5520 C   0  0  0  0  0  0  0  0  0  0  0  0
    4.6610    1.7170   18.4380 C   0  0  0  0  0  0  0  0  0  0  0  0
   11.7386    0.4828   25.1094 C   0  0  0  0  0  0  0  0  0  0  0  0
    7.5840   -0.2700   18.5160 C   0  0  0  0  0  0  0  0  0  0  0  0
   12.1652    0.4005   26.4166 C   0  0  0  0  0  0  0  0  0  0  0  0
    9.8792    1.2919   26.2454 C   0  0  0  0  0  0  0  0  0  0  0  0
    6.1460    0.6070   19.9750 C   0  0  0  0  0  0  0  0  0  0  0  0
    8.3450   -3.3440   25.0980 C   0  0  0  0  0  0  0  0  0  0  0  0
    9.1280   -1.2090   23.4870 C   0  0  0  0  0  0  0  0  0  0  0  0
   10.4144    0.9993   25.0101 C   0  0  0  0  0  0  0  0  0  0  0  0
    5.7970    0.9500   18.6730 C   0  0  0  0  0  0  0  0  0  0  0  0
    7.2710   -0.1460   19.8310 C   0  0  0  0  0  0  0  0  0  0  0  0
    9.0430    0.2380   21.4940 C   0  0  0  0  0  0  0  0  0  0  0  0
    7.9517   -4.4787   25.9770 C   0  0  0  0  0  0  0  0  0  0  0  0
    9.6841    1.2008   23.7022 C   0  0  0  0  0  0  0  0  0  0  0  0
    9.5820   -0.1080   22.7000 C   0  0  2  0  0  0  0  0  0  0  0  0
    6.7100    0.3850   17.8100 N   0  0  0  0  0  0  0  0  0  0  0  0
    8.0950   -0.7700   20.8440 N   0  0  0  0  0  0  0  0  0  0  0  0
    9.2950    1.3000   20.9480 O   0  0  0  0  0  0  0  0  0  0  0  0
   10.9716    0.9444   27.5174 S   0  0  0  0  0  0  0  0  0  0  0  0
    3.6208    2.0704   21.6579 H   0  0  0  0  0  0  0  0  0  0  0  0
    2.9857    2.6926   19.3615 H   0  0  0  0  0  0  0  0  0  0  0  0
    5.6664    0.7407   22.0807 H   0  0  0  0  0  0  0  0  0  0  0  0
    9.5416   -4.5625   23.7818 H   0  0  0  0  0  0  0  0  0  0  0  0
    7.1926   -1.8847   26.1916 H   0  0  0  0  0  0  0  0  0  0  0  0
   10.2688   -2.6720   22.3870 H   0  0  0  0  0  0  0  0  0  0  0  0
    7.8705   -0.0015   24.7579 H   0  0  0  0  0  0  0  0  0  0  0  0
    4.3794    2.0106   17.4221 H   0  0  0  0  0  0  0  0  0  0  0  0
   12.3506    0.1851   24.2673 H   0  0  0  0  0  0  0  0  0  0  0  0
    8.4172   -0.8135   18.0384 H   0  0  0  0  0  0  0  0  0  0  0  0
   13.1203    0.0464   26.7779 H   0  0  0  0  0  0  0  0  0  0  0  0
    8.8993    1.6920   26.4662 H   0  0  0  0  0  0  0  0  0  0  0  0
    8.6661   -4.5883   26.8021 H   0  0  0  0  0  0  0  0  0  0  0  0
    6.9508   -4.3263   26.4014 H   0  0  0  0  0  0  0  0  0  0  0  0
    7.9188   -5.4228   25.4175 H   0  0  0  0  0  0  0  0  0  0  0  0
    8.6850    1.6088   23.9038 H   0  0  0  0  0  0  0  0  0  0  0  0
   10.2105    1.9839   23.1390 H   0  0  0  0  0  0  0  0  0  0  0  0
   10.7539   -0.2760   22.5528 H   0  0  0  0  0  0  0  0  0  0  0  0
    6.6715    0.4865   16.8044 H   0  0  0  0  0  0  0  0  0  0  0  0
    8.0730   -1.6176   21.0751 H   0  0  0  0  0  0  0  0  0  0  0  0
  1  2  1  0  0  0  0
  1  3  2  0  0  0  0
  2  8  2  0  0  0  0
  3 13  1  0  0  0  0
  4  6  2  0  0  0  0
  4 14  1  0  0  0  0
  5  7  1  0  0  0  0
  5 14  2  0  0  0  0
  6 15  1  0  0  0  0
  7 15  2  0  0  0  0
  8 17  1  0  0  0  0
  9 11  2  0  0  0  0
  9 16  1  0  0  0  0
 10 18  2  0  0  0  0
 10 23  1  0  0  0  0
 11 26  1  0  0  0  0
 12 16  2  0  0  0  0
 12 26  1  0  0  0  0
 13 17  2  0  0  0  0
 13 18  1  0  0  0  0
 14 20  1  0  0  0  0
 15 22  1  0  0  0  0
 16 21  1  0  0  0  0
 17 23  1  0  0  0  0
 18 24  1  0  0  0  0
 19 22  1  0  0  0  0
 19 24  1  0  0  0  0
 19 25  2  0  0  0  0
 21 22  1  6  0  0  0
  1 27  1  0  0  0  0
  2 28  1  0  0  0  0
  3 29  1  0  0  0  0
  4 30  1  0  0  0  0
  5 31  1  0  0  0  0
  6 32  1  0  0  0  0
  7 33  1  0  0  0  0
  8 34  1  0  0  0  0
  9 35  1  0  0  0  0
 10 36  1  0  0  0  0
 11 37  1  0  0  0  0
 12 38  1  0  0  0  0
 20 39  1  0  0  0  0
 20 40  1  0  0  0  0
 20 41  1  0  0  0  0
 21 42  1  0  0  0  0
 21 43  1  0  0  0  0
 22 44  1  0  0  0  0
 23 45  1  0  0  0  0
 24 46  1  0  0  0  0
M  END
> <clash_score>
2.224310918354923

> <docking_score>
-3.2114787101745605

> <overlap_score>
0.7431653141975403

$$$$
BENZO_293_2
  -OEChem-08232013543D

 49 52  0     1  0  0  0  0  0999 V2000
   12.7714    1.1058   26.6955 C   0  0  0  0  0  0  0  0  0  0  0  0
    4.2460    1.7520   20.8250 C   0  0  0  0  0  0  0  0  0  0  0  0
   12.3476    2.3261   26.1695 C   0  0  0  0  0  0  0  0  0  0  0  0
   12.1941   -0.0836   26.2506 C   0  0  0  0  0  0  0  0  0  0  0  0
    3.8860    2.1050   19.5250 C   0  0  0  0  0  0  0  0  0  0  0  0
    5.3890    1.0010   21.0690 C   0  0  0  0  0  0  0  0  0  0  0  0
   11.3464    2.3572   25.1987 C   0  0  0  0  0  0  0  0  0  0  0  0
   11.1930   -0.0526   25.2799 C   0  0  0  0  0  0  0  0  0  0  0  0
    9.1890   -3.5540   24.0140 C   0  0  0  0  0  0  0  0  0  0  0  0
    7.8700   -2.0610   25.3550 C   0  0  0  0  0  0  0  0  0  0  0  0
    9.5890   -2.4950   23.2210 C   0  0  0  0  0  0  0  0  0  0  0  0
    8.2550   -1.0010   24.5520 C   0  0  0  0  0  0  0  0  0  0  0  0
    4.6610    1.7170   18.4380 C   0  0  0  0  0  0  0  0  0  0  0  0
    7.5840   -0.2700   18.5160 C   0  0  0  0  0  0  0  0  0  0  0  0
    6.1460    0.6070   19.9750 C   0  0  0  0  0  0  0  0  0  0  0  0
    8.3450   -3.3440   25.0980 C   0  0  0  0  0  0  0  0  0  0  0  0
   10.7691    1.1678   24.7539 C   0  0  0  0  0  0  0  0  0  0  0  0
    9.1280   -1.2090   23.4870 C   0  0  0  0  0  0  0  0  0  0  0  0
    5.7970    0.9500   18.6730 C   0  0  0  0  0  0  0  0  0  0  0  0
    7.2710   -0.1460   19.8310 C   0  0  0  0  0  0  0  0  0  0  0  0
    9.0430    0.2380   21.4940 C   0  0  0  0  0  0  0  0  0  0  0  0
    7.9517   -4.4787   25.9770 C   0  0  0  0  0  0  0  0  0  0  0  0
    9.6841    1.2008   23.7022 C   0  0  0  0  0  0  0  0  0  0  0  0
    9.5820   -0.1080   22.7000 C   0  0  2  0  0  0  0  0  0  0  0  0
    6.7100    0.3850   17.8100 N   0  0  0  0  0  0  0  0  0  0  0  0
    8.0950   -0.7700   20.8440 N   0  0  0  0  0  0  0  0  0  0  0  0
    9.2950    1.3000   20.9480 O   0  0  0  0  0  0  0  0  0  0  0  0
   13.5519    1.0817   27.4504 H   0  0  0  0  0  0  0  0  0  0  0  0
    3.6208    2.0704   21.6579 H   0  0  0  0  0  0  0  0  0  0  0  0
   12.7977    3.2523   26.5149 H   0  0  0  0  0  0  0  0  0  0  0  0
   12.5246   -1.0340   26.6591 H   0  0  0  0  0  0  0  0  0  0  0  0
    2.9857    2.6926   19.3615 H   0  0  0  0  0  0  0  0  0  0  0  0
    5.6664    0.7407   22.0807 H   0  0  0  0  0  0  0  0  0  0  0  0
   11.0224    3.3127   24.7947 H   0  0  0  0  0  0  0  0  0  0  0  0
   10.7489   -0.9842   24.9394 H   0  0  0  0  0  0  0  0  0  0  0  0
    9.5416   -4.5625   23.7818 H   0  0  0  0  0  0  0  0  0  0  0  0
    7.1926   -1.8847   26.1916 H   0  0  0  0  0  0  0  0  0  0  0  0
   10.2688   -2.6720   22.3870 H   0  0  0  0  0  0  0  0  0  0  0  0
    7.8705   -0.0015   24.7579 H   0  0  0  0  0  0  0  0  0  0  0  0
    4.3794    2.0106   17.4221 H   0  0  0  0  0  0  0  0  0  0  0  0
    8.4172   -0.8135   18.0384 H   0  0  0  0  0  0  0  0  0  0  0  0
    8.6661   -4.5883   26.8021 H   0  0  0  0  0  0  0  0  0  0  0  0
    6.9508   -4.3263   26.4014 H   0  0  0  0  0  0  0  0  0  0  0  0
    7.9188   -5.4228   25.4175 H   0  0  0  0  0  0  0  0  0  0  0  0
    8.7167    1.3910   24.1851 H   0  0  0  0  0  0  0  0  0  0  0  0
    9.8647    2.0727   23.0582 H   0  0  0  0  0  0  0  0  0  0  0  0
   10.7539   -0.2760   22.5528 H   0  0  0  0  0  0  0  0  0  0  0  0
    6.6715    0.4865   16.8044 H   0  0  0  0  0  0  0  0  0  0  0  0
    8.0730   -1.6176   21.0751 H   0  0  0  0  0  0  0  0  0  0  0  0
  1  3  1  0  0  0  0
  1  4  2  0  0  0  0
  2  5  1  0  0  0  0
  2  6  2  0  0  0  0
  3  7  2  0  0  0  0
  4  8  1  0  0  0  0
  5 13  2  0  0  0  0
  6 15  1  0  0  0  0
  7 17  1  0  0  0  0
  8 17  2  0  0  0  0
  9 11  2  0  0  0  0
  9 16  1  0  0  0  0
 10 12  1  0  0  0  0
 10 16  2  0  0  0  0
 11 18  1  0  0  0  0
 12 18  2  0  0  0  0
 13 19  1  0  0  0  0
 14 20  2  0  0  0  0
 14 25  1  0  0  0  0
 15 19  2  0  0  0  0
 15 20  1  0  0  0  0
 16 22  1  0  0  0  0
 17 23  1  0  0  0  0
 18 24  1  0  0  0  0
 19 25  1  0  0  0  0
 20 26  1  0  0  0  0
 21 24  1  0  0  0  0
 21 26  1  0  0  0  0
 21 27  2  0  0  0  0
 23 24  1  6  0  0  0
  1 28  1  0  0  0  0
  2 29  1  0  0  0  0
  3 30  1  0  0  0  0
  4 31  1  0  0  0  0
  5 32  1  0  0  0  0
  6 33  1  0  0  0  0
  7 34  1  0  0  0  0
  8 35  1  0  0  0  0
  9 36  1  0  0  0  0
 10 37  1  0  0  0  0
 11 38  1  0  0  0  0
 12 39  1  0  0  0  0
 13 40  1  0  0  0  0
 14 41  1  0  0  0  0
 22 42  1  0  0  0  0
 22 43  1  0  0  0  0
 22 44  1  0  0  0  0
 23 45  1  0  0  0  0
 23 46  1  0  0  0  0
 24 47  1  0  0  0  0
 25 48  1  0  0  0  0
 26 49  1  0  0  0  0
M  END
> <clash_score>
3.0570163879626

> <docking_score>
-3.383183479309082

> <overlap_score>
0.7437711954116821

$$$$
BENZO_290_1
  -OEChem-08232013543D

 61 65  0     1  0  0  0  0  0999 V2000
    4.2460    1.7520   20.8250 C   0  0  0  0  0  0  0  0  0  0  0  0
    3.8860    2.1050   19.5250 C   0  0  0  0  0  0  0  0  0  0  0  0
   12.6445    0.0926   25.8011 C   0  0  0  0  0  0  0  0  0  0  0  0
    5.3890    1.0010   21.0690 C   0  0  0  0  0  0  0  0  0  0  0  0
   11.6380    0.1048   24.8355 C   0  0  0  0  0  0  0  0  0  0  0  0
    9.5890   -2.4950   23.2210 C   0  0  0  0  0  0  0  0  0  0  0  0
    8.2550   -1.0010   24.5520 C   0  0  0  0  0  0  0  0  0  0  0  0
    4.6610    1.7170   18.4380 C   0  0  0  0  0  0  0  0  0  0  0  0
    9.1890   -3.5540   24.0140 C   0  0  0  0  0  0  0  0  0  0  0  0
    7.8700   -2.0610   25.3550 C   0  0  0  0  0  0  0  0  0  0  0  0
   12.7880    1.1720   26.6728 C   0  0  0  0  0  0  0  0  0  0  0  0
   10.9183    2.2761   25.6134 C   0  0  0  0  0  0  0  0  0  0  0  0
    7.5840   -0.2700   18.5160 C   0  0  0  0  0  0  0  0  0  0  0  0
    6.1460    0.6070   19.9750 C   0  0  0  0  0  0  0  0  0  0  0  0
    9.1280   -1.2090   23.4870 C   0  0  0  0  0  0  0  0  0  0  0  0
   10.7749    1.1966   24.7417 C   0  0  0  0  0  0  0  0  0  0  0  0
    5.7970    0.9500   18.6730 C   0  0  0  0  0  0  0  0  0  0  0  0
    8.3450   -3.3440   25.0980 C   0  0  0  0  0  0  0  0  0  0  0  0
    7.2710   -0.1460   19.8310 C   0  0  0  0  0  0  0  0  0  0  0  0
   11.9249    2.2638   26.5790 C   0  0  0  0  0  0  0  0  0  0  0  0
    9.0430    0.2380   21.4940 C   0  0  0  0  0  0  0  0  0  0  0  0
    7.9496   -4.9537   28.7345 C   0  0  0  0  0  0  0  0  0  0  0  0
    6.8919   -4.0607   28.0818 C   0  0  0  0  0  0  0  0  0  0  0  0
    9.2470   -4.9693   27.9230 C   0  0  0  0  0  0  0  0  0  0  0  0
    6.6889   -4.4385   26.6147 C   0  0  0  0  0  0  0  0  0  0  0  0
    8.9871   -5.3207   26.4549 C   0  0  0  0  0  0  0  0  0  0  0  0
    9.6852    1.2097   23.6944 C   0  0  0  0  0  0  0  0  0  0  0  0
    9.5820   -0.1080   22.7000 C   0  0  1  0  0  0  0  0  0  0  0  0
    6.7100    0.3850   17.8100 N   0  0  0  0  0  0  0  0  0  0  0  0
    7.9769   -4.4027   25.9163 N   0  0  0  0  0  0  0  0  0  0  0  0
    8.0950   -0.7700   20.8440 N   0  0  0  0  0  0  0  0  0  0  0  0
    9.2950    1.3000   20.9480 O   0  0  0  0  0  0  0  0  0  0  0  0
   12.1030    3.5958   27.6540 Cl  0  0  0  0  0  0  0  0  0  0  0  0
    3.6208    2.0704   21.6579 H   0  0  0  0  0  0  0  0  0  0  0  0
    2.9857    2.6926   19.3615 H   0  0  0  0  0  0  0  0  0  0  0  0
   13.3165   -0.7577   25.8737 H   0  0  0  0  0  0  0  0  0  0  0  0
    5.6664    0.7407   22.0807 H   0  0  0  0  0  0  0  0  0  0  0  0
   11.5336   -0.7405   24.1604 H   0  0  0  0  0  0  0  0  0  0  0  0
   10.2684   -2.6719   22.3867 H   0  0  0  0  0  0  0  0  0  0  0  0
    7.8717   -0.0016   24.7596 H   0  0  0  0  0  0  0  0  0  0  0  0
    4.3794    2.0106   17.4221 H   0  0  0  0  0  0  0  0  0  0  0  0
    9.5443   -4.5616   23.7817 H   0  0  0  0  0  0  0  0  0  0  0  0
    7.1921   -1.8821   26.1908 H   0  0  0  0  0  0  0  0  0  0  0  0
   13.5772    1.1489   27.4203 H   0  0  0  0  0  0  0  0  0  0  0  0
   10.2425    3.1247   25.5365 H   0  0  0  0  0  0  0  0  0  0  0  0
    8.4172   -0.8135   18.0384 H   0  0  0  0  0  0  0  0  0  0  0  0
    8.1558   -4.5961   29.7550 H   0  0  0  0  0  0  0  0  0  0  0  0
    7.5611   -5.9778   28.8324 H   0  0  0  0  0  0  0  0  0  0  0  0
    5.9459   -4.1594   28.6209 H   0  0  0  0  0  0  0  0  0  0  0  0
    7.2011   -3.0160   28.1536 H   0  0  0  0  0  0  0  0  0  0  0  0
    9.7290   -3.9880   27.9846 H   0  0  0  0  0  0  0  0  0  0  0  0
    9.9437   -5.6964   28.3562 H   0  0  0  0  0  0  0  0  0  0  0  0
    6.2543   -5.4402   26.5659 H   0  0  0  0  0  0  0  0  0  0  0  0
    5.9909   -3.7397   26.1451 H   0  0  0  0  0  0  0  0  0  0  0  0
    9.9128   -5.2367   25.8843 H   0  0  0  0  0  0  0  0  0  0  0  0
    8.6365   -6.3517   26.3987 H   0  0  0  0  0  0  0  0  0  0  0  0
    8.7197    1.4079   24.1780 H   0  0  0  0  0  0  0  0  0  0  0  0
    9.8623    2.0699   23.0340 H   0  0  0  0  0  0  0  0  0  0  0  0
   10.7567   -0.2690   22.5478 H   0  0  0  0  0  0  0  0  0  0  0  0
    6.6715    0.4865   16.8044 H   0  0  0  0  0  0  0  0  0  0  0  0
    8.0917   -1.6083   21.0911 H   0  0  0  0  0  0  0  0  0  0  0  0
  1  2  1  0  0  0  0
  1  4  2  0  0  0  0
  2  8  2  0  0  0  0
  3  5  2  0  0  0  0
  3 11  1  0  0  0  0
  4 14  1  0  0  0  0
  5 16  1  0  0  0  0
  6  9  2  0  0  0  0
  6 15  1  0  0  0  0
  7 10  1  0  0  0  0
  7 15  2  0  0  0  0
  8 17  1  0  0  0  0
  9 18  1  0  0  0  0
 10 18  2  0  0  0  0
 11 20  2  0  0  0  0
 12 16  2  0  0  0  0
 12 20  1  0  0  0  0
 13 19  2  0  0  0  0
 13 29  1  0  0  0  0
 14 17  2  0  0  0  0
 14 19  1  0  0  0  0
 15 28  1  0  0  0  0
 16 27  1  0  0  0  0
 17 29  1  0  0  0  0
 18 30  1  0  0  0  0
 19 31  1  0  0  0  0
 20 33  1  0  0  0  0
 21 28  1  1  0  0  0
 21 31  1  0  0  0  0
 21 32  2  0  0  0  0
 22 23  1  0  0  0  0
 22 24  1  0  0  0  0
 23 25  1  0  0  0  0
 24 26  1  0  0  0  0
 25 30  1  0  0  0  0
 26 30  1  0  0  0  0
 27 28  1  0  0  0  0
  1 34  1  0  0  0  0
  2 35  1  0  0  0  0
  3 36  1  0  0  0  0
  4 37  1  0  0  0  0
  5 38  1  0  0  0  0
  6 39  1  0  0  0  0
  7 40  1  0  0  0  0
  8 41  1  0  0  0  0
  9 42  1  0  0  0  0
 10 43  1  0  0  0  0
 11 44  1  0  0  0  0
 12 45  1  0  0  0  0
 13 46  1  0  0  0  0
 22 47  1  0  0  0  0
 22 48  1  0  0  0  0
 23 49  1  0  0  0  0
 23 50  1  0  0  0  0
 24 51  1  0  0  0  0
 24 52  1  0  0  0  0
 25 53  1  0  0  0  0
 25 54  1  0  0  0  0
 26 55  1  0  0  0  0
 26 56  1  0  0  0  0
 27 57  1  0  0  0  0
 27 58  1  0  0  0  0
 28 59  1  0  0  0  0
 29 60  1  0  0  0  0
 31 61  1  0  0  0  0
M  END
> <clash_score>
5.493965050688214

> <docking_score>
-3.690269708633423

> <overlap_score>
0.8420959711074829

$$$$
BENZO_291_1
  -OEChem-08232013543D

 61 65  0     1  0  0  0  0  0999 V2000
    4.2460    1.7520   20.8250 C   0  0  0  0  0  0  0  0  0  0  0  0
    3.8860    2.1050   19.5250 C   0  0  0  0  0  0  0  0  0  0  0  0
    5.3890    1.0010   21.0690 C   0  0  0  0  0  0  0  0  0  0  0  0
    9.5890   -2.4950   23.2210 C   0  0  0  0  0  0  0  0  0  0  0  0
    8.2550   -1.0010   24.5520 C   0  0  0  0  0  0  0  0  0  0  0  0
    4.6610    1.7170   18.4380 C   0  0  0  0  0  0  0  0  0  0  0  0
    9.1890   -3.5540   24.0140 C   0  0  0  0  0  0  0  0  0  0  0  0
    7.8700   -2.0610   25.3550 C   0  0  0  0  0  0  0  0  0  0  0  0
   13.3220   -0.5321   24.1508 C   0  0  0  0  0  0  0  0  0  0  0  0
   11.3739   -0.5140   25.1703 C   0  0  0  0  0  0  0  0  0  0  0  0
    7.5840   -0.2700   18.5160 C   0  0  0  0  0  0  0  0  0  0  0  0
    6.1460    0.6070   19.9750 C   0  0  0  0  0  0  0  0  0  0  0  0
    9.1280   -1.2090   23.4870 C   0  0  0  0  0  0  0  0  0  0  0  0
   11.9382   -0.4119   23.9222 C   0  0  0  0  0  0  0  0  0  0  0  0
    5.7970    0.9500   18.6730 C   0  0  0  0  0  0  0  0  0  0  0  0
    8.3450   -3.3440   25.0980 C   0  0  0  0  0  0  0  0  0  0  0  0
    7.2710   -0.1460   19.8310 C   0  0  0  0  0  0  0  0  0  0  0  0
    9.0430    0.2380   21.4940 C   0  0  0  0  0  0  0  0  0  0  0  0
    7.2166   -6.5202   27.7387 C   0  0  0  0  0  0  0  0  0  0  0  0
    6.3969   -6.2129   26.4916 C   0  0  0  0  0  0  0  0  0  0  0  0
    8.6789   -6.1571   27.5092 C   0  0  0  0  0  0  0  0  0  0  0  0
    6.5550   -4.7563   26.0581 C   0  0  0  0  0  0  0  0  0  0  0  0
    8.8315   -4.6994   27.0803 C   0  0  0  0  0  0  0  0  0  0  0  0
   12.3185   -0.8368   27.4686 C   0  0  0  0  0  0  0  0  0  0  0  0
   11.2301   -0.2124   22.6019 C   0  0  0  0  0  0  0  0  0  0  0  0
    9.5820   -0.1080   22.7000 C   0  0  1  0  0  0  0  0  0  0  0  0
   13.6189   -0.6977   25.4425 N   0  0  0  0  0  0  0  0  0  0  0  0
    6.7100    0.3850   17.8100 N   0  0  0  0  0  0  0  0  0  0  0  0
   12.4136   -0.6822   26.0368 N   0  0  0  0  0  0  0  0  0  0  0  0
    7.9744   -4.4098   25.9218 N   0  0  0  0  0  0  0  0  0  0  0  0
    8.0950   -0.7700   20.8440 N   0  0  0  0  0  0  0  0  0  0  0  0
    9.2950    1.3000   20.9480 O   0  0  0  0  0  0  0  0  0  0  0  0
    3.6208    2.0704   21.6579 H   0  0  0  0  0  0  0  0  0  0  0  0
    2.9857    2.6926   19.3615 H   0  0  0  0  0  0  0  0  0  0  0  0
    5.6664    0.7407   22.0807 H   0  0  0  0  0  0  0  0  0  0  0  0
   10.2684   -2.6719   22.3867 H   0  0  0  0  0  0  0  0  0  0  0  0
    7.8717   -0.0016   24.7596 H   0  0  0  0  0  0  0  0  0  0  0  0
    4.3794    2.0106   17.4221 H   0  0  0  0  0  0  0  0  0  0  0  0
    9.5443   -4.5616   23.7817 H   0  0  0  0  0  0  0  0  0  0  0  0
    7.1921   -1.8821   26.1908 H   0  0  0  0  0  0  0  0  0  0  0  0
   14.1286   -0.5054   23.4317 H   0  0  0  0  0  0  0  0  0  0  0  0
   10.3467   -0.4808   25.5074 H   0  0  0  0  0  0  0  0  0  0  0  0
    8.4172   -0.8135   18.0384 H   0  0  0  0  0  0  0  0  0  0  0  0
    6.8223   -5.9540   28.5911 H   0  0  0  0  0  0  0  0  0  0  0  0
    7.1313   -7.5835   27.9885 H   0  0  0  0  0  0  0  0  0  0  0  0
    6.7086   -6.8739   25.6731 H   0  0  0  0  0  0  0  0  0  0  0  0
    5.3392   -6.4247   26.6852 H   0  0  0  0  0  0  0  0  0  0  0  0
    9.2495   -6.3303   28.4287 H   0  0  0  0  0  0  0  0  0  0  0  0
    9.1068   -6.8127   26.7406 H   0  0  0  0  0  0  0  0  0  0  0  0
    6.0341   -4.6143   25.1030 H   0  0  0  0  0  0  0  0  0  0  0  0
    6.0814   -4.0959   26.7963 H   0  0  0  0  0  0  0  0  0  0  0  0
    8.5669   -4.0359   27.9136 H   0  0  0  0  0  0  0  0  0  0  0  0
    9.8836   -4.5143   26.8301 H   0  0  0  0  0  0  0  0  0  0  0  0
   12.2261   -1.9039   27.6872 H   0  0  0  0  0  0  0  0  0  0  0  0
   13.2160   -0.4264   27.9396 H   0  0  0  0  0  0  0  0  0  0  0  0
   11.4423   -0.2935   27.8333 H   0  0  0  0  0  0  0  0  0  0  0  0
   11.5792    0.7206   22.1405 H   0  0  0  0  0  0  0  0  0  0  0  0
   11.5533   -1.0125   21.9215 H   0  0  0  0  0  0  0  0  0  0  0  0
    9.5402    0.8508   23.4127 H   0  0  0  0  0  0  0  0  0  0  0  0
    6.6715    0.4865   16.8044 H   0  0  0  0  0  0  0  0  0  0  0  0
    8.0917   -1.6083   21.0911 H   0  0  0  0  0  0  0  0  0  0  0  0
  1  2  1  0  0  0  0
  1  3  2  0  0  0  0
  2  6  2  0  0  0  0
  3 12  1  0  0  0  0
  4  7  2  0  0  0  0
  4 13  1  0  0  0  0
  5  8  1  0  0  0  0
  5 13  2  0  0  0  0
  6 15  1  0  0  0  0
  7 16  1  0  0  0  0
  8 16  2  0  0  0  0
  9 14  1  0  0  0  0
  9 27  2  0  0  0  0
 10 14  2  0  0  0  0
 10 29  1  0  0  0  0
 11 17  2  0  0  0  0
 11 28  1  0  0  0  0
 12 15  2  0  0  0  0
 12 17  1  0  0  0  0
 13 26  1  0  0  0  0
 14 25  1  0  0  0  0
 15 28  1  0  0  0  0
 16 30  1  0  0  0  0
 17 31  1  0  0  0  0
 18 26  1  0  0  0  0
 18 31  1  0  0  0  0
 18 32  2  0  0  0  0
 19 20  1  0  0  0  0
 19 21  1  0  0  0  0
 20 22  1  0  0  0  0
 21 23  1  0  0  0  0
 22 30  1  0  0  0  0
 23 30  1  0  0  0  0
 24 29  1  0  0  0  0
 25 26  1  1  0  0  0
 27 29  1  0  0  0  0
  1 33  1  0  0  0  0
  2 34  1  0  0  0  0
  3 35  1  0  0  0  0
  4 36  1  0  0  0  0
  5 37  1  0  0  0  0
  6 38  1  0  0  0  0
  7 39  1  0  0  0  0
  8 40  1  0  0  0  0
  9 41  1  0  0  0  0
 10 42  1  0  0  0  0
 11 43  1  0  0  0  0
 19 44  1  0  0  0  0
 19 45  1  0  0  0  0
 20 46  1  0  0  0  0
 20 47  1  0  0  0  0
 21 48  1  0  0  0  0
 21 49  1  0  0  0  0
 22 50  1  0  0  0  0
 22 51  1  0  0  0  0
 23 52  1  0  0  0  0
 23 53  1  0  0  0  0
 24 54  1  0  0  0  0
 24 55  1  0  0  0  0
 24 56  1  0  0  0  0
 25 57  1  0  0  0  0
 25 58  1  0  0  0  0
 26 59  1  0  0  0  0
 28 60  1  0  0  0  0
 31 61  1  0  0  0  0
M  END
> <clash_score>
0.6568125957053412

> <docking_score>
-5.790729522705078

> <overlap_score>
0.9128094911575317

$$$$
BENZO_290_2
  -OEChem-08232013543D

 61 65  0     1  0  0  0  0  0999 V2000
    4.2460    1.7520   20.8250 C   0  0  0  0  0  0  0  0  0  0  0  0
    3.8860    2.1050   19.5250 C   0  0  0  0  0  0  0  0  0  0  0  0
   13.7993   -1.2937   25.1853 C   0  0  0  0  0  0  0  0  0  0  0  0
    5.3890    1.0010   21.0690 C   0  0  0  0  0  0  0  0  0  0  0  0
   13.1448   -1.1102   23.9673 C   0  0  0  0  0  0  0  0  0  0  0  0
    9.5890   -2.4950   23.2210 C   0  0  0  0  0  0  0  0  0  0  0  0
    8.2550   -1.0010   24.5520 C   0  0  0  0  0  0  0  0  0  0  0  0
    4.6610    1.7170   18.4380 C   0  0  0  0  0  0  0  0  0  0  0  0
    9.1890   -3.5540   24.0140 C   0  0  0  0  0  0  0  0  0  0  0  0
    7.8700   -2.0610   25.3550 C   0  0  0  0  0  0  0  0  0  0  0  0
   13.2472   -0.7790   26.3583 C   0  0  0  0  0  0  0  0  0  0  0  0
   11.3860    0.1028   25.0952 C   0  0  0  0  0  0  0  0  0  0  0  0
    7.5840   -0.2700   18.5160 C   0  0  0  0  0  0  0  0  0  0  0  0
    6.1460    0.6070   19.9750 C   0  0  0  0  0  0  0  0  0  0  0  0
    9.1280   -1.2090   23.4870 C   0  0  0  0  0  0  0  0  0  0  0  0
   11.9382   -0.4119   23.9222 C   0  0  0  0  0  0  0  0  0  0  0  0
    5.7970    0.9500   18.6730 C   0  0  0  0  0  0  0  0  0  0  0  0
    8.3450   -3.3440   25.0980 C   0  0  0  0  0  0  0  0  0  0  0  0
    7.2710   -0.1460   19.8310 C   0  0  0  0  0  0  0  0  0  0  0  0
   12.0405   -0.0807   26.3132 C   0  0  0  0  0  0  0  0  0  0  0  0
    9.0430    0.2380   21.4940 C   0  0  0  0  0  0  0  0  0  0  0  0
    7.9496   -4.9537   28.7345 C   0  0  0  0  0  0  0  0  0  0  0  0
    6.8919   -4.0607   28.0818 C   0  0  0  0  0  0  0  0  0  0  0  0
    9.2470   -4.9693   27.9230 C   0  0  0  0  0  0  0  0  0  0  0  0
    6.6889   -4.4385   26.6147 C   0  0  0  0  0  0  0  0  0  0  0  0
    8.9871   -5.3207   26.4549 C   0  0  0  0  0  0  0  0  0  0  0  0
   11.2301   -0.2124   22.6019 C   0  0  0  0  0  0  0  0  0  0  0  0
    9.5820   -0.1080   22.7000 C   0  0  2  0  0  0  0  0  0  0  0  0
    6.7100    0.3850   17.8100 N   0  0  0  0  0  0  0  0  0  0  0  0
    7.9769   -4.4027   25.9163 N   0  0  0  0  0  0  0  0  0  0  0  0
    8.0950   -0.7700   20.8440 N   0  0  0  0  0  0  0  0  0  0  0  0
    9.2950    1.3000   20.9480 O   0  0  0  0  0  0  0  0  0  0  0  0
   11.3604    0.5551   27.7606 Cl  0  0  0  0  0  0  0  0  0  0  0  0
    3.6208    2.0704   21.6579 H   0  0  0  0  0  0  0  0  0  0  0  0
    2.9857    2.6926   19.3615 H   0  0  0  0  0  0  0  0  0  0  0  0
   14.7390   -1.8374   25.2199 H   0  0  0  0  0  0  0  0  0  0  0  0
    5.6664    0.7407   22.0807 H   0  0  0  0  0  0  0  0  0  0  0  0
   13.5824   -1.5147   23.0583 H   0  0  0  0  0  0  0  0  0  0  0  0
   10.2684   -2.6719   22.3867 H   0  0  0  0  0  0  0  0  0  0  0  0
    7.8717   -0.0016   24.7596 H   0  0  0  0  0  0  0  0  0  0  0  0
    4.3794    2.0106   17.4221 H   0  0  0  0  0  0  0  0  0  0  0  0
    9.5443   -4.5616   23.7817 H   0  0  0  0  0  0  0  0  0  0  0  0
    7.1921   -1.8821   26.1908 H   0  0  0  0  0  0  0  0  0  0  0  0
   13.7685   -0.9294   27.3004 H   0  0  0  0  0  0  0  0  0  0  0  0
   10.4447    0.6461   25.0548 H   0  0  0  0  0  0  0  0  0  0  0  0
    8.4172   -0.8135   18.0384 H   0  0  0  0  0  0  0  0  0  0  0  0
    8.1558   -4.5961   29.7550 H   0  0  0  0  0  0  0  0  0  0  0  0
    7.5611   -5.9778   28.8324 H   0  0  0  0  0  0  0  0  0  0  0  0
    5.9459   -4.1594   28.6209 H   0  0  0  0  0  0  0  0  0  0  0  0
    7.2011   -3.0160   28.1536 H   0  0  0  0  0  0  0  0  0  0  0  0
    9.7290   -3.9880   27.9846 H   0  0  0  0  0  0  0  0  0  0  0  0
    9.9437   -5.6964   28.3562 H   0  0  0  0  0  0  0  0  0  0  0  0
    6.2543   -5.4402   26.5659 H   0  0  0  0  0  0  0  0  0  0  0  0
    5.9909   -3.7397   26.1451 H   0  0  0  0  0  0  0  0  0  0  0  0
    9.9128   -5.2367   25.8843 H   0  0  0  0  0  0  0  0  0  0  0  0
    8.6365   -6.3517   26.3987 H   0  0  0  0  0  0  0  0  0  0  0  0
   11.5792    0.7206   22.1405 H   0  0  0  0  0  0  0  0  0  0  0  0
   11.5533   -1.0125   21.9215 H   0  0  0  0  0  0  0  0  0  0  0  0
    9.5402    0.8508   23.4127 H   0  0  0  0  0  0  0  0  0  0  0  0
    6.6715    0.4865   16.8044 H   0  0  0  0  0  0  0  0  0  0  0  0
    8.0917   -1.6083   21.0911 H   0  0  0  0  0  0  0  0  0  0  0  0
  1  2  1  0  0  0  0
  1  4  2  0  0  0  0
  2  8  2  0  0  0  0
  3  5  2  0  0  0  0
  3 11  1  0  0  0  0
  4 14  1  0  0  0  0
  5 16  1  0  0  0  0
  6  9  2  0  0  0  0
  6 15  1  0  0  0  0
  7 10  1  0  0  0  0
  7 15  2  0  0  0  0
  8 17  1  0  0  0  0
  9 18  1  0  0  0  0
 10 18  2  0  0  0  0
 11 20  2  0  0  0  0
 12 16  2  0  0  0  0
 12 20  1  0  0  0  0
 13 19  2  0  0  0  0
 13 29  1  0  0  0  0
 14 17  2  0  0  0  0
 14 19  1  0  0  0  0
 15 28  1  0  0  0  0
 16 27  1  0  0  0  0
 17 29  1  0  0  0  0
 18 30  1  0  0  0  0
 19 31  1  0  0  0  0
 20 33  1  0  0  0  0
 21 28  1  6  0  0  0
 21 31  1  0  0  0  0
 21 32  2  0  0  0  0
 22 23  1  0  0  0  0
 22 24  1  0  0  0  0
 23 25  1  0  0  0  0
 24 26  1  0  0  0  0
 25 30  1  0  0  0  0
 26 30  1  0  0  0  0
 27 28  1  0  0  0  0
  1 34  1  0  0  0  0
  2 35  1  0  0  0  0
  3 36  1  0  0  0  0
  4 37  1  0  0  0  0
  5 38  1  0  0  0  0
  6 39  1  0  0  0  0
  7 40  1  0  0  0  0
  8 41  1  0  0  0  0
  9 42  1  0  0  0  0
 10 43  1  0  0  0  0
 11 44  1  0  0  0  0
 12 45  1  0  0  0  0
 13 46  1  0  0  0  0
 22 47  1  0  0  0  0
 22 48  1  0  0  0  0
 23 49  1  0  0  0  0
 23 50  1  0  0  0  0
 24 51  1  0  0  0  0
 24 52  1  0  0  0  0
 25 53  1  0  0  0  0
 25 54  1  0  0  0  0
 26 55  1  0  0  0  0
 26 56  1  0  0  0  0
 27 57  1  0  0  0  0
 27 58  1  0  0  0  0
 28 59  1  0  0  0  0
 29 60  1  0  0  0  0
 31 61  1  0  0  0  0
M  END
> <clash_score>
0.7026221430381941

> <docking_score>
-5.267875671386719

> <overlap_score>
0.9195516705513

$$$$
BENZO_291_2
  -OEChem-08232013543D

 61 65  0     1  0  0  0  0  0999 V2000
    4.2460    1.7520   20.8250 C   0  0  0  0  0  0  0  0  0  0  0  0
    3.8860    2.1050   19.5250 C   0  0  0  0  0  0  0  0  0  0  0  0
    5.3890    1.0010   21.0690 C   0  0  0  0  0  0  0  0  0  0  0  0
    9.5890   -2.4950   23.2210 C   0  0  0  0  0  0  0  0  0  0  0  0
    8.2550   -1.0010   24.5520 C   0  0  0  0  0  0  0  0  0  0  0  0
    4.6610    1.7170   18.4380 C   0  0  0  0  0  0  0  0  0  0  0  0
    9.1890   -3.5540   24.0140 C   0  0  0  0  0  0  0  0  0  0  0  0
    7.8700   -2.0610   25.3550 C   0  0  0  0  0  0  0  0  0  0  0  0
   12.0923    1.6786   24.6236 C   0  0  0  0  0  0  0  0  0  0  0  0
   10.6999    0.7130   26.0250 C   0  0  0  0  0  0  0  0  0  0  0  0
    7.5840   -0.2700   18.5160 C   0  0  0  0  0  0  0  0  0  0  0  0
    6.1460    0.6070   19.9750 C   0  0  0  0  0  0  0  0  0  0  0  0
    9.1280   -1.2090   23.4870 C   0  0  0  0  0  0  0  0  0  0  0  0
   10.7749    1.1966   24.7417 C   0  0  0  0  0  0  0  0  0  0  0  0
    5.7970    0.9500   18.6730 C   0  0  0  0  0  0  0  0  0  0  0  0
    8.3450   -3.3440   25.0980 C   0  0  0  0  0  0  0  0  0  0  0  0
    7.2710   -0.1460   19.8310 C   0  0  0  0  0  0  0  0  0  0  0  0
    9.0430    0.2380   21.4940 C   0  0  0  0  0  0  0  0  0  0  0  0
    7.9496   -4.9537   28.7345 C   0  0  0  0  0  0  0  0  0  0  0  0
    6.8919   -4.0607   28.0818 C   0  0  0  0  0  0  0  0  0  0  0  0
    9.2470   -4.9693   27.9230 C   0  0  0  0  0  0  0  0  0  0  0  0
    6.6889   -4.4385   26.6147 C   0  0  0  0  0  0  0  0  0  0  0  0
    8.9871   -5.3207   26.4549 C   0  0  0  0  0  0  0  0  0  0  0  0
   12.3371    0.5840   27.9175 C   0  0  0  0  0  0  0  0  0  0  0  0
    9.6852    1.2097   23.6944 C   0  0  0  0  0  0  0  0  0  0  0  0
    9.5820   -0.1080   22.7000 C   0  0  2  0  0  0  0  0  0  0  0  0
   12.8030    1.5161   25.7428 N   0  0  0  0  0  0  0  0  0  0  0  0
    6.7100    0.3850   17.8100 N   0  0  0  0  0  0  0  0  0  0  0  0
   11.9290    0.9267   26.5763 N   0  0  0  0  0  0  0  0  0  0  0  0
    7.9769   -4.4027   25.9163 N   0  0  0  0  0  0  0  0  0  0  0  0
    8.0950   -0.7700   20.8440 N   0  0  0  0  0  0  0  0  0  0  0  0
    9.2950    1.3000   20.9480 O   0  0  0  0  0  0  0  0  0  0  0  0
    3.6208    2.0704   21.6579 H   0  0  0  0  0  0  0  0  0  0  0  0
    2.9857    2.6926   19.3615 H   0  0  0  0  0  0  0  0  0  0  0  0
    5.6664    0.7407   22.0807 H   0  0  0  0  0  0  0  0  0  0  0  0
   10.2684   -2.6719   22.3867 H   0  0  0  0  0  0  0  0  0  0  0  0
    7.8717   -0.0016   24.7596 H   0  0  0  0  0  0  0  0  0  0  0  0
    4.3794    2.0106   17.4221 H   0  0  0  0  0  0  0  0  0  0  0  0
    9.5443   -4.5616   23.7817 H   0  0  0  0  0  0  0  0  0  0  0  0
    7.1921   -1.8821   26.1908 H   0  0  0  0  0  0  0  0  0  0  0  0
   12.5660    2.1426   23.7701 H   0  0  0  0  0  0  0  0  0  0  0  0
    9.8962    0.2478   26.5796 H   0  0  0  0  0  0  0  0  0  0  0  0
    8.4172   -0.8135   18.0384 H   0  0  0  0  0  0  0  0  0  0  0  0
    8.1558   -4.5961   29.7550 H   0  0  0  0  0  0  0  0  0  0  0  0
    7.5611   -5.9778   28.8324 H   0  0  0  0  0  0  0  0  0  0  0  0
    5.9459   -4.1594   28.6209 H   0  0  0  0  0  0  0  0  0  0  0  0
    7.2011   -3.0160   28.1536 H   0  0  0  0  0  0  0  0  0  0  0  0
    9.7290   -3.9880   27.9846 H   0  0  0  0  0  0  0  0  0  0  0  0
    9.9437   -5.6964   28.3562 H   0  0  0  0  0  0  0  0  0  0  0  0
    6.2543   -5.4402   26.5659 H   0  0  0  0  0  0  0  0  0  0  0  0
    5.9909   -3.7397   26.1451 H   0  0  0  0  0  0  0  0  0  0  0  0
    9.9128   -5.2367   25.8843 H   0  0  0  0  0  0  0  0  0  0  0  0
    8.6365   -6.3517   26.3987 H   0  0  0  0  0  0  0  0  0  0  0  0
   12.7446   -0.4302   27.8973 H   0  0  0  0  0  0  0  0  0  0  0  0
   13.0952    1.2938   28.2601 H   0  0  0  0  0  0  0  0  0  0  0  0
   11.4711    0.6360   28.5832 H   0  0  0  0  0  0  0  0  0  0  0  0
    8.7197    1.4079   24.1780 H   0  0  0  0  0  0  0  0  0  0  0  0
    9.8623    2.0699   23.0340 H   0  0  0  0  0  0  0  0  0  0  0  0
   10.7567   -0.2690   22.5478 H   0  0  0  0  0  0  0  0  0  0  0  0
    6.6715    0.4865   16.8044 H   0  0  0  0  0  0  0  0  0  0  0  0
    8.0917   -1.6083   21.0911 H   0  0  0  0  0  0  0  0  0  0  0  0
  1  2  1  0  0  0  0
  1  3  2  0  0  0  0
  2  6  2  0  0  0  0
  3 12  1  0  0  0  0
  4  7  2  0  0  0  0
  4 13  1  0  0  0  0
  5  8  1  0  0  0  0
  5 13  2  0  0  0  0
  6 15  1  0  0  0  0
  7 16  1  0  0  0  0
  8 16  2  0  0  0  0
  9 14  1  0  0  0  0
  9 27  2  0  0  0  0
 10 14  2  0  0  0  0
 10 29  1  0  0  0  0
 11 17  2  0  0  0  0
 11 28  1  0  0  0  0
 12 15  2  0  0  0  0
 12 17  1  0  0  0  0
 13 26  1  0  0  0  0
 14 25  1  0  0  0  0
 15 28  1  0  0  0  0
 16 30  1  0  0  0  0
 17 31  1  0  0  0  0
 18 26  1  0  0  0  0
 18 31  1  0  0  0  0
 18 32  2  0  0  0  0
 19 20  1  0  0  0  0
 19 21  1  0  0  0  0
 20 22  1  0  0  0  0
 21 23  1  0  0  0  0
 22 30  1  0  0  0  0
 23 30  1  0  0  0  0
 24 29  1  0  0  0  0
 25 26  1  6  0  0  0
 27 29  1  0  0  0  0
  1 33  1  0  0  0  0
  2 34  1  0  0  0  0
  3 35  1  0  0  0  0
  4 36  1  0  0  0  0
  5 37  1  0  0  0  0
  6 38  1  0  0  0  0
  7 39  1  0  0  0  0
  8 40  1  0  0  0  0
  9 41  1  0  0  0  0
 10 42  1  0  0  0  0
 11 43  1  0  0  0  0
 19 44  1  0  0  0  0
 19 45  1  0  0  0  0
 20 46  1  0  0  0  0
 20 47  1  0  0  0  0
 21 48  1  0  0  0  0
 21 49  1  0  0  0  0
 22 50  1  0  0  0  0
 22 51  1  0  0  0  0
 23 52  1  0  0  0  0
 23 53  1  0  0  0  0
 24 54  1  0  0  0  0
 24 55  1  0  0  0  0
 24 56  1  0  0  0  0
 25 57  1  0  0  0  0
 25 58  1  0  0  0  0
 26 59  1  0  0  0  0
 28 60  1  0  0  0  0
 31 61  1  0  0  0  0
M  END
> <clash_score>
2.0015532831426643

> <docking_score>
-3.6542551517486572

> <overlap_score>
0.829846203327179

$$$$
BENZO_294_1
  -OEChem-08232013543D

 49 52  0     1  0  0  0  0  0999 V2000
    4.2460    1.7520   20.8250 C   0  0  0  0  0  0  0  0  0  0  0  0
    3.8860    2.1050   19.5250 C   0  0  0  0  0  0  0  0  0  0  0  0
   13.7696   -1.3331   25.2040 C   0  0  0  0  0  0  0  0  0  0  0  0
    5.3890    1.0010   21.0690 C   0  0  0  0  0  0  0  0  0  0  0  0
   13.1260   -1.1377   23.9821 C   0  0  0  0  0  0  0  0  0  0  0  0
    9.1890   -3.5540   24.0140 C   0  0  0  0  0  0  0  0  0  0  0  0
    7.8700   -2.0610   25.3550 C   0  0  0  0  0  0  0  0  0  0  0  0
    9.5890   -2.4950   23.2210 C   0  0  0  0  0  0  0  0  0  0  0  0
    8.2550   -1.0010   24.5520 C   0  0  0  0  0  0  0  0  0  0  0  0
    4.6610    1.7170   18.4380 C   0  0  0  0  0  0  0  0  0  0  0  0
   13.2109   -0.8232   26.3761 C   0  0  0  0  0  0  0  0  0  0  0  0
   11.3649    0.0776   25.1042 C   0  0  0  0  0  0  0  0  0  0  0  0
    7.5840   -0.2700   18.5160 C   0  0  0  0  0  0  0  0  0  0  0  0
    6.1460    0.6070   19.9750 C   0  0  0  0  0  0  0  0  0  0  0  0
    8.3450   -3.3440   25.0980 C   0  0  0  0  0  0  0  0  0  0  0  0
    9.1280   -1.2090   23.4870 C   0  0  0  0  0  0  0  0  0  0  0  0
   11.9236   -0.4323   23.9322 C   0  0  0  0  0  0  0  0  0  0  0  0
    5.7970    0.9500   18.6730 C   0  0  0  0  0  0  0  0  0  0  0  0
    7.2710   -0.1460   19.8310 C   0  0  0  0  0  0  0  0  0  0  0  0
   12.0086   -0.1179   26.3261 C   0  0  0  0  0  0  0  0  0  0  0  0
    9.0430    0.2380   21.4940 C   0  0  0  0  0  0  0  0  0  0  0  0
    7.9517   -4.4787   25.9770 C   0  0  0  0  0  0  0  0  0  0  0  0
   11.2273   -0.2199   22.6076 C   0  0  0  0  0  0  0  0  0  0  0  0
    9.5820   -0.1080   22.7000 C   0  0  1  0  0  0  0  0  0  0  0  0
    6.7100    0.3850   17.8100 N   0  0  0  0  0  0  0  0  0  0  0  0
    8.0950   -0.7700   20.8440 N   0  0  0  0  0  0  0  0  0  0  0  0
    9.2950    1.3000   20.9480 O   0  0  0  0  0  0  0  0  0  0  0  0
   11.3203    0.5119   27.7723 Cl  0  0  0  0  0  0  0  0  0  0  0  0
    3.6208    2.0704   21.6579 H   0  0  0  0  0  0  0  0  0  0  0  0
    2.9857    2.6926   19.3615 H   0  0  0  0  0  0  0  0  0  0  0  0
   14.7060   -1.8822   25.2425 H   0  0  0  0  0  0  0  0  0  0  0  0
    5.6664    0.7407   22.0807 H   0  0  0  0  0  0  0  0  0  0  0  0
   13.5686   -1.5384   23.0739 H   0  0  0  0  0  0  0  0  0  0  0  0
    9.5416   -4.5625   23.7818 H   0  0  0  0  0  0  0  0  0  0  0  0
    7.1926   -1.8847   26.1916 H   0  0  0  0  0  0  0  0  0  0  0  0
   10.2688   -2.6720   22.3870 H   0  0  0  0  0  0  0  0  0  0  0  0
    7.8705   -0.0015   24.7579 H   0  0  0  0  0  0  0  0  0  0  0  0
    4.3794    2.0106   17.4221 H   0  0  0  0  0  0  0  0  0  0  0  0
   13.7238   -0.9829   27.3213 H   0  0  0  0  0  0  0  0  0  0  0  0
   10.4270    0.6263   25.0600 H   0  0  0  0  0  0  0  0  0  0  0  0
    8.4172   -0.8135   18.0384 H   0  0  0  0  0  0  0  0  0  0  0  0
    8.6661   -4.5883   26.8021 H   0  0  0  0  0  0  0  0  0  0  0  0
    6.9508   -4.3263   26.4014 H   0  0  0  0  0  0  0  0  0  0  0  0
    7.9188   -5.4228   25.4175 H   0  0  0  0  0  0  0  0  0  0  0  0
   11.5842    0.7150   22.1561 H   0  0  0  0  0  0  0  0  0  0  0  0
   11.5525   -1.0164   21.9239 H   0  0  0  0  0  0  0  0  0  0  0  0
    9.5374    0.8439   23.4178 H   0  0  0  0  0  0  0  0  0  0  0  0
    6.6715    0.4865   16.8044 H   0  0  0  0  0  0  0  0  0  0  0  0
    8.0730   -1.6176   21.0751 H   0  0  0  0  0  0  0  0  0  0  0  0
  1  2  1  0  0  0  0
  1  4  2  0  0  0  0
  2 10  2  0  0  0  0
  3  5  2  0  0  0  0
  3 11  1  0  0  0  0
  4 14  1  0  0  0  0
  5 17  1  0  0  0  0
  6  8  2  0  0  0  0
  6 15  1  0  0  0  0
  7  9  1  0  0  0  0
  7 15  2  0  0  0  0
  8 16  1  0  0  0  0
  9 16  2  0  0  0  0
 10 18  1  0  0  0  0
 11 20  2  0  0  0  0
 12 17  2  0  0  0  0
 12 20  1  0  0  0  0
 13 19  2  0  0  0  0
 13 25  1  0  0  0  0
 14 18  2  0  0  0  0
 14 19  1  0  0  0  0
 15 22  1  0  0  0  0
 16 24  1  0  0  0  0
 17 23  1  0  0  0  0
 18 25  1  0  0  0  0
 19 26  1  0  0  0  0
 20 28  1  0  0  0  0
 21 24  1  0  0  0  0
 21 26  1  0  0  0  0
 21 27  2  0  0  0  0
 23 24  1  1  0  0  0
  1 29  1  0  0  0  0
  2 30  1  0  0  0  0
  3 31  1  0  0  0  0
  4 32  1  0  0  0  0
  5 33  1  0  0  0  0
  6 34  1  0  0  0  0
  7 35  1  0  0  0  0
  8 36  1  0  0  0  0
  9 37  1  0  0  0  0
 10 38  1  0  0  0  0
 11 39  1  0  0  0  0
 12 40  1  0  0  0  0
 13 41  1  0  0  0  0
 22 42  1  0  0  0  0
 22 43  1  0  0  0  0
 22 44  1  0  0  0  0
 23 45  1  0  0  0  0
 23 46  1  0  0  0  0
 24 47  1  0  0  0  0
 25 48  1  0  0  0  0
 26 49  1  0  0  0  0
M  END
> <clash_score>
0.7019246194212356

> <docking_score>
-4.438036918640137

> <overlap_score>
0.8299895524978638

$$$$
BENZO_294_2
  -OEChem-08232013543D

 49 52  0     1  0  0  0  0  0999 V2000
    4.2460    1.7520   20.8250 C   0  0  0  0  0  0  0  0  0  0  0  0
    3.8860    2.1050   19.5250 C   0  0  0  0  0  0  0  0  0  0  0  0
   12.9593    0.4495   25.4778 C   0  0  0  0  0  0  0  0  0  0  0  0
    5.3890    1.0010   21.0690 C   0  0  0  0  0  0  0  0  0  0  0  0
   11.9571    0.4794   24.5081 C   0  0  0  0  0  0  0  0  0  0  0  0
    9.1890   -3.5540   24.0140 C   0  0  0  0  0  0  0  0  0  0  0  0
    7.8700   -2.0610   25.3550 C   0  0  0  0  0  0  0  0  0  0  0  0
    9.5890   -2.4950   23.2210 C   0  0  0  0  0  0  0  0  0  0  0  0
    8.2550   -1.0010   24.5520 C   0  0  0  0  0  0  0  0  0  0  0  0
    4.6610    1.7170   18.4380 C   0  0  0  0  0  0  0  0  0  0  0  0
   12.7735    1.1081   26.6933 C   0  0  0  0  0  0  0  0  0  0  0  0
   10.5833    1.8264   25.9694 C   0  0  0  0  0  0  0  0  0  0  0  0
    7.5840   -0.2700   18.5160 C   0  0  0  0  0  0  0  0  0  0  0  0
    6.1460    0.6070   19.9750 C   0  0  0  0  0  0  0  0  0  0  0  0
    8.3450   -3.3440   25.0980 C   0  0  0  0  0  0  0  0  0  0  0  0
    9.1280   -1.2090   23.4870 C   0  0  0  0  0  0  0  0  0  0  0  0
   10.7691    1.1678   24.7539 C   0  0  0  0  0  0  0  0  0  0  0  0
    5.7970    0.9500   18.6730 C   0  0  0  0  0  0  0  0  0  0  0  0
    7.2710   -0.1460   19.8310 C   0  0  0  0  0  0  0  0  0  0  0  0
   11.5856    1.7966   26.9391 C   0  0  0  0  0  0  0  0  0  0  0  0
    9.0430    0.2380   21.4940 C   0  0  0  0  0  0  0  0  0  0  0  0
    7.9517   -4.4787   25.9770 C   0  0  0  0  0  0  0  0  0  0  0  0
    9.6841    1.2008   23.7022 C   0  0  0  0  0  0  0  0  0  0  0  0
    9.5820   -0.1080   22.7000 C   0  0  2  0  0  0  0  0  0  0  0  0
    6.7100    0.3850   17.8100 N   0  0  0  0  0  0  0  0  0  0  0  0
    8.0950   -0.7700   20.8440 N   0  0  0  0  0  0  0  0  0  0  0  0
    9.2950    1.3000   20.9480 O   0  0  0  0  0  0  0  0  0  0  0  0
   11.3574    2.6099   28.4385 Cl  0  0  0  0  0  0  0  0  0  0  0  0
    3.6208    2.0704   21.6579 H   0  0  0  0  0  0  0  0  0  0  0  0
    2.9857    2.6926   19.3615 H   0  0  0  0  0  0  0  0  0  0  0  0
   13.8843   -0.0866   25.2859 H   0  0  0  0  0  0  0  0  0  0  0  0
    5.6664    0.7407   22.0807 H   0  0  0  0  0  0  0  0  0  0  0  0
   12.1105   -0.0365   23.5638 H   0  0  0  0  0  0  0  0  0  0  0  0
    9.5416   -4.5625   23.7818 H   0  0  0  0  0  0  0  0  0  0  0  0
    7.1926   -1.8847   26.1916 H   0  0  0  0  0  0  0  0  0  0  0  0
   10.2688   -2.6720   22.3870 H   0  0  0  0  0  0  0  0  0  0  0  0
    7.8705   -0.0015   24.7579 H   0  0  0  0  0  0  0  0  0  0  0  0
    4.3794    2.0106   17.4221 H   0  0  0  0  0  0  0  0  0  0  0  0
   13.5634    1.0766   27.4398 H   0  0  0  0  0  0  0  0  0  0  0  0
    9.6551    2.3614   26.1564 H   0  0  0  0  0  0  0  0  0  0  0  0
    8.4172   -0.8135   18.0384 H   0  0  0  0  0  0  0  0  0  0  0  0
    8.6661   -4.5883   26.8021 H   0  0  0  0  0  0  0  0  0  0  0  0
    6.9508   -4.3263   26.4014 H   0  0  0  0  0  0  0  0  0  0  0  0
    7.9188   -5.4228   25.4175 H   0  0  0  0  0  0  0  0  0  0  0  0
    8.7167    1.3910   24.1851 H   0  0  0  0  0  0  0  0  0  0  0  0
    9.8647    2.0727   23.0582 H   0  0  0  0  0  0  0  0  0  0  0  0
   10.7539   -0.2760   22.5528 H   0  0  0  0  0  0  0  0  0  0  0  0
    6.6715    0.4865   16.8044 H   0  0  0  0  0  0  0  0  0  0  0  0
    8.0730   -1.6176   21.0751 H   0  0  0  0  0  0  0  0  0  0  0  0
  1  2  1  0  0  0  0
  1  4  2  0  0  0  0
  2 10  2  0  0  0  0
  3  5  2  0  0  0  0
  3 11  1  0  0  0  0
  4 14  1  0  0  0  0
  5 17  1  0  0  0  0
  6  8  2  0  0  0  0
  6 15  1  0  0  0  0
  7  9  1  0  0  0  0
  7 15  2  0  0  0  0
  8 16  1  0  0  0  0
  9 16  2  0  0  0  0
 10 18  1  0  0  0  0
 11 20  2  0  0  0  0
 12 17  2  0  0  0  0
 12 20  1  0  0  0  0
 13 19  2  0  0  0  0
 13 25  1  0  0  0  0
 14 18  2  0  0  0  0
 14 19  1  0  0  0  0
 15 22  1  0  0  0  0
 16 24  1  0  0  0  0
 17 23  1  0  0  0  0
 18 25  1  0  0  0  0
 19 26  1  0  0  0  0
 20 28  1  0  0  0  0
 21 24  1  0  0  0  0
 21 26  1  0  0  0  0
 21 27  2  0  0  0  0
 23 24  1  6  0  0  0
  1 29  1  0  0  0  0
  2 30  1  0  0  0  0
  3 31  1  0  0  0  0
  4 32  1  0  0  0  0
  5 33  1  0  0  0  0
  6 34  1  0  0  0  0
  7 35  1  0  0  0  0
  8 36  1  0  0  0  0
  9 37  1  0  0  0  0
 10 38  1  0  0  0  0
 11 39  1  0  0  0  0
 12 40  1  0  0  0  0
 13 41  1  0  0  0  0
 22 42  1  0  0  0  0
 22 43  1  0  0  0  0
 22 44  1  0  0  0  0
 23 45  1  0  0  0  0
 23 46  1  0  0  0  0
 24 47  1  0  0  0  0
 25 48  1  0  0  0  0
 26 49  1  0  0  0  0
M  END
> <clash_score>
7.4926668390235065

> <docking_score>
-2.672550678253174

> <overlap_score>
0.7589684724807739

$$$$
BENZO_295_1
  -OEChem-08232013543D

 49 52  0     1  0  0  0  0  0999 V2000
    4.2460    1.7520   20.8250 C   0  0  0  0  0  0  0  0  0  0  0  0
    3.8860    2.1050   19.5250 C   0  0  0  0  0  0  0  0  0  0  0  0
    5.3890    1.0010   21.0690 C   0  0  0  0  0  0  0  0  0  0  0  0
    9.1890   -3.5540   24.0140 C   0  0  0  0  0  0  0  0  0  0  0  0
    7.8700   -2.0610   25.3550 C   0  0  0  0  0  0  0  0  0  0  0  0
    9.5890   -2.4950   23.2210 C   0  0  0  0  0  0  0  0  0  0  0  0
    8.2550   -1.0010   24.5520 C   0  0  0  0  0  0  0  0  0  0  0  0
    4.6610    1.7170   18.4380 C   0  0  0  0  0  0  0  0  0  0  0  0
   13.1332   -1.1110   24.1732 C   0  0  0  0  0  0  0  0  0  0  0  0
   11.5178   -0.0030   25.1721 C   0  0  0  0  0  0  0  0  0  0  0  0
    7.5840   -0.2700   18.5160 C   0  0  0  0  0  0  0  0  0  0  0  0
    6.1460    0.6070   19.9750 C   0  0  0  0  0  0  0  0  0  0  0  0
    8.3450   -3.3440   25.0980 C   0  0  0  0  0  0  0  0  0  0  0  0
    9.1280   -1.2090   23.4870 C   0  0  0  0  0  0  0  0  0  0  0  0
   11.9236   -0.4323   23.9322 C   0  0  0  0  0  0  0  0  0  0  0  0
    5.7970    0.9500   18.6730 C   0  0  0  0  0  0  0  0  0  0  0  0
    7.2710   -0.1460   19.8310 C   0  0  0  0  0  0  0  0  0  0  0  0
    9.0430    0.2380   21.4940 C   0  0  0  0  0  0  0  0  0  0  0  0
    7.9517   -4.4787   25.9770 C   0  0  0  0  0  0  0  0  0  0  0  0
   12.4834   -0.2219   27.4740 C   0  0  0  0  0  0  0  0  0  0  0  0
   11.2273   -0.2199   22.6076 C   0  0  0  0  0  0  0  0  0  0  0  0
    9.5820   -0.1080   22.7000 C   0  0  1  0  0  0  0  0  0  0  0  0
   13.4738   -1.1150   25.4647 N   0  0  0  0  0  0  0  0  0  0  0  0
    6.7100    0.3850   17.8100 N   0  0  0  0  0  0  0  0  0  0  0  0
   12.4721   -0.4335   26.0464 N   0  0  0  0  0  0  0  0  0  0  0  0
    8.0950   -0.7700   20.8440 N   0  0  0  0  0  0  0  0  0  0  0  0
    9.2950    1.3000   20.9480 O   0  0  0  0  0  0  0  0  0  0  0  0
    3.6208    2.0704   21.6579 H   0  0  0  0  0  0  0  0  0  0  0  0
    2.9857    2.6926   19.3615 H   0  0  0  0  0  0  0  0  0  0  0  0
    5.6664    0.7407   22.0807 H   0  0  0  0  0  0  0  0  0  0  0  0
    9.5416   -4.5625   23.7818 H   0  0  0  0  0  0  0  0  0  0  0  0
    7.1926   -1.8847   26.1916 H   0  0  0  0  0  0  0  0  0  0  0  0
   10.2688   -2.6720   22.3870 H   0  0  0  0  0  0  0  0  0  0  0  0
    7.8705   -0.0015   24.7579 H   0  0  0  0  0  0  0  0  0  0  0  0
    4.3794    2.0106   17.4221 H   0  0  0  0  0  0  0  0  0  0  0  0
   13.7829   -1.6028   23.4631 H   0  0  0  0  0  0  0  0  0  0  0  0
   10.6535    0.5594   25.4986 H   0  0  0  0  0  0  0  0  0  0  0  0
    8.4172   -0.8135   18.0384 H   0  0  0  0  0  0  0  0  0  0  0  0
    8.6661   -4.5883   26.8021 H   0  0  0  0  0  0  0  0  0  0  0  0
    6.9508   -4.3263   26.4014 H   0  0  0  0  0  0  0  0  0  0  0  0
    7.9188   -5.4228   25.4175 H   0  0  0  0  0  0  0  0  0  0  0  0
   11.9614   -1.0599   27.9433 H   0  0  0  0  0  0  0  0  0  0  0  0
   13.5174   -0.1700   27.8262 H   0  0  0  0  0  0  0  0  0  0  0  0
   11.9792    0.7209   27.7036 H   0  0  0  0  0  0  0  0  0  0  0  0
   11.5842    0.7150   22.1561 H   0  0  0  0  0  0  0  0  0  0  0  0
   11.5525   -1.0164   21.9239 H   0  0  0  0  0  0  0  0  0  0  0  0
    9.5374    0.8439   23.4178 H   0  0  0  0  0  0  0  0  0  0  0  0
    6.6715    0.4865   16.8044 H   0  0  0  0  0  0  0  0  0  0  0  0
    8.0730   -1.6176   21.0751 H   0  0  0  0  0  0  0  0  0  0  0  0
  1  2  1  0  0  0  0
  1  3  2  0  0  0  0
  2  8  2  0  0  0  0
  3 12  1  0  0  0  0
  4  6  2  0  0  0  0
  4 13  1  0  0  0  0
  5  7  1  0  0  0  0
  5 13  2  0  0  0  0
  6 14  1  0  0  0  0
  7 14  2  0  0  0  0
  8 16  1  0  0  0  0
  9 15  1  0  0  0  0
  9 23  2  0  0  0  0
 10 15  2  0  0  0  0
 10 25  1  0  0  0  0
 11 17  2  0  0  0  0
 11 24  1  0  0  0  0
 12 16  2  0  0  0  0
 12 17  1  0  0  0  0
 13 19  1  0  0  0  0
 14 22  1  0  0  0  0
 15 21  1  0  0  0  0
 16 24  1  0  0  0  0
 17 26  1  0  0  0  0
 18 22  1  0  0  0  0
 18 26  1  0  0  0  0
 18 27  2  0  0  0  0
 20 25  1  0  0  0  0
 21 22  1  1  0  0  0
 23 25  1  0  0  0  0
  1 28  1  0  0  0  0
  2 29  1  0  0  0  0
  3 30  1  0  0  0  0
  4 31  1  0  0  0  0
  5 32  1  0  0  0  0
  6 33  1  0  0  0  0
  7 34  1  0  0  0  0
  8 35  1  0  0  0  0
  9 36  1  0  0  0  0
 10 37  1  0  0  0  0
 11 38  1  0  0  0  0
 19 39  1  0  0  0  0
 19 40  1  0  0  0  0
 19 41  1  0  0  0  0
 20 42  1  0  0  0  0
 20 43  1  0  0  0  0
 20 44  1  0  0  0  0
 21 45  1  0  0  0  0
 21 46  1  0  0  0  0
 22 47  1  0  0  0  0
 24 48  1  0  0  0  0
 26 49  1  0  0  0  0
M  END
> <clash_score>
0

> <docking_score>
-4.735947608947754

> <overlap_score>
0.8262996077537537

$$$$
BENZO_295_2
  -OEChem-08232013543D

 49 52  0     1  0  0  0  0  0999 V2000
    4.2460    1.7520   20.8250 C   0  0  0  0  0  0  0  0  0  0  0  0
    3.8860    2.1050   19.5250 C   0  0  0  0  0  0  0  0  0  0  0  0
    5.3890    1.0010   21.0690 C   0  0  0  0  0  0  0  0  0  0  0  0
    9.1890   -3.5540   24.0140 C   0  0  0  0  0  0  0  0  0  0  0  0
    7.8700   -2.0610   25.3550 C   0  0  0  0  0  0  0  0  0  0  0  0
    9.5890   -2.4950   23.2210 C   0  0  0  0  0  0  0  0  0  0  0  0
    8.2550   -1.0010   24.5520 C   0  0  0  0  0  0  0  0  0  0  0  0
    4.6610    1.7170   18.4380 C   0  0  0  0  0  0  0  0  0  0  0  0
   11.7155    0.1520   24.9872 C   0  0  0  0  0  0  0  0  0  0  0  0
   11.0544    2.1258   25.6959 C   0  0  0  0  0  0  0  0  0  0  0  0
    7.5840   -0.2700   18.5160 C   0  0  0  0  0  0  0  0  0  0  0  0
    6.1460    0.6070   19.9750 C   0  0  0  0  0  0  0  0  0  0  0  0
    8.3450   -3.3440   25.0980 C   0  0  0  0  0  0  0  0  0  0  0  0
    9.1280   -1.2090   23.4870 C   0  0  0  0  0  0  0  0  0  0  0  0
   10.7691    1.1678   24.7539 C   0  0  0  0  0  0  0  0  0  0  0  0
    5.7970    0.9500   18.6730 C   0  0  0  0  0  0  0  0  0  0  0  0
    7.2710   -0.1460   19.8310 C   0  0  0  0  0  0  0  0  0  0  0  0
    9.0430    0.2380   21.4940 C   0  0  0  0  0  0  0  0  0  0  0  0
    7.9517   -4.4787   25.9770 C   0  0  0  0  0  0  0  0  0  0  0  0
   12.7726    2.3013   27.5113 C   0  0  0  0  0  0  0  0  0  0  0  0
    9.6841    1.2008   23.7022 C   0  0  0  0  0  0  0  0  0  0  0  0
    9.5820   -0.1080   22.7000 C   0  0  2  0  0  0  0  0  0  0  0  0
   12.5403    0.4381   25.9980 N   0  0  0  0  0  0  0  0  0  0  0  0
    6.7100    0.3850   17.8100 N   0  0  0  0  0  0  0  0  0  0  0  0
   12.1132    1.6445   26.4082 N   0  0  0  0  0  0  0  0  0  0  0  0
    8.0950   -0.7700   20.8440 N   0  0  0  0  0  0  0  0  0  0  0  0
    9.2950    1.3000   20.9480 O   0  0  0  0  0  0  0  0  0  0  0  0
    3.6208    2.0704   21.6579 H   0  0  0  0  0  0  0  0  0  0  0  0
    2.9857    2.6926   19.3615 H   0  0  0  0  0  0  0  0  0  0  0  0
    5.6664    0.7407   22.0807 H   0  0  0  0  0  0  0  0  0  0  0  0
    9.5416   -4.5625   23.7818 H   0  0  0  0  0  0  0  0  0  0  0  0
    7.1926   -1.8847   26.1916 H   0  0  0  0  0  0  0  0  0  0  0  0
   10.2688   -2.6720   22.3870 H   0  0  0  0  0  0  0  0  0  0  0  0
    7.8705   -0.0015   24.7579 H   0  0  0  0  0  0  0  0  0  0  0  0
    4.3794    2.0106   17.4221 H   0  0  0  0  0  0  0  0  0  0  0  0
   11.8409   -0.7851   24.4635 H   0  0  0  0  0  0  0  0  0  0  0  0
   10.6061    3.0857   25.9138 H   0  0  0  0  0  0  0  0  0  0  0  0
    8.4172   -0.8135   18.0384 H   0  0  0  0  0  0  0  0  0  0  0  0
    8.6661   -4.5883   26.8021 H   0  0  0  0  0  0  0  0  0  0  0  0
    6.9508   -4.3263   26.4014 H   0  0  0  0  0  0  0  0  0  0  0  0
    7.9188   -5.4228   25.4175 H   0  0  0  0  0  0  0  0  0  0  0  0
   12.2713    1.9965   28.4337 H   0  0  0  0  0  0  0  0  0  0  0  0
   13.8256    2.0072   27.5334 H   0  0  0  0  0  0  0  0  0  0  0  0
   12.7061    3.3847   27.3788 H   0  0  0  0  0  0  0  0  0  0  0  0
    8.7167    1.3910   24.1851 H   0  0  0  0  0  0  0  0  0  0  0  0
    9.8647    2.0727   23.0582 H   0  0  0  0  0  0  0  0  0  0  0  0
   10.7539   -0.2760   22.5528 H   0  0  0  0  0  0  0  0  0  0  0  0
    6.6715    0.4865   16.8044 H   0  0  0  0  0  0  0  0  0  0  0  0
    8.0730   -1.6176   21.0751 H   0  0  0  0  0  0  0  0  0  0  0  0
  1  2  1  0  0  0  0
  1  3  2  0  0  0  0
  2  8  2  0  0  0  0
  3 12  1  0  0  0  0
  4  6  2  0  0  0  0
  4 13  1  0  0  0  0
  5  7  1  0  0  0  0
  5 13  2  0  0  0  0
  6 14  1  0  0  0  0
  7 14  2  0  0  0  0
  8 16  1  0  0  0  0
  9 15  1  0  0  0  0
  9 23  2  0  0  0  0
 10 15  2  0  0  0  0
 10 25  1  0  0  0  0
 11 17  2  0  0  0  0
 11 24  1  0  0  0  0
 12 16  2  0  0  0  0
 12 17  1  0  0  0  0
 13 19  1  0  0  0  0
 14 22  1  0  0  0  0
 15 21  1  0  0  0  0
 16 24  1  0  0  0  0
 17 26  1  0  0  0  0
 18 22  1  0  0  0  0
 18 26  1  0  0  0  0
 18 27  2  0  0  0  0
 20 25  1  0  0  0  0
 21 22  1  6  0  0  0
 23 25  1  0  0  0  0
  1 28  1  0  0  0  0
  2 29  1  0  0  0  0
  3 30  1  0  0  0  0
  4 31  1  0  0  0  0
  5 32  1  0  0  0  0
  6 33  1  0  0  0  0
  7 34  1  0  0  0  0
  8 35  1  0  0  0  0
  9 36  1  0  0  0  0
 10 37  1  0  0  0  0
 11 38  1  0  0  0  0
 19 39  1  0  0  0  0
 19 40  1  0  0  0  0
 19 41  1  0  0  0  0
 20 42  1  0  0  0  0
 20 43  1  0  0  0  0
 20 44  1  0  0  0  0
 21 45  1  0  0  0  0
 21 46  1  0  0  0  0
 22 47  1  0  0  0  0
 24 48  1  0  0  0  0
 26 49  1  0  0  0  0
M  END
> <clash_score>
3.2086039238368342

> <docking_score>
-2.6785988807678223

> <overlap_score>
0.7493649125099182

$$$$
BENZO_297_1
  -OEChem-08232013543D

 50 53  0     1  0  0  0  0  0999 V2000
   13.2081   -0.8233   26.3776 C   0  0  0  0  0  0  0  0  0  0  0  0
    4.2460    1.7520   20.8250 C   0  0  0  0  0  0  0  0  0  0  0  0
   13.7678   -1.3337   25.2064 C   0  0  0  0  0  0  0  0  0  0  0  0
   12.0060   -0.1174   26.3261 C   0  0  0  0  0  0  0  0  0  0  0  0
    3.8860    2.1050   19.5250 C   0  0  0  0  0  0  0  0  0  0  0  0
    5.3890    1.0010   21.0690 C   0  0  0  0  0  0  0  0  0  0  0  0
   13.1256   -1.1382   23.9837 C   0  0  0  0  0  0  0  0  0  0  0  0
   11.3638    0.0781   25.1034 C   0  0  0  0  0  0  0  0  0  0  0  0
    9.5890   -2.4950   23.2210 C   0  0  0  0  0  0  0  0  0  0  0  0
    8.2550   -1.0010   24.5520 C   0  0  0  0  0  0  0  0  0  0  0  0
    4.6610    1.7170   18.4380 C   0  0  0  0  0  0  0  0  0  0  0  0
    9.1890   -3.5540   24.0140 C   0  0  0  0  0  0  0  0  0  0  0  0
    7.8700   -2.0610   25.3550 C   0  0  0  0  0  0  0  0  0  0  0  0
    7.5840   -0.2700   18.5160 C   0  0  0  0  0  0  0  0  0  0  0  0
    6.1460    0.6070   19.9750 C   0  0  0  0  0  0  0  0  0  0  0  0
   11.9236   -0.4323   23.9322 C   0  0  0  0  0  0  0  0  0  0  0  0
    9.1280   -1.2090   23.4870 C   0  0  0  0  0  0  0  0  0  0  0  0
    5.7970    0.9500   18.6730 C   0  0  0  0  0  0  0  0  0  0  0  0
    7.2710   -0.1460   19.8310 C   0  0  0  0  0  0  0  0  0  0  0  0
    8.3450   -3.3440   25.0980 C   0  0  0  0  0  0  0  0  0  0  0  0
    9.0430    0.2380   21.4940 C   0  0  0  0  0  0  0  0  0  0  0  0
    7.1165   -4.0862   26.9914 C   0  0  0  0  0  0  0  0  0  0  0  0
   11.2273   -0.2199   22.6076 C   0  0  0  0  0  0  0  0  0  0  0  0
    9.5820   -0.1080   22.7000 C   0  0  1  0  0  0  0  0  0  0  0  0
    6.7100    0.3850   17.8100 N   0  0  0  0  0  0  0  0  0  0  0  0
    8.0950   -0.7700   20.8440 N   0  0  0  0  0  0  0  0  0  0  0  0
    9.2950    1.3000   20.9480 O   0  0  0  0  0  0  0  0  0  0  0  0
    7.9856   -4.3803   25.8987 O   0  0  0  0  0  0  0  0  0  0  0  0
   13.7076   -0.9768   27.3297 H   0  0  0  0  0  0  0  0  0  0  0  0
    3.6208    2.0704   21.6579 H   0  0  0  0  0  0  0  0  0  0  0  0
   14.7032   -1.8843   25.2464 H   0  0  0  0  0  0  0  0  0  0  0  0
   11.5694    0.2792   27.2379 H   0  0  0  0  0  0  0  0  0  0  0  0
    2.9857    2.6926   19.3615 H   0  0  0  0  0  0  0  0  0  0  0  0
    5.6664    0.7407   22.0807 H   0  0  0  0  0  0  0  0  0  0  0  0
   13.5692   -1.5394   23.0762 H   0  0  0  0  0  0  0  0  0  0  0  0
   10.4277    0.6294   25.0729 H   0  0  0  0  0  0  0  0  0  0  0  0
   10.2677   -2.6721   22.3861 H   0  0  0  0  0  0  0  0  0  0  0  0
    7.8705   -0.0015   24.7586 H   0  0  0  0  0  0  0  0  0  0  0  0
    4.3794    2.0106   17.4221 H   0  0  0  0  0  0  0  0  0  0  0  0
    9.5403   -4.5634   23.7844 H   0  0  0  0  0  0  0  0  0  0  0  0
    7.1918   -1.8874   26.1909 H   0  0  0  0  0  0  0  0  0  0  0  0
    8.4172   -0.8135   18.0384 H   0  0  0  0  0  0  0  0  0  0  0  0
    6.9092   -5.0024   27.5498 H   0  0  0  0  0  0  0  0  0  0  0  0
    6.1847   -3.6591   26.6123 H   0  0  0  0  0  0  0  0  0  0  0  0
    7.6049   -3.3637   27.6496 H   0  0  0  0  0  0  0  0  0  0  0  0
   11.5842    0.7150   22.1561 H   0  0  0  0  0  0  0  0  0  0  0  0
   11.5525   -1.0164   21.9239 H   0  0  0  0  0  0  0  0  0  0  0  0
    9.5374    0.8439   23.4178 H   0  0  0  0  0  0  0  0  0  0  0  0
    6.6715    0.4865   16.8044 H   0  0  0  0  0  0  0  0  0  0  0  0
    8.0730   -1.6176   21.0751 H   0  0  0  0  0  0  0  0  0  0  0  0
  1  3  1  0  0  0  0
  1  4  2  0  0  0  0
  2  5  1  0  0  0  0
  2  6  2  0  0  0  0
  3  7  2  0  0  0  0
  4  8  1  0  0  0  0
  5 11  2  0  0  0  0
  6 15  1  0  0  0  0
  7 16  1  0  0  0  0
  8 16  2  0  0  0  0
  9 12  2  0  0  0  0
  9 17  1  0  0  0  0
 10 13  1  0  0  0  0
 10 17  2  0  0  0  0
 11 18  1  0  0  0  0
 12 20  1  0  0  0  0
 13 20  2  0  0  0  0
 14 19  2  0  0  0  0
 14 25  1  0  0  0  0
 15 18  2  0  0  0  0
 15 19  1  0  0  0  0
 16 23  1  0  0  0  0
 17 24  1  0  0  0  0
 18 25  1  0  0  0  0
 19 26  1  0  0  0  0
 20 28  1  0  0  0  0
 21 24  1  0  0  0  0
 21 26  1  0  0  0  0
 21 27  2  0  0  0  0
 22 28  1  0  0  0  0
 23 24  1  1  0  0  0
  1 29  1  0  0  0  0
  2 30  1  0  0  0  0
  3 31  1  0  0  0  0
  4 32  1  0  0  0  0
  5 33  1  0  0  0  0
  6 34  1  0  0  0  0
  7 35  1  0  0  0  0
  8 36  1  0  0  0  0
  9 37  1  0  0  0  0
 10 38  1  0  0  0  0
 11 39  1  0  0  0  0
 12 40  1  0  0  0  0
 13 41  1  0  0  0  0
 14 42  1  0  0  0  0
 22 43  1  0  0  0  0
 22 44  1  0  0  0  0
 22 45  1  0  0  0  0
 23 46  1  0  0  0  0
 23 47  1  0  0  0  0
 24 48  1  0  0  0  0
 25 49  1  0  0  0  0
 26 50  1  0  0  0  0
M  END
> <clash_score>
0

> <docking_score>
-4.710854530334473

> <overlap_score>
0.8506906628608704

$$$$
BENZO_297_2
  -OEChem-08232013543D

 50 53  0     1  0  0  0  0  0999 V2000
   12.7714    1.1058   26.6955 C   0  0  0  0  0  0  0  0  0  0  0  0
    4.2460    1.7520   20.8250 C   0  0  0  0  0  0  0  0  0  0  0  0
   12.3476    2.3261   26.1695 C   0  0  0  0  0  0  0  0  0  0  0  0
   12.1941   -0.0836   26.2506 C   0  0  0  0  0  0  0  0  0  0  0  0
    3.8860    2.1050   19.5250 C   0  0  0  0  0  0  0  0  0  0  0  0
    5.3890    1.0010   21.0690 C   0  0  0  0  0  0  0  0  0  0  0  0
   11.3464    2.3572   25.1987 C   0  0  0  0  0  0  0  0  0  0  0  0
   11.1930   -0.0526   25.2799 C   0  0  0  0  0  0  0  0  0  0  0  0
    9.5890   -2.4950   23.2210 C   0  0  0  0  0  0  0  0  0  0  0  0
    8.2550   -1.0010   24.5520 C   0  0  0  0  0  0  0  0  0  0  0  0
    4.6610    1.7170   18.4380 C   0  0  0  0  0  0  0  0  0  0  0  0
    9.1890   -3.5540   24.0140 C   0  0  0  0  0  0  0  0  0  0  0  0
    7.8700   -2.0610   25.3550 C   0  0  0  0  0  0  0  0  0  0  0  0
    7.5840   -0.2700   18.5160 C   0  0  0  0  0  0  0  0  0  0  0  0
    6.1460    0.6070   19.9750 C   0  0  0  0  0  0  0  0  0  0  0  0
   10.7691    1.1678   24.7539 C   0  0  0  0  0  0  0  0  0  0  0  0
    9.1280   -1.2090   23.4870 C   0  0  0  0  0  0  0  0  0  0  0  0
    5.7970    0.9500   18.6730 C   0  0  0  0  0  0  0  0  0  0  0  0
    7.2710   -0.1460   19.8310 C   0  0  0  0  0  0  0  0  0  0  0  0
    8.3450   -3.3440   25.0980 C   0  0  0  0  0  0  0  0  0  0  0  0
    9.0430    0.2380   21.4940 C   0  0  0  0  0  0  0  0  0  0  0  0
    7.1165   -4.0862   26.9914 C   0  0  0  0  0  0  0  0  0  0  0  0
    9.6841    1.2008   23.7022 C   0  0  0  0  0  0  0  0  0  0  0  0
    9.5820   -0.1080   22.7000 C   0  0  2  0  0  0  0  0  0  0  0  0
    6.7100    0.3850   17.8100 N   0  0  0  0  0  0  0  0  0  0  0  0
    8.0950   -0.7700   20.8440 N   0  0  0  0  0  0  0  0  0  0  0  0
    9.2950    1.3000   20.9480 O   0  0  0  0  0  0  0  0  0  0  0  0
    7.9856   -4.3803   25.8987 O   0  0  0  0  0  0  0  0  0  0  0  0
   13.5519    1.0817   27.4504 H   0  0  0  0  0  0  0  0  0  0  0  0
    3.6208    2.0704   21.6579 H   0  0  0  0  0  0  0  0  0  0  0  0
   12.7977    3.2523   26.5149 H   0  0  0  0  0  0  0  0  0  0  0  0
   12.5246   -1.0340   26.6591 H   0  0  0  0  0  0  0  0  0  0  0  0
    2.9857    2.6926   19.3615 H   0  0  0  0  0  0  0  0  0  0  0  0
    5.6664    0.7407   22.0807 H   0  0  0  0  0  0  0  0  0  0  0  0
   11.0224    3.3127   24.7947 H   0  0  0  0  0  0  0  0  0  0  0  0
   10.7489   -0.9842   24.9394 H   0  0  0  0  0  0  0  0  0  0  0  0
   10.2677   -2.6721   22.3861 H   0  0  0  0  0  0  0  0  0  0  0  0
    7.8705   -0.0015   24.7586 H   0  0  0  0  0  0  0  0  0  0  0  0
    4.3794    2.0106   17.4221 H   0  0  0  0  0  0  0  0  0  0  0  0
    9.5403   -4.5634   23.7844 H   0  0  0  0  0  0  0  0  0  0  0  0
    7.1918   -1.8874   26.1909 H   0  0  0  0  0  0  0  0  0  0  0  0
    8.4172   -0.8135   18.0384 H   0  0  0  0  0  0  0  0  0  0  0  0
    6.9092   -5.0024   27.5498 H   0  0  0  0  0  0  0  0  0  0  0  0
    6.1847   -3.6591   26.6123 H   0  0  0  0  0  0  0  0  0  0  0  0
    7.6049   -3.3637   27.6496 H   0  0  0  0  0  0  0  0  0  0  0  0
    8.7167    1.3910   24.1851 H   0  0  0  0  0  0  0  0  0  0  0  0
    9.8647    2.0727   23.0582 H   0  0  0  0  0  0  0  0  0  0  0  0
   10.7539   -0.2760   22.5528 H   0  0  0  0  0  0  0  0  0  0  0  0
    6.6715    0.4865   16.8044 H   0  0  0  0  0  0  0  0  0  0  0  0
    8.0730   -1.6176   21.0751 H   0  0  0  0  0  0  0  0  0  0  0  0
  1  3  1  0  0  0  0
  1  4  2  0  0  0  0
  2  5  1  0  0  0  0
  2  6  2  0  0  0  0
  3  7  2  0  0  0  0
  4  8  1  0  0  0  0
  5 11  2  0  0  0  0
  6 15  1  0  0  0  0
  7 16  1  0  0  0  0
  8 16  2  0  0  0  0
  9 12  2  0  0  0  0
  9 17  1  0  0  0  0
 10 13  1  0  0  0  0
 10 17  2  0  0  0  0
 11 18  1  0  0  0  0
 12 20  1  0  0  0  0
 13 20  2  0  0  0  0
 14 19  2  0  0  0  0
 14 25  1  0  0  0  0
 15 18  2  0  0  0  0
 15 19  1  0  0  0  0
 16 23  1  0  0  0  0
 17 24  1  0  0  0  0
 18 25  1  0  0  0  0
 19 26  1  0  0  0  0
 20 28  1  0  0  0  0
 21 24  1  0  0  0  0
 21 26  1  0  0  0  0
 21 27  2  0  0  0  0
 22 28  1  0  0  0  0
 23 24  1  6  0  0  0
  1 29  1  0  0  0  0
  2 30  1  0  0  0  0
  3 31  1  0  0  0  0
  4 32  1  0  0  0  0
  5 33  1  0  0  0  0
  6 34  1  0  0  0  0
  7 35  1  0  0  0  0
  8 36  1  0  0  0  0
  9 37  1  0  0  0  0
 10 38  1  0  0  0  0
 11 39  1  0  0  0  0
 12 40  1  0  0  0  0
 13 41  1  0  0  0  0
 14 42  1  0  0  0  0
 22 43  1  0  0  0  0
 22 44  1  0  0  0  0
 22 45  1  0  0  0  0
 23 46  1  0  0  0  0
 23 47  1  0  0  0  0
 24 48  1  0  0  0  0
 25 49  1  0  0  0  0
 26 50  1  0  0  0  0
M  END
> <clash_score>
3.0570163879626

> <docking_score>
-2.9219417572021484

> <overlap_score>
0.7636331915855408

$$$$
BENZO_296_1
  -OEChem-08232013543D

 47 50  0     1  0  0  0  0  0999 V2000
    4.2460    1.7520   20.8250 C   0  0  0  0  0  0  0  0  0  0  0  0
    3.8860    2.1050   19.5250 C   0  0  0  0  0  0  0  0  0  0  0  0
    5.3890    1.0010   21.0690 C   0  0  0  0  0  0  0  0  0  0  0  0
    9.5890   -2.4950   23.2210 C   0  0  0  0  0  0  0  0  0  0  0  0
    8.2550   -1.0010   24.5520 C   0  0  0  0  0  0  0  0  0  0  0  0
    4.6610    1.7170   18.4380 C   0  0  0  0  0  0  0  0  0  0  0  0
    9.1890   -3.5540   24.0140 C   0  0  0  0  0  0  0  0  0  0  0  0
    7.8700   -2.0610   25.3550 C   0  0  0  0  0  0  0  0  0  0  0  0
   11.4269    0.0504   25.1773 C   0  0  0  0  0  0  0  0  0  0  0  0
    7.5840   -0.2700   18.5160 C   0  0  0  0  0  0  0  0  0  0  0  0
   12.2544   -0.2804   26.2278 C   0  0  0  0  0  0  0  0  0  0  0  0
   13.1121   -1.1136   24.0784 C   0  0  0  0  0  0  0  0  0  0  0  0
    6.1460    0.6070   19.9750 C   0  0  0  0  0  0  0  0  0  0  0  0
    9.1280   -1.2090   23.4870 C   0  0  0  0  0  0  0  0  0  0  0  0
   11.9236   -0.4323   23.9322 C   0  0  0  0  0  0  0  0  0  0  0  0
    5.7970    0.9500   18.6730 C   0  0  0  0  0  0  0  0  0  0  0  0
    7.2710   -0.1460   19.8310 C   0  0  0  0  0  0  0  0  0  0  0  0
    8.3450   -3.3440   25.0980 C   0  0  0  0  0  0  0  0  0  0  0  0
    9.0430    0.2380   21.4940 C   0  0  0  0  0  0  0  0  0  0  0  0
    7.1165   -4.0862   26.9914 C   0  0  0  0  0  0  0  0  0  0  0  0
   11.2273   -0.2199   22.6076 C   0  0  0  0  0  0  0  0  0  0  0  0
    9.5820   -0.1080   22.7000 C   0  0  1  0  0  0  0  0  0  0  0  0
    6.7100    0.3850   17.8100 N   0  0  0  0  0  0  0  0  0  0  0  0
    8.0950   -0.7700   20.8440 N   0  0  0  0  0  0  0  0  0  0  0  0
    9.2950    1.3000   20.9480 O   0  0  0  0  0  0  0  0  0  0  0  0
    7.9856   -4.3803   25.8987 O   0  0  0  0  0  0  0  0  0  0  0  0
   13.6239   -1.1694   25.7116 S   0  0  0  0  0  0  0  0  0  0  0  0
    3.6208    2.0704   21.6579 H   0  0  0  0  0  0  0  0  0  0  0  0
    2.9857    2.6926   19.3615 H   0  0  0  0  0  0  0  0  0  0  0  0
    5.6664    0.7407   22.0807 H   0  0  0  0  0  0  0  0  0  0  0  0
   10.2677   -2.6721   22.3861 H   0  0  0  0  0  0  0  0  0  0  0  0
    7.8705   -0.0015   24.7586 H   0  0  0  0  0  0  0  0  0  0  0  0
    4.3794    2.0106   17.4221 H   0  0  0  0  0  0  0  0  0  0  0  0
    9.5403   -4.5634   23.7844 H   0  0  0  0  0  0  0  0  0  0  0  0
    7.1918   -1.8874   26.1909 H   0  0  0  0  0  0  0  0  0  0  0  0
   10.5098    0.6126   25.3007 H   0  0  0  0  0  0  0  0  0  0  0  0
    8.4172   -0.8135   18.0384 H   0  0  0  0  0  0  0  0  0  0  0  0
   12.1206   -0.0420   27.2735 H   0  0  0  0  0  0  0  0  0  0  0  0
   13.7079   -1.5816   23.3071 H   0  0  0  0  0  0  0  0  0  0  0  0
    6.9092   -5.0024   27.5498 H   0  0  0  0  0  0  0  0  0  0  0  0
    6.1847   -3.6591   26.6123 H   0  0  0  0  0  0  0  0  0  0  0  0
    7.6049   -3.3637   27.6496 H   0  0  0  0  0  0  0  0  0  0  0  0
   11.5842    0.7150   22.1561 H   0  0  0  0  0  0  0  0  0  0  0  0
   11.5525   -1.0164   21.9239 H   0  0  0  0  0  0  0  0  0  0  0  0
    9.5374    0.8439   23.4178 H   0  0  0  0  0  0  0  0  0  0  0  0
    6.6715    0.4865   16.8044 H   0  0  0  0  0  0  0  0  0  0  0  0
    8.0730   -1.6176   21.0751 H   0  0  0  0  0  0  0  0  0  0  0  0
  1  2  1  0  0  0  0
  1  3  2  0  0  0  0
  2  6  2  0  0  0  0
  3 13  1  0  0  0  0
  4  7  2  0  0  0  0
  4 14  1  0  0  0  0
  5  8  1  0  0  0  0
  5 14  2  0  0  0  0
  6 16  1  0  0  0  0
  7 18  1  0  0  0  0
  8 18  2  0  0  0  0
  9 11  2  0  0  0  0
  9 15  1  0  0  0  0
 10 17  2  0  0  0  0
 10 23  1  0  0  0  0
 11 27  1  0  0  0  0
 12 15  2  0  0  0  0
 12 27  1  0  0  0  0
 13 16  2  0  0  0  0
 13 17  1  0  0  0  0
 14 22  1  0  0  0  0
 15 21  1  0  0  0  0
 16 23  1  0  0  0  0
 17 24  1  0  0  0  0
 18 26  1  0  0  0  0
 19 22  1  0  0  0  0
 19 24  1  0  0  0  0
 19 25  2  0  0  0  0
 20 26  1  0  0  0  0
 21 22  1  1  0  0  0
  1 28  1  0  0  0  0
  2 29  1  0  0  0  0
  3 30  1  0  0  0  0
  4 31  1  0  0  0  0
  5 32  1  0  0  0  0
  6 33  1  0  0  0  0
  7 34  1  0  0  0  0
  8 35  1  0  0  0  0
  9 36  1  0  0  0  0
 10 37  1  0  0  0  0
 11 38  1  0  0  0  0
 12 39  1  0  0  0  0
 20 40  1  0  0  0  0
 20 41  1  0  0  0  0
 20 42  1  0  0  0  0
 21 43  1  0  0  0  0
 21 44  1  0  0  0  0
 22 45  1  0  0  0  0
 23 46  1  0  0  0  0
 24 47  1  0  0  0  0
M  END
> <clash_score>
0

> <docking_score>
-5.244453430175781

> <overlap_score>
0.8438329100608826

$$$$
BENZO_296_2
  -OEChem-08232013543D

 47 50  0     1  0  0  0  0  0999 V2000
    4.2460    1.7520   20.8250 C   0  0  0  0  0  0  0  0  0  0  0  0
    3.8860    2.1050   19.5250 C   0  0  0  0  0  0  0  0  0  0  0  0
    5.3890    1.0010   21.0690 C   0  0  0  0  0  0  0  0  0  0  0  0
    9.5890   -2.4950   23.2210 C   0  0  0  0  0  0  0  0  0  0  0  0
    8.2550   -1.0010   24.5520 C   0  0  0  0  0  0  0  0  0  0  0  0
    4.6610    1.7170   18.4380 C   0  0  0  0  0  0  0  0  0  0  0  0
    9.1890   -3.5540   24.0140 C   0  0  0  0  0  0  0  0  0  0  0  0
    7.8700   -2.0610   25.3550 C   0  0  0  0  0  0  0  0  0  0  0  0
   11.1765   -0.0135   25.4385 C   0  0  0  0  0  0  0  0  0  0  0  0
    7.5840   -0.2700   18.5160 C   0  0  0  0  0  0  0  0  0  0  0  0
   12.1828    0.2352   26.3457 C   0  0  0  0  0  0  0  0  0  0  0  0
   11.4796    2.2746   25.1641 C   0  0  0  0  0  0  0  0  0  0  0  0
    6.1460    0.6070   19.9750 C   0  0  0  0  0  0  0  0  0  0  0  0
    9.1280   -1.2090   23.4870 C   0  0  0  0  0  0  0  0  0  0  0  0
   10.7691    1.1678   24.7539 C   0  0  0  0  0  0  0  0  0  0  0  0
    5.7970    0.9500   18.6730 C   0  0  0  0  0  0  0  0  0  0  0  0
    7.2710   -0.1460   19.8310 C   0  0  0  0  0  0  0  0  0  0  0  0
    8.3450   -3.3440   25.0980 C   0  0  0  0  0  0  0  0  0  0  0  0
    9.0430    0.2380   21.4940 C   0  0  0  0  0  0  0  0  0  0  0  0
    7.1165   -4.0862   26.9914 C   0  0  0  0  0  0  0  0  0  0  0  0
    9.6841    1.2008   23.7022 C   0  0  0  0  0  0  0  0  0  0  0  0
    9.5820   -0.1080   22.7000 C   0  0  2  0  0  0  0  0  0  0  0  0
    6.7100    0.3850   17.8100 N   0  0  0  0  0  0  0  0  0  0  0  0
    8.0950   -0.7700   20.8440 N   0  0  0  0  0  0  0  0  0  0  0  0
    9.2950    1.3000   20.9480 O   0  0  0  0  0  0  0  0  0  0  0  0
    7.9856   -4.3803   25.8987 O   0  0  0  0  0  0  0  0  0  0  0  0
   12.6325    1.8873   26.3696 S   0  0  0  0  0  0  0  0  0  0  0  0
    3.6208    2.0704   21.6579 H   0  0  0  0  0  0  0  0  0  0  0  0
    2.9857    2.6926   19.3615 H   0  0  0  0  0  0  0  0  0  0  0  0
    5.6664    0.7407   22.0807 H   0  0  0  0  0  0  0  0  0  0  0  0
   10.2677   -2.6721   22.3861 H   0  0  0  0  0  0  0  0  0  0  0  0
    7.8705   -0.0015   24.7586 H   0  0  0  0  0  0  0  0  0  0  0  0
    4.3794    2.0106   17.4221 H   0  0  0  0  0  0  0  0  0  0  0  0
    9.5403   -4.5634   23.7844 H   0  0  0  0  0  0  0  0  0  0  0  0
    7.1918   -1.8874   26.1909 H   0  0  0  0  0  0  0  0  0  0  0  0
   10.7551   -0.9977   25.2772 H   0  0  0  0  0  0  0  0  0  0  0  0
    8.4172   -0.8135   18.0384 H   0  0  0  0  0  0  0  0  0  0  0  0
   12.6750   -0.4740   26.9961 H   0  0  0  0  0  0  0  0  0  0  0  0
   11.3793    3.2937   24.8171 H   0  0  0  0  0  0  0  0  0  0  0  0
    6.9092   -5.0024   27.5498 H   0  0  0  0  0  0  0  0  0  0  0  0
    6.1847   -3.6591   26.6123 H   0  0  0  0  0  0  0  0  0  0  0  0
    7.6049   -3.3637   27.6496 H   0  0  0  0  0  0  0  0  0  0  0  0
    8.7167    1.3910   24.1851 H   0  0  0  0  0  0  0  0  0  0  0  0
    9.8647    2.0727   23.0582 H   0  0  0  0  0  0  0  0  0  0  0  0
   10.7539   -0.2760   22.5528 H   0  0  0  0  0  0  0  0  0  0  0  0
    6.6715    0.4865   16.8044 H   0  0  0  0  0  0  0  0  0  0  0  0
    8.0730   -1.6176   21.0751 H   0  0  0  0  0  0  0  0  0  0  0  0
  1  2  1  0  0  0  0
  1  3  2  0  0  0  0
  2  6  2  0  0  0  0
  3 13  1  0  0  0  0
  4  7  2  0  0  0  0
  4 14  1  0  0  0  0
  5  8  1  0  0  0  0
  5 14  2  0  0  0  0
  6 16  1  0  0  0  0
  7 18  1  0  0  0  0
  8 18  2  0  0  0  0
  9 11  2  0  0  0  0
  9 15  1  0  0  0  0
 10 17  2  0  0  0  0
 10 23  1  0  0  0  0
 11 27  1  0  0  0  0
 12 15  2  0  0  0  0
 12 27  1  0  0  0  0
 13 16  2  0  0  0  0
 13 17  1  0  0  0  0
 14 22  1  0  0  0  0
 15 21  1  0  0  0  0
 16 23  1  0  0  0  0
 17 24  1  0  0  0  0
 18 26  1  0  0  0  0
 19 22  1  0  0  0  0
 19 24  1  0  0  0  0
 19 25  2  0  0  0  0
 20 26  1  0  0  0  0
 21 22  1  6  0  0  0
  1 28  1  0  0  0  0
  2 29  1  0  0  0  0
  3 30  1  0  0  0  0
  4 31  1  0  0  0  0
  5 32  1  0  0  0  0
  6 33  1  0  0  0  0
  7 34  1  0  0  0  0
  8 35  1  0  0  0  0
  9 36  1  0  0  0  0
 10 37  1  0  0  0  0
 11 38  1  0  0  0  0
 12 39  1  0  0  0  0
 20 40  1  0  0  0  0
 20 41  1  0  0  0  0
 20 42  1  0  0  0  0
 21 43  1  0  0  0  0
 21 44  1  0  0  0  0
 22 45  1  0  0  0  0
 23 46  1  0  0  0  0
 24 47  1  0  0  0  0
M  END
> <clash_score>
2.227266800731233

> <docking_score>
-3.365866184234619

> <overlap_score>
0.7626574039459229

$$$$
BENZO_298_1
  -OEChem-08232013543D

 50 53  0     1  0  0  0  0  0999 V2000
    4.2460    1.7520   20.8250 C   0  0  0  0  0  0  0  0  0  0  0  0
    3.8860    2.1050   19.5250 C   0  0  0  0  0  0  0  0  0  0  0  0
   12.0047   -0.1195   26.3264 C   0  0  0  0  0  0  0  0  0  0  0  0
    5.3890    1.0010   21.0690 C   0  0  0  0  0  0  0  0  0  0  0  0
   11.3632    0.0771   25.1035 C   0  0  0  0  0  0  0  0  0  0  0  0
    9.5890   -2.4950   23.2210 C   0  0  0  0  0  0  0  0  0  0  0  0
    8.2550   -1.0010   24.5520 C   0  0  0  0  0  0  0  0  0  0  0  0
    4.6610    1.7170   18.4380 C   0  0  0  0  0  0  0  0  0  0  0  0
    9.1890   -3.5540   24.0140 C   0  0  0  0  0  0  0  0  0  0  0  0
    7.8700   -2.0610   25.3550 C   0  0  0  0  0  0  0  0  0  0  0  0
   13.2066   -0.8255   26.3780 C   0  0  0  0  0  0  0  0  0  0  0  0
   13.1255   -1.1384   23.9837 C   0  0  0  0  0  0  0  0  0  0  0  0
    7.5840   -0.2700   18.5160 C   0  0  0  0  0  0  0  0  0  0  0  0
    6.1460    0.6070   19.9750 C   0  0  0  0  0  0  0  0  0  0  0  0
    9.1280   -1.2090   23.4870 C   0  0  0  0  0  0  0  0  0  0  0  0
   11.9236   -0.4323   23.9322 C   0  0  0  0  0  0  0  0  0  0  0  0
    5.7970    0.9500   18.6730 C   0  0  0  0  0  0  0  0  0  0  0  0
    7.2710   -0.1460   19.8310 C   0  0  0  0  0  0  0  0  0  0  0  0
    8.3450   -3.3440   25.0980 C   0  0  0  0  0  0  0  0  0  0  0  0
   13.7670   -1.3350   25.2066 C   0  0  0  0  0  0  0  0  0  0  0  0
    9.0430    0.2380   21.4940 C   0  0  0  0  0  0  0  0  0  0  0  0
    8.5106   -5.6662   25.5724 C   0  0  0  0  0  0  0  0  0  0  0  0
   11.2273   -0.2199   22.6076 C   0  0  0  0  0  0  0  0  0  0  0  0
    9.5820   -0.1080   22.7000 C   0  0  1  0  0  0  0  0  0  0  0  0
    6.7100    0.3850   17.8100 N   0  0  0  0  0  0  0  0  0  0  0  0
    8.0950   -0.7700   20.8440 N   0  0  0  0  0  0  0  0  0  0  0  0
    9.2950    1.3000   20.9480 O   0  0  0  0  0  0  0  0  0  0  0  0
    7.9856   -4.3803   25.8987 O   0  0  0  0  0  0  0  0  0  0  0  0
   15.2493   -2.2070   25.2710 Cl  0  0  0  0  0  0  0  0  0  0  0  0
    3.6208    2.0704   21.6579 H   0  0  0  0  0  0  0  0  0  0  0  0
    2.9857    2.6926   19.3615 H   0  0  0  0  0  0  0  0  0  0  0  0
   11.5679    0.2773   27.2383 H   0  0  0  0  0  0  0  0  0  0  0  0
    5.6664    0.7407   22.0807 H   0  0  0  0  0  0  0  0  0  0  0  0
   10.4270    0.6284   25.0728 H   0  0  0  0  0  0  0  0  0  0  0  0
   10.2677   -2.6721   22.3861 H   0  0  0  0  0  0  0  0  0  0  0  0
    7.8705   -0.0015   24.7586 H   0  0  0  0  0  0  0  0  0  0  0  0
    4.3794    2.0106   17.4221 H   0  0  0  0  0  0  0  0  0  0  0  0
    9.5403   -4.5634   23.7844 H   0  0  0  0  0  0  0  0  0  0  0  0
    7.1918   -1.8874   26.1909 H   0  0  0  0  0  0  0  0  0  0  0  0
   13.6953   -0.9714   27.3382 H   0  0  0  0  0  0  0  0  0  0  0  0
   13.5586   -1.5332   23.0675 H   0  0  0  0  0  0  0  0  0  0  0  0
    8.4172   -0.8135   18.0384 H   0  0  0  0  0  0  0  0  0  0  0  0
    8.1445   -6.4032   26.2914 H   0  0  0  0  0  0  0  0  0  0  0  0
    9.6027   -5.6312   25.5944 H   0  0  0  0  0  0  0  0  0  0  0  0
    8.1770   -5.9422   24.5693 H   0  0  0  0  0  0  0  0  0  0  0  0
   11.5842    0.7150   22.1561 H   0  0  0  0  0  0  0  0  0  0  0  0
   11.5525   -1.0164   21.9239 H   0  0  0  0  0  0  0  0  0  0  0  0
    9.5374    0.8439   23.4178 H   0  0  0  0  0  0  0  0  0  0  0  0
    6.6715    0.4865   16.8044 H   0  0  0  0  0  0  0  0  0  0  0  0
    8.0730   -1.6176   21.0751 H   0  0  0  0  0  0  0  0  0  0  0  0
  1  2  1  0  0  0  0
  1  4  2  0  0  0  0
  2  8  2  0  0  0  0
  3  5  2  0  0  0  0
  3 11  1  0  0  0  0
  4 14  1  0  0  0  0
  5 16  1  0  0  0  0
  6  9  2  0  0  0  0
  6 15  1  0  0  0  0
  7 10  1  0  0  0  0
  7 15  2  0  0  0  0
  8 17  1  0  0  0  0
  9 19  1  0  0  0  0
 10 19  2  0  0  0  0
 11 20  2  0  0  0  0
 12 16  2  0  0  0  0
 12 20  1  0  0  0  0
 13 18  2  0  0  0  0
 13 25  1  0  0  0  0
 14 17  2  0  0  0  0
 14 18  1  0  0  0  0
 15 24  1  0  0  0  0
 16 23  1  0  0  0  0
 17 25  1  0  0  0  0
 18 26  1  0  0  0  0
 19 28  1  0  0  0  0
 20 29  1  0  0  0  0
 21 24  1  0  0  0  0
 21 26  1  0  0  0  0
 21 27  2  0  0  0  0
 22 28  1  0  0  0  0
 23 24  1  1  0  0  0
  1 30  1  0  0  0  0
  2 31  1  0  0  0  0
  3 32  1  0  0  0  0
  4 33  1  0  0  0  0
  5 34  1  0  0  0  0
  6 35  1  0  0  0  0
  7 36  1  0  0  0  0
  8 37  1  0  0  0  0
  9 38  1  0  0  0  0
 10 39  1  0  0  0  0
 11 40  1  0  0  0  0
 12 41  1  0  0  0  0
 13 42  1  0  0  0  0
 22 43  1  0  0  0  0
 22 44  1  0  0  0  0
 22 45  1  0  0  0  0
 23 46  1  0  0  0  0
 23 47  1  0  0  0  0
 24 48  1  0  0  0  0
 25 49  1  0  0  0  0
 26 50  1  0  0  0  0
M  END
> <clash_score>
0

> <docking_score>
-4.375566482543945

> <overlap_score>
0.8466262817382812

$$$$
BENZO_298_2
  -OEChem-08232013543D

 50 53  0     1  0  0  0  0  0999 V2000
    4.2460    1.7520   20.8250 C   0  0  0  0  0  0  0  0  0  0  0  0
    3.8860    2.1050   19.5250 C   0  0  0  0  0  0  0  0  0  0  0  0
   11.5820    1.7950   26.9408 C   0  0  0  0  0  0  0  0  0  0  0  0
    5.3890    1.0010   21.0690 C   0  0  0  0  0  0  0  0  0  0  0  0
   10.5816    1.8259   25.9694 C   0  0  0  0  0  0  0  0  0  0  0  0
    9.5890   -2.4950   23.2210 C   0  0  0  0  0  0  0  0  0  0  0  0
    8.2550   -1.0010   24.5520 C   0  0  0  0  0  0  0  0  0  0  0  0
    4.6610    1.7170   18.4380 C   0  0  0  0  0  0  0  0  0  0  0  0
    9.1890   -3.5540   24.0140 C   0  0  0  0  0  0  0  0  0  0  0  0
    7.8700   -2.0610   25.3550 C   0  0  0  0  0  0  0  0  0  0  0  0
   12.7701    1.1060   26.6968 C   0  0  0  0  0  0  0  0  0  0  0  0
   11.9572    0.4788   24.5098 C   0  0  0  0  0  0  0  0  0  0  0  0
    7.5840   -0.2700   18.5160 C   0  0  0  0  0  0  0  0  0  0  0  0
    6.1460    0.6070   19.9750 C   0  0  0  0  0  0  0  0  0  0  0  0
    9.1280   -1.2090   23.4870 C   0  0  0  0  0  0  0  0  0  0  0  0
   10.7691    1.1678   24.7539 C   0  0  0  0  0  0  0  0  0  0  0  0
    5.7970    0.9500   18.6730 C   0  0  0  0  0  0  0  0  0  0  0  0
    7.2710   -0.1460   19.8310 C   0  0  0  0  0  0  0  0  0  0  0  0
    8.3450   -3.3440   25.0980 C   0  0  0  0  0  0  0  0  0  0  0  0
   12.9577    0.4479   25.4813 C   0  0  0  0  0  0  0  0  0  0  0  0
    9.0430    0.2380   21.4940 C   0  0  0  0  0  0  0  0  0  0  0  0
    8.5106   -5.6662   25.5724 C   0  0  0  0  0  0  0  0  0  0  0  0
    9.6841    1.2008   23.7022 C   0  0  0  0  0  0  0  0  0  0  0  0
    9.5820   -0.1080   22.7000 C   0  0  2  0  0  0  0  0  0  0  0  0
    6.7100    0.3850   17.8100 N   0  0  0  0  0  0  0  0  0  0  0  0
    8.0950   -0.7700   20.8440 N   0  0  0  0  0  0  0  0  0  0  0  0
    9.2950    1.3000   20.9480 O   0  0  0  0  0  0  0  0  0  0  0  0
    7.9856   -4.3803   25.8987 O   0  0  0  0  0  0  0  0  0  0  0  0
   14.4232   -0.4029   25.1812 Cl  0  0  0  0  0  0  0  0  0  0  0  0
    3.6208    2.0704   21.6579 H   0  0  0  0  0  0  0  0  0  0  0  0
    2.9857    2.6926   19.3615 H   0  0  0  0  0  0  0  0  0  0  0  0
   11.4356    2.3075   27.8872 H   0  0  0  0  0  0  0  0  0  0  0  0
    5.6664    0.7407   22.0807 H   0  0  0  0  0  0  0  0  0  0  0  0
    9.6591    2.3651   26.1681 H   0  0  0  0  0  0  0  0  0  0  0  0
   10.2677   -2.6721   22.3861 H   0  0  0  0  0  0  0  0  0  0  0  0
    7.8705   -0.0015   24.7586 H   0  0  0  0  0  0  0  0  0  0  0  0
    4.3794    2.0106   17.4221 H   0  0  0  0  0  0  0  0  0  0  0  0
    9.5403   -4.5634   23.7844 H   0  0  0  0  0  0  0  0  0  0  0  0
    7.1918   -1.8874   26.1909 H   0  0  0  0  0  0  0  0  0  0  0  0
   13.5411    1.0902   27.4632 H   0  0  0  0  0  0  0  0  0  0  0  0
   12.0988   -0.0323   23.5603 H   0  0  0  0  0  0  0  0  0  0  0  0
    8.4172   -0.8135   18.0384 H   0  0  0  0  0  0  0  0  0  0  0  0
    8.1445   -6.4032   26.2914 H   0  0  0  0  0  0  0  0  0  0  0  0
    9.6027   -5.6312   25.5944 H   0  0  0  0  0  0  0  0  0  0  0  0
    8.1770   -5.9422   24.5693 H   0  0  0  0  0  0  0  0  0  0  0  0
    8.7167    1.3910   24.1851 H   0  0  0  0  0  0  0  0  0  0  0  0
    9.8647    2.0727   23.0582 H   0  0  0  0  0  0  0  0  0  0  0  0
   10.7539   -0.2760   22.5528 H   0  0  0  0  0  0  0  0  0  0  0  0
    6.6715    0.4865   16.8044 H   0  0  0  0  0  0  0  0  0  0  0  0
    8.0730   -1.6176   21.0751 H   0  0  0  0  0  0  0  0  0  0  0  0
  1  2  1  0  0  0  0
  1  4  2  0  0  0  0
  2  8  2  0  0  0  0
  3  5  2  0  0  0  0
  3 11  1  0  0  0  0
  4 14  1  0  0  0  0
  5 16  1  0  0  0  0
  6  9  2  0  0  0  0
  6 15  1  0  0  0  0
  7 10  1  0  0  0  0
  7 15  2  0  0  0  0
  8 17  1  0  0  0  0
  9 19  1  0  0  0  0
 10 19  2  0  0  0  0
 11 20  2  0  0  0  0
 12 16  2  0  0  0  0
 12 20  1  0  0  0  0
 13 18  2  0  0  0  0
 13 25  1  0  0  0  0
 14 17  2  0  0  0  0
 14 18  1  0  0  0  0
 15 24  1  0  0  0  0
 16 23  1  0  0  0  0
 17 25  1  0  0  0  0
 18 26  1  0  0  0  0
 19 28  1  0  0  0  0
 20 29  1  0  0  0  0
 21 24  1  0  0  0  0
 21 26  1  0  0  0  0
 21 27  2  0  0  0  0
 22 28  1  0  0  0  0
 23 24  1  6  0  0  0
  1 30  1  0  0  0  0
  2 31  1  0  0  0  0
  3 32  1  0  0  0  0
  4 33  1  0  0  0  0
  5 34  1  0  0  0  0
  6 35  1  0  0  0  0
  7 36  1  0  0  0  0
  8 37  1  0  0  0  0
  9 38  1  0  0  0  0
 10 39  1  0  0  0  0
 11 40  1  0  0  0  0
 12 41  1  0  0  0  0
 13 42  1  0  0  0  0
 22 43  1  0  0  0  0
 22 44  1  0  0  0  0
 22 45  1  0  0  0  0
 23 46  1  0  0  0  0
 23 47  1  0  0  0  0
 24 48  1  0  0  0  0
 25 49  1  0  0  0  0
 26 50  1  0  0  0  0
M  END
> <clash_score>
4.383875731019944

> <docking_score>
-2.682534694671631

> <overlap_score>
0.7816112041473389

$$$$
BENZO_299_1
  -OEChem-08232013543D

 50 53  0     1  0  0  0  0  0999 V2000
    4.2460    1.7520   20.8250 C   0  0  0  0  0  0  0  0  0  0  0  0
    3.8860    2.1050   19.5250 C   0  0  0  0  0  0  0  0  0  0  0  0
    5.3890    1.0010   21.0690 C   0  0  0  0  0  0  0  0  0  0  0  0
    9.5890   -2.4950   23.2210 C   0  0  0  0  0  0  0  0  0  0  0  0
    8.2550   -1.0010   24.5520 C   0  0  0  0  0  0  0  0  0  0  0  0
    4.6610    1.7170   18.4380 C   0  0  0  0  0  0  0  0  0  0  0  0
    9.1890   -3.5540   24.0140 C   0  0  0  0  0  0  0  0  0  0  0  0
    7.8700   -2.0610   25.3550 C   0  0  0  0  0  0  0  0  0  0  0  0
   13.1332   -1.1110   24.1732 C   0  0  0  0  0  0  0  0  0  0  0  0
   11.5178   -0.0030   25.1721 C   0  0  0  0  0  0  0  0  0  0  0  0
    7.5840   -0.2700   18.5160 C   0  0  0  0  0  0  0  0  0  0  0  0
    6.1460    0.6070   19.9750 C   0  0  0  0  0  0  0  0  0  0  0  0
    9.1280   -1.2090   23.4870 C   0  0  0  0  0  0  0  0  0  0  0  0
   11.9236   -0.4323   23.9322 C   0  0  0  0  0  0  0  0  0  0  0  0
    5.7970    0.9500   18.6730 C   0  0  0  0  0  0  0  0  0  0  0  0
    7.2710   -0.1460   19.8310 C   0  0  0  0  0  0  0  0  0  0  0  0
    8.3450   -3.3440   25.0980 C   0  0  0  0  0  0  0  0  0  0  0  0
    9.0430    0.2380   21.4940 C   0  0  0  0  0  0  0  0  0  0  0  0
   12.4834   -0.2219   27.4740 C   0  0  0  0  0  0  0  0  0  0  0  0
    7.1165   -4.0862   26.9914 C   0  0  0  0  0  0  0  0  0  0  0  0
   11.2273   -0.2199   22.6076 C   0  0  0  0  0  0  0  0  0  0  0  0
    9.5820   -0.1080   22.7000 C   0  0  1  0  0  0  0  0  0  0  0  0
   13.4738   -1.1150   25.4647 N   0  0  0  0  0  0  0  0  0  0  0  0
    6.7100    0.3850   17.8100 N   0  0  0  0  0  0  0  0  0  0  0  0
   12.4721   -0.4335   26.0464 N   0  0  0  0  0  0  0  0  0  0  0  0
    8.0950   -0.7700   20.8440 N   0  0  0  0  0  0  0  0  0  0  0  0
    9.2950    1.3000   20.9480 O   0  0  0  0  0  0  0  0  0  0  0  0
    7.9856   -4.3803   25.8987 O   0  0  0  0  0  0  0  0  0  0  0  0
    3.6208    2.0704   21.6579 H   0  0  0  0  0  0  0  0  0  0  0  0
    2.9857    2.6926   19.3615 H   0  0  0  0  0  0  0  0  0  0  0  0
    5.6664    0.7407   22.0807 H   0  0  0  0  0  0  0  0  0  0  0  0
   10.2677   -2.6721   22.3861 H   0  0  0  0  0  0  0  0  0  0  0  0
    7.8705   -0.0015   24.7586 H   0  0  0  0  0  0  0  0  0  0  0  0
    4.3794    2.0106   17.4221 H   0  0  0  0  0  0  0  0  0  0  0  0
    9.5403   -4.5634   23.7844 H   0  0  0  0  0  0  0  0  0  0  0  0
    7.1918   -1.8874   26.1909 H   0  0  0  0  0  0  0  0  0  0  0  0
   13.7829   -1.6028   23.4631 H   0  0  0  0  0  0  0  0  0  0  0  0
   10.6535    0.5594   25.4986 H   0  0  0  0  0  0  0  0  0  0  0  0
    8.4172   -0.8135   18.0384 H   0  0  0  0  0  0  0  0  0  0  0  0
   11.9614   -1.0599   27.9433 H   0  0  0  0  0  0  0  0  0  0  0  0
   13.5174   -0.1700   27.8262 H   0  0  0  0  0  0  0  0  0  0  0  0
   11.9792    0.7209   27.7036 H   0  0  0  0  0  0  0  0  0  0  0  0
    6.9092   -5.0024   27.5498 H   0  0  0  0  0  0  0  0  0  0  0  0
    6.1847   -3.6591   26.6123 H   0  0  0  0  0  0  0  0  0  0  0  0
    7.6049   -3.3637   27.6496 H   0  0  0  0  0  0  0  0  0  0  0  0
   11.5842    0.7150   22.1561 H   0  0  0  0  0  0  0  0  0  0  0  0
   11.5525   -1.0164   21.9239 H   0  0  0  0  0  0  0  0  0  0  0  0
    9.5374    0.8439   23.4178 H   0  0  0  0  0  0  0  0  0  0  0  0
    6.6715    0.4865   16.8044 H   0  0  0  0  0  0  0  0  0  0  0  0
    8.0730   -1.6176   21.0751 H   0  0  0  0  0  0  0  0  0  0  0  0
  1  2  1  0  0  0  0
  1  3  2  0  0  0  0
  2  6  2  0  0  0  0
  3 12  1  0  0  0  0
  4  7  2  0  0  0  0
  4 13  1  0  0  0  0
  5  8  1  0  0  0  0
  5 13  2  0  0  0  0
  6 15  1  0  0  0  0
  7 17  1  0  0  0  0
  8 17  2  0  0  0  0
  9 14  1  0  0  0  0
  9 23  2  0  0  0  0
 10 14  2  0  0  0  0
 10 25  1  0  0  0  0
 11 16  2  0  0  0  0
 11 24  1  0  0  0  0
 12 15  2  0  0  0  0
 12 16  1  0  0  0  0
 13 22  1  0  0  0  0
 14 21  1  0  0  0  0
 15 24  1  0  0  0  0
 16 26  1  0  0  0  0
 17 28  1  0  0  0  0
 18 22  1  0  0  0  0
 18 26  1  0  0  0  0
 18 27  2  0  0  0  0
 19 25  1  0  0  0  0
 20 28  1  0  0  0  0
 21 22  1  1  0  0  0
 23 25  1  0  0  0  0
  1 29  1  0  0  0  0
  2 30  1  0  0  0  0
  3 31  1  0  0  0  0
  4 32  1  0  0  0  0
  5 33  1  0  0  0  0
  6 34  1  0  0  0  0
  7 35  1  0  0  0  0
  8 36  1  0  0  0  0
  9 37  1  0  0  0  0
 10 38  1  0  0  0  0
 11 39  1  0  0  0  0
 19 40  1  0  0  0  0
 19 41  1  0  0  0  0
 19 42  1  0  0  0  0
 20 43  1  0  0  0  0
 20 44  1  0  0  0  0
 20 45  1  0  0  0  0
 21 46  1  0  0  0  0
 21 47  1  0  0  0  0
 22 48  1  0  0  0  0
 24 49  1  0  0  0  0
 26 50  1  0  0  0  0
M  END
> <clash_score>
0

> <docking_score>
-4.274708271026611

> <overlap_score>
0.8460130095481873

$$$$
BENZO_299_2
  -OEChem-08232013543D

 50 53  0     1  0  0  0  0  0999 V2000
    4.2460    1.7520   20.8250 C   0  0  0  0  0  0  0  0  0  0  0  0
    3.8860    2.1050   19.5250 C   0  0  0  0  0  0  0  0  0  0  0  0
    5.3890    1.0010   21.0690 C   0  0  0  0  0  0  0  0  0  0  0  0
    9.5890   -2.4950   23.2210 C   0  0  0  0  0  0  0  0  0  0  0  0
    8.2550   -1.0010   24.5520 C   0  0  0  0  0  0  0  0  0  0  0  0
    4.6610    1.7170   18.4380 C   0  0  0  0  0  0  0  0  0  0  0  0
    9.1890   -3.5540   24.0140 C   0  0  0  0  0  0  0  0  0  0  0  0
    7.8700   -2.0610   25.3550 C   0  0  0  0  0  0  0  0  0  0  0  0
   11.7155    0.1520   24.9872 C   0  0  0  0  0  0  0  0  0  0  0  0
   11.0544    2.1258   25.6959 C   0  0  0  0  0  0  0  0  0  0  0  0
    7.5840   -0.2700   18.5160 C   0  0  0  0  0  0  0  0  0  0  0  0
    6.1460    0.6070   19.9750 C   0  0  0  0  0  0  0  0  0  0  0  0
    9.1280   -1.2090   23.4870 C   0  0  0  0  0  0  0  0  0  0  0  0
   10.7691    1.1678   24.7539 C   0  0  0  0  0  0  0  0  0  0  0  0
    5.7970    0.9500   18.6730 C   0  0  0  0  0  0  0  0  0  0  0  0
    7.2710   -0.1460   19.8310 C   0  0  0  0  0  0  0  0  0  0  0  0
    8.3450   -3.3440   25.0980 C   0  0  0  0  0  0  0  0  0  0  0  0
    9.0430    0.2380   21.4940 C   0  0  0  0  0  0  0  0  0  0  0  0
   12.7726    2.3013   27.5113 C   0  0  0  0  0  0  0  0  0  0  0  0
    8.5106   -5.6662   25.5724 C   0  0  0  0  0  0  0  0  0  0  0  0
    9.6841    1.2008   23.7022 C   0  0  0  0  0  0  0  0  0  0  0  0
    9.5820   -0.1080   22.7000 C   0  0  2  0  0  0  0  0  0  0  0  0
   12.5403    0.4381   25.9980 N   0  0  0  0  0  0  0  0  0  0  0  0
    6.7100    0.3850   17.8100 N   0  0  0  0  0  0  0  0  0  0  0  0
   12.1132    1.6445   26.4082 N   0  0  0  0  0  0  0  0  0  0  0  0
    8.0950   -0.7700   20.8440 N   0  0  0  0  0  0  0  0  0  0  0  0
    9.2950    1.3000   20.9480 O   0  0  0  0  0  0  0  0  0  0  0  0
    7.9856   -4.3803   25.8987 O   0  0  0  0  0  0  0  0  0  0  0  0
    3.6208    2.0704   21.6579 H   0  0  0  0  0  0  0  0  0  0  0  0
    2.9857    2.6926   19.3615 H   0  0  0  0  0  0  0  0  0  0  0  0
    5.6664    0.7407   22.0807 H   0  0  0  0  0  0  0  0  0  0  0  0
   10.2677   -2.6721   22.3861 H   0  0  0  0  0  0  0  0  0  0  0  0
    7.8705   -0.0015   24.7586 H   0  0  0  0  0  0  0  0  0  0  0  0
    4.3794    2.0106   17.4221 H   0  0  0  0  0  0  0  0  0  0  0  0
    9.5403   -4.5634   23.7844 H   0  0  0  0  0  0  0  0  0  0  0  0
    7.1918   -1.8874   26.1909 H   0  0  0  0  0  0  0  0  0  0  0  0
   11.8409   -0.7851   24.4635 H   0  0  0  0  0  0  0  0  0  0  0  0
   10.6061    3.0857   25.9138 H   0  0  0  0  0  0  0  0  0  0  0  0
    8.4172   -0.8135   18.0384 H   0  0  0  0  0  0  0  0  0  0  0  0
   12.2713    1.9965   28.4337 H   0  0  0  0  0  0  0  0  0  0  0  0
   13.8256    2.0072   27.5334 H   0  0  0  0  0  0  0  0  0  0  0  0
   12.7061    3.3847   27.3788 H   0  0  0  0  0  0  0  0  0  0  0  0
    8.1445   -6.4032   26.2914 H   0  0  0  0  0  0  0  0  0  0  0  0
    9.6027   -5.6312   25.5944 H   0  0  0  0  0  0  0  0  0  0  0  0
    8.1770   -5.9422   24.5693 H   0  0  0  0  0  0  0  0  0  0  0  0
    8.7167    1.3910   24.1851 H   0  0  0  0  0  0  0  0  0  0  0  0
    9.8647    2.0727   23.0582 H   0  0  0  0  0  0  0  0  0  0  0  0
   10.7539   -0.2760   22.5528 H   0  0  0  0  0  0  0  0  0  0  0  0
    6.6715    0.4865   16.8044 H   0  0  0  0  0  0  0  0  0  0  0  0
    8.0730   -1.6176   21.0751 H   0  0  0  0  0  0  0  0  0  0  0  0
  1  2  1  0  0  0  0
  1  3  2  0  0  0  0
  2  6  2  0  0  0  0
  3 12  1  0  0  0  0
  4  7  2  0  0  0  0
  4 13  1  0  0  0  0
  5  8  1  0  0  0  0
  5 13  2  0  0  0  0
  6 15  1  0  0  0  0
  7 17  1  0  0  0  0
  8 17  2  0  0  0  0
  9 14  1  0  0  0  0
  9 23  2  0  0  0  0
 10 14  2  0  0  0  0
 10 25  1  0  0  0  0
 11 16  2  0  0  0  0
 11 24  1  0  0  0  0
 12 15  2  0  0  0  0
 12 16  1  0  0  0  0
 13 22  1  0  0  0  0
 14 21  1  0  0  0  0
 15 24  1  0  0  0  0
 16 26  1  0  0  0  0
 17 28  1  0  0  0  0
 18 22  1  0  0  0  0
 18 26  1  0  0  0  0
 18 27  2  0  0  0  0
 19 25  1  0  0  0  0
 20 28  1  0  0  0  0
 21 22  1  6  0  0  0
 23 25  1  0  0  0  0
  1 29  1  0  0  0  0
  2 30  1  0  0  0  0
  3 31  1  0  0  0  0
  4 32  1  0  0  0  0
  5 33  1  0  0  0  0
  6 34  1  0  0  0  0
  7 35  1  0  0  0  0
  8 36  1  0  0  0  0
  9 37  1  0  0  0  0
 10 38  1  0  0  0  0
 11 39  1  0  0  0  0
 19 40  1  0  0  0  0
 19 41  1  0  0  0  0
 19 42  1  0  0  0  0
 20 43  1  0  0  0  0
 20 44  1  0  0  0  0
 20 45  1  0  0  0  0
 21 46  1  0  0  0  0
 21 47  1  0  0  0  0
 22 48  1  0  0  0  0
 24 49  1  0  0  0  0
 26 50  1  0  0  0  0
M  END
> <clash_score>
3.2086039238368342

> <docking_score>
-2.7981672286987305

> <overlap_score>
0.7628605961799622

$$$$
BENZO_301_1
  -OEChem-08232013543D

 60 64  0     1  0  0  0  0  0999 V2000
   12.6859    4.1423   22.7481 C   0  0  0  0  0  0  0  0  0  0  0  0
    4.2460    1.7520   20.8250 C   0  0  0  0  0  0  0  0  0  0  0  0
   11.5036    4.5324   23.3772 C   0  0  0  0  0  0  0  0  0  0  0  0
   12.8948    2.8014   22.4259 C   0  0  0  0  0  0  0  0  0  0  0  0
    3.8860    2.1050   19.5250 C   0  0  0  0  0  0  0  0  0  0  0  0
    5.3890    1.0010   21.0690 C   0  0  0  0  0  0  0  0  0  0  0  0
   10.5303    3.5816   23.6841 C   0  0  0  0  0  0  0  0  0  0  0  0
   11.9215    1.8505   22.7328 C   0  0  0  0  0  0  0  0  0  0  0  0
    9.5890   -2.4950   23.2210 C   0  0  0  0  0  0  0  0  0  0  0  0
    8.2550   -1.0010   24.5520 C   0  0  0  0  0  0  0  0  0  0  0  0
    4.6610    1.7170   18.4380 C   0  0  0  0  0  0  0  0  0  0  0  0
    9.1890   -3.5540   24.0140 C   0  0  0  0  0  0  0  0  0  0  0  0
    7.8700   -2.0610   25.3550 C   0  0  0  0  0  0  0  0  0  0  0  0
    7.5840   -0.2700   18.5160 C   0  0  0  0  0  0  0  0  0  0  0  0
    6.1460    0.6070   19.9750 C   0  0  0  0  0  0  0  0  0  0  0  0
   10.7393    2.2406   23.3619 C   0  0  0  0  0  0  0  0  0  0  0  0
    9.1280   -1.2090   23.4870 C   0  0  0  0  0  0  0  0  0  0  0  0
    5.7970    0.9500   18.6730 C   0  0  0  0  0  0  0  0  0  0  0  0
    8.3450   -3.3440   25.0980 C   0  0  0  0  0  0  0  0  0  0  0  0
    7.2710   -0.1460   19.8310 C   0  0  0  0  0  0  0  0  0  0  0  0
    8.2712   -4.4336   27.3225 C   0  0  0  0  0  0  0  0  0  0  0  0
    9.0430    0.2380   21.4940 C   0  0  0  0  0  0  0  0  0  0  0  0
    7.5739   -5.4743   28.1816 C   0  0  0  0  0  0  0  0  0  0  0  0
    7.3190   -6.7949   27.4884 C   0  0  0  0  0  0  0  0  0  0  0  0
    6.5818   -6.5304   26.1943 C   0  0  0  0  0  0  0  0  0  0  0  0
    7.4451   -5.6594   25.2973 C   0  0  0  0  0  0  0  0  0  0  0  0
    9.6852    1.2097   23.6944 C   0  0  0  0  0  0  0  0  0  0  0  0
    9.5820   -0.1080   22.7000 C   0  0  1  0  0  0  0  0  0  0  0  0
    6.7100    0.3850   17.8100 N   0  0  0  0  0  0  0  0  0  0  0  0
    7.9635   -4.4451   25.9501 N   0  0  0  0  0  0  0  0  0  0  0  0
    8.0950   -0.7700   20.8440 N   0  0  0  0  0  0  0  0  0  0  0  0
    9.0077   -3.6181   27.8843 O   0  0  0  0  0  0  0  0  0  0  0  0
    9.2950    1.3000   20.9480 O   0  0  0  0  0  0  0  0  0  0  0  0
   13.4430    4.8831   22.5080 H   0  0  0  0  0  0  0  0  0  0  0  0
    3.6208    2.0704   21.6579 H   0  0  0  0  0  0  0  0  0  0  0  0
   11.3403    5.5767   23.6272 H   0  0  0  0  0  0  0  0  0  0  0  0
   13.8146    2.4975   21.9351 H   0  0  0  0  0  0  0  0  0  0  0  0
    2.9857    2.6926   19.3615 H   0  0  0  0  0  0  0  0  0  0  0  0
    5.6664    0.7407   22.0807 H   0  0  0  0  0  0  0  0  0  0  0  0
    9.6123    3.8946   24.1745 H   0  0  0  0  0  0  0  0  0  0  0  0
   12.0930    0.8080   22.4781 H   0  0  0  0  0  0  0  0  0  0  0  0
   10.2695   -2.6718   22.3873 H   0  0  0  0  0  0  0  0  0  0  0  0
    7.8712   -0.0014   24.7587 H   0  0  0  0  0  0  0  0  0  0  0  0
    4.3794    2.0106   17.4221 H   0  0  0  0  0  0  0  0  0  0  0  0
    9.5431   -4.5618   23.7801 H   0  0  0  0  0  0  0  0  0  0  0  0
    7.1923   -1.8823   26.1912 H   0  0  0  0  0  0  0  0  0  0  0  0
    8.4172   -0.8135   18.0384 H   0  0  0  0  0  0  0  0  0  0  0  0
    8.1899   -5.6491   29.0712 H   0  0  0  0  0  0  0  0  0  0  0  0
    6.6268   -5.0349   28.5175 H   0  0  0  0  0  0  0  0  0  0  0  0
    8.2675   -7.3067   27.2851 H   0  0  0  0  0  0  0  0  0  0  0  0
    6.7259   -7.4492   28.1364 H   0  0  0  0  0  0  0  0  0  0  0  0
    6.3607   -7.4763   25.6875 H   0  0  0  0  0  0  0  0  0  0  0  0
    5.6224   -6.0369   26.3915 H   0  0  0  0  0  0  0  0  0  0  0  0
    8.3165   -6.2318   24.9547 H   0  0  0  0  0  0  0  0  0  0  0  0
    6.8693   -5.3612   24.4129 H   0  0  0  0  0  0  0  0  0  0  0  0
    9.7996    0.8985   24.7410 H   0  0  0  0  0  0  0  0  0  0  0  0
    8.7039    1.7016   23.6424 H   0  0  0  0  0  0  0  0  0  0  0  0
   10.7567   -0.2690   22.5479 H   0  0  0  0  0  0  0  0  0  0  0  0
    6.6715    0.4865   16.8044 H   0  0  0  0  0  0  0  0  0  0  0  0
    8.0917   -1.6083   21.0911 H   0  0  0  0  0  0  0  0  0  0  0  0
  1  3  1  0  0  0  0
  1  4  2  0  0  0  0
  2  5  1  0  0  0  0
  2  6  2  0  0  0  0
  3  7  2  0  0  0  0
  4  8  1  0  0  0  0
  5 11  2  0  0  0  0
  6 15  1  0  0  0  0
  7 16  1  0  0  0  0
  8 16  2  0  0  0  0
  9 12  2  0  0  0  0
  9 17  1  0  0  0  0
 10 13  1  0  0  0  0
 10 17  2  0  0  0  0
 11 18  1  0  0  0  0
 12 19  1  0  0  0  0
 13 19  2  0  0  0  0
 14 20  2  0  0  0  0
 14 29  1  0  0  0  0
 15 18  2  0  0  0  0
 15 20  1  0  0  0  0
 16 27  1  0  0  0  0
 17 28  1  0  0  0  0
 18 29  1  0  0  0  0
 19 30  1  0  0  0  0
 20 31  1  0  0  0  0
 21 23  1  0  0  0  0
 21 30  1  0  0  0  0
 21 32  2  0  0  0  0
 22 28  1  1  0  0  0
 22 31  1  0  0  0  0
 22 33  2  0  0  0  0
 23 24  1  0  0  0  0
 24 25  1  0  0  0  0
 25 26  1  0  0  0  0
 26 30  1  0  0  0  0
 27 28  1  0  0  0  0
  1 34  1  0  0  0  0
  2 35  1  0  0  0  0
  3 36  1  0  0  0  0
  4 37  1  0  0  0  0
  5 38  1  0  0  0  0
  6 39  1  0  0  0  0
  7 40  1  0  0  0  0
  8 41  1  0  0  0  0
  9 42  1  0  0  0  0
 10 43  1  0  0  0  0
 11 44  1  0  0  0  0
 12 45  1  0  0  0  0
 13 46  1  0  0  0  0
 14 47  1  0  0  0  0
 23 48  1  0  0  0  0
 23 49  1  0  0  0  0
 24 50  1  0  0  0  0
 24 51  1  0  0  0  0
 25 52  1  0  0  0  0
 25 53  1  0  0  0  0
 26 54  1  0  0  0  0
 26 55  1  0  0  0  0
 27 56  1  0  0  0  0
 27 57  1  0  0  0  0
 28 58  1  0  0  0  0
 29 59  1  0  0  0  0
 31 60  1  0  0  0  0
M  END
> <clash_score>
0

> <docking_score>
-7.336817741394043

> <overlap_score>
0.8526010513305664

$$$$
BENZO_301_2
  -OEChem-08232013543D

 60 64  0     1  0  0  0  0  0999 V2000
   13.2442   -0.7792   26.3598 C   0  0  0  0  0  0  0  0  0  0  0  0
    4.2460    1.7520   20.8250 C   0  0  0  0  0  0  0  0  0  0  0  0
   13.7975   -1.2945   25.1877 C   0  0  0  0  0  0  0  0  0  0  0  0
   12.0379   -0.0804   26.3133 C   0  0  0  0  0  0  0  0  0  0  0  0
    3.8860    2.1050   19.5250 C   0  0  0  0  0  0  0  0  0  0  0  0
    5.3890    1.0010   21.0690 C   0  0  0  0  0  0  0  0  0  0  0  0
   13.1444   -1.1109   23.9689 C   0  0  0  0  0  0  0  0  0  0  0  0
   11.3849    0.1033   25.0945 C   0  0  0  0  0  0  0  0  0  0  0  0
    9.5890   -2.4950   23.2210 C   0  0  0  0  0  0  0  0  0  0  0  0
    8.2550   -1.0010   24.5520 C   0  0  0  0  0  0  0  0  0  0  0  0
    4.6610    1.7170   18.4380 C   0  0  0  0  0  0  0  0  0  0  0  0
    9.1890   -3.5540   24.0140 C   0  0  0  0  0  0  0  0  0  0  0  0
    7.8700   -2.0610   25.3550 C   0  0  0  0  0  0  0  0  0  0  0  0
    7.5840   -0.2700   18.5160 C   0  0  0  0  0  0  0  0  0  0  0  0
    6.1460    0.6070   19.9750 C   0  0  0  0  0  0  0  0  0  0  0  0
   11.9381   -0.4120   23.9222 C   0  0  0  0  0  0  0  0  0  0  0  0
    9.1280   -1.2090   23.4870 C   0  0  0  0  0  0  0  0  0  0  0  0
    5.7970    0.9500   18.6730 C   0  0  0  0  0  0  0  0  0  0  0  0
    8.3450   -3.3440   25.0980 C   0  0  0  0  0  0  0  0  0  0  0  0
    7.2710   -0.1460   19.8310 C   0  0  0  0  0  0  0  0  0  0  0  0
    6.6194   -4.8191   26.1158 C   0  0  0  0  0  0  0  0  0  0  0  0
    9.0430    0.2380   21.4940 C   0  0  0  0  0  0  0  0  0  0  0  0
    6.4366   -5.9938   27.0605 C   0  0  0  0  0  0  0  0  0  0  0  0
    7.2458   -5.7947   28.3299 C   0  0  0  0  0  0  0  0  0  0  0  0
    8.7184   -5.5215   28.0404 C   0  0  0  0  0  0  0  0  0  0  0  0
    9.0024   -5.2744   26.5596 C   0  0  0  0  0  0  0  0  0  0  0  0
   11.2301   -0.2125   22.6019 C   0  0  0  0  0  0  0  0  0  0  0  0
    9.5820   -0.1080   22.7000 C   0  0  2  0  0  0  0  0  0  0  0  0
    6.7100    0.3850   17.8100 N   0  0  0  0  0  0  0  0  0  0  0  0
    7.9658   -4.4384   25.9449 N   0  0  0  0  0  0  0  0  0  0  0  0
    8.0950   -0.7700   20.8440 N   0  0  0  0  0  0  0  0  0  0  0  0
    5.6415   -4.3469   25.5373 O   0  0  0  0  0  0  0  0  0  0  0  0
    9.2950    1.3000   20.9480 O   0  0  0  0  0  0  0  0  0  0  0  0
   13.7522   -0.9234   27.3090 H   0  0  0  0  0  0  0  0  0  0  0  0
    3.6208    2.0704   21.6579 H   0  0  0  0  0  0  0  0  0  0  0  0
   14.7362   -1.8396   25.2239 H   0  0  0  0  0  0  0  0  0  0  0  0
   11.6064    0.3200   27.2258 H   0  0  0  0  0  0  0  0  0  0  0  0
    2.9857    2.6926   19.3615 H   0  0  0  0  0  0  0  0  0  0  0  0
    5.6664    0.7407   22.0807 H   0  0  0  0  0  0  0  0  0  0  0  0
   13.5830   -1.5157   23.0606 H   0  0  0  0  0  0  0  0  0  0  0  0
   10.4455    0.6492   25.0677 H   0  0  0  0  0  0  0  0  0  0  0  0
   10.2695   -2.6718   22.3873 H   0  0  0  0  0  0  0  0  0  0  0  0
    7.8712   -0.0014   24.7587 H   0  0  0  0  0  0  0  0  0  0  0  0
    4.3794    2.0106   17.4221 H   0  0  0  0  0  0  0  0  0  0  0  0
    9.5431   -4.5618   23.7801 H   0  0  0  0  0  0  0  0  0  0  0  0
    7.1923   -1.8823   26.1912 H   0  0  0  0  0  0  0  0  0  0  0  0
    8.4172   -0.8135   18.0384 H   0  0  0  0  0  0  0  0  0  0  0  0
    5.3901   -6.0734   27.3117 H   0  0  0  0  0  0  0  0  0  0  0  0
    6.7606   -6.8843   26.5429 H   0  0  0  0  0  0  0  0  0  0  0  0
    6.8221   -4.9563   28.9212 H   0  0  0  0  0  0  0  0  0  0  0  0
    7.1526   -6.6910   28.9757 H   0  0  0  0  0  0  0  0  0  0  0  0
    9.0539   -4.6418   28.6288 H   0  0  0  0  0  0  0  0  0  0  0  0
    9.3393   -6.3684   28.4053 H   0  0  0  0  0  0  0  0  0  0  0  0
    9.9475   -4.7506   26.4523 H   0  0  0  0  0  0  0  0  0  0  0  0
    9.0509   -6.2236   26.0372 H   0  0  0  0  0  0  0  0  0  0  0  0
   11.5792    0.7206   22.1406 H   0  0  0  0  0  0  0  0  0  0  0  0
   11.5533   -1.0126   21.9215 H   0  0  0  0  0  0  0  0  0  0  0  0
    9.5402    0.8508   23.4127 H   0  0  0  0  0  0  0  0  0  0  0  0
    6.6715    0.4865   16.8044 H   0  0  0  0  0  0  0  0  0  0  0  0
    8.0917   -1.6083   21.0911 H   0  0  0  0  0  0  0  0  0  0  0  0
  1  3  1  0  0  0  0
  1  4  2  0  0  0  0
  2  5  1  0  0  0  0
  2  6  2  0  0  0  0
  3  7  2  0  0  0  0
  4  8  1  0  0  0  0
  5 11  2  0  0  0  0
  6 15  1  0  0  0  0
  7 16  1  0  0  0  0
  8 16  2  0  0  0  0
  9 12  2  0  0  0  0
  9 17  1  0  0  0  0
 10 13  1  0  0  0  0
 10 17  2  0  0  0  0
 11 18  1  0  0  0  0
 12 19  1  0  0  0  0
 13 19  2  0  0  0  0
 14 20  2  0  0  0  0
 14 29  1  0  0  0  0
 15 18  2  0  0  0  0
 15 20  1  0  0  0  0
 16 27  1  0  0  0  0
 17 28  1  0  0  0  0
 18 29  1  0  0  0  0
 19 30  1  0  0  0  0
 20 31  1  0  0  0  0
 21 23  1  0  0  0  0
 21 30  1  0  0  0  0
 21 32  2  0  0  0  0
 22 28  1  6  0  0  0
 22 31  1  0  0  0  0
 22 33  2  0  0  0  0
 23 24  1  0  0  0  0
 24 25  1  0  0  0  0
 25 26  1  0  0  0  0
 26 30  1  0  0  0  0
 27 28  1  0  0  0  0
  1 34  1  0  0  0  0
  2 35  1  0  0  0  0
  3 36  1  0  0  0  0
  4 37  1  0  0  0  0
  5 38  1  0  0  0  0
  6 39  1  0  0  0  0
  7 40  1  0  0  0  0
  8 41  1  0  0  0  0
  9 42  1  0  0  0  0
 10 43  1  0  0  0  0
 11 44  1  0  0  0  0
 12 45  1  0  0  0  0
 13 46  1  0  0  0  0
 14 47  1  0  0  0  0
 23 48  1  0  0  0  0
 23 49  1  0  0  0  0
 24 50  1  0  0  0  0
 24 51  1  0  0  0  0
 25 52  1  0  0  0  0
 25 53  1  0  0  0  0
 26 54  1  0  0  0  0
 26 55  1  0  0  0  0
 27 56  1  0  0  0  0
 27 57  1  0  0  0  0
 28 58  1  0  0  0  0
 29 59  1  0  0  0  0
 31 60  1  0  0  0  0
M  END
> <clash_score>
0

> <docking_score>
-6.119838237762451

> <overlap_score>
0.925991952419281

$$$$
BENZO_300_1
  -OEChem-08232013543D

 57 61  0     1  0  0  0  0  0999 V2000
    4.2460    1.7520   20.8250 C   0  0  0  0  0  0  0  0  0  0  0  0
    3.8860    2.1050   19.5250 C   0  0  0  0  0  0  0  0  0  0  0  0
    5.3890    1.0010   21.0690 C   0  0  0  0  0  0  0  0  0  0  0  0
    9.5890   -2.4950   23.2210 C   0  0  0  0  0  0  0  0  0  0  0  0
    8.2550   -1.0010   24.5520 C   0  0  0  0  0  0  0  0  0  0  0  0
    4.6610    1.7170   18.4380 C   0  0  0  0  0  0  0  0  0  0  0  0
    9.1890   -3.5540   24.0140 C   0  0  0  0  0  0  0  0  0  0  0  0
    7.8700   -2.0610   25.3550 C   0  0  0  0  0  0  0  0  0  0  0  0
   12.0300    1.9207   22.8503 C   0  0  0  0  0  0  0  0  0  0  0  0
    7.5840   -0.2700   18.5160 C   0  0  0  0  0  0  0  0  0  0  0  0
   12.7947    3.0460   22.6348 C   0  0  0  0  0  0  0  0  0  0  0  0
   10.5667    3.5984   23.5182 C   0  0  0  0  0  0  0  0  0  0  0  0
    6.1460    0.6070   19.9750 C   0  0  0  0  0  0  0  0  0  0  0  0
    9.1280   -1.2090   23.4870 C   0  0  0  0  0  0  0  0  0  0  0  0
   10.7393    2.2406   23.3619 C   0  0  0  0  0  0  0  0  0  0  0  0
    5.7970    0.9500   18.6730 C   0  0  0  0  0  0  0  0  0  0  0  0
    8.3450   -3.3440   25.0980 C   0  0  0  0  0  0  0  0  0  0  0  0
    7.2710   -0.1460   19.8310 C   0  0  0  0  0  0  0  0  0  0  0  0
    8.2712   -4.4336   27.3225 C   0  0  0  0  0  0  0  0  0  0  0  0
    9.0430    0.2380   21.4940 C   0  0  0  0  0  0  0  0  0  0  0  0
    7.5739   -5.4743   28.1816 C   0  0  0  0  0  0  0  0  0  0  0  0
    7.3190   -6.7949   27.4884 C   0  0  0  0  0  0  0  0  0  0  0  0
    6.5818   -6.5304   26.1943 C   0  0  0  0  0  0  0  0  0  0  0  0
    7.4451   -5.6594   25.2973 C   0  0  0  0  0  0  0  0  0  0  0  0
    9.6852    1.2097   23.6944 C   0  0  0  0  0  0  0  0  0  0  0  0
    9.5820   -0.1080   22.7000 C   0  0  1  0  0  0  0  0  0  0  0  0
    6.7100    0.3850   17.8100 N   0  0  0  0  0  0  0  0  0  0  0  0
    7.9635   -4.4451   25.9501 N   0  0  0  0  0  0  0  0  0  0  0  0
    8.0950   -0.7700   20.8440 N   0  0  0  0  0  0  0  0  0  0  0  0
    9.0077   -3.6181   27.8843 O   0  0  0  0  0  0  0  0  0  0  0  0
    9.2950    1.3000   20.9480 O   0  0  0  0  0  0  0  0  0  0  0  0
   11.9570    4.4810   23.0487 S   0  0  0  0  0  0  0  0  0  0  0  0
    3.6208    2.0704   21.6579 H   0  0  0  0  0  0  0  0  0  0  0  0
    2.9857    2.6926   19.3615 H   0  0  0  0  0  0  0  0  0  0  0  0
    5.6664    0.7407   22.0807 H   0  0  0  0  0  0  0  0  0  0  0  0
   10.2695   -2.6718   22.3873 H   0  0  0  0  0  0  0  0  0  0  0  0
    7.8712   -0.0014   24.7587 H   0  0  0  0  0  0  0  0  0  0  0  0
    4.3794    2.0106   17.4221 H   0  0  0  0  0  0  0  0  0  0  0  0
    9.5431   -4.5618   23.7801 H   0  0  0  0  0  0  0  0  0  0  0  0
    7.1923   -1.8823   26.1912 H   0  0  0  0  0  0  0  0  0  0  0  0
   12.3840    0.9173   22.6495 H   0  0  0  0  0  0  0  0  0  0  0  0
    8.4172   -0.8135   18.0384 H   0  0  0  0  0  0  0  0  0  0  0  0
   13.8054    3.0942   22.2548 H   0  0  0  0  0  0  0  0  0  0  0  0
    9.6930    4.1183   23.8862 H   0  0  0  0  0  0  0  0  0  0  0  0
    8.1899   -5.6491   29.0712 H   0  0  0  0  0  0  0  0  0  0  0  0
    6.6268   -5.0349   28.5175 H   0  0  0  0  0  0  0  0  0  0  0  0
    8.2675   -7.3067   27.2851 H   0  0  0  0  0  0  0  0  0  0  0  0
    6.7259   -7.4492   28.1364 H   0  0  0  0  0  0  0  0  0  0  0  0
    6.3607   -7.4763   25.6875 H   0  0  0  0  0  0  0  0  0  0  0  0
    5.6224   -6.0369   26.3915 H   0  0  0  0  0  0  0  0  0  0  0  0
    8.3165   -6.2318   24.9547 H   0  0  0  0  0  0  0  0  0  0  0  0
    6.8693   -5.3612   24.4129 H   0  0  0  0  0  0  0  0  0  0  0  0
    9.7996    0.8985   24.7410 H   0  0  0  0  0  0  0  0  0  0  0  0
    8.7039    1.7016   23.6424 H   0  0  0  0  0  0  0  0  0  0  0  0
   10.7567   -0.2690   22.5479 H   0  0  0  0  0  0  0  0  0  0  0  0
    6.6715    0.4865   16.8044 H   0  0  0  0  0  0  0  0  0  0  0  0
    8.0917   -1.6083   21.0911 H   0  0  0  0  0  0  0  0  0  0  0  0
  1  2  1  0  0  0  0
  1  3  2  0  0  0  0
  2  6  2  0  0  0  0
  3 13  1  0  0  0  0
  4  7  2  0  0  0  0
  4 14  1  0  0  0  0
  5  8  1  0  0  0  0
  5 14  2  0  0  0  0
  6 16  1  0  0  0  0
  7 17  1  0  0  0  0
  8 17  2  0  0  0  0
  9 11  2  0  0  0  0
  9 15  1  0  0  0  0
 10 18  2  0  0  0  0
 10 27  1  0  0  0  0
 11 32  1  0  0  0  0
 12 15  2  0  0  0  0
 12 32  1  0  0  0  0
 13 16  2  0  0  0  0
 13 18  1  0  0  0  0
 14 26  1  0  0  0  0
 15 25  1  0  0  0  0
 16 27  1  0  0  0  0
 17 28  1  0  0  0  0
 18 29  1  0  0  0  0
 19 21  1  0  0  0  0
 19 28  1  0  0  0  0
 19 30  2  0  0  0  0
 20 26  1  1  0  0  0
 20 29  1  0  0  0  0
 20 31  2  0  0  0  0
 21 22  1  0  0  0  0
 22 23  1  0  0  0  0
 23 24  1  0  0  0  0
 24 28  1  0  0  0  0
 25 26  1  0  0  0  0
  1 33  1  0  0  0  0
  2 34  1  0  0  0  0
  3 35  1  0  0  0  0
  4 36  1  0  0  0  0
  5 37  1  0  0  0  0
  6 38  1  0  0  0  0
  7 39  1  0  0  0  0
  8 40  1  0  0  0  0
  9 41  1  0  0  0  0
 10 42  1  0  0  0  0
 11 43  1  0  0  0  0
 12 44  1  0  0  0  0
 21 45  1  0  0  0  0
 21 46  1  0  0  0  0
 22 47  1  0  0  0  0
 22 48  1  0  0  0  0
 23 49  1  0  0  0  0
 23 50  1  0  0  0  0
 24 51  1  0  0  0  0
 24 52  1  0  0  0  0
 25 53  1  0  0  0  0
 25 54  1  0  0  0  0
 26 55  1  0  0  0  0
 27 56  1  0  0  0  0
 29 57  1  0  0  0  0
M  END
> <clash_score>
0

> <docking_score>
-7.104464530944824

> <overlap_score>
0.8532915115356445

$$$$
BENZO_300_2
  -OEChem-08232013543D

 57 61  0     1  0  0  0  0  0999 V2000
    4.2460    1.7520   20.8250 C   0  0  0  0  0  0  0  0  0  0  0  0
    3.8860    2.1050   19.5250 C   0  0  0  0  0  0  0  0  0  0  0  0
    5.3890    1.0010   21.0690 C   0  0  0  0  0  0  0  0  0  0  0  0
    9.5890   -2.4950   23.2210 C   0  0  0  0  0  0  0  0  0  0  0  0
    8.2550   -1.0010   24.5520 C   0  0  0  0  0  0  0  0  0  0  0  0
    4.6610    1.7170   18.4380 C   0  0  0  0  0  0  0  0  0  0  0  0
    9.1890   -3.5540   24.0140 C   0  0  0  0  0  0  0  0  0  0  0  0
    7.8700   -2.0610   25.3550 C   0  0  0  0  0  0  0  0  0  0  0  0
   13.1712   -1.1116   24.0649 C   0  0  0  0  0  0  0  0  0  0  0  0
    7.5840   -0.2700   18.5160 C   0  0  0  0  0  0  0  0  0  0  0  0
   13.5969   -1.1482   25.3744 C   0  0  0  0  0  0  0  0  0  0  0  0
   11.4682    0.0593   25.1285 C   0  0  0  0  0  0  0  0  0  0  0  0
    6.1460    0.6070   19.9750 C   0  0  0  0  0  0  0  0  0  0  0  0
    9.1280   -1.2090   23.4870 C   0  0  0  0  0  0  0  0  0  0  0  0
   11.9381   -0.4120   23.9222 C   0  0  0  0  0  0  0  0  0  0  0  0
    5.7970    0.9500   18.6730 C   0  0  0  0  0  0  0  0  0  0  0  0
    8.3450   -3.3440   25.0980 C   0  0  0  0  0  0  0  0  0  0  0  0
    7.2710   -0.1460   19.8310 C   0  0  0  0  0  0  0  0  0  0  0  0
    6.6194   -4.8191   26.1158 C   0  0  0  0  0  0  0  0  0  0  0  0
    9.0430    0.2380   21.4940 C   0  0  0  0  0  0  0  0  0  0  0  0
    6.4366   -5.9938   27.0605 C   0  0  0  0  0  0  0  0  0  0  0  0
    7.2458   -5.7947   28.3299 C   0  0  0  0  0  0  0  0  0  0  0  0
    8.7184   -5.5215   28.0404 C   0  0  0  0  0  0  0  0  0  0  0  0
    9.0024   -5.2744   26.5596 C   0  0  0  0  0  0  0  0  0  0  0  0
   11.2301   -0.2125   22.6019 C   0  0  0  0  0  0  0  0  0  0  0  0
    9.5820   -0.1080   22.7000 C   0  0  2  0  0  0  0  0  0  0  0  0
    6.7100    0.3850   17.8100 N   0  0  0  0  0  0  0  0  0  0  0  0
    7.9658   -4.4384   25.9449 N   0  0  0  0  0  0  0  0  0  0  0  0
    8.0950   -0.7700   20.8440 N   0  0  0  0  0  0  0  0  0  0  0  0
    5.6415   -4.3469   25.5373 O   0  0  0  0  0  0  0  0  0  0  0  0
    9.2950    1.3000   20.9480 O   0  0  0  0  0  0  0  0  0  0  0  0
   12.5120   -0.3415   26.4255 S   0  0  0  0  0  0  0  0  0  0  0  0
    3.6208    2.0704   21.6579 H   0  0  0  0  0  0  0  0  0  0  0  0
    2.9857    2.6926   19.3615 H   0  0  0  0  0  0  0  0  0  0  0  0
    5.6664    0.7407   22.0807 H   0  0  0  0  0  0  0  0  0  0  0  0
   10.2695   -2.6718   22.3873 H   0  0  0  0  0  0  0  0  0  0  0  0
    7.8712   -0.0014   24.7587 H   0  0  0  0  0  0  0  0  0  0  0  0
    4.3794    2.0106   17.4221 H   0  0  0  0  0  0  0  0  0  0  0  0
    9.5431   -4.5618   23.7801 H   0  0  0  0  0  0  0  0  0  0  0  0
    7.1923   -1.8823   26.1912 H   0  0  0  0  0  0  0  0  0  0  0  0
   13.7212   -1.5668   23.2509 H   0  0  0  0  0  0  0  0  0  0  0  0
    8.4172   -0.8135   18.0384 H   0  0  0  0  0  0  0  0  0  0  0  0
   14.4926   -1.6106   25.7645 H   0  0  0  0  0  0  0  0  0  0  0  0
   10.5621    0.6191   25.3146 H   0  0  0  0  0  0  0  0  0  0  0  0
    5.3901   -6.0734   27.3117 H   0  0  0  0  0  0  0  0  0  0  0  0
    6.7606   -6.8843   26.5429 H   0  0  0  0  0  0  0  0  0  0  0  0
    6.8221   -4.9563   28.9212 H   0  0  0  0  0  0  0  0  0  0  0  0
    7.1526   -6.6910   28.9757 H   0  0  0  0  0  0  0  0  0  0  0  0
    9.0539   -4.6418   28.6288 H   0  0  0  0  0  0  0  0  0  0  0  0
    9.3393   -6.3684   28.4053 H   0  0  0  0  0  0  0  0  0  0  0  0
    9.9475   -4.7506   26.4523 H   0  0  0  0  0  0  0  0  0  0  0  0
    9.0509   -6.2236   26.0372 H   0  0  0  0  0  0  0  0  0  0  0  0
   11.5792    0.7206   22.1406 H   0  0  0  0  0  0  0  0  0  0  0  0
   11.5533   -1.0126   21.9215 H   0  0  0  0  0  0  0  0  0  0  0  0
    9.5402    0.8508   23.4127 H   0  0  0  0  0  0  0  0  0  0  0  0
    6.6715    0.4865   16.8044 H   0  0  0  0  0  0  0  0  0  0  0  0
    8.0917   -1.6083   21.0911 H   0  0  0  0  0  0  0  0  0  0  0  0
  1  2  1  0  0  0  0
  1  3  2  0  0  0  0
  2  6  2  0  0  0  0
  3 13  1  0  0  0  0
  4  7  2  0  0  0  0
  4 14  1  0  0  0  0
  5  8  1  0  0  0  0
  5 14  2  0  0  0  0
  6 16  1  0  0  0  0
  7 17  1  0  0  0  0
  8 17  2  0  0  0  0
  9 11  2  0  0  0  0
  9 15  1  0  0  0  0
 10 18  2  0  0  0  0
 10 27  1  0  0  0  0
 11 32  1  0  0  0  0
 12 15  2  0  0  0  0
 12 32  1  0  0  0  0
 13 16  2  0  0  0  0
 13 18  1  0  0  0  0
 14 26  1  0  0  0  0
 15 25  1  0  0  0  0
 16 27  1  0  0  0  0
 17 28  1  0  0  0  0
 18 29  1  0  0  0  0
 19 21  1  0  0  0  0
 19 28  1  0  0  0  0
 19 30  2  0  0  0  0
 20 26  1  6  0  0  0
 20 29  1  0  0  0  0
 20 31  2  0  0  0  0
 21 22  1  0  0  0  0
 22 23  1  0  0  0  0
 23 24  1  0  0  0  0
 24 28  1  0  0  0  0
 25 26  1  0  0  0  0
  1 33  1  0  0  0  0
  2 34  1  0  0  0  0
  3 35  1  0  0  0  0
  4 36  1  0  0  0  0
  5 37  1  0  0  0  0
  6 38  1  0  0  0  0
  7 39  1  0  0  0  0
  8 40  1  0  0  0  0
  9 41  1  0  0  0  0
 10 42  1  0  0  0  0
 11 43  1  0  0  0  0
 12 44  1  0  0  0  0
 21 45  1  0  0  0  0
 21 46  1  0  0  0  0
 22 47  1  0  0  0  0
 22 48  1  0  0  0  0
 23 49  1  0  0  0  0
 23 50  1  0  0  0  0
 24 51  1  0  0  0  0
 24 52  1  0  0  0  0
 25 53  1  0  0  0  0
 25 54  1  0  0  0  0
 26 55  1  0  0  0  0
 27 56  1  0  0  0  0
 29 57  1  0  0  0  0
M  END
> <clash_score>
0

> <docking_score>
-6.634397506713867

> <overlap_score>
0.9224667549133301

$$$$
BENZO_302_1
  -OEChem-08232013543D

 60 64  0     1  0  0  0  0  0999 V2000
    4.2460    1.7520   20.8250 C   0  0  0  0  0  0  0  0  0  0  0  0
    3.8860    2.1050   19.5250 C   0  0  0  0  0  0  0  0  0  0  0  0
   12.8937    2.8016   22.4237 C   0  0  0  0  0  0  0  0  0  0  0  0
    5.3890    1.0010   21.0690 C   0  0  0  0  0  0  0  0  0  0  0  0
   11.9210    1.8506   22.7318 C   0  0  0  0  0  0  0  0  0  0  0  0
    9.5890   -2.4950   23.2210 C   0  0  0  0  0  0  0  0  0  0  0  0
    8.2550   -1.0010   24.5520 C   0  0  0  0  0  0  0  0  0  0  0  0
    4.6610    1.7170   18.4380 C   0  0  0  0  0  0  0  0  0  0  0  0
    9.1890   -3.5540   24.0140 C   0  0  0  0  0  0  0  0  0  0  0  0
    7.8700   -2.0610   25.3550 C   0  0  0  0  0  0  0  0  0  0  0  0
   12.6848    4.1426   22.7457 C   0  0  0  0  0  0  0  0  0  0  0  0
   10.5302    3.5816   23.6839 C   0  0  0  0  0  0  0  0  0  0  0  0
    7.5840   -0.2700   18.5160 C   0  0  0  0  0  0  0  0  0  0  0  0
    6.1460    0.6070   19.9750 C   0  0  0  0  0  0  0  0  0  0  0  0
    9.1280   -1.2090   23.4870 C   0  0  0  0  0  0  0  0  0  0  0  0
   10.7393    2.2406   23.3619 C   0  0  0  0  0  0  0  0  0  0  0  0
    5.7970    0.9500   18.6730 C   0  0  0  0  0  0  0  0  0  0  0  0
    8.3450   -3.3440   25.0980 C   0  0  0  0  0  0  0  0  0  0  0  0
    7.2710   -0.1460   19.8310 C   0  0  0  0  0  0  0  0  0  0  0  0
   11.5030    4.5326   23.3758 C   0  0  0  0  0  0  0  0  0  0  0  0
    8.2612   -4.4533   27.3232 C   0  0  0  0  0  0  0  0  0  0  0  0
    9.0430    0.2380   21.4940 C   0  0  0  0  0  0  0  0  0  0  0  0
    7.7639   -5.6979   28.0369 C   0  0  0  0  0  0  0  0  0  0  0  0
    6.3258   -5.9996   27.6538 C   0  0  0  0  0  0  0  0  0  0  0  0
    6.1385   -6.0983   26.1431 C   0  0  0  0  0  0  0  0  0  0  0  0
    7.3646   -5.6395   25.3553 C   0  0  0  0  0  0  0  0  0  0  0  0
    9.6852    1.2097   23.6944 C   0  0  0  0  0  0  0  0  0  0  0  0
    9.5820   -0.1080   22.7000 C   0  0  1  0  0  0  0  0  0  0  0  0
    6.7100    0.3850   17.8100 N   0  0  0  0  0  0  0  0  0  0  0  0
    7.9658   -4.4385   25.9450 N   0  0  0  0  0  0  0  0  0  0  0  0
    8.0950   -0.7700   20.8440 N   0  0  0  0  0  0  0  0  0  0  0  0
    8.9160   -3.6176   27.9452 O   0  0  0  0  0  0  0  0  0  0  0  0
    9.2950    1.3000   20.9480 O   0  0  0  0  0  0  0  0  0  0  0  0
   11.2452    6.1875   23.7718 Cl  0  0  0  0  0  0  0  0  0  0  0  0
    3.6208    2.0704   21.6579 H   0  0  0  0  0  0  0  0  0  0  0  0
    2.9857    2.6926   19.3615 H   0  0  0  0  0  0  0  0  0  0  0  0
   13.8138    2.4975   21.9329 H   0  0  0  0  0  0  0  0  0  0  0  0
    5.6664    0.7407   22.0807 H   0  0  0  0  0  0  0  0  0  0  0  0
   12.0923    0.8079   22.4771 H   0  0  0  0  0  0  0  0  0  0  0  0
   10.2695   -2.6718   22.3873 H   0  0  0  0  0  0  0  0  0  0  0  0
    7.8712   -0.0014   24.7587 H   0  0  0  0  0  0  0  0  0  0  0  0
    4.3794    2.0106   17.4221 H   0  0  0  0  0  0  0  0  0  0  0  0
    9.5431   -4.5618   23.7801 H   0  0  0  0  0  0  0  0  0  0  0  0
    7.1923   -1.8823   26.1912 H   0  0  0  0  0  0  0  0  0  0  0  0
   13.4515    4.8730   22.4993 H   0  0  0  0  0  0  0  0  0  0  0  0
    9.6074    3.8805   24.1756 H   0  0  0  0  0  0  0  0  0  0  0  0
    8.4172   -0.8135   18.0384 H   0  0  0  0  0  0  0  0  0  0  0  0
    8.3914   -6.5295   27.7556 H   0  0  0  0  0  0  0  0  0  0  0  0
    7.8414   -5.5198   29.0990 H   0  0  0  0  0  0  0  0  0  0  0  0
    5.9977   -6.9465   28.1311 H   0  0  0  0  0  0  0  0  0  0  0  0
    5.6587   -5.2139   28.0619 H   0  0  0  0  0  0  0  0  0  0  0  0
    5.8986   -7.1470   25.8680 H   0  0  0  0  0  0  0  0  0  0  0  0
    5.2500   -5.5067   25.8324 H   0  0  0  0  0  0  0  0  0  0  0  0
    8.1195   -6.4201   25.3688 H   0  0  0  0  0  0  0  0  0  0  0  0
    7.0780   -5.4282   24.3307 H   0  0  0  0  0  0  0  0  0  0  0  0
    9.7996    0.8985   24.7410 H   0  0  0  0  0  0  0  0  0  0  0  0
    8.7039    1.7016   23.6424 H   0  0  0  0  0  0  0  0  0  0  0  0
   10.7567   -0.2690   22.5479 H   0  0  0  0  0  0  0  0  0  0  0  0
    6.6715    0.4865   16.8044 H   0  0  0  0  0  0  0  0  0  0  0  0
    8.0917   -1.6083   21.0911 H   0  0  0  0  0  0  0  0  0  0  0  0
  1  2  1  0  0  0  0
  1  4  2  0  0  0  0
  2  8  2  0  0  0  0
  3  5  2  0  0  0  0
  3 11  1  0  0  0  0
  4 14  1  0  0  0  0
  5 16  1  0  0  0  0
  6  9  2  0  0  0  0
  6 15  1  0  0  0  0
  7 10  1  0  0  0  0
  7 15  2  0  0  0  0
  8 17  1  0  0  0  0
  9 18  1  0  0  0  0
 10 18  2  0  0  0  0
 11 20  2  0  0  0  0
 12 16  2  0  0  0  0
 12 20  1  0  0  0  0
 13 19  2  0  0  0  0
 13 29  1  0  0  0  0
 14 17  2  0  0  0  0
 14 19  1  0  0  0  0
 15 28  1  0  0  0  0
 16 27  1  0  0  0  0
 17 29  1  0  0  0  0
 18 30  1  0  0  0  0
 19 31  1  0  0  0  0
 20 34  1  0  0  0  0
 21 23  1  0  0  0  0
 21 30  1  0  0  0  0
 21 32  2  0  0  0  0
 22 28  1  1  0  0  0
 22 31  1  0  0  0  0
 22 33  2  0  0  0  0
 23 24  1  0  0  0  0
 24 25  1  0  0  0  0
 25 26  1  0  0  0  0
 26 30  1  0  0  0  0
 27 28  1  0  0  0  0
  1 35  1  0  0  0  0
  2 36  1  0  0  0  0
  3 37  1  0  0  0  0
  4 38  1  0  0  0  0
  5 39  1  0  0  0  0
  6 40  1  0  0  0  0
  7 41  1  0  0  0  0
  8 42  1  0  0  0  0
  9 43  1  0  0  0  0
 10 44  1  0  0  0  0
 11 45  1  0  0  0  0
 12 46  1  0  0  0  0
 13 47  1  0  0  0  0
 23 48  1  0  0  0  0
 23 49  1  0  0  0  0
 24 50  1  0  0  0  0
 24 51  1  0  0  0  0
 25 52  1  0  0  0  0
 25 53  1  0  0  0  0
 26 54  1  0  0  0  0
 26 55  1  0  0  0  0
 27 56  1  0  0  0  0
 27 57  1  0  0  0  0
 28 58  1  0  0  0  0
 29 59  1  0  0  0  0
 31 60  1  0  0  0  0
M  END
> <clash_score>
0

> <docking_score>
-8.942484855651855

> <overlap_score>
0.8504801392555237

$$$$
BENZO_302_2
  -OEChem-08232013543D

 60 64  0     1  0  0  0  0  0999 V2000
    4.2460    1.7520   20.8250 C   0  0  0  0  0  0  0  0  0  0  0  0
    3.8860    2.1050   19.5250 C   0  0  0  0  0  0  0  0  0  0  0  0
   13.7993   -1.2938   25.1853 C   0  0  0  0  0  0  0  0  0  0  0  0
    5.3890    1.0010   21.0690 C   0  0  0  0  0  0  0  0  0  0  0  0
   13.1448   -1.1103   23.9673 C   0  0  0  0  0  0  0  0  0  0  0  0
    9.5890   -2.4950   23.2210 C   0  0  0  0  0  0  0  0  0  0  0  0
    8.2550   -1.0010   24.5520 C   0  0  0  0  0  0  0  0  0  0  0  0
    4.6610    1.7170   18.4380 C   0  0  0  0  0  0  0  0  0  0  0  0
    9.1890   -3.5540   24.0140 C   0  0  0  0  0  0  0  0  0  0  0  0
    7.8700   -2.0610   25.3550 C   0  0  0  0  0  0  0  0  0  0  0  0
   13.2471   -0.7791   26.3583 C   0  0  0  0  0  0  0  0  0  0  0  0
   11.3860    0.1028   25.0952 C   0  0  0  0  0  0  0  0  0  0  0  0
    7.5840   -0.2700   18.5160 C   0  0  0  0  0  0  0  0  0  0  0  0
    6.1460    0.6070   19.9750 C   0  0  0  0  0  0  0  0  0  0  0  0
    9.1280   -1.2090   23.4870 C   0  0  0  0  0  0  0  0  0  0  0  0
   11.9381   -0.4120   23.9222 C   0  0  0  0  0  0  0  0  0  0  0  0
    5.7970    0.9500   18.6730 C   0  0  0  0  0  0  0  0  0  0  0  0
    8.3450   -3.3440   25.0980 C   0  0  0  0  0  0  0  0  0  0  0  0
    7.2710   -0.1460   19.8310 C   0  0  0  0  0  0  0  0  0  0  0  0
   12.0405   -0.0808   26.3132 C   0  0  0  0  0  0  0  0  0  0  0  0
    6.6194   -4.8191   26.1158 C   0  0  0  0  0  0  0  0  0  0  0  0
    9.0430    0.2380   21.4940 C   0  0  0  0  0  0  0  0  0  0  0  0
    6.4366   -5.9938   27.0605 C   0  0  0  0  0  0  0  0  0  0  0  0
    7.2458   -5.7947   28.3299 C   0  0  0  0  0  0  0  0  0  0  0  0
    8.7184   -5.5215   28.0404 C   0  0  0  0  0  0  0  0  0  0  0  0
    9.0024   -5.2744   26.5596 C   0  0  0  0  0  0  0  0  0  0  0  0
   11.2301   -0.2125   22.6019 C   0  0  0  0  0  0  0  0  0  0  0  0
    9.5820   -0.1080   22.7000 C   0  0  2  0  0  0  0  0  0  0  0  0
    6.7100    0.3850   17.8100 N   0  0  0  0  0  0  0  0  0  0  0  0
    7.9658   -4.4384   25.9449 N   0  0  0  0  0  0  0  0  0  0  0  0
    8.0950   -0.7700   20.8440 N   0  0  0  0  0  0  0  0  0  0  0  0
    5.6415   -4.3469   25.5373 O   0  0  0  0  0  0  0  0  0  0  0  0
    9.2950    1.3000   20.9480 O   0  0  0  0  0  0  0  0  0  0  0  0
   11.3603    0.5550   27.7606 Cl  0  0  0  0  0  0  0  0  0  0  0  0
    3.6208    2.0704   21.6579 H   0  0  0  0  0  0  0  0  0  0  0  0
    2.9857    2.6926   19.3615 H   0  0  0  0  0  0  0  0  0  0  0  0
   14.7389   -1.8375   25.2200 H   0  0  0  0  0  0  0  0  0  0  0  0
    5.6664    0.7407   22.0807 H   0  0  0  0  0  0  0  0  0  0  0  0
   13.5824   -1.5147   23.0583 H   0  0  0  0  0  0  0  0  0  0  0  0
   10.2695   -2.6718   22.3873 H   0  0  0  0  0  0  0  0  0  0  0  0
    7.8712   -0.0014   24.7587 H   0  0  0  0  0  0  0  0  0  0  0  0
    4.3794    2.0106   17.4221 H   0  0  0  0  0  0  0  0  0  0  0  0
    9.5431   -4.5618   23.7801 H   0  0  0  0  0  0  0  0  0  0  0  0
    7.1923   -1.8823   26.1912 H   0  0  0  0  0  0  0  0  0  0  0  0
   13.7684   -0.9296   27.3005 H   0  0  0  0  0  0  0  0  0  0  0  0
   10.4447    0.6461   25.0549 H   0  0  0  0  0  0  0  0  0  0  0  0
    8.4172   -0.8135   18.0384 H   0  0  0  0  0  0  0  0  0  0  0  0
    5.3901   -6.0734   27.3117 H   0  0  0  0  0  0  0  0  0  0  0  0
    6.7606   -6.8843   26.5429 H   0  0  0  0  0  0  0  0  0  0  0  0
    6.8221   -4.9563   28.9212 H   0  0  0  0  0  0  0  0  0  0  0  0
    7.1526   -6.6910   28.9757 H   0  0  0  0  0  0  0  0  0  0  0  0
    9.0539   -4.6418   28.6288 H   0  0  0  0  0  0  0  0  0  0  0  0
    9.3393   -6.3684   28.4053 H   0  0  0  0  0  0  0  0  0  0  0  0
    9.9475   -4.7506   26.4523 H   0  0  0  0  0  0  0  0  0  0  0  0
    9.0509   -6.2236   26.0372 H   0  0  0  0  0  0  0  0  0  0  0  0
   11.5792    0.7206   22.1406 H   0  0  0  0  0  0  0  0  0  0  0  0
   11.5533   -1.0126   21.9215 H   0  0  0  0  0  0  0  0  0  0  0  0
    9.5402    0.8508   23.4127 H   0  0  0  0  0  0  0  0  0  0  0  0
    6.6715    0.4865   16.8044 H   0  0  0  0  0  0  0  0  0  0  0  0
    8.0917   -1.6083   21.0911 H   0  0  0  0  0  0  0  0  0  0  0  0
  1  2  1  0  0  0  0
  1  4  2  0  0  0  0
  2  8  2  0  0  0  0
  3  5  2  0  0  0  0
  3 11  1  0  0  0  0
  4 14  1  0  0  0  0
  5 16  1  0  0  0  0
  6  9  2  0  0  0  0
  6 15  1  0  0  0  0
  7 10  1  0  0  0  0
  7 15  2  0  0  0  0
  8 17  1  0  0  0  0
  9 18  1  0  0  0  0
 10 18  2  0  0  0  0
 11 20  2  0  0  0  0
 12 16  2  0  0  0  0
 12 20  1  0  0  0  0
 13 19  2  0  0  0  0
 13 29  1  0  0  0  0
 14 17  2  0  0  0  0
 14 19  1  0  0  0  0
 15 28  1  0  0  0  0
 16 27  1  0  0  0  0
 17 29  1  0  0  0  0
 18 30  1  0  0  0  0
 19 31  1  0  0  0  0
 20 34  1  0  0  0  0
 21 23  1  0  0  0  0
 21 30  1  0  0  0  0
 21 32  2  0  0  0  0
 22 28  1  6  0  0  0
 22 31  1  0  0  0  0
 22 33  2  0  0  0  0
 23 24  1  0  0  0  0
 24 25  1  0  0  0  0
 25 26  1  0  0  0  0
 26 30  1  0  0  0  0
 27 28  1  0  0  0  0
  1 35  1  0  0  0  0
  2 36  1  0  0  0  0
  3 37  1  0  0  0  0
  4 38  1  0  0  0  0
  5 39  1  0  0  0  0
  6 40  1  0  0  0  0
  7 41  1  0  0  0  0
  8 42  1  0  0  0  0
  9 43  1  0  0  0  0
 10 44  1  0  0  0  0
 11 45  1  0  0  0  0
 12 46  1  0  0  0  0
 13 47  1  0  0  0  0
 23 48  1  0  0  0  0
 23 49  1  0  0  0  0
 24 50  1  0  0  0  0
 24 51  1  0  0  0  0
 25 52  1  0  0  0  0
 25 53  1  0  0  0  0
 26 54  1  0  0  0  0
 26 55  1  0  0  0  0
 27 56  1  0  0  0  0
 27 57  1  0  0  0  0
 28 58  1  0  0  0  0
 29 59  1  0  0  0  0
 31 60  1  0  0  0  0
M  END
> <clash_score>
0.7026228882814392

> <docking_score>
-5.388949871063232

> <overlap_score>
0.924889862537384

$$$$
BENZO_303_1
  -OEChem-08232013543D

 60 64  0     1  0  0  0  0  0999 V2000
    4.2460    1.7520   20.8250 C   0  0  0  0  0  0  0  0  0  0  0  0
    3.8860    2.1050   19.5250 C   0  0  0  0  0  0  0  0  0  0  0  0
    5.3890    1.0010   21.0690 C   0  0  0  0  0  0  0  0  0  0  0  0
    9.5890   -2.4950   23.2210 C   0  0  0  0  0  0  0  0  0  0  0  0
    8.2550   -1.0010   24.5520 C   0  0  0  0  0  0  0  0  0  0  0  0
    4.6610    1.7170   18.4380 C   0  0  0  0  0  0  0  0  0  0  0  0
    9.1890   -3.5540   24.0140 C   0  0  0  0  0  0  0  0  0  0  0  0
    7.8700   -2.0610   25.3550 C   0  0  0  0  0  0  0  0  0  0  0  0
   13.3220   -0.5322   24.1508 C   0  0  0  0  0  0  0  0  0  0  0  0
   11.3738   -0.5141   25.1703 C   0  0  0  0  0  0  0  0  0  0  0  0
    7.5840   -0.2700   18.5160 C   0  0  0  0  0  0  0  0  0  0  0  0
    6.1460    0.6070   19.9750 C   0  0  0  0  0  0  0  0  0  0  0  0
    9.1280   -1.2090   23.4870 C   0  0  0  0  0  0  0  0  0  0  0  0
   11.9381   -0.4120   23.9222 C   0  0  0  0  0  0  0  0  0  0  0  0
    5.7970    0.9500   18.6730 C   0  0  0  0  0  0  0  0  0  0  0  0
    8.3450   -3.3440   25.0980 C   0  0  0  0  0  0  0  0  0  0  0  0
    7.2710   -0.1460   19.8310 C   0  0  0  0  0  0  0  0  0  0  0  0
    8.2612   -4.4533   27.3232 C   0  0  0  0  0  0  0  0  0  0  0  0
    9.0430    0.2380   21.4940 C   0  0  0  0  0  0  0  0  0  0  0  0
    7.7639   -5.6979   28.0369 C   0  0  0  0  0  0  0  0  0  0  0  0
    6.3258   -5.9996   27.6538 C   0  0  0  0  0  0  0  0  0  0  0  0
    6.1385   -6.0983   26.1431 C   0  0  0  0  0  0  0  0  0  0  0  0
    7.3646   -5.6395   25.3553 C   0  0  0  0  0  0  0  0  0  0  0  0
   12.3183   -0.8369   27.4686 C   0  0  0  0  0  0  0  0  0  0  0  0
   11.2301   -0.2125   22.6019 C   0  0  0  0  0  0  0  0  0  0  0  0
    9.5820   -0.1080   22.7000 C   0  0  1  0  0  0  0  0  0  0  0  0
   13.6188   -0.6978   25.4425 N   0  0  0  0  0  0  0  0  0  0  0  0
    6.7100    0.3850   17.8100 N   0  0  0  0  0  0  0  0  0  0  0  0
   12.4135   -0.6823   26.0368 N   0  0  0  0  0  0  0  0  0  0  0  0
    7.9658   -4.4385   25.9450 N   0  0  0  0  0  0  0  0  0  0  0  0
    8.0950   -0.7700   20.8440 N   0  0  0  0  0  0  0  0  0  0  0  0
    8.9160   -3.6176   27.9452 O   0  0  0  0  0  0  0  0  0  0  0  0
    9.2950    1.3000   20.9480 O   0  0  0  0  0  0  0  0  0  0  0  0
    3.6208    2.0704   21.6579 H   0  0  0  0  0  0  0  0  0  0  0  0
    2.9857    2.6926   19.3615 H   0  0  0  0  0  0  0  0  0  0  0  0
    5.6664    0.7407   22.0807 H   0  0  0  0  0  0  0  0  0  0  0  0
   10.2695   -2.6718   22.3873 H   0  0  0  0  0  0  0  0  0  0  0  0
    7.8712   -0.0014   24.7587 H   0  0  0  0  0  0  0  0  0  0  0  0
    4.3794    2.0106   17.4221 H   0  0  0  0  0  0  0  0  0  0  0  0
    9.5431   -4.5618   23.7801 H   0  0  0  0  0  0  0  0  0  0  0  0
    7.1923   -1.8823   26.1912 H   0  0  0  0  0  0  0  0  0  0  0  0
   14.1285   -0.5054   23.4318 H   0  0  0  0  0  0  0  0  0  0  0  0
   10.3466   -0.4809   25.5074 H   0  0  0  0  0  0  0  0  0  0  0  0
    8.4172   -0.8135   18.0384 H   0  0  0  0  0  0  0  0  0  0  0  0
    8.3914   -6.5295   27.7556 H   0  0  0  0  0  0  0  0  0  0  0  0
    7.8414   -5.5198   29.0990 H   0  0  0  0  0  0  0  0  0  0  0  0
    5.9977   -6.9465   28.1311 H   0  0  0  0  0  0  0  0  0  0  0  0
    5.6587   -5.2139   28.0619 H   0  0  0  0  0  0  0  0  0  0  0  0
    5.8986   -7.1470   25.8680 H   0  0  0  0  0  0  0  0  0  0  0  0
    5.2500   -5.5067   25.8324 H   0  0  0  0  0  0  0  0  0  0  0  0
    8.1195   -6.4201   25.3688 H   0  0  0  0  0  0  0  0  0  0  0  0
    7.0780   -5.4282   24.3307 H   0  0  0  0  0  0  0  0  0  0  0  0
   12.2259   -1.9040   27.6873 H   0  0  0  0  0  0  0  0  0  0  0  0
   13.2159   -0.4265   27.9396 H   0  0  0  0  0  0  0  0  0  0  0  0
   11.4422   -0.2936   27.8333 H   0  0  0  0  0  0  0  0  0  0  0  0
   11.5792    0.7206   22.1406 H   0  0  0  0  0  0  0  0  0  0  0  0
   11.5533   -1.0126   21.9215 H   0  0  0  0  0  0  0  0  0  0  0  0
    9.5402    0.8508   23.4127 H   0  0  0  0  0  0  0  0  0  0  0  0
    6.6715    0.4865   16.8044 H   0  0  0  0  0  0  0  0  0  0  0  0
    8.0917   -1.6083   21.0911 H   0  0  0  0  0  0  0  0  0  0  0  0
  1  2  1  0  0  0  0
  1  3  2  0  0  0  0
  2  6  2  0  0  0  0
  3 12  1  0  0  0  0
  4  7  2  0  0  0  0
  4 13  1  0  0  0  0
  5  8  1  0  0  0  0
  5 13  2  0  0  0  0
  6 15  1  0  0  0  0
  7 16  1  0  0  0  0
  8 16  2  0  0  0  0
  9 14  1  0  0  0  0
  9 27  2  0  0  0  0
 10 14  2  0  0  0  0
 10 29  1  0  0  0  0
 11 17  2  0  0  0  0
 11 28  1  0  0  0  0
 12 15  2  0  0  0  0
 12 17  1  0  0  0  0
 13 26  1  0  0  0  0
 14 25  1  0  0  0  0
 15 28  1  0  0  0  0
 16 30  1  0  0  0  0
 17 31  1  0  0  0  0
 18 20  1  0  0  0  0
 18 30  1  0  0  0  0
 18 32  2  0  0  0  0
 19 26  1  0  0  0  0
 19 31  1  0  0  0  0
 19 33  2  0  0  0  0
 20 21  1  0  0  0  0
 21 22  1  0  0  0  0
 22 23  1  0  0  0  0
 23 30  1  0  0  0  0
 24 29  1  0  0  0  0
 25 26  1  1  0  0  0
 27 29  1  0  0  0  0
  1 34  1  0  0  0  0
  2 35  1  0  0  0  0
  3 36  1  0  0  0  0
  4 37  1  0  0  0  0
  5 38  1  0  0  0  0
  6 39  1  0  0  0  0
  7 40  1  0  0  0  0
  8 41  1  0  0  0  0
  9 42  1  0  0  0  0
 10 43  1  0  0  0  0
 11 44  1  0  0  0  0
 20 45  1  0  0  0  0
 20 46  1  0  0  0  0
 21 47  1  0  0  0  0
 21 48  1  0  0  0  0
 22 49  1  0  0  0  0
 22 50  1  0  0  0  0
 23 51  1  0  0  0  0
 23 52  1  0  0  0  0
 24 53  1  0  0  0  0
 24 54  1  0  0  0  0
 24 55  1  0  0  0  0
 25 56  1  0  0  0  0
 25 57  1  0  0  0  0
 26 58  1  0  0  0  0
 28 59  1  0  0  0  0
 31 60  1  0  0  0  0
M  END
> <clash_score>
0.6568275608698446

> <docking_score>
-6.6361589431762695

> <overlap_score>
0.93819659948349

$$$$
BENZO_305_1
  -OEChem-08232013543D

 59 63  0     1  0  0  0  0  0999 V2000
   12.7724    1.1059   26.6945 C   0  0  0  0  0  0  0  0  0  0  0  0
    4.2460    1.7520   20.8250 C   0  0  0  0  0  0  0  0  0  0  0  0
   11.5849    1.7953   26.9397 C   0  0  0  0  0  0  0  0  0  0  0  0
   12.9583    0.4475   25.4789 C   0  0  0  0  0  0  0  0  0  0  0  0
    3.8860    2.1050   19.5250 C   0  0  0  0  0  0  0  0  0  0  0  0
    5.3890    1.0010   21.0690 C   0  0  0  0  0  0  0  0  0  0  0  0
   10.5832    1.8262   25.9695 C   0  0  0  0  0  0  0  0  0  0  0  0
   11.9567    0.4785   24.5086 C   0  0  0  0  0  0  0  0  0  0  0  0
    9.5890   -2.4950   23.2210 C   0  0  0  0  0  0  0  0  0  0  0  0
    8.2550   -1.0010   24.5520 C   0  0  0  0  0  0  0  0  0  0  0  0
    4.6610    1.7170   18.4380 C   0  0  0  0  0  0  0  0  0  0  0  0
    9.1890   -3.5540   24.0140 C   0  0  0  0  0  0  0  0  0  0  0  0
    7.8700   -2.0610   25.3550 C   0  0  0  0  0  0  0  0  0  0  0  0
    7.5840   -0.2700   18.5160 C   0  0  0  0  0  0  0  0  0  0  0  0
    6.1460    0.6070   19.9750 C   0  0  0  0  0  0  0  0  0  0  0  0
   10.7691    1.1678   24.7539 C   0  0  0  0  0  0  0  0  0  0  0  0
    9.1280   -1.2090   23.4870 C   0  0  0  0  0  0  0  0  0  0  0  0
    5.7970    0.9500   18.6730 C   0  0  0  0  0  0  0  0  0  0  0  0
    8.3450   -3.3440   25.0980 C   0  0  0  0  0  0  0  0  0  0  0  0
    7.2710   -0.1460   19.8310 C   0  0  0  0  0  0  0  0  0  0  0  0
    9.0430    0.2380   21.4940 C   0  0  0  0  0  0  0  0  0  0  0  0
    8.9527   -5.2007   26.6599 C   0  0  0  0  0  0  0  0  0  0  0  0
    6.6114   -4.5061   26.4392 C   0  0  0  0  0  0  0  0  0  0  0  0
    8.9052   -4.7829   28.1257 C   0  0  0  0  0  0  0  0  0  0  0  0
    6.6389   -4.1225   27.9194 C   0  0  0  0  0  0  0  0  0  0  0  0
    9.6841    1.2008   23.7022 C   0  0  0  0  0  0  0  0  0  0  0  0
    9.5820   -0.1080   22.7000 C   0  0  1  0  0  0  0  0  0  0  0  0
    6.7100    0.3850   17.8100 N   0  0  0  0  0  0  0  0  0  0  0  0
    7.9774   -4.4013   25.9152 N   0  0  0  0  0  0  0  0  0  0  0  0
    8.0950   -0.7700   20.8440 N   0  0  0  0  0  0  0  0  0  0  0  0
    9.2950    1.3000   20.9480 O   0  0  0  0  0  0  0  0  0  0  0  0
    7.5748   -4.9369   28.6346 O   0  0  0  0  0  0  0  0  0  0  0  0
   13.5527    1.0831   27.4495 H   0  0  0  0  0  0  0  0  0  0  0  0
    3.6208    2.0704   21.6579 H   0  0  0  0  0  0  0  0  0  0  0  0
   11.4404    2.3089   27.8858 H   0  0  0  0  0  0  0  0  0  0  0  0
   13.8832   -0.0884   25.2871 H   0  0  0  0  0  0  0  0  0  0  0  0
    2.9857    2.6926   19.3615 H   0  0  0  0  0  0  0  0  0  0  0  0
    5.6664    0.7407   22.0807 H   0  0  0  0  0  0  0  0  0  0  0  0
    9.6612    2.3657   26.1694 H   0  0  0  0  0  0  0  0  0  0  0  0
   12.1103   -0.0375   23.5645 H   0  0  0  0  0  0  0  0  0  0  0  0
   10.2684   -2.6719   22.3867 H   0  0  0  0  0  0  0  0  0  0  0  0
    7.8717   -0.0016   24.7596 H   0  0  0  0  0  0  0  0  0  0  0  0
    4.3794    2.0106   17.4221 H   0  0  0  0  0  0  0  0  0  0  0  0
    9.5443   -4.5616   23.7817 H   0  0  0  0  0  0  0  0  0  0  0  0
    7.1921   -1.8821   26.1908 H   0  0  0  0  0  0  0  0  0  0  0  0
    8.4172   -0.8135   18.0384 H   0  0  0  0  0  0  0  0  0  0  0  0
    9.9650   -5.0555   26.2691 H   0  0  0  0  0  0  0  0  0  0  0  0
    8.6941   -6.2620   26.5708 H   0  0  0  0  0  0  0  0  0  0  0  0
    6.2612   -5.5365   26.3329 H   0  0  0  0  0  0  0  0  0  0  0  0
    5.9290   -3.8447   25.9017 H   0  0  0  0  0  0  0  0  0  0  0  0
    9.5616   -5.4256   28.7162 H   0  0  0  0  0  0  0  0  0  0  0  0
    9.2362   -3.7495   28.2622 H   0  0  0  0  0  0  0  0  0  0  0  0
    6.8891   -3.0639   28.0552 H   0  0  0  0  0  0  0  0  0  0  0  0
    5.6513   -4.2871   28.3609 H   0  0  0  0  0  0  0  0  0  0  0  0
    8.7167    1.3910   24.1851 H   0  0  0  0  0  0  0  0  0  0  0  0
    9.8647    2.0727   23.0582 H   0  0  0  0  0  0  0  0  0  0  0  0
   10.7539   -0.2760   22.5528 H   0  0  0  0  0  0  0  0  0  0  0  0
    6.6715    0.4865   16.8044 H   0  0  0  0  0  0  0  0  0  0  0  0
    8.0730   -1.6176   21.0751 H   0  0  0  0  0  0  0  0  0  0  0  0
  1  3  1  0  0  0  0
  1  4  2  0  0  0  0
  2  5  1  0  0  0  0
  2  6  2  0  0  0  0
  3  7  2  0  0  0  0
  4  8  1  0  0  0  0
  5 11  2  0  0  0  0
  6 15  1  0  0  0  0
  7 16  1  0  0  0  0
  8 16  2  0  0  0  0
  9 12  2  0  0  0  0
  9 17  1  0  0  0  0
 10 13  1  0  0  0  0
 10 17  2  0  0  0  0
 11 18  1  0  0  0  0
 12 19  1  0  0  0  0
 13 19  2  0  0  0  0
 14 20  2  0  0  0  0
 14 28  1  0  0  0  0
 15 18  2  0  0  0  0
 15 20  1  0  0  0  0
 16 26  1  0  0  0  0
 17 27  1  0  0  0  0
 18 28  1  0  0  0  0
 19 29  1  0  0  0  0
 20 30  1  0  0  0  0
 21 27  1  1  0  0  0
 21 30  1  0  0  0  0
 21 31  2  0  0  0  0
 22 24  1  0  0  0  0
 22 29  1  0  0  0  0
 23 25  1  0  0  0  0
 23 29  1  0  0  0  0
 24 32  1  0  0  0  0
 25 32  1  0  0  0  0
 26 27  1  0  0  0  0
  1 33  1  0  0  0  0
  2 34  1  0  0  0  0
  3 35  1  0  0  0  0
  4 36  1  0  0  0  0
  5 37  1  0  0  0  0
  6 38  1  0  0  0  0
  7 39  1  0  0  0  0
  8 40  1  0  0  0  0
  9 41  1  0  0  0  0
 10 42  1  0  0  0  0
 11 43  1  0  0  0  0
 12 44  1  0  0  0  0
 13 45  1  0  0  0  0
 14 46  1  0  0  0  0
 22 47  1  0  0  0  0
 22 48  1  0  0  0  0
 23 49  1  0  0  0  0
 23 50  1  0  0  0  0
 24 51  1  0  0  0  0
 24 52  1  0  0  0  0
 25 53  1  0  0  0  0
 25 54  1  0  0  0  0
 26 55  1  0  0  0  0
 26 56  1  0  0  0  0
 27 57  1  0  0  0  0
 28 58  1  0  0  0  0
 30 59  1  0  0  0  0
M  END
> <clash_score>
4.383203154470866

> <docking_score>
-4.379758834838867

> <overlap_score>
0.8530063629150391

$$$$
BENZO_303_2
  -OEChem-08232013543D

 60 64  0     1  0  0  0  0  0999 V2000
    4.2460    1.7520   20.8250 C   0  0  0  0  0  0  0  0  0  0  0  0
    3.8860    2.1050   19.5250 C   0  0  0  0  0  0  0  0  0  0  0  0
    5.3890    1.0010   21.0690 C   0  0  0  0  0  0  0  0  0  0  0  0
    9.5890   -2.4950   23.2210 C   0  0  0  0  0  0  0  0  0  0  0  0
    8.2550   -1.0010   24.5520 C   0  0  0  0  0  0  0  0  0  0  0  0
    4.6610    1.7170   18.4380 C   0  0  0  0  0  0  0  0  0  0  0  0
    9.1890   -3.5540   24.0140 C   0  0  0  0  0  0  0  0  0  0  0  0
    7.8700   -2.0610   25.3550 C   0  0  0  0  0  0  0  0  0  0  0  0
   11.6577    2.2238   22.2952 C   0  0  0  0  0  0  0  0  0  0  0  0
   11.0138    3.4070   24.0331 C   0  0  0  0  0  0  0  0  0  0  0  0
    7.5840   -0.2700   18.5160 C   0  0  0  0  0  0  0  0  0  0  0  0
    6.1460    0.6070   19.9750 C   0  0  0  0  0  0  0  0  0  0  0  0
    9.1280   -1.2090   23.4870 C   0  0  0  0  0  0  0  0  0  0  0  0
   10.7393    2.2406   23.3619 C   0  0  0  0  0  0  0  0  0  0  0  0
    5.7970    0.9500   18.6730 C   0  0  0  0  0  0  0  0  0  0  0  0
    8.3450   -3.3440   25.0980 C   0  0  0  0  0  0  0  0  0  0  0  0
    7.2710   -0.1460   19.8310 C   0  0  0  0  0  0  0  0  0  0  0  0
    8.2612   -4.4533   27.3232 C   0  0  0  0  0  0  0  0  0  0  0  0
    9.0430    0.2380   21.4940 C   0  0  0  0  0  0  0  0  0  0  0  0
    7.7639   -5.6979   28.0369 C   0  0  0  0  0  0  0  0  0  0  0  0
    6.3258   -5.9996   27.6538 C   0  0  0  0  0  0  0  0  0  0  0  0
    6.1385   -6.0983   26.1431 C   0  0  0  0  0  0  0  0  0  0  0  0
    7.3646   -5.6395   25.3553 C   0  0  0  0  0  0  0  0  0  0  0  0
   12.6770    5.2480   23.6821 C   0  0  0  0  0  0  0  0  0  0  0  0
    9.6852    1.2097   23.6944 C   0  0  0  0  0  0  0  0  0  0  0  0
    9.5820   -0.1080   22.7000 C   0  0  2  0  0  0  0  0  0  0  0  0
   12.4560    3.2947   22.2852 N   0  0  0  0  0  0  0  0  0  0  0  0
    6.7100    0.3850   17.8100 N   0  0  0  0  0  0  0  0  0  0  0  0
   12.0398    3.9953   23.3539 N   0  0  0  0  0  0  0  0  0  0  0  0
    7.9658   -4.4385   25.9450 N   0  0  0  0  0  0  0  0  0  0  0  0
    8.0950   -0.7700   20.8440 N   0  0  0  0  0  0  0  0  0  0  0  0
    8.9160   -3.6176   27.9452 O   0  0  0  0  0  0  0  0  0  0  0  0
    9.2950    1.3000   20.9480 O   0  0  0  0  0  0  0  0  0  0  0  0
    3.6208    2.0704   21.6579 H   0  0  0  0  0  0  0  0  0  0  0  0
    2.9857    2.6926   19.3615 H   0  0  0  0  0  0  0  0  0  0  0  0
    5.6664    0.7407   22.0807 H   0  0  0  0  0  0  0  0  0  0  0  0
   10.2695   -2.6718   22.3873 H   0  0  0  0  0  0  0  0  0  0  0  0
    7.8712   -0.0014   24.7587 H   0  0  0  0  0  0  0  0  0  0  0  0
    4.3794    2.0106   17.4221 H   0  0  0  0  0  0  0  0  0  0  0  0
    9.5431   -4.5618   23.7801 H   0  0  0  0  0  0  0  0  0  0  0  0
    7.1923   -1.8823   26.1912 H   0  0  0  0  0  0  0  0  0  0  0  0
   11.7800    1.4776   21.5229 H   0  0  0  0  0  0  0  0  0  0  0  0
   10.5765    3.8580   24.9136 H   0  0  0  0  0  0  0  0  0  0  0  0
    8.4172   -0.8135   18.0384 H   0  0  0  0  0  0  0  0  0  0  0  0
    8.3914   -6.5295   27.7556 H   0  0  0  0  0  0  0  0  0  0  0  0
    7.8414   -5.5198   29.0990 H   0  0  0  0  0  0  0  0  0  0  0  0
    5.9977   -6.9465   28.1311 H   0  0  0  0  0  0  0  0  0  0  0  0
    5.6587   -5.2139   28.0619 H   0  0  0  0  0  0  0  0  0  0  0  0
    5.8986   -7.1470   25.8680 H   0  0  0  0  0  0  0  0  0  0  0  0
    5.2500   -5.5067   25.8324 H   0  0  0  0  0  0  0  0  0  0  0  0
    8.1195   -6.4201   25.3688 H   0  0  0  0  0  0  0  0  0  0  0  0
    7.0780   -5.4282   24.3307 H   0  0  0  0  0  0  0  0  0  0  0  0
   13.5110    5.0358   24.3562 H   0  0  0  0  0  0  0  0  0  0  0  0
   13.0376    5.7241   22.7660 H   0  0  0  0  0  0  0  0  0  0  0  0
   11.9508    5.9069   24.1662 H   0  0  0  0  0  0  0  0  0  0  0  0
    9.7996    0.8985   24.7410 H   0  0  0  0  0  0  0  0  0  0  0  0
    8.7039    1.7016   23.6424 H   0  0  0  0  0  0  0  0  0  0  0  0
   10.7567   -0.2690   22.5479 H   0  0  0  0  0  0  0  0  0  0  0  0
    6.6715    0.4865   16.8044 H   0  0  0  0  0  0  0  0  0  0  0  0
    8.0917   -1.6083   21.0911 H   0  0  0  0  0  0  0  0  0  0  0  0
  1  2  1  0  0  0  0
  1  3  2  0  0  0  0
  2  6  2  0  0  0  0
  3 12  1  0  0  0  0
  4  7  2  0  0  0  0
  4 13  1  0  0  0  0
  5  8  1  0  0  0  0
  5 13  2  0  0  0  0
  6 15  1  0  0  0  0
  7 16  1  0  0  0  0
  8 16  2  0  0  0  0
  9 14  1  0  0  0  0
  9 27  2  0  0  0  0
 10 14  2  0  0  0  0
 10 29  1  0  0  0  0
 11 17  2  0  0  0  0
 11 28  1  0  0  0  0
 12 15  2  0  0  0  0
 12 17  1  0  0  0  0
 13 26  1  0  0  0  0
 14 25  1  0  0  0  0
 15 28  1  0  0  0  0
 16 30  1  0  0  0  0
 17 31  1  0  0  0  0
 18 20  1  0  0  0  0
 18 30  1  0  0  0  0
 18 32  2  0  0  0  0
 19 26  1  0  0  0  0
 19 31  1  0  0  0  0
 19 33  2  0  0  0  0
 20 21  1  0  0  0  0
 21 22  1  0  0  0  0
 22 23  1  0  0  0  0
 23 30  1  0  0  0  0
 24 29  1  0  0  0  0
 25 26  1  6  0  0  0
 27 29  1  0  0  0  0
  1 34  1  0  0  0  0
  2 35  1  0  0  0  0
  3 36  1  0  0  0  0
  4 37  1  0  0  0  0
  5 38  1  0  0  0  0
  6 39  1  0  0  0  0
  7 40  1  0  0  0  0
  8 41  1  0  0  0  0
  9 42  1  0  0  0  0
 10 43  1  0  0  0  0
 11 44  1  0  0  0  0
 20 45  1  0  0  0  0
 20 46  1  0  0  0  0
 21 47  1  0  0  0  0
 21 48  1  0  0  0  0
 22 49  1  0  0  0  0
 22 50  1  0  0  0  0
 23 51  1  0  0  0  0
 23 52  1  0  0  0  0
 24 53  1  0  0  0  0
 24 54  1  0  0  0  0
 24 55  1  0  0  0  0
 25 56  1  0  0  0  0
 25 57  1  0  0  0  0
 26 58  1  0  0  0  0
 28 59  1  0  0  0  0
 31 60  1  0  0  0  0
M  END
> <clash_score>
0

> <docking_score>
-7.353045463562012

> <overlap_score>
0.8474575281143188

$$$$
BENZO_305_2
  -OEChem-08232013543D

 59 63  0     1  0  0  0  0  0999 V2000
   13.2081   -0.8233   26.3776 C   0  0  0  0  0  0  0  0  0  0  0  0
    4.2460    1.7520   20.8250 C   0  0  0  0  0  0  0  0  0  0  0  0
   13.7678   -1.3337   25.2064 C   0  0  0  0  0  0  0  0  0  0  0  0
   12.0060   -0.1174   26.3261 C   0  0  0  0  0  0  0  0  0  0  0  0
    3.8860    2.1050   19.5250 C   0  0  0  0  0  0  0  0  0  0  0  0
    5.3890    1.0010   21.0690 C   0  0  0  0  0  0  0  0  0  0  0  0
   13.1256   -1.1382   23.9837 C   0  0  0  0  0  0  0  0  0  0  0  0
   11.3638    0.0781   25.1034 C   0  0  0  0  0  0  0  0  0  0  0  0
    9.5890   -2.4950   23.2210 C   0  0  0  0  0  0  0  0  0  0  0  0
    8.2550   -1.0010   24.5520 C   0  0  0  0  0  0  0  0  0  0  0  0
    4.6610    1.7170   18.4380 C   0  0  0  0  0  0  0  0  0  0  0  0
    9.1890   -3.5540   24.0140 C   0  0  0  0  0  0  0  0  0  0  0  0
    7.8700   -2.0610   25.3550 C   0  0  0  0  0  0  0  0  0  0  0  0
    7.5840   -0.2700   18.5160 C   0  0  0  0  0  0  0  0  0  0  0  0
    6.1460    0.6070   19.9750 C   0  0  0  0  0  0  0  0  0  0  0  0
   11.9236   -0.4323   23.9322 C   0  0  0  0  0  0  0  0  0  0  0  0
    9.1280   -1.2090   23.4870 C   0  0  0  0  0  0  0  0  0  0  0  0
    5.7970    0.9500   18.6730 C   0  0  0  0  0  0  0  0  0  0  0  0
    8.3450   -3.3440   25.0980 C   0  0  0  0  0  0  0  0  0  0  0  0
    7.2710   -0.1460   19.8310 C   0  0  0  0  0  0  0  0  0  0  0  0
    9.0430    0.2380   21.4940 C   0  0  0  0  0  0  0  0  0  0  0  0
    8.9527   -5.2007   26.6599 C   0  0  0  0  0  0  0  0  0  0  0  0
    6.6114   -4.5061   26.4392 C   0  0  0  0  0  0  0  0  0  0  0  0
    8.9052   -4.7829   28.1257 C   0  0  0  0  0  0  0  0  0  0  0  0
    6.6389   -4.1225   27.9194 C   0  0  0  0  0  0  0  0  0  0  0  0
   11.2273   -0.2199   22.6076 C   0  0  0  0  0  0  0  0  0  0  0  0
    9.5820   -0.1080   22.7000 C   0  0  2  0  0  0  0  0  0  0  0  0
    6.7100    0.3850   17.8100 N   0  0  0  0  0  0  0  0  0  0  0  0
    7.9774   -4.4013   25.9152 N   0  0  0  0  0  0  0  0  0  0  0  0
    8.0950   -0.7700   20.8440 N   0  0  0  0  0  0  0  0  0  0  0  0
    9.2950    1.3000   20.9480 O   0  0  0  0  0  0  0  0  0  0  0  0
    7.5748   -4.9369   28.6346 O   0  0  0  0  0  0  0  0  0  0  0  0
   13.7076   -0.9767   27.3297 H   0  0  0  0  0  0  0  0  0  0  0  0
    3.6208    2.0704   21.6579 H   0  0  0  0  0  0  0  0  0  0  0  0
   14.7032   -1.8843   25.2464 H   0  0  0  0  0  0  0  0  0  0  0  0
   11.5694    0.2792   27.2379 H   0  0  0  0  0  0  0  0  0  0  0  0
    2.9857    2.6926   19.3615 H   0  0  0  0  0  0  0  0  0  0  0  0
    5.6664    0.7407   22.0807 H   0  0  0  0  0  0  0  0  0  0  0  0
   13.5692   -1.5394   23.0762 H   0  0  0  0  0  0  0  0  0  0  0  0
   10.4277    0.6294   25.0729 H   0  0  0  0  0  0  0  0  0  0  0  0
   10.2684   -2.6719   22.3867 H   0  0  0  0  0  0  0  0  0  0  0  0
    7.8717   -0.0016   24.7596 H   0  0  0  0  0  0  0  0  0  0  0  0
    4.3794    2.0106   17.4221 H   0  0  0  0  0  0  0  0  0  0  0  0
    9.5443   -4.5616   23.7817 H   0  0  0  0  0  0  0  0  0  0  0  0
    7.1921   -1.8821   26.1908 H   0  0  0  0  0  0  0  0  0  0  0  0
    8.4172   -0.8135   18.0384 H   0  0  0  0  0  0  0  0  0  0  0  0
    9.9650   -5.0555   26.2691 H   0  0  0  0  0  0  0  0  0  0  0  0
    8.6941   -6.2620   26.5708 H   0  0  0  0  0  0  0  0  0  0  0  0
    6.2612   -5.5365   26.3329 H   0  0  0  0  0  0  0  0  0  0  0  0
    5.9290   -3.8447   25.9017 H   0  0  0  0  0  0  0  0  0  0  0  0
    9.5616   -5.4256   28.7162 H   0  0  0  0  0  0  0  0  0  0  0  0
    9.2362   -3.7495   28.2622 H   0  0  0  0  0  0  0  0  0  0  0  0
    6.8891   -3.0639   28.0552 H   0  0  0  0  0  0  0  0  0  0  0  0
    5.6513   -4.2871   28.3609 H   0  0  0  0  0  0  0  0  0  0  0  0
   11.5842    0.7150   22.1561 H   0  0  0  0  0  0  0  0  0  0  0  0
   11.5525   -1.0164   21.9239 H   0  0  0  0  0  0  0  0  0  0  0  0
    9.5374    0.8439   23.4178 H   0  0  0  0  0  0  0  0  0  0  0  0
    6.6715    0.4865   16.8044 H   0  0  0  0  0  0  0  0  0  0  0  0
    8.0730   -1.6176   21.0751 H   0  0  0  0  0  0  0  0  0  0  0  0
  1  3  1  0  0  0  0
  1  4  2  0  0  0  0
  2  5  1  0  0  0  0
  2  6  2  0  0  0  0
  3  7  2  0  0  0  0
  4  8  1  0  0  0  0
  5 11  2  0  0  0  0
  6 15  1  0  0  0  0
  7 16  1  0  0  0  0
  8 16  2  0  0  0  0
  9 12  2  0  0  0  0
  9 17  1  0  0  0  0
 10 13  1  0  0  0  0
 10 17  2  0  0  0  0
 11 18  1  0  0  0  0
 12 19  1  0  0  0  0
 13 19  2  0  0  0  0
 14 20  2  0  0  0  0
 14 28  1  0  0  0  0
 15 18  2  0  0  0  0
 15 20  1  0  0  0  0
 16 26  1  0  0  0  0
 17 27  1  0  0  0  0
 18 28  1  0  0  0  0
 19 29  1  0  0  0  0
 20 30  1  0  0  0  0
 21 27  1  6  0  0  0
 21 30  1  0  0  0  0
 21 31  2  0  0  0  0
 22 24  1  0  0  0  0
 22 29  1  0  0  0  0
 23 25  1  0  0  0  0
 23 29  1  0  0  0  0
 24 32  1  0  0  0  0
 25 32  1  0  0  0  0
 26 27  1  0  0  0  0
  1 33  1  0  0  0  0
  2 34  1  0  0  0  0
  3 35  1  0  0  0  0
  4 36  1  0  0  0  0
  5 37  1  0  0  0  0
  6 38  1  0  0  0  0
  7 39  1  0  0  0  0
  8 40  1  0  0  0  0
  9 41  1  0  0  0  0
 10 42  1  0  0  0  0
 11 43  1  0  0  0  0
 12 44  1  0  0  0  0
 13 45  1  0  0  0  0
 14 46  1  0  0  0  0
 22 47  1  0  0  0  0
 22 48  1  0  0  0  0
 23 49  1  0  0  0  0
 23 50  1  0  0  0  0
 24 51  1  0  0  0  0
 24 52  1  0  0  0  0
 25 53  1  0  0  0  0
 25 54  1  0  0  0  0
 26 55  1  0  0  0  0
 26 56  1  0  0  0  0
 27 57  1  0  0  0  0
 28 58  1  0  0  0  0
 30 59  1  0  0  0  0
M  END
> <clash_score>
0

> <docking_score>
-6.226194381713867

> <overlap_score>
0.9234111905097961

$$$$
BENZO_304_1
  -OEChem-08232013543D

 56 60  0     1  0  0  0  0  0999 V2000
    4.2460    1.7520   20.8250 C   0  0  0  0  0  0  0  0  0  0  0  0
    3.8860    2.1050   19.5250 C   0  0  0  0  0  0  0  0  0  0  0  0
    5.3890    1.0010   21.0690 C   0  0  0  0  0  0  0  0  0  0  0  0
    9.5890   -2.4950   23.2210 C   0  0  0  0  0  0  0  0  0  0  0  0
    8.2550   -1.0010   24.5520 C   0  0  0  0  0  0  0  0  0  0  0  0
    4.6610    1.7170   18.4380 C   0  0  0  0  0  0  0  0  0  0  0  0
    9.1890   -3.5540   24.0140 C   0  0  0  0  0  0  0  0  0  0  0  0
    7.8700   -2.0610   25.3550 C   0  0  0  0  0  0  0  0  0  0  0  0
   11.1765   -0.0135   25.4386 C   0  0  0  0  0  0  0  0  0  0  0  0
    7.5840   -0.2700   18.5160 C   0  0  0  0  0  0  0  0  0  0  0  0
   12.1828    0.2352   26.3457 C   0  0  0  0  0  0  0  0  0  0  0  0
   11.4796    2.2746   25.1641 C   0  0  0  0  0  0  0  0  0  0  0  0
    6.1460    0.6070   19.9750 C   0  0  0  0  0  0  0  0  0  0  0  0
    9.1280   -1.2090   23.4870 C   0  0  0  0  0  0  0  0  0  0  0  0
   10.7691    1.1678   24.7539 C   0  0  0  0  0  0  0  0  0  0  0  0
    5.7970    0.9500   18.6730 C   0  0  0  0  0  0  0  0  0  0  0  0
    8.3450   -3.3440   25.0980 C   0  0  0  0  0  0  0  0  0  0  0  0
    7.2710   -0.1460   19.8310 C   0  0  0  0  0  0  0  0  0  0  0  0
    9.0430    0.2380   21.4940 C   0  0  0  0  0  0  0  0  0  0  0  0
    6.7636   -5.1646   25.5737 C   0  0  0  0  0  0  0  0  0  0  0  0
    8.3036   -4.3779   27.3502 C   0  0  0  0  0  0  0  0  0  0  0  0
    6.8053   -6.5367   26.2366 C   0  0  0  0  0  0  0  0  0  0  0  0
    8.2626   -5.7921   27.9187 C   0  0  0  0  0  0  0  0  0  0  0  0
    9.6841    1.2008   23.7022 C   0  0  0  0  0  0  0  0  0  0  0  0
    9.5820   -0.1080   22.7000 C   0  0  1  0  0  0  0  0  0  0  0  0
    6.7100    0.3850   17.8100 N   0  0  0  0  0  0  0  0  0  0  0  0
    7.9748   -4.4087   25.9209 N   0  0  0  0  0  0  0  0  0  0  0  0
    8.0950   -0.7700   20.8440 N   0  0  0  0  0  0  0  0  0  0  0  0
    9.2950    1.3000   20.9480 O   0  0  0  0  0  0  0  0  0  0  0  0
    7.0035   -6.4052   27.6441 O   0  0  0  0  0  0  0  0  0  0  0  0
   12.6325    1.8874   26.3696 S   0  0  0  0  0  0  0  0  0  0  0  0
    3.6208    2.0704   21.6579 H   0  0  0  0  0  0  0  0  0  0  0  0
    2.9857    2.6926   19.3615 H   0  0  0  0  0  0  0  0  0  0  0  0
    5.6664    0.7407   22.0807 H   0  0  0  0  0  0  0  0  0  0  0  0
   10.2684   -2.6719   22.3867 H   0  0  0  0  0  0  0  0  0  0  0  0
    7.8717   -0.0016   24.7596 H   0  0  0  0  0  0  0  0  0  0  0  0
    4.3794    2.0106   17.4221 H   0  0  0  0  0  0  0  0  0  0  0  0
    9.5443   -4.5616   23.7817 H   0  0  0  0  0  0  0  0  0  0  0  0
    7.1921   -1.8821   26.1908 H   0  0  0  0  0  0  0  0  0  0  0  0
   10.7551   -0.9977   25.2772 H   0  0  0  0  0  0  0  0  0  0  0  0
    8.4172   -0.8135   18.0384 H   0  0  0  0  0  0  0  0  0  0  0  0
   12.6750   -0.4740   26.9961 H   0  0  0  0  0  0  0  0  0  0  0  0
   11.3792    3.2937   24.8171 H   0  0  0  0  0  0  0  0  0  0  0  0
    6.6736   -5.2842   24.4848 H   0  0  0  0  0  0  0  0  0  0  0  0
    5.8813   -4.6101   25.9269 H   0  0  0  0  0  0  0  0  0  0  0  0
    7.5696   -3.7474   27.8746 H   0  0  0  0  0  0  0  0  0  0  0  0
    9.2993   -3.9431   27.5163 H   0  0  0  0  0  0  0  0  0  0  0  0
    5.8518   -7.0517   26.0816 H   0  0  0  0  0  0  0  0  0  0  0  0
    7.5933   -7.1674   25.8077 H   0  0  0  0  0  0  0  0  0  0  0  0
    9.0735   -6.4113   27.5161 H   0  0  0  0  0  0  0  0  0  0  0  0
    8.3853   -5.7567   29.0060 H   0  0  0  0  0  0  0  0  0  0  0  0
    8.7167    1.3910   24.1851 H   0  0  0  0  0  0  0  0  0  0  0  0
    9.8647    2.0727   23.0582 H   0  0  0  0  0  0  0  0  0  0  0  0
   10.7539   -0.2760   22.5528 H   0  0  0  0  0  0  0  0  0  0  0  0
    6.6715    0.4865   16.8044 H   0  0  0  0  0  0  0  0  0  0  0  0
    8.0730   -1.6176   21.0751 H   0  0  0  0  0  0  0  0  0  0  0  0
  1  2  1  0  0  0  0
  1  3  2  0  0  0  0
  2  6  2  0  0  0  0
  3 13  1  0  0  0  0
  4  7  2  0  0  0  0
  4 14  1  0  0  0  0
  5  8  1  0  0  0  0
  5 14  2  0  0  0  0
  6 16  1  0  0  0  0
  7 17  1  0  0  0  0
  8 17  2  0  0  0  0
  9 11  2  0  0  0  0
  9 15  1  0  0  0  0
 10 18  2  0  0  0  0
 10 26  1  0  0  0  0
 11 31  1  0  0  0  0
 12 15  2  0  0  0  0
 12 31  1  0  0  0  0
 13 16  2  0  0  0  0
 13 18  1  0  0  0  0
 14 25  1  0  0  0  0
 15 24  1  0  0  0  0
 16 26  1  0  0  0  0
 17 27  1  0  0  0  0
 18 28  1  0  0  0  0
 19 25  1  1  0  0  0
 19 28  1  0  0  0  0
 19 29  2  0  0  0  0
 20 22  1  0  0  0  0
 20 27  1  0  0  0  0
 21 23  1  0  0  0  0
 21 27  1  0  0  0  0
 22 30  1  0  0  0  0
 23 30  1  0  0  0  0
 24 25  1  0  0  0  0
  1 32  1  0  0  0  0
  2 33  1  0  0  0  0
  3 34  1  0  0  0  0
  4 35  1  0  0  0  0
  5 36  1  0  0  0  0
  6 37  1  0  0  0  0
  7 38  1  0  0  0  0
  8 39  1  0  0  0  0
  9 40  1  0  0  0  0
 10 41  1  0  0  0  0
 11 42  1  0  0  0  0
 12 43  1  0  0  0  0
 20 44  1  0  0  0  0
 20 45  1  0  0  0  0
 21 46  1  0  0  0  0
 21 47  1  0  0  0  0
 22 48  1  0  0  0  0
 22 49  1  0  0  0  0
 23 50  1  0  0  0  0
 23 51  1  0  0  0  0
 24 52  1  0  0  0  0
 24 53  1  0  0  0  0
 25 54  1  0  0  0  0
 26 55  1  0  0  0  0
 28 56  1  0  0  0  0
M  END
> <clash_score>
2.227269670506274

> <docking_score>
-4.619586944580078

> <overlap_score>
0.8371893763542175

$$$$
BENZO_304_2
  -OEChem-08232013543D

 56 60  0     1  0  0  0  0  0999 V2000
    4.2460    1.7520   20.8250 C   0  0  0  0  0  0  0  0  0  0  0  0
    3.8860    2.1050   19.5250 C   0  0  0  0  0  0  0  0  0  0  0  0
    5.3890    1.0010   21.0690 C   0  0  0  0  0  0  0  0  0  0  0  0
    9.5890   -2.4950   23.2210 C   0  0  0  0  0  0  0  0  0  0  0  0
    8.2550   -1.0010   24.5520 C   0  0  0  0  0  0  0  0  0  0  0  0
    4.6610    1.7170   18.4380 C   0  0  0  0  0  0  0  0  0  0  0  0
    9.1890   -3.5540   24.0140 C   0  0  0  0  0  0  0  0  0  0  0  0
    7.8700   -2.0610   25.3550 C   0  0  0  0  0  0  0  0  0  0  0  0
   11.4269    0.0504   25.1773 C   0  0  0  0  0  0  0  0  0  0  0  0
    7.5840   -0.2700   18.5160 C   0  0  0  0  0  0  0  0  0  0  0  0
   12.2544   -0.2804   26.2278 C   0  0  0  0  0  0  0  0  0  0  0  0
   13.1121   -1.1136   24.0784 C   0  0  0  0  0  0  0  0  0  0  0  0
    6.1460    0.6070   19.9750 C   0  0  0  0  0  0  0  0  0  0  0  0
    9.1280   -1.2090   23.4870 C   0  0  0  0  0  0  0  0  0  0  0  0
   11.9236   -0.4323   23.9322 C   0  0  0  0  0  0  0  0  0  0  0  0
    5.7970    0.9500   18.6730 C   0  0  0  0  0  0  0  0  0  0  0  0
    8.3450   -3.3440   25.0980 C   0  0  0  0  0  0  0  0  0  0  0  0
    7.2710   -0.1460   19.8310 C   0  0  0  0  0  0  0  0  0  0  0  0
    9.0430    0.2380   21.4940 C   0  0  0  0  0  0  0  0  0  0  0  0
    8.9527   -5.2007   26.6599 C   0  0  0  0  0  0  0  0  0  0  0  0
    6.6114   -4.5061   26.4392 C   0  0  0  0  0  0  0  0  0  0  0  0
    8.9052   -4.7829   28.1257 C   0  0  0  0  0  0  0  0  0  0  0  0
    6.6389   -4.1225   27.9194 C   0  0  0  0  0  0  0  0  0  0  0  0
   11.2273   -0.2199   22.6076 C   0  0  0  0  0  0  0  0  0  0  0  0
    9.5820   -0.1080   22.7000 C   0  0  2  0  0  0  0  0  0  0  0  0
    6.7100    0.3850   17.8100 N   0  0  0  0  0  0  0  0  0  0  0  0
    7.9774   -4.4013   25.9152 N   0  0  0  0  0  0  0  0  0  0  0  0
    8.0950   -0.7700   20.8440 N   0  0  0  0  0  0  0  0  0  0  0  0
    9.2950    1.3000   20.9480 O   0  0  0  0  0  0  0  0  0  0  0  0
    7.5748   -4.9369   28.6346 O   0  0  0  0  0  0  0  0  0  0  0  0
   13.6239   -1.1694   25.7116 S   0  0  0  0  0  0  0  0  0  0  0  0
    3.6208    2.0704   21.6579 H   0  0  0  0  0  0  0  0  0  0  0  0
    2.9857    2.6926   19.3615 H   0  0  0  0  0  0  0  0  0  0  0  0
    5.6664    0.7407   22.0807 H   0  0  0  0  0  0  0  0  0  0  0  0
   10.2684   -2.6719   22.3867 H   0  0  0  0  0  0  0  0  0  0  0  0
    7.8717   -0.0016   24.7596 H   0  0  0  0  0  0  0  0  0  0  0  0
    4.3794    2.0106   17.4221 H   0  0  0  0  0  0  0  0  0  0  0  0
    9.5443   -4.5616   23.7817 H   0  0  0  0  0  0  0  0  0  0  0  0
    7.1921   -1.8821   26.1908 H   0  0  0  0  0  0  0  0  0  0  0  0
   10.5098    0.6126   25.3007 H   0  0  0  0  0  0  0  0  0  0  0  0
    8.4172   -0.8135   18.0384 H   0  0  0  0  0  0  0  0  0  0  0  0
   12.1206   -0.0420   27.2735 H   0  0  0  0  0  0  0  0  0  0  0  0
   13.7079   -1.5816   23.3071 H   0  0  0  0  0  0  0  0  0  0  0  0
    9.9650   -5.0555   26.2691 H   0  0  0  0  0  0  0  0  0  0  0  0
    8.6941   -6.2620   26.5708 H   0  0  0  0  0  0  0  0  0  0  0  0
    6.2612   -5.5365   26.3329 H   0  0  0  0  0  0  0  0  0  0  0  0
    5.9290   -3.8447   25.9017 H   0  0  0  0  0  0  0  0  0  0  0  0
    9.5616   -5.4256   28.7162 H   0  0  0  0  0  0  0  0  0  0  0  0
    9.2362   -3.7495   28.2622 H   0  0  0  0  0  0  0  0  0  0  0  0
    6.8891   -3.0639   28.0552 H   0  0  0  0  0  0  0  0  0  0  0  0
    5.6513   -4.2871   28.3609 H   0  0  0  0  0  0  0  0  0  0  0  0
   11.5842    0.7150   22.1561 H   0  0  0  0  0  0  0  0  0  0  0  0
   11.5525   -1.0164   21.9239 H   0  0  0  0  0  0  0  0  0  0  0  0
    9.5374    0.8439   23.4178 H   0  0  0  0  0  0  0  0  0  0  0  0
    6.6715    0.4865   16.8044 H   0  0  0  0  0  0  0  0  0  0  0  0
    8.0730   -1.6176   21.0751 H   0  0  0  0  0  0  0  0  0  0  0  0
  1  2  1  0  0  0  0
  1  3  2  0  0  0  0
  2  6  2  0  0  0  0
  3 13  1  0  0  0  0
  4  7  2  0  0  0  0
  4 14  1  0  0  0  0
  5  8  1  0  0  0  0
  5 14  2  0  0  0  0
  6 16  1  0  0  0  0
  7 17  1  0  0  0  0
  8 17  2  0  0  0  0
  9 11  2  0  0  0  0
  9 15  1  0  0  0  0
 10 18  2  0  0  0  0
 10 26  1  0  0  0  0
 11 31  1  0  0  0  0
 12 15  2  0  0  0  0
 12 31  1  0  0  0  0
 13 16  2  0  0  0  0
 13 18  1  0  0  0  0
 14 25  1  0  0  0  0
 15 24  1  0  0  0  0
 16 26  1  0  0  0  0
 17 27  1  0  0  0  0
 18 28  1  0  0  0  0
 19 25  1  6  0  0  0
 19 28  1  0  0  0  0
 19 29  2  0  0  0  0
 20 22  1  0  0  0  0
 20 27  1  0  0  0  0
 21 23  1  0  0  0  0
 21 27  1  0  0  0  0
 22 30  1  0  0  0  0
 23 30  1  0  0  0  0
 24 25  1  0  0  0  0
  1 32  1  0  0  0  0
  2 33  1  0  0  0  0
  3 34  1  0  0  0  0
  4 35  1  0  0  0  0
  5 36  1  0  0  0  0
  6 37  1  0  0  0  0
  7 38  1  0  0  0  0
  8 39  1  0  0  0  0
  9 40  1  0  0  0  0
 10 41  1  0  0  0  0
 11 42  1  0  0  0  0
 12 43  1  0  0  0  0
 20 44  1  0  0  0  0
 20 45  1  0  0  0  0
 21 46  1  0  0  0  0
 21 47  1  0  0  0  0
 22 48  1  0  0  0  0
 22 49  1  0  0  0  0
 23 50  1  0  0  0  0
 23 51  1  0  0  0  0
 24 52  1  0  0  0  0
 24 53  1  0  0  0  0
 25 54  1  0  0  0  0
 26 55  1  0  0  0  0
 28 56  1  0  0  0  0
M  END
> <clash_score>
0

> <docking_score>
-6.759798526763916

> <overlap_score>
0.9167592525482178

$$$$
BENZO_306_1
  -OEChem-08232013543D

 59 63  0     1  0  0  0  0  0999 V2000
    4.2460    1.7520   20.8250 C   0  0  0  0  0  0  0  0  0  0  0  0
    3.8860    2.1050   19.5250 C   0  0  0  0  0  0  0  0  0  0  0  0
   12.6250    0.0375   25.8097 C   0  0  0  0  0  0  0  0  0  0  0  0
    5.3890    1.0010   21.0690 C   0  0  0  0  0  0  0  0  0  0  0  0
   11.6227    0.0680   24.8402 C   0  0  0  0  0  0  0  0  0  0  0  0
    9.5890   -2.4950   23.2210 C   0  0  0  0  0  0  0  0  0  0  0  0
    8.2550   -1.0010   24.5520 C   0  0  0  0  0  0  0  0  0  0  0  0
    4.6610    1.7170   18.4380 C   0  0  0  0  0  0  0  0  0  0  0  0
    9.1890   -3.5540   24.0140 C   0  0  0  0  0  0  0  0  0  0  0  0
    7.8700   -2.0610   25.3550 C   0  0  0  0  0  0  0  0  0  0  0  0
   12.7736    1.1067   26.6932 C   0  0  0  0  0  0  0  0  0  0  0  0
   10.9177    2.2371   25.6372 C   0  0  0  0  0  0  0  0  0  0  0  0
    7.5840   -0.2700   18.5160 C   0  0  0  0  0  0  0  0  0  0  0  0
    6.1460    0.6070   19.9750 C   0  0  0  0  0  0  0  0  0  0  0  0
    9.1280   -1.2090   23.4870 C   0  0  0  0  0  0  0  0  0  0  0  0
   10.7691    1.1678   24.7539 C   0  0  0  0  0  0  0  0  0  0  0  0
    5.7970    0.9500   18.6730 C   0  0  0  0  0  0  0  0  0  0  0  0
    8.3450   -3.3440   25.0980 C   0  0  0  0  0  0  0  0  0  0  0  0
    7.2710   -0.1460   19.8310 C   0  0  0  0  0  0  0  0  0  0  0  0
   11.9200    2.2065   26.6069 C   0  0  0  0  0  0  0  0  0  0  0  0
    9.0430    0.2380   21.4940 C   0  0  0  0  0  0  0  0  0  0  0  0
    8.9527   -5.2007   26.6599 C   0  0  0  0  0  0  0  0  0  0  0  0
    6.6114   -4.5061   26.4392 C   0  0  0  0  0  0  0  0  0  0  0  0
    8.9052   -4.7829   28.1257 C   0  0  0  0  0  0  0  0  0  0  0  0
    6.6389   -4.1225   27.9194 C   0  0  0  0  0  0  0  0  0  0  0  0
    9.6841    1.2008   23.7022 C   0  0  0  0  0  0  0  0  0  0  0  0
    9.5820   -0.1080   22.7000 C   0  0  1  0  0  0  0  0  0  0  0  0
    6.7100    0.3850   17.8100 N   0  0  0  0  0  0  0  0  0  0  0  0
    7.9774   -4.4013   25.9152 N   0  0  0  0  0  0  0  0  0  0  0  0
    8.0950   -0.7700   20.8440 N   0  0  0  0  0  0  0  0  0  0  0  0
    9.2950    1.3000   20.9480 O   0  0  0  0  0  0  0  0  0  0  0  0
    7.5748   -4.9369   28.6346 O   0  0  0  0  0  0  0  0  0  0  0  0
   12.1046    3.5259   27.6963 Cl  0  0  0  0  0  0  0  0  0  0  0  0
    3.6208    2.0704   21.6579 H   0  0  0  0  0  0  0  0  0  0  0  0
    2.9857    2.6926   19.3615 H   0  0  0  0  0  0  0  0  0  0  0  0
   13.2896   -0.8190   25.8765 H   0  0  0  0  0  0  0  0  0  0  0  0
    5.6664    0.7407   22.0807 H   0  0  0  0  0  0  0  0  0  0  0  0
   11.5143   -0.7695   24.1559 H   0  0  0  0  0  0  0  0  0  0  0  0
   10.2684   -2.6719   22.3867 H   0  0  0  0  0  0  0  0  0  0  0  0
    7.8717   -0.0016   24.7596 H   0  0  0  0  0  0  0  0  0  0  0  0
    4.3794    2.0106   17.4221 H   0  0  0  0  0  0  0  0  0  0  0  0
    9.5443   -4.5616   23.7817 H   0  0  0  0  0  0  0  0  0  0  0  0
    7.1921   -1.8821   26.1908 H   0  0  0  0  0  0  0  0  0  0  0  0
   13.5594    1.0694   27.4437 H   0  0  0  0  0  0  0  0  0  0  0  0
   10.2493    3.0921   25.5662 H   0  0  0  0  0  0  0  0  0  0  0  0
    8.4172   -0.8135   18.0384 H   0  0  0  0  0  0  0  0  0  0  0  0
    9.9650   -5.0555   26.2691 H   0  0  0  0  0  0  0  0  0  0  0  0
    8.6941   -6.2620   26.5708 H   0  0  0  0  0  0  0  0  0  0  0  0
    6.2612   -5.5365   26.3329 H   0  0  0  0  0  0  0  0  0  0  0  0
    5.9290   -3.8447   25.9017 H   0  0  0  0  0  0  0  0  0  0  0  0
    9.5616   -5.4256   28.7162 H   0  0  0  0  0  0  0  0  0  0  0  0
    9.2362   -3.7495   28.2622 H   0  0  0  0  0  0  0  0  0  0  0  0
    6.8891   -3.0639   28.0552 H   0  0  0  0  0  0  0  0  0  0  0  0
    5.6513   -4.2871   28.3609 H   0  0  0  0  0  0  0  0  0  0  0  0
    8.7167    1.3910   24.1851 H   0  0  0  0  0  0  0  0  0  0  0  0
    9.8647    2.0727   23.0582 H   0  0  0  0  0  0  0  0  0  0  0  0
   10.7539   -0.2760   22.5528 H   0  0  0  0  0  0  0  0  0  0  0  0
    6.6715    0.4865   16.8044 H   0  0  0  0  0  0  0  0  0  0  0  0
    8.0730   -1.6176   21.0751 H   0  0  0  0  0  0  0  0  0  0  0  0
  1  2  1  0  0  0  0
  1  4  2  0  0  0  0
  2  8  2  0  0  0  0
  3  5  2  0  0  0  0
  3 11  1  0  0  0  0
  4 14  1  0  0  0  0
  5 16  1  0  0  0  0
  6  9  2  0  0  0  0
  6 15  1  0  0  0  0
  7 10  1  0  0  0  0
  7 15  2  0  0  0  0
  8 17  1  0  0  0  0
  9 18  1  0  0  0  0
 10 18  2  0  0  0  0
 11 20  2  0  0  0  0
 12 16  2  0  0  0  0
 12 20  1  0  0  0  0
 13 19  2  0  0  0  0
 13 28  1  0  0  0  0
 14 17  2  0  0  0  0
 14 19  1  0  0  0  0
 15 27  1  0  0  0  0
 16 26  1  0  0  0  0
 17 28  1  0  0  0  0
 18 29  1  0  0  0  0
 19 30  1  0  0  0  0
 20 33  1  0  0  0  0
 21 27  1  1  0  0  0
 21 30  1  0  0  0  0
 21 31  2  0  0  0  0
 22 24  1  0  0  0  0
 22 29  1  0  0  0  0
 23 25  1  0  0  0  0
 23 29  1  0  0  0  0
 24 32  1  0  0  0  0
 25 32  1  0  0  0  0
 26 27  1  0  0  0  0
  1 34  1  0  0  0  0
  2 35  1  0  0  0  0
  3 36  1  0  0  0  0
  4 37  1  0  0  0  0
  5 38  1  0  0  0  0
  6 39  1  0  0  0  0
  7 40  1  0  0  0  0
  8 41  1  0  0  0  0
  9 42  1  0  0  0  0
 10 43  1  0  0  0  0
 11 44  1  0  0  0  0
 12 45  1  0  0  0  0
 13 46  1  0  0  0  0
 22 47  1  0  0  0  0
 22 48  1  0  0  0  0
 23 49  1  0  0  0  0
 23 50  1  0  0  0  0
 24 51  1  0  0  0  0
 24 52  1  0  0  0  0
 25 53  1  0  0  0  0
 25 54  1  0  0  0  0
 26 55  1  0  0  0  0
 26 56  1  0  0  0  0
 27 57  1  0  0  0  0
 28 58  1  0  0  0  0
 30 59  1  0  0  0  0
M  END
> <clash_score>
5.492915798741306

> <docking_score>
-3.9879302978515625

> <overlap_score>
0.8462779521942139

$$$$
BENZO_309_1
  -OEChem-08232013543D

 52 55  0     1  0  0  0  0  0999 V2000
   13.2081   -0.8233   26.3776 C   0  0  0  0  0  0  0  0  0  0  0  0
   13.7678   -1.3337   25.2064 C   0  0  0  0  0  0  0  0  0  0  0  0
   12.0060   -0.1174   26.3261 C   0  0  0  0  0  0  0  0  0  0  0  0
   13.1256   -1.1382   23.9837 C   0  0  0  0  0  0  0  0  0  0  0  0
   11.3638    0.0781   25.1034 C   0  0  0  0  0  0  0  0  0  0  0  0
    9.5890   -2.4950   23.2210 C   0  0  0  0  0  0  0  0  0  0  0  0
    8.2550   -1.0010   24.5520 C   0  0  0  0  0  0  0  0  0  0  0  0
    9.1890   -3.5540   24.0140 C   0  0  0  0  0  0  0  0  0  0  0  0
    7.8700   -2.0610   25.3550 C   0  0  0  0  0  0  0  0  0  0  0  0
   11.9236   -0.4323   23.9322 C   0  0  0  0  0  0  0  0  0  0  0  0
    9.1280   -1.2090   23.4870 C   0  0  0  0  0  0  0  0  0  0  0  0
    8.3450   -3.3440   25.0980 C   0  0  0  0  0  0  0  0  0  0  0  0
    5.7970    0.9500   18.6730 C   0  0  0  0  0  0  0  0  0  0  0  0
    7.2710   -0.1460   19.8310 C   0  0  0  0  0  0  0  0  0  0  0  0
    4.6610    1.7170   18.4380 C   0  0  0  0  0  0  0  0  0  0  0  0
    3.8860    2.1050   19.5250 C   0  0  0  0  0  0  0  0  0  0  0  0
    4.2460    1.7520   20.8250 C   0  0  0  0  0  0  0  0  0  0  0  0
    5.3890    1.0010   21.0690 C   0  0  0  0  0  0  0  0  0  0  0  0
    9.0430    0.2380   21.4940 C   0  0  0  0  0  0  0  0  0  0  0  0
    7.2615   -5.5559   25.3797 C   0  0  0  0  0  0  0  0  0  0  0  0
    8.3042   -4.4052   27.3386 C   0  0  0  0  0  0  0  0  0  0  0  0
   11.2273   -0.2199   22.6076 C   0  0  0  0  0  0  0  0  0  0  0  0
    9.5820   -0.1080   22.7000 C   0  0  1  0  0  0  0  0  0  0  0  0
    6.7100    0.3850   17.8100 N   0  0  0  0  0  0  0  0  0  0  0  0
    7.5840   -0.2700   18.5160 N   0  0  0  0  0  0  0  0  0  0  0  0
    6.1460    0.6070   19.9750 N   0  0  0  0  0  0  0  0  0  0  0  0
    8.0950   -0.7700   20.8440 N   0  0  0  0  0  0  0  0  0  0  0  0
    7.9717   -4.4175   25.9277 N   0  0  0  0  0  0  0  0  0  0  0  0
    9.2950    1.3000   20.9480 O   0  0  0  0  0  0  0  0  0  0  0  0
   13.7076   -0.9767   27.3297 H   0  0  0  0  0  0  0  0  0  0  0  0
   14.7032   -1.8843   25.2464 H   0  0  0  0  0  0  0  0  0  0  0  0
   11.5694    0.2792   27.2379 H   0  0  0  0  0  0  0  0  0  0  0  0
   13.5692   -1.5394   23.0762 H   0  0  0  0  0  0  0  0  0  0  0  0
   10.4277    0.6294   25.0729 H   0  0  0  0  0  0  0  0  0  0  0  0
   10.2684   -2.6719   22.3867 H   0  0  0  0  0  0  0  0  0  0  0  0
    7.8717   -0.0016   24.7596 H   0  0  0  0  0  0  0  0  0  0  0  0
    9.5443   -4.5616   23.7817 H   0  0  0  0  0  0  0  0  0  0  0  0
    7.1921   -1.8821   26.1908 H   0  0  0  0  0  0  0  0  0  0  0  0
    4.3710    2.0145   17.4451 H   0  0  0  0  0  0  0  0  0  0  0  0
    2.9929    2.6891   19.3400 H   0  0  0  0  0  0  0  0  0  0  0  0
    3.6320    2.0596   21.6814 H   0  0  0  0  0  0  0  0  0  0  0  0
    5.6863    0.7288   22.0575 H   0  0  0  0  0  0  0  0  0  0  0  0
    7.0604   -6.2833   26.1801 H   0  0  0  0  0  0  0  0  0  0  0  0
    6.3097   -5.2187   24.9433 H   0  0  0  0  0  0  0  0  0  0  0  0
    7.8751   -6.0299   24.5994 H   0  0  0  0  0  0  0  0  0  0  0  0
    7.9291   -5.3245   27.8122 H   0  0  0  0  0  0  0  0  0  0  0  0
    9.3964   -4.3510   27.4573 H   0  0  0  0  0  0  0  0  0  0  0  0
    7.8394   -3.5306   27.8170 H   0  0  0  0  0  0  0  0  0  0  0  0
   11.5842    0.7150   22.1561 H   0  0  0  0  0  0  0  0  0  0  0  0
   11.5525   -1.0164   21.9239 H   0  0  0  0  0  0  0  0  0  0  0  0
    9.5374    0.8439   23.4178 H   0  0  0  0  0  0  0  0  0  0  0  0
    8.0706   -1.6189   21.0730 H   0  0  0  0  0  0  0  0  0  0  0  0
  1  2  1  0  0  0  0
  1  3  2  0  0  0  0
  2  4  2  0  0  0  0
  3  5  1  0  0  0  0
  4 10  1  0  0  0  0
  5 10  2  0  0  0  0
  6  8  2  0  0  0  0
  6 11  1  0  0  0  0
  7  9  1  0  0  0  0
  7 11  2  0  0  0  0
  8 12  1  0  0  0  0
  9 12  2  0  0  0  0
 10 22  1  0  0  0  0
 11 23  1  0  0  0  0
 12 28  1  0  0  0  0
 13 15  1  0  0  0  0
 13 24  2  0  0  0  0
 13 26  1  0  0  0  0
 14 25  2  0  0  0  0
 14 26  1  0  0  0  0
 14 27  1  0  0  0  0
 15 16  2  0  0  0  0
 16 17  1  0  0  0  0
 17 18  2  0  0  0  0
 18 26  1  0  0  0  0
 19 23  1  0  0  0  0
 19 27  1  0  0  0  0
 19 29  2  0  0  0  0
 20 28  1  0  0  0  0
 21 28  1  0  0  0  0
 22 23  1  1  0  0  0
 24 25  1  0  0  0  0
  1 30  1  0  0  0  0
  2 31  1  0  0  0  0
  3 32  1  0  0  0  0
  4 33  1  0  0  0  0
  5 34  1  0  0  0  0
  6 35  1  0  0  0  0
  7 36  1  0  0  0  0
  8 37  1  0  0  0  0
  9 38  1  0  0  0  0
 15 39  1  0  0  0  0
 16 40  1  0  0  0  0
 17 41  1  0  0  0  0
 18 42  1  0  0  0  0
 20 43  1  0  0  0  0
 20 44  1  0  0  0  0
 20 45  1  0  0  0  0
 21 46  1  0  0  0  0
 21 47  1  0  0  0  0
 21 48  1  0  0  0  0
 22 49  1  0  0  0  0
 22 50  1  0  0  0  0
 23 51  1  0  0  0  0
 27 52  1  0  0  0  0
M  END
> <clash_score>
0

> <docking_score>
-5.850141525268555

> <overlap_score>
0.8757688999176025

$$$$
BENZO_306_2
  -OEChem-08232013543D

 59 63  0     1  0  0  0  0  0999 V2000
    4.2460    1.7520   20.8250 C   0  0  0  0  0  0  0  0  0  0  0  0
    3.8860    2.1050   19.5250 C   0  0  0  0  0  0  0  0  0  0  0  0
   13.7696   -1.3331   25.2040 C   0  0  0  0  0  0  0  0  0  0  0  0
    5.3890    1.0010   21.0690 C   0  0  0  0  0  0  0  0  0  0  0  0
   13.1260   -1.1377   23.9821 C   0  0  0  0  0  0  0  0  0  0  0  0
    9.5890   -2.4950   23.2210 C   0  0  0  0  0  0  0  0  0  0  0  0
    8.2550   -1.0010   24.5520 C   0  0  0  0  0  0  0  0  0  0  0  0
    4.6610    1.7170   18.4380 C   0  0  0  0  0  0  0  0  0  0  0  0
    9.1890   -3.5540   24.0140 C   0  0  0  0  0  0  0  0  0  0  0  0
    7.8700   -2.0610   25.3550 C   0  0  0  0  0  0  0  0  0  0  0  0
   13.2109   -0.8232   26.3761 C   0  0  0  0  0  0  0  0  0  0  0  0
   11.3649    0.0776   25.1042 C   0  0  0  0  0  0  0  0  0  0  0  0
    7.5840   -0.2700   18.5160 C   0  0  0  0  0  0  0  0  0  0  0  0
    6.1460    0.6070   19.9750 C   0  0  0  0  0  0  0  0  0  0  0  0
    9.1280   -1.2090   23.4870 C   0  0  0  0  0  0  0  0  0  0  0  0
   11.9236   -0.4323   23.9322 C   0  0  0  0  0  0  0  0  0  0  0  0
    5.7970    0.9500   18.6730 C   0  0  0  0  0  0  0  0  0  0  0  0
    8.3450   -3.3440   25.0980 C   0  0  0  0  0  0  0  0  0  0  0  0
    7.2710   -0.1460   19.8310 C   0  0  0  0  0  0  0  0  0  0  0  0
   12.0086   -0.1179   26.3261 C   0  0  0  0  0  0  0  0  0  0  0  0
    9.0430    0.2380   21.4940 C   0  0  0  0  0  0  0  0  0  0  0  0
    8.9527   -5.2007   26.6599 C   0  0  0  0  0  0  0  0  0  0  0  0
    6.6114   -4.5061   26.4392 C   0  0  0  0  0  0  0  0  0  0  0  0
    8.9052   -4.7829   28.1257 C   0  0  0  0  0  0  0  0  0  0  0  0
    6.6389   -4.1225   27.9194 C   0  0  0  0  0  0  0  0  0  0  0  0
   11.2273   -0.2199   22.6076 C   0  0  0  0  0  0  0  0  0  0  0  0
    9.5820   -0.1080   22.7000 C   0  0  2  0  0  0  0  0  0  0  0  0
    6.7100    0.3850   17.8100 N   0  0  0  0  0  0  0  0  0  0  0  0
    7.9774   -4.4013   25.9152 N   0  0  0  0  0  0  0  0  0  0  0  0
    8.0950   -0.7700   20.8440 N   0  0  0  0  0  0  0  0  0  0  0  0
    9.2950    1.3000   20.9480 O   0  0  0  0  0  0  0  0  0  0  0  0
    7.5748   -4.9369   28.6346 O   0  0  0  0  0  0  0  0  0  0  0  0
   11.3203    0.5119   27.7723 Cl  0  0  0  0  0  0  0  0  0  0  0  0
    3.6208    2.0704   21.6579 H   0  0  0  0  0  0  0  0  0  0  0  0
    2.9857    2.6926   19.3615 H   0  0  0  0  0  0  0  0  0  0  0  0
   14.7060   -1.8822   25.2425 H   0  0  0  0  0  0  0  0  0  0  0  0
    5.6664    0.7407   22.0807 H   0  0  0  0  0  0  0  0  0  0  0  0
   13.5686   -1.5384   23.0739 H   0  0  0  0  0  0  0  0  0  0  0  0
   10.2684   -2.6719   22.3867 H   0  0  0  0  0  0  0  0  0  0  0  0
    7.8717   -0.0016   24.7596 H   0  0  0  0  0  0  0  0  0  0  0  0
    4.3794    2.0106   17.4221 H   0  0  0  0  0  0  0  0  0  0  0  0
    9.5443   -4.5616   23.7817 H   0  0  0  0  0  0  0  0  0  0  0  0
    7.1921   -1.8821   26.1908 H   0  0  0  0  0  0  0  0  0  0  0  0
   13.7238   -0.9829   27.3213 H   0  0  0  0  0  0  0  0  0  0  0  0
   10.4270    0.6263   25.0600 H   0  0  0  0  0  0  0  0  0  0  0  0
    8.4172   -0.8135   18.0384 H   0  0  0  0  0  0  0  0  0  0  0  0
    9.9650   -5.0555   26.2691 H   0  0  0  0  0  0  0  0  0  0  0  0
    8.6941   -6.2620   26.5708 H   0  0  0  0  0  0  0  0  0  0  0  0
    6.2612   -5.5365   26.3329 H   0  0  0  0  0  0  0  0  0  0  0  0
    5.9290   -3.8447   25.9017 H   0  0  0  0  0  0  0  0  0  0  0  0
    9.5616   -5.4256   28.7162 H   0  0  0  0  0  0  0  0  0  0  0  0
    9.2362   -3.7495   28.2622 H   0  0  0  0  0  0  0  0  0  0  0  0
    6.8891   -3.0639   28.0552 H   0  0  0  0  0  0  0  0  0  0  0  0
    5.6513   -4.2871   28.3609 H   0  0  0  0  0  0  0  0  0  0  0  0
   11.5842    0.7150   22.1561 H   0  0  0  0  0  0  0  0  0  0  0  0
   11.5525   -1.0164   21.9239 H   0  0  0  0  0  0  0  0  0  0  0  0
    9.5374    0.8439   23.4178 H   0  0  0  0  0  0  0  0  0  0  0  0
    6.6715    0.4865   16.8044 H   0  0  0  0  0  0  0  0  0  0  0  0
    8.0730   -1.6176   21.0751 H   0  0  0  0  0  0  0  0  0  0  0  0
  1  2  1  0  0  0  0
  1  4  2  0  0  0  0
  2  8  2  0  0  0  0
  3  5  2  0  0  0  0
  3 11  1  0  0  0  0
  4 14  1  0  0  0  0
  5 16  1  0  0  0  0
  6  9  2  0  0  0  0
  6 15  1  0  0  0  0
  7 10  1  0  0  0  0
  7 15  2  0  0  0  0
  8 17  1  0  0  0  0
  9 18  1  0  0  0  0
 10 18  2  0  0  0  0
 11 20  2  0  0  0  0
 12 16  2  0  0  0  0
 12 20  1  0  0  0  0
 13 19  2  0  0  0  0
 13 28  1  0  0  0  0
 14 17  2  0  0  0  0
 14 19  1  0  0  0  0
 15 27  1  0  0  0  0
 16 26  1  0  0  0  0
 17 28  1  0  0  0  0
 18 29  1  0  0  0  0
 19 30  1  0  0  0  0
 20 33  1  0  0  0  0
 21 27  1  6  0  0  0
 21 30  1  0  0  0  0
 21 31  2  0  0  0  0
 22 24  1  0  0  0  0
 22 29  1  0  0  0  0
 23 25  1  0  0  0  0
 23 29  1  0  0  0  0
 24 32  1  0  0  0  0
 25 32  1  0  0  0  0
 26 27  1  0  0  0  0
  1 34  1  0  0  0  0
  2 35  1  0  0  0  0
  3 36  1  0  0  0  0
  4 37  1  0  0  0  0
  5 38  1  0  0  0  0
  6 39  1  0  0  0  0
  7 40  1  0  0  0  0
  8 41  1  0  0  0  0
  9 42  1  0  0  0  0
 10 43  1  0  0  0  0
 11 44  1  0  0  0  0
 12 45  1  0  0  0  0
 13 46  1  0  0  0  0
 22 47  1  0  0  0  0
 22 48  1  0  0  0  0
 23 49  1  0  0  0  0
 23 50  1  0  0  0  0
 24 51  1  0  0  0  0
 24 52  1  0  0  0  0
 25 53  1  0  0  0  0
 25 54  1  0  0  0  0
 26 55  1  0  0  0  0
 26 56  1  0  0  0  0
 27 57  1  0  0  0  0
 28 58  1  0  0  0  0
 30 59  1  0  0  0  0
M  END
> <clash_score>
0.7019248344385568

> <docking_score>
-5.4921464920043945

> <overlap_score>
0.9223099946975708

$$$$
BENZO_309_2
  -OEChem-08232013543D

 52 55  0     1  0  0  0  0  0999 V2000
   12.7724    1.1059   26.6945 C   0  0  0  0  0  0  0  0  0  0  0  0
   11.5849    1.7953   26.9397 C   0  0  0  0  0  0  0  0  0  0  0  0
   12.9583    0.4475   25.4788 C   0  0  0  0  0  0  0  0  0  0  0  0
   10.5833    1.8262   25.9695 C   0  0  0  0  0  0  0  0  0  0  0  0
   11.9567    0.4785   24.5086 C   0  0  0  0  0  0  0  0  0  0  0  0
    9.5890   -2.4950   23.2210 C   0  0  0  0  0  0  0  0  0  0  0  0
    8.2550   -1.0010   24.5520 C   0  0  0  0  0  0  0  0  0  0  0  0
    9.1890   -3.5540   24.0140 C   0  0  0  0  0  0  0  0  0  0  0  0
    7.8700   -2.0610   25.3550 C   0  0  0  0  0  0  0  0  0  0  0  0
   10.7691    1.1678   24.7539 C   0  0  0  0  0  0  0  0  0  0  0  0
    9.1280   -1.2090   23.4870 C   0  0  0  0  0  0  0  0  0  0  0  0
    8.3450   -3.3440   25.0980 C   0  0  0  0  0  0  0  0  0  0  0  0
    5.7970    0.9500   18.6730 C   0  0  0  0  0  0  0  0  0  0  0  0
    7.2710   -0.1460   19.8310 C   0  0  0  0  0  0  0  0  0  0  0  0
    4.6610    1.7170   18.4380 C   0  0  0  0  0  0  0  0  0  0  0  0
    3.8860    2.1050   19.5250 C   0  0  0  0  0  0  0  0  0  0  0  0
    4.2460    1.7520   20.8250 C   0  0  0  0  0  0  0  0  0  0  0  0
    5.3890    1.0010   21.0690 C   0  0  0  0  0  0  0  0  0  0  0  0
    9.0430    0.2380   21.4940 C   0  0  0  0  0  0  0  0  0  0  0  0
    7.2615   -5.5559   25.3797 C   0  0  0  0  0  0  0  0  0  0  0  0
    8.3042   -4.4052   27.3386 C   0  0  0  0  0  0  0  0  0  0  0  0
    9.6841    1.2008   23.7022 C   0  0  0  0  0  0  0  0  0  0  0  0
    9.5820   -0.1080   22.7000 C   0  0  2  0  0  0  0  0  0  0  0  0
    6.7100    0.3850   17.8100 N   0  0  0  0  0  0  0  0  0  0  0  0
    7.5840   -0.2700   18.5160 N   0  0  0  0  0  0  0  0  0  0  0  0
    6.1460    0.6070   19.9750 N   0  0  0  0  0  0  0  0  0  0  0  0
    8.0950   -0.7700   20.8440 N   0  0  0  0  0  0  0  0  0  0  0  0
    7.9717   -4.4175   25.9277 N   0  0  0  0  0  0  0  0  0  0  0  0
    9.2950    1.3000   20.9480 O   0  0  0  0  0  0  0  0  0  0  0  0
   13.5528    1.0830   27.4495 H   0  0  0  0  0  0  0  0  0  0  0  0
   11.4404    2.3089   27.8858 H   0  0  0  0  0  0  0  0  0  0  0  0
   13.8832   -0.0884   25.2871 H   0  0  0  0  0  0  0  0  0  0  0  0
    9.6612    2.3657   26.1694 H   0  0  0  0  0  0  0  0  0  0  0  0
   12.1103   -0.0375   23.5645 H   0  0  0  0  0  0  0  0  0  0  0  0
   10.2684   -2.6719   22.3867 H   0  0  0  0  0  0  0  0  0  0  0  0
    7.8717   -0.0016   24.7596 H   0  0  0  0  0  0  0  0  0  0  0  0
    9.5443   -4.5616   23.7817 H   0  0  0  0  0  0  0  0  0  0  0  0
    7.1921   -1.8821   26.1908 H   0  0  0  0  0  0  0  0  0  0  0  0
    4.3710    2.0145   17.4451 H   0  0  0  0  0  0  0  0  0  0  0  0
    2.9929    2.6891   19.3400 H   0  0  0  0  0  0  0  0  0  0  0  0
    3.6320    2.0596   21.6814 H   0  0  0  0  0  0  0  0  0  0  0  0
    5.6863    0.7288   22.0575 H   0  0  0  0  0  0  0  0  0  0  0  0
    7.0604   -6.2833   26.1801 H   0  0  0  0  0  0  0  0  0  0  0  0
    6.3097   -5.2187   24.9433 H   0  0  0  0  0  0  0  0  0  0  0  0
    7.8751   -6.0299   24.5994 H   0  0  0  0  0  0  0  0  0  0  0  0
    7.9291   -5.3245   27.8122 H   0  0  0  0  0  0  0  0  0  0  0  0
    9.3964   -4.3510   27.4573 H   0  0  0  0  0  0  0  0  0  0  0  0
    7.8394   -3.5306   27.8170 H   0  0  0  0  0  0  0  0  0  0  0  0
    8.7167    1.3910   24.1851 H   0  0  0  0  0  0  0  0  0  0  0  0
    9.8647    2.0727   23.0582 H   0  0  0  0  0  0  0  0  0  0  0  0
   10.7539   -0.2760   22.5528 H   0  0  0  0  0  0  0  0  0  0  0  0
    8.0706   -1.6189   21.0730 H   0  0  0  0  0  0  0  0  0  0  0  0
  1  2  1  0  0  0  0
  1  3  2  0  0  0  0
  2  4  2  0  0  0  0
  3  5  1  0  0  0  0
  4 10  1  0  0  0  0
  5 10  2  0  0  0  0
  6  8  2  0  0  0  0
  6 11  1  0  0  0  0
  7  9  1  0  0  0  0
  7 11  2  0  0  0  0
  8 12  1  0  0  0  0
  9 12  2  0  0  0  0
 10 22  1  0  0  0  0
 11 23  1  0  0  0  0
 12 28  1  0  0  0  0
 13 15  1  0  0  0  0
 13 24  2  0  0  0  0
 13 26  1  0  0  0  0
 14 25  2  0  0  0  0
 14 26  1  0  0  0  0
 14 27  1  0  0  0  0
 15 16  2  0  0  0  0
 16 17  1  0  0  0  0
 17 18  2  0  0  0  0
 18 26  1  0  0  0  0
 19 23  1  0  0  0  0
 19 27  1  0  0  0  0
 19 29  2  0  0  0  0
 20 28  1  0  0  0  0
 21 28  1  0  0  0  0
 22 23  1  6  0  0  0
 24 25  1  0  0  0  0
  1 30  1  0  0  0  0
  2 31  1  0  0  0  0
  3 32  1  0  0  0  0
  4 33  1  0  0  0  0
  5 34  1  0  0  0  0
  6 35  1  0  0  0  0
  7 36  1  0  0  0  0
  8 37  1  0  0  0  0
  9 38  1  0  0  0  0
 15 39  1  0  0  0  0
 16 40  1  0  0  0  0
 17 41  1  0  0  0  0
 18 42  1  0  0  0  0
 20 43  1  0  0  0  0
 20 44  1  0  0  0  0
 20 45  1  0  0  0  0
 21 46  1  0  0  0  0
 21 47  1  0  0  0  0
 21 48  1  0  0  0  0
 22 49  1  0  0  0  0
 22 50  1  0  0  0  0
 23 51  1  0  0  0  0
 27 52  1  0  0  0  0
M  END
> <clash_score>
4.383196905216037

> <docking_score>
-4.003714561462402

> <overlap_score>
0.8049807548522949

$$$$
BENZO_308_1
  -OEChem-08232013543D

 49 52  0     1  0  0  0  0  0999 V2000
    9.5890   -2.4950   23.2210 C   0  0  0  0  0  0  0  0  0  0  0  0
    8.2550   -1.0010   24.5520 C   0  0  0  0  0  0  0  0  0  0  0  0
    9.1890   -3.5540   24.0140 C   0  0  0  0  0  0  0  0  0  0  0  0
    7.8700   -2.0610   25.3550 C   0  0  0  0  0  0  0  0  0  0  0  0
   13.2019   -0.5524   24.2528 C   0  0  0  0  0  0  0  0  0  0  0  0
   13.6437   -0.1439   25.4920 C   0  0  0  0  0  0  0  0  0  0  0  0
   11.4901    0.8830   24.8943 C   0  0  0  0  0  0  0  0  0  0  0  0
    9.1280   -1.2090   23.4870 C   0  0  0  0  0  0  0  0  0  0  0  0
   11.9545    0.0425   23.9064 C   0  0  0  0  0  0  0  0  0  0  0  0
    8.3450   -3.3440   25.0980 C   0  0  0  0  0  0  0  0  0  0  0  0
    5.7970    0.9500   18.6730 C   0  0  0  0  0  0  0  0  0  0  0  0
    7.2710   -0.1460   19.8310 C   0  0  0  0  0  0  0  0  0  0  0  0
    4.6610    1.7170   18.4380 C   0  0  0  0  0  0  0  0  0  0  0  0
    3.8860    2.1050   19.5250 C   0  0  0  0  0  0  0  0  0  0  0  0
    4.2460    1.7520   20.8250 C   0  0  0  0  0  0  0  0  0  0  0  0
    5.3890    1.0010   21.0690 C   0  0  0  0  0  0  0  0  0  0  0  0
    9.0430    0.2380   21.4940 C   0  0  0  0  0  0  0  0  0  0  0  0
    8.7684   -4.7582   27.0897 C   0  0  0  0  0  0  0  0  0  0  0  0
    6.7786   -5.1884   25.6390 C   0  0  0  0  0  0  0  0  0  0  0  0
   11.2273   -0.2199   22.6076 C   0  0  0  0  0  0  0  0  0  0  0  0
    9.5820   -0.1080   22.7000 C   0  0  1  0  0  0  0  0  0  0  0  0
    6.7100    0.3850   17.8100 N   0  0  0  0  0  0  0  0  0  0  0  0
    7.5840   -0.2700   18.5160 N   0  0  0  0  0  0  0  0  0  0  0  0
    6.1460    0.6070   19.9750 N   0  0  0  0  0  0  0  0  0  0  0  0
    8.0950   -0.7700   20.8440 N   0  0  0  0  0  0  0  0  0  0  0  0
    7.9717   -4.4175   25.9277 N   0  0  0  0  0  0  0  0  0  0  0  0
    9.2950    1.3000   20.9480 O   0  0  0  0  0  0  0  0  0  0  0  0
   12.5564    0.9525   26.2323 S   0  0  0  0  0  0  0  0  0  0  0  0
   10.2684   -2.6719   22.3867 H   0  0  0  0  0  0  0  0  0  0  0  0
    7.8717   -0.0016   24.7596 H   0  0  0  0  0  0  0  0  0  0  0  0
    9.5443   -4.5616   23.7817 H   0  0  0  0  0  0  0  0  0  0  0  0
    7.1921   -1.8821   26.1908 H   0  0  0  0  0  0  0  0  0  0  0  0
   13.7507   -1.2457   23.6279 H   0  0  0  0  0  0  0  0  0  0  0  0
   14.5524   -0.4373   25.9983 H   0  0  0  0  0  0  0  0  0  0  0  0
   10.5759    1.4603   24.8987 H   0  0  0  0  0  0  0  0  0  0  0  0
    4.3710    2.0145   17.4451 H   0  0  0  0  0  0  0  0  0  0  0  0
    2.9929    2.6891   19.3400 H   0  0  0  0  0  0  0  0  0  0  0  0
    3.6320    2.0596   21.6814 H   0  0  0  0  0  0  0  0  0  0  0  0
    5.6863    0.7288   22.0575 H   0  0  0  0  0  0  0  0  0  0  0  0
    8.3170   -5.6191   27.6047 H   0  0  0  0  0  0  0  0  0  0  0  0
    9.7894   -5.0155   26.7715 H   0  0  0  0  0  0  0  0  0  0  0  0
    8.8036   -3.8984   27.7749 H   0  0  0  0  0  0  0  0  0  0  0  0
    6.6592   -5.9775   26.3961 H   0  0  0  0  0  0  0  0  0  0  0  0
    5.9007   -4.5260   25.6584 H   0  0  0  0  0  0  0  0  0  0  0  0
    6.8704   -5.6467   24.6433 H   0  0  0  0  0  0  0  0  0  0  0  0
   11.5534    0.5103   21.8555 H   0  0  0  0  0  0  0  0  0  0  0  0
   11.5573   -1.1968   22.2276 H   0  0  0  0  0  0  0  0  0  0  0  0
    9.5374    0.8439   23.4178 H   0  0  0  0  0  0  0  0  0  0  0  0
    8.0706   -1.6189   21.0730 H   0  0  0  0  0  0  0  0  0  0  0  0
  1  3  2  0  0  0  0
  1  8  1  0  0  0  0
  2  4  1  0  0  0  0
  2  8  2  0  0  0  0
  3 10  1  0  0  0  0
  4 10  2  0  0  0  0
  5  6  2  0  0  0  0
  5  9  1  0  0  0  0
  6 28  1  0  0  0  0
  7  9  2  0  0  0  0
  7 28  1  0  0  0  0
  8 21  1  0  0  0  0
  9 20  1  0  0  0  0
 10 26  1  0  0  0  0
 11 13  1  0  0  0  0
 11 22  2  0  0  0  0
 11 24  1  0  0  0  0
 12 23  2  0  0  0  0
 12 24  1  0  0  0  0
 12 25  1  0  0  0  0
 13 14  2  0  0  0  0
 14 15  1  0  0  0  0
 15 16  2  0  0  0  0
 16 24  1  0  0  0  0
 17 21  1  0  0  0  0
 17 25  1  0  0  0  0
 17 27  2  0  0  0  0
 18 26  1  0  0  0  0
 19 26  1  0  0  0  0
 20 21  1  1  0  0  0
 22 23  1  0  0  0  0
  1 29  1  0  0  0  0
  2 30  1  0  0  0  0
  3 31  1  0  0  0  0
  4 32  1  0  0  0  0
  5 33  1  0  0  0  0
  6 34  1  0  0  0  0
  7 35  1  0  0  0  0
 13 36  1  0  0  0  0
 14 37  1  0  0  0  0
 15 38  1  0  0  0  0
 16 39  1  0  0  0  0
 18 40  1  0  0  0  0
 18 41  1  0  0  0  0
 18 42  1  0  0  0  0
 19 43  1  0  0  0  0
 19 44  1  0  0  0  0
 19 45  1  0  0  0  0
 20 46  1  0  0  0  0
 20 47  1  0  0  0  0
 21 48  1  0  0  0  0
 25 49  1  0  0  0  0
M  END
> <clash_score>
0.7028806920012587

> <docking_score>
-6.50240421295166

> <overlap_score>
0.866504430770874

$$$$
BENZO_308_2
  -OEChem-08232013543D

 49 52  0     1  0  0  0  0  0999 V2000
    9.5890   -2.4950   23.2210 C   0  0  0  0  0  0  0  0  0  0  0  0
    8.2550   -1.0010   24.5520 C   0  0  0  0  0  0  0  0  0  0  0  0
    9.1890   -3.5540   24.0140 C   0  0  0  0  0  0  0  0  0  0  0  0
    7.8700   -2.0610   25.3550 C   0  0  0  0  0  0  0  0  0  0  0  0
   12.1466    0.9424   24.4676 C   0  0  0  0  0  0  0  0  0  0  0  0
   12.9217    0.9621   25.6062 C   0  0  0  0  0  0  0  0  0  0  0  0
   10.5439    1.3509   26.1006 C   0  0  0  0  0  0  0  0  0  0  0  0
    9.1280   -1.2090   23.4870 C   0  0  0  0  0  0  0  0  0  0  0  0
   10.7691    1.1678   24.7539 C   0  0  0  0  0  0  0  0  0  0  0  0
    8.3450   -3.3440   25.0980 C   0  0  0  0  0  0  0  0  0  0  0  0
    5.7970    0.9500   18.6730 C   0  0  0  0  0  0  0  0  0  0  0  0
    7.2710   -0.1460   19.8310 C   0  0  0  0  0  0  0  0  0  0  0  0
    4.6610    1.7170   18.4380 C   0  0  0  0  0  0  0  0  0  0  0  0
    3.8860    2.1050   19.5250 C   0  0  0  0  0  0  0  0  0  0  0  0
    4.2460    1.7520   20.8250 C   0  0  0  0  0  0  0  0  0  0  0  0
    5.3890    1.0010   21.0690 C   0  0  0  0  0  0  0  0  0  0  0  0
    9.0430    0.2380   21.4940 C   0  0  0  0  0  0  0  0  0  0  0  0
    8.7684   -4.7582   27.0897 C   0  0  0  0  0  0  0  0  0  0  0  0
    6.7786   -5.1884   25.6390 C   0  0  0  0  0  0  0  0  0  0  0  0
    9.6841    1.2008   23.7022 C   0  0  0  0  0  0  0  0  0  0  0  0
    9.5820   -0.1080   22.7000 C   0  0  2  0  0  0  0  0  0  0  0  0
    6.7100    0.3850   17.8100 N   0  0  0  0  0  0  0  0  0  0  0  0
    7.5840   -0.2700   18.5160 N   0  0  0  0  0  0  0  0  0  0  0  0
    6.1460    0.6070   19.9750 N   0  0  0  0  0  0  0  0  0  0  0  0
    8.0950   -0.7700   20.8440 N   0  0  0  0  0  0  0  0  0  0  0  0
    7.9717   -4.4175   25.9277 N   0  0  0  0  0  0  0  0  0  0  0  0
    9.2950    1.3000   20.9480 O   0  0  0  0  0  0  0  0  0  0  0  0
   11.9894    1.2512   27.0132 S   0  0  0  0  0  0  0  0  0  0  0  0
   10.2684   -2.6719   22.3867 H   0  0  0  0  0  0  0  0  0  0  0  0
    7.8717   -0.0016   24.7596 H   0  0  0  0  0  0  0  0  0  0  0  0
    9.5443   -4.5616   23.7817 H   0  0  0  0  0  0  0  0  0  0  0  0
    7.1921   -1.8821   26.1908 H   0  0  0  0  0  0  0  0  0  0  0  0
   12.5526    0.7736   23.4782 H   0  0  0  0  0  0  0  0  0  0  0  0
   13.9906    0.8198   25.6793 H   0  0  0  0  0  0  0  0  0  0  0  0
    9.6013    1.5375   26.5964 H   0  0  0  0  0  0  0  0  0  0  0  0
    4.3710    2.0145   17.4451 H   0  0  0  0  0  0  0  0  0  0  0  0
    2.9929    2.6891   19.3400 H   0  0  0  0  0  0  0  0  0  0  0  0
    3.6320    2.0596   21.6814 H   0  0  0  0  0  0  0  0  0  0  0  0
    5.6863    0.7288   22.0575 H   0  0  0  0  0  0  0  0  0  0  0  0
    8.3170   -5.6191   27.6047 H   0  0  0  0  0  0  0  0  0  0  0  0
    9.7894   -5.0155   26.7715 H   0  0  0  0  0  0  0  0  0  0  0  0
    8.8036   -3.8984   27.7749 H   0  0  0  0  0  0  0  0  0  0  0  0
    6.6592   -5.9775   26.3961 H   0  0  0  0  0  0  0  0  0  0  0  0
    5.9007   -4.5260   25.6584 H   0  0  0  0  0  0  0  0  0  0  0  0
    6.8704   -5.6467   24.6433 H   0  0  0  0  0  0  0  0  0  0  0  0
    8.7167    1.3910   24.1851 H   0  0  0  0  0  0  0  0  0  0  0  0
    9.8647    2.0727   23.0582 H   0  0  0  0  0  0  0  0  0  0  0  0
   10.7539   -0.2760   22.5528 H   0  0  0  0  0  0  0  0  0  0  0  0
    8.0706   -1.6189   21.0730 H   0  0  0  0  0  0  0  0  0  0  0  0
  1  3  2  0  0  0  0
  1  8  1  0  0  0  0
  2  4  1  0  0  0  0
  2  8  2  0  0  0  0
  3 10  1  0  0  0  0
  4 10  2  0  0  0  0
  5  6  2  0  0  0  0
  5  9  1  0  0  0  0
  6 28  1  0  0  0  0
  7  9  2  0  0  0  0
  7 28  1  0  0  0  0
  8 21  1  0  0  0  0
  9 20  1  0  0  0  0
 10 26  1  0  0  0  0
 11 13  1  0  0  0  0
 11 22  2  0  0  0  0
 11 24  1  0  0  0  0
 12 23  2  0  0  0  0
 12 24  1  0  0  0  0
 12 25  1  0  0  0  0
 13 14  2  0  0  0  0
 14 15  1  0  0  0  0
 15 16  2  0  0  0  0
 16 24  1  0  0  0  0
 17 21  1  0  0  0  0
 17 25  1  0  0  0  0
 17 27  2  0  0  0  0
 18 26  1  0  0  0  0
 19 26  1  0  0  0  0
 20 21  1  6  0  0  0
 22 23  1  0  0  0  0
  1 29  1  0  0  0  0
  2 30  1  0  0  0  0
  3 31  1  0  0  0  0
  4 32  1  0  0  0  0
  5 33  1  0  0  0  0
  6 34  1  0  0  0  0
  7 35  1  0  0  0  0
 13 36  1  0  0  0  0
 14 37  1  0  0  0  0
 15 38  1  0  0  0  0
 16 39  1  0  0  0  0
 18 40  1  0  0  0  0
 18 41  1  0  0  0  0
 18 42  1  0  0  0  0
 19 43  1  0  0  0  0
 19 44  1  0  0  0  0
 19 45  1  0  0  0  0
 20 46  1  0  0  0  0
 20 47  1  0  0  0  0
 21 48  1  0  0  0  0
 25 49  1  0  0  0  0
M  END
> <clash_score>
1.4548714496161836

> <docking_score>
-4.435394287109375

> <overlap_score>
0.7956737279891968

$$$$
BENZO_307_1
  -OEChem-08232013543D

 59 63  0     1  0  0  0  0  0999 V2000
    4.2460    1.7520   20.8250 C   0  0  0  0  0  0  0  0  0  0  0  0
    3.8860    2.1050   19.5250 C   0  0  0  0  0  0  0  0  0  0  0  0
    5.3890    1.0010   21.0690 C   0  0  0  0  0  0  0  0  0  0  0  0
    9.5890   -2.4950   23.2210 C   0  0  0  0  0  0  0  0  0  0  0  0
    8.2550   -1.0010   24.5520 C   0  0  0  0  0  0  0  0  0  0  0  0
    4.6610    1.7170   18.4380 C   0  0  0  0  0  0  0  0  0  0  0  0
    9.1890   -3.5540   24.0140 C   0  0  0  0  0  0  0  0  0  0  0  0
    7.8700   -2.0610   25.3550 C   0  0  0  0  0  0  0  0  0  0  0  0
   13.3049   -0.5618   24.1710 C   0  0  0  0  0  0  0  0  0  0  0  0
   11.3488   -0.5397   25.1750 C   0  0  0  0  0  0  0  0  0  0  0  0
    7.5840   -0.2700   18.5160 C   0  0  0  0  0  0  0  0  0  0  0  0
    6.1460    0.6070   19.9750 C   0  0  0  0  0  0  0  0  0  0  0  0
    9.1280   -1.2090   23.4870 C   0  0  0  0  0  0  0  0  0  0  0  0
   11.9236   -0.4323   23.9322 C   0  0  0  0  0  0  0  0  0  0  0  0
    5.7970    0.9500   18.6730 C   0  0  0  0  0  0  0  0  0  0  0  0
    8.3450   -3.3440   25.0980 C   0  0  0  0  0  0  0  0  0  0  0  0
    7.2710   -0.1460   19.8310 C   0  0  0  0  0  0  0  0  0  0  0  0
    9.0430    0.2380   21.4940 C   0  0  0  0  0  0  0  0  0  0  0  0
    8.8183   -4.7105   27.0856 C   0  0  0  0  0  0  0  0  0  0  0  0
    7.2577   -5.5565   25.3549 C   0  0  0  0  0  0  0  0  0  0  0  0
    8.0198   -5.5149   28.1050 C   0  0  0  0  0  0  0  0  0  0  0  0
    6.5427   -6.3163   26.4668 C   0  0  0  0  0  0  0  0  0  0  0  0
   12.2730   -0.8833   27.4785 C   0  0  0  0  0  0  0  0  0  0  0  0
   11.2273   -0.2199   22.6076 C   0  0  0  0  0  0  0  0  0  0  0  0
    9.5820   -0.1080   22.7000 C   0  0  1  0  0  0  0  0  0  0  0  0
   13.5904   -0.7378   25.4638 N   0  0  0  0  0  0  0  0  0  0  0  0
    6.7100    0.3850   17.8100 N   0  0  0  0  0  0  0  0  0  0  0  0
   12.3805   -0.7196   26.0486 N   0  0  0  0  0  0  0  0  0  0  0  0
    7.9748   -4.4087   25.9209 N   0  0  0  0  0  0  0  0  0  0  0  0
    8.0950   -0.7700   20.8440 N   0  0  0  0  0  0  0  0  0  0  0  0
    9.2950    1.3000   20.9480 O   0  0  0  0  0  0  0  0  0  0  0  0
    7.4625   -6.6794   27.4958 O   0  0  0  0  0  0  0  0  0  0  0  0
    3.6208    2.0704   21.6579 H   0  0  0  0  0  0  0  0  0  0  0  0
    2.9857    2.6926   19.3615 H   0  0  0  0  0  0  0  0  0  0  0  0
    5.6664    0.7407   22.0807 H   0  0  0  0  0  0  0  0  0  0  0  0
   10.2684   -2.6719   22.3867 H   0  0  0  0  0  0  0  0  0  0  0  0
    7.8717   -0.0016   24.7596 H   0  0  0  0  0  0  0  0  0  0  0  0
    4.3794    2.0106   17.4221 H   0  0  0  0  0  0  0  0  0  0  0  0
    9.5443   -4.5616   23.7817 H   0  0  0  0  0  0  0  0  0  0  0  0
    7.1921   -1.8821   26.1908 H   0  0  0  0  0  0  0  0  0  0  0  0
   14.1173   -0.5347   23.4586 H   0  0  0  0  0  0  0  0  0  0  0  0
   10.3191   -0.5030   25.5040 H   0  0  0  0  0  0  0  0  0  0  0  0
    8.4172   -0.8135   18.0384 H   0  0  0  0  0  0  0  0  0  0  0  0
    9.1878   -3.7869   27.5531 H   0  0  0  0  0  0  0  0  0  0  0  0
    9.6904   -5.2943   26.7552 H   0  0  0  0  0  0  0  0  0  0  0  0
    7.9795   -6.2218   24.8576 H   0  0  0  0  0  0  0  0  0  0  0  0
    6.5261   -5.2316   24.6017 H   0  0  0  0  0  0  0  0  0  0  0  0
    8.6792   -5.8458   28.9137 H   0  0  0  0  0  0  0  0  0  0  0  0
    7.2216   -4.9135   28.5566 H   0  0  0  0  0  0  0  0  0  0  0  0
    5.7213   -5.7275   26.8929 H   0  0  0  0  0  0  0  0  0  0  0  0
    6.1115   -7.2390   26.0653 H   0  0  0  0  0  0  0  0  0  0  0  0
   12.1730   -1.9514   27.6891 H   0  0  0  0  0  0  0  0  0  0  0  0
   13.1690   -0.4811   27.9595 H   0  0  0  0  0  0  0  0  0  0  0  0
   11.3970   -0.3376   27.8399 H   0  0  0  0  0  0  0  0  0  0  0  0
   11.5842    0.7150   22.1561 H   0  0  0  0  0  0  0  0  0  0  0  0
   11.5525   -1.0164   21.9239 H   0  0  0  0  0  0  0  0  0  0  0  0
    9.5374    0.8439   23.4178 H   0  0  0  0  0  0  0  0  0  0  0  0
    6.6715    0.4865   16.8044 H   0  0  0  0  0  0  0  0  0  0  0  0
    8.0730   -1.6176   21.0751 H   0  0  0  0  0  0  0  0  0  0  0  0
  1  2  1  0  0  0  0
  1  3  2  0  0  0  0
  2  6  2  0  0  0  0
  3 12  1  0  0  0  0
  4  7  2  0  0  0  0
  4 13  1  0  0  0  0
  5  8  1  0  0  0  0
  5 13  2  0  0  0  0
  6 15  1  0  0  0  0
  7 16  1  0  0  0  0
  8 16  2  0  0  0  0
  9 14  1  0  0  0  0
  9 26  2  0  0  0  0
 10 14  2  0  0  0  0
 10 28  1  0  0  0  0
 11 17  2  0  0  0  0
 11 27  1  0  0  0  0
 12 15  2  0  0  0  0
 12 17  1  0  0  0  0
 13 25  1  0  0  0  0
 14 24  1  0  0  0  0
 15 27  1  0  0  0  0
 16 29  1  0  0  0  0
 17 30  1  0  0  0  0
 18 25  1  0  0  0  0
 18 30  1  0  0  0  0
 18 31  2  0  0  0  0
 19 21  1  0  0  0  0
 19 29  1  0  0  0  0
 20 22  1  0  0  0  0
 20 29  1  0  0  0  0
 21 32  1  0  0  0  0
 22 32  1  0  0  0  0
 23 28  1  0  0  0  0
 24 25  1  1  0  0  0
 26 28  1  0  0  0  0
  1 33  1  0  0  0  0
  2 34  1  0  0  0  0
  3 35  1  0  0  0  0
  4 36  1  0  0  0  0
  5 37  1  0  0  0  0
  6 38  1  0  0  0  0
  7 39  1  0  0  0  0
  8 40  1  0  0  0  0
  9 41  1  0  0  0  0
 10 42  1  0  0  0  0
 11 43  1  0  0  0  0
 19 44  1  0  0  0  0
 19 45  1  0  0  0  0
 20 46  1  0  0  0  0
 20 47  1  0  0  0  0
 21 48  1  0  0  0  0
 21 49  1  0  0  0  0
 22 50  1  0  0  0  0
 22 51  1  0  0  0  0
 23 52  1  0  0  0  0
 23 53  1  0  0  0  0
 23 54  1  0  0  0  0
 24 55  1  0  0  0  0
 24 56  1  0  0  0  0
 25 57  1  0  0  0  0
 27 58  1  0  0  0  0
 30 59  1  0  0  0  0
M  END
> <clash_score>
0.6627992648836339

> <docking_score>
-6.576280117034912

> <overlap_score>
0.918522834777832

$$$$
BENZO_307_2
  -OEChem-08232013543D

 59 63  0     1  0  0  0  0  0999 V2000
    4.2460    1.7520   20.8250 C   0  0  0  0  0  0  0  0  0  0  0  0
    3.8860    2.1050   19.5250 C   0  0  0  0  0  0  0  0  0  0  0  0
    5.3890    1.0010   21.0690 C   0  0  0  0  0  0  0  0  0  0  0  0
    9.5890   -2.4950   23.2210 C   0  0  0  0  0  0  0  0  0  0  0  0
    8.2550   -1.0010   24.5520 C   0  0  0  0  0  0  0  0  0  0  0  0
    4.6610    1.7170   18.4380 C   0  0  0  0  0  0  0  0  0  0  0  0
    9.1890   -3.5540   24.0140 C   0  0  0  0  0  0  0  0  0  0  0  0
    7.8700   -2.0610   25.3550 C   0  0  0  0  0  0  0  0  0  0  0  0
   11.9902    2.0095   22.7508 C   0  0  0  0  0  0  0  0  0  0  0  0
   10.7163    3.5749   23.6235 C   0  0  0  0  0  0  0  0  0  0  0  0
    7.5840   -0.2700   18.5160 C   0  0  0  0  0  0  0  0  0  0  0  0
    6.1460    0.6070   19.9750 C   0  0  0  0  0  0  0  0  0  0  0  0
    9.1280   -1.2090   23.4870 C   0  0  0  0  0  0  0  0  0  0  0  0
   10.7476    2.2242   23.3766 C   0  0  0  0  0  0  0  0  0  0  0  0
    5.7970    0.9500   18.6730 C   0  0  0  0  0  0  0  0  0  0  0  0
    8.3450   -3.3440   25.0980 C   0  0  0  0  0  0  0  0  0  0  0  0
    7.2710   -0.1460   19.8310 C   0  0  0  0  0  0  0  0  0  0  0  0
    9.0430    0.2380   21.4940 C   0  0  0  0  0  0  0  0  0  0  0  0
    8.3254   -4.3377   27.3461 C   0  0  0  0  0  0  0  0  0  0  0  0
    7.8820   -5.7640   25.3673 C   0  0  0  0  0  0  0  0  0  0  0  0
    7.4315   -5.2804   28.1437 C   0  0  0  0  0  0  0  0  0  0  0  0
    7.0121   -6.6310   26.2708 C   0  0  0  0  0  0  0  0  0  0  0  0
   12.3234    5.4461   23.1826 C   0  0  0  0  0  0  0  0  0  0  0  0
    9.6841    1.2008   23.7022 C   0  0  0  0  0  0  0  0  0  0  0  0
    9.5820   -0.1080   22.7000 C   0  0  2  0  0  0  0  0  0  0  0  0
   12.6971    3.1339   22.6087 N   0  0  0  0  0  0  0  0  0  0  0  0
    6.7100    0.3850   17.8100 N   0  0  0  0  0  0  0  0  0  0  0  0
   11.8960    4.0681   23.1487 N   0  0  0  0  0  0  0  0  0  0  0  0
    7.9748   -4.4087   25.9209 N   0  0  0  0  0  0  0  0  0  0  0  0
    8.0950   -0.7700   20.8440 N   0  0  0  0  0  0  0  0  0  0  0  0
    9.2950    1.3000   20.9480 O   0  0  0  0  0  0  0  0  0  0  0  0
    7.5004   -6.6032   27.6115 O   0  0  0  0  0  0  0  0  0  0  0  0
    3.6208    2.0704   21.6579 H   0  0  0  0  0  0  0  0  0  0  0  0
    2.9857    2.6926   19.3615 H   0  0  0  0  0  0  0  0  0  0  0  0
    5.6664    0.7407   22.0807 H   0  0  0  0  0  0  0  0  0  0  0  0
   10.2684   -2.6719   22.3867 H   0  0  0  0  0  0  0  0  0  0  0  0
    7.8717   -0.0016   24.7596 H   0  0  0  0  0  0  0  0  0  0  0  0
    4.3794    2.0106   17.4221 H   0  0  0  0  0  0  0  0  0  0  0  0
    9.5443   -4.5616   23.7817 H   0  0  0  0  0  0  0  0  0  0  0  0
    7.1921   -1.8821   26.1908 H   0  0  0  0  0  0  0  0  0  0  0  0
   12.4119    1.0818   22.3906 H   0  0  0  0  0  0  0  0  0  0  0  0
    9.9730    4.2116   24.0840 H   0  0  0  0  0  0  0  0  0  0  0  0
    8.4172   -0.8135   18.0384 H   0  0  0  0  0  0  0  0  0  0  0  0
    8.2135   -3.3131   27.7278 H   0  0  0  0  0  0  0  0  0  0  0  0
    9.3781   -4.6321   27.4715 H   0  0  0  0  0  0  0  0  0  0  0  0
    8.8922   -6.1957   25.3019 H   0  0  0  0  0  0  0  0  0  0  0  0
    7.4576   -5.7473   24.3535 H   0  0  0  0  0  0  0  0  0  0  0  0
    7.7719   -5.3220   29.1833 H   0  0  0  0  0  0  0  0  0  0  0  0
    6.3900   -4.9370   28.1521 H   0  0  0  0  0  0  0  0  0  0  0  0
    5.9639   -6.3088   26.2499 H   0  0  0  0  0  0  0  0  0  0  0  0
    7.0432   -7.6699   25.9269 H   0  0  0  0  0  0  0  0  0  0  0  0
   12.8637    5.6088   24.1189 H   0  0  0  0  0  0  0  0  0  0  0  0
   12.9734    5.6469   22.3264 H   0  0  0  0  0  0  0  0  0  0  0  0
   11.4470    6.0978   23.1275 H   0  0  0  0  0  0  0  0  0  0  0  0
    9.7989    0.8777   24.7451 H   0  0  0  0  0  0  0  0  0  0  0  0
    8.7078    1.7032   23.6586 H   0  0  0  0  0  0  0  0  0  0  0  0
   10.7539   -0.2760   22.5528 H   0  0  0  0  0  0  0  0  0  0  0  0
    6.6715    0.4865   16.8044 H   0  0  0  0  0  0  0  0  0  0  0  0
    8.0730   -1.6176   21.0751 H   0  0  0  0  0  0  0  0  0  0  0  0
  1  2  1  0  0  0  0
  1  3  2  0  0  0  0
  2  6  2  0  0  0  0
  3 12  1  0  0  0  0
  4  7  2  0  0  0  0
  4 13  1  0  0  0  0
  5  8  1  0  0  0  0
  5 13  2  0  0  0  0
  6 15  1  0  0  0  0
  7 16  1  0  0  0  0
  8 16  2  0  0  0  0
  9 14  1  0  0  0  0
  9 26  2  0  0  0  0
 10 14  2  0  0  0  0
 10 28  1  0  0  0  0
 11 17  2  0  0  0  0
 11 27  1  0  0  0  0
 12 15  2  0  0  0  0
 12 17  1  0  0  0  0
 13 25  1  0  0  0  0
 14 24  1  0  0  0  0
 15 27  1  0  0  0  0
 16 29  1  0  0  0  0
 17 30  1  0  0  0  0
 18 25  1  0  0  0  0
 18 30  1  0  0  0  0
 18 31  2  0  0  0  0
 19 21  1  0  0  0  0
 19 29  1  0  0  0  0
 20 22  1  0  0  0  0
 20 29  1  0  0  0  0
 21 32  1  0  0  0  0
 22 32  1  0  0  0  0
 23 28  1  0  0  0  0
 24 25  1  6  0  0  0
 26 28  1  0  0  0  0
  1 33  1  0  0  0  0
  2 34  1  0  0  0  0
  3 35  1  0  0  0  0
  4 36  1  0  0  0  0
  5 37  1  0  0  0  0
  6 38  1  0  0  0  0
  7 39  1  0  0  0  0
  8 40  1  0  0  0  0
  9 41  1  0  0  0  0
 10 42  1  0  0  0  0
 11 43  1  0  0  0  0
 19 44  1  0  0  0  0
 19 45  1  0  0  0  0
 20 46  1  0  0  0  0
 20 47  1  0  0  0  0
 21 48  1  0  0  0  0
 21 49  1  0  0  0  0
 22 50  1  0  0  0  0
 22 51  1  0  0  0  0
 23 52  1  0  0  0  0
 23 53  1  0  0  0  0
 23 54  1  0  0  0  0
 24 55  1  0  0  0  0
 24 56  1  0  0  0  0
 25 57  1  0  0  0  0
 27 58  1  0  0  0  0
 30 59  1  0  0  0  0
M  END
> <clash_score>
0

> <docking_score>
-7.220284938812256

> <overlap_score>
0.8336833119392395

$$$$
BENZO_311_1
  -OEChem-08232013543D

 52 55  0     1  0  0  0  0  0999 V2000
    9.5890   -2.4950   23.2210 C   0  0  0  0  0  0  0  0  0  0  0  0
    8.2550   -1.0010   24.5520 C   0  0  0  0  0  0  0  0  0  0  0  0
    9.1890   -3.5540   24.0140 C   0  0  0  0  0  0  0  0  0  0  0  0
    7.8700   -2.0610   25.3550 C   0  0  0  0  0  0  0  0  0  0  0  0
   13.1332   -1.1110   24.1732 C   0  0  0  0  0  0  0  0  0  0  0  0
   11.5178   -0.0030   25.1721 C   0  0  0  0  0  0  0  0  0  0  0  0
    9.1280   -1.2090   23.4870 C   0  0  0  0  0  0  0  0  0  0  0  0
   11.9236   -0.4323   23.9322 C   0  0  0  0  0  0  0  0  0  0  0  0
    8.3450   -3.3440   25.0980 C   0  0  0  0  0  0  0  0  0  0  0  0
    5.7970    0.9500   18.6730 C   0  0  0  0  0  0  0  0  0  0  0  0
    7.2710   -0.1460   19.8310 C   0  0  0  0  0  0  0  0  0  0  0  0
    4.6610    1.7170   18.4380 C   0  0  0  0  0  0  0  0  0  0  0  0
    3.8860    2.1050   19.5250 C   0  0  0  0  0  0  0  0  0  0  0  0
    4.2460    1.7520   20.8250 C   0  0  0  0  0  0  0  0  0  0  0  0
    5.3890    1.0010   21.0690 C   0  0  0  0  0  0  0  0  0  0  0  0
    9.0430    0.2380   21.4940 C   0  0  0  0  0  0  0  0  0  0  0  0
   12.4834   -0.2219   27.4740 C   0  0  0  0  0  0  0  0  0  0  0  0
    7.2615   -5.5559   25.3797 C   0  0  0  0  0  0  0  0  0  0  0  0
    8.3042   -4.4052   27.3386 C   0  0  0  0  0  0  0  0  0  0  0  0
   11.2273   -0.2199   22.6076 C   0  0  0  0  0  0  0  0  0  0  0  0
    9.5820   -0.1080   22.7000 C   0  0  1  0  0  0  0  0  0  0  0  0
   13.4738   -1.1150   25.4647 N   0  0  0  0  0  0  0  0  0  0  0  0
    6.7100    0.3850   17.8100 N   0  0  0  0  0  0  0  0  0  0  0  0
    7.5840   -0.2700   18.5160 N   0  0  0  0  0  0  0  0  0  0  0  0
   12.4721   -0.4335   26.0464 N   0  0  0  0  0  0  0  0  0  0  0  0
    6.1460    0.6070   19.9750 N   0  0  0  0  0  0  0  0  0  0  0  0
    8.0950   -0.7700   20.8440 N   0  0  0  0  0  0  0  0  0  0  0  0
    7.9717   -4.4175   25.9277 N   0  0  0  0  0  0  0  0  0  0  0  0
    9.2950    1.3000   20.9480 O   0  0  0  0  0  0  0  0  0  0  0  0
   10.2684   -2.6719   22.3867 H   0  0  0  0  0  0  0  0  0  0  0  0
    7.8717   -0.0016   24.7596 H   0  0  0  0  0  0  0  0  0  0  0  0
    9.5443   -4.5616   23.7817 H   0  0  0  0  0  0  0  0  0  0  0  0
    7.1921   -1.8821   26.1908 H   0  0  0  0  0  0  0  0  0  0  0  0
   13.7829   -1.6028   23.4631 H   0  0  0  0  0  0  0  0  0  0  0  0
   10.6535    0.5594   25.4986 H   0  0  0  0  0  0  0  0  0  0  0  0
    4.3710    2.0145   17.4451 H   0  0  0  0  0  0  0  0  0  0  0  0
    2.9929    2.6891   19.3400 H   0  0  0  0  0  0  0  0  0  0  0  0
    3.6320    2.0596   21.6814 H   0  0  0  0  0  0  0  0  0  0  0  0
    5.6863    0.7288   22.0575 H   0  0  0  0  0  0  0  0  0  0  0  0
   11.9614   -1.0599   27.9433 H   0  0  0  0  0  0  0  0  0  0  0  0
   13.5174   -0.1700   27.8262 H   0  0  0  0  0  0  0  0  0  0  0  0
   11.9792    0.7209   27.7036 H   0  0  0  0  0  0  0  0  0  0  0  0
    7.0604   -6.2833   26.1801 H   0  0  0  0  0  0  0  0  0  0  0  0
    6.3097   -5.2187   24.9433 H   0  0  0  0  0  0  0  0  0  0  0  0
    7.8751   -6.0299   24.5994 H   0  0  0  0  0  0  0  0  0  0  0  0
    7.9291   -5.3245   27.8122 H   0  0  0  0  0  0  0  0  0  0  0  0
    9.3964   -4.3510   27.4573 H   0  0  0  0  0  0  0  0  0  0  0  0
    7.8394   -3.5306   27.8170 H   0  0  0  0  0  0  0  0  0  0  0  0
   11.5842    0.7150   22.1561 H   0  0  0  0  0  0  0  0  0  0  0  0
   11.5525   -1.0164   21.9239 H   0  0  0  0  0  0  0  0  0  0  0  0
    9.5374    0.8439   23.4178 H   0  0  0  0  0  0  0  0  0  0  0  0
    8.0706   -1.6189   21.0730 H   0  0  0  0  0  0  0  0  0  0  0  0
  1  3  2  0  0  0  0
  1  7  1  0  0  0  0
  2  4  1  0  0  0  0
  2  7  2  0  0  0  0
  3  9  1  0  0  0  0
  4  9  2  0  0  0  0
  5  8  1  0  0  0  0
  5 22  2  0  0  0  0
  6  8  2  0  0  0  0
  6 25  1  0  0  0  0
  7 21  1  0  0  0  0
  8 20  1  0  0  0  0
  9 28  1  0  0  0  0
 10 12  1  0  0  0  0
 10 23  2  0  0  0  0
 10 26  1  0  0  0  0
 11 24  2  0  0  0  0
 11 26  1  0  0  0  0
 11 27  1  0  0  0  0
 12 13  2  0  0  0  0
 13 14  1  0  0  0  0
 14 15  2  0  0  0  0
 15 26  1  0  0  0  0
 16 21  1  0  0  0  0
 16 27  1  0  0  0  0
 16 29  2  0  0  0  0
 17 25  1  0  0  0  0
 18 28  1  0  0  0  0
 19 28  1  0  0  0  0
 20 21  1  1  0  0  0
 22 25  1  0  0  0  0
 23 24  1  0  0  0  0
  1 30  1  0  0  0  0
  2 31  1  0  0  0  0
  3 32  1  0  0  0  0
  4 33  1  0  0  0  0
  5 34  1  0  0  0  0
  6 35  1  0  0  0  0
 12 36  1  0  0  0  0
 13 37  1  0  0  0  0
 14 38  1  0  0  0  0
 15 39  1  0  0  0  0
 17 40  1  0  0  0  0
 17 41  1  0  0  0  0
 17 42  1  0  0  0  0
 18 43  1  0  0  0  0
 18 44  1  0  0  0  0
 18 45  1  0  0  0  0
 19 46  1  0  0  0  0
 19 47  1  0  0  0  0
 19 48  1  0  0  0  0
 20 49  1  0  0  0  0
 20 50  1  0  0  0  0
 21 51  1  0  0  0  0
 27 52  1  0  0  0  0
M  END
> <clash_score>
0

> <docking_score>
-5.414011001586914

> <overlap_score>
0.8710911870002747

$$$$
BENZO_311_2
  -OEChem-08232013543D

 52 55  0     1  0  0  0  0  0999 V2000
    9.5890   -2.4950   23.2210 C   0  0  0  0  0  0  0  0  0  0  0  0
    8.2550   -1.0010   24.5520 C   0  0  0  0  0  0  0  0  0  0  0  0
    9.1890   -3.5540   24.0140 C   0  0  0  0  0  0  0  0  0  0  0  0
    7.8700   -2.0610   25.3550 C   0  0  0  0  0  0  0  0  0  0  0  0
   11.7155    0.1520   24.9872 C   0  0  0  0  0  0  0  0  0  0  0  0
   11.0544    2.1258   25.6959 C   0  0  0  0  0  0  0  0  0  0  0  0
    9.1280   -1.2090   23.4870 C   0  0  0  0  0  0  0  0  0  0  0  0
   10.7691    1.1678   24.7539 C   0  0  0  0  0  0  0  0  0  0  0  0
    8.3450   -3.3440   25.0980 C   0  0  0  0  0  0  0  0  0  0  0  0
    5.7970    0.9500   18.6730 C   0  0  0  0  0  0  0  0  0  0  0  0
    7.2710   -0.1460   19.8310 C   0  0  0  0  0  0  0  0  0  0  0  0
    4.6610    1.7170   18.4380 C   0  0  0  0  0  0  0  0  0  0  0  0
    3.8860    2.1050   19.5250 C   0  0  0  0  0  0  0  0  0  0  0  0
    4.2460    1.7520   20.8250 C   0  0  0  0  0  0  0  0  0  0  0  0
    5.3890    1.0010   21.0690 C   0  0  0  0  0  0  0  0  0  0  0  0
    9.0430    0.2380   21.4940 C   0  0  0  0  0  0  0  0  0  0  0  0
   12.7726    2.3013   27.5113 C   0  0  0  0  0  0  0  0  0  0  0  0
    7.2615   -5.5559   25.3797 C   0  0  0  0  0  0  0  0  0  0  0  0
    8.3042   -4.4052   27.3386 C   0  0  0  0  0  0  0  0  0  0  0  0
    9.6841    1.2008   23.7022 C   0  0  0  0  0  0  0  0  0  0  0  0
    9.5820   -0.1080   22.7000 C   0  0  2  0  0  0  0  0  0  0  0  0
   12.5403    0.4380   25.9980 N   0  0  0  0  0  0  0  0  0  0  0  0
    6.7100    0.3850   17.8100 N   0  0  0  0  0  0  0  0  0  0  0  0
    7.5840   -0.2700   18.5160 N   0  0  0  0  0  0  0  0  0  0  0  0
   12.1132    1.6445   26.4082 N   0  0  0  0  0  0  0  0  0  0  0  0
    6.1460    0.6070   19.9750 N   0  0  0  0  0  0  0  0  0  0  0  0
    8.0950   -0.7700   20.8440 N   0  0  0  0  0  0  0  0  0  0  0  0
    7.9717   -4.4175   25.9277 N   0  0  0  0  0  0  0  0  0  0  0  0
    9.2950    1.3000   20.9480 O   0  0  0  0  0  0  0  0  0  0  0  0
   10.2684   -2.6719   22.3867 H   0  0  0  0  0  0  0  0  0  0  0  0
    7.8717   -0.0016   24.7596 H   0  0  0  0  0  0  0  0  0  0  0  0
    9.5443   -4.5616   23.7817 H   0  0  0  0  0  0  0  0  0  0  0  0
    7.1921   -1.8821   26.1908 H   0  0  0  0  0  0  0  0  0  0  0  0
   11.8409   -0.7851   24.4635 H   0  0  0  0  0  0  0  0  0  0  0  0
   10.6061    3.0857   25.9138 H   0  0  0  0  0  0  0  0  0  0  0  0
    4.3710    2.0145   17.4451 H   0  0  0  0  0  0  0  0  0  0  0  0
    2.9929    2.6891   19.3400 H   0  0  0  0  0  0  0  0  0  0  0  0
    3.6320    2.0596   21.6814 H   0  0  0  0  0  0  0  0  0  0  0  0
    5.6863    0.7288   22.0575 H   0  0  0  0  0  0  0  0  0  0  0  0
   12.2713    1.9965   28.4337 H   0  0  0  0  0  0  0  0  0  0  0  0
   13.8256    2.0072   27.5334 H   0  0  0  0  0  0  0  0  0  0  0  0
   12.7061    3.3847   27.3788 H   0  0  0  0  0  0  0  0  0  0  0  0
    7.0604   -6.2833   26.1801 H   0  0  0  0  0  0  0  0  0  0  0  0
    6.3097   -5.2187   24.9433 H   0  0  0  0  0  0  0  0  0  0  0  0
    7.8751   -6.0299   24.5994 H   0  0  0  0  0  0  0  0  0  0  0  0
    7.9291   -5.3245   27.8122 H   0  0  0  0  0  0  0  0  0  0  0  0
    9.3964   -4.3510   27.4573 H   0  0  0  0  0  0  0  0  0  0  0  0
    7.8394   -3.5306   27.8170 H   0  0  0  0  0  0  0  0  0  0  0  0
    8.7167    1.3910   24.1851 H   0  0  0  0  0  0  0  0  0  0  0  0
    9.8647    2.0727   23.0582 H   0  0  0  0  0  0  0  0  0  0  0  0
   10.7539   -0.2760   22.5528 H   0  0  0  0  0  0  0  0  0  0  0  0
    8.0706   -1.6189   21.0730 H   0  0  0  0  0  0  0  0  0  0  0  0
  1  3  2  0  0  0  0
  1  7  1  0  0  0  0
  2  4  1  0  0  0  0
  2  7  2  0  0  0  0
  3  9  1  0  0  0  0
  4  9  2  0  0  0  0
  5  8  1  0  0  0  0
  5 22  2  0  0  0  0
  6  8  2  0  0  0  0
  6 25  1  0  0  0  0
  7 21  1  0  0  0  0
  8 20  1  0  0  0  0
  9 28  1  0  0  0  0
 10 12  1  0  0  0  0
 10 23  2  0  0  0  0
 10 26  1  0  0  0  0
 11 24  2  0  0  0  0
 11 26  1  0  0  0  0
 11 27  1  0  0  0  0
 12 13  2  0  0  0  0
 13 14  1  0  0  0  0
 14 15  2  0  0  0  0
 15 26  1  0  0  0  0
 16 21  1  0  0  0  0
 16 27  1  0  0  0  0
 16 29  2  0  0  0  0
 17 25  1  0  0  0  0
 18 28  1  0  0  0  0
 19 28  1  0  0  0  0
 20 21  1  6  0  0  0
 22 25  1  0  0  0  0
 23 24  1  0  0  0  0
  1 30  1  0  0  0  0
  2 31  1  0  0  0  0
  3 32  1  0  0  0  0
  4 33  1  0  0  0  0
  5 34  1  0  0  0  0
  6 35  1  0  0  0  0
 12 36  1  0  0  0  0
 13 37  1  0  0  0  0
 14 38  1  0  0  0  0
 15 39  1  0  0  0  0
 17 40  1  0  0  0  0
 17 41  1  0  0  0  0
 17 42  1  0  0  0  0
 18 43  1  0  0  0  0
 18 44  1  0  0  0  0
 18 45  1  0  0  0  0
 19 46  1  0  0  0  0
 19 47  1  0  0  0  0
 19 48  1  0  0  0  0
 20 49  1  0  0  0  0
 20 50  1  0  0  0  0
 21 51  1  0  0  0  0
 27 52  1  0  0  0  0
M  END
> <clash_score>
3.2086007587674423

> <docking_score>
-3.356658935546875

> <overlap_score>
0.7944022417068481

$$$$
BENZO_310_1
  -OEChem-08232013543D

 52 55  0     1  0  0  0  0  0999 V2000
   13.7696   -1.3331   25.2040 C   0  0  0  0  0  0  0  0  0  0  0  0
   13.1260   -1.1377   23.9821 C   0  0  0  0  0  0  0  0  0  0  0  0
    9.5890   -2.4950   23.2210 C   0  0  0  0  0  0  0  0  0  0  0  0
    8.2550   -1.0010   24.5520 C   0  0  0  0  0  0  0  0  0  0  0  0
    9.1890   -3.5540   24.0140 C   0  0  0  0  0  0  0  0  0  0  0  0
    7.8700   -2.0610   25.3550 C   0  0  0  0  0  0  0  0  0  0  0  0
   13.2109   -0.8232   26.3761 C   0  0  0  0  0  0  0  0  0  0  0  0
   11.3649    0.0776   25.1042 C   0  0  0  0  0  0  0  0  0  0  0  0
    9.1280   -1.2090   23.4870 C   0  0  0  0  0  0  0  0  0  0  0  0
   11.9236   -0.4323   23.9322 C   0  0  0  0  0  0  0  0  0  0  0  0
    8.3450   -3.3440   25.0980 C   0  0  0  0  0  0  0  0  0  0  0  0
   12.0086   -0.1179   26.3261 C   0  0  0  0  0  0  0  0  0  0  0  0
    5.7970    0.9500   18.6730 C   0  0  0  0  0  0  0  0  0  0  0  0
    7.2710   -0.1460   19.8310 C   0  0  0  0  0  0  0  0  0  0  0  0
    4.6610    1.7170   18.4380 C   0  0  0  0  0  0  0  0  0  0  0  0
    3.8860    2.1050   19.5250 C   0  0  0  0  0  0  0  0  0  0  0  0
    4.2460    1.7520   20.8250 C   0  0  0  0  0  0  0  0  0  0  0  0
    5.3890    1.0010   21.0690 C   0  0  0  0  0  0  0  0  0  0  0  0
    9.0430    0.2380   21.4940 C   0  0  0  0  0  0  0  0  0  0  0  0
    7.2615   -5.5559   25.3797 C   0  0  0  0  0  0  0  0  0  0  0  0
    8.3042   -4.4052   27.3386 C   0  0  0  0  0  0  0  0  0  0  0  0
   11.2273   -0.2199   22.6076 C   0  0  0  0  0  0  0  0  0  0  0  0
    9.5820   -0.1080   22.7000 C   0  0  1  0  0  0  0  0  0  0  0  0
    6.7100    0.3850   17.8100 N   0  0  0  0  0  0  0  0  0  0  0  0
    7.5840   -0.2700   18.5160 N   0  0  0  0  0  0  0  0  0  0  0  0
    6.1460    0.6070   19.9750 N   0  0  0  0  0  0  0  0  0  0  0  0
    8.0950   -0.7700   20.8440 N   0  0  0  0  0  0  0  0  0  0  0  0
    7.9717   -4.4175   25.9277 N   0  0  0  0  0  0  0  0  0  0  0  0
    9.2950    1.3000   20.9480 O   0  0  0  0  0  0  0  0  0  0  0  0
   11.3203    0.5119   27.7723 Cl  0  0  0  0  0  0  0  0  0  0  0  0
   14.7060   -1.8822   25.2425 H   0  0  0  0  0  0  0  0  0  0  0  0
   13.5686   -1.5384   23.0739 H   0  0  0  0  0  0  0  0  0  0  0  0
   10.2684   -2.6719   22.3867 H   0  0  0  0  0  0  0  0  0  0  0  0
    7.8717   -0.0016   24.7596 H   0  0  0  0  0  0  0  0  0  0  0  0
    9.5443   -4.5616   23.7817 H   0  0  0  0  0  0  0  0  0  0  0  0
    7.1921   -1.8821   26.1908 H   0  0  0  0  0  0  0  0  0  0  0  0
   13.7238   -0.9829   27.3213 H   0  0  0  0  0  0  0  0  0  0  0  0
   10.4270    0.6263   25.0600 H   0  0  0  0  0  0  0  0  0  0  0  0
    4.3710    2.0145   17.4451 H   0  0  0  0  0  0  0  0  0  0  0  0
    2.9929    2.6891   19.3400 H   0  0  0  0  0  0  0  0  0  0  0  0
    3.6320    2.0596   21.6814 H   0  0  0  0  0  0  0  0  0  0  0  0
    5.6863    0.7288   22.0575 H   0  0  0  0  0  0  0  0  0  0  0  0
    7.0604   -6.2833   26.1801 H   0  0  0  0  0  0  0  0  0  0  0  0
    6.3097   -5.2187   24.9433 H   0  0  0  0  0  0  0  0  0  0  0  0
    7.8751   -6.0299   24.5994 H   0  0  0  0  0  0  0  0  0  0  0  0
    7.9291   -5.3245   27.8122 H   0  0  0  0  0  0  0  0  0  0  0  0
    9.3964   -4.3510   27.4573 H   0  0  0  0  0  0  0  0  0  0  0  0
    7.8394   -3.5306   27.8170 H   0  0  0  0  0  0  0  0  0  0  0  0
   11.5842    0.7150   22.1561 H   0  0  0  0  0  0  0  0  0  0  0  0
   11.5525   -1.0164   21.9239 H   0  0  0  0  0  0  0  0  0  0  0  0
    9.5374    0.8439   23.4178 H   0  0  0  0  0  0  0  0  0  0  0  0
    8.0706   -1.6189   21.0730 H   0  0  0  0  0  0  0  0  0  0  0  0
  1  2  2  0  0  0  0
  1  7  1  0  0  0  0
  2 10  1  0  0  0  0
  3  5  2  0  0  0  0
  3  9  1  0  0  0  0
  4  6  1  0  0  0  0
  4  9  2  0  0  0  0
  5 11  1  0  0  0  0
  6 11  2  0  0  0  0
  7 12  2  0  0  0  0
  8 10  2  0  0  0  0
  8 12  1  0  0  0  0
  9 23  1  0  0  0  0
 10 22  1  0  0  0  0
 11 28  1  0  0  0  0
 12 30  1  0  0  0  0
 13 15  1  0  0  0  0
 13 24  2  0  0  0  0
 13 26  1  0  0  0  0
 14 25  2  0  0  0  0
 14 26  1  0  0  0  0
 14 27  1  0  0  0  0
 15 16  2  0  0  0  0
 16 17  1  0  0  0  0
 17 18  2  0  0  0  0
 18 26  1  0  0  0  0
 19 23  1  0  0  0  0
 19 27  1  0  0  0  0
 19 29  2  0  0  0  0
 20 28  1  0  0  0  0
 21 28  1  0  0  0  0
 22 23  1  1  0  0  0
 24 25  1  0  0  0  0
  1 31  1  0  0  0  0
  2 32  1  0  0  0  0
  3 33  1  0  0  0  0
  4 34  1  0  0  0  0
  5 35  1  0  0  0  0
  6 36  1  0  0  0  0
  7 37  1  0  0  0  0
  8 38  1  0  0  0  0
 15 39  1  0  0  0  0
 16 40  1  0  0  0  0
 17 41  1  0  0  0  0
 18 42  1  0  0  0  0
 20 43  1  0  0  0  0
 20 44  1  0  0  0  0
 20 45  1  0  0  0  0
 21 46  1  0  0  0  0
 21 47  1  0  0  0  0
 21 48  1  0  0  0  0
 22 49  1  0  0  0  0
 22 50  1  0  0  0  0
 23 51  1  0  0  0  0
 27 52  1  0  0  0  0
M  END
> <clash_score>
0.7019253910792591

> <docking_score>
-5.116095542907715

> <overlap_score>
0.8747238516807556

$$$$
BENZO_310_2
  -OEChem-08232013543D

 52 55  0     1  0  0  0  0  0999 V2000
   12.6250    0.0375   25.8097 C   0  0  0  0  0  0  0  0  0  0  0  0
   11.6228    0.0680   24.8402 C   0  0  0  0  0  0  0  0  0  0  0  0
    9.5890   -2.4950   23.2210 C   0  0  0  0  0  0  0  0  0  0  0  0
    8.2550   -1.0010   24.5520 C   0  0  0  0  0  0  0  0  0  0  0  0
    9.1890   -3.5540   24.0140 C   0  0  0  0  0  0  0  0  0  0  0  0
    7.8700   -2.0610   25.3550 C   0  0  0  0  0  0  0  0  0  0  0  0
   12.7736    1.1067   26.6932 C   0  0  0  0  0  0  0  0  0  0  0  0
   10.9178    2.2371   25.6372 C   0  0  0  0  0  0  0  0  0  0  0  0
    9.1280   -1.2090   23.4870 C   0  0  0  0  0  0  0  0  0  0  0  0
   10.7691    1.1678   24.7539 C   0  0  0  0  0  0  0  0  0  0  0  0
    8.3450   -3.3440   25.0980 C   0  0  0  0  0  0  0  0  0  0  0  0
   11.9200    2.2065   26.6069 C   0  0  0  0  0  0  0  0  0  0  0  0
    5.7970    0.9500   18.6730 C   0  0  0  0  0  0  0  0  0  0  0  0
    7.2710   -0.1460   19.8310 C   0  0  0  0  0  0  0  0  0  0  0  0
    4.6610    1.7170   18.4380 C   0  0  0  0  0  0  0  0  0  0  0  0
    3.8860    2.1050   19.5250 C   0  0  0  0  0  0  0  0  0  0  0  0
    4.2460    1.7520   20.8250 C   0  0  0  0  0  0  0  0  0  0  0  0
    5.3890    1.0010   21.0690 C   0  0  0  0  0  0  0  0  0  0  0  0
    9.0430    0.2380   21.4940 C   0  0  0  0  0  0  0  0  0  0  0  0
    7.2615   -5.5559   25.3797 C   0  0  0  0  0  0  0  0  0  0  0  0
    8.3042   -4.4052   27.3386 C   0  0  0  0  0  0  0  0  0  0  0  0
    9.6841    1.2008   23.7022 C   0  0  0  0  0  0  0  0  0  0  0  0
    9.5820   -0.1080   22.7000 C   0  0  2  0  0  0  0  0  0  0  0  0
    6.7100    0.3850   17.8100 N   0  0  0  0  0  0  0  0  0  0  0  0
    7.5840   -0.2700   18.5160 N   0  0  0  0  0  0  0  0  0  0  0  0
    6.1460    0.6070   19.9750 N   0  0  0  0  0  0  0  0  0  0  0  0
    8.0950   -0.7700   20.8440 N   0  0  0  0  0  0  0  0  0  0  0  0
    7.9717   -4.4175   25.9277 N   0  0  0  0  0  0  0  0  0  0  0  0
    9.2950    1.3000   20.9480 O   0  0  0  0  0  0  0  0  0  0  0  0
   12.1046    3.5259   27.6963 Cl  0  0  0  0  0  0  0  0  0  0  0  0
   13.2896   -0.8190   25.8765 H   0  0  0  0  0  0  0  0  0  0  0  0
   11.5143   -0.7695   24.1559 H   0  0  0  0  0  0  0  0  0  0  0  0
   10.2684   -2.6719   22.3867 H   0  0  0  0  0  0  0  0  0  0  0  0
    7.8717   -0.0016   24.7596 H   0  0  0  0  0  0  0  0  0  0  0  0
    9.5443   -4.5616   23.7817 H   0  0  0  0  0  0  0  0  0  0  0  0
    7.1921   -1.8821   26.1908 H   0  0  0  0  0  0  0  0  0  0  0  0
   13.5594    1.0694   27.4436 H   0  0  0  0  0  0  0  0  0  0  0  0
   10.2493    3.0921   25.5662 H   0  0  0  0  0  0  0  0  0  0  0  0
    4.3710    2.0145   17.4451 H   0  0  0  0  0  0  0  0  0  0  0  0
    2.9929    2.6891   19.3400 H   0  0  0  0  0  0  0  0  0  0  0  0
    3.6320    2.0596   21.6814 H   0  0  0  0  0  0  0  0  0  0  0  0
    5.6863    0.7288   22.0575 H   0  0  0  0  0  0  0  0  0  0  0  0
    7.0604   -6.2833   26.1801 H   0  0  0  0  0  0  0  0  0  0  0  0
    6.3097   -5.2187   24.9433 H   0  0  0  0  0  0  0  0  0  0  0  0
    7.8751   -6.0299   24.5994 H   0  0  0  0  0  0  0  0  0  0  0  0
    7.9291   -5.3245   27.8122 H   0  0  0  0  0  0  0  0  0  0  0  0
    9.3964   -4.3510   27.4573 H   0  0  0  0  0  0  0  0  0  0  0  0
    7.8394   -3.5306   27.8170 H   0  0  0  0  0  0  0  0  0  0  0  0
    8.7167    1.3910   24.1851 H   0  0  0  0  0  0  0  0  0  0  0  0
    9.8647    2.0727   23.0582 H   0  0  0  0  0  0  0  0  0  0  0  0
   10.7539   -0.2760   22.5528 H   0  0  0  0  0  0  0  0  0  0  0  0
    8.0706   -1.6189   21.0730 H   0  0  0  0  0  0  0  0  0  0  0  0
  1  2  2  0  0  0  0
  1  7  1  0  0  0  0
  2 10  1  0  0  0  0
  3  5  2  0  0  0  0
  3  9  1  0  0  0  0
  4  6  1  0  0  0  0
  4  9  2  0  0  0  0
  5 11  1  0  0  0  0
  6 11  2  0  0  0  0
  7 12  2  0  0  0  0
  8 10  2  0  0  0  0
  8 12  1  0  0  0  0
  9 23  1  0  0  0  0
 10 22  1  0  0  0  0
 11 28  1  0  0  0  0
 12 30  1  0  0  0  0
 13 15  1  0  0  0  0
 13 24  2  0  0  0  0
 13 26  1  0  0  0  0
 14 25  2  0  0  0  0
 14 26  1  0  0  0  0
 14 27  1  0  0  0  0
 15 16  2  0  0  0  0
 16 17  1  0  0  0  0
 17 18  2  0  0  0  0
 18 26  1  0  0  0  0
 19 23  1  0  0  0  0
 19 27  1  0  0  0  0
 19 29  2  0  0  0  0
 20 28  1  0  0  0  0
 21 28  1  0  0  0  0
 22 23  1  6  0  0  0
 24 25  1  0  0  0  0
  1 31  1  0  0  0  0
  2 32  1  0  0  0  0
  3 33  1  0  0  0  0
  4 34  1  0  0  0  0
  5 35  1  0  0  0  0
  6 36  1  0  0  0  0
  7 37  1  0  0  0  0
  8 38  1  0  0  0  0
 15 39  1  0  0  0  0
 16 40  1  0  0  0  0
 17 41  1  0  0  0  0
 18 42  1  0  0  0  0
 20 43  1  0  0  0  0
 20 44  1  0  0  0  0
 20 45  1  0  0  0  0
 21 46  1  0  0  0  0
 21 47  1  0  0  0  0
 21 48  1  0  0  0  0
 22 49  1  0  0  0  0
 22 50  1  0  0  0  0
 23 51  1  0  0  0  0
 27 52  1  0  0  0  0
M  END
> <clash_score>
5.492914546808689

> <docking_score>
-3.611886739730835

> <overlap_score>
0.798279881477356

$$$$
BENZO_313_1
  -OEChem-08232013543D

 54 57  0     1  0  0  0  0  0999 V2000
   13.2081   -0.8233   26.3776 C   0  0  0  0  0  0  0  0  0  0  0  0
   13.7678   -1.3337   25.2064 C   0  0  0  0  0  0  0  0  0  0  0  0
   12.0060   -0.1174   26.3261 C   0  0  0  0  0  0  0  0  0  0  0  0
   13.1256   -1.1382   23.9837 C   0  0  0  0  0  0  0  0  0  0  0  0
   11.3638    0.0781   25.1034 C   0  0  0  0  0  0  0  0  0  0  0  0
    9.5890   -2.4950   23.2210 C   0  0  0  0  0  0  0  0  0  0  0  0
    8.2550   -1.0010   24.5520 C   0  0  0  0  0  0  0  0  0  0  0  0
    9.1890   -3.5540   24.0140 C   0  0  0  0  0  0  0  0  0  0  0  0
    7.8700   -2.0610   25.3550 C   0  0  0  0  0  0  0  0  0  0  0  0
   11.9236   -0.4323   23.9322 C   0  0  0  0  0  0  0  0  0  0  0  0
    9.1280   -1.2090   23.4870 C   0  0  0  0  0  0  0  0  0  0  0  0
    8.3450   -3.3440   25.0980 C   0  0  0  0  0  0  0  0  0  0  0  0
    5.7970    0.9500   18.6730 C   0  0  0  0  0  0  0  0  0  0  0  0
    7.2710   -0.1460   19.8310 C   0  0  0  0  0  0  0  0  0  0  0  0
    4.6610    1.7170   18.4380 C   0  0  0  0  0  0  0  0  0  0  0  0
    3.8860    2.1050   19.5250 C   0  0  0  0  0  0  0  0  0  0  0  0
    4.2460    1.7520   20.8250 C   0  0  0  0  0  0  0  0  0  0  0  0
    5.3890    1.0010   21.0690 C   0  0  0  0  0  0  0  0  0  0  0  0
    7.6593   -4.3764   27.2873 C   0  0  0  0  0  0  0  0  0  0  0  0
    9.0430    0.2380   21.4940 C   0  0  0  0  0  0  0  0  0  0  0  0
    8.4366   -6.7643   27.6026 C   0  0  0  0  0  0  0  0  0  0  0  0
   11.2273   -0.2199   22.6076 C   0  0  0  0  0  0  0  0  0  0  0  0
    7.3105   -5.7656   27.8005 C   0  0  0  0  0  0  0  0  0  0  0  0
    9.5820   -0.1080   22.7000 C   0  0  1  0  0  0  0  0  0  0  0  0
    6.7100    0.3850   17.8100 N   0  0  0  0  0  0  0  0  0  0  0  0
    7.5840   -0.2700   18.5160 N   0  0  0  0  0  0  0  0  0  0  0  0
    6.1460    0.6070   19.9750 N   0  0  0  0  0  0  0  0  0  0  0  0
    7.9771   -4.4057   25.9197 N   0  0  0  0  0  0  0  0  0  0  0  0
    8.0950   -0.7700   20.8440 N   0  0  0  0  0  0  0  0  0  0  0  0
    7.6481   -3.3912   28.0178 O   0  0  0  0  0  0  0  0  0  0  0  0
    9.2950    1.3000   20.9480 O   0  0  0  0  0  0  0  0  0  0  0  0
   13.7076   -0.9767   27.3297 H   0  0  0  0  0  0  0  0  0  0  0  0
   14.7032   -1.8843   25.2464 H   0  0  0  0  0  0  0  0  0  0  0  0
   11.5694    0.2792   27.2379 H   0  0  0  0  0  0  0  0  0  0  0  0
   13.5692   -1.5394   23.0762 H   0  0  0  0  0  0  0  0  0  0  0  0
   10.4277    0.6294   25.0729 H   0  0  0  0  0  0  0  0  0  0  0  0
   10.2695   -2.6718   22.3873 H   0  0  0  0  0  0  0  0  0  0  0  0
    7.8712   -0.0014   24.7587 H   0  0  0  0  0  0  0  0  0  0  0  0
    9.5431   -4.5618   23.7801 H   0  0  0  0  0  0  0  0  0  0  0  0
    7.1923   -1.8823   26.1912 H   0  0  0  0  0  0  0  0  0  0  0  0
    4.3710    2.0145   17.4451 H   0  0  0  0  0  0  0  0  0  0  0  0
    2.9929    2.6891   19.3400 H   0  0  0  0  0  0  0  0  0  0  0  0
    3.6320    2.0596   21.6814 H   0  0  0  0  0  0  0  0  0  0  0  0
    5.6863    0.7288   22.0575 H   0  0  0  0  0  0  0  0  0  0  0  0
    8.6972   -6.8584   26.5433 H   0  0  0  0  0  0  0  0  0  0  0  0
    8.1397   -7.7513   27.9706 H   0  0  0  0  0  0  0  0  0  0  0  0
    9.3367   -6.4542   28.1435 H   0  0  0  0  0  0  0  0  0  0  0  0
   11.5842    0.7150   22.1561 H   0  0  0  0  0  0  0  0  0  0  0  0
   11.5525   -1.0164   21.9239 H   0  0  0  0  0  0  0  0  0  0  0  0
    7.0709   -5.6917   28.8675 H   0  0  0  0  0  0  0  0  0  0  0  0
    6.4147   -6.1156   27.2747 H   0  0  0  0  0  0  0  0  0  0  0  0
    9.5374    0.8439   23.4178 H   0  0  0  0  0  0  0  0  0  0  0  0
    7.9296   -5.3298   25.4748 H   0  0  0  0  0  0  0  0  0  0  0  0
    8.0706   -1.6189   21.0730 H   0  0  0  0  0  0  0  0  0  0  0  0
  1  2  1  0  0  0  0
  1  3  2  0  0  0  0
  2  4  2  0  0  0  0
  3  5  1  0  0  0  0
  4 10  1  0  0  0  0
  5 10  2  0  0  0  0
  6  8  2  0  0  0  0
  6 11  1  0  0  0  0
  7  9  1  0  0  0  0
  7 11  2  0  0  0  0
  8 12  1  0  0  0  0
  9 12  2  0  0  0  0
 10 22  1  0  0  0  0
 11 24  1  0  0  0  0
 12 28  1  0  0  0  0
 13 15  1  0  0  0  0
 13 25  2  0  0  0  0
 13 27  1  0  0  0  0
 14 26  2  0  0  0  0
 14 27  1  0  0  0  0
 14 29  1  0  0  0  0
 15 16  2  0  0  0  0
 16 17  1  0  0  0  0
 17 18  2  0  0  0  0
 18 27  1  0  0  0  0
 19 23  1  0  0  0  0
 19 28  1  0  0  0  0
 19 30  2  0  0  0  0
 20 24  1  0  0  0  0
 20 29  1  0  0  0  0
 20 31  2  0  0  0  0
 21 23  1  0  0  0  0
 22 24  1  1  0  0  0
 25 26  1  0  0  0  0
  1 32  1  0  0  0  0
  2 33  1  0  0  0  0
  3 34  1  0  0  0  0
  4 35  1  0  0  0  0
  5 36  1  0  0  0  0
  6 37  1  0  0  0  0
  7 38  1  0  0  0  0
  8 39  1  0  0  0  0
  9 40  1  0  0  0  0
 15 41  1  0  0  0  0
 16 42  1  0  0  0  0
 17 43  1  0  0  0  0
 18 44  1  0  0  0  0
 21 45  1  0  0  0  0
 21 46  1  0  0  0  0
 21 47  1  0  0  0  0
 22 48  1  0  0  0  0
 22 49  1  0  0  0  0
 23 50  1  0  0  0  0
 23 51  1  0  0  0  0
 24 52  1  0  0  0  0
 28 53  1  0  0  0  0
 29 54  1  0  0  0  0
M  END
> <clash_score>
0

> <docking_score>
-5.617391586303711

> <overlap_score>
0.9150707125663757

$$$$
BENZO_313_2
  -OEChem-08232013543D

 54 57  0     1  0  0  0  0  0999 V2000
   12.7116    4.1121   22.7756 C   0  0  0  0  0  0  0  0  0  0  0  0
   11.5300    4.5099   23.4011 C   0  0  0  0  0  0  0  0  0  0  0  0
   12.9112    2.7704   22.4506 C   0  0  0  0  0  0  0  0  0  0  0  0
   10.5480    3.5659   23.7016 C   0  0  0  0  0  0  0  0  0  0  0  0
   11.9292    1.8264   22.7511 C   0  0  0  0  0  0  0  0  0  0  0  0
    9.5890   -2.4950   23.2210 C   0  0  0  0  0  0  0  0  0  0  0  0
    8.2550   -1.0010   24.5520 C   0  0  0  0  0  0  0  0  0  0  0  0
    9.1890   -3.5540   24.0140 C   0  0  0  0  0  0  0  0  0  0  0  0
    7.8700   -2.0610   25.3550 C   0  0  0  0  0  0  0  0  0  0  0  0
   10.7476    2.2242   23.3766 C   0  0  0  0  0  0  0  0  0  0  0  0
    9.1280   -1.2090   23.4870 C   0  0  0  0  0  0  0  0  0  0  0  0
    8.3450   -3.3440   25.0980 C   0  0  0  0  0  0  0  0  0  0  0  0
    5.7970    0.9500   18.6730 C   0  0  0  0  0  0  0  0  0  0  0  0
    7.2710   -0.1460   19.8310 C   0  0  0  0  0  0  0  0  0  0  0  0
    4.6610    1.7170   18.4380 C   0  0  0  0  0  0  0  0  0  0  0  0
    3.8860    2.1050   19.5250 C   0  0  0  0  0  0  0  0  0  0  0  0
    4.2460    1.7520   20.8250 C   0  0  0  0  0  0  0  0  0  0  0  0
    5.3890    1.0010   21.0690 C   0  0  0  0  0  0  0  0  0  0  0  0
    7.6593   -4.3764   27.2873 C   0  0  0  0  0  0  0  0  0  0  0  0
    9.0430    0.2380   21.4940 C   0  0  0  0  0  0  0  0  0  0  0  0
    8.4366   -6.7643   27.6026 C   0  0  0  0  0  0  0  0  0  0  0  0
    9.6841    1.2008   23.7022 C   0  0  0  0  0  0  0  0  0  0  0  0
    7.3105   -5.7656   27.8005 C   0  0  0  0  0  0  0  0  0  0  0  0
    9.5820   -0.1080   22.7000 C   0  0  2  0  0  0  0  0  0  0  0  0
    6.7100    0.3850   17.8100 N   0  0  0  0  0  0  0  0  0  0  0  0
    7.5840   -0.2700   18.5160 N   0  0  0  0  0  0  0  0  0  0  0  0
    6.1460    0.6070   19.9750 N   0  0  0  0  0  0  0  0  0  0  0  0
    7.9771   -4.4057   25.9197 N   0  0  0  0  0  0  0  0  0  0  0  0
    8.0950   -0.7700   20.8440 N   0  0  0  0  0  0  0  0  0  0  0  0
    7.6481   -3.3912   28.0178 O   0  0  0  0  0  0  0  0  0  0  0  0
    9.2950    1.3000   20.9480 O   0  0  0  0  0  0  0  0  0  0  0  0
   13.4755    4.8474   22.5405 H   0  0  0  0  0  0  0  0  0  0  0  0
   11.3739    5.5547   23.6533 H   0  0  0  0  0  0  0  0  0  0  0  0
   13.8306    2.4605   21.9627 H   0  0  0  0  0  0  0  0  0  0  0  0
    9.6306    3.8849   24.1892 H   0  0  0  0  0  0  0  0  0  0  0  0
   12.0935    0.7832   22.4943 H   0  0  0  0  0  0  0  0  0  0  0  0
   10.2695   -2.6718   22.3873 H   0  0  0  0  0  0  0  0  0  0  0  0
    7.8712   -0.0014   24.7587 H   0  0  0  0  0  0  0  0  0  0  0  0
    9.5431   -4.5618   23.7801 H   0  0  0  0  0  0  0  0  0  0  0  0
    7.1923   -1.8823   26.1912 H   0  0  0  0  0  0  0  0  0  0  0  0
    4.3710    2.0145   17.4451 H   0  0  0  0  0  0  0  0  0  0  0  0
    2.9929    2.6891   19.3400 H   0  0  0  0  0  0  0  0  0  0  0  0
    3.6320    2.0596   21.6814 H   0  0  0  0  0  0  0  0  0  0  0  0
    5.6863    0.7288   22.0575 H   0  0  0  0  0  0  0  0  0  0  0  0
    8.6972   -6.8584   26.5433 H   0  0  0  0  0  0  0  0  0  0  0  0
    8.1397   -7.7513   27.9706 H   0  0  0  0  0  0  0  0  0  0  0  0
    9.3367   -6.4542   28.1435 H   0  0  0  0  0  0  0  0  0  0  0  0
    9.7989    0.8777   24.7451 H   0  0  0  0  0  0  0  0  0  0  0  0
    8.7078    1.7032   23.6586 H   0  0  0  0  0  0  0  0  0  0  0  0
    7.0709   -5.6917   28.8675 H   0  0  0  0  0  0  0  0  0  0  0  0
    6.4147   -6.1156   27.2747 H   0  0  0  0  0  0  0  0  0  0  0  0
   10.7539   -0.2760   22.5528 H   0  0  0  0  0  0  0  0  0  0  0  0
    7.9296   -5.3298   25.4748 H   0  0  0  0  0  0  0  0  0  0  0  0
    8.0706   -1.6189   21.0730 H   0  0  0  0  0  0  0  0  0  0  0  0
  1  2  1  0  0  0  0
  1  3  2  0  0  0  0
  2  4  2  0  0  0  0
  3  5  1  0  0  0  0
  4 10  1  0  0  0  0
  5 10  2  0  0  0  0
  6  8  2  0  0  0  0
  6 11  1  0  0  0  0
  7  9  1  0  0  0  0
  7 11  2  0  0  0  0
  8 12  1  0  0  0  0
  9 12  2  0  0  0  0
 10 22  1  0  0  0  0
 11 24  1  0  0  0  0
 12 28  1  0  0  0  0
 13 15  1  0  0  0  0
 13 25  2  0  0  0  0
 13 27  1  0  0  0  0
 14 26  2  0  0  0  0
 14 27  1  0  0  0  0
 14 29  1  0  0  0  0
 15 16  2  0  0  0  0
 16 17  1  0  0  0  0
 17 18  2  0  0  0  0
 18 27  1  0  0  0  0
 19 23  1  0  0  0  0
 19 28  1  0  0  0  0
 19 30  2  0  0  0  0
 20 24  1  0  0  0  0
 20 29  1  0  0  0  0
 20 31  2  0  0  0  0
 21 23  1  0  0  0  0
 22 24  1  6  0  0  0
 25 26  1  0  0  0  0
  1 32  1  0  0  0  0
  2 33  1  0  0  0  0
  3 34  1  0  0  0  0
  4 35  1  0  0  0  0
  5 36  1  0  0  0  0
  6 37  1  0  0  0  0
  7 38  1  0  0  0  0
  8 39  1  0  0  0  0
  9 40  1  0  0  0  0
 15 41  1  0  0  0  0
 16 42  1  0  0  0  0
 17 43  1  0  0  0  0
 18 44  1  0  0  0  0
 21 45  1  0  0  0  0
 21 46  1  0  0  0  0
 21 47  1  0  0  0  0
 22 48  1  0  0  0  0
 22 49  1  0  0  0  0
 23 50  1  0  0  0  0
 23 51  1  0  0  0  0
 24 52  1  0  0  0  0
 28 53  1  0  0  0  0
 29 54  1  0  0  0  0
M  END
> <clash_score>
0

> <docking_score>
-8.201042175292969

> <overlap_score>
0.824623167514801

$$$$
BENZO_312_1
  -OEChem-08232013543D

 51 54  0     1  0  0  0  0  0999 V2000
    9.5890   -2.4950   23.2210 C   0  0  0  0  0  0  0  0  0  0  0  0
    8.2550   -1.0010   24.5520 C   0  0  0  0  0  0  0  0  0  0  0  0
    9.1890   -3.5540   24.0140 C   0  0  0  0  0  0  0  0  0  0  0  0
    7.8700   -2.0610   25.3550 C   0  0  0  0  0  0  0  0  0  0  0  0
   13.2019   -0.5524   24.2528 C   0  0  0  0  0  0  0  0  0  0  0  0
   13.6437   -0.1439   25.4920 C   0  0  0  0  0  0  0  0  0  0  0  0
   11.4901    0.8830   24.8943 C   0  0  0  0  0  0  0  0  0  0  0  0
    9.1280   -1.2090   23.4870 C   0  0  0  0  0  0  0  0  0  0  0  0
   11.9545    0.0425   23.9064 C   0  0  0  0  0  0  0  0  0  0  0  0
    8.3450   -3.3440   25.0980 C   0  0  0  0  0  0  0  0  0  0  0  0
    5.7970    0.9500   18.6730 C   0  0  0  0  0  0  0  0  0  0  0  0
    7.2710   -0.1460   19.8310 C   0  0  0  0  0  0  0  0  0  0  0  0
    4.6610    1.7170   18.4380 C   0  0  0  0  0  0  0  0  0  0  0  0
    3.8860    2.1050   19.5250 C   0  0  0  0  0  0  0  0  0  0  0  0
    4.2460    1.7520   20.8250 C   0  0  0  0  0  0  0  0  0  0  0  0
    5.3890    1.0010   21.0690 C   0  0  0  0  0  0  0  0  0  0  0  0
    7.6593   -4.3764   27.2873 C   0  0  0  0  0  0  0  0  0  0  0  0
    9.0430    0.2380   21.4940 C   0  0  0  0  0  0  0  0  0  0  0  0
    6.9938   -5.7803   29.2852 C   0  0  0  0  0  0  0  0  0  0  0  0
   11.2273   -0.2199   22.6076 C   0  0  0  0  0  0  0  0  0  0  0  0
    7.3105   -5.7656   27.8005 C   0  0  0  0  0  0  0  0  0  0  0  0
    9.5820   -0.1080   22.7000 C   0  0  1  0  0  0  0  0  0  0  0  0
    6.7100    0.3850   17.8100 N   0  0  0  0  0  0  0  0  0  0  0  0
    7.5840   -0.2700   18.5160 N   0  0  0  0  0  0  0  0  0  0  0  0
    6.1460    0.6070   19.9750 N   0  0  0  0  0  0  0  0  0  0  0  0
    7.9771   -4.4057   25.9197 N   0  0  0  0  0  0  0  0  0  0  0  0
    8.0950   -0.7700   20.8440 N   0  0  0  0  0  0  0  0  0  0  0  0
    7.6481   -3.3912   28.0178 O   0  0  0  0  0  0  0  0  0  0  0  0
    9.2950    1.3000   20.9480 O   0  0  0  0  0  0  0  0  0  0  0  0
   12.5564    0.9525   26.2323 S   0  0  0  0  0  0  0  0  0  0  0  0
   10.2695   -2.6718   22.3873 H   0  0  0  0  0  0  0  0  0  0  0  0
    7.8712   -0.0014   24.7587 H   0  0  0  0  0  0  0  0  0  0  0  0
    9.5431   -4.5618   23.7801 H   0  0  0  0  0  0  0  0  0  0  0  0
    7.1923   -1.8823   26.1912 H   0  0  0  0  0  0  0  0  0  0  0  0
   13.7507   -1.2457   23.6279 H   0  0  0  0  0  0  0  0  0  0  0  0
   14.5524   -0.4373   25.9983 H   0  0  0  0  0  0  0  0  0  0  0  0
   10.5759    1.4603   24.8987 H   0  0  0  0  0  0  0  0  0  0  0  0
    4.3710    2.0145   17.4451 H   0  0  0  0  0  0  0  0  0  0  0  0
    2.9929    2.6891   19.3400 H   0  0  0  0  0  0  0  0  0  0  0  0
    3.6320    2.0596   21.6814 H   0  0  0  0  0  0  0  0  0  0  0  0
    5.6863    0.7288   22.0575 H   0  0  0  0  0  0  0  0  0  0  0  0
    7.8426   -5.4138   29.8720 H   0  0  0  0  0  0  0  0  0  0  0  0
    6.7636   -6.7979   29.6157 H   0  0  0  0  0  0  0  0  0  0  0  0
    6.1311   -5.1444   29.5096 H   0  0  0  0  0  0  0  0  0  0  0  0
   11.5534    0.5103   21.8555 H   0  0  0  0  0  0  0  0  0  0  0  0
   11.5573   -1.1968   22.2276 H   0  0  0  0  0  0  0  0  0  0  0  0
    6.4455   -6.1365   27.2387 H   0  0  0  0  0  0  0  0  0  0  0  0
    8.1568   -6.4327   27.6005 H   0  0  0  0  0  0  0  0  0  0  0  0
    9.5374    0.8439   23.4178 H   0  0  0  0  0  0  0  0  0  0  0  0
    7.9296   -5.3298   25.4748 H   0  0  0  0  0  0  0  0  0  0  0  0
    8.0706   -1.6189   21.0730 H   0  0  0  0  0  0  0  0  0  0  0  0
  1  3  2  0  0  0  0
  1  8  1  0  0  0  0
  2  4  1  0  0  0  0
  2  8  2  0  0  0  0
  3 10  1  0  0  0  0
  4 10  2  0  0  0  0
  5  6  2  0  0  0  0
  5  9  1  0  0  0  0
  6 30  1  0  0  0  0
  7  9  2  0  0  0  0
  7 30  1  0  0  0  0
  8 22  1  0  0  0  0
  9 20  1  0  0  0  0
 10 26  1  0  0  0  0
 11 13  1  0  0  0  0
 11 23  2  0  0  0  0
 11 25  1  0  0  0  0
 12 24  2  0  0  0  0
 12 25  1  0  0  0  0
 12 27  1  0  0  0  0
 13 14  2  0  0  0  0
 14 15  1  0  0  0  0
 15 16  2  0  0  0  0
 16 25  1  0  0  0  0
 17 21  1  0  0  0  0
 17 26  1  0  0  0  0
 17 28  2  0  0  0  0
 18 22  1  0  0  0  0
 18 27  1  0  0  0  0
 18 29  2  0  0  0  0
 19 21  1  0  0  0  0
 20 22  1  1  0  0  0
 23 24  1  0  0  0  0
  1 31  1  0  0  0  0
  2 32  1  0  0  0  0
  3 33  1  0  0  0  0
  4 34  1  0  0  0  0
  5 35  1  0  0  0  0
  6 36  1  0  0  0  0
  7 37  1  0  0  0  0
 13 38  1  0  0  0  0
 14 39  1  0  0  0  0
 15 40  1  0  0  0  0
 16 41  1  0  0  0  0
 19 42  1  0  0  0  0
 19 43  1  0  0  0  0
 19 44  1  0  0  0  0
 20 45  1  0  0  0  0
 20 46  1  0  0  0  0
 21 47  1  0  0  0  0
 21 48  1  0  0  0  0
 22 49  1  0  0  0  0
 26 50  1  0  0  0  0
 27 51  1  0  0  0  0
M  END
> <clash_score>
0.7028806920012587

> <docking_score>
-7.001445293426514

> <overlap_score>
0.9106522798538208

$$$$
BENZO_312_2
  -OEChem-08232013543D

 51 54  0     1  0  0  0  0  0999 V2000
    9.5890   -2.4950   23.2210 C   0  0  0  0  0  0  0  0  0  0  0  0
    8.2550   -1.0010   24.5520 C   0  0  0  0  0  0  0  0  0  0  0  0
    9.1890   -3.5540   24.0140 C   0  0  0  0  0  0  0  0  0  0  0  0
    7.8700   -2.0610   25.3550 C   0  0  0  0  0  0  0  0  0  0  0  0
   12.0333    1.8963   22.8573 C   0  0  0  0  0  0  0  0  0  0  0  0
   12.8088    3.0159   22.6507 C   0  0  0  0  0  0  0  0  0  0  0  0
   10.5895    3.5820   23.5474 C   0  0  0  0  0  0  0  0  0  0  0  0
    9.1280   -1.2090   23.4870 C   0  0  0  0  0  0  0  0  0  0  0  0
   10.7476    2.2242   23.3766 C   0  0  0  0  0  0  0  0  0  0  0  0
    8.3450   -3.3440   25.0980 C   0  0  0  0  0  0  0  0  0  0  0  0
    5.7970    0.9500   18.6730 C   0  0  0  0  0  0  0  0  0  0  0  0
    7.2710   -0.1460   19.8310 C   0  0  0  0  0  0  0  0  0  0  0  0
    4.6610    1.7170   18.4380 C   0  0  0  0  0  0  0  0  0  0  0  0
    3.8860    2.1050   19.5250 C   0  0  0  0  0  0  0  0  0  0  0  0
    4.2460    1.7520   20.8250 C   0  0  0  0  0  0  0  0  0  0  0  0
    5.3890    1.0010   21.0690 C   0  0  0  0  0  0  0  0  0  0  0  0
    8.2013   -4.5561   27.2978 C   0  0  0  0  0  0  0  0  0  0  0  0
    9.0430    0.2380   21.4940 C   0  0  0  0  0  0  0  0  0  0  0  0
    7.8866   -6.0874   29.2882 C   0  0  0  0  0  0  0  0  0  0  0  0
    9.6841    1.2008   23.7022 C   0  0  0  0  0  0  0  0  0  0  0  0
    7.6334   -5.8726   27.8068 C   0  0  0  0  0  0  0  0  0  0  0  0
    9.5820   -0.1080   22.7000 C   0  0  2  0  0  0  0  0  0  0  0  0
    6.7100    0.3850   17.8100 N   0  0  0  0  0  0  0  0  0  0  0  0
    7.5840   -0.2700   18.5160 N   0  0  0  0  0  0  0  0  0  0  0  0
    6.1460    0.6070   19.9750 N   0  0  0  0  0  0  0  0  0  0  0  0
    7.9771   -4.4057   25.9197 N   0  0  0  0  0  0  0  0  0  0  0  0
    8.0950   -0.7700   20.8440 N   0  0  0  0  0  0  0  0  0  0  0  0
    8.7722   -3.7637   28.0399 O   0  0  0  0  0  0  0  0  0  0  0  0
    9.2950    1.3000   20.9480 O   0  0  0  0  0  0  0  0  0  0  0  0
   11.9872    4.4551   23.0822 S   0  0  0  0  0  0  0  0  0  0  0  0
   10.2695   -2.6718   22.3873 H   0  0  0  0  0  0  0  0  0  0  0  0
    7.8712   -0.0014   24.7587 H   0  0  0  0  0  0  0  0  0  0  0  0
    9.5431   -4.5618   23.7801 H   0  0  0  0  0  0  0  0  0  0  0  0
    7.1923   -1.8823   26.1912 H   0  0  0  0  0  0  0  0  0  0  0  0
   12.3762    0.8915   22.6449 H   0  0  0  0  0  0  0  0  0  0  0  0
   13.8186    3.0577   22.2676 H   0  0  0  0  0  0  0  0  0  0  0  0
    9.7225    4.1070   23.9238 H   0  0  0  0  0  0  0  0  0  0  0  0
    4.3710    2.0145   17.4451 H   0  0  0  0  0  0  0  0  0  0  0  0
    2.9929    2.6891   19.3400 H   0  0  0  0  0  0  0  0  0  0  0  0
    3.6320    2.0596   21.6814 H   0  0  0  0  0  0  0  0  0  0  0  0
    5.6863    0.7288   22.0575 H   0  0  0  0  0  0  0  0  0  0  0  0
    8.9592   -6.0819   29.5087 H   0  0  0  0  0  0  0  0  0  0  0  0
    7.4764   -7.0498   29.6093 H   0  0  0  0  0  0  0  0  0  0  0  0
    7.4171   -5.2990   29.8857 H   0  0  0  0  0  0  0  0  0  0  0  0
    9.7989    0.8777   24.7451 H   0  0  0  0  0  0  0  0  0  0  0  0
    8.7078    1.7032   23.6586 H   0  0  0  0  0  0  0  0  0  0  0  0
    6.5542   -5.8827   27.6154 H   0  0  0  0  0  0  0  0  0  0  0  0
    8.0873   -6.6908   27.2359 H   0  0  0  0  0  0  0  0  0  0  0  0
   10.7539   -0.2760   22.5528 H   0  0  0  0  0  0  0  0  0  0  0  0
    7.4775   -5.1796   25.4664 H   0  0  0  0  0  0  0  0  0  0  0  0
    8.0706   -1.6189   21.0730 H   0  0  0  0  0  0  0  0  0  0  0  0
  1  3  2  0  0  0  0
  1  8  1  0  0  0  0
  2  4  1  0  0  0  0
  2  8  2  0  0  0  0
  3 10  1  0  0  0  0
  4 10  2  0  0  0  0
  5  6  2  0  0  0  0
  5  9  1  0  0  0  0
  6 30  1  0  0  0  0
  7  9  2  0  0  0  0
  7 30  1  0  0  0  0
  8 22  1  0  0  0  0
  9 20  1  0  0  0  0
 10 26  1  0  0  0  0
 11 13  1  0  0  0  0
 11 23  2  0  0  0  0
 11 25  1  0  0  0  0
 12 24  2  0  0  0  0
 12 25  1  0  0  0  0
 12 27  1  0  0  0  0
 13 14  2  0  0  0  0
 14 15  1  0  0  0  0
 15 16  2  0  0  0  0
 16 25  1  0  0  0  0
 17 21  1  0  0  0  0
 17 26  1  0  0  0  0
 17 28  2  0  0  0  0
 18 22  1  0  0  0  0
 18 27  1  0  0  0  0
 18 29  2  0  0  0  0
 19 21  1  0  0  0  0
 20 22  1  6  0  0  0
 23 24  1  0  0  0  0
  1 31  1  0  0  0  0
  2 32  1  0  0  0  0
  3 33  1  0  0  0  0
  4 34  1  0  0  0  0
  5 35  1  0  0  0  0
  6 36  1  0  0  0  0
  7 37  1  0  0  0  0
 13 38  1  0  0  0  0
 14 39  1  0  0  0  0
 15 40  1  0  0  0  0
 16 41  1  0  0  0  0
 19 42  1  0  0  0  0
 19 43  1  0  0  0  0
 19 44  1  0  0  0  0
 20 45  1  0  0  0  0
 20 46  1  0  0  0  0
 21 47  1  0  0  0  0
 21 48  1  0  0  0  0
 22 49  1  0  0  0  0
 26 50  1  0  0  0  0
 27 51  1  0  0  0  0
M  END
> <clash_score>
0

> <docking_score>
-8.504469871520996

> <overlap_score>
0.8424199223518372

$$$$
BENZO_314_1
  -OEChem-08232013543D

 54 57  0     1  0  0  0  0  0999 V2000
   13.7696   -1.3331   25.2040 C   0  0  0  0  0  0  0  0  0  0  0  0
   13.1260   -1.1377   23.9821 C   0  0  0  0  0  0  0  0  0  0  0  0
    9.5890   -2.4950   23.2210 C   0  0  0  0  0  0  0  0  0  0  0  0
    8.2550   -1.0010   24.5520 C   0  0  0  0  0  0  0  0  0  0  0  0
    9.1890   -3.5540   24.0140 C   0  0  0  0  0  0  0  0  0  0  0  0
    7.8700   -2.0610   25.3550 C   0  0  0  0  0  0  0  0  0  0  0  0
   13.2109   -0.8232   26.3761 C   0  0  0  0  0  0  0  0  0  0  0  0
   11.3649    0.0776   25.1042 C   0  0  0  0  0  0  0  0  0  0  0  0
    9.1280   -1.2090   23.4870 C   0  0  0  0  0  0  0  0  0  0  0  0
   11.9236   -0.4323   23.9322 C   0  0  0  0  0  0  0  0  0  0  0  0
    8.3450   -3.3440   25.0980 C   0  0  0  0  0  0  0  0  0  0  0  0
   12.0086   -0.1179   26.3261 C   0  0  0  0  0  0  0  0  0  0  0  0
    5.7970    0.9500   18.6730 C   0  0  0  0  0  0  0  0  0  0  0  0
    7.2710   -0.1460   19.8310 C   0  0  0  0  0  0  0  0  0  0  0  0
    4.6610    1.7170   18.4380 C   0  0  0  0  0  0  0  0  0  0  0  0
    3.8860    2.1050   19.5250 C   0  0  0  0  0  0  0  0  0  0  0  0
    4.2460    1.7520   20.8250 C   0  0  0  0  0  0  0  0  0  0  0  0
    5.3890    1.0010   21.0690 C   0  0  0  0  0  0  0  0  0  0  0  0
    7.6593   -4.3764   27.2873 C   0  0  0  0  0  0  0  0  0  0  0  0
    9.0430    0.2380   21.4940 C   0  0  0  0  0  0  0  0  0  0  0  0
    8.4366   -6.7643   27.6026 C   0  0  0  0  0  0  0  0  0  0  0  0
   11.2273   -0.2199   22.6076 C   0  0  0  0  0  0  0  0  0  0  0  0
    7.3105   -5.7656   27.8005 C   0  0  0  0  0  0  0  0  0  0  0  0
    9.5820   -0.1080   22.7000 C   0  0  1  0  0  0  0  0  0  0  0  0
    6.7100    0.3850   17.8100 N   0  0  0  0  0  0  0  0  0  0  0  0
    7.5840   -0.2700   18.5160 N   0  0  0  0  0  0  0  0  0  0  0  0
    6.1460    0.6070   19.9750 N   0  0  0  0  0  0  0  0  0  0  0  0
    7.9771   -4.4057   25.9197 N   0  0  0  0  0  0  0  0  0  0  0  0
    8.0950   -0.7700   20.8440 N   0  0  0  0  0  0  0  0  0  0  0  0
    7.6481   -3.3912   28.0178 O   0  0  0  0  0  0  0  0  0  0  0  0
    9.2950    1.3000   20.9480 O   0  0  0  0  0  0  0  0  0  0  0  0
   11.3203    0.5119   27.7723 Cl  0  0  0  0  0  0  0  0  0  0  0  0
   14.7060   -1.8822   25.2425 H   0  0  0  0  0  0  0  0  0  0  0  0
   13.5686   -1.5384   23.0739 H   0  0  0  0  0  0  0  0  0  0  0  0
   10.2695   -2.6718   22.3873 H   0  0  0  0  0  0  0  0  0  0  0  0
    7.8712   -0.0014   24.7587 H   0  0  0  0  0  0  0  0  0  0  0  0
    9.5431   -4.5618   23.7801 H   0  0  0  0  0  0  0  0  0  0  0  0
    7.1923   -1.8823   26.1912 H   0  0  0  0  0  0  0  0  0  0  0  0
   13.7238   -0.9829   27.3213 H   0  0  0  0  0  0  0  0  0  0  0  0
   10.4270    0.6263   25.0600 H   0  0  0  0  0  0  0  0  0  0  0  0
    4.3710    2.0145   17.4451 H   0  0  0  0  0  0  0  0  0  0  0  0
    2.9929    2.6891   19.3400 H   0  0  0  0  0  0  0  0  0  0  0  0
    3.6320    2.0596   21.6814 H   0  0  0  0  0  0  0  0  0  0  0  0
    5.6863    0.7288   22.0575 H   0  0  0  0  0  0  0  0  0  0  0  0
    8.6972   -6.8584   26.5433 H   0  0  0  0  0  0  0  0  0  0  0  0
    8.1397   -7.7513   27.9706 H   0  0  0  0  0  0  0  0  0  0  0  0
    9.3367   -6.4542   28.1435 H   0  0  0  0  0  0  0  0  0  0  0  0
   11.5842    0.7150   22.1561 H   0  0  0  0  0  0  0  0  0  0  0  0
   11.5525   -1.0164   21.9239 H   0  0  0  0  0  0  0  0  0  0  0  0
    7.0709   -5.6917   28.8675 H   0  0  0  0  0  0  0  0  0  0  0  0
    6.4147   -6.1156   27.2747 H   0  0  0  0  0  0  0  0  0  0  0  0
    9.5374    0.8439   23.4178 H   0  0  0  0  0  0  0  0  0  0  0  0
    7.9296   -5.3298   25.4748 H   0  0  0  0  0  0  0  0  0  0  0  0
    8.0706   -1.6189   21.0730 H   0  0  0  0  0  0  0  0  0  0  0  0
  1  2  2  0  0  0  0
  1  7  1  0  0  0  0
  2 10  1  0  0  0  0
  3  5  2  0  0  0  0
  3  9  1  0  0  0  0
  4  6  1  0  0  0  0
  4  9  2  0  0  0  0
  5 11  1  0  0  0  0
  6 11  2  0  0  0  0
  7 12  2  0  0  0  0
  8 10  2  0  0  0  0
  8 12  1  0  0  0  0
  9 24  1  0  0  0  0
 10 22  1  0  0  0  0
 11 28  1  0  0  0  0
 12 32  1  0  0  0  0
 13 15  1  0  0  0  0
 13 25  2  0  0  0  0
 13 27  1  0  0  0  0
 14 26  2  0  0  0  0
 14 27  1  0  0  0  0
 14 29  1  0  0  0  0
 15 16  2  0  0  0  0
 16 17  1  0  0  0  0
 17 18  2  0  0  0  0
 18 27  1  0  0  0  0
 19 23  1  0  0  0  0
 19 28  1  0  0  0  0
 19 30  2  0  0  0  0
 20 24  1  0  0  0  0
 20 29  1  0  0  0  0
 20 31  2  0  0  0  0
 21 23  1  0  0  0  0
 22 24  1  1  0  0  0
 25 26  1  0  0  0  0
  1 33  1  0  0  0  0
  2 34  1  0  0  0  0
  3 35  1  0  0  0  0
  4 36  1  0  0  0  0
  5 37  1  0  0  0  0
  6 38  1  0  0  0  0
  7 39  1  0  0  0  0
  8 40  1  0  0  0  0
 15 41  1  0  0  0  0
 16 42  1  0  0  0  0
 17 43  1  0  0  0  0
 18 44  1  0  0  0  0
 21 45  1  0  0  0  0
 21 46  1  0  0  0  0
 21 47  1  0  0  0  0
 22 48  1  0  0  0  0
 22 49  1  0  0  0  0
 23 50  1  0  0  0  0
 23 51  1  0  0  0  0
 24 52  1  0  0  0  0
 28 53  1  0  0  0  0
 29 54  1  0  0  0  0
M  END
> <clash_score>
0.7019253910792591

> <docking_score>
-4.883345603942871

> <overlap_score>
0.9139779210090637

$$$$
BENZO_315_1
  -OEChem-08232013543D

 54 57  0     1  0  0  0  0  0999 V2000
    9.5890   -2.4950   23.2210 C   0  0  0  0  0  0  0  0  0  0  0  0
    8.2550   -1.0010   24.5520 C   0  0  0  0  0  0  0  0  0  0  0  0
    9.1890   -3.5540   24.0140 C   0  0  0  0  0  0  0  0  0  0  0  0
    7.8700   -2.0610   25.3550 C   0  0  0  0  0  0  0  0  0  0  0  0
   13.3049   -0.5618   24.1710 C   0  0  0  0  0  0  0  0  0  0  0  0
   11.3488   -0.5397   25.1750 C   0  0  0  0  0  0  0  0  0  0  0  0
    9.1280   -1.2090   23.4870 C   0  0  0  0  0  0  0  0  0  0  0  0
   11.9236   -0.4323   23.9322 C   0  0  0  0  0  0  0  0  0  0  0  0
    8.3450   -3.3440   25.0980 C   0  0  0  0  0  0  0  0  0  0  0  0
    5.7970    0.9500   18.6730 C   0  0  0  0  0  0  0  0  0  0  0  0
    7.2710   -0.1460   19.8310 C   0  0  0  0  0  0  0  0  0  0  0  0
    4.6610    1.7170   18.4380 C   0  0  0  0  0  0  0  0  0  0  0  0
    3.8860    2.1050   19.5250 C   0  0  0  0  0  0  0  0  0  0  0  0
    4.2460    1.7520   20.8250 C   0  0  0  0  0  0  0  0  0  0  0  0
    5.3890    1.0010   21.0690 C   0  0  0  0  0  0  0  0  0  0  0  0
    7.6593   -4.3764   27.2873 C   0  0  0  0  0  0  0  0  0  0  0  0
    9.0430    0.2380   21.4940 C   0  0  0  0  0  0  0  0  0  0  0  0
    6.9938   -5.7803   29.2852 C   0  0  0  0  0  0  0  0  0  0  0  0
   12.2730   -0.8833   27.4785 C   0  0  0  0  0  0  0  0  0  0  0  0
   11.2273   -0.2199   22.6076 C   0  0  0  0  0  0  0  0  0  0  0  0
    7.3105   -5.7656   27.8005 C   0  0  0  0  0  0  0  0  0  0  0  0
    9.5820   -0.1080   22.7000 C   0  0  1  0  0  0  0  0  0  0  0  0
   13.5904   -0.7378   25.4638 N   0  0  0  0  0  0  0  0  0  0  0  0
    6.7100    0.3850   17.8100 N   0  0  0  0  0  0  0  0  0  0  0  0
    7.5840   -0.2700   18.5160 N   0  0  0  0  0  0  0  0  0  0  0  0
   12.3805   -0.7196   26.0486 N   0  0  0  0  0  0  0  0  0  0  0  0
    6.1460    0.6070   19.9750 N   0  0  0  0  0  0  0  0  0  0  0  0
    7.9771   -4.4057   25.9197 N   0  0  0  0  0  0  0  0  0  0  0  0
    8.0950   -0.7700   20.8440 N   0  0  0  0  0  0  0  0  0  0  0  0
    7.6481   -3.3912   28.0178 O   0  0  0  0  0  0  0  0  0  0  0  0
    9.2950    1.3000   20.9480 O   0  0  0  0  0  0  0  0  0  0  0  0
   10.2695   -2.6718   22.3873 H   0  0  0  0  0  0  0  0  0  0  0  0
    7.8712   -0.0014   24.7587 H   0  0  0  0  0  0  0  0  0  0  0  0
    9.5431   -4.5618   23.7801 H   0  0  0  0  0  0  0  0  0  0  0  0
    7.1923   -1.8823   26.1912 H   0  0  0  0  0  0  0  0  0  0  0  0
   14.1173   -0.5347   23.4586 H   0  0  0  0  0  0  0  0  0  0  0  0
   10.3191   -0.5030   25.5040 H   0  0  0  0  0  0  0  0  0  0  0  0
    4.3710    2.0145   17.4451 H   0  0  0  0  0  0  0  0  0  0  0  0
    2.9929    2.6891   19.3400 H   0  0  0  0  0  0  0  0  0  0  0  0
    3.6320    2.0596   21.6814 H   0  0  0  0  0  0  0  0  0  0  0  0
    5.6863    0.7288   22.0575 H   0  0  0  0  0  0  0  0  0  0  0  0
    7.8426   -5.4138   29.8720 H   0  0  0  0  0  0  0  0  0  0  0  0
    6.7636   -6.7979   29.6157 H   0  0  0  0  0  0  0  0  0  0  0  0
    6.1311   -5.1444   29.5096 H   0  0  0  0  0  0  0  0  0  0  0  0
   12.1730   -1.9514   27.6891 H   0  0  0  0  0  0  0  0  0  0  0  0
   13.1690   -0.4811   27.9595 H   0  0  0  0  0  0  0  0  0  0  0  0
   11.3970   -0.3376   27.8399 H   0  0  0  0  0  0  0  0  0  0  0  0
   11.5842    0.7150   22.1561 H   0  0  0  0  0  0  0  0  0  0  0  0
   11.5525   -1.0164   21.9239 H   0  0  0  0  0  0  0  0  0  0  0  0
    6.4455   -6.1365   27.2387 H   0  0  0  0  0  0  0  0  0  0  0  0
    8.1568   -6.4327   27.6005 H   0  0  0  0  0  0  0  0  0  0  0  0
    9.5374    0.8439   23.4178 H   0  0  0  0  0  0  0  0  0  0  0  0
    7.9296   -5.3298   25.4748 H   0  0  0  0  0  0  0  0  0  0  0  0
    8.0706   -1.6189   21.0730 H   0  0  0  0  0  0  0  0  0  0  0  0
  1  3  2  0  0  0  0
  1  7  1  0  0  0  0
  2  4  1  0  0  0  0
  2  7  2  0  0  0  0
  3  9  1  0  0  0  0
  4  9  2  0  0  0  0
  5  8  1  0  0  0  0
  5 23  2  0  0  0  0
  6  8  2  0  0  0  0
  6 26  1  0  0  0  0
  7 22  1  0  0  0  0
  8 20  1  0  0  0  0
  9 28  1  0  0  0  0
 10 12  1  0  0  0  0
 10 24  2  0  0  0  0
 10 27  1  0  0  0  0
 11 25  2  0  0  0  0
 11 27  1  0  0  0  0
 11 29  1  0  0  0  0
 12 13  2  0  0  0  0
 13 14  1  0  0  0  0
 14 15  2  0  0  0  0
 15 27  1  0  0  0  0
 16 21  1  0  0  0  0
 16 28  1  0  0  0  0
 16 30  2  0  0  0  0
 17 22  1  0  0  0  0
 17 29  1  0  0  0  0
 17 31  2  0  0  0  0
 18 21  1  0  0  0  0
 19 26  1  0  0  0  0
 20 22  1  1  0  0  0
 23 26  1  0  0  0  0
 24 25  1  0  0  0  0
  1 32  1  0  0  0  0
  2 33  1  0  0  0  0
  3 34  1  0  0  0  0
  4 35  1  0  0  0  0
  5 36  1  0  0  0  0
  6 37  1  0  0  0  0
 12 38  1  0  0  0  0
 13 39  1  0  0  0  0
 14 40  1  0  0  0  0
 15 41  1  0  0  0  0
 18 42  1  0  0  0  0
 18 43  1  0  0  0  0
 18 44  1  0  0  0  0
 19 45  1  0  0  0  0
 19 46  1  0  0  0  0
 19 47  1  0  0  0  0
 20 48  1  0  0  0  0
 20 49  1  0  0  0  0
 21 50  1  0  0  0  0
 21 51  1  0  0  0  0
 22 52  1  0  0  0  0
 28 53  1  0  0  0  0
 29 54  1  0  0  0  0
M  END
> <clash_score>
0.6627991276998005

> <docking_score>
-7.063809871673584

> <overlap_score>
0.9125046133995056

$$$$
BENZO_314_2
  -OEChem-08232013543D

 54 57  0     1  0  0  0  0  0999 V2000
   13.0071    3.0433   23.6223 C   0  0  0  0  0  0  0  0  0  0  0  0
   12.0249    2.0998   23.9233 C   0  0  0  0  0  0  0  0  0  0  0  0
    9.5890   -2.4950   23.2210 C   0  0  0  0  0  0  0  0  0  0  0  0
    8.2550   -1.0010   24.5520 C   0  0  0  0  0  0  0  0  0  0  0  0
    9.1890   -3.5540   24.0140 C   0  0  0  0  0  0  0  0  0  0  0  0
    7.8700   -2.0610   25.3550 C   0  0  0  0  0  0  0  0  0  0  0  0
   12.7122    4.1112   22.7748 C   0  0  0  0  0  0  0  0  0  0  0  0
   10.4526    3.2920   22.5291 C   0  0  0  0  0  0  0  0  0  0  0  0
    9.1280   -1.2090   23.4870 C   0  0  0  0  0  0  0  0  0  0  0  0
   10.7476    2.2242   23.3766 C   0  0  0  0  0  0  0  0  0  0  0  0
    8.3450   -3.3440   25.0980 C   0  0  0  0  0  0  0  0  0  0  0  0
   11.4349    4.2355   22.2282 C   0  0  0  0  0  0  0  0  0  0  0  0
    5.7970    0.9500   18.6730 C   0  0  0  0  0  0  0  0  0  0  0  0
    7.2710   -0.1460   19.8310 C   0  0  0  0  0  0  0  0  0  0  0  0
    4.6610    1.7170   18.4380 C   0  0  0  0  0  0  0  0  0  0  0  0
    3.8860    2.1050   19.5250 C   0  0  0  0  0  0  0  0  0  0  0  0
    4.2460    1.7520   20.8250 C   0  0  0  0  0  0  0  0  0  0  0  0
    5.3890    1.0010   21.0690 C   0  0  0  0  0  0  0  0  0  0  0  0
    8.2013   -4.5561   27.2978 C   0  0  0  0  0  0  0  0  0  0  0  0
    9.0430    0.2380   21.4940 C   0  0  0  0  0  0  0  0  0  0  0  0
    7.8866   -6.0874   29.2882 C   0  0  0  0  0  0  0  0  0  0  0  0
    9.6841    1.2008   23.7022 C   0  0  0  0  0  0  0  0  0  0  0  0
    7.6334   -5.8726   27.8068 C   0  0  0  0  0  0  0  0  0  0  0  0
    9.5820   -0.1080   22.7000 C   0  0  2  0  0  0  0  0  0  0  0  0
    6.7100    0.3850   17.8100 N   0  0  0  0  0  0  0  0  0  0  0  0
    7.5840   -0.2700   18.5160 N   0  0  0  0  0  0  0  0  0  0  0  0
    6.1460    0.6070   19.9750 N   0  0  0  0  0  0  0  0  0  0  0  0
    7.9771   -4.4057   25.9197 N   0  0  0  0  0  0  0  0  0  0  0  0
    8.0950   -0.7700   20.8440 N   0  0  0  0  0  0  0  0  0  0  0  0
    8.7722   -3.7637   28.0399 O   0  0  0  0  0  0  0  0  0  0  0  0
    9.2950    1.3000   20.9480 O   0  0  0  0  0  0  0  0  0  0  0  0
   11.0719    5.5527   21.1817 Cl  0  0  0  0  0  0  0  0  0  0  0  0
   14.0017    2.9460   24.0481 H   0  0  0  0  0  0  0  0  0  0  0  0
   12.2636    1.2709   24.5845 H   0  0  0  0  0  0  0  0  0  0  0  0
   10.2695   -2.6718   22.3873 H   0  0  0  0  0  0  0  0  0  0  0  0
    7.8712   -0.0014   24.7587 H   0  0  0  0  0  0  0  0  0  0  0  0
    9.5431   -4.5618   23.7801 H   0  0  0  0  0  0  0  0  0  0  0  0
    7.1923   -1.8823   26.1912 H   0  0  0  0  0  0  0  0  0  0  0  0
   13.4877    4.8389   22.5488 H   0  0  0  0  0  0  0  0  0  0  0  0
    9.4551    3.3848   22.1058 H   0  0  0  0  0  0  0  0  0  0  0  0
    4.3710    2.0145   17.4451 H   0  0  0  0  0  0  0  0  0  0  0  0
    2.9929    2.6891   19.3400 H   0  0  0  0  0  0  0  0  0  0  0  0
    3.6320    2.0596   21.6814 H   0  0  0  0  0  0  0  0  0  0  0  0
    5.6863    0.7288   22.0575 H   0  0  0  0  0  0  0  0  0  0  0  0
    8.9592   -6.0819   29.5087 H   0  0  0  0  0  0  0  0  0  0  0  0
    7.4764   -7.0498   29.6093 H   0  0  0  0  0  0  0  0  0  0  0  0
    7.4171   -5.2990   29.8857 H   0  0  0  0  0  0  0  0  0  0  0  0
    9.7989    0.8777   24.7451 H   0  0  0  0  0  0  0  0  0  0  0  0
    8.7078    1.7032   23.6586 H   0  0  0  0  0  0  0  0  0  0  0  0
    6.5542   -5.8827   27.6154 H   0  0  0  0  0  0  0  0  0  0  0  0
    8.0873   -6.6908   27.2359 H   0  0  0  0  0  0  0  0  0  0  0  0
   10.7539   -0.2760   22.5528 H   0  0  0  0  0  0  0  0  0  0  0  0
    7.4775   -5.1796   25.4664 H   0  0  0  0  0  0  0  0  0  0  0  0
    8.0706   -1.6189   21.0730 H   0  0  0  0  0  0  0  0  0  0  0  0
  1  2  2  0  0  0  0
  1  7  1  0  0  0  0
  2 10  1  0  0  0  0
  3  5  2  0  0  0  0
  3  9  1  0  0  0  0
  4  6  1  0  0  0  0
  4  9  2  0  0  0  0
  5 11  1  0  0  0  0
  6 11  2  0  0  0  0
  7 12  2  0  0  0  0
  8 10  2  0  0  0  0
  8 12  1  0  0  0  0
  9 24  1  0  0  0  0
 10 22  1  0  0  0  0
 11 28  1  0  0  0  0
 12 32  1  0  0  0  0
 13 15  1  0  0  0  0
 13 25  2  0  0  0  0
 13 27  1  0  0  0  0
 14 26  2  0  0  0  0
 14 27  1  0  0  0  0
 14 29  1  0  0  0  0
 15 16  2  0  0  0  0
 16 17  1  0  0  0  0
 17 18  2  0  0  0  0
 18 27  1  0  0  0  0
 19 23  1  0  0  0  0
 19 28  1  0  0  0  0
 19 30  2  0  0  0  0
 20 24  1  0  0  0  0
 20 29  1  0  0  0  0
 20 31  2  0  0  0  0
 21 23  1  0  0  0  0
 22 24  1  6  0  0  0
 25 26  1  0  0  0  0
  1 33  1  0  0  0  0
  2 34  1  0  0  0  0
  3 35  1  0  0  0  0
  4 36  1  0  0  0  0
  5 37  1  0  0  0  0
  6 38  1  0  0  0  0
  7 39  1  0  0  0  0
  8 40  1  0  0  0  0
 15 41  1  0  0  0  0
 16 42  1  0  0  0  0
 17 43  1  0  0  0  0
 18 44  1  0  0  0  0
 21 45  1  0  0  0  0
 21 46  1  0  0  0  0
 21 47  1  0  0  0  0
 22 48  1  0  0  0  0
 22 49  1  0  0  0  0
 23 50  1  0  0  0  0
 23 51  1  0  0  0  0
 24 52  1  0  0  0  0
 28 53  1  0  0  0  0
 29 54  1  0  0  0  0
M  END
> <clash_score>
0.7409538305065825

> <docking_score>
-5.444729804992676

> <overlap_score>
0.8378922939300537

$$$$
BENZO_317_2
  -OEChem-08232013543D

 59 63  0     1  0  0  0  0  0999 V2000
   13.2443   -0.7791   26.3598 C   0  0  0  0  0  0  0  0  0  0  0  0
   13.7975   -1.2944   25.1876 C   0  0  0  0  0  0  0  0  0  0  0  0
   12.0380   -0.0803   26.3132 C   0  0  0  0  0  0  0  0  0  0  0  0
   13.1445   -1.1108   23.9688 C   0  0  0  0  0  0  0  0  0  0  0  0
   11.3850    0.1033   25.0944 C   0  0  0  0  0  0  0  0  0  0  0  0
    9.5890   -2.4950   23.2210 C   0  0  0  0  0  0  0  0  0  0  0  0
    8.2550   -1.0010   24.5520 C   0  0  0  0  0  0  0  0  0  0  0  0
    9.1890   -3.5540   24.0140 C   0  0  0  0  0  0  0  0  0  0  0  0
    7.8700   -2.0610   25.3550 C   0  0  0  0  0  0  0  0  0  0  0  0
   11.9382   -0.4119   23.9222 C   0  0  0  0  0  0  0  0  0  0  0  0
    9.1280   -1.2090   23.4870 C   0  0  0  0  0  0  0  0  0  0  0  0
    8.3450   -3.3440   25.0980 C   0  0  0  0  0  0  0  0  0  0  0  0
    5.7970    0.9500   18.6730 C   0  0  0  0  0  0  0  0  0  0  0  0
    7.2710   -0.1460   19.8310 C   0  0  0  0  0  0  0  0  0  0  0  0
    4.6610    1.7170   18.4380 C   0  0  0  0  0  0  0  0  0  0  0  0
    3.8860    2.1050   19.5250 C   0  0  0  0  0  0  0  0  0  0  0  0
    4.2460    1.7520   20.8250 C   0  0  0  0  0  0  0  0  0  0  0  0
    5.3890    1.0010   21.0690 C   0  0  0  0  0  0  0  0  0  0  0  0
    9.0430    0.2380   21.4940 C   0  0  0  0  0  0  0  0  0  0  0  0
    7.9496   -4.9537   28.7345 C   0  0  0  0  0  0  0  0  0  0  0  0
    6.8919   -4.0607   28.0818 C   0  0  0  0  0  0  0  0  0  0  0  0
    9.2470   -4.9693   27.9230 C   0  0  0  0  0  0  0  0  0  0  0  0
    6.6889   -4.4385   26.6147 C   0  0  0  0  0  0  0  0  0  0  0  0
    8.9871   -5.3207   26.4549 C   0  0  0  0  0  0  0  0  0  0  0  0
   11.2301   -0.2124   22.6019 C   0  0  0  0  0  0  0  0  0  0  0  0
    9.5820   -0.1080   22.7000 C   0  0  2  0  0  0  0  0  0  0  0  0
    6.7100    0.3850   17.8100 N   0  0  0  0  0  0  0  0  0  0  0  0
    7.5840   -0.2700   18.5160 N   0  0  0  0  0  0  0  0  0  0  0  0
    6.1460    0.6070   19.9750 N   0  0  0  0  0  0  0  0  0  0  0  0
    7.9769   -4.4027   25.9163 N   0  0  0  0  0  0  0  0  0  0  0  0
    8.0950   -0.7700   20.8440 N   0  0  0  0  0  0  0  0  0  0  0  0
    9.2950    1.3000   20.9480 O   0  0  0  0  0  0  0  0  0  0  0  0
   13.7523   -0.9233   27.3089 H   0  0  0  0  0  0  0  0  0  0  0  0
   14.7362   -1.8395   25.2238 H   0  0  0  0  0  0  0  0  0  0  0  0
   11.6065    0.3201   27.2258 H   0  0  0  0  0  0  0  0  0  0  0  0
   13.5830   -1.5156   23.0605 H   0  0  0  0  0  0  0  0  0  0  0  0
   10.4456    0.6492   25.0677 H   0  0  0  0  0  0  0  0  0  0  0  0
   10.2684   -2.6719   22.3867 H   0  0  0  0  0  0  0  0  0  0  0  0
    7.8717   -0.0016   24.7596 H   0  0  0  0  0  0  0  0  0  0  0  0
    9.5443   -4.5616   23.7817 H   0  0  0  0  0  0  0  0  0  0  0  0
    7.1921   -1.8821   26.1908 H   0  0  0  0  0  0  0  0  0  0  0  0
    4.3710    2.0145   17.4451 H   0  0  0  0  0  0  0  0  0  0  0  0
    2.9929    2.6891   19.3400 H   0  0  0  0  0  0  0  0  0  0  0  0
    3.6320    2.0596   21.6814 H   0  0  0  0  0  0  0  0  0  0  0  0
    5.6863    0.7288   22.0575 H   0  0  0  0  0  0  0  0  0  0  0  0
    8.1558   -4.5961   29.7550 H   0  0  0  0  0  0  0  0  0  0  0  0
    7.5611   -5.9778   28.8324 H   0  0  0  0  0  0  0  0  0  0  0  0
    5.9459   -4.1594   28.6209 H   0  0  0  0  0  0  0  0  0  0  0  0
    7.2011   -3.0160   28.1536 H   0  0  0  0  0  0  0  0  0  0  0  0
    9.7290   -3.9880   27.9846 H   0  0  0  0  0  0  0  0  0  0  0  0
    9.9437   -5.6964   28.3562 H   0  0  0  0  0  0  0  0  0  0  0  0
    6.2543   -5.4402   26.5659 H   0  0  0  0  0  0  0  0  0  0  0  0
    5.9909   -3.7397   26.1451 H   0  0  0  0  0  0  0  0  0  0  0  0
    9.9128   -5.2367   25.8843 H   0  0  0  0  0  0  0  0  0  0  0  0
    8.6365   -6.3517   26.3987 H   0  0  0  0  0  0  0  0  0  0  0  0
   11.5792    0.7206   22.1405 H   0  0  0  0  0  0  0  0  0  0  0  0
   11.5533   -1.0125   21.9215 H   0  0  0  0  0  0  0  0  0  0  0  0
    9.5402    0.8508   23.4127 H   0  0  0  0  0  0  0  0  0  0  0  0
    8.0917   -1.6083   21.0911 H   0  0  0  0  0  0  0  0  0  0  0  0
  1  2  1  0  0  0  0
  1  3  2  0  0  0  0
  2  4  2  0  0  0  0
  3  5  1  0  0  0  0
  4 10  1  0  0  0  0
  5 10  2  0  0  0  0
  6  8  2  0  0  0  0
  6 11  1  0  0  0  0
  7  9  1  0  0  0  0
  7 11  2  0  0  0  0
  8 12  1  0  0  0  0
  9 12  2  0  0  0  0
 10 25  1  0  0  0  0
 11 26  1  0  0  0  0
 12 30  1  0  0  0  0
 13 15  1  0  0  0  0
 13 27  2  0  0  0  0
 13 29  1  0  0  0  0
 14 28  2  0  0  0  0
 14 29  1  0  0  0  0
 14 31  1  0  0  0  0
 15 16  2  0  0  0  0
 16 17  1  0  0  0  0
 17 18  2  0  0  0  0
 18 29  1  0  0  0  0
 19 26  1  6  0  0  0
 19 31  1  0  0  0  0
 19 32  2  0  0  0  0
 20 21  1  0  0  0  0
 20 22  1  0  0  0  0
 21 23  1  0  0  0  0
 22 24  1  0  0  0  0
 23 30  1  0  0  0  0
 24 30  1  0  0  0  0
 25 26  1  0  0  0  0
 27 28  1  0  0  0  0
  1 33  1  0  0  0  0
  2 34  1  0  0  0  0
  3 35  1  0  0  0  0
  4 36  1  0  0  0  0
  5 37  1  0  0  0  0
  6 38  1  0  0  0  0
  7 39  1  0  0  0  0
  8 40  1  0  0  0  0
  9 41  1  0  0  0  0
 15 42  1  0  0  0  0
 16 43  1  0  0  0  0
 17 44  1  0  0  0  0
 18 45  1  0  0  0  0
 20 46  1  0  0  0  0
 20 47  1  0  0  0  0
 21 48  1  0  0  0  0
 21 49  1  0  0  0  0
 22 50  1  0  0  0  0
 22 51  1  0  0  0  0
 23 52  1  0  0  0  0
 23 53  1  0  0  0  0
 24 54  1  0  0  0  0
 24 55  1  0  0  0  0
 25 56  1  0  0  0  0
 25 57  1  0  0  0  0
 26 58  1  0  0  0  0
 31 59  1  0  0  0  0
M  END
> <clash_score>
0

> <docking_score>
-6.41495418548584

> <overlap_score>
0.9206491112709045

$$$$
BENZO_317_1
  -OEChem-08232013543D

 59 63  0     1  0  0  0  0  0999 V2000
   12.7867    1.1712   26.6741 C   0  0  0  0  0  0  0  0  0  0  0  0
   11.5946    1.8532   26.9175 C   0  0  0  0  0  0  0  0  0  0  0  0
   12.9730    0.5019   25.4645 C   0  0  0  0  0  0  0  0  0  0  0  0
   10.5886    1.8659   25.9513 C   0  0  0  0  0  0  0  0  0  0  0  0
   11.9671    0.5146   24.4983 C   0  0  0  0  0  0  0  0  0  0  0  0
    9.5890   -2.4950   23.2210 C   0  0  0  0  0  0  0  0  0  0  0  0
    8.2550   -1.0010   24.5520 C   0  0  0  0  0  0  0  0  0  0  0  0
    9.1890   -3.5540   24.0140 C   0  0  0  0  0  0  0  0  0  0  0  0
    7.8700   -2.0610   25.3550 C   0  0  0  0  0  0  0  0  0  0  0  0
   10.7749    1.1966   24.7417 C   0  0  0  0  0  0  0  0  0  0  0  0
    9.1280   -1.2090   23.4870 C   0  0  0  0  0  0  0  0  0  0  0  0
    8.3450   -3.3440   25.0980 C   0  0  0  0  0  0  0  0  0  0  0  0
    5.7970    0.9500   18.6730 C   0  0  0  0  0  0  0  0  0  0  0  0
    7.2710   -0.1460   19.8310 C   0  0  0  0  0  0  0  0  0  0  0  0
    4.6610    1.7170   18.4380 C   0  0  0  0  0  0  0  0  0  0  0  0
    3.8860    2.1050   19.5250 C   0  0  0  0  0  0  0  0  0  0  0  0
    4.2460    1.7520   20.8250 C   0  0  0  0  0  0  0  0  0  0  0  0
    5.3890    1.0010   21.0690 C   0  0  0  0  0  0  0  0  0  0  0  0
    9.0430    0.2380   21.4940 C   0  0  0  0  0  0  0  0  0  0  0  0
    7.9496   -4.9537   28.7345 C   0  0  0  0  0  0  0  0  0  0  0  0
    6.8919   -4.0607   28.0818 C   0  0  0  0  0  0  0  0  0  0  0  0
    9.2470   -4.9693   27.9230 C   0  0  0  0  0  0  0  0  0  0  0  0
    6.6889   -4.4385   26.6147 C   0  0  0  0  0  0  0  0  0  0  0  0
    8.9871   -5.3207   26.4549 C   0  0  0  0  0  0  0  0  0  0  0  0
    9.6852    1.2097   23.6944 C   0  0  0  0  0  0  0  0  0  0  0  0
    9.5820   -0.1080   22.7000 C   0  0  1  0  0  0  0  0  0  0  0  0
    6.7100    0.3850   17.8100 N   0  0  0  0  0  0  0  0  0  0  0  0
    7.5840   -0.2700   18.5160 N   0  0  0  0  0  0  0  0  0  0  0  0
    6.1460    0.6070   19.9750 N   0  0  0  0  0  0  0  0  0  0  0  0
    7.9769   -4.4027   25.9163 N   0  0  0  0  0  0  0  0  0  0  0  0
    8.0950   -0.7700   20.8440 N   0  0  0  0  0  0  0  0  0  0  0  0
    9.2950    1.3000   20.9480 O   0  0  0  0  0  0  0  0  0  0  0  0
   13.5704    1.1625   27.4260 H   0  0  0  0  0  0  0  0  0  0  0  0
   11.4498    2.3753   27.8588 H   0  0  0  0  0  0  0  0  0  0  0  0
   13.9015   -0.0282   25.2743 H   0  0  0  0  0  0  0  0  0  0  0  0
    9.6629    2.3997   26.1496 H   0  0  0  0  0  0  0  0  0  0  0  0
   12.1210   -0.0097   23.5589 H   0  0  0  0  0  0  0  0  0  0  0  0
   10.2684   -2.6719   22.3867 H   0  0  0  0  0  0  0  0  0  0  0  0
    7.8717   -0.0016   24.7596 H   0  0  0  0  0  0  0  0  0  0  0  0
    9.5443   -4.5616   23.7817 H   0  0  0  0  0  0  0  0  0  0  0  0
    7.1921   -1.8821   26.1908 H   0  0  0  0  0  0  0  0  0  0  0  0
    4.3710    2.0145   17.4451 H   0  0  0  0  0  0  0  0  0  0  0  0
    2.9929    2.6891   19.3400 H   0  0  0  0  0  0  0  0  0  0  0  0
    3.6320    2.0596   21.6814 H   0  0  0  0  0  0  0  0  0  0  0  0
    5.6863    0.7288   22.0575 H   0  0  0  0  0  0  0  0  0  0  0  0
    8.1558   -4.5961   29.7550 H   0  0  0  0  0  0  0  0  0  0  0  0
    7.5611   -5.9778   28.8324 H   0  0  0  0  0  0  0  0  0  0  0  0
    5.9459   -4.1594   28.6209 H   0  0  0  0  0  0  0  0  0  0  0  0
    7.2011   -3.0160   28.1536 H   0  0  0  0  0  0  0  0  0  0  0  0
    9.7290   -3.9880   27.9846 H   0  0  0  0  0  0  0  0  0  0  0  0
    9.9437   -5.6964   28.3562 H   0  0  0  0  0  0  0  0  0  0  0  0
    6.2543   -5.4402   26.5659 H   0  0  0  0  0  0  0  0  0  0  0  0
    5.9909   -3.7397   26.1451 H   0  0  0  0  0  0  0  0  0  0  0  0
    9.9128   -5.2367   25.8843 H   0  0  0  0  0  0  0  0  0  0  0  0
    8.6365   -6.3517   26.3987 H   0  0  0  0  0  0  0  0  0  0  0  0
    8.7197    1.4079   24.1780 H   0  0  0  0  0  0  0  0  0  0  0  0
    9.8623    2.0699   23.0340 H   0  0  0  0  0  0  0  0  0  0  0  0
   10.7567   -0.2690   22.5478 H   0  0  0  0  0  0  0  0  0  0  0  0
    8.0917   -1.6083   21.0911 H   0  0  0  0  0  0  0  0  0  0  0  0
  1  2  1  0  0  0  0
  1  3  2  0  0  0  0
  2  4  2  0  0  0  0
  3  5  1  0  0  0  0
  4 10  1  0  0  0  0
  5 10  2  0  0  0  0
  6  8  2  0  0  0  0
  6 11  1  0  0  0  0
  7  9  1  0  0  0  0
  7 11  2  0  0  0  0
  8 12  1  0  0  0  0
  9 12  2  0  0  0  0
 10 25  1  0  0  0  0
 11 26  1  0  0  0  0
 12 30  1  0  0  0  0
 13 15  1  0  0  0  0
 13 27  2  0  0  0  0
 13 29  1  0  0  0  0
 14 28  2  0  0  0  0
 14 29  1  0  0  0  0
 14 31  1  0  0  0  0
 15 16  2  0  0  0  0
 16 17  1  0  0  0  0
 17 18  2  0  0  0  0
 18 29  1  0  0  0  0
 19 26  1  1  0  0  0
 19 31  1  0  0  0  0
 19 32  2  0  0  0  0
 20 21  1  0  0  0  0
 20 22  1  0  0  0  0
 21 23  1  0  0  0  0
 22 24  1  0  0  0  0
 23 30  1  0  0  0  0
 24 30  1  0  0  0  0
 25 26  1  0  0  0  0
 27 28  1  0  0  0  0
  1 33  1  0  0  0  0
  2 34  1  0  0  0  0
  3 35  1  0  0  0  0
  4 36  1  0  0  0  0
  5 37  1  0  0  0  0
  6 38  1  0  0  0  0
  7 39  1  0  0  0  0
  8 40  1  0  0  0  0
  9 41  1  0  0  0  0
 15 42  1  0  0  0  0
 16 43  1  0  0  0  0
 17 44  1  0  0  0  0
 18 45  1  0  0  0  0
 20 46  1  0  0  0  0
 20 47  1  0  0  0  0
 21 48  1  0  0  0  0
 21 49  1  0  0  0  0
 22 50  1  0  0  0  0
 22 51  1  0  0  0  0
 23 52  1  0  0  0  0
 23 53  1  0  0  0  0
 24 54  1  0  0  0  0
 24 55  1  0  0  0  0
 25 56  1  0  0  0  0
 25 57  1  0  0  0  0
 26 58  1  0  0  0  0
 31 59  1  0  0  0  0
M  END
> <clash_score>
4.412390761190569

> <docking_score>
-4.511194229125977

> <overlap_score>
0.8484475016593933

$$$$
BENZO_316_1
  -OEChem-08232013543D

 56 60  0     1  0  0  0  0  0999 V2000
    9.5890   -2.4950   23.2210 C   0  0  0  0  0  0  0  0  0  0  0  0
    8.2550   -1.0010   24.5520 C   0  0  0  0  0  0  0  0  0  0  0  0
    9.1890   -3.5540   24.0140 C   0  0  0  0  0  0  0  0  0  0  0  0
    7.8700   -2.0610   25.3550 C   0  0  0  0  0  0  0  0  0  0  0  0
   12.1512    0.9670   24.4534 C   0  0  0  0  0  0  0  0  0  0  0  0
   12.9313    1.0078   25.5880 C   0  0  0  0  0  0  0  0  0  0  0  0
   10.5554    1.4038   26.0859 C   0  0  0  0  0  0  0  0  0  0  0  0
    9.1280   -1.2090   23.4870 C   0  0  0  0  0  0  0  0  0  0  0  0
   10.7749    1.1966   24.7417 C   0  0  0  0  0  0  0  0  0  0  0  0
    8.3450   -3.3440   25.0980 C   0  0  0  0  0  0  0  0  0  0  0  0
    5.7970    0.9500   18.6730 C   0  0  0  0  0  0  0  0  0  0  0  0
    7.2710   -0.1460   19.8310 C   0  0  0  0  0  0  0  0  0  0  0  0
    4.6610    1.7170   18.4380 C   0  0  0  0  0  0  0  0  0  0  0  0
    3.8860    2.1050   19.5250 C   0  0  0  0  0  0  0  0  0  0  0  0
    4.2460    1.7520   20.8250 C   0  0  0  0  0  0  0  0  0  0  0  0
    5.3890    1.0010   21.0690 C   0  0  0  0  0  0  0  0  0  0  0  0
    9.0430    0.2380   21.4940 C   0  0  0  0  0  0  0  0  0  0  0  0
    7.5761   -4.8248   28.7286 C   0  0  0  0  0  0  0  0  0  0  0  0
    8.9786   -4.7540   28.1202 C   0  0  0  0  0  0  0  0  0  0  0  0
    6.5567   -4.0681   27.8739 C   0  0  0  0  0  0  0  0  0  0  0  0
    8.9617   -5.1961   26.6571 C   0  0  0  0  0  0  0  0  0  0  0  0
    6.6010   -4.5235   26.4120 C   0  0  0  0  0  0  0  0  0  0  0  0
    9.6852    1.2097   23.6944 C   0  0  0  0  0  0  0  0  0  0  0  0
    9.5820   -0.1080   22.7000 C   0  0  1  0  0  0  0  0  0  0  0  0
    6.7100    0.3850   17.8100 N   0  0  0  0  0  0  0  0  0  0  0  0
    7.5840   -0.2700   18.5160 N   0  0  0  0  0  0  0  0  0  0  0  0
    6.1460    0.6070   19.9750 N   0  0  0  0  0  0  0  0  0  0  0  0
    7.9769   -4.4028   25.9163 N   0  0  0  0  0  0  0  0  0  0  0  0
    8.0950   -0.7700   20.8440 N   0  0  0  0  0  0  0  0  0  0  0  0
    9.2950    1.3000   20.9480 O   0  0  0  0  0  0  0  0  0  0  0  0
   12.0050    1.3216   26.9937 S   0  0  0  0  0  0  0  0  0  0  0  0
   10.2684   -2.6719   22.3867 H   0  0  0  0  0  0  0  0  0  0  0  0
    7.8717   -0.0016   24.7596 H   0  0  0  0  0  0  0  0  0  0  0  0
    9.5443   -4.5616   23.7817 H   0  0  0  0  0  0  0  0  0  0  0  0
    7.1921   -1.8821   26.1908 H   0  0  0  0  0  0  0  0  0  0  0  0
   12.5530    0.7806   23.4654 H   0  0  0  0  0  0  0  0  0  0  0  0
   14.0007    0.8676   25.6589 H   0  0  0  0  0  0  0  0  0  0  0  0
    9.6149    1.5987   26.5824 H   0  0  0  0  0  0  0  0  0  0  0  0
    4.3710    2.0145   17.4451 H   0  0  0  0  0  0  0  0  0  0  0  0
    2.9929    2.6891   19.3400 H   0  0  0  0  0  0  0  0  0  0  0  0
    3.6320    2.0596   21.6814 H   0  0  0  0  0  0  0  0  0  0  0  0
    5.6863    0.7288   22.0575 H   0  0  0  0  0  0  0  0  0  0  0  0
    7.2686   -5.8772   28.8258 H   0  0  0  0  0  0  0  0  0  0  0  0
    7.5913   -4.4060   29.7452 H   0  0  0  0  0  0  0  0  0  0  0  0
    9.3572   -3.7308   28.1906 H   0  0  0  0  0  0  0  0  0  0  0  0
    9.6566   -5.3928   28.6900 H   0  0  0  0  0  0  0  0  0  0  0  0
    5.5511   -4.2278   28.2766 H   0  0  0  0  0  0  0  0  0  0  0  0
    6.7568   -2.9917   27.9288 H   0  0  0  0  0  0  0  0  0  0  0  0
    9.9607   -5.0572   26.2357 H   0  0  0  0  0  0  0  0  0  0  0  0
    8.7084   -6.2581   26.5936 H   0  0  0  0  0  0  0  0  0  0  0  0
    6.2641   -5.5580   26.3358 H   0  0  0  0  0  0  0  0  0  0  0  0
    5.9273   -3.8947   25.8292 H   0  0  0  0  0  0  0  0  0  0  0  0
    8.7197    1.4079   24.1780 H   0  0  0  0  0  0  0  0  0  0  0  0
    9.8623    2.0699   23.0340 H   0  0  0  0  0  0  0  0  0  0  0  0
   10.7567   -0.2690   22.5478 H   0  0  0  0  0  0  0  0  0  0  0  0
    8.0917   -1.6083   21.0911 H   0  0  0  0  0  0  0  0  0  0  0  0
  1  3  2  0  0  0  0
  1  8  1  0  0  0  0
  2  4  1  0  0  0  0
  2  8  2  0  0  0  0
  3 10  1  0  0  0  0
  4 10  2  0  0  0  0
  5  6  2  0  0  0  0
  5  9  1  0  0  0  0
  6 31  1  0  0  0  0
  7  9  2  0  0  0  0
  7 31  1  0  0  0  0
  8 24  1  0  0  0  0
  9 23  1  0  0  0  0
 10 28  1  0  0  0  0
 11 13  1  0  0  0  0
 11 25  2  0  0  0  0
 11 27  1  0  0  0  0
 12 26  2  0  0  0  0
 12 27  1  0  0  0  0
 12 29  1  0  0  0  0
 13 14  2  0  0  0  0
 14 15  1  0  0  0  0
 15 16  2  0  0  0  0
 16 27  1  0  0  0  0
 17 24  1  1  0  0  0
 17 29  1  0  0  0  0
 17 30  2  0  0  0  0
 18 19  1  0  0  0  0
 18 20  1  0  0  0  0
 19 21  1  0  0  0  0
 20 22  1  0  0  0  0
 21 28  1  0  0  0  0
 22 28  1  0  0  0  0
 23 24  1  0  0  0  0
 25 26  1  0  0  0  0
  1 32  1  0  0  0  0
  2 33  1  0  0  0  0
  3 34  1  0  0  0  0
  4 35  1  0  0  0  0
  5 36  1  0  0  0  0
  6 37  1  0  0  0  0
  7 38  1  0  0  0  0
 13 39  1  0  0  0  0
 14 40  1  0  0  0  0
 15 41  1  0  0  0  0
 16 42  1  0  0  0  0
 18 43  1  0  0  0  0
 18 44  1  0  0  0  0
 19 45  1  0  0  0  0
 19 46  1  0  0  0  0
 20 47  1  0  0  0  0
 20 48  1  0  0  0  0
 21 49  1  0  0  0  0
 21 50  1  0  0  0  0
 22 51  1  0  0  0  0
 22 52  1  0  0  0  0
 23 53  1  0  0  0  0
 23 54  1  0  0  0  0
 24 55  1  0  0  0  0
 29 56  1  0  0  0  0
M  END
> <clash_score>
2.6880314190474834

> <docking_score>
-4.9211835861206055

> <overlap_score>
0.8419069051742554

$$$$
BENZO_315_2
  -OEChem-08232013543D

 54 57  0     1  0  0  0  0  0999 V2000
    9.5890   -2.4950   23.2210 C   0  0  0  0  0  0  0  0  0  0  0  0
    8.2550   -1.0010   24.5520 C   0  0  0  0  0  0  0  0  0  0  0  0
    9.1890   -3.5540   24.0140 C   0  0  0  0  0  0  0  0  0  0  0  0
    7.8700   -2.0610   25.3550 C   0  0  0  0  0  0  0  0  0  0  0  0
   11.9902    2.0095   22.7507 C   0  0  0  0  0  0  0  0  0  0  0  0
   10.7163    3.5749   23.6235 C   0  0  0  0  0  0  0  0  0  0  0  0
    9.1280   -1.2090   23.4870 C   0  0  0  0  0  0  0  0  0  0  0  0
   10.7476    2.2242   23.3766 C   0  0  0  0  0  0  0  0  0  0  0  0
    8.3450   -3.3440   25.0980 C   0  0  0  0  0  0  0  0  0  0  0  0
    5.7970    0.9500   18.6730 C   0  0  0  0  0  0  0  0  0  0  0  0
    7.2710   -0.1460   19.8310 C   0  0  0  0  0  0  0  0  0  0  0  0
    4.6610    1.7170   18.4380 C   0  0  0  0  0  0  0  0  0  0  0  0
    3.8860    2.1050   19.5250 C   0  0  0  0  0  0  0  0  0  0  0  0
    4.2460    1.7520   20.8250 C   0  0  0  0  0  0  0  0  0  0  0  0
    5.3890    1.0010   21.0690 C   0  0  0  0  0  0  0  0  0  0  0  0
    8.2013   -4.5561   27.2978 C   0  0  0  0  0  0  0  0  0  0  0  0
    9.0430    0.2380   21.4940 C   0  0  0  0  0  0  0  0  0  0  0  0
    7.8866   -6.0874   29.2882 C   0  0  0  0  0  0  0  0  0  0  0  0
   12.3234    5.4461   23.1826 C   0  0  0  0  0  0  0  0  0  0  0  0
    9.6841    1.2008   23.7022 C   0  0  0  0  0  0  0  0  0  0  0  0
    7.6334   -5.8726   27.8068 C   0  0  0  0  0  0  0  0  0  0  0  0
    9.5820   -0.1080   22.7000 C   0  0  2  0  0  0  0  0  0  0  0  0
   12.6971    3.1339   22.6087 N   0  0  0  0  0  0  0  0  0  0  0  0
    6.7100    0.3850   17.8100 N   0  0  0  0  0  0  0  0  0  0  0  0
    7.5840   -0.2700   18.5160 N   0  0  0  0  0  0  0  0  0  0  0  0
   11.8960    4.0681   23.1487 N   0  0  0  0  0  0  0  0  0  0  0  0
    6.1460    0.6070   19.9750 N   0  0  0  0  0  0  0  0  0  0  0  0
    7.9771   -4.4057   25.9197 N   0  0  0  0  0  0  0  0  0  0  0  0
    8.0950   -0.7700   20.8440 N   0  0  0  0  0  0  0  0  0  0  0  0
    8.7722   -3.7637   28.0399 O   0  0  0  0  0  0  0  0  0  0  0  0
    9.2950    1.3000   20.9480 O   0  0  0  0  0  0  0  0  0  0  0  0
   10.2695   -2.6718   22.3873 H   0  0  0  0  0  0  0  0  0  0  0  0
    7.8712   -0.0014   24.7587 H   0  0  0  0  0  0  0  0  0  0  0  0
    9.5431   -4.5618   23.7801 H   0  0  0  0  0  0  0  0  0  0  0  0
    7.1923   -1.8823   26.1912 H   0  0  0  0  0  0  0  0  0  0  0  0
   12.4119    1.0818   22.3906 H   0  0  0  0  0  0  0  0  0  0  0  0
    9.9730    4.2116   24.0840 H   0  0  0  0  0  0  0  0  0  0  0  0
    4.3710    2.0145   17.4451 H   0  0  0  0  0  0  0  0  0  0  0  0
    2.9929    2.6891   19.3400 H   0  0  0  0  0  0  0  0  0  0  0  0
    3.6320    2.0596   21.6814 H   0  0  0  0  0  0  0  0  0  0  0  0
    5.6863    0.7288   22.0575 H   0  0  0  0  0  0  0  0  0  0  0  0
    8.9592   -6.0819   29.5087 H   0  0  0  0  0  0  0  0  0  0  0  0
    7.4764   -7.0498   29.6093 H   0  0  0  0  0  0  0  0  0  0  0  0
    7.4171   -5.2990   29.8857 H   0  0  0  0  0  0  0  0  0  0  0  0
   12.8637    5.6088   24.1189 H   0  0  0  0  0  0  0  0  0  0  0  0
   12.9734    5.6469   22.3264 H   0  0  0  0  0  0  0  0  0  0  0  0
   11.4470    6.0978   23.1275 H   0  0  0  0  0  0  0  0  0  0  0  0
    9.7989    0.8777   24.7451 H   0  0  0  0  0  0  0  0  0  0  0  0
    8.7078    1.7032   23.6586 H   0  0  0  0  0  0  0  0  0  0  0  0
    6.5542   -5.8827   27.6154 H   0  0  0  0  0  0  0  0  0  0  0  0
    8.0873   -6.6908   27.2359 H   0  0  0  0  0  0  0  0  0  0  0  0
   10.7539   -0.2760   22.5528 H   0  0  0  0  0  0  0  0  0  0  0  0
    7.4775   -5.1796   25.4664 H   0  0  0  0  0  0  0  0  0  0  0  0
    8.0706   -1.6189   21.0730 H   0  0  0  0  0  0  0  0  0  0  0  0
  1  3  2  0  0  0  0
  1  7  1  0  0  0  0
  2  4  1  0  0  0  0
  2  7  2  0  0  0  0
  3  9  1  0  0  0  0
  4  9  2  0  0  0  0
  5  8  1  0  0  0  0
  5 23  2  0  0  0  0
  6  8  2  0  0  0  0
  6 26  1  0  0  0  0
  7 22  1  0  0  0  0
  8 20  1  0  0  0  0
  9 28  1  0  0  0  0
 10 12  1  0  0  0  0
 10 24  2  0  0  0  0
 10 27  1  0  0  0  0
 11 25  2  0  0  0  0
 11 27  1  0  0  0  0
 11 29  1  0  0  0  0
 12 13  2  0  0  0  0
 13 14  1  0  0  0  0
 14 15  2  0  0  0  0
 15 27  1  0  0  0  0
 16 21  1  0  0  0  0
 16 28  1  0  0  0  0
 16 30  2  0  0  0  0
 17 22  1  0  0  0  0
 17 29  1  0  0  0  0
 17 31  2  0  0  0  0
 18 21  1  0  0  0  0
 19 26  1  0  0  0  0
 20 22  1  6  0  0  0
 23 26  1  0  0  0  0
 24 25  1  0  0  0  0
  1 32  1  0  0  0  0
  2 33  1  0  0  0  0
  3 34  1  0  0  0  0
  4 35  1  0  0  0  0
  5 36  1  0  0  0  0
  6 37  1  0  0  0  0
 12 38  1  0  0  0  0
 13 39  1  0  0  0  0
 14 40  1  0  0  0  0
 15 41  1  0  0  0  0
 18 42  1  0  0  0  0
 18 43  1  0  0  0  0
 18 44  1  0  0  0  0
 19 45  1  0  0  0  0
 19 46  1  0  0  0  0
 19 47  1  0  0  0  0
 20 48  1  0  0  0  0
 20 49  1  0  0  0  0
 21 50  1  0  0  0  0
 21 51  1  0  0  0  0
 22 52  1  0  0  0  0
 28 53  1  0  0  0  0
 29 54  1  0  0  0  0
M  END
> <clash_score>
0

> <docking_score>
-8.055246353149414

> <overlap_score>
0.8391007781028748

$$$$
BENZO_316_2
  -OEChem-08232013543D

 56 60  0     1  0  0  0  0  0999 V2000
    9.5890   -2.4950   23.2210 C   0  0  0  0  0  0  0  0  0  0  0  0
    8.2550   -1.0010   24.5520 C   0  0  0  0  0  0  0  0  0  0  0  0
    9.1890   -3.5540   24.0140 C   0  0  0  0  0  0  0  0  0  0  0  0
    7.8700   -2.0610   25.3550 C   0  0  0  0  0  0  0  0  0  0  0  0
   13.2184   -0.5267   24.2342 C   0  0  0  0  0  0  0  0  0  0  0  0
   13.6684   -0.1076   25.4669 C   0  0  0  0  0  0  0  0  0  0  0  0
   11.5072    0.9085   24.8781 C   0  0  0  0  0  0  0  0  0  0  0  0
    9.1280   -1.2090   23.4870 C   0  0  0  0  0  0  0  0  0  0  0  0
   11.9665    0.0619   23.8930 C   0  0  0  0  0  0  0  0  0  0  0  0
    8.3450   -3.3440   25.0980 C   0  0  0  0  0  0  0  0  0  0  0  0
    5.7970    0.9500   18.6730 C   0  0  0  0  0  0  0  0  0  0  0  0
    7.2710   -0.1460   19.8310 C   0  0  0  0  0  0  0  0  0  0  0  0
    4.6610    1.7170   18.4380 C   0  0  0  0  0  0  0  0  0  0  0  0
    3.8860    2.1050   19.5250 C   0  0  0  0  0  0  0  0  0  0  0  0
    4.2460    1.7520   20.8250 C   0  0  0  0  0  0  0  0  0  0  0  0
    5.3890    1.0010   21.0690 C   0  0  0  0  0  0  0  0  0  0  0  0
    9.0430    0.2380   21.4940 C   0  0  0  0  0  0  0  0  0  0  0  0
    7.5761   -4.8248   28.7286 C   0  0  0  0  0  0  0  0  0  0  0  0
    8.9786   -4.7540   28.1202 C   0  0  0  0  0  0  0  0  0  0  0  0
    6.5567   -4.0681   27.8739 C   0  0  0  0  0  0  0  0  0  0  0  0
    8.9617   -5.1961   26.6571 C   0  0  0  0  0  0  0  0  0  0  0  0
    6.6010   -4.5235   26.4120 C   0  0  0  0  0  0  0  0  0  0  0  0
   11.2301   -0.2124   22.6019 C   0  0  0  0  0  0  0  0  0  0  0  0
    9.5820   -0.1080   22.7000 C   0  0  2  0  0  0  0  0  0  0  0  0
    6.7100    0.3850   17.8100 N   0  0  0  0  0  0  0  0  0  0  0  0
    7.5840   -0.2700   18.5160 N   0  0  0  0  0  0  0  0  0  0  0  0
    6.1460    0.6070   19.9750 N   0  0  0  0  0  0  0  0  0  0  0  0
    7.9769   -4.4028   25.9163 N   0  0  0  0  0  0  0  0  0  0  0  0
    8.0950   -0.7700   20.8440 N   0  0  0  0  0  0  0  0  0  0  0  0
    9.2950    1.3000   20.9480 O   0  0  0  0  0  0  0  0  0  0  0  0
   12.5835    0.9912   26.2073 S   0  0  0  0  0  0  0  0  0  0  0  0
   10.2684   -2.6719   22.3867 H   0  0  0  0  0  0  0  0  0  0  0  0
    7.8717   -0.0016   24.7596 H   0  0  0  0  0  0  0  0  0  0  0  0
    9.5443   -4.5616   23.7817 H   0  0  0  0  0  0  0  0  0  0  0  0
    7.1921   -1.8821   26.1908 H   0  0  0  0  0  0  0  0  0  0  0  0
   13.7644   -1.2231   23.6104 H   0  0  0  0  0  0  0  0  0  0  0  0
   14.5818   -0.3944   25.9683 H   0  0  0  0  0  0  0  0  0  0  0  0
   10.5914    1.4831   24.8852 H   0  0  0  0  0  0  0  0  0  0  0  0
    4.3710    2.0145   17.4451 H   0  0  0  0  0  0  0  0  0  0  0  0
    2.9929    2.6891   19.3400 H   0  0  0  0  0  0  0  0  0  0  0  0
    3.6320    2.0596   21.6814 H   0  0  0  0  0  0  0  0  0  0  0  0
    5.6863    0.7288   22.0575 H   0  0  0  0  0  0  0  0  0  0  0  0
    7.2686   -5.8772   28.8258 H   0  0  0  0  0  0  0  0  0  0  0  0
    7.5913   -4.4060   29.7452 H   0  0  0  0  0  0  0  0  0  0  0  0
    9.3572   -3.7308   28.1906 H   0  0  0  0  0  0  0  0  0  0  0  0
    9.6566   -5.3928   28.6900 H   0  0  0  0  0  0  0  0  0  0  0  0
    5.5511   -4.2278   28.2766 H   0  0  0  0  0  0  0  0  0  0  0  0
    6.7568   -2.9917   27.9288 H   0  0  0  0  0  0  0  0  0  0  0  0
    9.9607   -5.0572   26.2357 H   0  0  0  0  0  0  0  0  0  0  0  0
    8.7084   -6.2581   26.5936 H   0  0  0  0  0  0  0  0  0  0  0  0
    6.2641   -5.5580   26.3358 H   0  0  0  0  0  0  0  0  0  0  0  0
    5.9273   -3.8947   25.8292 H   0  0  0  0  0  0  0  0  0  0  0  0
   11.5483    0.5130   21.8418 H   0  0  0  0  0  0  0  0  0  0  0  0
   11.5601   -1.1911   22.2267 H   0  0  0  0  0  0  0  0  0  0  0  0
    9.5402    0.8508   23.4127 H   0  0  0  0  0  0  0  0  0  0  0  0
    8.0917   -1.6083   21.0911 H   0  0  0  0  0  0  0  0  0  0  0  0
  1  3  2  0  0  0  0
  1  8  1  0  0  0  0
  2  4  1  0  0  0  0
  2  8  2  0  0  0  0
  3 10  1  0  0  0  0
  4 10  2  0  0  0  0
  5  6  2  0  0  0  0
  5  9  1  0  0  0  0
  6 31  1  0  0  0  0
  7  9  2  0  0  0  0
  7 31  1  0  0  0  0
  8 24  1  0  0  0  0
  9 23  1  0  0  0  0
 10 28  1  0  0  0  0
 11 13  1  0  0  0  0
 11 25  2  0  0  0  0
 11 27  1  0  0  0  0
 12 26  2  0  0  0  0
 12 27  1  0  0  0  0
 12 29  1  0  0  0  0
 13 14  2  0  0  0  0
 14 15  1  0  0  0  0
 15 16  2  0  0  0  0
 16 27  1  0  0  0  0
 17 24  1  6  0  0  0
 17 29  1  0  0  0  0
 17 30  2  0  0  0  0
 18 19  1  0  0  0  0
 18 20  1  0  0  0  0
 19 21  1  0  0  0  0
 20 22  1  0  0  0  0
 21 28  1  0  0  0  0
 22 28  1  0  0  0  0
 23 24  1  0  0  0  0
 25 26  1  0  0  0  0
  1 32  1  0  0  0  0
  2 33  1  0  0  0  0
  3 34  1  0  0  0  0
  4 35  1  0  0  0  0
  5 36  1  0  0  0  0
  6 37  1  0  0  0  0
  7 38  1  0  0  0  0
 13 39  1  0  0  0  0
 14 40  1  0  0  0  0
 15 41  1  0  0  0  0
 16 42  1  0  0  0  0
 18 43  1  0  0  0  0
 18 44  1  0  0  0  0
 19 45  1  0  0  0  0
 19 46  1  0  0  0  0
 20 47  1  0  0  0  0
 20 48  1  0  0  0  0
 21 49  1  0  0  0  0
 21 50  1  0  0  0  0
 22 51  1  0  0  0  0
 22 52  1  0  0  0  0
 23 53  1  0  0  0  0
 23 54  1  0  0  0  0
 24 55  1  0  0  0  0
 29 56  1  0  0  0  0
M  END
> <clash_score>
0.7105916266505203

> <docking_score>
-6.980400085449219

> <overlap_score>
0.9129956364631653

$$$$
BENZO_321_1
  -OEChem-08232013543D

 47 50  0     1  0  0  0  0  0999 V2000
   13.2081   -0.8233   26.3776 C   0  0  0  0  0  0  0  0  0  0  0  0
   13.7678   -1.3337   25.2064 C   0  0  0  0  0  0  0  0  0  0  0  0
   12.0060   -0.1174   26.3261 C   0  0  0  0  0  0  0  0  0  0  0  0
   13.1256   -1.1382   23.9837 C   0  0  0  0  0  0  0  0  0  0  0  0
   11.3638    0.0781   25.1034 C   0  0  0  0  0  0  0  0  0  0  0  0
    9.1890   -3.5540   24.0140 C   0  0  0  0  0  0  0  0  0  0  0  0
    7.8700   -2.0610   25.3550 C   0  0  0  0  0  0  0  0  0  0  0  0
    9.5890   -2.4950   23.2210 C   0  0  0  0  0  0  0  0  0  0  0  0
    8.2550   -1.0010   24.5520 C   0  0  0  0  0  0  0  0  0  0  0  0
    8.3450   -3.3440   25.0980 C   0  0  0  0  0  0  0  0  0  0  0  0
   11.9236   -0.4323   23.9322 C   0  0  0  0  0  0  0  0  0  0  0  0
    9.1280   -1.2090   23.4870 C   0  0  0  0  0  0  0  0  0  0  0  0
    5.7970    0.9500   18.6730 C   0  0  0  0  0  0  0  0  0  0  0  0
    7.2710   -0.1460   19.8310 C   0  0  0  0  0  0  0  0  0  0  0  0
    4.6610    1.7170   18.4380 C   0  0  0  0  0  0  0  0  0  0  0  0
    3.8860    2.1050   19.5250 C   0  0  0  0  0  0  0  0  0  0  0  0
    4.2460    1.7520   20.8250 C   0  0  0  0  0  0  0  0  0  0  0  0
    5.3890    1.0010   21.0690 C   0  0  0  0  0  0  0  0  0  0  0  0
    9.0430    0.2380   21.4940 C   0  0  0  0  0  0  0  0  0  0  0  0
    7.9517   -4.4787   25.9770 C   0  0  0  0  0  0  0  0  0  0  0  0
   11.2273   -0.2199   22.6076 C   0  0  0  0  0  0  0  0  0  0  0  0
    9.5820   -0.1080   22.7000 C   0  0  1  0  0  0  0  0  0  0  0  0
    6.7100    0.3850   17.8100 N   0  0  0  0  0  0  0  0  0  0  0  0
    7.5840   -0.2700   18.5160 N   0  0  0  0  0  0  0  0  0  0  0  0
    6.1460    0.6070   19.9750 N   0  0  0  0  0  0  0  0  0  0  0  0
    8.0950   -0.7700   20.8440 N   0  0  0  0  0  0  0  0  0  0  0  0
    9.2950    1.3000   20.9480 O   0  0  0  0  0  0  0  0  0  0  0  0
   13.7076   -0.9767   27.3297 H   0  0  0  0  0  0  0  0  0  0  0  0
   14.7032   -1.8843   25.2464 H   0  0  0  0  0  0  0  0  0  0  0  0
   11.5694    0.2792   27.2379 H   0  0  0  0  0  0  0  0  0  0  0  0
   13.5692   -1.5394   23.0762 H   0  0  0  0  0  0  0  0  0  0  0  0
   10.4277    0.6294   25.0729 H   0  0  0  0  0  0  0  0  0  0  0  0
    9.5416   -4.5625   23.7818 H   0  0  0  0  0  0  0  0  0  0  0  0
    7.1926   -1.8847   26.1916 H   0  0  0  0  0  0  0  0  0  0  0  0
   10.2688   -2.6720   22.3870 H   0  0  0  0  0  0  0  0  0  0  0  0
    7.8705   -0.0015   24.7579 H   0  0  0  0  0  0  0  0  0  0  0  0
    4.3710    2.0145   17.4451 H   0  0  0  0  0  0  0  0  0  0  0  0
    2.9929    2.6891   19.3400 H   0  0  0  0  0  0  0  0  0  0  0  0
    3.6320    2.0596   21.6814 H   0  0  0  0  0  0  0  0  0  0  0  0
    5.6863    0.7288   22.0575 H   0  0  0  0  0  0  0  0  0  0  0  0
    8.6661   -4.5883   26.8021 H   0  0  0  0  0  0  0  0  0  0  0  0
    6.9508   -4.3263   26.4014 H   0  0  0  0  0  0  0  0  0  0  0  0
    7.9188   -5.4228   25.4175 H   0  0  0  0  0  0  0  0  0  0  0  0
   11.5842    0.7150   22.1561 H   0  0  0  0  0  0  0  0  0  0  0  0
   11.5525   -1.0164   21.9239 H   0  0  0  0  0  0  0  0  0  0  0  0
    9.5374    0.8439   23.4178 H   0  0  0  0  0  0  0  0  0  0  0  0
    8.0706   -1.6189   21.0730 H   0  0  0  0  0  0  0  0  0  0  0  0
  1  2  1  0  0  0  0
  1  3  2  0  0  0  0
  2  4  2  0  0  0  0
  3  5  1  0  0  0  0
  4 11  1  0  0  0  0
  5 11  2  0  0  0  0
  6  8  2  0  0  0  0
  6 10  1  0  0  0  0
  7  9  1  0  0  0  0
  7 10  2  0  0  0  0
  8 12  1  0  0  0  0
  9 12  2  0  0  0  0
 10 20  1  0  0  0  0
 11 21  1  0  0  0  0
 12 22  1  0  0  0  0
 13 15  1  0  0  0  0
 13 23  2  0  0  0  0
 13 25  1  0  0  0  0
 14 24  2  0  0  0  0
 14 25  1  0  0  0  0
 14 26  1  0  0  0  0
 15 16  2  0  0  0  0
 16 17  1  0  0  0  0
 17 18  2  0  0  0  0
 18 25  1  0  0  0  0
 19 22  1  0  0  0  0
 19 26  1  0  0  0  0
 19 27  2  0  0  0  0
 21 22  1  1  0  0  0
 23 24  1  0  0  0  0
  1 28  1  0  0  0  0
  2 29  1  0  0  0  0
  3 30  1  0  0  0  0
  4 31  1  0  0  0  0
  5 32  1  0  0  0  0
  6 33  1  0  0  0  0
  7 34  1  0  0  0  0
  8 35  1  0  0  0  0
  9 36  1  0  0  0  0
 15 37  1  0  0  0  0
 16 38  1  0  0  0  0
 17 39  1  0  0  0  0
 18 40  1  0  0  0  0
 20 41  1  0  0  0  0
 20 42  1  0  0  0  0
 20 43  1  0  0  0  0
 21 44  1  0  0  0  0
 21 45  1  0  0  0  0
 22 46  1  0  0  0  0
 26 47  1  0  0  0  0
M  END
> <clash_score>
0

> <docking_score>
-5.588274955749512

> <overlap_score>
0.8309795260429382

$$$$
BENZO_321_2
  -OEChem-08232013543D

 47 50  0     1  0  0  0  0  0999 V2000
   12.7714    1.1058   26.6955 C   0  0  0  0  0  0  0  0  0  0  0  0
   12.3476    2.3261   26.1695 C   0  0  0  0  0  0  0  0  0  0  0  0
   12.1941   -0.0836   26.2506 C   0  0  0  0  0  0  0  0  0  0  0  0
   11.3464    2.3572   25.1987 C   0  0  0  0  0  0  0  0  0  0  0  0
   11.1930   -0.0526   25.2799 C   0  0  0  0  0  0  0  0  0  0  0  0
    9.1890   -3.5540   24.0140 C   0  0  0  0  0  0  0  0  0  0  0  0
    7.8700   -2.0610   25.3550 C   0  0  0  0  0  0  0  0  0  0  0  0
    9.5890   -2.4950   23.2210 C   0  0  0  0  0  0  0  0  0  0  0  0
    8.2550   -1.0010   24.5520 C   0  0  0  0  0  0  0  0  0  0  0  0
    8.3450   -3.3440   25.0980 C   0  0  0  0  0  0  0  0  0  0  0  0
   10.7691    1.1678   24.7539 C   0  0  0  0  0  0  0  0  0  0  0  0
    9.1280   -1.2090   23.4870 C   0  0  0  0  0  0  0  0  0  0  0  0
    5.7970    0.9500   18.6730 C   0  0  0  0  0  0  0  0  0  0  0  0
    7.2710   -0.1460   19.8310 C   0  0  0  0  0  0  0  0  0  0  0  0
    4.6610    1.7170   18.4380 C   0  0  0  0  0  0  0  0  0  0  0  0
    3.8860    2.1050   19.5250 C   0  0  0  0  0  0  0  0  0  0  0  0
    4.2460    1.7520   20.8250 C   0  0  0  0  0  0  0  0  0  0  0  0
    5.3890    1.0010   21.0690 C   0  0  0  0  0  0  0  0  0  0  0  0
    9.0430    0.2380   21.4940 C   0  0  0  0  0  0  0  0  0  0  0  0
    7.9517   -4.4787   25.9770 C   0  0  0  0  0  0  0  0  0  0  0  0
    9.6841    1.2008   23.7022 C   0  0  0  0  0  0  0  0  0  0  0  0
    9.5820   -0.1080   22.7000 C   0  0  2  0  0  0  0  0  0  0  0  0
    6.7100    0.3850   17.8100 N   0  0  0  0  0  0  0  0  0  0  0  0
    7.5840   -0.2700   18.5160 N   0  0  0  0  0  0  0  0  0  0  0  0
    6.1460    0.6070   19.9750 N   0  0  0  0  0  0  0  0  0  0  0  0
    8.0950   -0.7700   20.8440 N   0  0  0  0  0  0  0  0  0  0  0  0
    9.2950    1.3000   20.9480 O   0  0  0  0  0  0  0  0  0  0  0  0
   13.5519    1.0817   27.4504 H   0  0  0  0  0  0  0  0  0  0  0  0
   12.7977    3.2523   26.5149 H   0  0  0  0  0  0  0  0  0  0  0  0
   12.5246   -1.0340   26.6591 H   0  0  0  0  0  0  0  0  0  0  0  0
   11.0224    3.3127   24.7947 H   0  0  0  0  0  0  0  0  0  0  0  0
   10.7489   -0.9842   24.9394 H   0  0  0  0  0  0  0  0  0  0  0  0
    9.5416   -4.5625   23.7818 H   0  0  0  0  0  0  0  0  0  0  0  0
    7.1926   -1.8847   26.1916 H   0  0  0  0  0  0  0  0  0  0  0  0
   10.2688   -2.6720   22.3870 H   0  0  0  0  0  0  0  0  0  0  0  0
    7.8705   -0.0015   24.7579 H   0  0  0  0  0  0  0  0  0  0  0  0
    4.3710    2.0145   17.4451 H   0  0  0  0  0  0  0  0  0  0  0  0
    2.9929    2.6891   19.3400 H   0  0  0  0  0  0  0  0  0  0  0  0
    3.6320    2.0596   21.6814 H   0  0  0  0  0  0  0  0  0  0  0  0
    5.6863    0.7288   22.0575 H   0  0  0  0  0  0  0  0  0  0  0  0
    8.6661   -4.5883   26.8021 H   0  0  0  0  0  0  0  0  0  0  0  0
    6.9508   -4.3263   26.4014 H   0  0  0  0  0  0  0  0  0  0  0  0
    7.9188   -5.4228   25.4175 H   0  0  0  0  0  0  0  0  0  0  0  0
    8.7167    1.3910   24.1851 H   0  0  0  0  0  0  0  0  0  0  0  0
    9.8647    2.0727   23.0582 H   0  0  0  0  0  0  0  0  0  0  0  0
   10.7539   -0.2760   22.5528 H   0  0  0  0  0  0  0  0  0  0  0  0
    8.0706   -1.6189   21.0730 H   0  0  0  0  0  0  0  0  0  0  0  0
  1  2  1  0  0  0  0
  1  3  2  0  0  0  0
  2  4  2  0  0  0  0
  3  5  1  0  0  0  0
  4 11  1  0  0  0  0
  5 11  2  0  0  0  0
  6  8  2  0  0  0  0
  6 10  1  0  0  0  0
  7  9  1  0  0  0  0
  7 10  2  0  0  0  0
  8 12  1  0  0  0  0
  9 12  2  0  0  0  0
 10 20  1  0  0  0  0
 11 21  1  0  0  0  0
 12 22  1  0  0  0  0
 13 15  1  0  0  0  0
 13 23  2  0  0  0  0
 13 25  1  0  0  0  0
 14 24  2  0  0  0  0
 14 25  1  0  0  0  0
 14 26  1  0  0  0  0
 15 16  2  0  0  0  0
 16 17  1  0  0  0  0
 17 18  2  0  0  0  0
 18 25  1  0  0  0  0
 19 22  1  0  0  0  0
 19 26  1  0  0  0  0
 19 27  2  0  0  0  0
 21 22  1  6  0  0  0
 23 24  1  0  0  0  0
  1 28  1  0  0  0  0
  2 29  1  0  0  0  0
  3 30  1  0  0  0  0
  4 31  1  0  0  0  0
  5 32  1  0  0  0  0
  6 33  1  0  0  0  0
  7 34  1  0  0  0  0
  8 35  1  0  0  0  0
  9 36  1  0  0  0  0
 15 37  1  0  0  0  0
 16 38  1  0  0  0  0
 17 39  1  0  0  0  0
 18 40  1  0  0  0  0
 20 41  1  0  0  0  0
 20 42  1  0  0  0  0
 20 43  1  0  0  0  0
 21 44  1  0  0  0  0
 21 45  1  0  0  0  0
 22 46  1  0  0  0  0
 26 47  1  0  0  0  0
M  END
> <clash_score>
3.0570152597266325

> <docking_score>
-3.7993648052215576

> <overlap_score>
0.7437711358070374

$$$$
BENZO_320_1
  -OEChem-08232013543D

 44 47  0     1  0  0  0  0  0999 V2000
    9.1890   -3.5540   24.0140 C   0  0  0  0  0  0  0  0  0  0  0  0
    7.8700   -2.0610   25.3550 C   0  0  0  0  0  0  0  0  0  0  0  0
    9.5890   -2.4950   23.2210 C   0  0  0  0  0  0  0  0  0  0  0  0
    8.2550   -1.0010   24.5520 C   0  0  0  0  0  0  0  0  0  0  0  0
   13.1524   -1.1384   24.0797 C   0  0  0  0  0  0  0  0  0  0  0  0
   13.5671   -1.1866   25.3924 C   0  0  0  0  0  0  0  0  0  0  0  0
   11.4459    0.0321   25.1380 C   0  0  0  0  0  0  0  0  0  0  0  0
    8.3450   -3.3440   25.0980 C   0  0  0  0  0  0  0  0  0  0  0  0
    9.1280   -1.2090   23.4870 C   0  0  0  0  0  0  0  0  0  0  0  0
   11.9236   -0.4323   23.9322 C   0  0  0  0  0  0  0  0  0  0  0  0
    5.7970    0.9500   18.6730 C   0  0  0  0  0  0  0  0  0  0  0  0
    7.2710   -0.1460   19.8310 C   0  0  0  0  0  0  0  0  0  0  0  0
    4.6610    1.7170   18.4380 C   0  0  0  0  0  0  0  0  0  0  0  0
    3.8860    2.1050   19.5250 C   0  0  0  0  0  0  0  0  0  0  0  0
    4.2460    1.7520   20.8250 C   0  0  0  0  0  0  0  0  0  0  0  0
    5.3890    1.0010   21.0690 C   0  0  0  0  0  0  0  0  0  0  0  0
    9.0430    0.2380   21.4940 C   0  0  0  0  0  0  0  0  0  0  0  0
    7.9517   -4.4787   25.9770 C   0  0  0  0  0  0  0  0  0  0  0  0
   11.2273   -0.2199   22.6076 C   0  0  0  0  0  0  0  0  0  0  0  0
    9.5820   -0.1080   22.7000 C   0  0  1  0  0  0  0  0  0  0  0  0
    6.7100    0.3850   17.8100 N   0  0  0  0  0  0  0  0  0  0  0  0
    7.5840   -0.2700   18.5160 N   0  0  0  0  0  0  0  0  0  0  0  0
    6.1460    0.6070   19.9750 N   0  0  0  0  0  0  0  0  0  0  0  0
    8.0950   -0.7700   20.8440 N   0  0  0  0  0  0  0  0  0  0  0  0
    9.2950    1.3000   20.9480 O   0  0  0  0  0  0  0  0  0  0  0  0
   12.4772   -0.3829   26.4405 S   0  0  0  0  0  0  0  0  0  0  0  0
    9.5416   -4.5625   23.7818 H   0  0  0  0  0  0  0  0  0  0  0  0
    7.1926   -1.8847   26.1916 H   0  0  0  0  0  0  0  0  0  0  0  0
   10.2688   -2.6720   22.3870 H   0  0  0  0  0  0  0  0  0  0  0  0
    7.8705   -0.0015   24.7579 H   0  0  0  0  0  0  0  0  0  0  0  0
   13.7070   -1.5901   23.2669 H   0  0  0  0  0  0  0  0  0  0  0  0
   14.4576   -1.6558   25.7862 H   0  0  0  0  0  0  0  0  0  0  0  0
   10.5407    0.5945   25.3209 H   0  0  0  0  0  0  0  0  0  0  0  0
    4.3710    2.0145   17.4451 H   0  0  0  0  0  0  0  0  0  0  0  0
    2.9929    2.6891   19.3400 H   0  0  0  0  0  0  0  0  0  0  0  0
    3.6320    2.0596   21.6814 H   0  0  0  0  0  0  0  0  0  0  0  0
    5.6863    0.7288   22.0575 H   0  0  0  0  0  0  0  0  0  0  0  0
    8.6661   -4.5883   26.8021 H   0  0  0  0  0  0  0  0  0  0  0  0
    6.9508   -4.3263   26.4014 H   0  0  0  0  0  0  0  0  0  0  0  0
    7.9188   -5.4228   25.4175 H   0  0  0  0  0  0  0  0  0  0  0  0
   11.5842    0.7150   22.1561 H   0  0  0  0  0  0  0  0  0  0  0  0
   11.5525   -1.0164   21.9239 H   0  0  0  0  0  0  0  0  0  0  0  0
    9.5374    0.8439   23.4178 H   0  0  0  0  0  0  0  0  0  0  0  0
    8.0706   -1.6189   21.0730 H   0  0  0  0  0  0  0  0  0  0  0  0
  1  3  2  0  0  0  0
  1  8  1  0  0  0  0
  2  4  1  0  0  0  0
  2  8  2  0  0  0  0
  3  9  1  0  0  0  0
  4  9  2  0  0  0  0
  5  6  2  0  0  0  0
  5 10  1  0  0  0  0
  6 26  1  0  0  0  0
  7 10  2  0  0  0  0
  7 26  1  0  0  0  0
  8 18  1  0  0  0  0
  9 20  1  0  0  0  0
 10 19  1  0  0  0  0
 11 13  1  0  0  0  0
 11 21  2  0  0  0  0
 11 23  1  0  0  0  0
 12 22  2  0  0  0  0
 12 23  1  0  0  0  0
 12 24  1  0  0  0  0
 13 14  2  0  0  0  0
 14 15  1  0  0  0  0
 15 16  2  0  0  0  0
 16 23  1  0  0  0  0
 17 20  1  0  0  0  0
 17 24  1  0  0  0  0
 17 25  2  0  0  0  0
 19 20  1  1  0  0  0
 21 22  1  0  0  0  0
  1 27  1  0  0  0  0
  2 28  1  0  0  0  0
  3 29  1  0  0  0  0
  4 30  1  0  0  0  0
  5 31  1  0  0  0  0
  6 32  1  0  0  0  0
  7 33  1  0  0  0  0
 13 34  1  0  0  0  0
 14 35  1  0  0  0  0
 15 36  1  0  0  0  0
 16 37  1  0  0  0  0
 18 38  1  0  0  0  0
 18 39  1  0  0  0  0
 18 40  1  0  0  0  0
 19 41  1  0  0  0  0
 19 42  1  0  0  0  0
 20 43  1  0  0  0  0
 24 44  1  0  0  0  0
M  END
> <clash_score>
0

> <docking_score>
-6.093097686767578

> <overlap_score>
0.827311098575592

$$$$
BENZO_320_2
  -OEChem-08232013543D

 44 47  0     1  0  0  0  0  0999 V2000
    9.1890   -3.5540   24.0140 C   0  0  0  0  0  0  0  0  0  0  0  0
    7.8700   -2.0610   25.3550 C   0  0  0  0  0  0  0  0  0  0  0  0
    9.5890   -2.4950   23.2210 C   0  0  0  0  0  0  0  0  0  0  0  0
    8.2550   -1.0010   24.5520 C   0  0  0  0  0  0  0  0  0  0  0  0
   11.7386    0.4828   25.1094 C   0  0  0  0  0  0  0  0  0  0  0  0
   12.1652    0.4005   26.4166 C   0  0  0  0  0  0  0  0  0  0  0  0
    9.8792    1.2919   26.2454 C   0  0  0  0  0  0  0  0  0  0  0  0
    8.3450   -3.3440   25.0980 C   0  0  0  0  0  0  0  0  0  0  0  0
    9.1280   -1.2090   23.4870 C   0  0  0  0  0  0  0  0  0  0  0  0
   10.4144    0.9993   25.0101 C   0  0  0  0  0  0  0  0  0  0  0  0
    5.7970    0.9500   18.6730 C   0  0  0  0  0  0  0  0  0  0  0  0
    7.2710   -0.1460   19.8310 C   0  0  0  0  0  0  0  0  0  0  0  0
    4.6610    1.7170   18.4380 C   0  0  0  0  0  0  0  0  0  0  0  0
    3.8860    2.1050   19.5250 C   0  0  0  0  0  0  0  0  0  0  0  0
    4.2460    1.7520   20.8250 C   0  0  0  0  0  0  0  0  0  0  0  0
    5.3890    1.0010   21.0690 C   0  0  0  0  0  0  0  0  0  0  0  0
    9.0430    0.2380   21.4940 C   0  0  0  0  0  0  0  0  0  0  0  0
    7.9517   -4.4787   25.9770 C   0  0  0  0  0  0  0  0  0  0  0  0
    9.6841    1.2008   23.7022 C   0  0  0  0  0  0  0  0  0  0  0  0
    9.5820   -0.1080   22.7000 C   0  0  2  0  0  0  0  0  0  0  0  0
    6.7100    0.3850   17.8100 N   0  0  0  0  0  0  0  0  0  0  0  0
    7.5840   -0.2700   18.5160 N   0  0  0  0  0  0  0  0  0  0  0  0
    6.1460    0.6070   19.9750 N   0  0  0  0  0  0  0  0  0  0  0  0
    8.0950   -0.7700   20.8440 N   0  0  0  0  0  0  0  0  0  0  0  0
    9.2950    1.3000   20.9480 O   0  0  0  0  0  0  0  0  0  0  0  0
   10.9716    0.9444   27.5174 S   0  0  0  0  0  0  0  0  0  0  0  0
    9.5416   -4.5625   23.7818 H   0  0  0  0  0  0  0  0  0  0  0  0
    7.1926   -1.8847   26.1916 H   0  0  0  0  0  0  0  0  0  0  0  0
   10.2688   -2.6720   22.3870 H   0  0  0  0  0  0  0  0  0  0  0  0
    7.8705   -0.0015   24.7579 H   0  0  0  0  0  0  0  0  0  0  0  0
   12.3506    0.1851   24.2673 H   0  0  0  0  0  0  0  0  0  0  0  0
   13.1203    0.0464   26.7779 H   0  0  0  0  0  0  0  0  0  0  0  0
    8.8993    1.6920   26.4662 H   0  0  0  0  0  0  0  0  0  0  0  0
    4.3710    2.0145   17.4451 H   0  0  0  0  0  0  0  0  0  0  0  0
    2.9929    2.6891   19.3400 H   0  0  0  0  0  0  0  0  0  0  0  0
    3.6320    2.0596   21.6814 H   0  0  0  0  0  0  0  0  0  0  0  0
    5.6863    0.7288   22.0575 H   0  0  0  0  0  0  0  0  0  0  0  0
    8.6661   -4.5883   26.8021 H   0  0  0  0  0  0  0  0  0  0  0  0
    6.9508   -4.3263   26.4014 H   0  0  0  0  0  0  0  0  0  0  0  0
    7.9188   -5.4228   25.4175 H   0  0  0  0  0  0  0  0  0  0  0  0
    8.6850    1.6088   23.9038 H   0  0  0  0  0  0  0  0  0  0  0  0
   10.2105    1.9839   23.1390 H   0  0  0  0  0  0  0  0  0  0  0  0
   10.7539   -0.2760   22.5528 H   0  0  0  0  0  0  0  0  0  0  0  0
    8.0706   -1.6189   21.0730 H   0  0  0  0  0  0  0  0  0  0  0  0
  1  3  2  0  0  0  0
  1  8  1  0  0  0  0
  2  4  1  0  0  0  0
  2  8  2  0  0  0  0
  3  9  1  0  0  0  0
  4  9  2  0  0  0  0
  5  6  2  0  0  0  0
  5 10  1  0  0  0  0
  6 26  1  0  0  0  0
  7 10  2  0  0  0  0
  7 26  1  0  0  0  0
  8 18  1  0  0  0  0
  9 20  1  0  0  0  0
 10 19  1  0  0  0  0
 11 13  1  0  0  0  0
 11 21  2  0  0  0  0
 11 23  1  0  0  0  0
 12 22  2  0  0  0  0
 12 23  1  0  0  0  0
 12 24  1  0  0  0  0
 13 14  2  0  0  0  0
 14 15  1  0  0  0  0
 15 16  2  0  0  0  0
 16 23  1  0  0  0  0
 17 20  1  0  0  0  0
 17 24  1  0  0  0  0
 17 25  2  0  0  0  0
 19 20  1  6  0  0  0
 21 22  1  0  0  0  0
  1 27  1  0  0  0  0
  2 28  1  0  0  0  0
  3 29  1  0  0  0  0
  4 30  1  0  0  0  0
  5 31  1  0  0  0  0
  6 32  1  0  0  0  0
  7 33  1  0  0  0  0
 13 34  1  0  0  0  0
 14 35  1  0  0  0  0
 15 36  1  0  0  0  0
 16 37  1  0  0  0  0
 18 38  1  0  0  0  0
 18 39  1  0  0  0  0
 18 40  1  0  0  0  0
 19 41  1  0  0  0  0
 19 42  1  0  0  0  0
 20 43  1  0  0  0  0
 24 44  1  0  0  0  0
M  END
> <clash_score>
2.224313833124811

> <docking_score>
-3.6276609897613525

> <overlap_score>
0.7431652545928955

$$$$
BENZO_319_1
  -OEChem-08232013543D

 59 63  0     1  0  0  0  0  0999 V2000
    9.5890   -2.4950   23.2210 C   0  0  0  0  0  0  0  0  0  0  0  0
    8.2550   -1.0010   24.5520 C   0  0  0  0  0  0  0  0  0  0  0  0
    9.1890   -3.5540   24.0140 C   0  0  0  0  0  0  0  0  0  0  0  0
    7.8700   -2.0610   25.3550 C   0  0  0  0  0  0  0  0  0  0  0  0
   13.3220   -0.5321   24.1508 C   0  0  0  0  0  0  0  0  0  0  0  0
   11.3739   -0.5140   25.1703 C   0  0  0  0  0  0  0  0  0  0  0  0
    9.1280   -1.2090   23.4870 C   0  0  0  0  0  0  0  0  0  0  0  0
   11.9382   -0.4119   23.9222 C   0  0  0  0  0  0  0  0  0  0  0  0
    8.3450   -3.3440   25.0980 C   0  0  0  0  0  0  0  0  0  0  0  0
    5.7970    0.9500   18.6730 C   0  0  0  0  0  0  0  0  0  0  0  0
    7.2710   -0.1460   19.8310 C   0  0  0  0  0  0  0  0  0  0  0  0
    4.6610    1.7170   18.4380 C   0  0  0  0  0  0  0  0  0  0  0  0
    3.8860    2.1050   19.5250 C   0  0  0  0  0  0  0  0  0  0  0  0
    4.2460    1.7520   20.8250 C   0  0  0  0  0  0  0  0  0  0  0  0
    5.3890    1.0010   21.0690 C   0  0  0  0  0  0  0  0  0  0  0  0
    9.0430    0.2380   21.4940 C   0  0  0  0  0  0  0  0  0  0  0  0
    7.2166   -6.5202   27.7387 C   0  0  0  0  0  0  0  0  0  0  0  0
    6.3969   -6.2129   26.4916 C   0  0  0  0  0  0  0  0  0  0  0  0
    8.6789   -6.1571   27.5092 C   0  0  0  0  0  0  0  0  0  0  0  0
    6.5550   -4.7563   26.0581 C   0  0  0  0  0  0  0  0  0  0  0  0
    8.8315   -4.6994   27.0803 C   0  0  0  0  0  0  0  0  0  0  0  0
   12.3185   -0.8368   27.4686 C   0  0  0  0  0  0  0  0  0  0  0  0
   11.2301   -0.2124   22.6019 C   0  0  0  0  0  0  0  0  0  0  0  0
    9.5820   -0.1080   22.7000 C   0  0  1  0  0  0  0  0  0  0  0  0
   13.6189   -0.6977   25.4425 N   0  0  0  0  0  0  0  0  0  0  0  0
    6.7100    0.3850   17.8100 N   0  0  0  0  0  0  0  0  0  0  0  0
    7.5840   -0.2700   18.5160 N   0  0  0  0  0  0  0  0  0  0  0  0
   12.4136   -0.6822   26.0368 N   0  0  0  0  0  0  0  0  0  0  0  0
    6.1460    0.6070   19.9750 N   0  0  0  0  0  0  0  0  0  0  0  0
    7.9744   -4.4098   25.9218 N   0  0  0  0  0  0  0  0  0  0  0  0
    8.0950   -0.7700   20.8440 N   0  0  0  0  0  0  0  0  0  0  0  0
    9.2950    1.3000   20.9480 O   0  0  0  0  0  0  0  0  0  0  0  0
   10.2684   -2.6719   22.3867 H   0  0  0  0  0  0  0  0  0  0  0  0
    7.8717   -0.0016   24.7596 H   0  0  0  0  0  0  0  0  0  0  0  0
    9.5443   -4.5616   23.7817 H   0  0  0  0  0  0  0  0  0  0  0  0
    7.1921   -1.8821   26.1908 H   0  0  0  0  0  0  0  0  0  0  0  0
   14.1286   -0.5054   23.4317 H   0  0  0  0  0  0  0  0  0  0  0  0
   10.3467   -0.4808   25.5074 H   0  0  0  0  0  0  0  0  0  0  0  0
    4.3710    2.0145   17.4451 H   0  0  0  0  0  0  0  0  0  0  0  0
    2.9929    2.6891   19.3400 H   0  0  0  0  0  0  0  0  0  0  0  0
    3.6320    2.0596   21.6814 H   0  0  0  0  0  0  0  0  0  0  0  0
    5.6863    0.7288   22.0575 H   0  0  0  0  0  0  0  0  0  0  0  0
    6.8223   -5.9540   28.5911 H   0  0  0  0  0  0  0  0  0  0  0  0
    7.1313   -7.5835   27.9885 H   0  0  0  0  0  0  0  0  0  0  0  0
    6.7086   -6.8739   25.6731 H   0  0  0  0  0  0  0  0  0  0  0  0
    5.3392   -6.4247   26.6852 H   0  0  0  0  0  0  0  0  0  0  0  0
    9.2495   -6.3303   28.4287 H   0  0  0  0  0  0  0  0  0  0  0  0
    9.1068   -6.8127   26.7406 H   0  0  0  0  0  0  0  0  0  0  0  0
    6.0341   -4.6143   25.1030 H   0  0  0  0  0  0  0  0  0  0  0  0
    6.0814   -4.0959   26.7963 H   0  0  0  0  0  0  0  0  0  0  0  0
    8.5669   -4.0359   27.9136 H   0  0  0  0  0  0  0  0  0  0  0  0
    9.8836   -4.5143   26.8301 H   0  0  0  0  0  0  0  0  0  0  0  0
   12.2261   -1.9039   27.6872 H   0  0  0  0  0  0  0  0  0  0  0  0
   13.2160   -0.4264   27.9396 H   0  0  0  0  0  0  0  0  0  0  0  0
   11.4423   -0.2935   27.8333 H   0  0  0  0  0  0  0  0  0  0  0  0
   11.5792    0.7206   22.1405 H   0  0  0  0  0  0  0  0  0  0  0  0
   11.5533   -1.0125   21.9215 H   0  0  0  0  0  0  0  0  0  0  0  0
    9.5402    0.8508   23.4127 H   0  0  0  0  0  0  0  0  0  0  0  0
    8.0917   -1.6083   21.0911 H   0  0  0  0  0  0  0  0  0  0  0  0
  1  3  2  0  0  0  0
  1  7  1  0  0  0  0
  2  4  1  0  0  0  0
  2  7  2  0  0  0  0
  3  9  1  0  0  0  0
  4  9  2  0  0  0  0
  5  8  1  0  0  0  0
  5 25  2  0  0  0  0
  6  8  2  0  0  0  0
  6 28  1  0  0  0  0
  7 24  1  0  0  0  0
  8 23  1  0  0  0  0
  9 30  1  0  0  0  0
 10 12  1  0  0  0  0
 10 26  2  0  0  0  0
 10 29  1  0  0  0  0
 11 27  2  0  0  0  0
 11 29  1  0  0  0  0
 11 31  1  0  0  0  0
 12 13  2  0  0  0  0
 13 14  1  0  0  0  0
 14 15  2  0  0  0  0
 15 29  1  0  0  0  0
 16 24  1  0  0  0  0
 16 31  1  0  0  0  0
 16 32  2  0  0  0  0
 17 18  1  0  0  0  0
 17 19  1  0  0  0  0
 18 20  1  0  0  0  0
 19 21  1  0  0  0  0
 20 30  1  0  0  0  0
 21 30  1  0  0  0  0
 22 28  1  0  0  0  0
 23 24  1  1  0  0  0
 25 28  1  0  0  0  0
 26 27  1  0  0  0  0
  1 33  1  0  0  0  0
  2 34  1  0  0  0  0
  3 35  1  0  0  0  0
  4 36  1  0  0  0  0
  5 37  1  0  0  0  0
  6 38  1  0  0  0  0
 12 39  1  0  0  0  0
 13 40  1  0  0  0  0
 14 41  1  0  0  0  0
 15 42  1  0  0  0  0
 17 43  1  0  0  0  0
 17 44  1  0  0  0  0
 18 45  1  0  0  0  0
 18 46  1  0  0  0  0
 19 47  1  0  0  0  0
 19 48  1  0  0  0  0
 20 49  1  0  0  0  0
 20 50  1  0  0  0  0
 21 51  1  0  0  0  0
 21 52  1  0  0  0  0
 22 53  1  0  0  0  0
 22 54  1  0  0  0  0
 22 55  1  0  0  0  0
 23 56  1  0  0  0  0
 23 57  1  0  0  0  0
 24 58  1  0  0  0  0
 31 59  1  0  0  0  0
M  END
> <clash_score>
0.6568125957053412

> <docking_score>
-6.206915855407715

> <overlap_score>
0.9128094911575317

$$$$
BENZO_319_2
  -OEChem-08232013543D

 59 63  0     1  0  0  0  0  0999 V2000
    9.5890   -2.4950   23.2210 C   0  0  0  0  0  0  0  0  0  0  0  0
    8.2550   -1.0010   24.5520 C   0  0  0  0  0  0  0  0  0  0  0  0
    9.1890   -3.5540   24.0140 C   0  0  0  0  0  0  0  0  0  0  0  0
    7.8700   -2.0610   25.3550 C   0  0  0  0  0  0  0  0  0  0  0  0
   12.0923    1.6786   24.6236 C   0  0  0  0  0  0  0  0  0  0  0  0
   10.6999    0.7130   26.0250 C   0  0  0  0  0  0  0  0  0  0  0  0
    9.1280   -1.2090   23.4870 C   0  0  0  0  0  0  0  0  0  0  0  0
   10.7749    1.1966   24.7417 C   0  0  0  0  0  0  0  0  0  0  0  0
    8.3450   -3.3440   25.0980 C   0  0  0  0  0  0  0  0  0  0  0  0
    5.7970    0.9500   18.6730 C   0  0  0  0  0  0  0  0  0  0  0  0
    7.2710   -0.1460   19.8310 C   0  0  0  0  0  0  0  0  0  0  0  0
    4.6610    1.7170   18.4380 C   0  0  0  0  0  0  0  0  0  0  0  0
    3.8860    2.1050   19.5250 C   0  0  0  0  0  0  0  0  0  0  0  0
    4.2460    1.7520   20.8250 C   0  0  0  0  0  0  0  0  0  0  0  0
    5.3890    1.0010   21.0690 C   0  0  0  0  0  0  0  0  0  0  0  0
    9.0430    0.2380   21.4940 C   0  0  0  0  0  0  0  0  0  0  0  0
    7.9496   -4.9537   28.7345 C   0  0  0  0  0  0  0  0  0  0  0  0
    6.8919   -4.0607   28.0818 C   0  0  0  0  0  0  0  0  0  0  0  0
    9.2470   -4.9693   27.9230 C   0  0  0  0  0  0  0  0  0  0  0  0
    6.6889   -4.4385   26.6147 C   0  0  0  0  0  0  0  0  0  0  0  0
    8.9871   -5.3207   26.4549 C   0  0  0  0  0  0  0  0  0  0  0  0
   12.3371    0.5840   27.9175 C   0  0  0  0  0  0  0  0  0  0  0  0
    9.6852    1.2097   23.6944 C   0  0  0  0  0  0  0  0  0  0  0  0
    9.5820   -0.1080   22.7000 C   0  0  2  0  0  0  0  0  0  0  0  0
   12.8030    1.5161   25.7428 N   0  0  0  0  0  0  0  0  0  0  0  0
    6.7100    0.3850   17.8100 N   0  0  0  0  0  0  0  0  0  0  0  0
    7.5840   -0.2700   18.5160 N   0  0  0  0  0  0  0  0  0  0  0  0
   11.9290    0.9267   26.5763 N   0  0  0  0  0  0  0  0  0  0  0  0
    6.1460    0.6070   19.9750 N   0  0  0  0  0  0  0  0  0  0  0  0
    7.9769   -4.4027   25.9163 N   0  0  0  0  0  0  0  0  0  0  0  0
    8.0950   -0.7700   20.8440 N   0  0  0  0  0  0  0  0  0  0  0  0
    9.2950    1.3000   20.9480 O   0  0  0  0  0  0  0  0  0  0  0  0
   10.2684   -2.6719   22.3867 H   0  0  0  0  0  0  0  0  0  0  0  0
    7.8717   -0.0016   24.7596 H   0  0  0  0  0  0  0  0  0  0  0  0
    9.5443   -4.5616   23.7817 H   0  0  0  0  0  0  0  0  0  0  0  0
    7.1921   -1.8821   26.1908 H   0  0  0  0  0  0  0  0  0  0  0  0
   12.5660    2.1426   23.7701 H   0  0  0  0  0  0  0  0  0  0  0  0
    9.8962    0.2478   26.5796 H   0  0  0  0  0  0  0  0  0  0  0  0
    4.3710    2.0145   17.4451 H   0  0  0  0  0  0  0  0  0  0  0  0
    2.9929    2.6891   19.3400 H   0  0  0  0  0  0  0  0  0  0  0  0
    3.6320    2.0596   21.6814 H   0  0  0  0  0  0  0  0  0  0  0  0
    5.6863    0.7288   22.0575 H   0  0  0  0  0  0  0  0  0  0  0  0
    8.1558   -4.5961   29.7550 H   0  0  0  0  0  0  0  0  0  0  0  0
    7.5611   -5.9778   28.8324 H   0  0  0  0  0  0  0  0  0  0  0  0
    5.9459   -4.1594   28.6209 H   0  0  0  0  0  0  0  0  0  0  0  0
    7.2011   -3.0160   28.1536 H   0  0  0  0  0  0  0  0  0  0  0  0
    9.7290   -3.9880   27.9846 H   0  0  0  0  0  0  0  0  0  0  0  0
    9.9437   -5.6964   28.3562 H   0  0  0  0  0  0  0  0  0  0  0  0
    6.2543   -5.4402   26.5659 H   0  0  0  0  0  0  0  0  0  0  0  0
    5.9909   -3.7397   26.1451 H   0  0  0  0  0  0  0  0  0  0  0  0
    9.9128   -5.2367   25.8843 H   0  0  0  0  0  0  0  0  0  0  0  0
    8.6365   -6.3517   26.3987 H   0  0  0  0  0  0  0  0  0  0  0  0
   12.7446   -0.4302   27.8973 H   0  0  0  0  0  0  0  0  0  0  0  0
   13.0952    1.2938   28.2601 H   0  0  0  0  0  0  0  0  0  0  0  0
   11.4711    0.6360   28.5832 H   0  0  0  0  0  0  0  0  0  0  0  0
    8.7197    1.4079   24.1780 H   0  0  0  0  0  0  0  0  0  0  0  0
    9.8623    2.0699   23.0340 H   0  0  0  0  0  0  0  0  0  0  0  0
   10.7567   -0.2690   22.5478 H   0  0  0  0  0  0  0  0  0  0  0  0
    8.0917   -1.6083   21.0911 H   0  0  0  0  0  0  0  0  0  0  0  0
  1  3  2  0  0  0  0
  1  7  1  0  0  0  0
  2  4  1  0  0  0  0
  2  7  2  0  0  0  0
  3  9  1  0  0  0  0
  4  9  2  0  0  0  0
  5  8  1  0  0  0  0
  5 25  2  0  0  0  0
  6  8  2  0  0  0  0
  6 28  1  0  0  0  0
  7 24  1  0  0  0  0
  8 23  1  0  0  0  0
  9 30  1  0  0  0  0
 10 12  1  0  0  0  0
 10 26  2  0  0  0  0
 10 29  1  0  0  0  0
 11 27  2  0  0  0  0
 11 29  1  0  0  0  0
 11 31  1  0  0  0  0
 12 13  2  0  0  0  0
 13 14  1  0  0  0  0
 14 15  2  0  0  0  0
 15 29  1  0  0  0  0
 16 24  1  0  0  0  0
 16 31  1  0  0  0  0
 16 32  2  0  0  0  0
 17 18  1  0  0  0  0
 17 19  1  0  0  0  0
 18 20  1  0  0  0  0
 19 21  1  0  0  0  0
 20 30  1  0  0  0  0
 21 30  1  0  0  0  0
 22 28  1  0  0  0  0
 23 24  1  6  0  0  0
 25 28  1  0  0  0  0
 26 27  1  0  0  0  0
  1 33  1  0  0  0  0
  2 34  1  0  0  0  0
  3 35  1  0  0  0  0
  4 36  1  0  0  0  0
  5 37  1  0  0  0  0
  6 38  1  0  0  0  0
 12 39  1  0  0  0  0
 13 40  1  0  0  0  0
 14 41  1  0  0  0  0
 15 42  1  0  0  0  0
 17 43  1  0  0  0  0
 17 44  1  0  0  0  0
 18 45  1  0  0  0  0
 18 46  1  0  0  0  0
 19 47  1  0  0  0  0
 19 48  1  0  0  0  0
 20 49  1  0  0  0  0
 20 50  1  0  0  0  0
 21 51  1  0  0  0  0
 21 52  1  0  0  0  0
 22 53  1  0  0  0  0
 22 54  1  0  0  0  0
 22 55  1  0  0  0  0
 23 56  1  0  0  0  0
 23 57  1  0  0  0  0
 24 58  1  0  0  0  0
 31 59  1  0  0  0  0
M  END
> <clash_score>
2.0015532831426643

> <docking_score>
-4.0704426765441895

> <overlap_score>
0.829846203327179

$$$$
BENZO_318_2
  -OEChem-08232013543D

 59 63  0     1  0  0  0  0  0999 V2000
   13.7993   -1.2937   25.1853 C   0  0  0  0  0  0  0  0  0  0  0  0
   13.1448   -1.1102   23.9673 C   0  0  0  0  0  0  0  0  0  0  0  0
    9.5890   -2.4950   23.2210 C   0  0  0  0  0  0  0  0  0  0  0  0
    8.2550   -1.0010   24.5520 C   0  0  0  0  0  0  0  0  0  0  0  0
    9.1890   -3.5540   24.0140 C   0  0  0  0  0  0  0  0  0  0  0  0
    7.8700   -2.0610   25.3550 C   0  0  0  0  0  0  0  0  0  0  0  0
   13.2472   -0.7790   26.3583 C   0  0  0  0  0  0  0  0  0  0  0  0
   11.3860    0.1028   25.0952 C   0  0  0  0  0  0  0  0  0  0  0  0
    9.1280   -1.2090   23.4870 C   0  0  0  0  0  0  0  0  0  0  0  0
   11.9382   -0.4119   23.9222 C   0  0  0  0  0  0  0  0  0  0  0  0
    8.3450   -3.3440   25.0980 C   0  0  0  0  0  0  0  0  0  0  0  0
   12.0405   -0.0807   26.3132 C   0  0  0  0  0  0  0  0  0  0  0  0
    5.7970    0.9500   18.6730 C   0  0  0  0  0  0  0  0  0  0  0  0
    7.2710   -0.1460   19.8310 C   0  0  0  0  0  0  0  0  0  0  0  0
    4.6610    1.7170   18.4380 C   0  0  0  0  0  0  0  0  0  0  0  0
    3.8860    2.1050   19.5250 C   0  0  0  0  0  0  0  0  0  0  0  0
    4.2460    1.7520   20.8250 C   0  0  0  0  0  0  0  0  0  0  0  0
    5.3890    1.0010   21.0690 C   0  0  0  0  0  0  0  0  0  0  0  0
    9.0430    0.2380   21.4940 C   0  0  0  0  0  0  0  0  0  0  0  0
    7.9496   -4.9537   28.7345 C   0  0  0  0  0  0  0  0  0  0  0  0
    6.8919   -4.0607   28.0818 C   0  0  0  0  0  0  0  0  0  0  0  0
    9.2470   -4.9693   27.9230 C   0  0  0  0  0  0  0  0  0  0  0  0
    6.6889   -4.4385   26.6147 C   0  0  0  0  0  0  0  0  0  0  0  0
    8.9871   -5.3207   26.4549 C   0  0  0  0  0  0  0  0  0  0  0  0
   11.2301   -0.2124   22.6019 C   0  0  0  0  0  0  0  0  0  0  0  0
    9.5820   -0.1080   22.7000 C   0  0  2  0  0  0  0  0  0  0  0  0
    6.7100    0.3850   17.8100 N   0  0  0  0  0  0  0  0  0  0  0  0
    7.5840   -0.2700   18.5160 N   0  0  0  0  0  0  0  0  0  0  0  0
    6.1460    0.6070   19.9750 N   0  0  0  0  0  0  0  0  0  0  0  0
    7.9769   -4.4027   25.9163 N   0  0  0  0  0  0  0  0  0  0  0  0
    8.0950   -0.7700   20.8440 N   0  0  0  0  0  0  0  0  0  0  0  0
    9.2950    1.3000   20.9480 O   0  0  0  0  0  0  0  0  0  0  0  0
   11.3604    0.5551   27.7606 Cl  0  0  0  0  0  0  0  0  0  0  0  0
   14.7390   -1.8374   25.2199 H   0  0  0  0  0  0  0  0  0  0  0  0
   13.5824   -1.5147   23.0583 H   0  0  0  0  0  0  0  0  0  0  0  0
   10.2684   -2.6719   22.3867 H   0  0  0  0  0  0  0  0  0  0  0  0
    7.8717   -0.0016   24.7596 H   0  0  0  0  0  0  0  0  0  0  0  0
    9.5443   -4.5616   23.7817 H   0  0  0  0  0  0  0  0  0  0  0  0
    7.1921   -1.8821   26.1908 H   0  0  0  0  0  0  0  0  0  0  0  0
   13.7685   -0.9294   27.3004 H   0  0  0  0  0  0  0  0  0  0  0  0
   10.4447    0.6461   25.0548 H   0  0  0  0  0  0  0  0  0  0  0  0
    4.3710    2.0145   17.4451 H   0  0  0  0  0  0  0  0  0  0  0  0
    2.9929    2.6891   19.3400 H   0  0  0  0  0  0  0  0  0  0  0  0
    3.6320    2.0596   21.6814 H   0  0  0  0  0  0  0  0  0  0  0  0
    5.6863    0.7288   22.0575 H   0  0  0  0  0  0  0  0  0  0  0  0
    8.1558   -4.5961   29.7550 H   0  0  0  0  0  0  0  0  0  0  0  0
    7.5611   -5.9778   28.8324 H   0  0  0  0  0  0  0  0  0  0  0  0
    5.9459   -4.1594   28.6209 H   0  0  0  0  0  0  0  0  0  0  0  0
    7.2011   -3.0160   28.1536 H   0  0  0  0  0  0  0  0  0  0  0  0
    9.7290   -3.9880   27.9846 H   0  0  0  0  0  0  0  0  0  0  0  0
    9.9437   -5.6964   28.3562 H   0  0  0  0  0  0  0  0  0  0  0  0
    6.2543   -5.4402   26.5659 H   0  0  0  0  0  0  0  0  0  0  0  0
    5.9909   -3.7397   26.1451 H   0  0  0  0  0  0  0  0  0  0  0  0
    9.9128   -5.2367   25.8843 H   0  0  0  0  0  0  0  0  0  0  0  0
    8.6365   -6.3517   26.3987 H   0  0  0  0  0  0  0  0  0  0  0  0
   11.5792    0.7206   22.1405 H   0  0  0  0  0  0  0  0  0  0  0  0
   11.5533   -1.0125   21.9215 H   0  0  0  0  0  0  0  0  0  0  0  0
    9.5402    0.8508   23.4127 H   0  0  0  0  0  0  0  0  0  0  0  0
    8.0917   -1.6083   21.0911 H   0  0  0  0  0  0  0  0  0  0  0  0
  1  2  2  0  0  0  0
  1  7  1  0  0  0  0
  2 10  1  0  0  0  0
  3  5  2  0  0  0  0
  3  9  1  0  0  0  0
  4  6  1  0  0  0  0
  4  9  2  0  0  0  0
  5 11  1  0  0  0  0
  6 11  2  0  0  0  0
  7 12  2  0  0  0  0
  8 10  2  0  0  0  0
  8 12  1  0  0  0  0
  9 26  1  0  0  0  0
 10 25  1  0  0  0  0
 11 30  1  0  0  0  0
 12 33  1  0  0  0  0
 13 15  1  0  0  0  0
 13 27  2  0  0  0  0
 13 29  1  0  0  0  0
 14 28  2  0  0  0  0
 14 29  1  0  0  0  0
 14 31  1  0  0  0  0
 15 16  2  0  0  0  0
 16 17  1  0  0  0  0
 17 18  2  0  0  0  0
 18 29  1  0  0  0  0
 19 26  1  6  0  0  0
 19 31  1  0  0  0  0
 19 32  2  0  0  0  0
 20 21  1  0  0  0  0
 20 22  1  0  0  0  0
 21 23  1  0  0  0  0
 22 24  1  0  0  0  0
 23 30  1  0  0  0  0
 24 30  1  0  0  0  0
 25 26  1  0  0  0  0
 27 28  1  0  0  0  0
  1 34  1  0  0  0  0
  2 35  1  0  0  0  0
  3 36  1  0  0  0  0
  4 37  1  0  0  0  0
  5 38  1  0  0  0  0
  6 39  1  0  0  0  0
  7 40  1  0  0  0  0
  8 41  1  0  0  0  0
 15 42  1  0  0  0  0
 16 43  1  0  0  0  0
 17 44  1  0  0  0  0
 18 45  1  0  0  0  0
 20 46  1  0  0  0  0
 20 47  1  0  0  0  0
 21 48  1  0  0  0  0
 21 49  1  0  0  0  0
 22 50  1  0  0  0  0
 22 51  1  0  0  0  0
 23 52  1  0  0  0  0
 23 53  1  0  0  0  0
 24 54  1  0  0  0  0
 24 55  1  0  0  0  0
 25 56  1  0  0  0  0
 25 57  1  0  0  0  0
 26 58  1  0  0  0  0
 31 59  1  0  0  0  0
M  END
> <clash_score>
0.7026221430381941

> <docking_score>
-5.684063911437988

> <overlap_score>
0.9195516705513

$$$$
BENZO_318_1
  -OEChem-08232013543D

 59 63  0     1  0  0  0  0  0999 V2000
   12.6445    0.0926   25.8011 C   0  0  0  0  0  0  0  0  0  0  0  0
   11.6380    0.1048   24.8355 C   0  0  0  0  0  0  0  0  0  0  0  0
    9.5890   -2.4950   23.2210 C   0  0  0  0  0  0  0  0  0  0  0  0
    8.2550   -1.0010   24.5520 C   0  0  0  0  0  0  0  0  0  0  0  0
    9.1890   -3.5540   24.0140 C   0  0  0  0  0  0  0  0  0  0  0  0
    7.8700   -2.0610   25.3550 C   0  0  0  0  0  0  0  0  0  0  0  0
   12.7880    1.1720   26.6728 C   0  0  0  0  0  0  0  0  0  0  0  0
   10.9183    2.2761   25.6134 C   0  0  0  0  0  0  0  0  0  0  0  0
    9.1280   -1.2090   23.4870 C   0  0  0  0  0  0  0  0  0  0  0  0
   10.7749    1.1966   24.7417 C   0  0  0  0  0  0  0  0  0  0  0  0
    8.3450   -3.3440   25.0980 C   0  0  0  0  0  0  0  0  0  0  0  0
   11.9249    2.2638   26.5790 C   0  0  0  0  0  0  0  0  0  0  0  0
    5.7970    0.9500   18.6730 C   0  0  0  0  0  0  0  0  0  0  0  0
    7.2710   -0.1460   19.8310 C   0  0  0  0  0  0  0  0  0  0  0  0
    4.6610    1.7170   18.4380 C   0  0  0  0  0  0  0  0  0  0  0  0
    3.8860    2.1050   19.5250 C   0  0  0  0  0  0  0  0  0  0  0  0
    4.2460    1.7520   20.8250 C   0  0  0  0  0  0  0  0  0  0  0  0
    5.3890    1.0010   21.0690 C   0  0  0  0  0  0  0  0  0  0  0  0
    9.0430    0.2380   21.4940 C   0  0  0  0  0  0  0  0  0  0  0  0
    7.9496   -4.9537   28.7345 C   0  0  0  0  0  0  0  0  0  0  0  0
    6.8919   -4.0607   28.0818 C   0  0  0  0  0  0  0  0  0  0  0  0
    9.2470   -4.9693   27.9230 C   0  0  0  0  0  0  0  0  0  0  0  0
    6.6889   -4.4385   26.6147 C   0  0  0  0  0  0  0  0  0  0  0  0
    8.9871   -5.3207   26.4549 C   0  0  0  0  0  0  0  0  0  0  0  0
    9.6852    1.2097   23.6944 C   0  0  0  0  0  0  0  0  0  0  0  0
    9.5820   -0.1080   22.7000 C   0  0  1  0  0  0  0  0  0  0  0  0
    6.7100    0.3850   17.8100 N   0  0  0  0  0  0  0  0  0  0  0  0
    7.5840   -0.2700   18.5160 N   0  0  0  0  0  0  0  0  0  0  0  0
    6.1460    0.6070   19.9750 N   0  0  0  0  0  0  0  0  0  0  0  0
    7.9769   -4.4027   25.9163 N   0  0  0  0  0  0  0  0  0  0  0  0
    8.0950   -0.7700   20.8440 N   0  0  0  0  0  0  0  0  0  0  0  0
    9.2950    1.3000   20.9480 O   0  0  0  0  0  0  0  0  0  0  0  0
   12.1030    3.5958   27.6540 Cl  0  0  0  0  0  0  0  0  0  0  0  0
   13.3165   -0.7577   25.8737 H   0  0  0  0  0  0  0  0  0  0  0  0
   11.5336   -0.7405   24.1604 H   0  0  0  0  0  0  0  0  0  0  0  0
   10.2684   -2.6719   22.3867 H   0  0  0  0  0  0  0  0  0  0  0  0
    7.8717   -0.0016   24.7596 H   0  0  0  0  0  0  0  0  0  0  0  0
    9.5443   -4.5616   23.7817 H   0  0  0  0  0  0  0  0  0  0  0  0
    7.1921   -1.8821   26.1908 H   0  0  0  0  0  0  0  0  0  0  0  0
   13.5772    1.1489   27.4203 H   0  0  0  0  0  0  0  0  0  0  0  0
   10.2425    3.1247   25.5365 H   0  0  0  0  0  0  0  0  0  0  0  0
    4.3710    2.0145   17.4451 H   0  0  0  0  0  0  0  0  0  0  0  0
    2.9929    2.6891   19.3400 H   0  0  0  0  0  0  0  0  0  0  0  0
    3.6320    2.0596   21.6814 H   0  0  0  0  0  0  0  0  0  0  0  0
    5.6863    0.7288   22.0575 H   0  0  0  0  0  0  0  0  0  0  0  0
    8.1558   -4.5961   29.7550 H   0  0  0  0  0  0  0  0  0  0  0  0
    7.5611   -5.9778   28.8324 H   0  0  0  0  0  0  0  0  0  0  0  0
    5.9459   -4.1594   28.6209 H   0  0  0  0  0  0  0  0  0  0  0  0
    7.2011   -3.0160   28.1536 H   0  0  0  0  0  0  0  0  0  0  0  0
    9.7290   -3.9880   27.9846 H   0  0  0  0  0  0  0  0  0  0  0  0
    9.9437   -5.6964   28.3562 H   0  0  0  0  0  0  0  0  0  0  0  0
    6.2543   -5.4402   26.5659 H   0  0  0  0  0  0  0  0  0  0  0  0
    5.9909   -3.7397   26.1451 H   0  0  0  0  0  0  0  0  0  0  0  0
    9.9128   -5.2367   25.8843 H   0  0  0  0  0  0  0  0  0  0  0  0
    8.6365   -6.3517   26.3987 H   0  0  0  0  0  0  0  0  0  0  0  0
    8.7197    1.4079   24.1780 H   0  0  0  0  0  0  0  0  0  0  0  0
    9.8623    2.0699   23.0340 H   0  0  0  0  0  0  0  0  0  0  0  0
   10.7567   -0.2690   22.5478 H   0  0  0  0  0  0  0  0  0  0  0  0
    8.0917   -1.6083   21.0911 H   0  0  0  0  0  0  0  0  0  0  0  0
  1  2  2  0  0  0  0
  1  7  1  0  0  0  0
  2 10  1  0  0  0  0
  3  5  2  0  0  0  0
  3  9  1  0  0  0  0
  4  6  1  0  0  0  0
  4  9  2  0  0  0  0
  5 11  1  0  0  0  0
  6 11  2  0  0  0  0
  7 12  2  0  0  0  0
  8 10  2  0  0  0  0
  8 12  1  0  0  0  0
  9 26  1  0  0  0  0
 10 25  1  0  0  0  0
 11 30  1  0  0  0  0
 12 33  1  0  0  0  0
 13 15  1  0  0  0  0
 13 27  2  0  0  0  0
 13 29  1  0  0  0  0
 14 28  2  0  0  0  0
 14 29  1  0  0  0  0
 14 31  1  0  0  0  0
 15 16  2  0  0  0  0
 16 17  1  0  0  0  0
 17 18  2  0  0  0  0
 18 29  1  0  0  0  0
 19 26  1  1  0  0  0
 19 31  1  0  0  0  0
 19 32  2  0  0  0  0
 20 21  1  0  0  0  0
 20 22  1  0  0  0  0
 21 23  1  0  0  0  0
 22 24  1  0  0  0  0
 23 30  1  0  0  0  0
 24 30  1  0  0  0  0
 25 26  1  0  0  0  0
 27 28  1  0  0  0  0
  1 34  1  0  0  0  0
  2 35  1  0  0  0  0
  3 36  1  0  0  0  0
  4 37  1  0  0  0  0
  5 38  1  0  0  0  0
  6 39  1  0  0  0  0
  7 40  1  0  0  0  0
  8 41  1  0  0  0  0
 15 42  1  0  0  0  0
 16 43  1  0  0  0  0
 17 44  1  0  0  0  0
 18 45  1  0  0  0  0
 20 46  1  0  0  0  0
 20 47  1  0  0  0  0
 21 48  1  0  0  0  0
 21 49  1  0  0  0  0
 22 50  1  0  0  0  0
 22 51  1  0  0  0  0
 23 52  1  0  0  0  0
 23 53  1  0  0  0  0
 24 54  1  0  0  0  0
 24 55  1  0  0  0  0
 25 56  1  0  0  0  0
 25 57  1  0  0  0  0
 26 58  1  0  0  0  0
 31 59  1  0  0  0  0
M  END
> <clash_score>
5.493965050688214

> <docking_score>
-4.106459617614746

> <overlap_score>
0.8420959711074829

$$$$
BENZO_323_1
  -OEChem-08232013553D

 47 50  0     1  0  0  0  0  0999 V2000
    9.1890   -3.5540   24.0140 C   0  0  0  0  0  0  0  0  0  0  0  0
    7.8700   -2.0610   25.3550 C   0  0  0  0  0  0  0  0  0  0  0  0
    9.5890   -2.4950   23.2210 C   0  0  0  0  0  0  0  0  0  0  0  0
    8.2550   -1.0010   24.5520 C   0  0  0  0  0  0  0  0  0  0  0  0
   13.1332   -1.1110   24.1732 C   0  0  0  0  0  0  0  0  0  0  0  0
   11.5178   -0.0030   25.1721 C   0  0  0  0  0  0  0  0  0  0  0  0
    8.3450   -3.3440   25.0980 C   0  0  0  0  0  0  0  0  0  0  0  0
    9.1280   -1.2090   23.4870 C   0  0  0  0  0  0  0  0  0  0  0  0
   11.9236   -0.4323   23.9322 C   0  0  0  0  0  0  0  0  0  0  0  0
    5.7970    0.9500   18.6730 C   0  0  0  0  0  0  0  0  0  0  0  0
    7.2710   -0.1460   19.8310 C   0  0  0  0  0  0  0  0  0  0  0  0
    4.6610    1.7170   18.4380 C   0  0  0  0  0  0  0  0  0  0  0  0
    3.8860    2.1050   19.5250 C   0  0  0  0  0  0  0  0  0  0  0  0
    4.2460    1.7520   20.8250 C   0  0  0  0  0  0  0  0  0  0  0  0
    5.3890    1.0010   21.0690 C   0  0  0  0  0  0  0  0  0  0  0  0
    9.0430    0.2380   21.4940 C   0  0  0  0  0  0  0  0  0  0  0  0
    7.9517   -4.4787   25.9770 C   0  0  0  0  0  0  0  0  0  0  0  0
   12.4834   -0.2219   27.4740 C   0  0  0  0  0  0  0  0  0  0  0  0
   11.2273   -0.2199   22.6076 C   0  0  0  0  0  0  0  0  0  0  0  0
    9.5820   -0.1080   22.7000 C   0  0  1  0  0  0  0  0  0  0  0  0
   13.4738   -1.1150   25.4647 N   0  0  0  0  0  0  0  0  0  0  0  0
    6.7100    0.3850   17.8100 N   0  0  0  0  0  0  0  0  0  0  0  0
    7.5840   -0.2700   18.5160 N   0  0  0  0  0  0  0  0  0  0  0  0
   12.4721   -0.4335   26.0464 N   0  0  0  0  0  0  0  0  0  0  0  0
    6.1460    0.6070   19.9750 N   0  0  0  0  0  0  0  0  0  0  0  0
    8.0950   -0.7700   20.8440 N   0  0  0  0  0  0  0  0  0  0  0  0
    9.2950    1.3000   20.9480 O   0  0  0  0  0  0  0  0  0  0  0  0
    9.5416   -4.5625   23.7818 H   0  0  0  0  0  0  0  0  0  0  0  0
    7.1926   -1.8847   26.1916 H   0  0  0  0  0  0  0  0  0  0  0  0
   10.2688   -2.6720   22.3870 H   0  0  0  0  0  0  0  0  0  0  0  0
    7.8705   -0.0015   24.7579 H   0  0  0  0  0  0  0  0  0  0  0  0
   13.7829   -1.6028   23.4631 H   0  0  0  0  0  0  0  0  0  0  0  0
   10.6535    0.5594   25.4986 H   0  0  0  0  0  0  0  0  0  0  0  0
    4.3710    2.0145   17.4451 H   0  0  0  0  0  0  0  0  0  0  0  0
    2.9929    2.6891   19.3400 H   0  0  0  0  0  0  0  0  0  0  0  0
    3.6320    2.0596   21.6814 H   0  0  0  0  0  0  0  0  0  0  0  0
    5.6863    0.7288   22.0575 H   0  0  0  0  0  0  0  0  0  0  0  0
    8.6661   -4.5883   26.8021 H   0  0  0  0  0  0  0  0  0  0  0  0
    6.9508   -4.3263   26.4014 H   0  0  0  0  0  0  0  0  0  0  0  0
    7.9188   -5.4228   25.4175 H   0  0  0  0  0  0  0  0  0  0  0  0
   11.9614   -1.0599   27.9433 H   0  0  0  0  0  0  0  0  0  0  0  0
   13.5174   -0.1700   27.8262 H   0  0  0  0  0  0  0  0  0  0  0  0
   11.9792    0.7209   27.7036 H   0  0  0  0  0  0  0  0  0  0  0  0
   11.5842    0.7150   22.1561 H   0  0  0  0  0  0  0  0  0  0  0  0
   11.5525   -1.0164   21.9239 H   0  0  0  0  0  0  0  0  0  0  0  0
    9.5374    0.8439   23.4178 H   0  0  0  0  0  0  0  0  0  0  0  0
    8.0706   -1.6189   21.0730 H   0  0  0  0  0  0  0  0  0  0  0  0
  1  3  2  0  0  0  0
  1  7  1  0  0  0  0
  2  4  1  0  0  0  0
  2  7  2  0  0  0  0
  3  8  1  0  0  0  0
  4  8  2  0  0  0  0
  5  9  1  0  0  0  0
  5 21  2  0  0  0  0
  6  9  2  0  0  0  0
  6 24  1  0  0  0  0
  7 17  1  0  0  0  0
  8 20  1  0  0  0  0
  9 19  1  0  0  0  0
 10 12  1  0  0  0  0
 10 22  2  0  0  0  0
 10 25  1  0  0  0  0
 11 23  2  0  0  0  0
 11 25  1  0  0  0  0
 11 26  1  0  0  0  0
 12 13  2  0  0  0  0
 13 14  1  0  0  0  0
 14 15  2  0  0  0  0
 15 25  1  0  0  0  0
 16 20  1  0  0  0  0
 16 26  1  0  0  0  0
 16 27  2  0  0  0  0
 18 24  1  0  0  0  0
 19 20  1  1  0  0  0
 21 24  1  0  0  0  0
 22 23  1  0  0  0  0
  1 28  1  0  0  0  0
  2 29  1  0  0  0  0
  3 30  1  0  0  0  0
  4 31  1  0  0  0  0
  5 32  1  0  0  0  0
  6 33  1  0  0  0  0
 12 34  1  0  0  0  0
 13 35  1  0  0  0  0
 14 36  1  0  0  0  0
 15 37  1  0  0  0  0
 17 38  1  0  0  0  0
 17 39  1  0  0  0  0
 17 40  1  0  0  0  0
 18 41  1  0  0  0  0
 18 42  1  0  0  0  0
 18 43  1  0  0  0  0
 19 44  1  0  0  0  0
 19 45  1  0  0  0  0
 20 46  1  0  0  0  0
 26 47  1  0  0  0  0
M  END
> <clash_score>
0

> <docking_score>
-5.152143478393555

> <overlap_score>
0.8262997269630432

$$$$
BENZO_323_2
  -OEChem-08232013553D

 47 50  0     1  0  0  0  0  0999 V2000
    9.1890   -3.5540   24.0140 C   0  0  0  0  0  0  0  0  0  0  0  0
    7.8700   -2.0610   25.3550 C   0  0  0  0  0  0  0  0  0  0  0  0
    9.5890   -2.4950   23.2210 C   0  0  0  0  0  0  0  0  0  0  0  0
    8.2550   -1.0010   24.5520 C   0  0  0  0  0  0  0  0  0  0  0  0
   11.7155    0.1520   24.9872 C   0  0  0  0  0  0  0  0  0  0  0  0
   11.0544    2.1258   25.6959 C   0  0  0  0  0  0  0  0  0  0  0  0
    8.3450   -3.3440   25.0980 C   0  0  0  0  0  0  0  0  0  0  0  0
    9.1280   -1.2090   23.4870 C   0  0  0  0  0  0  0  0  0  0  0  0
   10.7691    1.1678   24.7539 C   0  0  0  0  0  0  0  0  0  0  0  0
    5.7970    0.9500   18.6730 C   0  0  0  0  0  0  0  0  0  0  0  0
    7.2710   -0.1460   19.8310 C   0  0  0  0  0  0  0  0  0  0  0  0
    4.6610    1.7170   18.4380 C   0  0  0  0  0  0  0  0  0  0  0  0
    3.8860    2.1050   19.5250 C   0  0  0  0  0  0  0  0  0  0  0  0
    4.2460    1.7520   20.8250 C   0  0  0  0  0  0  0  0  0  0  0  0
    5.3890    1.0010   21.0690 C   0  0  0  0  0  0  0  0  0  0  0  0
    9.0430    0.2380   21.4940 C   0  0  0  0  0  0  0  0  0  0  0  0
    7.9517   -4.4787   25.9770 C   0  0  0  0  0  0  0  0  0  0  0  0
   12.7726    2.3013   27.5113 C   0  0  0  0  0  0  0  0  0  0  0  0
    9.6841    1.2008   23.7022 C   0  0  0  0  0  0  0  0  0  0  0  0
    9.5820   -0.1080   22.7000 C   0  0  2  0  0  0  0  0  0  0  0  0
   12.5403    0.4380   25.9980 N   0  0  0  0  0  0  0  0  0  0  0  0
    6.7100    0.3850   17.8100 N   0  0  0  0  0  0  0  0  0  0  0  0
    7.5840   -0.2700   18.5160 N   0  0  0  0  0  0  0  0  0  0  0  0
   12.1132    1.6445   26.4082 N   0  0  0  0  0  0  0  0  0  0  0  0
    6.1460    0.6070   19.9750 N   0  0  0  0  0  0  0  0  0  0  0  0
    8.0950   -0.7700   20.8440 N   0  0  0  0  0  0  0  0  0  0  0  0
    9.2950    1.3000   20.9480 O   0  0  0  0  0  0  0  0  0  0  0  0
    9.5416   -4.5625   23.7818 H   0  0  0  0  0  0  0  0  0  0  0  0
    7.1926   -1.8847   26.1916 H   0  0  0  0  0  0  0  0  0  0  0  0
   10.2688   -2.6720   22.3870 H   0  0  0  0  0  0  0  0  0  0  0  0
    7.8705   -0.0015   24.7579 H   0  0  0  0  0  0  0  0  0  0  0  0
   11.8409   -0.7851   24.4635 H   0  0  0  0  0  0  0  0  0  0  0  0
   10.6061    3.0857   25.9138 H   0  0  0  0  0  0  0  0  0  0  0  0
    4.3710    2.0145   17.4451 H   0  0  0  0  0  0  0  0  0  0  0  0
    2.9929    2.6891   19.3400 H   0  0  0  0  0  0  0  0  0  0  0  0
    3.6320    2.0596   21.6814 H   0  0  0  0  0  0  0  0  0  0  0  0
    5.6863    0.7288   22.0575 H   0  0  0  0  0  0  0  0  0  0  0  0
    8.6661   -4.5883   26.8021 H   0  0  0  0  0  0  0  0  0  0  0  0
    6.9508   -4.3263   26.4014 H   0  0  0  0  0  0  0  0  0  0  0  0
    7.9188   -5.4228   25.4175 H   0  0  0  0  0  0  0  0  0  0  0  0
   12.2713    1.9965   28.4337 H   0  0  0  0  0  0  0  0  0  0  0  0
   13.8256    2.0072   27.5334 H   0  0  0  0  0  0  0  0  0  0  0  0
   12.7061    3.3847   27.3788 H   0  0  0  0  0  0  0  0  0  0  0  0
    8.7167    1.3910   24.1851 H   0  0  0  0  0  0  0  0  0  0  0  0
    9.8647    2.0727   23.0582 H   0  0  0  0  0  0  0  0  0  0  0  0
   10.7539   -0.2760   22.5528 H   0  0  0  0  0  0  0  0  0  0  0  0
    8.0706   -1.6189   21.0730 H   0  0  0  0  0  0  0  0  0  0  0  0
  1  3  2  0  0  0  0
  1  7  1  0  0  0  0
  2  4  1  0  0  0  0
  2  7  2  0  0  0  0
  3  8  1  0  0  0  0
  4  8  2  0  0  0  0
  5  9  1  0  0  0  0
  5 21  2  0  0  0  0
  6  9  2  0  0  0  0
  6 24  1  0  0  0  0
  7 17  1  0  0  0  0
  8 20  1  0  0  0  0
  9 19  1  0  0  0  0
 10 12  1  0  0  0  0
 10 22  2  0  0  0  0
 10 25  1  0  0  0  0
 11 23  2  0  0  0  0
 11 25  1  0  0  0  0
 11 26  1  0  0  0  0
 12 13  2  0  0  0  0
 13 14  1  0  0  0  0
 14 15  2  0  0  0  0
 15 25  1  0  0  0  0
 16 20  1  0  0  0  0
 16 26  1  0  0  0  0
 16 27  2  0  0  0  0
 18 24  1  0  0  0  0
 19 20  1  6  0  0  0
 21 24  1  0  0  0  0
 22 23  1  0  0  0  0
  1 28  1  0  0  0  0
  2 29  1  0  0  0  0
  3 30  1  0  0  0  0
  4 31  1  0  0  0  0
  5 32  1  0  0  0  0
  6 33  1  0  0  0  0
 12 34  1  0  0  0  0
 13 35  1  0  0  0  0
 14 36  1  0  0  0  0
 15 37  1  0  0  0  0
 17 38  1  0  0  0  0
 17 39  1  0  0  0  0
 17 40  1  0  0  0  0
 18 41  1  0  0  0  0
 18 42  1  0  0  0  0
 18 43  1  0  0  0  0
 19 44  1  0  0  0  0
 19 45  1  0  0  0  0
 20 46  1  0  0  0  0
 26 47  1  0  0  0  0
M  END
> <clash_score>
3.2086007587674423

> <docking_score>
-3.094789981842041

> <overlap_score>
0.7493649125099182

$$$$
BENZO_322_1
  -OEChem-08232013553D

 47 50  0     1  0  0  0  0  0999 V2000
   13.7696   -1.3331   25.2040 C   0  0  0  0  0  0  0  0  0  0  0  0
   13.1260   -1.1377   23.9821 C   0  0  0  0  0  0  0  0  0  0  0  0
    9.1890   -3.5540   24.0140 C   0  0  0  0  0  0  0  0  0  0  0  0
    7.8700   -2.0610   25.3550 C   0  0  0  0  0  0  0  0  0  0  0  0
    9.5890   -2.4950   23.2210 C   0  0  0  0  0  0  0  0  0  0  0  0
    8.2550   -1.0010   24.5520 C   0  0  0  0  0  0  0  0  0  0  0  0
   13.2109   -0.8232   26.3761 C   0  0  0  0  0  0  0  0  0  0  0  0
   11.3649    0.0776   25.1042 C   0  0  0  0  0  0  0  0  0  0  0  0
    8.3450   -3.3440   25.0980 C   0  0  0  0  0  0  0  0  0  0  0  0
    9.1280   -1.2090   23.4870 C   0  0  0  0  0  0  0  0  0  0  0  0
   11.9236   -0.4323   23.9322 C   0  0  0  0  0  0  0  0  0  0  0  0
   12.0086   -0.1179   26.3261 C   0  0  0  0  0  0  0  0  0  0  0  0
    5.7970    0.9500   18.6730 C   0  0  0  0  0  0  0  0  0  0  0  0
    7.2710   -0.1460   19.8310 C   0  0  0  0  0  0  0  0  0  0  0  0
    4.6610    1.7170   18.4380 C   0  0  0  0  0  0  0  0  0  0  0  0
    3.8860    2.1050   19.5250 C   0  0  0  0  0  0  0  0  0  0  0  0
    4.2460    1.7520   20.8250 C   0  0  0  0  0  0  0  0  0  0  0  0
    5.3890    1.0010   21.0690 C   0  0  0  0  0  0  0  0  0  0  0  0
    9.0430    0.2380   21.4940 C   0  0  0  0  0  0  0  0  0  0  0  0
    7.9517   -4.4787   25.9770 C   0  0  0  0  0  0  0  0  0  0  0  0
   11.2273   -0.2199   22.6076 C   0  0  0  0  0  0  0  0  0  0  0  0
    9.5820   -0.1080   22.7000 C   0  0  1  0  0  0  0  0  0  0  0  0
    6.7100    0.3850   17.8100 N   0  0  0  0  0  0  0  0  0  0  0  0
    7.5840   -0.2700   18.5160 N   0  0  0  0  0  0  0  0  0  0  0  0
    6.1460    0.6070   19.9750 N   0  0  0  0  0  0  0  0  0  0  0  0
    8.0950   -0.7700   20.8440 N   0  0  0  0  0  0  0  0  0  0  0  0
    9.2950    1.3000   20.9480 O   0  0  0  0  0  0  0  0  0  0  0  0
   11.3203    0.5119   27.7723 Cl  0  0  0  0  0  0  0  0  0  0  0  0
   14.7060   -1.8822   25.2425 H   0  0  0  0  0  0  0  0  0  0  0  0
   13.5686   -1.5384   23.0739 H   0  0  0  0  0  0  0  0  0  0  0  0
    9.5416   -4.5625   23.7818 H   0  0  0  0  0  0  0  0  0  0  0  0
    7.1926   -1.8847   26.1916 H   0  0  0  0  0  0  0  0  0  0  0  0
   10.2688   -2.6720   22.3870 H   0  0  0  0  0  0  0  0  0  0  0  0
    7.8705   -0.0015   24.7579 H   0  0  0  0  0  0  0  0  0  0  0  0
   13.7238   -0.9829   27.3213 H   0  0  0  0  0  0  0  0  0  0  0  0
   10.4270    0.6263   25.0600 H   0  0  0  0  0  0  0  0  0  0  0  0
    4.3710    2.0145   17.4451 H   0  0  0  0  0  0  0  0  0  0  0  0
    2.9929    2.6891   19.3400 H   0  0  0  0  0  0  0  0  0  0  0  0
    3.6320    2.0596   21.6814 H   0  0  0  0  0  0  0  0  0  0  0  0
    5.6863    0.7288   22.0575 H   0  0  0  0  0  0  0  0  0  0  0  0
    8.6661   -4.5883   26.8021 H   0  0  0  0  0  0  0  0  0  0  0  0
    6.9508   -4.3263   26.4014 H   0  0  0  0  0  0  0  0  0  0  0  0
    7.9188   -5.4228   25.4175 H   0  0  0  0  0  0  0  0  0  0  0  0
   11.5842    0.7150   22.1561 H   0  0  0  0  0  0  0  0  0  0  0  0
   11.5525   -1.0164   21.9239 H   0  0  0  0  0  0  0  0  0  0  0  0
    9.5374    0.8439   23.4178 H   0  0  0  0  0  0  0  0  0  0  0  0
    8.0706   -1.6189   21.0730 H   0  0  0  0  0  0  0  0  0  0  0  0
  1  2  2  0  0  0  0
  1  7  1  0  0  0  0
  2 11  1  0  0  0  0
  3  5  2  0  0  0  0
  3  9  1  0  0  0  0
  4  6  1  0  0  0  0
  4  9  2  0  0  0  0
  5 10  1  0  0  0  0
  6 10  2  0  0  0  0
  7 12  2  0  0  0  0
  8 11  2  0  0  0  0
  8 12  1  0  0  0  0
  9 20  1  0  0  0  0
 10 22  1  0  0  0  0
 11 21  1  0  0  0  0
 12 28  1  0  0  0  0
 13 15  1  0  0  0  0
 13 23  2  0  0  0  0
 13 25  1  0  0  0  0
 14 24  2  0  0  0  0
 14 25  1  0  0  0  0
 14 26  1  0  0  0  0
 15 16  2  0  0  0  0
 16 17  1  0  0  0  0
 17 18  2  0  0  0  0
 18 25  1  0  0  0  0
 19 22  1  0  0  0  0
 19 26  1  0  0  0  0
 19 27  2  0  0  0  0
 21 22  1  1  0  0  0
 23 24  1  0  0  0  0
  1 29  1  0  0  0  0
  2 30  1  0  0  0  0
  3 31  1  0  0  0  0
  4 32  1  0  0  0  0
  5 33  1  0  0  0  0
  6 34  1  0  0  0  0
  7 35  1  0  0  0  0
  8 36  1  0  0  0  0
 15 37  1  0  0  0  0
 16 38  1  0  0  0  0
 17 39  1  0  0  0  0
 18 40  1  0  0  0  0
 20 41  1  0  0  0  0
 20 42  1  0  0  0  0
 20 43  1  0  0  0  0
 21 44  1  0  0  0  0
 21 45  1  0  0  0  0
 22 46  1  0  0  0  0
 26 47  1  0  0  0  0
M  END
> <clash_score>
0.7019253910792591

> <docking_score>
-4.854227066040039

> <overlap_score>
0.8299895524978638

$$$$
BENZO_322_2
  -OEChem-08232013553D

 47 50  0     1  0  0  0  0  0999 V2000
   12.9593    0.4495   25.4778 C   0  0  0  0  0  0  0  0  0  0  0  0
   11.9571    0.4794   24.5081 C   0  0  0  0  0  0  0  0  0  0  0  0
    9.1890   -3.5540   24.0140 C   0  0  0  0  0  0  0  0  0  0  0  0
    7.8700   -2.0610   25.3550 C   0  0  0  0  0  0  0  0  0  0  0  0
    9.5890   -2.4950   23.2210 C   0  0  0  0  0  0  0  0  0  0  0  0
    8.2550   -1.0010   24.5520 C   0  0  0  0  0  0  0  0  0  0  0  0
   12.7735    1.1081   26.6933 C   0  0  0  0  0  0  0  0  0  0  0  0
   10.5833    1.8264   25.9694 C   0  0  0  0  0  0  0  0  0  0  0  0
    8.3450   -3.3440   25.0980 C   0  0  0  0  0  0  0  0  0  0  0  0
    9.1280   -1.2090   23.4870 C   0  0  0  0  0  0  0  0  0  0  0  0
   10.7691    1.1678   24.7539 C   0  0  0  0  0  0  0  0  0  0  0  0
   11.5856    1.7966   26.9391 C   0  0  0  0  0  0  0  0  0  0  0  0
    5.7970    0.9500   18.6730 C   0  0  0  0  0  0  0  0  0  0  0  0
    7.2710   -0.1460   19.8310 C   0  0  0  0  0  0  0  0  0  0  0  0
    4.6610    1.7170   18.4380 C   0  0  0  0  0  0  0  0  0  0  0  0
    3.8860    2.1050   19.5250 C   0  0  0  0  0  0  0  0  0  0  0  0
    4.2460    1.7520   20.8250 C   0  0  0  0  0  0  0  0  0  0  0  0
    5.3890    1.0010   21.0690 C   0  0  0  0  0  0  0  0  0  0  0  0
    9.0430    0.2380   21.4940 C   0  0  0  0  0  0  0  0  0  0  0  0
    7.9517   -4.4787   25.9770 C   0  0  0  0  0  0  0  0  0  0  0  0
    9.6841    1.2008   23.7022 C   0  0  0  0  0  0  0  0  0  0  0  0
    9.5820   -0.1080   22.7000 C   0  0  2  0  0  0  0  0  0  0  0  0
    6.7100    0.3850   17.8100 N   0  0  0  0  0  0  0  0  0  0  0  0
    7.5840   -0.2700   18.5160 N   0  0  0  0  0  0  0  0  0  0  0  0
    6.1460    0.6070   19.9750 N   0  0  0  0  0  0  0  0  0  0  0  0
    8.0950   -0.7700   20.8440 N   0  0  0  0  0  0  0  0  0  0  0  0
    9.2950    1.3000   20.9480 O   0  0  0  0  0  0  0  0  0  0  0  0
   11.3574    2.6099   28.4385 Cl  0  0  0  0  0  0  0  0  0  0  0  0
   13.8843   -0.0866   25.2859 H   0  0  0  0  0  0  0  0  0  0  0  0
   12.1105   -0.0365   23.5638 H   0  0  0  0  0  0  0  0  0  0  0  0
    9.5416   -4.5625   23.7818 H   0  0  0  0  0  0  0  0  0  0  0  0
    7.1926   -1.8847   26.1916 H   0  0  0  0  0  0  0  0  0  0  0  0
   10.2688   -2.6720   22.3870 H   0  0  0  0  0  0  0  0  0  0  0  0
    7.8705   -0.0015   24.7579 H   0  0  0  0  0  0  0  0  0  0  0  0
   13.5634    1.0766   27.4398 H   0  0  0  0  0  0  0  0  0  0  0  0
    9.6551    2.3614   26.1564 H   0  0  0  0  0  0  0  0  0  0  0  0
    4.3710    2.0145   17.4451 H   0  0  0  0  0  0  0  0  0  0  0  0
    2.9929    2.6891   19.3400 H   0  0  0  0  0  0  0  0  0  0  0  0
    3.6320    2.0596   21.6814 H   0  0  0  0  0  0  0  0  0  0  0  0
    5.6863    0.7288   22.0575 H   0  0  0  0  0  0  0  0  0  0  0  0
    8.6661   -4.5883   26.8021 H   0  0  0  0  0  0  0  0  0  0  0  0
    6.9508   -4.3263   26.4014 H   0  0  0  0  0  0  0  0  0  0  0  0
    7.9188   -5.4228   25.4175 H   0  0  0  0  0  0  0  0  0  0  0  0
    8.7167    1.3910   24.1851 H   0  0  0  0  0  0  0  0  0  0  0  0
    9.8647    2.0727   23.0582 H   0  0  0  0  0  0  0  0  0  0  0  0
   10.7539   -0.2760   22.5528 H   0  0  0  0  0  0  0  0  0  0  0  0
    8.0706   -1.6189   21.0730 H   0  0  0  0  0  0  0  0  0  0  0  0
  1  2  2  0  0  0  0
  1  7  1  0  0  0  0
  2 11  1  0  0  0  0
  3  5  2  0  0  0  0
  3  9  1  0  0  0  0
  4  6  1  0  0  0  0
  4  9  2  0  0  0  0
  5 10  1  0  0  0  0
  6 10  2  0  0  0  0
  7 12  2  0  0  0  0
  8 11  2  0  0  0  0
  8 12  1  0  0  0  0
  9 20  1  0  0  0  0
 10 22  1  0  0  0  0
 11 21  1  0  0  0  0
 12 28  1  0  0  0  0
 13 15  1  0  0  0  0
 13 23  2  0  0  0  0
 13 25  1  0  0  0  0
 14 24  2  0  0  0  0
 14 25  1  0  0  0  0
 14 26  1  0  0  0  0
 15 16  2  0  0  0  0
 16 17  1  0  0  0  0
 17 18  2  0  0  0  0
 18 25  1  0  0  0  0
 19 22  1  0  0  0  0
 19 26  1  0  0  0  0
 19 27  2  0  0  0  0
 21 22  1  6  0  0  0
 23 24  1  0  0  0  0
  1 29  1  0  0  0  0
  2 30  1  0  0  0  0
  3 31  1  0  0  0  0
  4 32  1  0  0  0  0
  5 33  1  0  0  0  0
  6 34  1  0  0  0  0
  7 35  1  0  0  0  0
  8 36  1  0  0  0  0
 15 37  1  0  0  0  0
 16 38  1  0  0  0  0
 17 39  1  0  0  0  0
 18 40  1  0  0  0  0
 20 41  1  0  0  0  0
 20 42  1  0  0  0  0
 20 43  1  0  0  0  0
 21 44  1  0  0  0  0
 21 45  1  0  0  0  0
 22 46  1  0  0  0  0
 26 47  1  0  0  0  0
M  END
> <clash_score>
7.492658352547018

> <docking_score>
-3.0887486934661865

> <overlap_score>
0.7589688301086426

$$$$
BENZO_325_1
  -OEChem-08232013553D

 48 51  0     1  0  0  0  0  0999 V2000
   13.2081   -0.8233   26.3776 C   0  0  0  0  0  0  0  0  0  0  0  0
   13.7678   -1.3337   25.2064 C   0  0  0  0  0  0  0  0  0  0  0  0
   12.0060   -0.1174   26.3261 C   0  0  0  0  0  0  0  0  0  0  0  0
   13.1256   -1.1382   23.9837 C   0  0  0  0  0  0  0  0  0  0  0  0
   11.3638    0.0781   25.1034 C   0  0  0  0  0  0  0  0  0  0  0  0
    9.5890   -2.4950   23.2210 C   0  0  0  0  0  0  0  0  0  0  0  0
    8.2550   -1.0010   24.5520 C   0  0  0  0  0  0  0  0  0  0  0  0
    9.1890   -3.5540   24.0140 C   0  0  0  0  0  0  0  0  0  0  0  0
    7.8700   -2.0610   25.3550 C   0  0  0  0  0  0  0  0  0  0  0  0
   11.9236   -0.4323   23.9322 C   0  0  0  0  0  0  0  0  0  0  0  0
    9.1280   -1.2090   23.4870 C   0  0  0  0  0  0  0  0  0  0  0  0
    8.3450   -3.3440   25.0980 C   0  0  0  0  0  0  0  0  0  0  0  0
    5.7970    0.9500   18.6730 C   0  0  0  0  0  0  0  0  0  0  0  0
    7.2710   -0.1460   19.8310 C   0  0  0  0  0  0  0  0  0  0  0  0
    4.6610    1.7170   18.4380 C   0  0  0  0  0  0  0  0  0  0  0  0
    3.8860    2.1050   19.5250 C   0  0  0  0  0  0  0  0  0  0  0  0
    4.2460    1.7520   20.8250 C   0  0  0  0  0  0  0  0  0  0  0  0
    5.3890    1.0010   21.0690 C   0  0  0  0  0  0  0  0  0  0  0  0
    9.0430    0.2380   21.4940 C   0  0  0  0  0  0  0  0  0  0  0  0
    7.1165   -4.0858   26.9913 C   0  0  0  0  0  0  0  0  0  0  0  0
   11.2273   -0.2199   22.6076 C   0  0  0  0  0  0  0  0  0  0  0  0
    9.5820   -0.1080   22.7000 C   0  0  1  0  0  0  0  0  0  0  0  0
    6.7100    0.3850   17.8100 N   0  0  0  0  0  0  0  0  0  0  0  0
    7.5840   -0.2700   18.5160 N   0  0  0  0  0  0  0  0  0  0  0  0
    6.1460    0.6070   19.9750 N   0  0  0  0  0  0  0  0  0  0  0  0
    8.0950   -0.7700   20.8440 N   0  0  0  0  0  0  0  0  0  0  0  0
    9.2950    1.3000   20.9480 O   0  0  0  0  0  0  0  0  0  0  0  0
    7.9856   -4.3803   25.8987 O   0  0  0  0  0  0  0  0  0  0  0  0
   13.7076   -0.9767   27.3297 H   0  0  0  0  0  0  0  0  0  0  0  0
   14.7032   -1.8843   25.2464 H   0  0  0  0  0  0  0  0  0  0  0  0
   11.5694    0.2792   27.2379 H   0  0  0  0  0  0  0  0  0  0  0  0
   13.5692   -1.5394   23.0762 H   0  0  0  0  0  0  0  0  0  0  0  0
   10.4277    0.6294   25.0729 H   0  0  0  0  0  0  0  0  0  0  0  0
   10.2677   -2.6721   22.3861 H   0  0  0  0  0  0  0  0  0  0  0  0
    7.8705   -0.0015   24.7586 H   0  0  0  0  0  0  0  0  0  0  0  0
    9.5403   -4.5634   23.7844 H   0  0  0  0  0  0  0  0  0  0  0  0
    7.1918   -1.8874   26.1909 H   0  0  0  0  0  0  0  0  0  0  0  0
    4.3710    2.0145   17.4451 H   0  0  0  0  0  0  0  0  0  0  0  0
    2.9929    2.6891   19.3400 H   0  0  0  0  0  0  0  0  0  0  0  0
    3.6320    2.0596   21.6814 H   0  0  0  0  0  0  0  0  0  0  0  0
    5.6863    0.7288   22.0575 H   0  0  0  0  0  0  0  0  0  0  0  0
    6.9092   -5.0017   27.5501 H   0  0  0  0  0  0  0  0  0  0  0  0
    6.1847   -3.6588   26.6120 H   0  0  0  0  0  0  0  0  0  0  0  0
    7.6049   -3.3630   27.6492 H   0  0  0  0  0  0  0  0  0  0  0  0
   11.5842    0.7150   22.1561 H   0  0  0  0  0  0  0  0  0  0  0  0
   11.5525   -1.0164   21.9239 H   0  0  0  0  0  0  0  0  0  0  0  0
    9.5374    0.8439   23.4178 H   0  0  0  0  0  0  0  0  0  0  0  0
    8.0706   -1.6189   21.0730 H   0  0  0  0  0  0  0  0  0  0  0  0
  1  2  1  0  0  0  0
  1  3  2  0  0  0  0
  2  4  2  0  0  0  0
  3  5  1  0  0  0  0
  4 10  1  0  0  0  0
  5 10  2  0  0  0  0
  6  8  2  0  0  0  0
  6 11  1  0  0  0  0
  7  9  1  0  0  0  0
  7 11  2  0  0  0  0
  8 12  1  0  0  0  0
  9 12  2  0  0  0  0
 10 21  1  0  0  0  0
 11 22  1  0  0  0  0
 12 28  1  0  0  0  0
 13 15  1  0  0  0  0
 13 23  2  0  0  0  0
 13 25  1  0  0  0  0
 14 24  2  0  0  0  0
 14 25  1  0  0  0  0
 14 26  1  0  0  0  0
 15 16  2  0  0  0  0
 16 17  1  0  0  0  0
 17 18  2  0  0  0  0
 18 25  1  0  0  0  0
 19 22  1  0  0  0  0
 19 26  1  0  0  0  0
 19 27  2  0  0  0  0
 20 28  1  0  0  0  0
 21 22  1  1  0  0  0
 23 24  1  0  0  0  0
  1 29  1  0  0  0  0
  2 30  1  0  0  0  0
  3 31  1  0  0  0  0
  4 32  1  0  0  0  0
  5 33  1  0  0  0  0
  6 34  1  0  0  0  0
  7 35  1  0  0  0  0
  8 36  1  0  0  0  0
  9 37  1  0  0  0  0
 15 38  1  0  0  0  0
 16 39  1  0  0  0  0
 17 40  1  0  0  0  0
 18 41  1  0  0  0  0
 20 42  1  0  0  0  0
 20 43  1  0  0  0  0
 20 44  1  0  0  0  0
 21 45  1  0  0  0  0
 21 46  1  0  0  0  0
 22 47  1  0  0  0  0
 26 48  1  0  0  0  0
M  END
> <clash_score>
0

> <docking_score>
-5.127065181732178

> <overlap_score>
0.8506874442100525

$$$$
BENZO_325_2
  -OEChem-08232013553D

 48 51  0     1  0  0  0  0  0999 V2000
   12.7714    1.1058   26.6955 C   0  0  0  0  0  0  0  0  0  0  0  0
   12.3476    2.3261   26.1695 C   0  0  0  0  0  0  0  0  0  0  0  0
   12.1941   -0.0836   26.2506 C   0  0  0  0  0  0  0  0  0  0  0  0
   11.3464    2.3572   25.1987 C   0  0  0  0  0  0  0  0  0  0  0  0
   11.1930   -0.0526   25.2799 C   0  0  0  0  0  0  0  0  0  0  0  0
    9.5890   -2.4950   23.2210 C   0  0  0  0  0  0  0  0  0  0  0  0
    8.2550   -1.0010   24.5520 C   0  0  0  0  0  0  0  0  0  0  0  0
    9.1890   -3.5540   24.0140 C   0  0  0  0  0  0  0  0  0  0  0  0
    7.8700   -2.0610   25.3550 C   0  0  0  0  0  0  0  0  0  0  0  0
   10.7691    1.1678   24.7539 C   0  0  0  0  0  0  0  0  0  0  0  0
    9.1280   -1.2090   23.4870 C   0  0  0  0  0  0  0  0  0  0  0  0
    8.3450   -3.3440   25.0980 C   0  0  0  0  0  0  0  0  0  0  0  0
    5.7970    0.9500   18.6730 C   0  0  0  0  0  0  0  0  0  0  0  0
    7.2710   -0.1460   19.8310 C   0  0  0  0  0  0  0  0  0  0  0  0
    4.6610    1.7170   18.4380 C   0  0  0  0  0  0  0  0  0  0  0  0
    3.8860    2.1050   19.5250 C   0  0  0  0  0  0  0  0  0  0  0  0
    4.2460    1.7520   20.8250 C   0  0  0  0  0  0  0  0  0  0  0  0
    5.3890    1.0010   21.0690 C   0  0  0  0  0  0  0  0  0  0  0  0
    9.0430    0.2380   21.4940 C   0  0  0  0  0  0  0  0  0  0  0  0
    7.1165   -4.0858   26.9913 C   0  0  0  0  0  0  0  0  0  0  0  0
    9.6841    1.2008   23.7022 C   0  0  0  0  0  0  0  0  0  0  0  0
    9.5820   -0.1080   22.7000 C   0  0  2  0  0  0  0  0  0  0  0  0
    6.7100    0.3850   17.8100 N   0  0  0  0  0  0  0  0  0  0  0  0
    7.5840   -0.2700   18.5160 N   0  0  0  0  0  0  0  0  0  0  0  0
    6.1460    0.6070   19.9750 N   0  0  0  0  0  0  0  0  0  0  0  0
    8.0950   -0.7700   20.8440 N   0  0  0  0  0  0  0  0  0  0  0  0
    9.2950    1.3000   20.9480 O   0  0  0  0  0  0  0  0  0  0  0  0
    7.9856   -4.3803   25.8987 O   0  0  0  0  0  0  0  0  0  0  0  0
   13.5519    1.0817   27.4504 H   0  0  0  0  0  0  0  0  0  0  0  0
   12.7977    3.2523   26.5149 H   0  0  0  0  0  0  0  0  0  0  0  0
   12.5246   -1.0340   26.6591 H   0  0  0  0  0  0  0  0  0  0  0  0
   11.0224    3.3127   24.7947 H   0  0  0  0  0  0  0  0  0  0  0  0
   10.7489   -0.9842   24.9394 H   0  0  0  0  0  0  0  0  0  0  0  0
   10.2677   -2.6721   22.3861 H   0  0  0  0  0  0  0  0  0  0  0  0
    7.8705   -0.0015   24.7586 H   0  0  0  0  0  0  0  0  0  0  0  0
    9.5403   -4.5634   23.7844 H   0  0  0  0  0  0  0  0  0  0  0  0
    7.1918   -1.8874   26.1909 H   0  0  0  0  0  0  0  0  0  0  0  0
    4.3710    2.0145   17.4451 H   0  0  0  0  0  0  0  0  0  0  0  0
    2.9929    2.6891   19.3400 H   0  0  0  0  0  0  0  0  0  0  0  0
    3.6320    2.0596   21.6814 H   0  0  0  0  0  0  0  0  0  0  0  0
    5.6863    0.7288   22.0575 H   0  0  0  0  0  0  0  0  0  0  0  0
    6.9092   -5.0017   27.5501 H   0  0  0  0  0  0  0  0  0  0  0  0
    6.1847   -3.6588   26.6120 H   0  0  0  0  0  0  0  0  0  0  0  0
    7.6049   -3.3630   27.6492 H   0  0  0  0  0  0  0  0  0  0  0  0
    8.7167    1.3910   24.1851 H   0  0  0  0  0  0  0  0  0  0  0  0
    9.8647    2.0727   23.0582 H   0  0  0  0  0  0  0  0  0  0  0  0
   10.7539   -0.2760   22.5528 H   0  0  0  0  0  0  0  0  0  0  0  0
    8.0706   -1.6189   21.0730 H   0  0  0  0  0  0  0  0  0  0  0  0
  1  2  1  0  0  0  0
  1  3  2  0  0  0  0
  2  4  2  0  0  0  0
  3  5  1  0  0  0  0
  4 10  1  0  0  0  0
  5 10  2  0  0  0  0
  6  8  2  0  0  0  0
  6 11  1  0  0  0  0
  7  9  1  0  0  0  0
  7 11  2  0  0  0  0
  8 12  1  0  0  0  0
  9 12  2  0  0  0  0
 10 21  1  0  0  0  0
 11 22  1  0  0  0  0
 12 28  1  0  0  0  0
 13 15  1  0  0  0  0
 13 23  2  0  0  0  0
 13 25  1  0  0  0  0
 14 24  2  0  0  0  0
 14 25  1  0  0  0  0
 14 26  1  0  0  0  0
 15 16  2  0  0  0  0
 16 17  1  0  0  0  0
 17 18  2  0  0  0  0
 18 25  1  0  0  0  0
 19 22  1  0  0  0  0
 19 26  1  0  0  0  0
 19 27  2  0  0  0  0
 20 28  1  0  0  0  0
 21 22  1  6  0  0  0
 23 24  1  0  0  0  0
  1 29  1  0  0  0  0
  2 30  1  0  0  0  0
  3 31  1  0  0  0  0
  4 32  1  0  0  0  0
  5 33  1  0  0  0  0
  6 34  1  0  0  0  0
  7 35  1  0  0  0  0
  8 36  1  0  0  0  0
  9 37  1  0  0  0  0
 15 38  1  0  0  0  0
 16 39  1  0  0  0  0
 17 40  1  0  0  0  0
 18 41  1  0  0  0  0
 20 42  1  0  0  0  0
 20 43  1  0  0  0  0
 20 44  1  0  0  0  0
 21 45  1  0  0  0  0
 21 46  1  0  0  0  0
 22 47  1  0  0  0  0
 26 48  1  0  0  0  0
M  END
> <clash_score>
3.0570152597266325

> <docking_score>
-3.338156223297119

> <overlap_score>
0.7636301517486572

$$$$
BENZO_324_1
  -OEChem-08232013553D

 45 48  0     1  0  0  0  0  0999 V2000
    9.5890   -2.4950   23.2210 C   0  0  0  0  0  0  0  0  0  0  0  0
    8.2550   -1.0010   24.5520 C   0  0  0  0  0  0  0  0  0  0  0  0
    9.1890   -3.5540   24.0140 C   0  0  0  0  0  0  0  0  0  0  0  0
    7.8700   -2.0610   25.3550 C   0  0  0  0  0  0  0  0  0  0  0  0
   11.4269    0.0504   25.1773 C   0  0  0  0  0  0  0  0  0  0  0  0
   12.2544   -0.2804   26.2278 C   0  0  0  0  0  0  0  0  0  0  0  0
   13.1121   -1.1136   24.0784 C   0  0  0  0  0  0  0  0  0  0  0  0
    9.1280   -1.2090   23.4870 C   0  0  0  0  0  0  0  0  0  0  0  0
   11.9236   -0.4323   23.9322 C   0  0  0  0  0  0  0  0  0  0  0  0
    8.3450   -3.3440   25.0980 C   0  0  0  0  0  0  0  0  0  0  0  0
    5.7970    0.9500   18.6730 C   0  0  0  0  0  0  0  0  0  0  0  0
    7.2710   -0.1460   19.8310 C   0  0  0  0  0  0  0  0  0  0  0  0
    4.6610    1.7170   18.4380 C   0  0  0  0  0  0  0  0  0  0  0  0
    3.8860    2.1050   19.5250 C   0  0  0  0  0  0  0  0  0  0  0  0
    4.2460    1.7520   20.8250 C   0  0  0  0  0  0  0  0  0  0  0  0
    5.3890    1.0010   21.0690 C   0  0  0  0  0  0  0  0  0  0  0  0
    9.0430    0.2380   21.4940 C   0  0  0  0  0  0  0  0  0  0  0  0
    7.1165   -4.0858   26.9913 C   0  0  0  0  0  0  0  0  0  0  0  0
   11.2273   -0.2199   22.6076 C   0  0  0  0  0  0  0  0  0  0  0  0
    9.5820   -0.1080   22.7000 C   0  0  1  0  0  0  0  0  0  0  0  0
    6.7100    0.3850   17.8100 N   0  0  0  0  0  0  0  0  0  0  0  0
    7.5840   -0.2700   18.5160 N   0  0  0  0  0  0  0  0  0  0  0  0
    6.1460    0.6070   19.9750 N   0  0  0  0  0  0  0  0  0  0  0  0
    8.0950   -0.7700   20.8440 N   0  0  0  0  0  0  0  0  0  0  0  0
    9.2950    1.3000   20.9480 O   0  0  0  0  0  0  0  0  0  0  0  0
    7.9856   -4.3803   25.8987 O   0  0  0  0  0  0  0  0  0  0  0  0
   13.6239   -1.1694   25.7116 S   0  0  0  0  0  0  0  0  0  0  0  0
   10.2677   -2.6721   22.3861 H   0  0  0  0  0  0  0  0  0  0  0  0
    7.8705   -0.0015   24.7586 H   0  0  0  0  0  0  0  0  0  0  0  0
    9.5403   -4.5634   23.7844 H   0  0  0  0  0  0  0  0  0  0  0  0
    7.1918   -1.8874   26.1909 H   0  0  0  0  0  0  0  0  0  0  0  0
   10.5098    0.6126   25.3007 H   0  0  0  0  0  0  0  0  0  0  0  0
   12.1206   -0.0420   27.2735 H   0  0  0  0  0  0  0  0  0  0  0  0
   13.7079   -1.5816   23.3071 H   0  0  0  0  0  0  0  0  0  0  0  0
    4.3710    2.0145   17.4451 H   0  0  0  0  0  0  0  0  0  0  0  0
    2.9929    2.6891   19.3400 H   0  0  0  0  0  0  0  0  0  0  0  0
    3.6320    2.0596   21.6814 H   0  0  0  0  0  0  0  0  0  0  0  0
    5.6863    0.7288   22.0575 H   0  0  0  0  0  0  0  0  0  0  0  0
    6.9092   -5.0017   27.5501 H   0  0  0  0  0  0  0  0  0  0  0  0
    6.1847   -3.6588   26.6120 H   0  0  0  0  0  0  0  0  0  0  0  0
    7.6049   -3.3630   27.6492 H   0  0  0  0  0  0  0  0  0  0  0  0
   11.5842    0.7150   22.1561 H   0  0  0  0  0  0  0  0  0  0  0  0
   11.5525   -1.0164   21.9239 H   0  0  0  0  0  0  0  0  0  0  0  0
    9.5374    0.8439   23.4178 H   0  0  0  0  0  0  0  0  0  0  0  0
    8.0706   -1.6189   21.0730 H   0  0  0  0  0  0  0  0  0  0  0  0
  1  3  2  0  0  0  0
  1  8  1  0  0  0  0
  2  4  1  0  0  0  0
  2  8  2  0  0  0  0
  3 10  1  0  0  0  0
  4 10  2  0  0  0  0
  5  6  2  0  0  0  0
  5  9  1  0  0  0  0
  6 27  1  0  0  0  0
  7  9  2  0  0  0  0
  7 27  1  0  0  0  0
  8 20  1  0  0  0  0
  9 19  1  0  0  0  0
 10 26  1  0  0  0  0
 11 13  1  0  0  0  0
 11 21  2  0  0  0  0
 11 23  1  0  0  0  0
 12 22  2  0  0  0  0
 12 23  1  0  0  0  0
 12 24  1  0  0  0  0
 13 14  2  0  0  0  0
 14 15  1  0  0  0  0
 15 16  2  0  0  0  0
 16 23  1  0  0  0  0
 17 20  1  0  0  0  0
 17 24  1  0  0  0  0
 17 25  2  0  0  0  0
 18 26  1  0  0  0  0
 19 20  1  1  0  0  0
 21 22  1  0  0  0  0
  1 28  1  0  0  0  0
  2 29  1  0  0  0  0
  3 30  1  0  0  0  0
  4 31  1  0  0  0  0
  5 32  1  0  0  0  0
  6 33  1  0  0  0  0
  7 34  1  0  0  0  0
 13 35  1  0  0  0  0
 14 36  1  0  0  0  0
 15 37  1  0  0  0  0
 16 38  1  0  0  0  0
 18 39  1  0  0  0  0
 18 40  1  0  0  0  0
 18 41  1  0  0  0  0
 19 42  1  0  0  0  0
 19 43  1  0  0  0  0
 20 44  1  0  0  0  0
 24 45  1  0  0  0  0
M  END
> <clash_score>
0

> <docking_score>
-5.660669326782227

> <overlap_score>
0.843829870223999

$$$$
BENZO_324_2
  -OEChem-08232013553D

 45 48  0     1  0  0  0  0  0999 V2000
    9.5890   -2.4950   23.2210 C   0  0  0  0  0  0  0  0  0  0  0  0
    8.2550   -1.0010   24.5520 C   0  0  0  0  0  0  0  0  0  0  0  0
    9.1890   -3.5540   24.0140 C   0  0  0  0  0  0  0  0  0  0  0  0
    7.8700   -2.0610   25.3550 C   0  0  0  0  0  0  0  0  0  0  0  0
   11.1765   -0.0135   25.4386 C   0  0  0  0  0  0  0  0  0  0  0  0
   12.1828    0.2352   26.3457 C   0  0  0  0  0  0  0  0  0  0  0  0
   11.4796    2.2746   25.1641 C   0  0  0  0  0  0  0  0  0  0  0  0
    9.1280   -1.2090   23.4870 C   0  0  0  0  0  0  0  0  0  0  0  0
   10.7691    1.1678   24.7539 C   0  0  0  0  0  0  0  0  0  0  0  0
    8.3450   -3.3440   25.0980 C   0  0  0  0  0  0  0  0  0  0  0  0
    5.7970    0.9500   18.6730 C   0  0  0  0  0  0  0  0  0  0  0  0
    7.2710   -0.1460   19.8310 C   0  0  0  0  0  0  0  0  0  0  0  0
    4.6610    1.7170   18.4380 C   0  0  0  0  0  0  0  0  0  0  0  0
    3.8860    2.1050   19.5250 C   0  0  0  0  0  0  0  0  0  0  0  0
    4.2460    1.7520   20.8250 C   0  0  0  0  0  0  0  0  0  0  0  0
    5.3890    1.0010   21.0690 C   0  0  0  0  0  0  0  0  0  0  0  0
    9.0430    0.2380   21.4940 C   0  0  0  0  0  0  0  0  0  0  0  0
    7.1165   -4.0858   26.9913 C   0  0  0  0  0  0  0  0  0  0  0  0
    9.6841    1.2008   23.7022 C   0  0  0  0  0  0  0  0  0  0  0  0
    9.5820   -0.1080   22.7000 C   0  0  2  0  0  0  0  0  0  0  0  0
    6.7100    0.3850   17.8100 N   0  0  0  0  0  0  0  0  0  0  0  0
    7.5840   -0.2700   18.5160 N   0  0  0  0  0  0  0  0  0  0  0  0
    6.1460    0.6070   19.9750 N   0  0  0  0  0  0  0  0  0  0  0  0
    8.0950   -0.7700   20.8440 N   0  0  0  0  0  0  0  0  0  0  0  0
    9.2950    1.3000   20.9480 O   0  0  0  0  0  0  0  0  0  0  0  0
    7.9856   -4.3803   25.8987 O   0  0  0  0  0  0  0  0  0  0  0  0
   12.6325    1.8874   26.3696 S   0  0  0  0  0  0  0  0  0  0  0  0
   10.2677   -2.6721   22.3861 H   0  0  0  0  0  0  0  0  0  0  0  0
    7.8705   -0.0015   24.7586 H   0  0  0  0  0  0  0  0  0  0  0  0
    9.5403   -4.5634   23.7844 H   0  0  0  0  0  0  0  0  0  0  0  0
    7.1918   -1.8874   26.1909 H   0  0  0  0  0  0  0  0  0  0  0  0
   10.7551   -0.9977   25.2772 H   0  0  0  0  0  0  0  0  0  0  0  0
   12.6750   -0.4740   26.9961 H   0  0  0  0  0  0  0  0  0  0  0  0
   11.3792    3.2937   24.8171 H   0  0  0  0  0  0  0  0  0  0  0  0
    4.3710    2.0145   17.4451 H   0  0  0  0  0  0  0  0  0  0  0  0
    2.9929    2.6891   19.3400 H   0  0  0  0  0  0  0  0  0  0  0  0
    3.6320    2.0596   21.6814 H   0  0  0  0  0  0  0  0  0  0  0  0
    5.6863    0.7288   22.0575 H   0  0  0  0  0  0  0  0  0  0  0  0
    6.9092   -5.0017   27.5501 H   0  0  0  0  0  0  0  0  0  0  0  0
    6.1847   -3.6588   26.6120 H   0  0  0  0  0  0  0  0  0  0  0  0
    7.6049   -3.3630   27.6492 H   0  0  0  0  0  0  0  0  0  0  0  0
    8.7167    1.3910   24.1851 H   0  0  0  0  0  0  0  0  0  0  0  0
    9.8647    2.0727   23.0582 H   0  0  0  0  0  0  0  0  0  0  0  0
   10.7539   -0.2760   22.5528 H   0  0  0  0  0  0  0  0  0  0  0  0
    8.0706   -1.6189   21.0730 H   0  0  0  0  0  0  0  0  0  0  0  0
  1  3  2  0  0  0  0
  1  8  1  0  0  0  0
  2  4  1  0  0  0  0
  2  8  2  0  0  0  0
  3 10  1  0  0  0  0
  4 10  2  0  0  0  0
  5  6  2  0  0  0  0
  5  9  1  0  0  0  0
  6 27  1  0  0  0  0
  7  9  2  0  0  0  0
  7 27  1  0  0  0  0
  8 20  1  0  0  0  0
  9 19  1  0  0  0  0
 10 26  1  0  0  0  0
 11 13  1  0  0  0  0
 11 21  2  0  0  0  0
 11 23  1  0  0  0  0
 12 22  2  0  0  0  0
 12 23  1  0  0  0  0
 12 24  1  0  0  0  0
 13 14  2  0  0  0  0
 14 15  1  0  0  0  0
 15 16  2  0  0  0  0
 16 23  1  0  0  0  0
 17 20  1  0  0  0  0
 17 24  1  0  0  0  0
 17 25  2  0  0  0  0
 18 26  1  0  0  0  0
 19 20  1  6  0  0  0
 21 22  1  0  0  0  0
  1 28  1  0  0  0  0
  2 29  1  0  0  0  0
  3 30  1  0  0  0  0
  4 31  1  0  0  0  0
  5 32  1  0  0  0  0
  6 33  1  0  0  0  0
  7 34  1  0  0  0  0
 13 35  1  0  0  0  0
 14 36  1  0  0  0  0
 15 37  1  0  0  0  0
 16 38  1  0  0  0  0
 18 39  1  0  0  0  0
 18 40  1  0  0  0  0
 18 41  1  0  0  0  0
 19 42  1  0  0  0  0
 19 43  1  0  0  0  0
 20 44  1  0  0  0  0
 24 45  1  0  0  0  0
M  END
> <clash_score>
2.2272717936705484

> <docking_score>
-3.7820839881896973

> <overlap_score>
0.7626544833183289

$$$$
BENZO_327_1
  -OEChem-08232013553D

 48 51  0     1  0  0  0  0  0999 V2000
    9.5890   -2.4950   23.2210 C   0  0  0  0  0  0  0  0  0  0  0  0
    8.2550   -1.0010   24.5520 C   0  0  0  0  0  0  0  0  0  0  0  0
    9.1890   -3.5540   24.0140 C   0  0  0  0  0  0  0  0  0  0  0  0
    7.8700   -2.0610   25.3550 C   0  0  0  0  0  0  0  0  0  0  0  0
   13.1332   -1.1110   24.1732 C   0  0  0  0  0  0  0  0  0  0  0  0
   11.5178   -0.0030   25.1721 C   0  0  0  0  0  0  0  0  0  0  0  0
    9.1280   -1.2090   23.4870 C   0  0  0  0  0  0  0  0  0  0  0  0
   11.9236   -0.4323   23.9322 C   0  0  0  0  0  0  0  0  0  0  0  0
    8.3450   -3.3440   25.0980 C   0  0  0  0  0  0  0  0  0  0  0  0
    5.7970    0.9500   18.6730 C   0  0  0  0  0  0  0  0  0  0  0  0
    7.2710   -0.1460   19.8310 C   0  0  0  0  0  0  0  0  0  0  0  0
    4.6610    1.7170   18.4380 C   0  0  0  0  0  0  0  0  0  0  0  0
    3.8860    2.1050   19.5250 C   0  0  0  0  0  0  0  0  0  0  0  0
    4.2460    1.7520   20.8250 C   0  0  0  0  0  0  0  0  0  0  0  0
    5.3890    1.0010   21.0690 C   0  0  0  0  0  0  0  0  0  0  0  0
    9.0430    0.2380   21.4940 C   0  0  0  0  0  0  0  0  0  0  0  0
   12.4834   -0.2219   27.4740 C   0  0  0  0  0  0  0  0  0  0  0  0
    7.1165   -4.0858   26.9913 C   0  0  0  0  0  0  0  0  0  0  0  0
   11.2273   -0.2199   22.6076 C   0  0  0  0  0  0  0  0  0  0  0  0
    9.5820   -0.1080   22.7000 C   0  0  1  0  0  0  0  0  0  0  0  0
   13.4738   -1.1150   25.4647 N   0  0  0  0  0  0  0  0  0  0  0  0
    6.7100    0.3850   17.8100 N   0  0  0  0  0  0  0  0  0  0  0  0
    7.5840   -0.2700   18.5160 N   0  0  0  0  0  0  0  0  0  0  0  0
   12.4721   -0.4335   26.0464 N   0  0  0  0  0  0  0  0  0  0  0  0
    6.1460    0.6070   19.9750 N   0  0  0  0  0  0  0  0  0  0  0  0
    8.0950   -0.7700   20.8440 N   0  0  0  0  0  0  0  0  0  0  0  0
    9.2950    1.3000   20.9480 O   0  0  0  0  0  0  0  0  0  0  0  0
    7.9856   -4.3803   25.8987 O   0  0  0  0  0  0  0  0  0  0  0  0
   10.2677   -2.6721   22.3861 H   0  0  0  0  0  0  0  0  0  0  0  0
    7.8705   -0.0015   24.7586 H   0  0  0  0  0  0  0  0  0  0  0  0
    9.5403   -4.5634   23.7844 H   0  0  0  0  0  0  0  0  0  0  0  0
    7.1918   -1.8874   26.1909 H   0  0  0  0  0  0  0  0  0  0  0  0
   13.7829   -1.6028   23.4631 H   0  0  0  0  0  0  0  0  0  0  0  0
   10.6535    0.5594   25.4986 H   0  0  0  0  0  0  0  0  0  0  0  0
    4.3710    2.0145   17.4451 H   0  0  0  0  0  0  0  0  0  0  0  0
    2.9929    2.6891   19.3400 H   0  0  0  0  0  0  0  0  0  0  0  0
    3.6320    2.0596   21.6814 H   0  0  0  0  0  0  0  0  0  0  0  0
    5.6863    0.7288   22.0575 H   0  0  0  0  0  0  0  0  0  0  0  0
   11.9614   -1.0599   27.9433 H   0  0  0  0  0  0  0  0  0  0  0  0
   13.5174   -0.1700   27.8262 H   0  0  0  0  0  0  0  0  0  0  0  0
   11.9792    0.7209   27.7036 H   0  0  0  0  0  0  0  0  0  0  0  0
    6.9092   -5.0017   27.5501 H   0  0  0  0  0  0  0  0  0  0  0  0
    6.1847   -3.6588   26.6120 H   0  0  0  0  0  0  0  0  0  0  0  0
    7.6049   -3.3630   27.6492 H   0  0  0  0  0  0  0  0  0  0  0  0
   11.5842    0.7150   22.1561 H   0  0  0  0  0  0  0  0  0  0  0  0
   11.5525   -1.0164   21.9239 H   0  0  0  0  0  0  0  0  0  0  0  0
    9.5374    0.8439   23.4178 H   0  0  0  0  0  0  0  0  0  0  0  0
    8.0706   -1.6189   21.0730 H   0  0  0  0  0  0  0  0  0  0  0  0
  1  3  2  0  0  0  0
  1  7  1  0  0  0  0
  2  4  1  0  0  0  0
  2  7  2  0  0  0  0
  3  9  1  0  0  0  0
  4  9  2  0  0  0  0
  5  8  1  0  0  0  0
  5 21  2  0  0  0  0
  6  8  2  0  0  0  0
  6 24  1  0  0  0  0
  7 20  1  0  0  0  0
  8 19  1  0  0  0  0
  9 28  1  0  0  0  0
 10 12  1  0  0  0  0
 10 22  2  0  0  0  0
 10 25  1  0  0  0  0
 11 23  2  0  0  0  0
 11 25  1  0  0  0  0
 11 26  1  0  0  0  0
 12 13  2  0  0  0  0
 13 14  1  0  0  0  0
 14 15  2  0  0  0  0
 15 25  1  0  0  0  0
 16 20  1  0  0  0  0
 16 26  1  0  0  0  0
 16 27  2  0  0  0  0
 17 24  1  0  0  0  0
 18 28  1  0  0  0  0
 19 20  1  1  0  0  0
 21 24  1  0  0  0  0
 22 23  1  0  0  0  0
  1 29  1  0  0  0  0
  2 30  1  0  0  0  0
  3 31  1  0  0  0  0
  4 32  1  0  0  0  0
  5 33  1  0  0  0  0
  6 34  1  0  0  0  0
 12 35  1  0  0  0  0
 13 36  1  0  0  0  0
 14 37  1  0  0  0  0
 15 38  1  0  0  0  0
 17 39  1  0  0  0  0
 17 40  1  0  0  0  0
 17 41  1  0  0  0  0
 18 42  1  0  0  0  0
 18 43  1  0  0  0  0
 18 44  1  0  0  0  0
 19 45  1  0  0  0  0
 19 46  1  0  0  0  0
 20 47  1  0  0  0  0
 26 48  1  0  0  0  0
M  END
> <clash_score>
0

> <docking_score>
-4.690935134887695

> <overlap_score>
0.8460102081298828

$$$$
BENZO_326_1
  -OEChem-08232013553D

 48 51  0     1  0  0  0  0  0999 V2000
   12.0047   -0.1195   26.3264 C   0  0  0  0  0  0  0  0  0  0  0  0
   11.3632    0.0771   25.1035 C   0  0  0  0  0  0  0  0  0  0  0  0
    9.5890   -2.4950   23.2210 C   0  0  0  0  0  0  0  0  0  0  0  0
    8.2550   -1.0010   24.5520 C   0  0  0  0  0  0  0  0  0  0  0  0
    9.1890   -3.5540   24.0140 C   0  0  0  0  0  0  0  0  0  0  0  0
    7.8700   -2.0610   25.3550 C   0  0  0  0  0  0  0  0  0  0  0  0
   13.2066   -0.8255   26.3780 C   0  0  0  0  0  0  0  0  0  0  0  0
   13.1255   -1.1384   23.9837 C   0  0  0  0  0  0  0  0  0  0  0  0
    9.1280   -1.2090   23.4870 C   0  0  0  0  0  0  0  0  0  0  0  0
   11.9236   -0.4323   23.9322 C   0  0  0  0  0  0  0  0  0  0  0  0
    8.3450   -3.3440   25.0980 C   0  0  0  0  0  0  0  0  0  0  0  0
   13.7670   -1.3350   25.2066 C   0  0  0  0  0  0  0  0  0  0  0  0
    5.7970    0.9500   18.6730 C   0  0  0  0  0  0  0  0  0  0  0  0
    7.2710   -0.1460   19.8310 C   0  0  0  0  0  0  0  0  0  0  0  0
    4.6610    1.7170   18.4380 C   0  0  0  0  0  0  0  0  0  0  0  0
    3.8860    2.1050   19.5250 C   0  0  0  0  0  0  0  0  0  0  0  0
    4.2460    1.7520   20.8250 C   0  0  0  0  0  0  0  0  0  0  0  0
    5.3890    1.0010   21.0690 C   0  0  0  0  0  0  0  0  0  0  0  0
    9.0430    0.2380   21.4940 C   0  0  0  0  0  0  0  0  0  0  0  0
    8.5108   -5.6660   25.5720 C   0  0  0  0  0  0  0  0  0  0  0  0
   11.2273   -0.2199   22.6076 C   0  0  0  0  0  0  0  0  0  0  0  0
    9.5820   -0.1080   22.7000 C   0  0  1  0  0  0  0  0  0  0  0  0
    6.7100    0.3850   17.8100 N   0  0  0  0  0  0  0  0  0  0  0  0
    7.5840   -0.2700   18.5160 N   0  0  0  0  0  0  0  0  0  0  0  0
    6.1460    0.6070   19.9750 N   0  0  0  0  0  0  0  0  0  0  0  0
    8.0950   -0.7700   20.8440 N   0  0  0  0  0  0  0  0  0  0  0  0
    9.2950    1.3000   20.9480 O   0  0  0  0  0  0  0  0  0  0  0  0
    7.9856   -4.3803   25.8987 O   0  0  0  0  0  0  0  0  0  0  0  0
   15.2493   -2.2070   25.2710 Cl  0  0  0  0  0  0  0  0  0  0  0  0
   11.5679    0.2773   27.2383 H   0  0  0  0  0  0  0  0  0  0  0  0
   10.4270    0.6284   25.0728 H   0  0  0  0  0  0  0  0  0  0  0  0
   10.2677   -2.6721   22.3861 H   0  0  0  0  0  0  0  0  0  0  0  0
    7.8705   -0.0015   24.7586 H   0  0  0  0  0  0  0  0  0  0  0  0
    9.5403   -4.5634   23.7844 H   0  0  0  0  0  0  0  0  0  0  0  0
    7.1918   -1.8874   26.1909 H   0  0  0  0  0  0  0  0  0  0  0  0
   13.6953   -0.9714   27.3382 H   0  0  0  0  0  0  0  0  0  0  0  0
   13.5586   -1.5332   23.0675 H   0  0  0  0  0  0  0  0  0  0  0  0
    4.3710    2.0145   17.4451 H   0  0  0  0  0  0  0  0  0  0  0  0
    2.9929    2.6891   19.3400 H   0  0  0  0  0  0  0  0  0  0  0  0
    3.6320    2.0596   21.6814 H   0  0  0  0  0  0  0  0  0  0  0  0
    5.6863    0.7288   22.0575 H   0  0  0  0  0  0  0  0  0  0  0  0
    8.1447   -6.4033   26.2907 H   0  0  0  0  0  0  0  0  0  0  0  0
    9.6029   -5.6309   25.5943 H   0  0  0  0  0  0  0  0  0  0  0  0
    8.1774   -5.9417   24.5688 H   0  0  0  0  0  0  0  0  0  0  0  0
   11.5842    0.7150   22.1561 H   0  0  0  0  0  0  0  0  0  0  0  0
   11.5525   -1.0164   21.9239 H   0  0  0  0  0  0  0  0  0  0  0  0
    9.5374    0.8439   23.4178 H   0  0  0  0  0  0  0  0  0  0  0  0
    8.0706   -1.6189   21.0730 H   0  0  0  0  0  0  0  0  0  0  0  0
  1  2  2  0  0  0  0
  1  7  1  0  0  0  0
  2 10  1  0  0  0  0
  3  5  2  0  0  0  0
  3  9  1  0  0  0  0
  4  6  1  0  0  0  0
  4  9  2  0  0  0  0
  5 11  1  0  0  0  0
  6 11  2  0  0  0  0
  7 12  2  0  0  0  0
  8 10  2  0  0  0  0
  8 12  1  0  0  0  0
  9 22  1  0  0  0  0
 10 21  1  0  0  0  0
 11 28  1  0  0  0  0
 12 29  1  0  0  0  0
 13 15  1  0  0  0  0
 13 23  2  0  0  0  0
 13 25  1  0  0  0  0
 14 24  2  0  0  0  0
 14 25  1  0  0  0  0
 14 26  1  0  0  0  0
 15 16  2  0  0  0  0
 16 17  1  0  0  0  0
 17 18  2  0  0  0  0
 18 25  1  0  0  0  0
 19 22  1  0  0  0  0
 19 26  1  0  0  0  0
 19 27  2  0  0  0  0
 20 28  1  0  0  0  0
 21 22  1  1  0  0  0
 23 24  1  0  0  0  0
  1 30  1  0  0  0  0
  2 31  1  0  0  0  0
  3 32  1  0  0  0  0
  4 33  1  0  0  0  0
  5 34  1  0  0  0  0
  6 35  1  0  0  0  0
  7 36  1  0  0  0  0
  8 37  1  0  0  0  0
 15 38  1  0  0  0  0
 16 39  1  0  0  0  0
 17 40  1  0  0  0  0
 18 41  1  0  0  0  0
 20 42  1  0  0  0  0
 20 43  1  0  0  0  0
 20 44  1  0  0  0  0
 21 45  1  0  0  0  0
 21 46  1  0  0  0  0
 22 47  1  0  0  0  0
 26 48  1  0  0  0  0
M  END
> <clash_score>
0

> <docking_score>
-4.791858673095703

> <overlap_score>
0.8466247916221619

$$$$
BENZO_327_2
  -OEChem-08232013553D

 48 51  0     1  0  0  0  0  0999 V2000
    9.5890   -2.4950   23.2210 C   0  0  0  0  0  0  0  0  0  0  0  0
    8.2550   -1.0010   24.5520 C   0  0  0  0  0  0  0  0  0  0  0  0
    9.1890   -3.5540   24.0140 C   0  0  0  0  0  0  0  0  0  0  0  0
    7.8700   -2.0610   25.3550 C   0  0  0  0  0  0  0  0  0  0  0  0
   11.7155    0.1520   24.9872 C   0  0  0  0  0  0  0  0  0  0  0  0
   11.0544    2.1258   25.6959 C   0  0  0  0  0  0  0  0  0  0  0  0
    9.1280   -1.2090   23.4870 C   0  0  0  0  0  0  0  0  0  0  0  0
   10.7691    1.1678   24.7539 C   0  0  0  0  0  0  0  0  0  0  0  0
    8.3450   -3.3440   25.0980 C   0  0  0  0  0  0  0  0  0  0  0  0
    5.7970    0.9500   18.6730 C   0  0  0  0  0  0  0  0  0  0  0  0
    7.2710   -0.1460   19.8310 C   0  0  0  0  0  0  0  0  0  0  0  0
    4.6610    1.7170   18.4380 C   0  0  0  0  0  0  0  0  0  0  0  0
    3.8860    2.1050   19.5250 C   0  0  0  0  0  0  0  0  0  0  0  0
    4.2460    1.7520   20.8250 C   0  0  0  0  0  0  0  0  0  0  0  0
    5.3890    1.0010   21.0690 C   0  0  0  0  0  0  0  0  0  0  0  0
    9.0430    0.2380   21.4940 C   0  0  0  0  0  0  0  0  0  0  0  0
   12.7726    2.3013   27.5113 C   0  0  0  0  0  0  0  0  0  0  0  0
    8.5108   -5.6660   25.5720 C   0  0  0  0  0  0  0  0  0  0  0  0
    9.6841    1.2008   23.7022 C   0  0  0  0  0  0  0  0  0  0  0  0
    9.5820   -0.1080   22.7000 C   0  0  2  0  0  0  0  0  0  0  0  0
   12.5403    0.4380   25.9980 N   0  0  0  0  0  0  0  0  0  0  0  0
    6.7100    0.3850   17.8100 N   0  0  0  0  0  0  0  0  0  0  0  0
    7.5840   -0.2700   18.5160 N   0  0  0  0  0  0  0  0  0  0  0  0
   12.1132    1.6445   26.4082 N   0  0  0  0  0  0  0  0  0  0  0  0
    6.1460    0.6070   19.9750 N   0  0  0  0  0  0  0  0  0  0  0  0
    8.0950   -0.7700   20.8440 N   0  0  0  0  0  0  0  0  0  0  0  0
    9.2950    1.3000   20.9480 O   0  0  0  0  0  0  0  0  0  0  0  0
    7.9856   -4.3803   25.8987 O   0  0  0  0  0  0  0  0  0  0  0  0
   10.2677   -2.6721   22.3861 H   0  0  0  0  0  0  0  0  0  0  0  0
    7.8705   -0.0015   24.7586 H   0  0  0  0  0  0  0  0  0  0  0  0
    9.5403   -4.5634   23.7844 H   0  0  0  0  0  0  0  0  0  0  0  0
    7.1918   -1.8874   26.1909 H   0  0  0  0  0  0  0  0  0  0  0  0
   11.8409   -0.7851   24.4635 H   0  0  0  0  0  0  0  0  0  0  0  0
   10.6061    3.0857   25.9138 H   0  0  0  0  0  0  0  0  0  0  0  0
    4.3710    2.0145   17.4451 H   0  0  0  0  0  0  0  0  0  0  0  0
    2.9929    2.6891   19.3400 H   0  0  0  0  0  0  0  0  0  0  0  0
    3.6320    2.0596   21.6814 H   0  0  0  0  0  0  0  0  0  0  0  0
    5.6863    0.7288   22.0575 H   0  0  0  0  0  0  0  0  0  0  0  0
   12.2713    1.9965   28.4337 H   0  0  0  0  0  0  0  0  0  0  0  0
   13.8256    2.0072   27.5334 H   0  0  0  0  0  0  0  0  0  0  0  0
   12.7061    3.3847   27.3788 H   0  0  0  0  0  0  0  0  0  0  0  0
    8.1447   -6.4033   26.2907 H   0  0  0  0  0  0  0  0  0  0  0  0
    9.6029   -5.6309   25.5943 H   0  0  0  0  0  0  0  0  0  0  0  0
    8.1774   -5.9417   24.5688 H   0  0  0  0  0  0  0  0  0  0  0  0
    8.7167    1.3910   24.1851 H   0  0  0  0  0  0  0  0  0  0  0  0
    9.8647    2.0727   23.0582 H   0  0  0  0  0  0  0  0  0  0  0  0
   10.7539   -0.2760   22.5528 H   0  0  0  0  0  0  0  0  0  0  0  0
    8.0706   -1.6189   21.0730 H   0  0  0  0  0  0  0  0  0  0  0  0
  1  3  2  0  0  0  0
  1  7  1  0  0  0  0
  2  4  1  0  0  0  0
  2  7  2  0  0  0  0
  3  9  1  0  0  0  0
  4  9  2  0  0  0  0
  5  8  1  0  0  0  0
  5 21  2  0  0  0  0
  6  8  2  0  0  0  0
  6 24  1  0  0  0  0
  7 20  1  0  0  0  0
  8 19  1  0  0  0  0
  9 28  1  0  0  0  0
 10 12  1  0  0  0  0
 10 22  2  0  0  0  0
 10 25  1  0  0  0  0
 11 23  2  0  0  0  0
 11 25  1  0  0  0  0
 11 26  1  0  0  0  0
 12 13  2  0  0  0  0
 13 14  1  0  0  0  0
 14 15  2  0  0  0  0
 15 25  1  0  0  0  0
 16 20  1  0  0  0  0
 16 26  1  0  0  0  0
 16 27  2  0  0  0  0
 17 24  1  0  0  0  0
 18 28  1  0  0  0  0
 19 20  1  6  0  0  0
 21 24  1  0  0  0  0
 22 23  1  0  0  0  0
  1 29  1  0  0  0  0
  2 30  1  0  0  0  0
  3 31  1  0  0  0  0
  4 32  1  0  0  0  0
  5 33  1  0  0  0  0
  6 34  1  0  0  0  0
 12 35  1  0  0  0  0
 13 36  1  0  0  0  0
 14 37  1  0  0  0  0
 15 38  1  0  0  0  0
 17 39  1  0  0  0  0
 17 40  1  0  0  0  0
 17 41  1  0  0  0  0
 18 42  1  0  0  0  0
 18 43  1  0  0  0  0
 18 44  1  0  0  0  0
 19 45  1  0  0  0  0
 19 46  1  0  0  0  0
 20 47  1  0  0  0  0
 26 48  1  0  0  0  0
M  END
> <clash_score>
3.2086007587674423

> <docking_score>
-3.2144594192504883

> <overlap_score>
0.7628591656684875

$$$$
BENZO_326_2
  -OEChem-08232013553D

 48 51  0     1  0  0  0  0  0999 V2000
   11.5820    1.7950   26.9408 C   0  0  0  0  0  0  0  0  0  0  0  0
   10.5816    1.8259   25.9694 C   0  0  0  0  0  0  0  0  0  0  0  0
    9.5890   -2.4950   23.2210 C   0  0  0  0  0  0  0  0  0  0  0  0
    8.2550   -1.0010   24.5520 C   0  0  0  0  0  0  0  0  0  0  0  0
    9.1890   -3.5540   24.0140 C   0  0  0  0  0  0  0  0  0  0  0  0
    7.8700   -2.0610   25.3550 C   0  0  0  0  0  0  0  0  0  0  0  0
   12.7701    1.1060   26.6968 C   0  0  0  0  0  0  0  0  0  0  0  0
   11.9572    0.4788   24.5098 C   0  0  0  0  0  0  0  0  0  0  0  0
    9.1280   -1.2090   23.4870 C   0  0  0  0  0  0  0  0  0  0  0  0
   10.7691    1.1678   24.7539 C   0  0  0  0  0  0  0  0  0  0  0  0
    8.3450   -3.3440   25.0980 C   0  0  0  0  0  0  0  0  0  0  0  0
   12.9577    0.4479   25.4813 C   0  0  0  0  0  0  0  0  0  0  0  0
    5.7970    0.9500   18.6730 C   0  0  0  0  0  0  0  0  0  0  0  0
    7.2710   -0.1460   19.8310 C   0  0  0  0  0  0  0  0  0  0  0  0
    4.6610    1.7170   18.4380 C   0  0  0  0  0  0  0  0  0  0  0  0
    3.8860    2.1050   19.5250 C   0  0  0  0  0  0  0  0  0  0  0  0
    4.2460    1.7520   20.8250 C   0  0  0  0  0  0  0  0  0  0  0  0
    5.3890    1.0010   21.0690 C   0  0  0  0  0  0  0  0  0  0  0  0
    9.0430    0.2380   21.4940 C   0  0  0  0  0  0  0  0  0  0  0  0
    8.5108   -5.6660   25.5720 C   0  0  0  0  0  0  0  0  0  0  0  0
    9.6841    1.2008   23.7022 C   0  0  0  0  0  0  0  0  0  0  0  0
    9.5820   -0.1080   22.7000 C   0  0  2  0  0  0  0  0  0  0  0  0
    6.7100    0.3850   17.8100 N   0  0  0  0  0  0  0  0  0  0  0  0
    7.5840   -0.2700   18.5160 N   0  0  0  0  0  0  0  0  0  0  0  0
    6.1460    0.6070   19.9750 N   0  0  0  0  0  0  0  0  0  0  0  0
    8.0950   -0.7700   20.8440 N   0  0  0  0  0  0  0  0  0  0  0  0
    9.2950    1.3000   20.9480 O   0  0  0  0  0  0  0  0  0  0  0  0
    7.9856   -4.3803   25.8987 O   0  0  0  0  0  0  0  0  0  0  0  0
   14.4232   -0.4029   25.1812 Cl  0  0  0  0  0  0  0  0  0  0  0  0
   11.4356    2.3075   27.8872 H   0  0  0  0  0  0  0  0  0  0  0  0
    9.6591    2.3651   26.1681 H   0  0  0  0  0  0  0  0  0  0  0  0
   10.2677   -2.6721   22.3861 H   0  0  0  0  0  0  0  0  0  0  0  0
    7.8705   -0.0015   24.7586 H   0  0  0  0  0  0  0  0  0  0  0  0
    9.5403   -4.5634   23.7844 H   0  0  0  0  0  0  0  0  0  0  0  0
    7.1918   -1.8874   26.1909 H   0  0  0  0  0  0  0  0  0  0  0  0
   13.5411    1.0902   27.4632 H   0  0  0  0  0  0  0  0  0  0  0  0
   12.0988   -0.0323   23.5603 H   0  0  0  0  0  0  0  0  0  0  0  0
    4.3710    2.0145   17.4451 H   0  0  0  0  0  0  0  0  0  0  0  0
    2.9929    2.6891   19.3400 H   0  0  0  0  0  0  0  0  0  0  0  0
    3.6320    2.0596   21.6814 H   0  0  0  0  0  0  0  0  0  0  0  0
    5.6863    0.7288   22.0575 H   0  0  0  0  0  0  0  0  0  0  0  0
    8.1447   -6.4033   26.2907 H   0  0  0  0  0  0  0  0  0  0  0  0
    9.6029   -5.6309   25.5943 H   0  0  0  0  0  0  0  0  0  0  0  0
    8.1774   -5.9417   24.5688 H   0  0  0  0  0  0  0  0  0  0  0  0
    8.7167    1.3910   24.1851 H   0  0  0  0  0  0  0  0  0  0  0  0
    9.8647    2.0727   23.0582 H   0  0  0  0  0  0  0  0  0  0  0  0
   10.7539   -0.2760   22.5528 H   0  0  0  0  0  0  0  0  0  0  0  0
    8.0706   -1.6189   21.0730 H   0  0  0  0  0  0  0  0  0  0  0  0
  1  2  2  0  0  0  0
  1  7  1  0  0  0  0
  2 10  1  0  0  0  0
  3  5  2  0  0  0  0
  3  9  1  0  0  0  0
  4  6  1  0  0  0  0
  4  9  2  0  0  0  0
  5 11  1  0  0  0  0
  6 11  2  0  0  0  0
  7 12  2  0  0  0  0
  8 10  2  0  0  0  0
  8 12  1  0  0  0  0
  9 22  1  0  0  0  0
 10 21  1  0  0  0  0
 11 28  1  0  0  0  0
 12 29  1  0  0  0  0
 13 15  1  0  0  0  0
 13 23  2  0  0  0  0
 13 25  1  0  0  0  0
 14 24  2  0  0  0  0
 14 25  1  0  0  0  0
 14 26  1  0  0  0  0
 15 16  2  0  0  0  0
 16 17  1  0  0  0  0
 17 18  2  0  0  0  0
 18 25  1  0  0  0  0
 19 22  1  0  0  0  0
 19 26  1  0  0  0  0
 19 27  2  0  0  0  0
 20 28  1  0  0  0  0
 21 22  1  6  0  0  0
 23 24  1  0  0  0  0
  1 30  1  0  0  0  0
  2 31  1  0  0  0  0
  3 32  1  0  0  0  0
  4 33  1  0  0  0  0
  5 34  1  0  0  0  0
  6 35  1  0  0  0  0
  7 36  1  0  0  0  0
  8 37  1  0  0  0  0
 15 38  1  0  0  0  0
 16 39  1  0  0  0  0
 17 40  1  0  0  0  0
 18 41  1  0  0  0  0
 20 42  1  0  0  0  0
 20 43  1  0  0  0  0
 20 44  1  0  0  0  0
 21 45  1  0  0  0  0
 21 46  1  0  0  0  0
 22 47  1  0  0  0  0
 26 48  1  0  0  0  0
M  END
> <clash_score>
4.383869727984008

> <docking_score>
-3.098836660385132

> <overlap_score>
0.7816099524497986

$$$$
BENZO_329_2
  -OEChem-08232013553D

 58 62  0     1  0  0  0  0  0999 V2000
   13.2442   -0.7792   26.3598 C   0  0  0  0  0  0  0  0  0  0  0  0
   13.7975   -1.2945   25.1877 C   0  0  0  0  0  0  0  0  0  0  0  0
   12.0379   -0.0804   26.3133 C   0  0  0  0  0  0  0  0  0  0  0  0
   13.1444   -1.1109   23.9689 C   0  0  0  0  0  0  0  0  0  0  0  0
   11.3849    0.1033   25.0945 C   0  0  0  0  0  0  0  0  0  0  0  0
    9.5890   -2.4950   23.2210 C   0  0  0  0  0  0  0  0  0  0  0  0
    8.2550   -1.0010   24.5520 C   0  0  0  0  0  0  0  0  0  0  0  0
    9.1890   -3.5540   24.0140 C   0  0  0  0  0  0  0  0  0  0  0  0
    7.8700   -2.0610   25.3550 C   0  0  0  0  0  0  0  0  0  0  0  0
   11.9381   -0.4120   23.9222 C   0  0  0  0  0  0  0  0  0  0  0  0
    9.1280   -1.2090   23.4870 C   0  0  0  0  0  0  0  0  0  0  0  0
    8.3450   -3.3440   25.0980 C   0  0  0  0  0  0  0  0  0  0  0  0
    5.7970    0.9500   18.6730 C   0  0  0  0  0  0  0  0  0  0  0  0
    7.2710   -0.1460   19.8310 C   0  0  0  0  0  0  0  0  0  0  0  0
    4.6610    1.7170   18.4380 C   0  0  0  0  0  0  0  0  0  0  0  0
    3.8860    2.1050   19.5250 C   0  0  0  0  0  0  0  0  0  0  0  0
    4.2460    1.7520   20.8250 C   0  0  0  0  0  0  0  0  0  0  0  0
    5.3890    1.0010   21.0690 C   0  0  0  0  0  0  0  0  0  0  0  0
    6.6194   -4.8191   26.1158 C   0  0  0  0  0  0  0  0  0  0  0  0
    9.0430    0.2380   21.4940 C   0  0  0  0  0  0  0  0  0  0  0  0
    6.4366   -5.9938   27.0605 C   0  0  0  0  0  0  0  0  0  0  0  0
    7.2458   -5.7947   28.3299 C   0  0  0  0  0  0  0  0  0  0  0  0
    8.7184   -5.5215   28.0404 C   0  0  0  0  0  0  0  0  0  0  0  0
    9.0024   -5.2744   26.5596 C   0  0  0  0  0  0  0  0  0  0  0  0
   11.2301   -0.2125   22.6019 C   0  0  0  0  0  0  0  0  0  0  0  0
    9.5820   -0.1080   22.7000 C   0  0  2  0  0  0  0  0  0  0  0  0
    6.7100    0.3850   17.8100 N   0  0  0  0  0  0  0  0  0  0  0  0
    7.5840   -0.2700   18.5160 N   0  0  0  0  0  0  0  0  0  0  0  0
    6.1460    0.6070   19.9750 N   0  0  0  0  0  0  0  0  0  0  0  0
    7.9658   -4.4384   25.9449 N   0  0  0  0  0  0  0  0  0  0  0  0
    8.0950   -0.7700   20.8440 N   0  0  0  0  0  0  0  0  0  0  0  0
    5.6415   -4.3469   25.5373 O   0  0  0  0  0  0  0  0  0  0  0  0
    9.2950    1.3000   20.9480 O   0  0  0  0  0  0  0  0  0  0  0  0
   13.7522   -0.9234   27.3090 H   0  0  0  0  0  0  0  0  0  0  0  0
   14.7362   -1.8396   25.2239 H   0  0  0  0  0  0  0  0  0  0  0  0
   11.6064    0.3200   27.2258 H   0  0  0  0  0  0  0  0  0  0  0  0
   13.5830   -1.5157   23.0606 H   0  0  0  0  0  0  0  0  0  0  0  0
   10.4455    0.6492   25.0677 H   0  0  0  0  0  0  0  0  0  0  0  0
   10.2695   -2.6718   22.3873 H   0  0  0  0  0  0  0  0  0  0  0  0
    7.8712   -0.0014   24.7587 H   0  0  0  0  0  0  0  0  0  0  0  0
    9.5431   -4.5618   23.7801 H   0  0  0  0  0  0  0  0  0  0  0  0
    7.1923   -1.8823   26.1912 H   0  0  0  0  0  0  0  0  0  0  0  0
    4.3710    2.0145   17.4451 H   0  0  0  0  0  0  0  0  0  0  0  0
    2.9929    2.6891   19.3400 H   0  0  0  0  0  0  0  0  0  0  0  0
    3.6320    2.0596   21.6814 H   0  0  0  0  0  0  0  0  0  0  0  0
    5.6863    0.7288   22.0575 H   0  0  0  0  0  0  0  0  0  0  0  0
    5.3901   -6.0734   27.3117 H   0  0  0  0  0  0  0  0  0  0  0  0
    6.7606   -6.8843   26.5429 H   0  0  0  0  0  0  0  0  0  0  0  0
    6.8221   -4.9563   28.9212 H   0  0  0  0  0  0  0  0  0  0  0  0
    7.1526   -6.6910   28.9757 H   0  0  0  0  0  0  0  0  0  0  0  0
    9.0539   -4.6418   28.6288 H   0  0  0  0  0  0  0  0  0  0  0  0
    9.3393   -6.3684   28.4053 H   0  0  0  0  0  0  0  0  0  0  0  0
    9.9475   -4.7506   26.4523 H   0  0  0  0  0  0  0  0  0  0  0  0
    9.0509   -6.2236   26.0372 H   0  0  0  0  0  0  0  0  0  0  0  0
   11.5792    0.7206   22.1406 H   0  0  0  0  0  0  0  0  0  0  0  0
   11.5533   -1.0126   21.9215 H   0  0  0  0  0  0  0  0  0  0  0  0
    9.5402    0.8508   23.4127 H   0  0  0  0  0  0  0  0  0  0  0  0
    8.0917   -1.6083   21.0911 H   0  0  0  0  0  0  0  0  0  0  0  0
  1  2  1  0  0  0  0
  1  3  2  0  0  0  0
  2  4  2  0  0  0  0
  3  5  1  0  0  0  0
  4 10  1  0  0  0  0
  5 10  2  0  0  0  0
  6  8  2  0  0  0  0
  6 11  1  0  0  0  0
  7  9  1  0  0  0  0
  7 11  2  0  0  0  0
  8 12  1  0  0  0  0
  9 12  2  0  0  0  0
 10 25  1  0  0  0  0
 11 26  1  0  0  0  0
 12 30  1  0  0  0  0
 13 15  1  0  0  0  0
 13 27  2  0  0  0  0
 13 29  1  0  0  0  0
 14 28  2  0  0  0  0
 14 29  1  0  0  0  0
 14 31  1  0  0  0  0
 15 16  2  0  0  0  0
 16 17  1  0  0  0  0
 17 18  2  0  0  0  0
 18 29  1  0  0  0  0
 19 21  1  0  0  0  0
 19 30  1  0  0  0  0
 19 32  2  0  0  0  0
 20 26  1  6  0  0  0
 20 31  1  0  0  0  0
 20 33  2  0  0  0  0
 21 22  1  0  0  0  0
 22 23  1  0  0  0  0
 23 24  1  0  0  0  0
 24 30  1  0  0  0  0
 25 26  1  0  0  0  0
 27 28  1  0  0  0  0
  1 34  1  0  0  0  0
  2 35  1  0  0  0  0
  3 36  1  0  0  0  0
  4 37  1  0  0  0  0
  5 38  1  0  0  0  0
  6 39  1  0  0  0  0
  7 40  1  0  0  0  0
  8 41  1  0  0  0  0
  9 42  1  0  0  0  0
 15 43  1  0  0  0  0
 16 44  1  0  0  0  0
 17 45  1  0  0  0  0
 18 46  1  0  0  0  0
 21 47  1  0  0  0  0
 21 48  1  0  0  0  0
 22 49  1  0  0  0  0
 22 50  1  0  0  0  0
 23 51  1  0  0  0  0
 23 52  1  0  0  0  0
 24 53  1  0  0  0  0
 24 54  1  0  0  0  0
 25 55  1  0  0  0  0
 25 56  1  0  0  0  0
 26 57  1  0  0  0  0
 31 58  1  0  0  0  0
M  END
> <clash_score>
0

> <docking_score>
-6.536025524139404

> <overlap_score>
0.925991952419281

$$$$
BENZO_329_1
  -OEChem-08232013553D

 58 62  0     1  0  0  0  0  0999 V2000
   12.6859    4.1423   22.7481 C   0  0  0  0  0  0  0  0  0  0  0  0
   11.5036    4.5324   23.3772 C   0  0  0  0  0  0  0  0  0  0  0  0
   12.8948    2.8014   22.4259 C   0  0  0  0  0  0  0  0  0  0  0  0
   10.5303    3.5816   23.6841 C   0  0  0  0  0  0  0  0  0  0  0  0
   11.9215    1.8505   22.7328 C   0  0  0  0  0  0  0  0  0  0  0  0
    9.5890   -2.4950   23.2210 C   0  0  0  0  0  0  0  0  0  0  0  0
    8.2550   -1.0010   24.5520 C   0  0  0  0  0  0  0  0  0  0  0  0
    9.1890   -3.5540   24.0140 C   0  0  0  0  0  0  0  0  0  0  0  0
    7.8700   -2.0610   25.3550 C   0  0  0  0  0  0  0  0  0  0  0  0
   10.7393    2.2406   23.3619 C   0  0  0  0  0  0  0  0  0  0  0  0
    9.1280   -1.2090   23.4870 C   0  0  0  0  0  0  0  0  0  0  0  0
    8.3450   -3.3440   25.0980 C   0  0  0  0  0  0  0  0  0  0  0  0
    5.7970    0.9500   18.6730 C   0  0  0  0  0  0  0  0  0  0  0  0
    7.2710   -0.1460   19.8310 C   0  0  0  0  0  0  0  0  0  0  0  0
    4.6610    1.7170   18.4380 C   0  0  0  0  0  0  0  0  0  0  0  0
    3.8860    2.1050   19.5250 C   0  0  0  0  0  0  0  0  0  0  0  0
    4.2460    1.7520   20.8250 C   0  0  0  0  0  0  0  0  0  0  0  0
    5.3890    1.0010   21.0690 C   0  0  0  0  0  0  0  0  0  0  0  0
    8.2712   -4.4336   27.3225 C   0  0  0  0  0  0  0  0  0  0  0  0
    9.0430    0.2380   21.4940 C   0  0  0  0  0  0  0  0  0  0  0  0
    7.5739   -5.4743   28.1816 C   0  0  0  0  0  0  0  0  0  0  0  0
    7.3190   -6.7949   27.4884 C   0  0  0  0  0  0  0  0  0  0  0  0
    6.5818   -6.5304   26.1943 C   0  0  0  0  0  0  0  0  0  0  0  0
    7.4451   -5.6594   25.2973 C   0  0  0  0  0  0  0  0  0  0  0  0
    9.6852    1.2097   23.6944 C   0  0  0  0  0  0  0  0  0  0  0  0
    9.5820   -0.1080   22.7000 C   0  0  1  0  0  0  0  0  0  0  0  0
    6.7100    0.3850   17.8100 N   0  0  0  0  0  0  0  0  0  0  0  0
    7.5840   -0.2700   18.5160 N   0  0  0  0  0  0  0  0  0  0  0  0
    6.1460    0.6070   19.9750 N   0  0  0  0  0  0  0  0  0  0  0  0
    7.9635   -4.4451   25.9501 N   0  0  0  0  0  0  0  0  0  0  0  0
    8.0950   -0.7700   20.8440 N   0  0  0  0  0  0  0  0  0  0  0  0
    9.0077   -3.6181   27.8843 O   0  0  0  0  0  0  0  0  0  0  0  0
    9.2950    1.3000   20.9480 O   0  0  0  0  0  0  0  0  0  0  0  0
   13.4430    4.8831   22.5080 H   0  0  0  0  0  0  0  0  0  0  0  0
   11.3403    5.5767   23.6272 H   0  0  0  0  0  0  0  0  0  0  0  0
   13.8146    2.4975   21.9351 H   0  0  0  0  0  0  0  0  0  0  0  0
    9.6123    3.8946   24.1745 H   0  0  0  0  0  0  0  0  0  0  0  0
   12.0930    0.8080   22.4781 H   0  0  0  0  0  0  0  0  0  0  0  0
   10.2695   -2.6718   22.3873 H   0  0  0  0  0  0  0  0  0  0  0  0
    7.8712   -0.0014   24.7587 H   0  0  0  0  0  0  0  0  0  0  0  0
    9.5431   -4.5618   23.7801 H   0  0  0  0  0  0  0  0  0  0  0  0
    7.1923   -1.8823   26.1912 H   0  0  0  0  0  0  0  0  0  0  0  0
    4.3710    2.0145   17.4451 H   0  0  0  0  0  0  0  0  0  0  0  0
    2.9929    2.6891   19.3400 H   0  0  0  0  0  0  0  0  0  0  0  0
    3.6320    2.0596   21.6814 H   0  0  0  0  0  0  0  0  0  0  0  0
    5.6863    0.7288   22.0575 H   0  0  0  0  0  0  0  0  0  0  0  0
    8.1899   -5.6491   29.0712 H   0  0  0  0  0  0  0  0  0  0  0  0
    6.6268   -5.0349   28.5175 H   0  0  0  0  0  0  0  0  0  0  0  0
    8.2675   -7.3067   27.2851 H   0  0  0  0  0  0  0  0  0  0  0  0
    6.7259   -7.4492   28.1364 H   0  0  0  0  0  0  0  0  0  0  0  0
    6.3607   -7.4763   25.6875 H   0  0  0  0  0  0  0  0  0  0  0  0
    5.6224   -6.0369   26.3915 H   0  0  0  0  0  0  0  0  0  0  0  0
    8.3165   -6.2318   24.9547 H   0  0  0  0  0  0  0  0  0  0  0  0
    6.8693   -5.3612   24.4129 H   0  0  0  0  0  0  0  0  0  0  0  0
    9.7996    0.8985   24.7410 H   0  0  0  0  0  0  0  0  0  0  0  0
    8.7039    1.7016   23.6424 H   0  0  0  0  0  0  0  0  0  0  0  0
   10.7567   -0.2690   22.5479 H   0  0  0  0  0  0  0  0  0  0  0  0
    8.0917   -1.6083   21.0911 H   0  0  0  0  0  0  0  0  0  0  0  0
  1  2  1  0  0  0  0
  1  3  2  0  0  0  0
  2  4  2  0  0  0  0
  3  5  1  0  0  0  0
  4 10  1  0  0  0  0
  5 10  2  0  0  0  0
  6  8  2  0  0  0  0
  6 11  1  0  0  0  0
  7  9  1  0  0  0  0
  7 11  2  0  0  0  0
  8 12  1  0  0  0  0
  9 12  2  0  0  0  0
 10 25  1  0  0  0  0
 11 26  1  0  0  0  0
 12 30  1  0  0  0  0
 13 15  1  0  0  0  0
 13 27  2  0  0  0  0
 13 29  1  0  0  0  0
 14 28  2  0  0  0  0
 14 29  1  0  0  0  0
 14 31  1  0  0  0  0
 15 16  2  0  0  0  0
 16 17  1  0  0  0  0
 17 18  2  0  0  0  0
 18 29  1  0  0  0  0
 19 21  1  0  0  0  0
 19 30  1  0  0  0  0
 19 32  2  0  0  0  0
 20 26  1  1  0  0  0
 20 31  1  0  0  0  0
 20 33  2  0  0  0  0
 21 22  1  0  0  0  0
 22 23  1  0  0  0  0
 23 24  1  0  0  0  0
 24 30  1  0  0  0  0
 25 26  1  0  0  0  0
 27 28  1  0  0  0  0
  1 34  1  0  0  0  0
  2 35  1  0  0  0  0
  3 36  1  0  0  0  0
  4 37  1  0  0  0  0
  5 38  1  0  0  0  0
  6 39  1  0  0  0  0
  7 40  1  0  0  0  0
  8 41  1  0  0  0  0
  9 42  1  0  0  0  0
 15 43  1  0  0  0  0
 16 44  1  0  0  0  0
 17 45  1  0  0  0  0
 18 46  1  0  0  0  0
 21 47  1  0  0  0  0
 21 48  1  0  0  0  0
 22 49  1  0  0  0  0
 22 50  1  0  0  0  0
 23 51  1  0  0  0  0
 23 52  1  0  0  0  0
 24 53  1  0  0  0  0
 24 54  1  0  0  0  0
 25 55  1  0  0  0  0
 25 56  1  0  0  0  0
 26 57  1  0  0  0  0
 31 58  1  0  0  0  0
M  END
> <clash_score>
0

> <docking_score>
-7.753007888793945

> <overlap_score>
0.8526010513305664

$$$$
BENZO_328_1
  -OEChem-08232013553D

 55 59  0     1  0  0  0  0  0999 V2000
    9.5890   -2.4950   23.2210 C   0  0  0  0  0  0  0  0  0  0  0  0
    8.2550   -1.0010   24.5520 C   0  0  0  0  0  0  0  0  0  0  0  0
    9.1890   -3.5540   24.0140 C   0  0  0  0  0  0  0  0  0  0  0  0
    7.8700   -2.0610   25.3550 C   0  0  0  0  0  0  0  0  0  0  0  0
   12.0300    1.9207   22.8503 C   0  0  0  0  0  0  0  0  0  0  0  0
   12.7947    3.0460   22.6348 C   0  0  0  0  0  0  0  0  0  0  0  0
   10.5667    3.5984   23.5182 C   0  0  0  0  0  0  0  0  0  0  0  0
    9.1280   -1.2090   23.4870 C   0  0  0  0  0  0  0  0  0  0  0  0
   10.7393    2.2406   23.3619 C   0  0  0  0  0  0  0  0  0  0  0  0
    8.3450   -3.3440   25.0980 C   0  0  0  0  0  0  0  0  0  0  0  0
    5.7970    0.9500   18.6730 C   0  0  0  0  0  0  0  0  0  0  0  0
    7.2710   -0.1460   19.8310 C   0  0  0  0  0  0  0  0  0  0  0  0
    4.6610    1.7170   18.4380 C   0  0  0  0  0  0  0  0  0  0  0  0
    3.8860    2.1050   19.5250 C   0  0  0  0  0  0  0  0  0  0  0  0
    4.2460    1.7520   20.8250 C   0  0  0  0  0  0  0  0  0  0  0  0
    5.3890    1.0010   21.0690 C   0  0  0  0  0  0  0  0  0  0  0  0
    8.2712   -4.4336   27.3225 C   0  0  0  0  0  0  0  0  0  0  0  0
    9.0430    0.2380   21.4940 C   0  0  0  0  0  0  0  0  0  0  0  0
    7.5739   -5.4743   28.1816 C   0  0  0  0  0  0  0  0  0  0  0  0
    7.3190   -6.7949   27.4884 C   0  0  0  0  0  0  0  0  0  0  0  0
    6.5818   -6.5304   26.1943 C   0  0  0  0  0  0  0  0  0  0  0  0
    7.4451   -5.6594   25.2973 C   0  0  0  0  0  0  0  0  0  0  0  0
    9.6852    1.2097   23.6944 C   0  0  0  0  0  0  0  0  0  0  0  0
    9.5820   -0.1080   22.7000 C   0  0  1  0  0  0  0  0  0  0  0  0
    6.7100    0.3850   17.8100 N   0  0  0  0  0  0  0  0  0  0  0  0
    7.5840   -0.2700   18.5160 N   0  0  0  0  0  0  0  0  0  0  0  0
    6.1460    0.6070   19.9750 N   0  0  0  0  0  0  0  0  0  0  0  0
    7.9635   -4.4451   25.9501 N   0  0  0  0  0  0  0  0  0  0  0  0
    8.0950   -0.7700   20.8440 N   0  0  0  0  0  0  0  0  0  0  0  0
    9.0077   -3.6181   27.8843 O   0  0  0  0  0  0  0  0  0  0  0  0
    9.2950    1.3000   20.9480 O   0  0  0  0  0  0  0  0  0  0  0  0
   11.9570    4.4810   23.0487 S   0  0  0  0  0  0  0  0  0  0  0  0
   10.2695   -2.6718   22.3873 H   0  0  0  0  0  0  0  0  0  0  0  0
    7.8712   -0.0014   24.7587 H   0  0  0  0  0  0  0  0  0  0  0  0
    9.5431   -4.5618   23.7801 H   0  0  0  0  0  0  0  0  0  0  0  0
    7.1923   -1.8823   26.1912 H   0  0  0  0  0  0  0  0  0  0  0  0
   12.3840    0.9173   22.6495 H   0  0  0  0  0  0  0  0  0  0  0  0
   13.8054    3.0942   22.2548 H   0  0  0  0  0  0  0  0  0  0  0  0
    9.6930    4.1183   23.8862 H   0  0  0  0  0  0  0  0  0  0  0  0
    4.3710    2.0145   17.4451 H   0  0  0  0  0  0  0  0  0  0  0  0
    2.9929    2.6891   19.3400 H   0  0  0  0  0  0  0  0  0  0  0  0
    3.6320    2.0596   21.6814 H   0  0  0  0  0  0  0  0  0  0  0  0
    5.6863    0.7288   22.0575 H   0  0  0  0  0  0  0  0  0  0  0  0
    8.1899   -5.6491   29.0712 H   0  0  0  0  0  0  0  0  0  0  0  0
    6.6268   -5.0349   28.5175 H   0  0  0  0  0  0  0  0  0  0  0  0
    8.2675   -7.3067   27.2851 H   0  0  0  0  0  0  0  0  0  0  0  0
    6.7259   -7.4492   28.1364 H   0  0  0  0  0  0  0  0  0  0  0  0
    6.3607   -7.4763   25.6875 H   0  0  0  0  0  0  0  0  0  0  0  0
    5.6224   -6.0369   26.3915 H   0  0  0  0  0  0  0  0  0  0  0  0
    8.3165   -6.2318   24.9547 H   0  0  0  0  0  0  0  0  0  0  0  0
    6.8693   -5.3612   24.4129 H   0  0  0  0  0  0  0  0  0  0  0  0
    9.7996    0.8985   24.7410 H   0  0  0  0  0  0  0  0  0  0  0  0
    8.7039    1.7016   23.6424 H   0  0  0  0  0  0  0  0  0  0  0  0
   10.7567   -0.2690   22.5479 H   0  0  0  0  0  0  0  0  0  0  0  0
    8.0917   -1.6083   21.0911 H   0  0  0  0  0  0  0  0  0  0  0  0
  1  3  2  0  0  0  0
  1  8  1  0  0  0  0
  2  4  1  0  0  0  0
  2  8  2  0  0  0  0
  3 10  1  0  0  0  0
  4 10  2  0  0  0  0
  5  6  2  0  0  0  0
  5  9  1  0  0  0  0
  6 32  1  0  0  0  0
  7  9  2  0  0  0  0
  7 32  1  0  0  0  0
  8 24  1  0  0  0  0
  9 23  1  0  0  0  0
 10 28  1  0  0  0  0
 11 13  1  0  0  0  0
 11 25  2  0  0  0  0
 11 27  1  0  0  0  0
 12 26  2  0  0  0  0
 12 27  1  0  0  0  0
 12 29  1  0  0  0  0
 13 14  2  0  0  0  0
 14 15  1  0  0  0  0
 15 16  2  0  0  0  0
 16 27  1  0  0  0  0
 17 19  1  0  0  0  0
 17 28  1  0  0  0  0
 17 30  2  0  0  0  0
 18 24  1  1  0  0  0
 18 29  1  0  0  0  0
 18 31  2  0  0  0  0
 19 20  1  0  0  0  0
 20 21  1  0  0  0  0
 21 22  1  0  0  0  0
 22 28  1  0  0  0  0
 23 24  1  0  0  0  0
 25 26  1  0  0  0  0
  1 33  1  0  0  0  0
  2 34  1  0  0  0  0
  3 35  1  0  0  0  0
  4 36  1  0  0  0  0
  5 37  1  0  0  0  0
  6 38  1  0  0  0  0
  7 39  1  0  0  0  0
 13 40  1  0  0  0  0
 14 41  1  0  0  0  0
 15 42  1  0  0  0  0
 16 43  1  0  0  0  0
 19 44  1  0  0  0  0
 19 45  1  0  0  0  0
 20 46  1  0  0  0  0
 20 47  1  0  0  0  0
 21 48  1  0  0  0  0
 21 49  1  0  0  0  0
 22 50  1  0  0  0  0
 22 51  1  0  0  0  0
 23 52  1  0  0  0  0
 23 53  1  0  0  0  0
 24 54  1  0  0  0  0
 29 55  1  0  0  0  0
M  END
> <clash_score>
0

> <docking_score>
-7.520650863647461

> <overlap_score>
0.8532915115356445

$$$$
BENZO_328_2
  -OEChem-08232013553D

 55 59  0     1  0  0  0  0  0999 V2000
    9.5890   -2.4950   23.2210 C   0  0  0  0  0  0  0  0  0  0  0  0
    8.2550   -1.0010   24.5520 C   0  0  0  0  0  0  0  0  0  0  0  0
    9.1890   -3.5540   24.0140 C   0  0  0  0  0  0  0  0  0  0  0  0
    7.8700   -2.0610   25.3550 C   0  0  0  0  0  0  0  0  0  0  0  0
   13.1712   -1.1116   24.0649 C   0  0  0  0  0  0  0  0  0  0  0  0
   13.5969   -1.1482   25.3744 C   0  0  0  0  0  0  0  0  0  0  0  0
   11.4682    0.0593   25.1285 C   0  0  0  0  0  0  0  0  0  0  0  0
    9.1280   -1.2090   23.4870 C   0  0  0  0  0  0  0  0  0  0  0  0
   11.9381   -0.4120   23.9222 C   0  0  0  0  0  0  0  0  0  0  0  0
    8.3450   -3.3440   25.0980 C   0  0  0  0  0  0  0  0  0  0  0  0
    5.7970    0.9500   18.6730 C   0  0  0  0  0  0  0  0  0  0  0  0
    7.2710   -0.1460   19.8310 C   0  0  0  0  0  0  0  0  0  0  0  0
    4.6610    1.7170   18.4380 C   0  0  0  0  0  0  0  0  0  0  0  0
    3.8860    2.1050   19.5250 C   0  0  0  0  0  0  0  0  0  0  0  0
    4.2460    1.7520   20.8250 C   0  0  0  0  0  0  0  0  0  0  0  0
    5.3890    1.0010   21.0690 C   0  0  0  0  0  0  0  0  0  0  0  0
    6.6194   -4.8191   26.1158 C   0  0  0  0  0  0  0  0  0  0  0  0
    9.0430    0.2380   21.4940 C   0  0  0  0  0  0  0  0  0  0  0  0
    6.4366   -5.9938   27.0605 C   0  0  0  0  0  0  0  0  0  0  0  0
    7.2458   -5.7947   28.3299 C   0  0  0  0  0  0  0  0  0  0  0  0
    8.7184   -5.5215   28.0404 C   0  0  0  0  0  0  0  0  0  0  0  0
    9.0024   -5.2744   26.5596 C   0  0  0  0  0  0  0  0  0  0  0  0
   11.2301   -0.2125   22.6019 C   0  0  0  0  0  0  0  0  0  0  0  0
    9.5820   -0.1080   22.7000 C   0  0  2  0  0  0  0  0  0  0  0  0
    6.7100    0.3850   17.8100 N   0  0  0  0  0  0  0  0  0  0  0  0
    7.5840   -0.2700   18.5160 N   0  0  0  0  0  0  0  0  0  0  0  0
    6.1460    0.6070   19.9750 N   0  0  0  0  0  0  0  0  0  0  0  0
    7.9658   -4.4384   25.9449 N   0  0  0  0  0  0  0  0  0  0  0  0
    8.0950   -0.7700   20.8440 N   0  0  0  0  0  0  0  0  0  0  0  0
    5.6415   -4.3469   25.5373 O   0  0  0  0  0  0  0  0  0  0  0  0
    9.2950    1.3000   20.9480 O   0  0  0  0  0  0  0  0  0  0  0  0
   12.5120   -0.3415   26.4255 S   0  0  0  0  0  0  0  0  0  0  0  0
   10.2695   -2.6718   22.3873 H   0  0  0  0  0  0  0  0  0  0  0  0
    7.8712   -0.0014   24.7587 H   0  0  0  0  0  0  0  0  0  0  0  0
    9.5431   -4.5618   23.7801 H   0  0  0  0  0  0  0  0  0  0  0  0
    7.1923   -1.8823   26.1912 H   0  0  0  0  0  0  0  0  0  0  0  0
   13.7212   -1.5668   23.2509 H   0  0  0  0  0  0  0  0  0  0  0  0
   14.4926   -1.6106   25.7645 H   0  0  0  0  0  0  0  0  0  0  0  0
   10.5621    0.6191   25.3146 H   0  0  0  0  0  0  0  0  0  0  0  0
    4.3710    2.0145   17.4451 H   0  0  0  0  0  0  0  0  0  0  0  0
    2.9929    2.6891   19.3400 H   0  0  0  0  0  0  0  0  0  0  0  0
    3.6320    2.0596   21.6814 H   0  0  0  0  0  0  0  0  0  0  0  0
    5.6863    0.7288   22.0575 H   0  0  0  0  0  0  0  0  0  0  0  0
    5.3901   -6.0734   27.3117 H   0  0  0  0  0  0  0  0  0  0  0  0
    6.7606   -6.8843   26.5429 H   0  0  0  0  0  0  0  0  0  0  0  0
    6.8221   -4.9563   28.9212 H   0  0  0  0  0  0  0  0  0  0  0  0
    7.1526   -6.6910   28.9757 H   0  0  0  0  0  0  0  0  0  0  0  0
    9.0539   -4.6418   28.6288 H   0  0  0  0  0  0  0  0  0  0  0  0
    9.3393   -6.3684   28.4053 H   0  0  0  0  0  0  0  0  0  0  0  0
    9.9475   -4.7506   26.4523 H   0  0  0  0  0  0  0  0  0  0  0  0
    9.0509   -6.2236   26.0372 H   0  0  0  0  0  0  0  0  0  0  0  0
   11.5792    0.7206   22.1406 H   0  0  0  0  0  0  0  0  0  0  0  0
   11.5533   -1.0126   21.9215 H   0  0  0  0  0  0  0  0  0  0  0  0
    9.5402    0.8508   23.4127 H   0  0  0  0  0  0  0  0  0  0  0  0
    8.0917   -1.6083   21.0911 H   0  0  0  0  0  0  0  0  0  0  0  0
  1  3  2  0  0  0  0
  1  8  1  0  0  0  0
  2  4  1  0  0  0  0
  2  8  2  0  0  0  0
  3 10  1  0  0  0  0
  4 10  2  0  0  0  0
  5  6  2  0  0  0  0
  5  9  1  0  0  0  0
  6 32  1  0  0  0  0
  7  9  2  0  0  0  0
  7 32  1  0  0  0  0
  8 24  1  0  0  0  0
  9 23  1  0  0  0  0
 10 28  1  0  0  0  0
 11 13  1  0  0  0  0
 11 25  2  0  0  0  0
 11 27  1  0  0  0  0
 12 26  2  0  0  0  0
 12 27  1  0  0  0  0
 12 29  1  0  0  0  0
 13 14  2  0  0  0  0
 14 15  1  0  0  0  0
 15 16  2  0  0  0  0
 16 27  1  0  0  0  0
 17 19  1  0  0  0  0
 17 28  1  0  0  0  0
 17 30  2  0  0  0  0
 18 24  1  6  0  0  0
 18 29  1  0  0  0  0
 18 31  2  0  0  0  0
 19 20  1  0  0  0  0
 20 21  1  0  0  0  0
 21 22  1  0  0  0  0
 22 28  1  0  0  0  0
 23 24  1  0  0  0  0
 25 26  1  0  0  0  0
  1 33  1  0  0  0  0
  2 34  1  0  0  0  0
  3 35  1  0  0  0  0
  4 36  1  0  0  0  0
  5 37  1  0  0  0  0
  6 38  1  0  0  0  0
  7 39  1  0  0  0  0
 13 40  1  0  0  0  0
 14 41  1  0  0  0  0
 15 42  1  0  0  0  0
 16 43  1  0  0  0  0
 19 44  1  0  0  0  0
 19 45  1  0  0  0  0
 20 46  1  0  0  0  0
 20 47  1  0  0  0  0
 21 48  1  0  0  0  0
 21 49  1  0  0  0  0
 22 50  1  0  0  0  0
 22 51  1  0  0  0  0
 23 52  1  0  0  0  0
 23 53  1  0  0  0  0
 24 54  1  0  0  0  0
 29 55  1  0  0  0  0
M  END
> <clash_score>
0

> <docking_score>
-7.050587177276611

> <overlap_score>
0.9224667549133301

$$$$
BENZO_330_1
  -OEChem-08232013553D

 58 62  0     1  0  0  0  0  0999 V2000
   12.8937    2.8016   22.4237 C   0  0  0  0  0  0  0  0  0  0  0  0
   11.9210    1.8506   22.7318 C   0  0  0  0  0  0  0  0  0  0  0  0
    9.5890   -2.4950   23.2210 C   0  0  0  0  0  0  0  0  0  0  0  0
    8.2550   -1.0010   24.5520 C   0  0  0  0  0  0  0  0  0  0  0  0
    9.1890   -3.5540   24.0140 C   0  0  0  0  0  0  0  0  0  0  0  0
    7.8700   -2.0610   25.3550 C   0  0  0  0  0  0  0  0  0  0  0  0
   12.6848    4.1426   22.7457 C   0  0  0  0  0  0  0  0  0  0  0  0
   10.5302    3.5816   23.6839 C   0  0  0  0  0  0  0  0  0  0  0  0
    9.1280   -1.2090   23.4870 C   0  0  0  0  0  0  0  0  0  0  0  0
   10.7393    2.2406   23.3619 C   0  0  0  0  0  0  0  0  0  0  0  0
    8.3450   -3.3440   25.0980 C   0  0  0  0  0  0  0  0  0  0  0  0
   11.5030    4.5326   23.3758 C   0  0  0  0  0  0  0  0  0  0  0  0
    5.7970    0.9500   18.6730 C   0  0  0  0  0  0  0  0  0  0  0  0
    7.2710   -0.1460   19.8310 C   0  0  0  0  0  0  0  0  0  0  0  0
    4.6610    1.7170   18.4380 C   0  0  0  0  0  0  0  0  0  0  0  0
    3.8860    2.1050   19.5250 C   0  0  0  0  0  0  0  0  0  0  0  0
    4.2460    1.7520   20.8250 C   0  0  0  0  0  0  0  0  0  0  0  0
    5.3890    1.0010   21.0690 C   0  0  0  0  0  0  0  0  0  0  0  0
    8.2612   -4.4533   27.3232 C   0  0  0  0  0  0  0  0  0  0  0  0
    9.0430    0.2380   21.4940 C   0  0  0  0  0  0  0  0  0  0  0  0
    7.7639   -5.6979   28.0369 C   0  0  0  0  0  0  0  0  0  0  0  0
    6.3258   -5.9996   27.6538 C   0  0  0  0  0  0  0  0  0  0  0  0
    6.1385   -6.0983   26.1431 C   0  0  0  0  0  0  0  0  0  0  0  0
    7.3646   -5.6395   25.3553 C   0  0  0  0  0  0  0  0  0  0  0  0
    9.6852    1.2097   23.6944 C   0  0  0  0  0  0  0  0  0  0  0  0
    9.5820   -0.1080   22.7000 C   0  0  1  0  0  0  0  0  0  0  0  0
    6.7100    0.3850   17.8100 N   0  0  0  0  0  0  0  0  0  0  0  0
    7.5840   -0.2700   18.5160 N   0  0  0  0  0  0  0  0  0  0  0  0
    6.1460    0.6070   19.9750 N   0  0  0  0  0  0  0  0  0  0  0  0
    7.9658   -4.4385   25.9450 N   0  0  0  0  0  0  0  0  0  0  0  0
    8.0950   -0.7700   20.8440 N   0  0  0  0  0  0  0  0  0  0  0  0
    8.9160   -3.6176   27.9452 O   0  0  0  0  0  0  0  0  0  0  0  0
    9.2950    1.3000   20.9480 O   0  0  0  0  0  0  0  0  0  0  0  0
   11.2452    6.1875   23.7718 Cl  0  0  0  0  0  0  0  0  0  0  0  0
   13.8138    2.4975   21.9329 H   0  0  0  0  0  0  0  0  0  0  0  0
   12.0923    0.8079   22.4771 H   0  0  0  0  0  0  0  0  0  0  0  0
   10.2695   -2.6718   22.3873 H   0  0  0  0  0  0  0  0  0  0  0  0
    7.8712   -0.0014   24.7587 H   0  0  0  0  0  0  0  0  0  0  0  0
    9.5431   -4.5618   23.7801 H   0  0  0  0  0  0  0  0  0  0  0  0
    7.1923   -1.8823   26.1912 H   0  0  0  0  0  0  0  0  0  0  0  0
   13.4515    4.8730   22.4993 H   0  0  0  0  0  0  0  0  0  0  0  0
    9.6074    3.8805   24.1756 H   0  0  0  0  0  0  0  0  0  0  0  0
    4.3710    2.0145   17.4451 H   0  0  0  0  0  0  0  0  0  0  0  0
    2.9929    2.6891   19.3400 H   0  0  0  0  0  0  0  0  0  0  0  0
    3.6320    2.0596   21.6814 H   0  0  0  0  0  0  0  0  0  0  0  0
    5.6863    0.7288   22.0575 H   0  0  0  0  0  0  0  0  0  0  0  0
    8.3914   -6.5295   27.7556 H   0  0  0  0  0  0  0  0  0  0  0  0
    7.8414   -5.5198   29.0990 H   0  0  0  0  0  0  0  0  0  0  0  0
    5.9977   -6.9465   28.1311 H   0  0  0  0  0  0  0  0  0  0  0  0
    5.6587   -5.2139   28.0619 H   0  0  0  0  0  0  0  0  0  0  0  0
    5.8986   -7.1470   25.8680 H   0  0  0  0  0  0  0  0  0  0  0  0
    5.2500   -5.5067   25.8324 H   0  0  0  0  0  0  0  0  0  0  0  0
    8.1195   -6.4201   25.3688 H   0  0  0  0  0  0  0  0  0  0  0  0
    7.0780   -5.4282   24.3307 H   0  0  0  0  0  0  0  0  0  0  0  0
    9.7996    0.8985   24.7410 H   0  0  0  0  0  0  0  0  0  0  0  0
    8.7039    1.7016   23.6424 H   0  0  0  0  0  0  0  0  0  0  0  0
   10.7567   -0.2690   22.5479 H   0  0  0  0  0  0  0  0  0  0  0  0
    8.0917   -1.6083   21.0911 H   0  0  0  0  0  0  0  0  0  0  0  0
  1  2  2  0  0  0  0
  1  7  1  0  0  0  0
  2 10  1  0  0  0  0
  3  5  2  0  0  0  0
  3  9  1  0  0  0  0
  4  6  1  0  0  0  0
  4  9  2  0  0  0  0
  5 11  1  0  0  0  0
  6 11  2  0  0  0  0
  7 12  2  0  0  0  0
  8 10  2  0  0  0  0
  8 12  1  0  0  0  0
  9 26  1  0  0  0  0
 10 25  1  0  0  0  0
 11 30  1  0  0  0  0
 12 34  1  0  0  0  0
 13 15  1  0  0  0  0
 13 27  2  0  0  0  0
 13 29  1  0  0  0  0
 14 28  2  0  0  0  0
 14 29  1  0  0  0  0
 14 31  1  0  0  0  0
 15 16  2  0  0  0  0
 16 17  1  0  0  0  0
 17 18  2  0  0  0  0
 18 29  1  0  0  0  0
 19 21  1  0  0  0  0
 19 30  1  0  0  0  0
 19 32  2  0  0  0  0
 20 26  1  1  0  0  0
 20 31  1  0  0  0  0
 20 33  2  0  0  0  0
 21 22  1  0  0  0  0
 22 23  1  0  0  0  0
 23 24  1  0  0  0  0
 24 30  1  0  0  0  0
 25 26  1  0  0  0  0
 27 28  1  0  0  0  0
  1 35  1  0  0  0  0
  2 36  1  0  0  0  0
  3 37  1  0  0  0  0
  4 38  1  0  0  0  0
  5 39  1  0  0  0  0
  6 40  1  0  0  0  0
  7 41  1  0  0  0  0
  8 42  1  0  0  0  0
 15 43  1  0  0  0  0
 16 44  1  0  0  0  0
 17 45  1  0  0  0  0
 18 46  1  0  0  0  0
 21 47  1  0  0  0  0
 21 48  1  0  0  0  0
 22 49  1  0  0  0  0
 22 50  1  0  0  0  0
 23 51  1  0  0  0  0
 23 52  1  0  0  0  0
 24 53  1  0  0  0  0
 24 54  1  0  0  0  0
 25 55  1  0  0  0  0
 25 56  1  0  0  0  0
 26 57  1  0  0  0  0
 31 58  1  0  0  0  0
M  END
> <clash_score>
0

> <docking_score>
-9.358675003051758

> <overlap_score>
0.8504801392555237

$$$$
BENZO_330_2
  -OEChem-08232013553D

 58 62  0     1  0  0  0  0  0999 V2000
   13.7993   -1.2938   25.1853 C   0  0  0  0  0  0  0  0  0  0  0  0
   13.1448   -1.1103   23.9673 C   0  0  0  0  0  0  0  0  0  0  0  0
    9.5890   -2.4950   23.2210 C   0  0  0  0  0  0  0  0  0  0  0  0
    8.2550   -1.0010   24.5520 C   0  0  0  0  0  0  0  0  0  0  0  0
    9.1890   -3.5540   24.0140 C   0  0  0  0  0  0  0  0  0  0  0  0
    7.8700   -2.0610   25.3550 C   0  0  0  0  0  0  0  0  0  0  0  0
   13.2471   -0.7791   26.3583 C   0  0  0  0  0  0  0  0  0  0  0  0
   11.3860    0.1028   25.0952 C   0  0  0  0  0  0  0  0  0  0  0  0
    9.1280   -1.2090   23.4870 C   0  0  0  0  0  0  0  0  0  0  0  0
   11.9381   -0.4120   23.9222 C   0  0  0  0  0  0  0  0  0  0  0  0
    8.3450   -3.3440   25.0980 C   0  0  0  0  0  0  0  0  0  0  0  0
   12.0405   -0.0808   26.3132 C   0  0  0  0  0  0  0  0  0  0  0  0
    5.7970    0.9500   18.6730 C   0  0  0  0  0  0  0  0  0  0  0  0
    7.2710   -0.1460   19.8310 C   0  0  0  0  0  0  0  0  0  0  0  0
    4.6610    1.7170   18.4380 C   0  0  0  0  0  0  0  0  0  0  0  0
    3.8860    2.1050   19.5250 C   0  0  0  0  0  0  0  0  0  0  0  0
    4.2460    1.7520   20.8250 C   0  0  0  0  0  0  0  0  0  0  0  0
    5.3890    1.0010   21.0690 C   0  0  0  0  0  0  0  0  0  0  0  0
    6.6194   -4.8191   26.1158 C   0  0  0  0  0  0  0  0  0  0  0  0
    9.0430    0.2380   21.4940 C   0  0  0  0  0  0  0  0  0  0  0  0
    6.4366   -5.9938   27.0605 C   0  0  0  0  0  0  0  0  0  0  0  0
    7.2458   -5.7947   28.3299 C   0  0  0  0  0  0  0  0  0  0  0  0
    8.7184   -5.5215   28.0404 C   0  0  0  0  0  0  0  0  0  0  0  0
    9.0024   -5.2744   26.5596 C   0  0  0  0  0  0  0  0  0  0  0  0
   11.2301   -0.2125   22.6019 C   0  0  0  0  0  0  0  0  0  0  0  0
    9.5820   -0.1080   22.7000 C   0  0  2  0  0  0  0  0  0  0  0  0
    6.7100    0.3850   17.8100 N   0  0  0  0  0  0  0  0  0  0  0  0
    7.5840   -0.2700   18.5160 N   0  0  0  0  0  0  0  0  0  0  0  0
    6.1460    0.6070   19.9750 N   0  0  0  0  0  0  0  0  0  0  0  0
    7.9658   -4.4384   25.9449 N   0  0  0  0  0  0  0  0  0  0  0  0
    8.0950   -0.7700   20.8440 N   0  0  0  0  0  0  0  0  0  0  0  0
    5.6415   -4.3469   25.5373 O   0  0  0  0  0  0  0  0  0  0  0  0
    9.2950    1.3000   20.9480 O   0  0  0  0  0  0  0  0  0  0  0  0
   11.3603    0.5550   27.7606 Cl  0  0  0  0  0  0  0  0  0  0  0  0
   14.7389   -1.8375   25.2200 H   0  0  0  0  0  0  0  0  0  0  0  0
   13.5824   -1.5147   23.0583 H   0  0  0  0  0  0  0  0  0  0  0  0
   10.2695   -2.6718   22.3873 H   0  0  0  0  0  0  0  0  0  0  0  0
    7.8712   -0.0014   24.7587 H   0  0  0  0  0  0  0  0  0  0  0  0
    9.5431   -4.5618   23.7801 H   0  0  0  0  0  0  0  0  0  0  0  0
    7.1923   -1.8823   26.1912 H   0  0  0  0  0  0  0  0  0  0  0  0
   13.7684   -0.9296   27.3005 H   0  0  0  0  0  0  0  0  0  0  0  0
   10.4447    0.6461   25.0549 H   0  0  0  0  0  0  0  0  0  0  0  0
    4.3710    2.0145   17.4451 H   0  0  0  0  0  0  0  0  0  0  0  0
    2.9929    2.6891   19.3400 H   0  0  0  0  0  0  0  0  0  0  0  0
    3.6320    2.0596   21.6814 H   0  0  0  0  0  0  0  0  0  0  0  0
    5.6863    0.7288   22.0575 H   0  0  0  0  0  0  0  0  0  0  0  0
    5.3901   -6.0734   27.3117 H   0  0  0  0  0  0  0  0  0  0  0  0
    6.7606   -6.8843   26.5429 H   0  0  0  0  0  0  0  0  0  0  0  0
    6.8221   -4.9563   28.9212 H   0  0  0  0  0  0  0  0  0  0  0  0
    7.1526   -6.6910   28.9757 H   0  0  0  0  0  0  0  0  0  0  0  0
    9.0539   -4.6418   28.6288 H   0  0  0  0  0  0  0  0  0  0  0  0
    9.3393   -6.3684   28.4053 H   0  0  0  0  0  0  0  0  0  0  0  0
    9.9475   -4.7506   26.4523 H   0  0  0  0  0  0  0  0  0  0  0  0
    9.0509   -6.2236   26.0372 H   0  0  0  0  0  0  0  0  0  0  0  0
   11.5792    0.7206   22.1406 H   0  0  0  0  0  0  0  0  0  0  0  0
   11.5533   -1.0126   21.9215 H   0  0  0  0  0  0  0  0  0  0  0  0
    9.5402    0.8508   23.4127 H   0  0  0  0  0  0  0  0  0  0  0  0
    8.0917   -1.6083   21.0911 H   0  0  0  0  0  0  0  0  0  0  0  0
  1  2  2  0  0  0  0
  1  7  1  0  0  0  0
  2 10  1  0  0  0  0
  3  5  2  0  0  0  0
  3  9  1  0  0  0  0
  4  6  1  0  0  0  0
  4  9  2  0  0  0  0
  5 11  1  0  0  0  0
  6 11  2  0  0  0  0
  7 12  2  0  0  0  0
  8 10  2  0  0  0  0
  8 12  1  0  0  0  0
  9 26  1  0  0  0  0
 10 25  1  0  0  0  0
 11 30  1  0  0  0  0
 12 34  1  0  0  0  0
 13 15  1  0  0  0  0
 13 27  2  0  0  0  0
 13 29  1  0  0  0  0
 14 28  2  0  0  0  0
 14 29  1  0  0  0  0
 14 31  1  0  0  0  0
 15 16  2  0  0  0  0
 16 17  1  0  0  0  0
 17 18  2  0  0  0  0
 18 29  1  0  0  0  0
 19 21  1  0  0  0  0
 19 30  1  0  0  0  0
 19 32  2  0  0  0  0
 20 26  1  6  0  0  0
 20 31  1  0  0  0  0
 20 33  2  0  0  0  0
 21 22  1  0  0  0  0
 22 23  1  0  0  0  0
 23 24  1  0  0  0  0
 24 30  1  0  0  0  0
 25 26  1  0  0  0  0
 27 28  1  0  0  0  0
  1 35  1  0  0  0  0
  2 36  1  0  0  0  0
  3 37  1  0  0  0  0
  4 38  1  0  0  0  0
  5 39  1  0  0  0  0
  6 40  1  0  0  0  0
  7 41  1  0  0  0  0
  8 42  1  0  0  0  0
 15 43  1  0  0  0  0
 16 44  1  0  0  0  0
 17 45  1  0  0  0  0
 18 46  1  0  0  0  0
 21 47  1  0  0  0  0
 21 48  1  0  0  0  0
 22 49  1  0  0  0  0
 22 50  1  0  0  0  0
 23 51  1  0  0  0  0
 23 52  1  0  0  0  0
 24 53  1  0  0  0  0
 24 54  1  0  0  0  0
 25 55  1  0  0  0  0
 25 56  1  0  0  0  0
 26 57  1  0  0  0  0
 31 58  1  0  0  0  0
M  END
> <clash_score>
0.7026228882814392

> <docking_score>
-5.805139064788818

> <overlap_score>
0.924889862537384

$$$$
BENZO_331_1
  -OEChem-08232013553D

 58 62  0     1  0  0  0  0  0999 V2000
    9.5890   -2.4950   23.2210 C   0  0  0  0  0  0  0  0  0  0  0  0
    8.2550   -1.0010   24.5520 C   0  0  0  0  0  0  0  0  0  0  0  0
    9.1890   -3.5540   24.0140 C   0  0  0  0  0  0  0  0  0  0  0  0
    7.8700   -2.0610   25.3550 C   0  0  0  0  0  0  0  0  0  0  0  0
   13.3220   -0.5322   24.1508 C   0  0  0  0  0  0  0  0  0  0  0  0
   11.3738   -0.5141   25.1703 C   0  0  0  0  0  0  0  0  0  0  0  0
    9.1280   -1.2090   23.4870 C   0  0  0  0  0  0  0  0  0  0  0  0
   11.9381   -0.4120   23.9222 C   0  0  0  0  0  0  0  0  0  0  0  0
    8.3450   -3.3440   25.0980 C   0  0  0  0  0  0  0  0  0  0  0  0
    5.7970    0.9500   18.6730 C   0  0  0  0  0  0  0  0  0  0  0  0
    7.2710   -0.1460   19.8310 C   0  0  0  0  0  0  0  0  0  0  0  0
    4.6610    1.7170   18.4380 C   0  0  0  0  0  0  0  0  0  0  0  0
    3.8860    2.1050   19.5250 C   0  0  0  0  0  0  0  0  0  0  0  0
    4.2460    1.7520   20.8250 C   0  0  0  0  0  0  0  0  0  0  0  0
    5.3890    1.0010   21.0690 C   0  0  0  0  0  0  0  0  0  0  0  0
    8.2612   -4.4533   27.3232 C   0  0  0  0  0  0  0  0  0  0  0  0
    9.0430    0.2380   21.4940 C   0  0  0  0  0  0  0  0  0  0  0  0
    7.7639   -5.6979   28.0369 C   0  0  0  0  0  0  0  0  0  0  0  0
    6.3258   -5.9996   27.6538 C   0  0  0  0  0  0  0  0  0  0  0  0
    6.1385   -6.0983   26.1431 C   0  0  0  0  0  0  0  0  0  0  0  0
    7.3646   -5.6395   25.3553 C   0  0  0  0  0  0  0  0  0  0  0  0
   12.3183   -0.8369   27.4686 C   0  0  0  0  0  0  0  0  0  0  0  0
   11.2301   -0.2125   22.6019 C   0  0  0  0  0  0  0  0  0  0  0  0
    9.5820   -0.1080   22.7000 C   0  0  1  0  0  0  0  0  0  0  0  0
   13.6188   -0.6978   25.4425 N   0  0  0  0  0  0  0  0  0  0  0  0
    6.7100    0.3850   17.8100 N   0  0  0  0  0  0  0  0  0  0  0  0
    7.5840   -0.2700   18.5160 N   0  0  0  0  0  0  0  0  0  0  0  0
   12.4135   -0.6823   26.0368 N   0  0  0  0  0  0  0  0  0  0  0  0
    6.1460    0.6070   19.9750 N   0  0  0  0  0  0  0  0  0  0  0  0
    7.9658   -4.4385   25.9450 N   0  0  0  0  0  0  0  0  0  0  0  0
    8.0950   -0.7700   20.8440 N   0  0  0  0  0  0  0  0  0  0  0  0
    8.9160   -3.6176   27.9452 O   0  0  0  0  0  0  0  0  0  0  0  0
    9.2950    1.3000   20.9480 O   0  0  0  0  0  0  0  0  0  0  0  0
   10.2695   -2.6718   22.3873 H   0  0  0  0  0  0  0  0  0  0  0  0
    7.8712   -0.0014   24.7587 H   0  0  0  0  0  0  0  0  0  0  0  0
    9.5431   -4.5618   23.7801 H   0  0  0  0  0  0  0  0  0  0  0  0
    7.1923   -1.8823   26.1912 H   0  0  0  0  0  0  0  0  0  0  0  0
   14.1285   -0.5054   23.4318 H   0  0  0  0  0  0  0  0  0  0  0  0
   10.3466   -0.4809   25.5074 H   0  0  0  0  0  0  0  0  0  0  0  0
    4.3710    2.0145   17.4451 H   0  0  0  0  0  0  0  0  0  0  0  0
    2.9929    2.6891   19.3400 H   0  0  0  0  0  0  0  0  0  0  0  0
    3.6320    2.0596   21.6814 H   0  0  0  0  0  0  0  0  0  0  0  0
    5.6863    0.7288   22.0575 H   0  0  0  0  0  0  0  0  0  0  0  0
    8.3914   -6.5295   27.7556 H   0  0  0  0  0  0  0  0  0  0  0  0
    7.8414   -5.5198   29.0990 H   0  0  0  0  0  0  0  0  0  0  0  0
    5.9977   -6.9465   28.1311 H   0  0  0  0  0  0  0  0  0  0  0  0
    5.6587   -5.2139   28.0619 H   0  0  0  0  0  0  0  0  0  0  0  0
    5.8986   -7.1470   25.8680 H   0  0  0  0  0  0  0  0  0  0  0  0
    5.2500   -5.5067   25.8324 H   0  0  0  0  0  0  0  0  0  0  0  0
    8.1195   -6.4201   25.3688 H   0  0  0  0  0  0  0  0  0  0  0  0
    7.0780   -5.4282   24.3307 H   0  0  0  0  0  0  0  0  0  0  0  0
   12.2259   -1.9040   27.6873 H   0  0  0  0  0  0  0  0  0  0  0  0
   13.2159   -0.4265   27.9396 H   0  0  0  0  0  0  0  0  0  0  0  0
   11.4422   -0.2936   27.8333 H   0  0  0  0  0  0  0  0  0  0  0  0
   11.5792    0.7206   22.1406 H   0  0  0  0  0  0  0  0  0  0  0  0
   11.5533   -1.0126   21.9215 H   0  0  0  0  0  0  0  0  0  0  0  0
    9.5402    0.8508   23.4127 H   0  0  0  0  0  0  0  0  0  0  0  0
    8.0917   -1.6083   21.0911 H   0  0  0  0  0  0  0  0  0  0  0  0
  1  3  2  0  0  0  0
  1  7  1  0  0  0  0
  2  4  1  0  0  0  0
  2  7  2  0  0  0  0
  3  9  1  0  0  0  0
  4  9  2  0  0  0  0
  5  8  1  0  0  0  0
  5 25  2  0  0  0  0
  6  8  2  0  0  0  0
  6 28  1  0  0  0  0
  7 24  1  0  0  0  0
  8 23  1  0  0  0  0
  9 30  1  0  0  0  0
 10 12  1  0  0  0  0
 10 26  2  0  0  0  0
 10 29  1  0  0  0  0
 11 27  2  0  0  0  0
 11 29  1  0  0  0  0
 11 31  1  0  0  0  0
 12 13  2  0  0  0  0
 13 14  1  0  0  0  0
 14 15  2  0  0  0  0
 15 29  1  0  0  0  0
 16 18  1  0  0  0  0
 16 30  1  0  0  0  0
 16 32  2  0  0  0  0
 17 24  1  0  0  0  0
 17 31  1  0  0  0  0
 17 33  2  0  0  0  0
 18 19  1  0  0  0  0
 19 20  1  0  0  0  0
 20 21  1  0  0  0  0
 21 30  1  0  0  0  0
 22 28  1  0  0  0  0
 23 24  1  1  0  0  0
 25 28  1  0  0  0  0
 26 27  1  0  0  0  0
  1 34  1  0  0  0  0
  2 35  1  0  0  0  0
  3 36  1  0  0  0  0
  4 37  1  0  0  0  0
  5 38  1  0  0  0  0
  6 39  1  0  0  0  0
 12 40  1  0  0  0  0
 13 41  1  0  0  0  0
 14 42  1  0  0  0  0
 15 43  1  0  0  0  0
 18 44  1  0  0  0  0
 18 45  1  0  0  0  0
 19 46  1  0  0  0  0
 19 47  1  0  0  0  0
 20 48  1  0  0  0  0
 20 49  1  0  0  0  0
 21 50  1  0  0  0  0
 21 51  1  0  0  0  0
 22 52  1  0  0  0  0
 22 53  1  0  0  0  0
 22 54  1  0  0  0  0
 23 55  1  0  0  0  0
 23 56  1  0  0  0  0
 24 57  1  0  0  0  0
 31 58  1  0  0  0  0
M  END
> <clash_score>
0.6568275608698446

> <docking_score>
-7.052345275878906

> <overlap_score>
0.93819659948349

$$$$
BENZO_331_2
  -OEChem-08232013553D

 58 62  0     1  0  0  0  0  0999 V2000
    9.5890   -2.4950   23.2210 C   0  0  0  0  0  0  0  0  0  0  0  0
    8.2550   -1.0010   24.5520 C   0  0  0  0  0  0  0  0  0  0  0  0
    9.1890   -3.5540   24.0140 C   0  0  0  0  0  0  0  0  0  0  0  0
    7.8700   -2.0610   25.3550 C   0  0  0  0  0  0  0  0  0  0  0  0
   11.6577    2.2238   22.2952 C   0  0  0  0  0  0  0  0  0  0  0  0
   11.0138    3.4070   24.0331 C   0  0  0  0  0  0  0  0  0  0  0  0
    9.1280   -1.2090   23.4870 C   0  0  0  0  0  0  0  0  0  0  0  0
   10.7393    2.2406   23.3619 C   0  0  0  0  0  0  0  0  0  0  0  0
    8.3450   -3.3440   25.0980 C   0  0  0  0  0  0  0  0  0  0  0  0
    5.7970    0.9500   18.6730 C   0  0  0  0  0  0  0  0  0  0  0  0
    7.2710   -0.1460   19.8310 C   0  0  0  0  0  0  0  0  0  0  0  0
    4.6610    1.7170   18.4380 C   0  0  0  0  0  0  0  0  0  0  0  0
    3.8860    2.1050   19.5250 C   0  0  0  0  0  0  0  0  0  0  0  0
    4.2460    1.7520   20.8250 C   0  0  0  0  0  0  0  0  0  0  0  0
    5.3890    1.0010   21.0690 C   0  0  0  0  0  0  0  0  0  0  0  0
    8.2612   -4.4533   27.3232 C   0  0  0  0  0  0  0  0  0  0  0  0
    9.0430    0.2380   21.4940 C   0  0  0  0  0  0  0  0  0  0  0  0
    7.7639   -5.6979   28.0369 C   0  0  0  0  0  0  0  0  0  0  0  0
    6.3258   -5.9996   27.6538 C   0  0  0  0  0  0  0  0  0  0  0  0
    6.1385   -6.0983   26.1431 C   0  0  0  0  0  0  0  0  0  0  0  0
    7.3646   -5.6395   25.3553 C   0  0  0  0  0  0  0  0  0  0  0  0
   12.6770    5.2480   23.6821 C   0  0  0  0  0  0  0  0  0  0  0  0
    9.6852    1.2097   23.6944 C   0  0  0  0  0  0  0  0  0  0  0  0
    9.5820   -0.1080   22.7000 C   0  0  2  0  0  0  0  0  0  0  0  0
   12.4560    3.2947   22.2852 N   0  0  0  0  0  0  0  0  0  0  0  0
    6.7100    0.3850   17.8100 N   0  0  0  0  0  0  0  0  0  0  0  0
    7.5840   -0.2700   18.5160 N   0  0  0  0  0  0  0  0  0  0  0  0
   12.0398    3.9953   23.3539 N   0  0  0  0  0  0  0  0  0  0  0  0
    6.1460    0.6070   19.9750 N   0  0  0  0  0  0  0  0  0  0  0  0
    7.9658   -4.4385   25.9450 N   0  0  0  0  0  0  0  0  0  0  0  0
    8.0950   -0.7700   20.8440 N   0  0  0  0  0  0  0  0  0  0  0  0
    8.9160   -3.6176   27.9452 O   0  0  0  0  0  0  0  0  0  0  0  0
    9.2950    1.3000   20.9480 O   0  0  0  0  0  0  0  0  0  0  0  0
   10.2695   -2.6718   22.3873 H   0  0  0  0  0  0  0  0  0  0  0  0
    7.8712   -0.0014   24.7587 H   0  0  0  0  0  0  0  0  0  0  0  0
    9.5431   -4.5618   23.7801 H   0  0  0  0  0  0  0  0  0  0  0  0
    7.1923   -1.8823   26.1912 H   0  0  0  0  0  0  0  0  0  0  0  0
   11.7800    1.4776   21.5229 H   0  0  0  0  0  0  0  0  0  0  0  0
   10.5765    3.8580   24.9136 H   0  0  0  0  0  0  0  0  0  0  0  0
    4.3710    2.0145   17.4451 H   0  0  0  0  0  0  0  0  0  0  0  0
    2.9929    2.6891   19.3400 H   0  0  0  0  0  0  0  0  0  0  0  0
    3.6320    2.0596   21.6814 H   0  0  0  0  0  0  0  0  0  0  0  0
    5.6863    0.7288   22.0575 H   0  0  0  0  0  0  0  0  0  0  0  0
    8.3914   -6.5295   27.7556 H   0  0  0  0  0  0  0  0  0  0  0  0
    7.8414   -5.5198   29.0990 H   0  0  0  0  0  0  0  0  0  0  0  0
    5.9977   -6.9465   28.1311 H   0  0  0  0  0  0  0  0  0  0  0  0
    5.6587   -5.2139   28.0619 H   0  0  0  0  0  0  0  0  0  0  0  0
    5.8986   -7.1470   25.8680 H   0  0  0  0  0  0  0  0  0  0  0  0
    5.2500   -5.5067   25.8324 H   0  0  0  0  0  0  0  0  0  0  0  0
    8.1195   -6.4201   25.3688 H   0  0  0  0  0  0  0  0  0  0  0  0
    7.0780   -5.4282   24.3307 H   0  0  0  0  0  0  0  0  0  0  0  0
   13.5110    5.0358   24.3562 H   0  0  0  0  0  0  0  0  0  0  0  0
   13.0376    5.7241   22.7660 H   0  0  0  0  0  0  0  0  0  0  0  0
   11.9508    5.9069   24.1662 H   0  0  0  0  0  0  0  0  0  0  0  0
    9.7996    0.8985   24.7410 H   0  0  0  0  0  0  0  0  0  0  0  0
    8.7039    1.7016   23.6424 H   0  0  0  0  0  0  0  0  0  0  0  0
   10.7567   -0.2690   22.5479 H   0  0  0  0  0  0  0  0  0  0  0  0
    8.0917   -1.6083   21.0911 H   0  0  0  0  0  0  0  0  0  0  0  0
  1  3  2  0  0  0  0
  1  7  1  0  0  0  0
  2  4  1  0  0  0  0
  2  7  2  0  0  0  0
  3  9  1  0  0  0  0
  4  9  2  0  0  0  0
  5  8  1  0  0  0  0
  5 25  2  0  0  0  0
  6  8  2  0  0  0  0
  6 28  1  0  0  0  0
  7 24  1  0  0  0  0
  8 23  1  0  0  0  0
  9 30  1  0  0  0  0
 10 12  1  0  0  0  0
 10 26  2  0  0  0  0
 10 29  1  0  0  0  0
 11 27  2  0  0  0  0
 11 29  1  0  0  0  0
 11 31  1  0  0  0  0
 12 13  2  0  0  0  0
 13 14  1  0  0  0  0
 14 15  2  0  0  0  0
 15 29  1  0  0  0  0
 16 18  1  0  0  0  0
 16 30  1  0  0  0  0
 16 32  2  0  0  0  0
 17 24  1  0  0  0  0
 17 31  1  0  0  0  0
 17 33  2  0  0  0  0
 18 19  1  0  0  0  0
 19 20  1  0  0  0  0
 20 21  1  0  0  0  0
 21 30  1  0  0  0  0
 22 28  1  0  0  0  0
 23 24  1  6  0  0  0
 25 28  1  0  0  0  0
 26 27  1  0  0  0  0
  1 34  1  0  0  0  0
  2 35  1  0  0  0  0
  3 36  1  0  0  0  0
  4 37  1  0  0  0  0
  5 38  1  0  0  0  0
  6 39  1  0  0  0  0
 12 40  1  0  0  0  0
 13 41  1  0  0  0  0
 14 42  1  0  0  0  0
 15 43  1  0  0  0  0
 18 44  1  0  0  0  0
 18 45  1  0  0  0  0
 19 46  1  0  0  0  0
 19 47  1  0  0  0  0
 20 48  1  0  0  0  0
 20 49  1  0  0  0  0
 21 50  1  0  0  0  0
 21 51  1  0  0  0  0
 22 52  1  0  0  0  0
 22 53  1  0  0  0  0
 22 54  1  0  0  0  0
 23 55  1  0  0  0  0
 23 56  1  0  0  0  0
 24 57  1  0  0  0  0
 31 58  1  0  0  0  0
M  END
> <clash_score>
0

> <docking_score>
-7.769231796264648

> <overlap_score>
0.8474575281143188

$$$$
BENZO_333_1
  -OEChem-08232013553D

 57 61  0     1  0  0  0  0  0999 V2000
   12.7867    1.1712   26.6741 C   0  0  0  0  0  0  0  0  0  0  0  0
   11.5946    1.8532   26.9175 C   0  0  0  0  0  0  0  0  0  0  0  0
   12.9730    0.5019   25.4645 C   0  0  0  0  0  0  0  0  0  0  0  0
   10.5886    1.8659   25.9513 C   0  0  0  0  0  0  0  0  0  0  0  0
   11.9671    0.5146   24.4983 C   0  0  0  0  0  0  0  0  0  0  0  0
    9.5890   -2.4950   23.2210 C   0  0  0  0  0  0  0  0  0  0  0  0
    8.2550   -1.0010   24.5520 C   0  0  0  0  0  0  0  0  0  0  0  0
    9.1890   -3.5540   24.0140 C   0  0  0  0  0  0  0  0  0  0  0  0
    7.8700   -2.0610   25.3550 C   0  0  0  0  0  0  0  0  0  0  0  0
   10.7749    1.1966   24.7417 C   0  0  0  0  0  0  0  0  0  0  0  0
    9.1280   -1.2090   23.4870 C   0  0  0  0  0  0  0  0  0  0  0  0
    8.3450   -3.3440   25.0980 C   0  0  0  0  0  0  0  0  0  0  0  0
    5.7970    0.9500   18.6730 C   0  0  0  0  0  0  0  0  0  0  0  0
    7.2710   -0.1460   19.8310 C   0  0  0  0  0  0  0  0  0  0  0  0
    4.6610    1.7170   18.4380 C   0  0  0  0  0  0  0  0  0  0  0  0
    3.8860    2.1050   19.5250 C   0  0  0  0  0  0  0  0  0  0  0  0
    4.2460    1.7520   20.8250 C   0  0  0  0  0  0  0  0  0  0  0  0
    5.3890    1.0010   21.0690 C   0  0  0  0  0  0  0  0  0  0  0  0
    9.0430    0.2380   21.4940 C   0  0  0  0  0  0  0  0  0  0  0  0
    8.9526   -5.2008   26.6600 C   0  0  0  0  0  0  0  0  0  0  0  0
    6.6115   -4.5057   26.4392 C   0  0  0  0  0  0  0  0  0  0  0  0
    8.9053   -4.7827   28.1257 C   0  0  0  0  0  0  0  0  0  0  0  0
    6.6391   -4.1219   27.9194 C   0  0  0  0  0  0  0  0  0  0  0  0
    9.6852    1.2097   23.6944 C   0  0  0  0  0  0  0  0  0  0  0  0
    9.5820   -0.1080   22.7000 C   0  0  1  0  0  0  0  0  0  0  0  0
    6.7100    0.3850   17.8100 N   0  0  0  0  0  0  0  0  0  0  0  0
    7.5840   -0.2700   18.5160 N   0  0  0  0  0  0  0  0  0  0  0  0
    6.1460    0.6070   19.9750 N   0  0  0  0  0  0  0  0  0  0  0  0
    7.9774   -4.4013   25.9152 N   0  0  0  0  0  0  0  0  0  0  0  0
    8.0950   -0.7700   20.8440 N   0  0  0  0  0  0  0  0  0  0  0  0
    9.2950    1.3000   20.9480 O   0  0  0  0  0  0  0  0  0  0  0  0
    7.5748   -4.9364   28.6347 O   0  0  0  0  0  0  0  0  0  0  0  0
   13.5704    1.1625   27.4260 H   0  0  0  0  0  0  0  0  0  0  0  0
   11.4498    2.3753   27.8588 H   0  0  0  0  0  0  0  0  0  0  0  0
   13.9015   -0.0282   25.2743 H   0  0  0  0  0  0  0  0  0  0  0  0
    9.6629    2.3997   26.1496 H   0  0  0  0  0  0  0  0  0  0  0  0
   12.1210   -0.0097   23.5589 H   0  0  0  0  0  0  0  0  0  0  0  0
   10.2684   -2.6719   22.3867 H   0  0  0  0  0  0  0  0  0  0  0  0
    7.8717   -0.0016   24.7596 H   0  0  0  0  0  0  0  0  0  0  0  0
    9.5443   -4.5616   23.7817 H   0  0  0  0  0  0  0  0  0  0  0  0
    7.1921   -1.8821   26.1908 H   0  0  0  0  0  0  0  0  0  0  0  0
    4.3710    2.0145   17.4451 H   0  0  0  0  0  0  0  0  0  0  0  0
    2.9929    2.6891   19.3400 H   0  0  0  0  0  0  0  0  0  0  0  0
    3.6320    2.0596   21.6814 H   0  0  0  0  0  0  0  0  0  0  0  0
    5.6863    0.7288   22.0575 H   0  0  0  0  0  0  0  0  0  0  0  0
    9.9614   -5.0503   26.2701 H   0  0  0  0  0  0  0  0  0  0  0  0
    8.6932   -6.2593   26.5731 H   0  0  0  0  0  0  0  0  0  0  0  0
    6.2625   -5.5339   26.3355 H   0  0  0  0  0  0  0  0  0  0  0  0
    5.9348   -3.8414   25.9036 H   0  0  0  0  0  0  0  0  0  0  0  0
    9.5615   -5.4255   28.7162 H   0  0  0  0  0  0  0  0  0  0  0  0
    9.2365   -3.7494   28.2620 H   0  0  0  0  0  0  0  0  0  0  0  0
    6.8895   -3.0633   28.0551 H   0  0  0  0  0  0  0  0  0  0  0  0
    5.6514   -4.2861   28.3610 H   0  0  0  0  0  0  0  0  0  0  0  0
    8.7197    1.4079   24.1780 H   0  0  0  0  0  0  0  0  0  0  0  0
    9.8623    2.0699   23.0340 H   0  0  0  0  0  0  0  0  0  0  0  0
   10.7567   -0.2690   22.5478 H   0  0  0  0  0  0  0  0  0  0  0  0
    8.0917   -1.6083   21.0911 H   0  0  0  0  0  0  0  0  0  0  0  0
  1  2  1  0  0  0  0
  1  3  2  0  0  0  0
  2  4  2  0  0  0  0
  3  5  1  0  0  0  0
  4 10  1  0  0  0  0
  5 10  2  0  0  0  0
  6  8  2  0  0  0  0
  6 11  1  0  0  0  0
  7  9  1  0  0  0  0
  7 11  2  0  0  0  0
  8 12  1  0  0  0  0
  9 12  2  0  0  0  0
 10 24  1  0  0  0  0
 11 25  1  0  0  0  0
 12 29  1  0  0  0  0
 13 15  1  0  0  0  0
 13 26  2  0  0  0  0
 13 28  1  0  0  0  0
 14 27  2  0  0  0  0
 14 28  1  0  0  0  0
 14 30  1  0  0  0  0
 15 16  2  0  0  0  0
 16 17  1  0  0  0  0
 17 18  2  0  0  0  0
 18 28  1  0  0  0  0
 19 25  1  1  0  0  0
 19 30  1  0  0  0  0
 19 31  2  0  0  0  0
 20 22  1  0  0  0  0
 20 29  1  0  0  0  0
 21 23  1  0  0  0  0
 21 29  1  0  0  0  0
 22 32  1  0  0  0  0
 23 32  1  0  0  0  0
 24 25  1  0  0  0  0
 26 27  1  0  0  0  0
  1 33  1  0  0  0  0
  2 34  1  0  0  0  0
  3 35  1  0  0  0  0
  4 36  1  0  0  0  0
  5 37  1  0  0  0  0
  6 38  1  0  0  0  0
  7 39  1  0  0  0  0
  8 40  1  0  0  0  0
  9 41  1  0  0  0  0
 15 42  1  0  0  0  0
 16 43  1  0  0  0  0
 17 44  1  0  0  0  0
 18 45  1  0  0  0  0
 20 46  1  0  0  0  0
 20 47  1  0  0  0  0
 21 48  1  0  0  0  0
 21 49  1  0  0  0  0
 22 50  1  0  0  0  0
 22 51  1  0  0  0  0
 23 52  1  0  0  0  0
 23 53  1  0  0  0  0
 24 54  1  0  0  0  0
 24 55  1  0  0  0  0
 25 56  1  0  0  0  0
 30 57  1  0  0  0  0
M  END
> <clash_score>
4.41239365524512

> <docking_score>
-4.776426792144775

> <overlap_score>
0.8525295257568359

$$$$
BENZO_333_2
  -OEChem-08232013553D

 57 61  0     1  0  0  0  0  0999 V2000
   13.2443   -0.7791   26.3598 C   0  0  0  0  0  0  0  0  0  0  0  0
   13.7975   -1.2944   25.1876 C   0  0  0  0  0  0  0  0  0  0  0  0
   12.0380   -0.0803   26.3132 C   0  0  0  0  0  0  0  0  0  0  0  0
   13.1445   -1.1108   23.9688 C   0  0  0  0  0  0  0  0  0  0  0  0
   11.3850    0.1033   25.0944 C   0  0  0  0  0  0  0  0  0  0  0  0
    9.5890   -2.4950   23.2210 C   0  0  0  0  0  0  0  0  0  0  0  0
    8.2550   -1.0010   24.5520 C   0  0  0  0  0  0  0  0  0  0  0  0
    9.1890   -3.5540   24.0140 C   0  0  0  0  0  0  0  0  0  0  0  0
    7.8700   -2.0610   25.3550 C   0  0  0  0  0  0  0  0  0  0  0  0
   11.9382   -0.4119   23.9222 C   0  0  0  0  0  0  0  0  0  0  0  0
    9.1280   -1.2090   23.4870 C   0  0  0  0  0  0  0  0  0  0  0  0
    8.3450   -3.3440   25.0980 C   0  0  0  0  0  0  0  0  0  0  0  0
    5.7970    0.9500   18.6730 C   0  0  0  0  0  0  0  0  0  0  0  0
    7.2710   -0.1460   19.8310 C   0  0  0  0  0  0  0  0  0  0  0  0
    4.6610    1.7170   18.4380 C   0  0  0  0  0  0  0  0  0  0  0  0
    3.8860    2.1050   19.5250 C   0  0  0  0  0  0  0  0  0  0  0  0
    4.2460    1.7520   20.8250 C   0  0  0  0  0  0  0  0  0  0  0  0
    5.3890    1.0010   21.0690 C   0  0  0  0  0  0  0  0  0  0  0  0
    9.0430    0.2380   21.4940 C   0  0  0  0  0  0  0  0  0  0  0  0
    8.9526   -5.2008   26.6600 C   0  0  0  0  0  0  0  0  0  0  0  0
    6.6115   -4.5057   26.4392 C   0  0  0  0  0  0  0  0  0  0  0  0
    8.9053   -4.7827   28.1257 C   0  0  0  0  0  0  0  0  0  0  0  0
    6.6391   -4.1219   27.9194 C   0  0  0  0  0  0  0  0  0  0  0  0
   11.2301   -0.2124   22.6019 C   0  0  0  0  0  0  0  0  0  0  0  0
    9.5820   -0.1080   22.7000 C   0  0  2  0  0  0  0  0  0  0  0  0
    6.7100    0.3850   17.8100 N   0  0  0  0  0  0  0  0  0  0  0  0
    7.5840   -0.2700   18.5160 N   0  0  0  0  0  0  0  0  0  0  0  0
    6.1460    0.6070   19.9750 N   0  0  0  0  0  0  0  0  0  0  0  0
    7.9774   -4.4013   25.9152 N   0  0  0  0  0  0  0  0  0  0  0  0
    8.0950   -0.7700   20.8440 N   0  0  0  0  0  0  0  0  0  0  0  0
    9.2950    1.3000   20.9480 O   0  0  0  0  0  0  0  0  0  0  0  0
    7.5748   -4.9364   28.6347 O   0  0  0  0  0  0  0  0  0  0  0  0
   13.7523   -0.9233   27.3089 H   0  0  0  0  0  0  0  0  0  0  0  0
   14.7362   -1.8395   25.2238 H   0  0  0  0  0  0  0  0  0  0  0  0
   11.6065    0.3201   27.2258 H   0  0  0  0  0  0  0  0  0  0  0  0
   13.5830   -1.5156   23.0605 H   0  0  0  0  0  0  0  0  0  0  0  0
   10.4456    0.6492   25.0677 H   0  0  0  0  0  0  0  0  0  0  0  0
   10.2684   -2.6719   22.3867 H   0  0  0  0  0  0  0  0  0  0  0  0
    7.8717   -0.0016   24.7596 H   0  0  0  0  0  0  0  0  0  0  0  0
    9.5443   -4.5616   23.7817 H   0  0  0  0  0  0  0  0  0  0  0  0
    7.1921   -1.8821   26.1908 H   0  0  0  0  0  0  0  0  0  0  0  0
    4.3710    2.0145   17.4451 H   0  0  0  0  0  0  0  0  0  0  0  0
    2.9929    2.6891   19.3400 H   0  0  0  0  0  0  0  0  0  0  0  0
    3.6320    2.0596   21.6814 H   0  0  0  0  0  0  0  0  0  0  0  0
    5.6863    0.7288   22.0575 H   0  0  0  0  0  0  0  0  0  0  0  0
    9.9614   -5.0503   26.2701 H   0  0  0  0  0  0  0  0  0  0  0  0
    8.6932   -6.2593   26.5731 H   0  0  0  0  0  0  0  0  0  0  0  0
    6.2625   -5.5339   26.3355 H   0  0  0  0  0  0  0  0  0  0  0  0
    5.9348   -3.8414   25.9036 H   0  0  0  0  0  0  0  0  0  0  0  0
    9.5615   -5.4255   28.7162 H   0  0  0  0  0  0  0  0  0  0  0  0
    9.2365   -3.7494   28.2620 H   0  0  0  0  0  0  0  0  0  0  0  0
    6.8895   -3.0633   28.0551 H   0  0  0  0  0  0  0  0  0  0  0  0
    5.6514   -4.2861   28.3610 H   0  0  0  0  0  0  0  0  0  0  0  0
   11.5792    0.7206   22.1405 H   0  0  0  0  0  0  0  0  0  0  0  0
   11.5533   -1.0125   21.9215 H   0  0  0  0  0  0  0  0  0  0  0  0
    9.5402    0.8508   23.4127 H   0  0  0  0  0  0  0  0  0  0  0  0
    8.0917   -1.6083   21.0911 H   0  0  0  0  0  0  0  0  0  0  0  0
  1  2  1  0  0  0  0
  1  3  2  0  0  0  0
  2  4  2  0  0  0  0
  3  5  1  0  0  0  0
  4 10  1  0  0  0  0
  5 10  2  0  0  0  0
  6  8  2  0  0  0  0
  6 11  1  0  0  0  0
  7  9  1  0  0  0  0
  7 11  2  0  0  0  0
  8 12  1  0  0  0  0
  9 12  2  0  0  0  0
 10 24  1  0  0  0  0
 11 25  1  0  0  0  0
 12 29  1  0  0  0  0
 13 15  1  0  0  0  0
 13 26  2  0  0  0  0
 13 28  1  0  0  0  0
 14 27  2  0  0  0  0
 14 28  1  0  0  0  0
 14 30  1  0  0  0  0
 15 16  2  0  0  0  0
 16 17  1  0  0  0  0
 17 18  2  0  0  0  0
 18 28  1  0  0  0  0
 19 25  1  6  0  0  0
 19 30  1  0  0  0  0
 19 31  2  0  0  0  0
 20 22  1  0  0  0  0
 20 29  1  0  0  0  0
 21 23  1  0  0  0  0
 21 29  1  0  0  0  0
 22 32  1  0  0  0  0
 23 32  1  0  0  0  0
 24 25  1  0  0  0  0
 26 27  1  0  0  0  0
  1 33  1  0  0  0  0
  2 34  1  0  0  0  0
  3 35  1  0  0  0  0
  4 36  1  0  0  0  0
  5 37  1  0  0  0  0
  6 38  1  0  0  0  0
  7 39  1  0  0  0  0
  8 40  1  0  0  0  0
  9 41  1  0  0  0  0
 15 42  1  0  0  0  0
 16 43  1  0  0  0  0
 17 44  1  0  0  0  0
 18 45  1  0  0  0  0
 20 46  1  0  0  0  0
 20 47  1  0  0  0  0
 21 48  1  0  0  0  0
 21 49  1  0  0  0  0
 22 50  1  0  0  0  0
 22 51  1  0  0  0  0
 23 52  1  0  0  0  0
 23 53  1  0  0  0  0
 24 54  1  0  0  0  0
 24 55  1  0  0  0  0
 25 56  1  0  0  0  0
 30 57  1  0  0  0  0
M  END
> <clash_score>
0

> <docking_score>
-6.680189609527588

> <overlap_score>
0.9247123003005981

$$$$
BENZO_332_2
  -OEChem-08232013553D

 54 58  0     1  0  0  0  0  0999 V2000
    9.5890   -2.4950   23.2210 C   0  0  0  0  0  0  0  0  0  0  0  0
    8.2550   -1.0010   24.5520 C   0  0  0  0  0  0  0  0  0  0  0  0
    9.1890   -3.5540   24.0140 C   0  0  0  0  0  0  0  0  0  0  0  0
    7.8700   -2.0610   25.3550 C   0  0  0  0  0  0  0  0  0  0  0  0
   13.1712   -1.1115   24.0648 C   0  0  0  0  0  0  0  0  0  0  0  0
   13.5969   -1.1481   25.3744 C   0  0  0  0  0  0  0  0  0  0  0  0
   11.4683    0.0594   25.1285 C   0  0  0  0  0  0  0  0  0  0  0  0
    9.1280   -1.2090   23.4870 C   0  0  0  0  0  0  0  0  0  0  0  0
   11.9382   -0.4119   23.9222 C   0  0  0  0  0  0  0  0  0  0  0  0
    8.3450   -3.3440   25.0980 C   0  0  0  0  0  0  0  0  0  0  0  0
    5.7970    0.9500   18.6730 C   0  0  0  0  0  0  0  0  0  0  0  0
    7.2710   -0.1460   19.8310 C   0  0  0  0  0  0  0  0  0  0  0  0
    4.6610    1.7170   18.4380 C   0  0  0  0  0  0  0  0  0  0  0  0
    3.8860    2.1050   19.5250 C   0  0  0  0  0  0  0  0  0  0  0  0
    4.2460    1.7520   20.8250 C   0  0  0  0  0  0  0  0  0  0  0  0
    5.3890    1.0010   21.0690 C   0  0  0  0  0  0  0  0  0  0  0  0
    9.0430    0.2380   21.4940 C   0  0  0  0  0  0  0  0  0  0  0  0
    8.9526   -5.2008   26.6600 C   0  0  0  0  0  0  0  0  0  0  0  0
    6.6115   -4.5057   26.4392 C   0  0  0  0  0  0  0  0  0  0  0  0
    8.9053   -4.7827   28.1257 C   0  0  0  0  0  0  0  0  0  0  0  0
    6.6391   -4.1219   27.9194 C   0  0  0  0  0  0  0  0  0  0  0  0
   11.2301   -0.2124   22.6019 C   0  0  0  0  0  0  0  0  0  0  0  0
    9.5820   -0.1080   22.7000 C   0  0  2  0  0  0  0  0  0  0  0  0
    6.7100    0.3850   17.8100 N   0  0  0  0  0  0  0  0  0  0  0  0
    7.5840   -0.2700   18.5160 N   0  0  0  0  0  0  0  0  0  0  0  0
    6.1460    0.6070   19.9750 N   0  0  0  0  0  0  0  0  0  0  0  0
    7.9774   -4.4013   25.9152 N   0  0  0  0  0  0  0  0  0  0  0  0
    8.0950   -0.7700   20.8440 N   0  0  0  0  0  0  0  0  0  0  0  0
    9.2950    1.3000   20.9480 O   0  0  0  0  0  0  0  0  0  0  0  0
    7.5748   -4.9364   28.6347 O   0  0  0  0  0  0  0  0  0  0  0  0
   12.5120   -0.3414   26.4254 S   0  0  0  0  0  0  0  0  0  0  0  0
   10.2684   -2.6719   22.3867 H   0  0  0  0  0  0  0  0  0  0  0  0
    7.8717   -0.0016   24.7596 H   0  0  0  0  0  0  0  0  0  0  0  0
    9.5443   -4.5616   23.7817 H   0  0  0  0  0  0  0  0  0  0  0  0
    7.1921   -1.8821   26.1908 H   0  0  0  0  0  0  0  0  0  0  0  0
   13.7212   -1.5668   23.2509 H   0  0  0  0  0  0  0  0  0  0  0  0
   14.4926   -1.6105   25.7644 H   0  0  0  0  0  0  0  0  0  0  0  0
   10.5622    0.6192   25.3146 H   0  0  0  0  0  0  0  0  0  0  0  0
    4.3710    2.0145   17.4451 H   0  0  0  0  0  0  0  0  0  0  0  0
    2.9929    2.6891   19.3400 H   0  0  0  0  0  0  0  0  0  0  0  0
    3.6320    2.0596   21.6814 H   0  0  0  0  0  0  0  0  0  0  0  0
    5.6863    0.7288   22.0575 H   0  0  0  0  0  0  0  0  0  0  0  0
    9.9614   -5.0503   26.2701 H   0  0  0  0  0  0  0  0  0  0  0  0
    8.6932   -6.2593   26.5731 H   0  0  0  0  0  0  0  0  0  0  0  0
    6.2625   -5.5339   26.3355 H   0  0  0  0  0  0  0  0  0  0  0  0
    5.9348   -3.8414   25.9036 H   0  0  0  0  0  0  0  0  0  0  0  0
    9.5615   -5.4255   28.7162 H   0  0  0  0  0  0  0  0  0  0  0  0
    9.2365   -3.7494   28.2620 H   0  0  0  0  0  0  0  0  0  0  0  0
    6.8895   -3.0633   28.0551 H   0  0  0  0  0  0  0  0  0  0  0  0
    5.6514   -4.2861   28.3610 H   0  0  0  0  0  0  0  0  0  0  0  0
   11.5792    0.7206   22.1405 H   0  0  0  0  0  0  0  0  0  0  0  0
   11.5533   -1.0125   21.9215 H   0  0  0  0  0  0  0  0  0  0  0  0
    9.5402    0.8508   23.4127 H   0  0  0  0  0  0  0  0  0  0  0  0
    8.0917   -1.6083   21.0911 H   0  0  0  0  0  0  0  0  0  0  0  0
  1  3  2  0  0  0  0
  1  8  1  0  0  0  0
  2  4  1  0  0  0  0
  2  8  2  0  0  0  0
  3 10  1  0  0  0  0
  4 10  2  0  0  0  0
  5  6  2  0  0  0  0
  5  9  1  0  0  0  0
  6 31  1  0  0  0  0
  7  9  2  0  0  0  0
  7 31  1  0  0  0  0
  8 23  1  0  0  0  0
  9 22  1  0  0  0  0
 10 27  1  0  0  0  0
 11 13  1  0  0  0  0
 11 24  2  0  0  0  0
 11 26  1  0  0  0  0
 12 25  2  0  0  0  0
 12 26  1  0  0  0  0
 12 28  1  0  0  0  0
 13 14  2  0  0  0  0
 14 15  1  0  0  0  0
 15 16  2  0  0  0  0
 16 26  1  0  0  0  0
 17 23  1  6  0  0  0
 17 28  1  0  0  0  0
 17 29  2  0  0  0  0
 18 20  1  0  0  0  0
 18 27  1  0  0  0  0
 19 21  1  0  0  0  0
 19 27  1  0  0  0  0
 20 30  1  0  0  0  0
 21 30  1  0  0  0  0
 22 23  1  0  0  0  0
 24 25  1  0  0  0  0
  1 32  1  0  0  0  0
  2 33  1  0  0  0  0
  3 34  1  0  0  0  0
  4 35  1  0  0  0  0
  5 36  1  0  0  0  0
  6 37  1  0  0  0  0
  7 38  1  0  0  0  0
 13 39  1  0  0  0  0
 14 40  1  0  0  0  0
 15 41  1  0  0  0  0
 16 42  1  0  0  0  0
 18 43  1  0  0  0  0
 18 44  1  0  0  0  0
 19 45  1  0  0  0  0
 19 46  1  0  0  0  0
 20 47  1  0  0  0  0
 20 48  1  0  0  0  0
 21 49  1  0  0  0  0
 21 50  1  0  0  0  0
 22 51  1  0  0  0  0
 22 52  1  0  0  0  0
 23 53  1  0  0  0  0
 28 54  1  0  0  0  0
M  END
> <clash_score>
0

> <docking_score>
-7.194764137268066

> <overlap_score>
0.9211782217025757

$$$$
BENZO_332_1
  -OEChem-08232013553D

 54 58  0     1  0  0  0  0  0999 V2000
    9.5890   -2.4950   23.2210 C   0  0  0  0  0  0  0  0  0  0  0  0
    8.2550   -1.0010   24.5520 C   0  0  0  0  0  0  0  0  0  0  0  0
    9.1890   -3.5540   24.0140 C   0  0  0  0  0  0  0  0  0  0  0  0
    7.8700   -2.0610   25.3550 C   0  0  0  0  0  0  0  0  0  0  0  0
   11.1861    0.0281   25.4458 C   0  0  0  0  0  0  0  0  0  0  0  0
   12.1963    0.2939   26.3439 C   0  0  0  0  0  0  0  0  0  0  0  0
   11.4863    2.3111   25.1287 C   0  0  0  0  0  0  0  0  0  0  0  0
    9.1280   -1.2090   23.4870 C   0  0  0  0  0  0  0  0  0  0  0  0
   10.7749    1.1966   24.7417 C   0  0  0  0  0  0  0  0  0  0  0  0
    8.3450   -3.3440   25.0980 C   0  0  0  0  0  0  0  0  0  0  0  0
    5.7970    0.9500   18.6730 C   0  0  0  0  0  0  0  0  0  0  0  0
    7.2710   -0.1460   19.8310 C   0  0  0  0  0  0  0  0  0  0  0  0
    4.6610    1.7170   18.4380 C   0  0  0  0  0  0  0  0  0  0  0  0
    3.8860    2.1050   19.5250 C   0  0  0  0  0  0  0  0  0  0  0  0
    4.2460    1.7520   20.8250 C   0  0  0  0  0  0  0  0  0  0  0  0
    5.3890    1.0010   21.0690 C   0  0  0  0  0  0  0  0  0  0  0  0
    9.0430    0.2380   21.4940 C   0  0  0  0  0  0  0  0  0  0  0  0
    6.7636   -5.1648   25.5740 C   0  0  0  0  0  0  0  0  0  0  0  0
    8.3038   -4.3778   27.3502 C   0  0  0  0  0  0  0  0  0  0  0  0
    6.8057   -6.5368   26.2370 C   0  0  0  0  0  0  0  0  0  0  0  0
    8.2632   -5.7919   27.9188 C   0  0  0  0  0  0  0  0  0  0  0  0
    9.6852    1.2097   23.6944 C   0  0  0  0  0  0  0  0  0  0  0  0
    9.5820   -0.1080   22.7000 C   0  0  1  0  0  0  0  0  0  0  0  0
    6.7100    0.3850   17.8100 N   0  0  0  0  0  0  0  0  0  0  0  0
    7.5840   -0.2700   18.5160 N   0  0  0  0  0  0  0  0  0  0  0  0
    6.1460    0.6070   19.9750 N   0  0  0  0  0  0  0  0  0  0  0  0
    7.9748   -4.4087   25.9209 N   0  0  0  0  0  0  0  0  0  0  0  0
    8.0950   -0.7700   20.8440 N   0  0  0  0  0  0  0  0  0  0  0  0
    9.2950    1.3000   20.9480 O   0  0  0  0  0  0  0  0  0  0  0  0
    7.0041   -6.4052   27.6445 O   0  0  0  0  0  0  0  0  0  0  0  0
   12.6447    1.9465   26.3359 S   0  0  0  0  0  0  0  0  0  0  0  0
   10.2684   -2.6719   22.3867 H   0  0  0  0  0  0  0  0  0  0  0  0
    7.8717   -0.0016   24.7596 H   0  0  0  0  0  0  0  0  0  0  0  0
    9.5443   -4.5616   23.7817 H   0  0  0  0  0  0  0  0  0  0  0  0
    7.1922   -1.8821   26.1908 H   0  0  0  0  0  0  0  0  0  0  0  0
   10.7648   -0.9591   25.3042 H   0  0  0  0  0  0  0  0  0  0  0  0
   12.6919   -0.4031   27.0048 H   0  0  0  0  0  0  0  0  0  0  0  0
   11.3836    3.3236   24.7637 H   0  0  0  0  0  0  0  0  0  0  0  0
    4.3710    2.0145   17.4451 H   0  0  0  0  0  0  0  0  0  0  0  0
    2.9929    2.6891   19.3400 H   0  0  0  0  0  0  0  0  0  0  0  0
    3.6320    2.0596   21.6814 H   0  0  0  0  0  0  0  0  0  0  0  0
    5.6863    0.7288   22.0575 H   0  0  0  0  0  0  0  0  0  0  0  0
    6.6795   -5.2859   24.4876 H   0  0  0  0  0  0  0  0  0  0  0  0
    5.8835   -4.6130   25.9282 H   0  0  0  0  0  0  0  0  0  0  0  0
    7.5706   -3.7507   27.8738 H   0  0  0  0  0  0  0  0  0  0  0  0
    9.2992   -3.9474   27.5112 H   0  0  0  0  0  0  0  0  0  0  0  0
    5.8522   -7.0520   26.0823 H   0  0  0  0  0  0  0  0  0  0  0  0
    7.5937   -7.1675   25.8080 H   0  0  0  0  0  0  0  0  0  0  0  0
    9.0741   -6.4110   27.5161 H   0  0  0  0  0  0  0  0  0  0  0  0
    8.3861   -5.7563   29.0060 H   0  0  0  0  0  0  0  0  0  0  0  0
    8.7197    1.4079   24.1780 H   0  0  0  0  0  0  0  0  0  0  0  0
    9.8623    2.0699   23.0340 H   0  0  0  0  0  0  0  0  0  0  0  0
   10.7567   -0.2690   22.5478 H   0  0  0  0  0  0  0  0  0  0  0  0
    8.0917   -1.6083   21.0911 H   0  0  0  0  0  0  0  0  0  0  0  0
  1  3  2  0  0  0  0
  1  8  1  0  0  0  0
  2  4  1  0  0  0  0
  2  8  2  0  0  0  0
  3 10  1  0  0  0  0
  4 10  2  0  0  0  0
  5  6  2  0  0  0  0
  5  9  1  0  0  0  0
  6 31  1  0  0  0  0
  7  9  2  0  0  0  0
  7 31  1  0  0  0  0
  8 23  1  0  0  0  0
  9 22  1  0  0  0  0
 10 27  1  0  0  0  0
 11 13  1  0  0  0  0
 11 24  2  0  0  0  0
 11 26  1  0  0  0  0
 12 25  2  0  0  0  0
 12 26  1  0  0  0  0
 12 28  1  0  0  0  0
 13 14  2  0  0  0  0
 14 15  1  0  0  0  0
 15 16  2  0  0  0  0
 16 26  1  0  0  0  0
 17 23  1  1  0  0  0
 17 28  1  0  0  0  0
 17 29  2  0  0  0  0
 18 20  1  0  0  0  0
 18 27  1  0  0  0  0
 19 21  1  0  0  0  0
 19 27  1  0  0  0  0
 20 30  1  0  0  0  0
 21 30  1  0  0  0  0
 22 23  1  0  0  0  0
 24 25  1  0  0  0  0
  1 32  1  0  0  0  0
  2 33  1  0  0  0  0
  3 34  1  0  0  0  0
  4 35  1  0  0  0  0
  5 36  1  0  0  0  0
  6 37  1  0  0  0  0
  7 38  1  0  0  0  0
 13 39  1  0  0  0  0
 14 40  1  0  0  0  0
 15 41  1  0  0  0  0
 16 42  1  0  0  0  0
 18 43  1  0  0  0  0
 18 44  1  0  0  0  0
 19 45  1  0  0  0  0
 19 46  1  0  0  0  0
 20 47  1  0  0  0  0
 20 48  1  0  0  0  0
 21 49  1  0  0  0  0
 21 50  1  0  0  0  0
 22 51  1  0  0  0  0
 22 52  1  0  0  0  0
 23 53  1  0  0  0  0
 28 54  1  0  0  0  0
M  END
> <clash_score>
2.24898384983848

> <docking_score>
-4.992292404174805

> <overlap_score>
0.8369736075401306

$$$$
BENZO_337_1
  -OEChem-08232013553D

 52 55  0     0  0  0  0  0  0999 V2000
   14.5403   -1.0157   22.8733 C   0  0  0  0  0  0  0  0  0  0  0  0
   14.2560   -0.2389   23.9965 C   0  0  0  0  0  0  0  0  0  0  0  0
   13.5596   -1.2250   21.9037 C   0  0  0  0  0  0  0  0  0  0  0  0
    3.8860    2.1050   19.5250 C   0  0  0  0  0  0  0  0  0  0  0  0
    4.2460    1.7520   20.8250 C   0  0  0  0  0  0  0  0  0  0  0  0
   12.9911    0.3284   24.1501 C   0  0  0  0  0  0  0  0  0  0  0  0
   12.2946   -0.6577   22.0573 C   0  0  0  0  0  0  0  0  0  0  0  0
    4.6610    1.7170   18.4380 C   0  0  0  0  0  0  0  0  0  0  0  0
    5.3890    1.0010   21.0690 C   0  0  0  0  0  0  0  0  0  0  0  0
    9.5890   -2.4950   23.2210 C   0  0  0  0  0  0  0  0  0  0  0  0
    8.2550   -1.0010   24.5520 C   0  0  0  0  0  0  0  0  0  0  0  0
    9.1890   -3.5540   24.0140 C   0  0  0  0  0  0  0  0  0  0  0  0
    7.8700   -2.0610   25.3550 C   0  0  0  0  0  0  0  0  0  0  0  0
   12.0103    0.1191   23.1805 C   0  0  0  0  0  0  0  0  0  0  0  0
    5.7970    0.9500   18.6730 C   0  0  0  0  0  0  0  0  0  0  0  0
    6.1460    0.6070   19.9750 C   0  0  0  0  0  0  0  0  0  0  0  0
    9.1280   -1.2090   23.4870 C   0  0  0  0  0  0  0  0  0  0  0  0
    8.3450   -3.3440   25.0980 C   0  0  0  0  0  0  0  0  0  0  0  0
    9.0430    0.2380   21.4940 C   0  0  0  0  0  0  0  0  0  0  0  0
    7.2639   -5.5574   25.3806 C   0  0  0  0  0  0  0  0  0  0  0  0
    8.3061   -4.4046   27.3385 C   0  0  0  0  0  0  0  0  0  0  0  0
   10.6485    0.7293   23.3453 C   0  0  0  0  0  0  0  0  0  0  0  0
    8.0950   -0.7700   20.8440 C   0  0  0  0  0  0  0  0  0  0  0  0
    6.7100    0.3850   17.8100 N   0  0  0  0  0  0  0  0  0  0  0  0
    7.5840   -0.2700   18.5160 N   0  0  0  0  0  0  0  0  0  0  0  0
    7.2710   -0.1460   19.8310 N   0  0  0  0  0  0  0  0  0  0  0  0
    9.5820   -0.1080   22.7000 N   0  0  0  0  0  0  0  0  0  0  0  0
    7.9731   -4.4180   25.9279 N   0  0  0  0  0  0  0  0  0  0  0  0
    9.2950    1.3000   20.9480 O   0  0  0  0  0  0  0  0  0  0  0  0
   15.5257   -1.4563   22.7532 H   0  0  0  0  0  0  0  0  0  0  0  0
   15.0198   -0.0749   24.7510 H   0  0  0  0  0  0  0  0  0  0  0  0
   13.7809   -1.8288   21.0286 H   0  0  0  0  0  0  0  0  0  0  0  0
    2.9847    2.6930   19.3611 H   0  0  0  0  0  0  0  0  0  0  0  0
    3.6232    2.0694   21.6565 H   0  0  0  0  0  0  0  0  0  0  0  0
   12.7785    0.9321   25.0285 H   0  0  0  0  0  0  0  0  0  0  0  0
   11.5367   -0.8263   21.2968 H   0  0  0  0  0  0  0  0  0  0  0  0
    4.3785    2.0112   17.4257 H   0  0  0  0  0  0  0  0  0  0  0  0
    5.6780    0.7321   22.0906 H   0  0  0  0  0  0  0  0  0  0  0  0
   10.2682   -2.6746   22.3864 H   0  0  0  0  0  0  0  0  0  0  0  0
    7.8692   -0.0022   24.7600 H   0  0  0  0  0  0  0  0  0  0  0  0
    9.5433   -4.5619   23.7809 H   0  0  0  0  0  0  0  0  0  0  0  0
    7.1923   -1.8829   26.1908 H   0  0  0  0  0  0  0  0  0  0  0  0
    7.0640   -6.2847   26.1813 H   0  0  0  0  0  0  0  0  0  0  0  0
    6.3116   -5.2214   24.9445 H   0  0  0  0  0  0  0  0  0  0  0  0
    7.8778   -6.0309   24.6003 H   0  0  0  0  0  0  0  0  0  0  0  0
    7.9324   -5.3241   27.8128 H   0  0  0  0  0  0  0  0  0  0  0  0
    9.3984   -4.3491   27.4567 H   0  0  0  0  0  0  0  0  0  0  0  0
    7.8406   -3.5302   27.8168 H   0  0  0  0  0  0  0  0  0  0  0  0
   10.3982    0.8340   24.4066 H   0  0  0  0  0  0  0  0  0  0  0  0
   10.6098    1.7298   22.9018 H   0  0  0  0  0  0  0  0  0  0  0  0
    8.6619   -1.5627   20.3589 H   0  0  0  0  0  0  0  0  0  0  0  0
    7.4230   -1.1880   21.5916 H   0  0  0  0  0  0  0  0  0  0  0  0
  1  2  1  0  0  0  0
  1  3  2  0  0  0  0
  2  6  2  0  0  0  0
  3  7  1  0  0  0  0
  4  5  1  0  0  0  0
  4  8  2  0  0  0  0
  5  9  2  0  0  0  0
  6 14  1  0  0  0  0
  7 14  2  0  0  0  0
  8 15  1  0  0  0  0
  9 16  1  0  0  0  0
 10 12  2  0  0  0  0
 10 17  1  0  0  0  0
 11 13  1  0  0  0  0
 11 17  2  0  0  0  0
 12 18  1  0  0  0  0
 13 18  2  0  0  0  0
 14 22  1  0  0  0  0
 15 16  2  0  0  0  0
 15 24  1  0  0  0  0
 16 26  1  0  0  0  0
 17 27  1  0  0  0  0
 18 28  1  0  0  0  0
 19 23  1  0  0  0  0
 19 27  1  0  0  0  0
 19 29  2  0  0  0  0
 20 28  1  0  0  0  0
 21 28  1  0  0  0  0
 22 27  1  0  0  0  0
 23 26  1  0  0  0  0
 24 25  2  0  0  0  0
 25 26  1  0  0  0  0
  1 30  1  0  0  0  0
  2 31  1  0  0  0  0
  3 32  1  0  0  0  0
  4 33  1  0  0  0  0
  5 34  1  0  0  0  0
  6 35  1  0  0  0  0
  7 36  1  0  0  0  0
  8 37  1  0  0  0  0
  9 38  1  0  0  0  0
 10 39  1  0  0  0  0
 11 40  1  0  0  0  0
 12 41  1  0  0  0  0
 13 42  1  0  0  0  0
 20 43  1  0  0  0  0
 20 44  1  0  0  0  0
 20 45  1  0  0  0  0
 21 46  1  0  0  0  0
 21 47  1  0  0  0  0
 21 48  1  0  0  0  0
 22 49  1  0  0  0  0
 22 50  1  0  0  0  0
 23 51  1  0  0  0  0
 23 52  1  0  0  0  0
M  END
> <clash_score>
0

> <docking_score>
-9.120462417602539

> <overlap_score>
0.9352080821990967

$$$$
BENZO_336_1
  -OEChem-08232013553D

 49 52  0     0  0  0  0  0  0999 V2000
    3.8860    2.1050   19.5250 C   0  0  0  0  0  0  0  0  0  0  0  0
    4.2460    1.7520   20.8250 C   0  0  0  0  0  0  0  0  0  0  0  0
    4.6610    1.7170   18.4380 C   0  0  0  0  0  0  0  0  0  0  0  0
    5.3890    1.0010   21.0690 C   0  0  0  0  0  0  0  0  0  0  0  0
    9.5890   -2.4950   23.2210 C   0  0  0  0  0  0  0  0  0  0  0  0
    8.2550   -1.0010   24.5520 C   0  0  0  0  0  0  0  0  0  0  0  0
    9.1890   -3.5540   24.0140 C   0  0  0  0  0  0  0  0  0  0  0  0
    7.8700   -2.0610   25.3550 C   0  0  0  0  0  0  0  0  0  0  0  0
   12.6538   -0.7170   22.5987 C   0  0  0  0  0  0  0  0  0  0  0  0
   13.7476   -1.3763   23.1149 C   0  0  0  0  0  0  0  0  0  0  0  0
   12.4356   -0.2522   24.8656 C   0  0  0  0  0  0  0  0  0  0  0  0
   11.8938   -0.0656   23.6128 C   0  0  0  0  0  0  0  0  0  0  0  0
    5.7970    0.9500   18.6730 C   0  0  0  0  0  0  0  0  0  0  0  0
    6.1460    0.6070   19.9750 C   0  0  0  0  0  0  0  0  0  0  0  0
    9.1280   -1.2090   23.4870 C   0  0  0  0  0  0  0  0  0  0  0  0
    8.3450   -3.3440   25.0980 C   0  0  0  0  0  0  0  0  0  0  0  0
    9.0430    0.2380   21.4940 C   0  0  0  0  0  0  0  0  0  0  0  0
    7.2639   -5.5574   25.3806 C   0  0  0  0  0  0  0  0  0  0  0  0
    8.3061   -4.4046   27.3385 C   0  0  0  0  0  0  0  0  0  0  0  0
   10.6485    0.7293   23.3453 C   0  0  0  0  0  0  0  0  0  0  0  0
    8.0950   -0.7700   20.8440 C   0  0  0  0  0  0  0  0  0  0  0  0
    6.7100    0.3850   17.8100 N   0  0  0  0  0  0  0  0  0  0  0  0
    7.5840   -0.2700   18.5160 N   0  0  0  0  0  0  0  0  0  0  0  0
    7.2710   -0.1460   19.8310 N   0  0  0  0  0  0  0  0  0  0  0  0
    9.5820   -0.1080   22.7000 N   0  0  0  0  0  0  0  0  0  0  0  0
    7.9731   -4.4180   25.9279 N   0  0  0  0  0  0  0  0  0  0  0  0
    9.2950    1.3000   20.9480 O   0  0  0  0  0  0  0  0  0  0  0  0
   13.8549   -1.2089   24.8157 S   0  0  0  0  0  0  0  0  0  0  0  0
    2.9847    2.6930   19.3611 H   0  0  0  0  0  0  0  0  0  0  0  0
    3.6232    2.0694   21.6565 H   0  0  0  0  0  0  0  0  0  0  0  0
    4.3785    2.0112   17.4257 H   0  0  0  0  0  0  0  0  0  0  0  0
    5.6780    0.7321   22.0906 H   0  0  0  0  0  0  0  0  0  0  0  0
   10.2682   -2.6746   22.3864 H   0  0  0  0  0  0  0  0  0  0  0  0
    7.8692   -0.0022   24.7600 H   0  0  0  0  0  0  0  0  0  0  0  0
    9.5433   -4.5619   23.7809 H   0  0  0  0  0  0  0  0  0  0  0  0
    7.1923   -1.8829   26.1908 H   0  0  0  0  0  0  0  0  0  0  0  0
   12.4137   -0.7054   21.5430 H   0  0  0  0  0  0  0  0  0  0  0  0
   14.4883   -1.9488   22.5748 H   0  0  0  0  0  0  0  0  0  0  0  0
   12.0686    0.1247   25.8102 H   0  0  0  0  0  0  0  0  0  0  0  0
    7.0640   -6.2847   26.1813 H   0  0  0  0  0  0  0  0  0  0  0  0
    6.3116   -5.2214   24.9445 H   0  0  0  0  0  0  0  0  0  0  0  0
    7.8778   -6.0309   24.6003 H   0  0  0  0  0  0  0  0  0  0  0  0
    7.9324   -5.3241   27.8128 H   0  0  0  0  0  0  0  0  0  0  0  0
    9.3984   -4.3491   27.4567 H   0  0  0  0  0  0  0  0  0  0  0  0
    7.8406   -3.5302   27.8168 H   0  0  0  0  0  0  0  0  0  0  0  0
   10.2407    1.1336   24.2782 H   0  0  0  0  0  0  0  0  0  0  0  0
   10.8584    1.5788   22.6869 H   0  0  0  0  0  0  0  0  0  0  0  0
    8.6619   -1.5627   20.3589 H   0  0  0  0  0  0  0  0  0  0  0  0
    7.4230   -1.1880   21.5916 H   0  0  0  0  0  0  0  0  0  0  0  0
  1  2  1  0  0  0  0
  1  3  2  0  0  0  0
  2  4  2  0  0  0  0
  3 13  1  0  0  0  0
  4 14  1  0  0  0  0
  5  7  2  0  0  0  0
  5 15  1  0  0  0  0
  6  8  1  0  0  0  0
  6 15  2  0  0  0  0
  7 16  1  0  0  0  0
  8 16  2  0  0  0  0
  9 10  2  0  0  0  0
  9 12  1  0  0  0  0
 10 28  1  0  0  0  0
 11 12  2  0  0  0  0
 11 28  1  0  0  0  0
 12 20  1  0  0  0  0
 13 14  2  0  0  0  0
 13 22  1  0  0  0  0
 14 24  1  0  0  0  0
 15 25  1  0  0  0  0
 16 26  1  0  0  0  0
 17 21  1  0  0  0  0
 17 25  1  0  0  0  0
 17 27  2  0  0  0  0
 18 26  1  0  0  0  0
 19 26  1  0  0  0  0
 20 25  1  0  0  0  0
 21 24  1  0  0  0  0
 22 23  2  0  0  0  0
 23 24  1  0  0  0  0
  1 29  1  0  0  0  0
  2 30  1  0  0  0  0
  3 31  1  0  0  0  0
  4 32  1  0  0  0  0
  5 33  1  0  0  0  0
  6 34  1  0  0  0  0
  7 35  1  0  0  0  0
  8 36  1  0  0  0  0
  9 37  1  0  0  0  0
 10 38  1  0  0  0  0
 11 39  1  0  0  0  0
 18 40  1  0  0  0  0
 18 41  1  0  0  0  0
 18 42  1  0  0  0  0
 19 43  1  0  0  0  0
 19 44  1  0  0  0  0
 19 45  1  0  0  0  0
 20 46  1  0  0  0  0
 20 47  1  0  0  0  0
 21 48  1  0  0  0  0
 21 49  1  0  0  0  0
M  END
> <clash_score>
0

> <docking_score>
-8.956940650939941

> <overlap_score>
0.9236200451850891

$$$$
BENZO_339_1
  -OEChem-08232013553D

 52 55  0     0  0  0  0  0  0999 V2000
    3.8860    2.1050   19.5250 C   0  0  0  0  0  0  0  0  0  0  0  0
    4.2460    1.7520   20.8250 C   0  0  0  0  0  0  0  0  0  0  0  0
    4.6610    1.7170   18.4380 C   0  0  0  0  0  0  0  0  0  0  0  0
    5.3890    1.0010   21.0690 C   0  0  0  0  0  0  0  0  0  0  0  0
    9.5890   -2.4950   23.2210 C   0  0  0  0  0  0  0  0  0  0  0  0
    8.2550   -1.0010   24.5520 C   0  0  0  0  0  0  0  0  0  0  0  0
    9.1890   -3.5540   24.0140 C   0  0  0  0  0  0  0  0  0  0  0  0
    7.8700   -2.0610   25.3550 C   0  0  0  0  0  0  0  0  0  0  0  0
   13.1924    0.4451   23.8720 C   0  0  0  0  0  0  0  0  0  0  0  0
   12.3814   -0.8861   22.3211 C   0  0  0  0  0  0  0  0  0  0  0  0
   12.0103    0.1191   23.1805 C   0  0  0  0  0  0  0  0  0  0  0  0
    5.7970    0.9500   18.6730 C   0  0  0  0  0  0  0  0  0  0  0  0
    6.1460    0.6070   19.9750 C   0  0  0  0  0  0  0  0  0  0  0  0
    9.1280   -1.2090   23.4870 C   0  0  0  0  0  0  0  0  0  0  0  0
    8.3450   -3.3440   25.0980 C   0  0  0  0  0  0  0  0  0  0  0  0
    9.0430    0.2380   21.4940 C   0  0  0  0  0  0  0  0  0  0  0  0
   14.5505   -2.0571   21.8714 C   0  0  0  0  0  0  0  0  0  0  0  0
    7.2639   -5.5574   25.3806 C   0  0  0  0  0  0  0  0  0  0  0  0
    8.3061   -4.4046   27.3385 C   0  0  0  0  0  0  0  0  0  0  0  0
   10.6485    0.7293   23.3453 C   0  0  0  0  0  0  0  0  0  0  0  0
    8.0950   -0.7700   20.8440 C   0  0  0  0  0  0  0  0  0  0  0  0
   14.2362   -0.2932   23.4855 N   0  0  0  0  0  0  0  0  0  0  0  0
    6.7100    0.3850   17.8100 N   0  0  0  0  0  0  0  0  0  0  0  0
    7.5840   -0.2700   18.5160 N   0  0  0  0  0  0  0  0  0  0  0  0
   13.7112   -1.0932   22.5419 N   0  0  0  0  0  0  0  0  0  0  0  0
    7.2710   -0.1460   19.8310 N   0  0  0  0  0  0  0  0  0  0  0  0
    9.5820   -0.1080   22.7000 N   0  0  0  0  0  0  0  0  0  0  0  0
    7.9731   -4.4180   25.9279 N   0  0  0  0  0  0  0  0  0  0  0  0
    9.2950    1.3000   20.9480 O   0  0  0  0  0  0  0  0  0  0  0  0
    2.9847    2.6930   19.3611 H   0  0  0  0  0  0  0  0  0  0  0  0
    3.6232    2.0694   21.6565 H   0  0  0  0  0  0  0  0  0  0  0  0
    4.3785    2.0112   17.4257 H   0  0  0  0  0  0  0  0  0  0  0  0
    5.6780    0.7321   22.0906 H   0  0  0  0  0  0  0  0  0  0  0  0
   10.2682   -2.6746   22.3864 H   0  0  0  0  0  0  0  0  0  0  0  0
    7.8692   -0.0022   24.7600 H   0  0  0  0  0  0  0  0  0  0  0  0
    9.5433   -4.5619   23.7809 H   0  0  0  0  0  0  0  0  0  0  0  0
    7.1923   -1.8829   26.1908 H   0  0  0  0  0  0  0  0  0  0  0  0
   13.3390    1.1888   24.6425 H   0  0  0  0  0  0  0  0  0  0  0  0
   11.8259   -1.4583   21.5905 H   0  0  0  0  0  0  0  0  0  0  0  0
   14.9774   -1.5757   20.9876 H   0  0  0  0  0  0  0  0  0  0  0  0
   15.3438   -2.3835   22.5497 H   0  0  0  0  0  0  0  0  0  0  0  0
   13.9474   -2.9226   21.5829 H   0  0  0  0  0  0  0  0  0  0  0  0
    7.0640   -6.2847   26.1813 H   0  0  0  0  0  0  0  0  0  0  0  0
    6.3116   -5.2214   24.9445 H   0  0  0  0  0  0  0  0  0  0  0  0
    7.8778   -6.0309   24.6003 H   0  0  0  0  0  0  0  0  0  0  0  0
    7.9324   -5.3241   27.8128 H   0  0  0  0  0  0  0  0  0  0  0  0
    9.3984   -4.3491   27.4567 H   0  0  0  0  0  0  0  0  0  0  0  0
    7.8406   -3.5302   27.8168 H   0  0  0  0  0  0  0  0  0  0  0  0
   10.3982    0.8340   24.4066 H   0  0  0  0  0  0  0  0  0  0  0  0
   10.6098    1.7298   22.9018 H   0  0  0  0  0  0  0  0  0  0  0  0
    8.6619   -1.5627   20.3589 H   0  0  0  0  0  0  0  0  0  0  0  0
    7.4230   -1.1880   21.5916 H   0  0  0  0  0  0  0  0  0  0  0  0
  1  2  1  0  0  0  0
  1  3  2  0  0  0  0
  2  4  2  0  0  0  0
  3 12  1  0  0  0  0
  4 13  1  0  0  0  0
  5  7  2  0  0  0  0
  5 14  1  0  0  0  0
  6  8  1  0  0  0  0
  6 14  2  0  0  0  0
  7 15  1  0  0  0  0
  8 15  2  0  0  0  0
  9 11  1  0  0  0  0
  9 22  2  0  0  0  0
 10 11  2  0  0  0  0
 10 25  1  0  0  0  0
 11 20  1  0  0  0  0
 12 13  2  0  0  0  0
 12 23  1  0  0  0  0
 13 26  1  0  0  0  0
 14 27  1  0  0  0  0
 15 28  1  0  0  0  0
 16 21  1  0  0  0  0
 16 27  1  0  0  0  0
 16 29  2  0  0  0  0
 17 25  1  0  0  0  0
 18 28  1  0  0  0  0
 19 28  1  0  0  0  0
 20 27  1  0  0  0  0
 21 26  1  0  0  0  0
 22 25  1  0  0  0  0
 23 24  2  0  0  0  0
 24 26  1  0  0  0  0
  1 30  1  0  0  0  0
  2 31  1  0  0  0  0
  3 32  1  0  0  0  0
  4 33  1  0  0  0  0
  5 34  1  0  0  0  0
  6 35  1  0  0  0  0
  7 36  1  0  0  0  0
  8 37  1  0  0  0  0
  9 38  1  0  0  0  0
 10 39  1  0  0  0  0
 17 40  1  0  0  0  0
 17 41  1  0  0  0  0
 17 42  1  0  0  0  0
 18 43  1  0  0  0  0
 18 44  1  0  0  0  0
 18 45  1  0  0  0  0
 19 46  1  0  0  0  0
 19 47  1  0  0  0  0
 19 48  1  0  0  0  0
 20 49  1  0  0  0  0
 20 50  1  0  0  0  0
 21 51  1  0  0  0  0
 21 52  1  0  0  0  0
M  END
> <clash_score>
0

> <docking_score>
-9.380599021911621

> <overlap_score>
0.9347240328788757

$$$$
BENZO_335_1
  -OEChem-08232013553D

 57 61  0     1  0  0  0  0  0999 V2000
    9.5890   -2.4950   23.2210 C   0  0  0  0  0  0  0  0  0  0  0  0
    8.2550   -1.0010   24.5520 C   0  0  0  0  0  0  0  0  0  0  0  0
    9.1890   -3.5540   24.0140 C   0  0  0  0  0  0  0  0  0  0  0  0
    7.8700   -2.0610   25.3550 C   0  0  0  0  0  0  0  0  0  0  0  0
   13.3220   -0.5321   24.1508 C   0  0  0  0  0  0  0  0  0  0  0  0
   11.3739   -0.5140   25.1703 C   0  0  0  0  0  0  0  0  0  0  0  0
    9.1280   -1.2090   23.4870 C   0  0  0  0  0  0  0  0  0  0  0  0
   11.9382   -0.4119   23.9222 C   0  0  0  0  0  0  0  0  0  0  0  0
    8.3450   -3.3440   25.0980 C   0  0  0  0  0  0  0  0  0  0  0  0
    5.7970    0.9500   18.6730 C   0  0  0  0  0  0  0  0  0  0  0  0
    7.2710   -0.1460   19.8310 C   0  0  0  0  0  0  0  0  0  0  0  0
    4.6610    1.7170   18.4380 C   0  0  0  0  0  0  0  0  0  0  0  0
    3.8860    2.1050   19.5250 C   0  0  0  0  0  0  0  0  0  0  0  0
    4.2460    1.7520   20.8250 C   0  0  0  0  0  0  0  0  0  0  0  0
    5.3890    1.0010   21.0690 C   0  0  0  0  0  0  0  0  0  0  0  0
    9.0430    0.2380   21.4940 C   0  0  0  0  0  0  0  0  0  0  0  0
    8.8181   -4.7107   27.0857 C   0  0  0  0  0  0  0  0  0  0  0  0
    7.2576   -5.5563   25.3547 C   0  0  0  0  0  0  0  0  0  0  0  0
    8.0193   -5.5151   28.1049 C   0  0  0  0  0  0  0  0  0  0  0  0
    6.5423   -6.3161   26.4664 C   0  0  0  0  0  0  0  0  0  0  0  0
   12.3185   -0.8368   27.4686 C   0  0  0  0  0  0  0  0  0  0  0  0
   11.2301   -0.2124   22.6019 C   0  0  0  0  0  0  0  0  0  0  0  0
    9.5820   -0.1080   22.7000 C   0  0  1  0  0  0  0  0  0  0  0  0
   13.6189   -0.6977   25.4425 N   0  0  0  0  0  0  0  0  0  0  0  0
    6.7100    0.3850   17.8100 N   0  0  0  0  0  0  0  0  0  0  0  0
    7.5840   -0.2700   18.5160 N   0  0  0  0  0  0  0  0  0  0  0  0
   12.4136   -0.6822   26.0368 N   0  0  0  0  0  0  0  0  0  0  0  0
    6.1460    0.6070   19.9750 N   0  0  0  0  0  0  0  0  0  0  0  0
    7.9748   -4.4087   25.9209 N   0  0  0  0  0  0  0  0  0  0  0  0
    8.0950   -0.7700   20.8440 N   0  0  0  0  0  0  0  0  0  0  0  0
    9.2950    1.3000   20.9480 O   0  0  0  0  0  0  0  0  0  0  0  0
    7.4618   -6.6794   27.4955 O   0  0  0  0  0  0  0  0  0  0  0  0
   10.2684   -2.6719   22.3867 H   0  0  0  0  0  0  0  0  0  0  0  0
    7.8717   -0.0016   24.7596 H   0  0  0  0  0  0  0  0  0  0  0  0
    9.5443   -4.5616   23.7817 H   0  0  0  0  0  0  0  0  0  0  0  0
    7.1922   -1.8821   26.1908 H   0  0  0  0  0  0  0  0  0  0  0  0
   14.1286   -0.5054   23.4317 H   0  0  0  0  0  0  0  0  0  0  0  0
   10.3467   -0.4808   25.5074 H   0  0  0  0  0  0  0  0  0  0  0  0
    4.3710    2.0145   17.4451 H   0  0  0  0  0  0  0  0  0  0  0  0
    2.9929    2.6891   19.3400 H   0  0  0  0  0  0  0  0  0  0  0  0
    3.6320    2.0596   21.6814 H   0  0  0  0  0  0  0  0  0  0  0  0
    5.6863    0.7288   22.0575 H   0  0  0  0  0  0  0  0  0  0  0  0
    9.1812   -3.7873   27.5519 H   0  0  0  0  0  0  0  0  0  0  0  0
    9.6869   -5.2951   26.7566 H   0  0  0  0  0  0  0  0  0  0  0  0
    7.9776   -6.2212   24.8604 H   0  0  0  0  0  0  0  0  0  0  0  0
    6.5260   -5.2277   24.6071 H   0  0  0  0  0  0  0  0  0  0  0  0
    8.6785   -5.8462   28.9137 H   0  0  0  0  0  0  0  0  0  0  0  0
    7.2212   -4.9136   28.5564 H   0  0  0  0  0  0  0  0  0  0  0  0
    5.7209   -5.7272   26.8924 H   0  0  0  0  0  0  0  0  0  0  0  0
    6.1110   -7.2387   26.0647 H   0  0  0  0  0  0  0  0  0  0  0  0
   12.2261   -1.9039   27.6872 H   0  0  0  0  0  0  0  0  0  0  0  0
   13.2160   -0.4264   27.9396 H   0  0  0  0  0  0  0  0  0  0  0  0
   11.4423   -0.2935   27.8333 H   0  0  0  0  0  0  0  0  0  0  0  0
   11.5792    0.7206   22.1405 H   0  0  0  0  0  0  0  0  0  0  0  0
   11.5533   -1.0125   21.9215 H   0  0  0  0  0  0  0  0  0  0  0  0
    9.5402    0.8508   23.4127 H   0  0  0  0  0  0  0  0  0  0  0  0
    8.0917   -1.6083   21.0911 H   0  0  0  0  0  0  0  0  0  0  0  0
  1  3  2  0  0  0  0
  1  7  1  0  0  0  0
  2  4  1  0  0  0  0
  2  7  2  0  0  0  0
  3  9  1  0  0  0  0
  4  9  2  0  0  0  0
  5  8  1  0  0  0  0
  5 24  2  0  0  0  0
  6  8  2  0  0  0  0
  6 27  1  0  0  0  0
  7 23  1  0  0  0  0
  8 22  1  0  0  0  0
  9 29  1  0  0  0  0
 10 12  1  0  0  0  0
 10 25  2  0  0  0  0
 10 28  1  0  0  0  0
 11 26  2  0  0  0  0
 11 28  1  0  0  0  0
 11 30  1  0  0  0  0
 12 13  2  0  0  0  0
 13 14  1  0  0  0  0
 14 15  2  0  0  0  0
 15 28  1  0  0  0  0
 16 23  1  0  0  0  0
 16 30  1  0  0  0  0
 16 31  2  0  0  0  0
 17 19  1  0  0  0  0
 17 29  1  0  0  0  0
 18 20  1  0  0  0  0
 18 29  1  0  0  0  0
 19 32  1  0  0  0  0
 20 32  1  0  0  0  0
 21 27  1  0  0  0  0
 22 23  1  1  0  0  0
 24 27  1  0  0  0  0
 25 26  1  0  0  0  0
  1 33  1  0  0  0  0
  2 34  1  0  0  0  0
  3 35  1  0  0  0  0
  4 36  1  0  0  0  0
  5 37  1  0  0  0  0
  6 38  1  0  0  0  0
 12 39  1  0  0  0  0
 13 40  1  0  0  0  0
 14 41  1  0  0  0  0
 15 42  1  0  0  0  0
 17 43  1  0  0  0  0
 17 44  1  0  0  0  0
 18 45  1  0  0  0  0
 18 46  1  0  0  0  0
 19 47  1  0  0  0  0
 19 48  1  0  0  0  0
 20 49  1  0  0  0  0
 20 50  1  0  0  0  0
 21 51  1  0  0  0  0
 21 52  1  0  0  0  0
 21 53  1  0  0  0  0
 22 54  1  0  0  0  0
 22 55  1  0  0  0  0
 23 56  1  0  0  0  0
 30 57  1  0  0  0  0
M  END
> <clash_score>
0.6568127051227806

> <docking_score>
-7.061299800872803

> <overlap_score>
0.919378399848938

$$$$
BENZO_338_1
  -OEChem-08232013553D

 52 55  0     0  0  0  0  0  0999 V2000
    3.8860    2.1050   19.5250 C   0  0  0  0  0  0  0  0  0  0  0  0
    4.2460    1.7520   20.8250 C   0  0  0  0  0  0  0  0  0  0  0  0
   13.5248   -0.9382   25.1669 C   0  0  0  0  0  0  0  0  0  0  0  0
   12.3686   -0.1989   24.9176 C   0  0  0  0  0  0  0  0  0  0  0  0
    4.6610    1.7170   18.4380 C   0  0  0  0  0  0  0  0  0  0  0  0
    5.3890    1.0010   21.0690 C   0  0  0  0  0  0  0  0  0  0  0  0
    9.5890   -2.4950   23.2210 C   0  0  0  0  0  0  0  0  0  0  0  0
    8.2550   -1.0010   24.5520 C   0  0  0  0  0  0  0  0  0  0  0  0
    9.1890   -3.5540   24.0140 C   0  0  0  0  0  0  0  0  0  0  0  0
    7.8700   -2.0610   25.3550 C   0  0  0  0  0  0  0  0  0  0  0  0
   14.2063   -1.5442   24.1114 C   0  0  0  0  0  0  0  0  0  0  0  0
   12.5752   -0.6716   22.5573 C   0  0  0  0  0  0  0  0  0  0  0  0
   11.8938   -0.0656   23.6128 C   0  0  0  0  0  0  0  0  0  0  0  0
    5.7970    0.9500   18.6730 C   0  0  0  0  0  0  0  0  0  0  0  0
    6.1460    0.6070   19.9750 C   0  0  0  0  0  0  0  0  0  0  0  0
    9.1280   -1.2090   23.4870 C   0  0  0  0  0  0  0  0  0  0  0  0
    8.3450   -3.3440   25.0980 C   0  0  0  0  0  0  0  0  0  0  0  0
   13.7315   -1.4109   22.8066 C   0  0  0  0  0  0  0  0  0  0  0  0
    9.0430    0.2380   21.4940 C   0  0  0  0  0  0  0  0  0  0  0  0
    7.2639   -5.5574   25.3806 C   0  0  0  0  0  0  0  0  0  0  0  0
    8.3061   -4.4046   27.3385 C   0  0  0  0  0  0  0  0  0  0  0  0
   10.6485    0.7293   23.3453 C   0  0  0  0  0  0  0  0  0  0  0  0
    8.0950   -0.7700   20.8440 C   0  0  0  0  0  0  0  0  0  0  0  0
    6.7100    0.3850   17.8100 N   0  0  0  0  0  0  0  0  0  0  0  0
    7.5840   -0.2700   18.5160 N   0  0  0  0  0  0  0  0  0  0  0  0
    7.2710   -0.1460   19.8310 N   0  0  0  0  0  0  0  0  0  0  0  0
    9.5820   -0.1080   22.7000 N   0  0  0  0  0  0  0  0  0  0  0  0
    7.9731   -4.4180   25.9279 N   0  0  0  0  0  0  0  0  0  0  0  0
    9.2950    1.3000   20.9480 O   0  0  0  0  0  0  0  0  0  0  0  0
   14.5721   -2.1598   21.5050 Cl  0  0  0  0  0  0  0  0  0  0  0  0
    2.9847    2.6930   19.3611 H   0  0  0  0  0  0  0  0  0  0  0  0
    3.6232    2.0694   21.6565 H   0  0  0  0  0  0  0  0  0  0  0  0
   13.8941   -1.0418   26.1831 H   0  0  0  0  0  0  0  0  0  0  0  0
   11.8439    0.2698   25.7461 H   0  0  0  0  0  0  0  0  0  0  0  0
    4.3785    2.0112   17.4257 H   0  0  0  0  0  0  0  0  0  0  0  0
    5.6780    0.7321   22.0906 H   0  0  0  0  0  0  0  0  0  0  0  0
   10.2682   -2.6746   22.3864 H   0  0  0  0  0  0  0  0  0  0  0  0
    7.8692   -0.0022   24.7600 H   0  0  0  0  0  0  0  0  0  0  0  0
    9.5433   -4.5619   23.7809 H   0  0  0  0  0  0  0  0  0  0  0  0
    7.1923   -1.8829   26.1908 H   0  0  0  0  0  0  0  0  0  0  0  0
   15.1060   -2.1176   24.3206 H   0  0  0  0  0  0  0  0  0  0  0  0
   12.2013   -0.5643   21.5417 H   0  0  0  0  0  0  0  0  0  0  0  0
    7.0640   -6.2847   26.1813 H   0  0  0  0  0  0  0  0  0  0  0  0
    6.3116   -5.2214   24.9445 H   0  0  0  0  0  0  0  0  0  0  0  0
    7.8778   -6.0309   24.6003 H   0  0  0  0  0  0  0  0  0  0  0  0
    7.9324   -5.3241   27.8128 H   0  0  0  0  0  0  0  0  0  0  0  0
    9.3984   -4.3491   27.4567 H   0  0  0  0  0  0  0  0  0  0  0  0
    7.8406   -3.5302   27.8168 H   0  0  0  0  0  0  0  0  0  0  0  0
   10.2407    1.1336   24.2782 H   0  0  0  0  0  0  0  0  0  0  0  0
   10.8584    1.5788   22.6869 H   0  0  0  0  0  0  0  0  0  0  0  0
    8.6619   -1.5627   20.3589 H   0  0  0  0  0  0  0  0  0  0  0  0
    7.4230   -1.1880   21.5916 H   0  0  0  0  0  0  0  0  0  0  0  0
  1  2  1  0  0  0  0
  1  5  2  0  0  0  0
  2  6  2  0  0  0  0
  3  4  2  0  0  0  0
  3 11  1  0  0  0  0
  4 13  1  0  0  0  0
  5 14  1  0  0  0  0
  6 15  1  0  0  0  0
  7  9  2  0  0  0  0
  7 16  1  0  0  0  0
  8 10  1  0  0  0  0
  8 16  2  0  0  0  0
  9 17  1  0  0  0  0
 10 17  2  0  0  0  0
 11 18  2  0  0  0  0
 12 13  2  0  0  0  0
 12 18  1  0  0  0  0
 13 22  1  0  0  0  0
 14 15  2  0  0  0  0
 14 24  1  0  0  0  0
 15 26  1  0  0  0  0
 16 27  1  0  0  0  0
 17 28  1  0  0  0  0
 18 30  1  0  0  0  0
 19 23  1  0  0  0  0
 19 27  1  0  0  0  0
 19 29  2  0  0  0  0
 20 28  1  0  0  0  0
 21 28  1  0  0  0  0
 22 27  1  0  0  0  0
 23 26  1  0  0  0  0
 24 25  2  0  0  0  0
 25 26  1  0  0  0  0
  1 31  1  0  0  0  0
  2 32  1  0  0  0  0
  3 33  1  0  0  0  0
  4 34  1  0  0  0  0
  5 35  1  0  0  0  0
  6 36  1  0  0  0  0
  7 37  1  0  0  0  0
  8 38  1  0  0  0  0
  9 39  1  0  0  0  0
 10 40  1  0  0  0  0
 11 41  1  0  0  0  0
 12 42  1  0  0  0  0
 20 43  1  0  0  0  0
 20 44  1  0  0  0  0
 20 45  1  0  0  0  0
 21 46  1  0  0  0  0
 21 47  1  0  0  0  0
 21 48  1  0  0  0  0
 22 49  1  0  0  0  0
 22 50  1  0  0  0  0
 23 51  1  0  0  0  0
 23 52  1  0  0  0  0
M  END
> <clash_score>
0

> <docking_score>
-8.353777885437012

> <overlap_score>
0.9459737539291382

$$$$
BENZO_334_1
  -OEChem-08232013553D

 57 61  0     1  0  0  0  0  0999 V2000
   12.6445    0.0926   25.8011 C   0  0  0  0  0  0  0  0  0  0  0  0
   11.6380    0.1048   24.8355 C   0  0  0  0  0  0  0  0  0  0  0  0
    9.5890   -2.4950   23.2210 C   0  0  0  0  0  0  0  0  0  0  0  0
    8.2550   -1.0010   24.5520 C   0  0  0  0  0  0  0  0  0  0  0  0
    9.1890   -3.5540   24.0140 C   0  0  0  0  0  0  0  0  0  0  0  0
    7.8700   -2.0610   25.3550 C   0  0  0  0  0  0  0  0  0  0  0  0
   12.7880    1.1720   26.6728 C   0  0  0  0  0  0  0  0  0  0  0  0
   10.9183    2.2761   25.6134 C   0  0  0  0  0  0  0  0  0  0  0  0
    9.1280   -1.2090   23.4870 C   0  0  0  0  0  0  0  0  0  0  0  0
   10.7749    1.1966   24.7417 C   0  0  0  0  0  0  0  0  0  0  0  0
    8.3450   -3.3440   25.0980 C   0  0  0  0  0  0  0  0  0  0  0  0
   11.9249    2.2638   26.5790 C   0  0  0  0  0  0  0  0  0  0  0  0
    5.7970    0.9500   18.6730 C   0  0  0  0  0  0  0  0  0  0  0  0
    7.2710   -0.1460   19.8310 C   0  0  0  0  0  0  0  0  0  0  0  0
    4.6610    1.7170   18.4380 C   0  0  0  0  0  0  0  0  0  0  0  0
    3.8860    2.1050   19.5250 C   0  0  0  0  0  0  0  0  0  0  0  0
    4.2460    1.7520   20.8250 C   0  0  0  0  0  0  0  0  0  0  0  0
    5.3890    1.0010   21.0690 C   0  0  0  0  0  0  0  0  0  0  0  0
    9.0430    0.2380   21.4940 C   0  0  0  0  0  0  0  0  0  0  0  0
    8.9526   -5.2008   26.6600 C   0  0  0  0  0  0  0  0  0  0  0  0
    6.6115   -4.5057   26.4392 C   0  0  0  0  0  0  0  0  0  0  0  0
    8.9053   -4.7827   28.1257 C   0  0  0  0  0  0  0  0  0  0  0  0
    6.6391   -4.1219   27.9194 C   0  0  0  0  0  0  0  0  0  0  0  0
    9.6852    1.2097   23.6944 C   0  0  0  0  0  0  0  0  0  0  0  0
    9.5820   -0.1080   22.7000 C   0  0  1  0  0  0  0  0  0  0  0  0
    6.7100    0.3850   17.8100 N   0  0  0  0  0  0  0  0  0  0  0  0
    7.5840   -0.2700   18.5160 N   0  0  0  0  0  0  0  0  0  0  0  0
    6.1460    0.6070   19.9750 N   0  0  0  0  0  0  0  0  0  0  0  0
    7.9774   -4.4013   25.9152 N   0  0  0  0  0  0  0  0  0  0  0  0
    8.0950   -0.7700   20.8440 N   0  0  0  0  0  0  0  0  0  0  0  0
    9.2950    1.3000   20.9480 O   0  0  0  0  0  0  0  0  0  0  0  0
    7.5748   -4.9364   28.6347 O   0  0  0  0  0  0  0  0  0  0  0  0
   12.1030    3.5958   27.6540 Cl  0  0  0  0  0  0  0  0  0  0  0  0
   13.3165   -0.7577   25.8737 H   0  0  0  0  0  0  0  0  0  0  0  0
   11.5336   -0.7405   24.1604 H   0  0  0  0  0  0  0  0  0  0  0  0
   10.2684   -2.6719   22.3867 H   0  0  0  0  0  0  0  0  0  0  0  0
    7.8717   -0.0016   24.7596 H   0  0  0  0  0  0  0  0  0  0  0  0
    9.5443   -4.5616   23.7817 H   0  0  0  0  0  0  0  0  0  0  0  0
    7.1921   -1.8821   26.1908 H   0  0  0  0  0  0  0  0  0  0  0  0
   13.5772    1.1489   27.4203 H   0  0  0  0  0  0  0  0  0  0  0  0
   10.2425    3.1247   25.5365 H   0  0  0  0  0  0  0  0  0  0  0  0
    4.3710    2.0145   17.4451 H   0  0  0  0  0  0  0  0  0  0  0  0
    2.9929    2.6891   19.3400 H   0  0  0  0  0  0  0  0  0  0  0  0
    3.6320    2.0596   21.6814 H   0  0  0  0  0  0  0  0  0  0  0  0
    5.6863    0.7288   22.0575 H   0  0  0  0  0  0  0  0  0  0  0  0
    9.9614   -5.0503   26.2701 H   0  0  0  0  0  0  0  0  0  0  0  0
    8.6932   -6.2593   26.5731 H   0  0  0  0  0  0  0  0  0  0  0  0
    6.2625   -5.5339   26.3355 H   0  0  0  0  0  0  0  0  0  0  0  0
    5.9348   -3.8414   25.9036 H   0  0  0  0  0  0  0  0  0  0  0  0
    9.5615   -5.4255   28.7162 H   0  0  0  0  0  0  0  0  0  0  0  0
    9.2365   -3.7494   28.2620 H   0  0  0  0  0  0  0  0  0  0  0  0
    6.8895   -3.0633   28.0551 H   0  0  0  0  0  0  0  0  0  0  0  0
    5.6514   -4.2861   28.3610 H   0  0  0  0  0  0  0  0  0  0  0  0
    8.7197    1.4079   24.1780 H   0  0  0  0  0  0  0  0  0  0  0  0
    9.8623    2.0699   23.0340 H   0  0  0  0  0  0  0  0  0  0  0  0
   10.7567   -0.2690   22.5478 H   0  0  0  0  0  0  0  0  0  0  0  0
    8.0917   -1.6083   21.0911 H   0  0  0  0  0  0  0  0  0  0  0  0
  1  2  2  0  0  0  0
  1  7  1  0  0  0  0
  2 10  1  0  0  0  0
  3  5  2  0  0  0  0
  3  9  1  0  0  0  0
  4  6  1  0  0  0  0
  4  9  2  0  0  0  0
  5 11  1  0  0  0  0
  6 11  2  0  0  0  0
  7 12  2  0  0  0  0
  8 10  2  0  0  0  0
  8 12  1  0  0  0  0
  9 25  1  0  0  0  0
 10 24  1  0  0  0  0
 11 29  1  0  0  0  0
 12 33  1  0  0  0  0
 13 15  1  0  0  0  0
 13 26  2  0  0  0  0
 13 28  1  0  0  0  0
 14 27  2  0  0  0  0
 14 28  1  0  0  0  0
 14 30  1  0  0  0  0
 15 16  2  0  0  0  0
 16 17  1  0  0  0  0
 17 18  2  0  0  0  0
 18 28  1  0  0  0  0
 19 25  1  1  0  0  0
 19 30  1  0  0  0  0
 19 31  2  0  0  0  0
 20 22  1  0  0  0  0
 20 29  1  0  0  0  0
 21 23  1  0  0  0  0
 21 29  1  0  0  0  0
 22 32  1  0  0  0  0
 23 32  1  0  0  0  0
 24 25  1  0  0  0  0
 26 27  1  0  0  0  0
  1 34  1  0  0  0  0
  2 35  1  0  0  0  0
  3 36  1  0  0  0  0
  4 37  1  0  0  0  0
  5 38  1  0  0  0  0
  6 39  1  0  0  0  0
  7 40  1  0  0  0  0
  8 41  1  0  0  0  0
 15 42  1  0  0  0  0
 16 43  1  0  0  0  0
 17 44  1  0  0  0  0
 18 45  1  0  0  0  0
 20 46  1  0  0  0  0
 20 47  1  0  0  0  0
 21 48  1  0  0  0  0
 21 49  1  0  0  0  0
 22 50  1  0  0  0  0
 22 51  1  0  0  0  0
 23 52  1  0  0  0  0
 23 53  1  0  0  0  0
 24 54  1  0  0  0  0
 24 55  1  0  0  0  0
 25 56  1  0  0  0  0
 30 57  1  0  0  0  0
M  END
> <clash_score>
5.493964177703434

> <docking_score>
-4.371696949005127

> <overlap_score>
0.8461745977401733

$$$$
BENZO_334_2
  -OEChem-08232013553D

 57 61  0     1  0  0  0  0  0999 V2000
   13.7993   -1.2937   25.1853 C   0  0  0  0  0  0  0  0  0  0  0  0
   13.1448   -1.1102   23.9673 C   0  0  0  0  0  0  0  0  0  0  0  0
    9.5890   -2.4950   23.2210 C   0  0  0  0  0  0  0  0  0  0  0  0
    8.2550   -1.0010   24.5520 C   0  0  0  0  0  0  0  0  0  0  0  0
    9.1890   -3.5540   24.0140 C   0  0  0  0  0  0  0  0  0  0  0  0
    7.8700   -2.0610   25.3550 C   0  0  0  0  0  0  0  0  0  0  0  0
   13.2472   -0.7790   26.3583 C   0  0  0  0  0  0  0  0  0  0  0  0
   11.3860    0.1028   25.0952 C   0  0  0  0  0  0  0  0  0  0  0  0
    9.1280   -1.2090   23.4870 C   0  0  0  0  0  0  0  0  0  0  0  0
   11.9382   -0.4119   23.9222 C   0  0  0  0  0  0  0  0  0  0  0  0
    8.3450   -3.3440   25.0980 C   0  0  0  0  0  0  0  0  0  0  0  0
   12.0405   -0.0807   26.3132 C   0  0  0  0  0  0  0  0  0  0  0  0
    5.7970    0.9500   18.6730 C   0  0  0  0  0  0  0  0  0  0  0  0
    7.2710   -0.1460   19.8310 C   0  0  0  0  0  0  0  0  0  0  0  0
    4.6610    1.7170   18.4380 C   0  0  0  0  0  0  0  0  0  0  0  0
    3.8860    2.1050   19.5250 C   0  0  0  0  0  0  0  0  0  0  0  0
    4.2460    1.7520   20.8250 C   0  0  0  0  0  0  0  0  0  0  0  0
    5.3890    1.0010   21.0690 C   0  0  0  0  0  0  0  0  0  0  0  0
    9.0430    0.2380   21.4940 C   0  0  0  0  0  0  0  0  0  0  0  0
    8.9526   -5.2008   26.6600 C   0  0  0  0  0  0  0  0  0  0  0  0
    6.6115   -4.5057   26.4392 C   0  0  0  0  0  0  0  0  0  0  0  0
    8.9053   -4.7827   28.1257 C   0  0  0  0  0  0  0  0  0  0  0  0
    6.6391   -4.1219   27.9194 C   0  0  0  0  0  0  0  0  0  0  0  0
   11.2301   -0.2124   22.6019 C   0  0  0  0  0  0  0  0  0  0  0  0
    9.5820   -0.1080   22.7000 C   0  0  2  0  0  0  0  0  0  0  0  0
    6.7100    0.3850   17.8100 N   0  0  0  0  0  0  0  0  0  0  0  0
    7.5840   -0.2700   18.5160 N   0  0  0  0  0  0  0  0  0  0  0  0
    6.1460    0.6070   19.9750 N   0  0  0  0  0  0  0  0  0  0  0  0
    7.9774   -4.4013   25.9152 N   0  0  0  0  0  0  0  0  0  0  0  0
    8.0950   -0.7700   20.8440 N   0  0  0  0  0  0  0  0  0  0  0  0
    9.2950    1.3000   20.9480 O   0  0  0  0  0  0  0  0  0  0  0  0
    7.5748   -4.9364   28.6347 O   0  0  0  0  0  0  0  0  0  0  0  0
   11.3604    0.5551   27.7606 Cl  0  0  0  0  0  0  0  0  0  0  0  0
   14.7390   -1.8374   25.2199 H   0  0  0  0  0  0  0  0  0  0  0  0
   13.5824   -1.5147   23.0583 H   0  0  0  0  0  0  0  0  0  0  0  0
   10.2684   -2.6719   22.3867 H   0  0  0  0  0  0  0  0  0  0  0  0
    7.8717   -0.0016   24.7596 H   0  0  0  0  0  0  0  0  0  0  0  0
    9.5443   -4.5616   23.7817 H   0  0  0  0  0  0  0  0  0  0  0  0
    7.1921   -1.8821   26.1908 H   0  0  0  0  0  0  0  0  0  0  0  0
   13.7685   -0.9294   27.3004 H   0  0  0  0  0  0  0  0  0  0  0  0
   10.4447    0.6461   25.0548 H   0  0  0  0  0  0  0  0  0  0  0  0
    4.3710    2.0145   17.4451 H   0  0  0  0  0  0  0  0  0  0  0  0
    2.9929    2.6891   19.3400 H   0  0  0  0  0  0  0  0  0  0  0  0
    3.6320    2.0596   21.6814 H   0  0  0  0  0  0  0  0  0  0  0  0
    5.6863    0.7288   22.0575 H   0  0  0  0  0  0  0  0  0  0  0  0
    9.9614   -5.0503   26.2701 H   0  0  0  0  0  0  0  0  0  0  0  0
    8.6932   -6.2593   26.5731 H   0  0  0  0  0  0  0  0  0  0  0  0
    6.2625   -5.5339   26.3355 H   0  0  0  0  0  0  0  0  0  0  0  0
    5.9348   -3.8414   25.9036 H   0  0  0  0  0  0  0  0  0  0  0  0
    9.5615   -5.4255   28.7162 H   0  0  0  0  0  0  0  0  0  0  0  0
    9.2365   -3.7494   28.2620 H   0  0  0  0  0  0  0  0  0  0  0  0
    6.8895   -3.0633   28.0551 H   0  0  0  0  0  0  0  0  0  0  0  0
    5.6514   -4.2861   28.3610 H   0  0  0  0  0  0  0  0  0  0  0  0
   11.5792    0.7206   22.1405 H   0  0  0  0  0  0  0  0  0  0  0  0
   11.5533   -1.0125   21.9215 H   0  0  0  0  0  0  0  0  0  0  0  0
    9.5402    0.8508   23.4127 H   0  0  0  0  0  0  0  0  0  0  0  0
    8.0917   -1.6083   21.0911 H   0  0  0  0  0  0  0  0  0  0  0  0
  1  2  2  0  0  0  0
  1  7  1  0  0  0  0
  2 10  1  0  0  0  0
  3  5  2  0  0  0  0
  3  9  1  0  0  0  0
  4  6  1  0  0  0  0
  4  9  2  0  0  0  0
  5 11  1  0  0  0  0
  6 11  2  0  0  0  0
  7 12  2  0  0  0  0
  8 10  2  0  0  0  0
  8 12  1  0  0  0  0
  9 25  1  0  0  0  0
 10 24  1  0  0  0  0
 11 29  1  0  0  0  0
 12 33  1  0  0  0  0
 13 15  1  0  0  0  0
 13 26  2  0  0  0  0
 13 28  1  0  0  0  0
 14 27  2  0  0  0  0
 14 28  1  0  0  0  0
 14 30  1  0  0  0  0
 15 16  2  0  0  0  0
 16 17  1  0  0  0  0
 17 18  2  0  0  0  0
 18 28  1  0  0  0  0
 19 25  1  6  0  0  0
 19 30  1  0  0  0  0
 19 31  2  0  0  0  0
 20 22  1  0  0  0  0
 20 29  1  0  0  0  0
 21 23  1  0  0  0  0
 21 29  1  0  0  0  0
 22 32  1  0  0  0  0
 23 32  1  0  0  0  0
 24 25  1  0  0  0  0
 26 27  1  0  0  0  0
  1 34  1  0  0  0  0
  2 35  1  0  0  0  0
  3 36  1  0  0  0  0
  4 37  1  0  0  0  0
  5 38  1  0  0  0  0
  6 39  1  0  0  0  0
  7 40  1  0  0  0  0
  8 41  1  0  0  0  0
 15 42  1  0  0  0  0
 16 43  1  0  0  0  0
 17 44  1  0  0  0  0
 18 45  1  0  0  0  0
 20 46  1  0  0  0  0
 20 47  1  0  0  0  0
 21 48  1  0  0  0  0
 21 49  1  0  0  0  0
 22 50  1  0  0  0  0
 22 51  1  0  0  0  0
 23 52  1  0  0  0  0
 23 53  1  0  0  0  0
 24 54  1  0  0  0  0
 24 55  1  0  0  0  0
 25 56  1  0  0  0  0
 30 57  1  0  0  0  0
M  END
> <clash_score>
0.702622923338925

> <docking_score>
-5.949298858642578

> <overlap_score>
0.9236098527908325

$$$$
BENZO_335_2
  -OEChem-08232013553D

 57 61  0     1  0  0  0  0  0999 V2000
    9.5890   -2.4950   23.2210 C   0  0  0  0  0  0  0  0  0  0  0  0
    8.2550   -1.0010   24.5520 C   0  0  0  0  0  0  0  0  0  0  0  0
    9.1890   -3.5540   24.0140 C   0  0  0  0  0  0  0  0  0  0  0  0
    7.8700   -2.0610   25.3550 C   0  0  0  0  0  0  0  0  0  0  0  0
   11.9810    2.0341   22.7316 C   0  0  0  0  0  0  0  0  0  0  0  0
   10.6982    3.5917   23.6053 C   0  0  0  0  0  0  0  0  0  0  0  0
    9.1280   -1.2090   23.4870 C   0  0  0  0  0  0  0  0  0  0  0  0
   10.7392    2.2406   23.3619 C   0  0  0  0  0  0  0  0  0  0  0  0
    8.3450   -3.3440   25.0980 C   0  0  0  0  0  0  0  0  0  0  0  0
    5.7970    0.9500   18.6730 C   0  0  0  0  0  0  0  0  0  0  0  0
    7.2710   -0.1460   19.8310 C   0  0  0  0  0  0  0  0  0  0  0  0
    4.6610    1.7170   18.4380 C   0  0  0  0  0  0  0  0  0  0  0  0
    3.8860    2.1050   19.5250 C   0  0  0  0  0  0  0  0  0  0  0  0
    4.2460    1.7520   20.8250 C   0  0  0  0  0  0  0  0  0  0  0  0
    5.3890    1.0010   21.0690 C   0  0  0  0  0  0  0  0  0  0  0  0
    9.0430    0.2380   21.4940 C   0  0  0  0  0  0  0  0  0  0  0  0
    8.3252   -4.3381   27.3461 C   0  0  0  0  0  0  0  0  0  0  0  0
    7.8819   -5.7639   25.3670 C   0  0  0  0  0  0  0  0  0  0  0  0
    7.4311   -5.2808   28.1434 C   0  0  0  0  0  0  0  0  0  0  0  0
    7.0119   -6.6310   26.2702 C   0  0  0  0  0  0  0  0  0  0  0  0
   12.2887    5.4744   23.1530 C   0  0  0  0  0  0  0  0  0  0  0  0
    9.6852    1.2097   23.6944 C   0  0  0  0  0  0  0  0  0  0  0  0
    9.5820   -0.1080   22.7000 C   0  0  2  0  0  0  0  0  0  0  0  0
   12.6784    3.1636   22.5838 N   0  0  0  0  0  0  0  0  0  0  0  0
    6.7100    0.3850   17.8100 N   0  0  0  0  0  0  0  0  0  0  0  0
    7.5840   -0.2700   18.5160 N   0  0  0  0  0  0  0  0  0  0  0  0
   11.8720    4.0929   23.1245 N   0  0  0  0  0  0  0  0  0  0  0  0
    6.1460    0.6070   19.9750 N   0  0  0  0  0  0  0  0  0  0  0  0
    7.9748   -4.4087   25.9209 N   0  0  0  0  0  0  0  0  0  0  0  0
    8.0950   -0.7700   20.8440 N   0  0  0  0  0  0  0  0  0  0  0  0
    9.2950    1.3000   20.9480 O   0  0  0  0  0  0  0  0  0  0  0  0
    7.5000   -6.6034   27.6110 O   0  0  0  0  0  0  0  0  0  0  0  0
   10.2684   -2.6719   22.3867 H   0  0  0  0  0  0  0  0  0  0  0  0
    7.8717   -0.0016   24.7596 H   0  0  0  0  0  0  0  0  0  0  0  0
    9.5443   -4.5616   23.7817 H   0  0  0  0  0  0  0  0  0  0  0  0
    7.1922   -1.8821   26.1908 H   0  0  0  0  0  0  0  0  0  0  0  0
   12.4086    1.1088   22.3723 H   0  0  0  0  0  0  0  0  0  0  0  0
    9.9517    4.2237   24.0670 H   0  0  0  0  0  0  0  0  0  0  0  0
    4.3710    2.0145   17.4451 H   0  0  0  0  0  0  0  0  0  0  0  0
    2.9929    2.6891   19.3400 H   0  0  0  0  0  0  0  0  0  0  0  0
    3.6320    2.0596   21.6814 H   0  0  0  0  0  0  0  0  0  0  0  0
    5.6863    0.7288   22.0575 H   0  0  0  0  0  0  0  0  0  0  0  0
    8.2083   -3.3157   27.7244 H   0  0  0  0  0  0  0  0  0  0  0  0
    9.3746   -4.6338   27.4718 H   0  0  0  0  0  0  0  0  0  0  0  0
    8.8893   -6.1956   25.3037 H   0  0  0  0  0  0  0  0  0  0  0  0
    7.4544   -5.7434   24.3576 H   0  0  0  0  0  0  0  0  0  0  0  0
    7.7715   -5.3226   29.1831 H   0  0  0  0  0  0  0  0  0  0  0  0
    6.3897   -4.9373   28.1518 H   0  0  0  0  0  0  0  0  0  0  0  0
    5.9637   -6.3086   26.2493 H   0  0  0  0  0  0  0  0  0  0  0  0
    7.0429   -7.6698   25.9261 H   0  0  0  0  0  0  0  0  0  0  0  0
   12.8313    5.6438   24.0868 H   0  0  0  0  0  0  0  0  0  0  0  0
   12.9336    5.6781   22.2937 H   0  0  0  0  0  0  0  0  0  0  0  0
   11.4069    6.1190   23.0997 H   0  0  0  0  0  0  0  0  0  0  0  0
    9.7996    0.8986   24.7410 H   0  0  0  0  0  0  0  0  0  0  0  0
    8.7039    1.7016   23.6423 H   0  0  0  0  0  0  0  0  0  0  0  0
   10.7567   -0.2690   22.5478 H   0  0  0  0  0  0  0  0  0  0  0  0
    8.0917   -1.6083   21.0911 H   0  0  0  0  0  0  0  0  0  0  0  0
  1  3  2  0  0  0  0
  1  7  1  0  0  0  0
  2  4  1  0  0  0  0
  2  7  2  0  0  0  0
  3  9  1  0  0  0  0
  4  9  2  0  0  0  0
  5  8  1  0  0  0  0
  5 24  2  0  0  0  0
  6  8  2  0  0  0  0
  6 27  1  0  0  0  0
  7 23  1  0  0  0  0
  8 22  1  0  0  0  0
  9 29  1  0  0  0  0
 10 12  1  0  0  0  0
 10 25  2  0  0  0  0
 10 28  1  0  0  0  0
 11 26  2  0  0  0  0
 11 28  1  0  0  0  0
 11 30  1  0  0  0  0
 12 13  2  0  0  0  0
 13 14  1  0  0  0  0
 14 15  2  0  0  0  0
 15 28  1  0  0  0  0
 16 23  1  0  0  0  0
 16 30  1  0  0  0  0
 16 31  2  0  0  0  0
 17 19  1  0  0  0  0
 17 29  1  0  0  0  0
 18 20  1  0  0  0  0
 18 29  1  0  0  0  0
 19 32  1  0  0  0  0
 20 32  1  0  0  0  0
 21 27  1  0  0  0  0
 22 23  1  6  0  0  0
 24 27  1  0  0  0  0
 25 26  1  0  0  0  0
  1 33  1  0  0  0  0
  2 34  1  0  0  0  0
  3 35  1  0  0  0  0
  4 36  1  0  0  0  0
  5 37  1  0  0  0  0
  6 38  1  0  0  0  0
 12 39  1  0  0  0  0
 13 40  1  0  0  0  0
 14 41  1  0  0  0  0
 15 42  1  0  0  0  0
 17 43  1  0  0  0  0
 17 44  1  0  0  0  0
 18 45  1  0  0  0  0
 18 46  1  0  0  0  0
 19 47  1  0  0  0  0
 19 48  1  0  0  0  0
 20 49  1  0  0  0  0
 20 50  1  0  0  0  0
 21 51  1  0  0  0  0
 21 52  1  0  0  0  0
 21 53  1  0  0  0  0
 22 54  1  0  0  0  0
 22 55  1  0  0  0  0
 23 56  1  0  0  0  0
 30 57  1  0  0  0  0
M  END
> <clash_score>
0

> <docking_score>
-7.588986396789551

> <overlap_score>
0.8332194685935974

$$$$
BENZO_341_1
  -OEChem-08232013553D

 54 57  0     0  0  0  0  0  0999 V2000
   14.5403   -1.0157   22.8733 C   0  0  0  0  0  0  0  0  0  0  0  0
   14.2560   -0.2389   23.9965 C   0  0  0  0  0  0  0  0  0  0  0  0
   13.5596   -1.2250   21.9037 C   0  0  0  0  0  0  0  0  0  0  0  0
    3.8860    2.1050   19.5250 C   0  0  0  0  0  0  0  0  0  0  0  0
    4.2460    1.7520   20.8250 C   0  0  0  0  0  0  0  0  0  0  0  0
   12.9911    0.3284   24.1501 C   0  0  0  0  0  0  0  0  0  0  0  0
   12.2946   -0.6577   22.0573 C   0  0  0  0  0  0  0  0  0  0  0  0
    4.6610    1.7170   18.4380 C   0  0  0  0  0  0  0  0  0  0  0  0
    5.3890    1.0010   21.0690 C   0  0  0  0  0  0  0  0  0  0  0  0
    9.1890   -3.5540   24.0140 C   0  0  0  0  0  0  0  0  0  0  0  0
    7.8700   -2.0610   25.3550 C   0  0  0  0  0  0  0  0  0  0  0  0
    9.5890   -2.4950   23.2210 C   0  0  0  0  0  0  0  0  0  0  0  0
    8.2550   -1.0010   24.5520 C   0  0  0  0  0  0  0  0  0  0  0  0
   12.0103    0.1191   23.1805 C   0  0  0  0  0  0  0  0  0  0  0  0
    5.7970    0.9500   18.6730 C   0  0  0  0  0  0  0  0  0  0  0  0
    6.1460    0.6070   19.9750 C   0  0  0  0  0  0  0  0  0  0  0  0
    8.3450   -3.3440   25.0980 C   0  0  0  0  0  0  0  0  0  0  0  0
    9.1280   -1.2090   23.4870 C   0  0  0  0  0  0  0  0  0  0  0  0
    7.6596   -4.3770   27.2873 C   0  0  0  0  0  0  0  0  0  0  0  0
    9.0430    0.2380   21.4940 C   0  0  0  0  0  0  0  0  0  0  0  0
    8.4367   -6.7651   27.6016 C   0  0  0  0  0  0  0  0  0  0  0  0
   10.6485    0.7293   23.3453 C   0  0  0  0  0  0  0  0  0  0  0  0
    7.3107   -5.7663   27.8001 C   0  0  0  0  0  0  0  0  0  0  0  0
    8.0950   -0.7700   20.8440 C   0  0  0  0  0  0  0  0  0  0  0  0
    6.7100    0.3850   17.8100 N   0  0  0  0  0  0  0  0  0  0  0  0
    7.5840   -0.2700   18.5160 N   0  0  0  0  0  0  0  0  0  0  0  0
    7.2710   -0.1460   19.8310 N   0  0  0  0  0  0  0  0  0  0  0  0
    7.9771   -4.4058   25.9196 N   0  0  0  0  0  0  0  0  0  0  0  0
    9.5820   -0.1080   22.7000 N   0  0  0  0  0  0  0  0  0  0  0  0
    7.6486   -3.3920   28.0182 O   0  0  0  0  0  0  0  0  0  0  0  0
    9.2950    1.3000   20.9480 O   0  0  0  0  0  0  0  0  0  0  0  0
   15.5257   -1.4563   22.7532 H   0  0  0  0  0  0  0  0  0  0  0  0
   15.0198   -0.0749   24.7510 H   0  0  0  0  0  0  0  0  0  0  0  0
   13.7809   -1.8288   21.0286 H   0  0  0  0  0  0  0  0  0  0  0  0
    2.9847    2.6930   19.3611 H   0  0  0  0  0  0  0  0  0  0  0  0
    3.6232    2.0694   21.6565 H   0  0  0  0  0  0  0  0  0  0  0  0
   12.7785    0.9321   25.0285 H   0  0  0  0  0  0  0  0  0  0  0  0
   11.5367   -0.8263   21.2968 H   0  0  0  0  0  0  0  0  0  0  0  0
    4.3785    2.0112   17.4257 H   0  0  0  0  0  0  0  0  0  0  0  0
    5.6780    0.7321   22.0906 H   0  0  0  0  0  0  0  0  0  0  0  0
    9.5436   -4.5614   23.7799 H   0  0  0  0  0  0  0  0  0  0  0  0
    7.1918   -1.8823   26.1906 H   0  0  0  0  0  0  0  0  0  0  0  0
   10.2676   -2.6754   22.3861 H   0  0  0  0  0  0  0  0  0  0  0  0
    7.8686   -0.0026   24.7598 H   0  0  0  0  0  0  0  0  0  0  0  0
    8.6971   -6.8587   26.5422 H   0  0  0  0  0  0  0  0  0  0  0  0
    8.1397   -7.7521   27.9693 H   0  0  0  0  0  0  0  0  0  0  0  0
    9.3369   -6.4552   28.1424 H   0  0  0  0  0  0  0  0  0  0  0  0
   10.3982    0.8340   24.4066 H   0  0  0  0  0  0  0  0  0  0  0  0
   10.6098    1.7298   22.9018 H   0  0  0  0  0  0  0  0  0  0  0  0
    7.0713   -5.6928   28.8672 H   0  0  0  0  0  0  0  0  0  0  0  0
    6.4148   -6.1160   27.2743 H   0  0  0  0  0  0  0  0  0  0  0  0
    8.6619   -1.5627   20.3589 H   0  0  0  0  0  0  0  0  0  0  0  0
    7.4230   -1.1880   21.5916 H   0  0  0  0  0  0  0  0  0  0  0  0
    7.9297   -5.3297   25.4745 H   0  0  0  0  0  0  0  0  0  0  0  0
  1  2  1  0  0  0  0
  1  3  2  0  0  0  0
  2  6  2  0  0  0  0
  3  7  1  0  0  0  0
  4  5  1  0  0  0  0
  4  8  2  0  0  0  0
  5  9  2  0  0  0  0
  6 14  1  0  0  0  0
  7 14  2  0  0  0  0
  8 15  1  0  0  0  0
  9 16  1  0  0  0  0
 10 12  2  0  0  0  0
 10 17  1  0  0  0  0
 11 13  1  0  0  0  0
 11 17  2  0  0  0  0
 12 18  1  0  0  0  0
 13 18  2  0  0  0  0
 14 22  1  0  0  0  0
 15 16  2  0  0  0  0
 15 25  1  0  0  0  0
 16 27  1  0  0  0  0
 17 28  1  0  0  0  0
 18 29  1  0  0  0  0
 19 23  1  0  0  0  0
 19 28  1  0  0  0  0
 19 30  2  0  0  0  0
 20 24  1  0  0  0  0
 20 29  1  0  0  0  0
 20 31  2  0  0  0  0
 21 23  1  0  0  0  0
 22 29  1  0  0  0  0
 24 27  1  0  0  0  0
 25 26  2  0  0  0  0
 26 27  1  0  0  0  0
  1 32  1  0  0  0  0
  2 33  1  0  0  0  0
  3 34  1  0  0  0  0
  4 35  1  0  0  0  0
  5 36  1  0  0  0  0
  6 37  1  0  0  0  0
  7 38  1  0  0  0  0
  8 39  1  0  0  0  0
  9 40  1  0  0  0  0
 10 41  1  0  0  0  0
 11 42  1  0  0  0  0
 12 43  1  0  0  0  0
 13 44  1  0  0  0  0
 21 45  1  0  0  0  0
 21 46  1  0  0  0  0
 21 47  1  0  0  0  0
 22 48  1  0  0  0  0
 22 49  1  0  0  0  0
 23 50  1  0  0  0  0
 23 51  1  0  0  0  0
 24 52  1  0  0  0  0
 24 53  1  0  0  0  0
 28 54  1  0  0  0  0
M  END
> <clash_score>
0

> <docking_score>
-8.887303352355957

> <overlap_score>
0.9743028283119202

$$$$
BENZO_340_1
  -OEChem-08232013553D

 51 54  0     0  0  0  0  0  0999 V2000
    3.8860    2.1050   19.5250 C   0  0  0  0  0  0  0  0  0  0  0  0
    4.2460    1.7520   20.8250 C   0  0  0  0  0  0  0  0  0  0  0  0
    4.6610    1.7170   18.4380 C   0  0  0  0  0  0  0  0  0  0  0  0
    5.3890    1.0010   21.0690 C   0  0  0  0  0  0  0  0  0  0  0  0
    9.1890   -3.5540   24.0140 C   0  0  0  0  0  0  0  0  0  0  0  0
    7.8700   -2.0610   25.3550 C   0  0  0  0  0  0  0  0  0  0  0  0
    9.5890   -2.4950   23.2210 C   0  0  0  0  0  0  0  0  0  0  0  0
    8.2550   -1.0010   24.5520 C   0  0  0  0  0  0  0  0  0  0  0  0
   12.6538   -0.7170   22.5987 C   0  0  0  0  0  0  0  0  0  0  0  0
   13.7476   -1.3763   23.1149 C   0  0  0  0  0  0  0  0  0  0  0  0
   12.4356   -0.2522   24.8656 C   0  0  0  0  0  0  0  0  0  0  0  0
   11.8938   -0.0656   23.6128 C   0  0  0  0  0  0  0  0  0  0  0  0
    5.7970    0.9500   18.6730 C   0  0  0  0  0  0  0  0  0  0  0  0
    6.1460    0.6070   19.9750 C   0  0  0  0  0  0  0  0  0  0  0  0
    8.3450   -3.3440   25.0980 C   0  0  0  0  0  0  0  0  0  0  0  0
    9.1280   -1.2090   23.4870 C   0  0  0  0  0  0  0  0  0  0  0  0
    8.2014   -4.5567   27.2977 C   0  0  0  0  0  0  0  0  0  0  0  0
    9.0430    0.2380   21.4940 C   0  0  0  0  0  0  0  0  0  0  0  0
    7.8867   -6.0886   29.2876 C   0  0  0  0  0  0  0  0  0  0  0  0
   10.6485    0.7293   23.3453 C   0  0  0  0  0  0  0  0  0  0  0  0
    7.6333   -5.8733   27.8063 C   0  0  0  0  0  0  0  0  0  0  0  0
    8.0950   -0.7700   20.8440 C   0  0  0  0  0  0  0  0  0  0  0  0
    6.7100    0.3850   17.8100 N   0  0  0  0  0  0  0  0  0  0  0  0
    7.5840   -0.2700   18.5160 N   0  0  0  0  0  0  0  0  0  0  0  0
    7.2710   -0.1460   19.8310 N   0  0  0  0  0  0  0  0  0  0  0  0
    7.9771   -4.4058   25.9196 N   0  0  0  0  0  0  0  0  0  0  0  0
    9.5820   -0.1080   22.7000 N   0  0  0  0  0  0  0  0  0  0  0  0
    8.7726   -3.7646   28.0400 O   0  0  0  0  0  0  0  0  0  0  0  0
    9.2950    1.3000   20.9480 O   0  0  0  0  0  0  0  0  0  0  0  0
   13.8549   -1.2089   24.8157 S   0  0  0  0  0  0  0  0  0  0  0  0
    2.9847    2.6930   19.3611 H   0  0  0  0  0  0  0  0  0  0  0  0
    3.6232    2.0694   21.6565 H   0  0  0  0  0  0  0  0  0  0  0  0
    4.3785    2.0112   17.4257 H   0  0  0  0  0  0  0  0  0  0  0  0
    5.6780    0.7321   22.0906 H   0  0  0  0  0  0  0  0  0  0  0  0
    9.5436   -4.5614   23.7799 H   0  0  0  0  0  0  0  0  0  0  0  0
    7.1918   -1.8823   26.1906 H   0  0  0  0  0  0  0  0  0  0  0  0
   10.2676   -2.6754   22.3861 H   0  0  0  0  0  0  0  0  0  0  0  0
    7.8686   -0.0026   24.7598 H   0  0  0  0  0  0  0  0  0  0  0  0
   12.4137   -0.7054   21.5430 H   0  0  0  0  0  0  0  0  0  0  0  0
   14.4883   -1.9488   22.5748 H   0  0  0  0  0  0  0  0  0  0  0  0
   12.0686    0.1247   25.8102 H   0  0  0  0  0  0  0  0  0  0  0  0
    8.9593   -6.0834   29.5079 H   0  0  0  0  0  0  0  0  0  0  0  0
    7.4763   -7.0510   29.6084 H   0  0  0  0  0  0  0  0  0  0  0  0
    7.4174   -5.3003   29.8854 H   0  0  0  0  0  0  0  0  0  0  0  0
   10.2407    1.1336   24.2782 H   0  0  0  0  0  0  0  0  0  0  0  0
   10.8584    1.5788   22.6869 H   0  0  0  0  0  0  0  0  0  0  0  0
    6.5541   -5.8831   27.6149 H   0  0  0  0  0  0  0  0  0  0  0  0
    8.0870   -6.6914   27.2350 H   0  0  0  0  0  0  0  0  0  0  0  0
    8.6619   -1.5627   20.3589 H   0  0  0  0  0  0  0  0  0  0  0  0
    7.4230   -1.1880   21.5916 H   0  0  0  0  0  0  0  0  0  0  0  0
    7.4775   -5.1796   25.4661 H   0  0  0  0  0  0  0  0  0  0  0  0
  1  2  1  0  0  0  0
  1  3  2  0  0  0  0
  2  4  2  0  0  0  0
  3 13  1  0  0  0  0
  4 14  1  0  0  0  0
  5  7  2  0  0  0  0
  5 15  1  0  0  0  0
  6  8  1  0  0  0  0
  6 15  2  0  0  0  0
  7 16  1  0  0  0  0
  8 16  2  0  0  0  0
  9 10  2  0  0  0  0
  9 12  1  0  0  0  0
 10 30  1  0  0  0  0
 11 12  2  0  0  0  0
 11 30  1  0  0  0  0
 12 20  1  0  0  0  0
 13 14  2  0  0  0  0
 13 23  1  0  0  0  0
 14 25  1  0  0  0  0
 15 26  1  0  0  0  0
 16 27  1  0  0  0  0
 17 21  1  0  0  0  0
 17 26  1  0  0  0  0
 17 28  2  0  0  0  0
 18 22  1  0  0  0  0
 18 27  1  0  0  0  0
 18 29  2  0  0  0  0
 19 21  1  0  0  0  0
 20 27  1  0  0  0  0
 22 25  1  0  0  0  0
 23 24  2  0  0  0  0
 24 25  1  0  0  0  0
  1 31  1  0  0  0  0
  2 32  1  0  0  0  0
  3 33  1  0  0  0  0
  4 34  1  0  0  0  0
  5 35  1  0  0  0  0
  6 36  1  0  0  0  0
  7 37  1  0  0  0  0
  8 38  1  0  0  0  0
  9 39  1  0  0  0  0
 10 40  1  0  0  0  0
 11 41  1  0  0  0  0
 19 42  1  0  0  0  0
 19 43  1  0  0  0  0
 19 44  1  0  0  0  0
 20 45  1  0  0  0  0
 20 46  1  0  0  0  0
 21 47  1  0  0  0  0
 21 48  1  0  0  0  0
 22 49  1  0  0  0  0
 22 50  1  0  0  0  0
 26 51  1  0  0  0  0
M  END
> <clash_score>
0

> <docking_score>
-9.236918449401855

> <overlap_score>
0.9800519347190857

$$$$
BENZO_345_1
  -OEChem-08232013553D

 59 63  0     0  0  0  0  0  0999 V2000
   14.3059   -1.3742   24.0790 C   0  0  0  0  0  0  0  0  0  0  0  0
   13.9373   -0.3085   24.9000 C   0  0  0  0  0  0  0  0  0  0  0  0
   13.4875   -1.7492   23.0134 C   0  0  0  0  0  0  0  0  0  0  0  0
    3.8860    2.1050   19.5250 C   0  0  0  0  0  0  0  0  0  0  0  0
    4.2460    1.7520   20.8250 C   0  0  0  0  0  0  0  0  0  0  0  0
   12.7504    0.3822   24.6556 C   0  0  0  0  0  0  0  0  0  0  0  0
   12.3006   -1.0585   22.7690 C   0  0  0  0  0  0  0  0  0  0  0  0
    4.6610    1.7170   18.4380 C   0  0  0  0  0  0  0  0  0  0  0  0
    5.3890    1.0010   21.0690 C   0  0  0  0  0  0  0  0  0  0  0  0
    9.1890   -3.5540   24.0140 C   0  0  0  0  0  0  0  0  0  0  0  0
    7.8700   -2.0610   25.3550 C   0  0  0  0  0  0  0  0  0  0  0  0
    9.5890   -2.4950   23.2210 C   0  0  0  0  0  0  0  0  0  0  0  0
    8.2550   -1.0010   24.5520 C   0  0  0  0  0  0  0  0  0  0  0  0
   11.9320    0.0072   23.5900 C   0  0  0  0  0  0  0  0  0  0  0  0
    5.7970    0.9500   18.6730 C   0  0  0  0  0  0  0  0  0  0  0  0
    6.1460    0.6070   19.9750 C   0  0  0  0  0  0  0  0  0  0  0  0
    8.3450   -3.3440   25.0980 C   0  0  0  0  0  0  0  0  0  0  0  0
    9.1280   -1.2090   23.4870 C   0  0  0  0  0  0  0  0  0  0  0  0
    9.0430    0.2380   21.4940 C   0  0  0  0  0  0  0  0  0  0  0  0
    7.5748   -4.8280   28.7278 C   0  0  0  0  0  0  0  0  0  0  0  0
    8.9776   -4.7555   28.1204 C   0  0  0  0  0  0  0  0  0  0  0  0
    6.5554   -4.0713   27.8732 C   0  0  0  0  0  0  0  0  0  0  0  0
    8.9620   -5.1961   26.6568 C   0  0  0  0  0  0  0  0  0  0  0  0
    6.6009   -4.5253   26.4110 C   0  0  0  0  0  0  0  0  0  0  0  0
   10.6542    0.7501   23.3264 C   0  0  0  0  0  0  0  0  0  0  0  0
    8.0950   -0.7700   20.8440 C   0  0  0  0  0  0  0  0  0  0  0  0
    6.7100    0.3850   17.8100 N   0  0  0  0  0  0  0  0  0  0  0  0
    7.5840   -0.2700   18.5160 N   0  0  0  0  0  0  0  0  0  0  0  0
    7.2710   -0.1460   19.8310 N   0  0  0  0  0  0  0  0  0  0  0  0
    7.9770   -4.4029   25.9162 N   0  0  0  0  0  0  0  0  0  0  0  0
    9.5820   -0.1080   22.7000 N   0  0  0  0  0  0  0  0  0  0  0  0
    9.2950    1.3000   20.9480 O   0  0  0  0  0  0  0  0  0  0  0  0
   15.2308   -1.9111   24.2687 H   0  0  0  0  0  0  0  0  0  0  0  0
   14.5750   -0.0157   25.7291 H   0  0  0  0  0  0  0  0  0  0  0  0
   13.7747   -2.5782   22.3734 H   0  0  0  0  0  0  0  0  0  0  0  0
    2.9847    2.6930   19.3611 H   0  0  0  0  0  0  0  0  0  0  0  0
    3.6232    2.0694   21.6565 H   0  0  0  0  0  0  0  0  0  0  0  0
   12.4712    1.2111   25.3006 H   0  0  0  0  0  0  0  0  0  0  0  0
   11.6692   -1.3578   21.9366 H   0  0  0  0  0  0  0  0  0  0  0  0
    4.3785    2.0112   17.4257 H   0  0  0  0  0  0  0  0  0  0  0  0
    5.6780    0.7321   22.0906 H   0  0  0  0  0  0  0  0  0  0  0  0
    9.5426   -4.5618   23.7797 H   0  0  0  0  0  0  0  0  0  0  0  0
    7.1914   -1.8824   26.1903 H   0  0  0  0  0  0  0  0  0  0  0  0
   10.2669   -2.6745   22.3854 H   0  0  0  0  0  0  0  0  0  0  0  0
    7.8690   -0.0020   24.7587 H   0  0  0  0  0  0  0  0  0  0  0  0
    7.2681   -5.8807   28.8239 H   0  0  0  0  0  0  0  0  0  0  0  0
    7.5891   -4.4101   29.7448 H   0  0  0  0  0  0  0  0  0  0  0  0
    9.3554   -3.7320   28.1920 H   0  0  0  0  0  0  0  0  0  0  0  0
    9.6558   -5.3943   28.6900 H   0  0  0  0  0  0  0  0  0  0  0  0
    5.5496   -4.2322   28.2751 H   0  0  0  0  0  0  0  0  0  0  0  0
    6.7545   -2.9948   27.9293 H   0  0  0  0  0  0  0  0  0  0  0  0
    9.9612   -5.0560   26.2363 H   0  0  0  0  0  0  0  0  0  0  0  0
    8.7097   -6.2583   26.5922 H   0  0  0  0  0  0  0  0  0  0  0  0
    6.2649   -5.5600   26.3335 H   0  0  0  0  0  0  0  0  0  0  0  0
    5.9271   -3.8964   25.8283 H   0  0  0  0  0  0  0  0  0  0  0  0
   10.2469    1.1601   24.2571 H   0  0  0  0  0  0  0  0  0  0  0  0
   10.8221    1.5917   22.6463 H   0  0  0  0  0  0  0  0  0  0  0  0
    8.6688   -1.5655   20.3666 H   0  0  0  0  0  0  0  0  0  0  0  0
    7.4298   -1.1908   21.5994 H   0  0  0  0  0  0  0  0  0  0  0  0
  1  2  1  0  0  0  0
  1  3  2  0  0  0  0
  2  6  2  0  0  0  0
  3  7  1  0  0  0  0
  4  5  1  0  0  0  0
  4  8  2  0  0  0  0
  5  9  2  0  0  0  0
  6 14  1  0  0  0  0
  7 14  2  0  0  0  0
  8 15  1  0  0  0  0
  9 16  1  0  0  0  0
 10 12  2  0  0  0  0
 10 17  1  0  0  0  0
 11 13  1  0  0  0  0
 11 17  2  0  0  0  0
 12 18  1  0  0  0  0
 13 18  2  0  0  0  0
 14 25  1  0  0  0  0
 15 16  2  0  0  0  0
 15 27  1  0  0  0  0
 16 29  1  0  0  0  0
 17 30  1  0  0  0  0
 18 31  1  0  0  0  0
 19 26  1  0  0  0  0
 19 31  1  0  0  0  0
 19 32  2  0  0  0  0
 20 21  1  0  0  0  0
 20 22  1  0  0  0  0
 21 23  1  0  0  0  0
 22 24  1  0  0  0  0
 23 30  1  0  0  0  0
 24 30  1  0  0  0  0
 25 31  1  0  0  0  0
 26 29  1  0  0  0  0
 27 28  2  0  0  0  0
 28 29  1  0  0  0  0
  1 33  1  0  0  0  0
  2 34  1  0  0  0  0
  3 35  1  0  0  0  0
  4 36  1  0  0  0  0
  5 37  1  0  0  0  0
  6 38  1  0  0  0  0
  7 39  1  0  0  0  0
  8 40  1  0  0  0  0
  9 41  1  0  0  0  0
 10 42  1  0  0  0  0
 11 43  1  0  0  0  0
 12 44  1  0  0  0  0
 13 45  1  0  0  0  0
 20 46  1  0  0  0  0
 20 47  1  0  0  0  0
 21 48  1  0  0  0  0
 21 49  1  0  0  0  0
 22 50  1  0  0  0  0
 22 51  1  0  0  0  0
 23 52  1  0  0  0  0
 23 53  1  0  0  0  0
 24 54  1  0  0  0  0
 24 55  1  0  0  0  0
 25 56  1  0  0  0  0
 25 57  1  0  0  0  0
 26 58  1  0  0  0  0
 26 59  1  0  0  0  0
M  END
> <clash_score>
0

> <docking_score>
-9.668501853942871

> <overlap_score>
0.979856014251709

$$$$
BENZO_344_1
  -OEChem-08232013553D

 56 60  0     0  0  0  0  0  0999 V2000
    3.8860    2.1050   19.5250 C   0  0  0  0  0  0  0  0  0  0  0  0
    4.2460    1.7520   20.8250 C   0  0  0  0  0  0  0  0  0  0  0  0
    4.6610    1.7170   18.4380 C   0  0  0  0  0  0  0  0  0  0  0  0
    5.3890    1.0010   21.0690 C   0  0  0  0  0  0  0  0  0  0  0  0
    9.1890   -3.5540   24.0140 C   0  0  0  0  0  0  0  0  0  0  0  0
    7.8700   -2.0610   25.3550 C   0  0  0  0  0  0  0  0  0  0  0  0
    9.5890   -2.4950   23.2210 C   0  0  0  0  0  0  0  0  0  0  0  0
    8.2550   -1.0010   24.5520 C   0  0  0  0  0  0  0  0  0  0  0  0
   12.5175   -0.1333   24.8814 C   0  0  0  0  0  0  0  0  0  0  0  0
   13.6871   -0.8602   24.8429 C   0  0  0  0  0  0  0  0  0  0  0  0
   12.6766   -0.6175   22.6136 C   0  0  0  0  0  0  0  0  0  0  0  0
   11.9320    0.0072   23.5900 C   0  0  0  0  0  0  0  0  0  0  0  0
    5.7970    0.9500   18.6730 C   0  0  0  0  0  0  0  0  0  0  0  0
    6.1460    0.6070   19.9750 C   0  0  0  0  0  0  0  0  0  0  0  0
    8.3450   -3.3440   25.0980 C   0  0  0  0  0  0  0  0  0  0  0  0
    9.1280   -1.2090   23.4870 C   0  0  0  0  0  0  0  0  0  0  0  0
    9.0430    0.2380   21.4940 C   0  0  0  0  0  0  0  0  0  0  0  0
    7.5748   -4.8280   28.7278 C   0  0  0  0  0  0  0  0  0  0  0  0
    8.9776   -4.7555   28.1204 C   0  0  0  0  0  0  0  0  0  0  0  0
    6.5554   -4.0713   27.8732 C   0  0  0  0  0  0  0  0  0  0  0  0
    8.9620   -5.1961   26.6568 C   0  0  0  0  0  0  0  0  0  0  0  0
    6.6009   -4.5253   26.4110 C   0  0  0  0  0  0  0  0  0  0  0  0
   10.6542    0.7501   23.3264 C   0  0  0  0  0  0  0  0  0  0  0  0
    8.0950   -0.7700   20.8440 C   0  0  0  0  0  0  0  0  0  0  0  0
    6.7100    0.3850   17.8100 N   0  0  0  0  0  0  0  0  0  0  0  0
    7.5840   -0.2700   18.5160 N   0  0  0  0  0  0  0  0  0  0  0  0
    7.2710   -0.1460   19.8310 N   0  0  0  0  0  0  0  0  0  0  0  0
    7.9770   -4.4029   25.9162 N   0  0  0  0  0  0  0  0  0  0  0  0
    9.5820   -0.1080   22.7000 N   0  0  0  0  0  0  0  0  0  0  0  0
    9.2950    1.3000   20.9480 O   0  0  0  0  0  0  0  0  0  0  0  0
   14.0750   -1.3696   23.2547 S   0  0  0  0  0  0  0  0  0  0  0  0
    2.9847    2.6930   19.3611 H   0  0  0  0  0  0  0  0  0  0  0  0
    3.6232    2.0694   21.6565 H   0  0  0  0  0  0  0  0  0  0  0  0
    4.3785    2.0112   17.4257 H   0  0  0  0  0  0  0  0  0  0  0  0
    5.6780    0.7321   22.0906 H   0  0  0  0  0  0  0  0  0  0  0  0
    9.5426   -4.5618   23.7797 H   0  0  0  0  0  0  0  0  0  0  0  0
    7.1914   -1.8824   26.1903 H   0  0  0  0  0  0  0  0  0  0  0  0
   10.2669   -2.6745   22.3854 H   0  0  0  0  0  0  0  0  0  0  0  0
    7.8690   -0.0020   24.7587 H   0  0  0  0  0  0  0  0  0  0  0  0
   12.1053    0.2767   25.7948 H   0  0  0  0  0  0  0  0  0  0  0  0
   14.3326   -1.1158   25.6713 H   0  0  0  0  0  0  0  0  0  0  0  0
   12.4706   -0.6696   21.5535 H   0  0  0  0  0  0  0  0  0  0  0  0
    7.2681   -5.8807   28.8239 H   0  0  0  0  0  0  0  0  0  0  0  0
    7.5891   -4.4101   29.7448 H   0  0  0  0  0  0  0  0  0  0  0  0
    9.3554   -3.7320   28.1920 H   0  0  0  0  0  0  0  0  0  0  0  0
    9.6558   -5.3943   28.6900 H   0  0  0  0  0  0  0  0  0  0  0  0
    5.5496   -4.2322   28.2751 H   0  0  0  0  0  0  0  0  0  0  0  0
    6.7545   -2.9948   27.9293 H   0  0  0  0  0  0  0  0  0  0  0  0
    9.9612   -5.0560   26.2363 H   0  0  0  0  0  0  0  0  0  0  0  0
    8.7097   -6.2583   26.5922 H   0  0  0  0  0  0  0  0  0  0  0  0
    6.2649   -5.5600   26.3335 H   0  0  0  0  0  0  0  0  0  0  0  0
    5.9271   -3.8964   25.8283 H   0  0  0  0  0  0  0  0  0  0  0  0
   10.2469    1.1601   24.2571 H   0  0  0  0  0  0  0  0  0  0  0  0
   10.8221    1.5917   22.6463 H   0  0  0  0  0  0  0  0  0  0  0  0
    8.6688   -1.5655   20.3666 H   0  0  0  0  0  0  0  0  0  0  0  0
    7.4298   -1.1908   21.5994 H   0  0  0  0  0  0  0  0  0  0  0  0
  1  2  1  0  0  0  0
  1  3  2  0  0  0  0
  2  4  2  0  0  0  0
  3 13  1  0  0  0  0
  4 14  1  0  0  0  0
  5  7  2  0  0  0  0
  5 15  1  0  0  0  0
  6  8  1  0  0  0  0
  6 15  2  0  0  0  0
  7 16  1  0  0  0  0
  8 16  2  0  0  0  0
  9 10  2  0  0  0  0
  9 12  1  0  0  0  0
 10 31  1  0  0  0  0
 11 12  2  0  0  0  0
 11 31  1  0  0  0  0
 12 23  1  0  0  0  0
 13 14  2  0  0  0  0
 13 25  1  0  0  0  0
 14 27  1  0  0  0  0
 15 28  1  0  0  0  0
 16 29  1  0  0  0  0
 17 24  1  0  0  0  0
 17 29  1  0  0  0  0
 17 30  2  0  0  0  0
 18 19  1  0  0  0  0
 18 20  1  0  0  0  0
 19 21  1  0  0  0  0
 20 22  1  0  0  0  0
 21 28  1  0  0  0  0
 22 28  1  0  0  0  0
 23 29  1  0  0  0  0
 24 27  1  0  0  0  0
 25 26  2  0  0  0  0
 26 27  1  0  0  0  0
  1 32  1  0  0  0  0
  2 33  1  0  0  0  0
  3 34  1  0  0  0  0
  4 35  1  0  0  0  0
  5 36  1  0  0  0  0
  6 37  1  0  0  0  0
  7 38  1  0  0  0  0
  8 39  1  0  0  0  0
  9 40  1  0  0  0  0
 10 41  1  0  0  0  0
 11 42  1  0  0  0  0
 18 43  1  0  0  0  0
 18 44  1  0  0  0  0
 19 45  1  0  0  0  0
 19 46  1  0  0  0  0
 20 47  1  0  0  0  0
 20 48  1  0  0  0  0
 21 49  1  0  0  0  0
 21 50  1  0  0  0  0
 22 51  1  0  0  0  0
 22 52  1  0  0  0  0
 23 53  1  0  0  0  0
 23 54  1  0  0  0  0
 24 55  1  0  0  0  0
 24 56  1  0  0  0  0
M  END
> <clash_score>
0

> <docking_score>
-9.544672012329102

> <overlap_score>
0.9641402959823608

$$$$
BENZO_342_1
  -OEChem-08232013553D

 54 57  0     0  0  0  0  0  0999 V2000
    3.8860    2.1050   19.5250 C   0  0  0  0  0  0  0  0  0  0  0  0
    4.2460    1.7520   20.8250 C   0  0  0  0  0  0  0  0  0  0  0  0
   13.5248   -0.9382   25.1669 C   0  0  0  0  0  0  0  0  0  0  0  0
   12.3686   -0.1989   24.9176 C   0  0  0  0  0  0  0  0  0  0  0  0
    4.6610    1.7170   18.4380 C   0  0  0  0  0  0  0  0  0  0  0  0
    5.3890    1.0010   21.0690 C   0  0  0  0  0  0  0  0  0  0  0  0
    9.1890   -3.5540   24.0140 C   0  0  0  0  0  0  0  0  0  0  0  0
    7.8700   -2.0610   25.3550 C   0  0  0  0  0  0  0  0  0  0  0  0
    9.5890   -2.4950   23.2210 C   0  0  0  0  0  0  0  0  0  0  0  0
    8.2550   -1.0010   24.5520 C   0  0  0  0  0  0  0  0  0  0  0  0
   14.2063   -1.5442   24.1114 C   0  0  0  0  0  0  0  0  0  0  0  0
   12.5752   -0.6716   22.5573 C   0  0  0  0  0  0  0  0  0  0  0  0
   11.8938   -0.0656   23.6128 C   0  0  0  0  0  0  0  0  0  0  0  0
    5.7970    0.9500   18.6730 C   0  0  0  0  0  0  0  0  0  0  0  0
    6.1460    0.6070   19.9750 C   0  0  0  0  0  0  0  0  0  0  0  0
    8.3450   -3.3440   25.0980 C   0  0  0  0  0  0  0  0  0  0  0  0
    9.1280   -1.2090   23.4870 C   0  0  0  0  0  0  0  0  0  0  0  0
   13.7315   -1.4109   22.8066 C   0  0  0  0  0  0  0  0  0  0  0  0
    8.2014   -4.5567   27.2977 C   0  0  0  0  0  0  0  0  0  0  0  0
    9.0430    0.2380   21.4940 C   0  0  0  0  0  0  0  0  0  0  0  0
    7.8867   -6.0886   29.2876 C   0  0  0  0  0  0  0  0  0  0  0  0
   10.6485    0.7293   23.3453 C   0  0  0  0  0  0  0  0  0  0  0  0
    7.6333   -5.8733   27.8063 C   0  0  0  0  0  0  0  0  0  0  0  0
    8.0950   -0.7700   20.8440 C   0  0  0  0  0  0  0  0  0  0  0  0
    6.7100    0.3850   17.8100 N   0  0  0  0  0  0  0  0  0  0  0  0
    7.5840   -0.2700   18.5160 N   0  0  0  0  0  0  0  0  0  0  0  0
    7.2710   -0.1460   19.8310 N   0  0  0  0  0  0  0  0  0  0  0  0
    7.9771   -4.4058   25.9196 N   0  0  0  0  0  0  0  0  0  0  0  0
    9.5820   -0.1080   22.7000 N   0  0  0  0  0  0  0  0  0  0  0  0
    8.7726   -3.7646   28.0400 O   0  0  0  0  0  0  0  0  0  0  0  0
    9.2950    1.3000   20.9480 O   0  0  0  0  0  0  0  0  0  0  0  0
   14.5721   -2.1598   21.5050 Cl  0  0  0  0  0  0  0  0  0  0  0  0
    2.9847    2.6930   19.3611 H   0  0  0  0  0  0  0  0  0  0  0  0
    3.6232    2.0694   21.6565 H   0  0  0  0  0  0  0  0  0  0  0  0
   13.8941   -1.0418   26.1831 H   0  0  0  0  0  0  0  0  0  0  0  0
   11.8439    0.2698   25.7461 H   0  0  0  0  0  0  0  0  0  0  0  0
    4.3785    2.0112   17.4257 H   0  0  0  0  0  0  0  0  0  0  0  0
    5.6780    0.7321   22.0906 H   0  0  0  0  0  0  0  0  0  0  0  0
    9.5436   -4.5614   23.7799 H   0  0  0  0  0  0  0  0  0  0  0  0
    7.1918   -1.8823   26.1906 H   0  0  0  0  0  0  0  0  0  0  0  0
   10.2676   -2.6754   22.3861 H   0  0  0  0  0  0  0  0  0  0  0  0
    7.8686   -0.0026   24.7598 H   0  0  0  0  0  0  0  0  0  0  0  0
   15.1060   -2.1176   24.3206 H   0  0  0  0  0  0  0  0  0  0  0  0
   12.2013   -0.5643   21.5417 H   0  0  0  0  0  0  0  0  0  0  0  0
    8.9593   -6.0834   29.5079 H   0  0  0  0  0  0  0  0  0  0  0  0
    7.4763   -7.0510   29.6084 H   0  0  0  0  0  0  0  0  0  0  0  0
    7.4174   -5.3003   29.8854 H   0  0  0  0  0  0  0  0  0  0  0  0
   10.2407    1.1336   24.2782 H   0  0  0  0  0  0  0  0  0  0  0  0
   10.8584    1.5788   22.6869 H   0  0  0  0  0  0  0  0  0  0  0  0
    6.5541   -5.8831   27.6149 H   0  0  0  0  0  0  0  0  0  0  0  0
    8.0870   -6.6914   27.2350 H   0  0  0  0  0  0  0  0  0  0  0  0
    8.6619   -1.5627   20.3589 H   0  0  0  0  0  0  0  0  0  0  0  0
    7.4230   -1.1880   21.5916 H   0  0  0  0  0  0  0  0  0  0  0  0
    7.4775   -5.1796   25.4661 H   0  0  0  0  0  0  0  0  0  0  0  0
  1  2  1  0  0  0  0
  1  5  2  0  0  0  0
  2  6  2  0  0  0  0
  3  4  2  0  0  0  0
  3 11  1  0  0  0  0
  4 13  1  0  0  0  0
  5 14  1  0  0  0  0
  6 15  1  0  0  0  0
  7  9  2  0  0  0  0
  7 16  1  0  0  0  0
  8 10  1  0  0  0  0
  8 16  2  0  0  0  0
  9 17  1  0  0  0  0
 10 17  2  0  0  0  0
 11 18  2  0  0  0  0
 12 13  2  0  0  0  0
 12 18  1  0  0  0  0
 13 22  1  0  0  0  0
 14 15  2  0  0  0  0
 14 25  1  0  0  0  0
 15 27  1  0  0  0  0
 16 28  1  0  0  0  0
 17 29  1  0  0  0  0
 18 32  1  0  0  0  0
 19 23  1  0  0  0  0
 19 28  1  0  0  0  0
 19 30  2  0  0  0  0
 20 24  1  0  0  0  0
 20 29  1  0  0  0  0
 20 31  2  0  0  0  0
 21 23  1  0  0  0  0
 22 29  1  0  0  0  0
 24 27  1  0  0  0  0
 25 26  2  0  0  0  0
 26 27  1  0  0  0  0
  1 33  1  0  0  0  0
  2 34  1  0  0  0  0
  3 35  1  0  0  0  0
  4 36  1  0  0  0  0
  5 37  1  0  0  0  0
  6 38  1  0  0  0  0
  7 39  1  0  0  0  0
  8 40  1  0  0  0  0
  9 41  1  0  0  0  0
 10 42  1  0  0  0  0
 11 43  1  0  0  0  0
 12 44  1  0  0  0  0
 21 45  1  0  0  0  0
 21 46  1  0  0  0  0
 21 47  1  0  0  0  0
 22 48  1  0  0  0  0
 22 49  1  0  0  0  0
 23 50  1  0  0  0  0
 23 51  1  0  0  0  0
 24 52  1  0  0  0  0
 24 53  1  0  0  0  0
 28 54  1  0  0  0  0
M  END
> <clash_score>
0

> <docking_score>
-8.633758544921875

> <overlap_score>
1.0021398067474365

$$$$
BENZO_343_1
  -OEChem-08232013553D

 54 57  0     0  0  0  0  0  0999 V2000
    3.8860    2.1050   19.5250 C   0  0  0  0  0  0  0  0  0  0  0  0
    4.2460    1.7520   20.8250 C   0  0  0  0  0  0  0  0  0  0  0  0
    4.6610    1.7170   18.4380 C   0  0  0  0  0  0  0  0  0  0  0  0
    5.3890    1.0010   21.0690 C   0  0  0  0  0  0  0  0  0  0  0  0
    9.1890   -3.5540   24.0140 C   0  0  0  0  0  0  0  0  0  0  0  0
    7.8700   -2.0610   25.3550 C   0  0  0  0  0  0  0  0  0  0  0  0
    9.5890   -2.4950   23.2210 C   0  0  0  0  0  0  0  0  0  0  0  0
    8.2550   -1.0010   24.5520 C   0  0  0  0  0  0  0  0  0  0  0  0
   13.1924    0.4451   23.8720 C   0  0  0  0  0  0  0  0  0  0  0  0
   12.3814   -0.8861   22.3211 C   0  0  0  0  0  0  0  0  0  0  0  0
   12.0103    0.1191   23.1805 C   0  0  0  0  0  0  0  0  0  0  0  0
    5.7970    0.9500   18.6730 C   0  0  0  0  0  0  0  0  0  0  0  0
    6.1460    0.6070   19.9750 C   0  0  0  0  0  0  0  0  0  0  0  0
    8.3450   -3.3440   25.0980 C   0  0  0  0  0  0  0  0  0  0  0  0
    9.1280   -1.2090   23.4870 C   0  0  0  0  0  0  0  0  0  0  0  0
    7.6596   -4.3770   27.2873 C   0  0  0  0  0  0  0  0  0  0  0  0
    9.0430    0.2380   21.4940 C   0  0  0  0  0  0  0  0  0  0  0  0
    8.4367   -6.7651   27.6016 C   0  0  0  0  0  0  0  0  0  0  0  0
   14.5505   -2.0571   21.8714 C   0  0  0  0  0  0  0  0  0  0  0  0
   10.6485    0.7293   23.3453 C   0  0  0  0  0  0  0  0  0  0  0  0
    7.3107   -5.7663   27.8001 C   0  0  0  0  0  0  0  0  0  0  0  0
    8.0950   -0.7700   20.8440 C   0  0  0  0  0  0  0  0  0  0  0  0
   14.2362   -0.2932   23.4855 N   0  0  0  0  0  0  0  0  0  0  0  0
    6.7100    0.3850   17.8100 N   0  0  0  0  0  0  0  0  0  0  0  0
    7.5840   -0.2700   18.5160 N   0  0  0  0  0  0  0  0  0  0  0  0
   13.7112   -1.0932   22.5419 N   0  0  0  0  0  0  0  0  0  0  0  0
    7.2710   -0.1460   19.8310 N   0  0  0  0  0  0  0  0  0  0  0  0
    7.9771   -4.4058   25.9196 N   0  0  0  0  0  0  0  0  0  0  0  0
    9.5820   -0.1080   22.7000 N   0  0  0  0  0  0  0  0  0  0  0  0
    7.6486   -3.3920   28.0182 O   0  0  0  0  0  0  0  0  0  0  0  0
    9.2950    1.3000   20.9480 O   0  0  0  0  0  0  0  0  0  0  0  0
    2.9847    2.6930   19.3611 H   0  0  0  0  0  0  0  0  0  0  0  0
    3.6232    2.0694   21.6565 H   0  0  0  0  0  0  0  0  0  0  0  0
    4.3785    2.0112   17.4257 H   0  0  0  0  0  0  0  0  0  0  0  0
    5.6780    0.7321   22.0906 H   0  0  0  0  0  0  0  0  0  0  0  0
    9.5436   -4.5614   23.7799 H   0  0  0  0  0  0  0  0  0  0  0  0
    7.1918   -1.8823   26.1906 H   0  0  0  0  0  0  0  0  0  0  0  0
   10.2676   -2.6754   22.3861 H   0  0  0  0  0  0  0  0  0  0  0  0
    7.8686   -0.0026   24.7598 H   0  0  0  0  0  0  0  0  0  0  0  0
   13.3390    1.1888   24.6425 H   0  0  0  0  0  0  0  0  0  0  0  0
   11.8259   -1.4583   21.5905 H   0  0  0  0  0  0  0  0  0  0  0  0
    8.6971   -6.8587   26.5422 H   0  0  0  0  0  0  0  0  0  0  0  0
    8.1397   -7.7521   27.9693 H   0  0  0  0  0  0  0  0  0  0  0  0
    9.3369   -6.4552   28.1424 H   0  0  0  0  0  0  0  0  0  0  0  0
   14.9774   -1.5757   20.9876 H   0  0  0  0  0  0  0  0  0  0  0  0
   15.3438   -2.3835   22.5497 H   0  0  0  0  0  0  0  0  0  0  0  0
   13.9474   -2.9226   21.5829 H   0  0  0  0  0  0  0  0  0  0  0  0
   10.3982    0.8340   24.4066 H   0  0  0  0  0  0  0  0  0  0  0  0
   10.6098    1.7298   22.9018 H   0  0  0  0  0  0  0  0  0  0  0  0
    7.0713   -5.6928   28.8672 H   0  0  0  0  0  0  0  0  0  0  0  0
    6.4148   -6.1160   27.2743 H   0  0  0  0  0  0  0  0  0  0  0  0
    8.6619   -1.5627   20.3589 H   0  0  0  0  0  0  0  0  0  0  0  0
    7.4230   -1.1880   21.5916 H   0  0  0  0  0  0  0  0  0  0  0  0
    7.9297   -5.3297   25.4745 H   0  0  0  0  0  0  0  0  0  0  0  0
  1  2  1  0  0  0  0
  1  3  2  0  0  0  0
  2  4  2  0  0  0  0
  3 12  1  0  0  0  0
  4 13  1  0  0  0  0
  5  7  2  0  0  0  0
  5 14  1  0  0  0  0
  6  8  1  0  0  0  0
  6 14  2  0  0  0  0
  7 15  1  0  0  0  0
  8 15  2  0  0  0  0
  9 11  1  0  0  0  0
  9 23  2  0  0  0  0
 10 11  2  0  0  0  0
 10 26  1  0  0  0  0
 11 20  1  0  0  0  0
 12 13  2  0  0  0  0
 12 24  1  0  0  0  0
 13 27  1  0  0  0  0
 14 28  1  0  0  0  0
 15 29  1  0  0  0  0
 16 21  1  0  0  0  0
 16 28  1  0  0  0  0
 16 30  2  0  0  0  0
 17 22  1  0  0  0  0
 17 29  1  0  0  0  0
 17 31  2  0  0  0  0
 18 21  1  0  0  0  0
 19 26  1  0  0  0  0
 20 29  1  0  0  0  0
 22 27  1  0  0  0  0
 23 26  1  0  0  0  0
 24 25  2  0  0  0  0
 25 27  1  0  0  0  0
  1 32  1  0  0  0  0
  2 33  1  0  0  0  0
  3 34  1  0  0  0  0
  4 35  1  0  0  0  0
  5 36  1  0  0  0  0
  6 37  1  0  0  0  0
  7 38  1  0  0  0  0
  8 39  1  0  0  0  0
  9 40  1  0  0  0  0
 10 41  1  0  0  0  0
 18 42  1  0  0  0  0
 18 43  1  0  0  0  0
 18 44  1  0  0  0  0
 19 45  1  0  0  0  0
 19 46  1  0  0  0  0
 19 47  1  0  0  0  0
 20 48  1  0  0  0  0
 20 49  1  0  0  0  0
 21 50  1  0  0  0  0
 21 51  1  0  0  0  0
 22 52  1  0  0  0  0
 22 53  1  0  0  0  0
 28 54  1  0  0  0  0
M  END
> <clash_score>
0

> <docking_score>
-9.147439956665039

> <overlap_score>
0.9738084077835083

$$$$
BENZO_347_1
  -OEChem-08232013553D

 59 63  0     0  0  0  0  0  0999 V2000
    3.8860    2.1050   19.5250 C   0  0  0  0  0  0  0  0  0  0  0  0
    4.2460    1.7520   20.8250 C   0  0  0  0  0  0  0  0  0  0  0  0
    4.6610    1.7170   18.4380 C   0  0  0  0  0  0  0  0  0  0  0  0
    5.3890    1.0010   21.0690 C   0  0  0  0  0  0  0  0  0  0  0  0
    9.1890   -3.5540   24.0140 C   0  0  0  0  0  0  0  0  0  0  0  0
    7.8700   -2.0610   25.3550 C   0  0  0  0  0  0  0  0  0  0  0  0
    9.5890   -2.4950   23.2210 C   0  0  0  0  0  0  0  0  0  0  0  0
    8.2550   -1.0010   24.5520 C   0  0  0  0  0  0  0  0  0  0  0  0
   13.2488    0.8981   23.0513 C   0  0  0  0  0  0  0  0  0  0  0  0
   12.4037   -1.1317   23.0825 C   0  0  0  0  0  0  0  0  0  0  0  0
   12.0371    0.1897   23.1601 C   0  0  0  0  0  0  0  0  0  0  0  0
    5.7970    0.9500   18.6730 C   0  0  0  0  0  0  0  0  0  0  0  0
    6.1460    0.6070   19.9750 C   0  0  0  0  0  0  0  0  0  0  0  0
    8.3450   -3.3440   25.0980 C   0  0  0  0  0  0  0  0  0  0  0  0
    9.1280   -1.2090   23.4870 C   0  0  0  0  0  0  0  0  0  0  0  0
    9.0430    0.2380   21.4940 C   0  0  0  0  0  0  0  0  0  0  0  0
    7.5748   -4.8280   28.7278 C   0  0  0  0  0  0  0  0  0  0  0  0
    8.9776   -4.7555   28.1204 C   0  0  0  0  0  0  0  0  0  0  0  0
    6.5554   -4.0713   27.8732 C   0  0  0  0  0  0  0  0  0  0  0  0
    8.9620   -5.1961   26.6568 C   0  0  0  0  0  0  0  0  0  0  0  0
    6.6009   -4.5253   26.4110 C   0  0  0  0  0  0  0  0  0  0  0  0
   14.6054   -2.2975   22.8141 C   0  0  0  0  0  0  0  0  0  0  0  0
   10.6542    0.7501   23.3264 C   0  0  0  0  0  0  0  0  0  0  0  0
    8.0950   -0.7700   20.8440 C   0  0  0  0  0  0  0  0  0  0  0  0
   14.3061    0.0933   22.9152 N   0  0  0  0  0  0  0  0  0  0  0  0
    6.7100    0.3850   17.8100 N   0  0  0  0  0  0  0  0  0  0  0  0
    7.5840   -0.2700   18.5160 N   0  0  0  0  0  0  0  0  0  0  0  0
   13.7599   -1.1344   22.9380 N   0  0  0  0  0  0  0  0  0  0  0  0
    7.2710   -0.1460   19.8310 N   0  0  0  0  0  0  0  0  0  0  0  0
    7.9770   -4.4029   25.9162 N   0  0  0  0  0  0  0  0  0  0  0  0
    9.5820   -0.1080   22.7000 N   0  0  0  0  0  0  0  0  0  0  0  0
    9.2950    1.3000   20.9480 O   0  0  0  0  0  0  0  0  0  0  0  0
    2.9847    2.6930   19.3611 H   0  0  0  0  0  0  0  0  0  0  0  0
    3.6232    2.0694   21.6565 H   0  0  0  0  0  0  0  0  0  0  0  0
    4.3785    2.0112   17.4257 H   0  0  0  0  0  0  0  0  0  0  0  0
    5.6780    0.7321   22.0906 H   0  0  0  0  0  0  0  0  0  0  0  0
    9.5426   -4.5618   23.7797 H   0  0  0  0  0  0  0  0  0  0  0  0
    7.1914   -1.8824   26.1903 H   0  0  0  0  0  0  0  0  0  0  0  0
   10.2669   -2.6745   22.3854 H   0  0  0  0  0  0  0  0  0  0  0  0
    7.8690   -0.0020   24.7587 H   0  0  0  0  0  0  0  0  0  0  0  0
   13.4081    1.9670   23.0662 H   0  0  0  0  0  0  0  0  0  0  0  0
   11.8295   -2.0475   23.1183 H   0  0  0  0  0  0  0  0  0  0  0  0
    7.2681   -5.8807   28.8239 H   0  0  0  0  0  0  0  0  0  0  0  0
    7.5891   -4.4101   29.7448 H   0  0  0  0  0  0  0  0  0  0  0  0
    9.3554   -3.7320   28.1920 H   0  0  0  0  0  0  0  0  0  0  0  0
    9.6558   -5.3943   28.6900 H   0  0  0  0  0  0  0  0  0  0  0  0
    5.5496   -4.2322   28.2751 H   0  0  0  0  0  0  0  0  0  0  0  0
    6.7545   -2.9948   27.9293 H   0  0  0  0  0  0  0  0  0  0  0  0
    9.9612   -5.0560   26.2363 H   0  0  0  0  0  0  0  0  0  0  0  0
    8.7097   -6.2583   26.5922 H   0  0  0  0  0  0  0  0  0  0  0  0
    6.2649   -5.5600   26.3335 H   0  0  0  0  0  0  0  0  0  0  0  0
    5.9271   -3.8964   25.8283 H   0  0  0  0  0  0  0  0  0  0  0  0
   14.6930   -2.5392   21.7516 H   0  0  0  0  0  0  0  0  0  0  0  0
   15.5893   -2.0793   23.2389 H   0  0  0  0  0  0  0  0  0  0  0  0
   14.1560   -3.1309   23.3612 H   0  0  0  0  0  0  0  0  0  0  0  0
   10.4084    0.8627   24.3880 H   0  0  0  0  0  0  0  0  0  0  0  0
   10.5737    1.7409   22.8670 H   0  0  0  0  0  0  0  0  0  0  0  0
    8.6688   -1.5655   20.3666 H   0  0  0  0  0  0  0  0  0  0  0  0
    7.4298   -1.1908   21.5994 H   0  0  0  0  0  0  0  0  0  0  0  0
  1  2  1  0  0  0  0
  1  3  2  0  0  0  0
  2  4  2  0  0  0  0
  3 12  1  0  0  0  0
  4 13  1  0  0  0  0
  5  7  2  0  0  0  0
  5 14  1  0  0  0  0
  6  8  1  0  0  0  0
  6 14  2  0  0  0  0
  7 15  1  0  0  0  0
  8 15  2  0  0  0  0
  9 11  1  0  0  0  0
  9 25  2  0  0  0  0
 10 11  2  0  0  0  0
 10 28  1  0  0  0  0
 11 23  1  0  0  0  0
 12 13  2  0  0  0  0
 12 26  1  0  0  0  0
 13 29  1  0  0  0  0
 14 30  1  0  0  0  0
 15 31  1  0  0  0  0
 16 24  1  0  0  0  0
 16 31  1  0  0  0  0
 16 32  2  0  0  0  0
 17 18  1  0  0  0  0
 17 19  1  0  0  0  0
 18 20  1  0  0  0  0
 19 21  1  0  0  0  0
 20 30  1  0  0  0  0
 21 30  1  0  0  0  0
 22 28  1  0  0  0  0
 23 31  1  0  0  0  0
 24 29  1  0  0  0  0
 25 28  1  0  0  0  0
 26 27  2  0  0  0  0
 27 29  1  0  0  0  0
  1 33  1  0  0  0  0
  2 34  1  0  0  0  0
  3 35  1  0  0  0  0
  4 36  1  0  0  0  0
  5 37  1  0  0  0  0
  6 38  1  0  0  0  0
  7 39  1  0  0  0  0
  8 40  1  0  0  0  0
  9 41  1  0  0  0  0
 10 42  1  0  0  0  0
 17 43  1  0  0  0  0
 17 44  1  0  0  0  0
 18 45  1  0  0  0  0
 18 46  1  0  0  0  0
 19 47  1  0  0  0  0
 19 48  1  0  0  0  0
 20 49  1  0  0  0  0
 20 50  1  0  0  0  0
 21 51  1  0  0  0  0
 21 52  1  0  0  0  0
 22 53  1  0  0  0  0
 22 54  1  0  0  0  0
 22 55  1  0  0  0  0
 23 56  1  0  0  0  0
 23 57  1  0  0  0  0
 24 58  1  0  0  0  0
 24 59  1  0  0  0  0
M  END
> <clash_score>
0

> <docking_score>
-10.62722110748291

> <overlap_score>
0.9660443663597107

$$$$
BENZO_346_1
  -OEChem-08232013553D

 59 63  0     0  0  0  0  0  0999 V2000
    3.8860    2.1050   19.5250 C   0  0  0  0  0  0  0  0  0  0  0  0
    4.2460    1.7520   20.8250 C   0  0  0  0  0  0  0  0  0  0  0  0
   13.6188   -0.7705   25.1349 C   0  0  0  0  0  0  0  0  0  0  0  0
   12.4324   -0.0795   24.8892 C   0  0  0  0  0  0  0  0  0  0  0  0
    4.6610    1.7170   18.4380 C   0  0  0  0  0  0  0  0  0  0  0  0
    5.3890    1.0010   21.0690 C   0  0  0  0  0  0  0  0  0  0  0  0
    9.1890   -3.5540   24.0140 C   0  0  0  0  0  0  0  0  0  0  0  0
    7.8700   -2.0610   25.3550 C   0  0  0  0  0  0  0  0  0  0  0  0
    9.5890   -2.4950   23.2210 C   0  0  0  0  0  0  0  0  0  0  0  0
    8.2550   -1.0010   24.5520 C   0  0  0  0  0  0  0  0  0  0  0  0
   14.3051   -1.3747   24.0815 C   0  0  0  0  0  0  0  0  0  0  0  0
   12.6182   -0.5971   22.5366 C   0  0  0  0  0  0  0  0  0  0  0  0
   11.9320    0.0072   23.5900 C   0  0  0  0  0  0  0  0  0  0  0  0
    5.7970    0.9500   18.6730 C   0  0  0  0  0  0  0  0  0  0  0  0
    6.1460    0.6070   19.9750 C   0  0  0  0  0  0  0  0  0  0  0  0
    8.3450   -3.3440   25.0980 C   0  0  0  0  0  0  0  0  0  0  0  0
    9.1280   -1.2090   23.4870 C   0  0  0  0  0  0  0  0  0  0  0  0
   13.8048   -1.2880   22.7823 C   0  0  0  0  0  0  0  0  0  0  0  0
    9.0430    0.2380   21.4940 C   0  0  0  0  0  0  0  0  0  0  0  0
    7.5748   -4.8280   28.7278 C   0  0  0  0  0  0  0  0  0  0  0  0
    8.9776   -4.7555   28.1204 C   0  0  0  0  0  0  0  0  0  0  0  0
    6.5554   -4.0713   27.8732 C   0  0  0  0  0  0  0  0  0  0  0  0
    8.9620   -5.1961   26.6568 C   0  0  0  0  0  0  0  0  0  0  0  0
    6.6009   -4.5253   26.4110 C   0  0  0  0  0  0  0  0  0  0  0  0
   10.6542    0.7501   23.3264 C   0  0  0  0  0  0  0  0  0  0  0  0
    8.0950   -0.7700   20.8440 C   0  0  0  0  0  0  0  0  0  0  0  0
    6.7100    0.3850   17.8100 N   0  0  0  0  0  0  0  0  0  0  0  0
    7.5840   -0.2700   18.5160 N   0  0  0  0  0  0  0  0  0  0  0  0
    7.2710   -0.1460   19.8310 N   0  0  0  0  0  0  0  0  0  0  0  0
    7.9770   -4.4029   25.9162 N   0  0  0  0  0  0  0  0  0  0  0  0
    9.5820   -0.1080   22.7000 N   0  0  0  0  0  0  0  0  0  0  0  0
    9.2950    1.3000   20.9480 O   0  0  0  0  0  0  0  0  0  0  0  0
   14.6512   -2.0347   21.4832 Cl  0  0  0  0  0  0  0  0  0  0  0  0
    2.9847    2.6930   19.3611 H   0  0  0  0  0  0  0  0  0  0  0  0
    3.6232    2.0694   21.6565 H   0  0  0  0  0  0  0  0  0  0  0  0
   14.0080   -0.8378   26.1467 H   0  0  0  0  0  0  0  0  0  0  0  0
   11.9042    0.3882   25.7160 H   0  0  0  0  0  0  0  0  0  0  0  0
    4.3785    2.0112   17.4257 H   0  0  0  0  0  0  0  0  0  0  0  0
    5.6780    0.7321   22.0906 H   0  0  0  0  0  0  0  0  0  0  0  0
    9.5426   -4.5618   23.7797 H   0  0  0  0  0  0  0  0  0  0  0  0
    7.1914   -1.8824   26.1903 H   0  0  0  0  0  0  0  0  0  0  0  0
   10.2669   -2.6745   22.3854 H   0  0  0  0  0  0  0  0  0  0  0  0
    7.8690   -0.0020   24.7587 H   0  0  0  0  0  0  0  0  0  0  0  0
   15.2285   -1.9102   24.2878 H   0  0  0  0  0  0  0  0  0  0  0  0
   12.2242   -0.5262   21.5253 H   0  0  0  0  0  0  0  0  0  0  0  0
    7.2681   -5.8807   28.8239 H   0  0  0  0  0  0  0  0  0  0  0  0
    7.5891   -4.4101   29.7448 H   0  0  0  0  0  0  0  0  0  0  0  0
    9.3554   -3.7320   28.1920 H   0  0  0  0  0  0  0  0  0  0  0  0
    9.6558   -5.3943   28.6900 H   0  0  0  0  0  0  0  0  0  0  0  0
    5.5496   -4.2322   28.2751 H   0  0  0  0  0  0  0  0  0  0  0  0
    6.7545   -2.9948   27.9293 H   0  0  0  0  0  0  0  0  0  0  0  0
    9.9612   -5.0560   26.2363 H   0  0  0  0  0  0  0  0  0  0  0  0
    8.7097   -6.2583   26.5922 H   0  0  0  0  0  0  0  0  0  0  0  0
    6.2649   -5.5600   26.3335 H   0  0  0  0  0  0  0  0  0  0  0  0
    5.9271   -3.8964   25.8283 H   0  0  0  0  0  0  0  0  0  0  0  0
   10.2469    1.1601   24.2571 H   0  0  0  0  0  0  0  0  0  0  0  0
   10.8221    1.5917   22.6463 H   0  0  0  0  0  0  0  0  0  0  0  0
    8.6688   -1.5655   20.3666 H   0  0  0  0  0  0  0  0  0  0  0  0
    7.4298   -1.1908   21.5994 H   0  0  0  0  0  0  0  0  0  0  0  0
  1  2  1  0  0  0  0
  1  5  2  0  0  0  0
  2  6  2  0  0  0  0
  3  4  2  0  0  0  0
  3 11  1  0  0  0  0
  4 13  1  0  0  0  0
  5 14  1  0  0  0  0
  6 15  1  0  0  0  0
  7  9  2  0  0  0  0
  7 16  1  0  0  0  0
  8 10  1  0  0  0  0
  8 16  2  0  0  0  0
  9 17  1  0  0  0  0
 10 17  2  0  0  0  0
 11 18  2  0  0  0  0
 12 13  2  0  0  0  0
 12 18  1  0  0  0  0
 13 25  1  0  0  0  0
 14 15  2  0  0  0  0
 14 27  1  0  0  0  0
 15 29  1  0  0  0  0
 16 30  1  0  0  0  0
 17 31  1  0  0  0  0
 18 33  1  0  0  0  0
 19 26  1  0  0  0  0
 19 31  1  0  0  0  0
 19 32  2  0  0  0  0
 20 21  1  0  0  0  0
 20 22  1  0  0  0  0
 21 23  1  0  0  0  0
 22 24  1  0  0  0  0
 23 30  1  0  0  0  0
 24 30  1  0  0  0  0
 25 31  1  0  0  0  0
 26 29  1  0  0  0  0
 27 28  2  0  0  0  0
 28 29  1  0  0  0  0
  1 34  1  0  0  0  0
  2 35  1  0  0  0  0
  3 36  1  0  0  0  0
  4 37  1  0  0  0  0
  5 38  1  0  0  0  0
  6 39  1  0  0  0  0
  7 40  1  0  0  0  0
  8 41  1  0  0  0  0
  9 42  1  0  0  0  0
 10 43  1  0  0  0  0
 11 44  1  0  0  0  0
 12 45  1  0  0  0  0
 20 46  1  0  0  0  0
 20 47  1  0  0  0  0
 21 48  1  0  0  0  0
 21 49  1  0  0  0  0
 22 50  1  0  0  0  0
 22 51  1  0  0  0  0
 23 52  1  0  0  0  0
 23 53  1  0  0  0  0
 24 54  1  0  0  0  0
 24 55  1  0  0  0  0
 25 56  1  0  0  0  0
 25 57  1  0  0  0  0
 26 58  1  0  0  0  0
 26 59  1  0  0  0  0
M  END
> <clash_score>
0

> <docking_score>
-8.972369194030762

> <overlap_score>
0.9888110756874084

$$$$
BENZO_349_1
  -OEChem-08232013553D

 47 50  0     0  0  0  0  0  0999 V2000
   14.5403   -1.0157   22.8733 C   0  0  0  0  0  0  0  0  0  0  0  0
   14.2560   -0.2389   23.9965 C   0  0  0  0  0  0  0  0  0  0  0  0
   13.5596   -1.2250   21.9037 C   0  0  0  0  0  0  0  0  0  0  0  0
    3.8860    2.1050   19.5250 C   0  0  0  0  0  0  0  0  0  0  0  0
    4.2460    1.7520   20.8250 C   0  0  0  0  0  0  0  0  0  0  0  0
   12.9911    0.3284   24.1501 C   0  0  0  0  0  0  0  0  0  0  0  0
   12.2946   -0.6577   22.0573 C   0  0  0  0  0  0  0  0  0  0  0  0
    9.1890   -3.5540   24.0140 C   0  0  0  0  0  0  0  0  0  0  0  0
    7.8700   -2.0610   25.3550 C   0  0  0  0  0  0  0  0  0  0  0  0
    4.6610    1.7170   18.4380 C   0  0  0  0  0  0  0  0  0  0  0  0
    5.3890    1.0010   21.0690 C   0  0  0  0  0  0  0  0  0  0  0  0
    9.5890   -2.4950   23.2210 C   0  0  0  0  0  0  0  0  0  0  0  0
    8.2550   -1.0010   24.5520 C   0  0  0  0  0  0  0  0  0  0  0  0
    8.3450   -3.3440   25.0980 C   0  0  0  0  0  0  0  0  0  0  0  0
   12.0103    0.1191   23.1805 C   0  0  0  0  0  0  0  0  0  0  0  0
    5.7970    0.9500   18.6730 C   0  0  0  0  0  0  0  0  0  0  0  0
    6.1460    0.6070   19.9750 C   0  0  0  0  0  0  0  0  0  0  0  0
    9.1280   -1.2090   23.4870 C   0  0  0  0  0  0  0  0  0  0  0  0
    9.0430    0.2380   21.4940 C   0  0  0  0  0  0  0  0  0  0  0  0
    7.9522   -4.4794   25.9764 C   0  0  0  0  0  0  0  0  0  0  0  0
   10.6485    0.7293   23.3453 C   0  0  0  0  0  0  0  0  0  0  0  0
    8.0950   -0.7700   20.8440 C   0  0  0  0  0  0  0  0  0  0  0  0
    6.7100    0.3850   17.8100 N   0  0  0  0  0  0  0  0  0  0  0  0
    7.5840   -0.2700   18.5160 N   0  0  0  0  0  0  0  0  0  0  0  0
    7.2710   -0.1460   19.8310 N   0  0  0  0  0  0  0  0  0  0  0  0
    9.5820   -0.1080   22.7000 N   0  0  0  0  0  0  0  0  0  0  0  0
    9.2950    1.3000   20.9480 O   0  0  0  0  0  0  0  0  0  0  0  0
   15.5257   -1.4563   22.7532 H   0  0  0  0  0  0  0  0  0  0  0  0
   15.0198   -0.0749   24.7510 H   0  0  0  0  0  0  0  0  0  0  0  0
   13.7809   -1.8288   21.0286 H   0  0  0  0  0  0  0  0  0  0  0  0
    2.9847    2.6930   19.3611 H   0  0  0  0  0  0  0  0  0  0  0  0
    3.6232    2.0694   21.6565 H   0  0  0  0  0  0  0  0  0  0  0  0
   12.7785    0.9321   25.0285 H   0  0  0  0  0  0  0  0  0  0  0  0
   11.5367   -0.8263   21.2968 H   0  0  0  0  0  0  0  0  0  0  0  0
    9.5403   -4.5627   23.7809 H   0  0  0  0  0  0  0  0  0  0  0  0
    7.1911   -1.8848   26.1904 H   0  0  0  0  0  0  0  0  0  0  0  0
    4.3785    2.0112   17.4257 H   0  0  0  0  0  0  0  0  0  0  0  0
    5.6780    0.7321   22.0906 H   0  0  0  0  0  0  0  0  0  0  0  0
   10.2682   -2.6746   22.3865 H   0  0  0  0  0  0  0  0  0  0  0  0
    7.8684   -0.0022   24.7594 H   0  0  0  0  0  0  0  0  0  0  0  0
    8.6668   -4.5891   26.8013 H   0  0  0  0  0  0  0  0  0  0  0  0
    6.9513   -4.3276   26.4010 H   0  0  0  0  0  0  0  0  0  0  0  0
    7.9196   -5.4231   25.4163 H   0  0  0  0  0  0  0  0  0  0  0  0
   10.3982    0.8340   24.4066 H   0  0  0  0  0  0  0  0  0  0  0  0
   10.6098    1.7298   22.9018 H   0  0  0  0  0  0  0  0  0  0  0  0
    8.6619   -1.5627   20.3589 H   0  0  0  0  0  0  0  0  0  0  0  0
    7.4230   -1.1880   21.5916 H   0  0  0  0  0  0  0  0  0  0  0  0
  1  2  1  0  0  0  0
  1  3  2  0  0  0  0
  2  6  2  0  0  0  0
  3  7  1  0  0  0  0
  4  5  1  0  0  0  0
  4 10  2  0  0  0  0
  5 11  2  0  0  0  0
  6 15  1  0  0  0  0
  7 15  2  0  0  0  0
  8 12  2  0  0  0  0
  8 14  1  0  0  0  0
  9 13  1  0  0  0  0
  9 14  2  0  0  0  0
 10 16  1  0  0  0  0
 11 17  1  0  0  0  0
 12 18  1  0  0  0  0
 13 18  2  0  0  0  0
 14 20  1  0  0  0  0
 15 21  1  0  0  0  0
 16 17  2  0  0  0  0
 16 23  1  0  0  0  0
 17 25  1  0  0  0  0
 18 26  1  0  0  0  0
 19 22  1  0  0  0  0
 19 26  1  0  0  0  0
 19 27  2  0  0  0  0
 21 26  1  0  0  0  0
 22 25  1  0  0  0  0
 23 24  2  0  0  0  0
 24 25  1  0  0  0  0
  1 28  1  0  0  0  0
  2 29  1  0  0  0  0
  3 30  1  0  0  0  0
  4 31  1  0  0  0  0
  5 32  1  0  0  0  0
  6 33  1  0  0  0  0
  7 34  1  0  0  0  0
  8 35  1  0  0  0  0
  9 36  1  0  0  0  0
 10 37  1  0  0  0  0
 11 38  1  0  0  0  0
 12 39  1  0  0  0  0
 13 40  1  0  0  0  0
 20 41  1  0  0  0  0
 20 42  1  0  0  0  0
 20 43  1  0  0  0  0
 21 44  1  0  0  0  0
 21 45  1  0  0  0  0
 22 46  1  0  0  0  0
 22 47  1  0  0  0  0
M  END
> <clash_score>
0

> <docking_score>
-8.858424186706543

> <overlap_score>
0.8905906677246094

$$$$
BENZO_348_1
  -OEChem-08232013553D

 44 47  0     0  0  0  0  0  0999 V2000
    3.8860    2.1050   19.5250 C   0  0  0  0  0  0  0  0  0  0  0  0
    4.2460    1.7520   20.8250 C   0  0  0  0  0  0  0  0  0  0  0  0
    9.1890   -3.5540   24.0140 C   0  0  0  0  0  0  0  0  0  0  0  0
    7.8700   -2.0610   25.3550 C   0  0  0  0  0  0  0  0  0  0  0  0
    4.6610    1.7170   18.4380 C   0  0  0  0  0  0  0  0  0  0  0  0
    5.3890    1.0010   21.0690 C   0  0  0  0  0  0  0  0  0  0  0  0
    9.5890   -2.4950   23.2210 C   0  0  0  0  0  0  0  0  0  0  0  0
    8.2550   -1.0010   24.5520 C   0  0  0  0  0  0  0  0  0  0  0  0
   12.6538   -0.7170   22.5987 C   0  0  0  0  0  0  0  0  0  0  0  0
   13.7476   -1.3763   23.1149 C   0  0  0  0  0  0  0  0  0  0  0  0
   12.4356   -0.2522   24.8656 C   0  0  0  0  0  0  0  0  0  0  0  0
    8.3450   -3.3440   25.0980 C   0  0  0  0  0  0  0  0  0  0  0  0
   11.8938   -0.0656   23.6128 C   0  0  0  0  0  0  0  0  0  0  0  0
    5.7970    0.9500   18.6730 C   0  0  0  0  0  0  0  0  0  0  0  0
    6.1460    0.6070   19.9750 C   0  0  0  0  0  0  0  0  0  0  0  0
    9.1280   -1.2090   23.4870 C   0  0  0  0  0  0  0  0  0  0  0  0
    9.0430    0.2380   21.4940 C   0  0  0  0  0  0  0  0  0  0  0  0
    7.9522   -4.4794   25.9764 C   0  0  0  0  0  0  0  0  0  0  0  0
   10.6485    0.7293   23.3453 C   0  0  0  0  0  0  0  0  0  0  0  0
    8.0950   -0.7700   20.8440 C   0  0  0  0  0  0  0  0  0  0  0  0
    6.7100    0.3850   17.8100 N   0  0  0  0  0  0  0  0  0  0  0  0
    7.5840   -0.2700   18.5160 N   0  0  0  0  0  0  0  0  0  0  0  0
    7.2710   -0.1460   19.8310 N   0  0  0  0  0  0  0  0  0  0  0  0
    9.5820   -0.1080   22.7000 N   0  0  0  0  0  0  0  0  0  0  0  0
    9.2950    1.3000   20.9480 O   0  0  0  0  0  0  0  0  0  0  0  0
   13.8549   -1.2089   24.8157 S   0  0  0  0  0  0  0  0  0  0  0  0
    2.9847    2.6930   19.3611 H   0  0  0  0  0  0  0  0  0  0  0  0
    3.6232    2.0694   21.6565 H   0  0  0  0  0  0  0  0  0  0  0  0
    9.5403   -4.5627   23.7809 H   0  0  0  0  0  0  0  0  0  0  0  0
    7.1911   -1.8848   26.1904 H   0  0  0  0  0  0  0  0  0  0  0  0
    4.3785    2.0112   17.4257 H   0  0  0  0  0  0  0  0  0  0  0  0
    5.6780    0.7321   22.0906 H   0  0  0  0  0  0  0  0  0  0  0  0
   10.2682   -2.6746   22.3865 H   0  0  0  0  0  0  0  0  0  0  0  0
    7.8684   -0.0022   24.7594 H   0  0  0  0  0  0  0  0  0  0  0  0
   12.4137   -0.7054   21.5430 H   0  0  0  0  0  0  0  0  0  0  0  0
   14.4883   -1.9488   22.5748 H   0  0  0  0  0  0  0  0  0  0  0  0
   12.0686    0.1247   25.8102 H   0  0  0  0  0  0  0  0  0  0  0  0
    8.6668   -4.5891   26.8013 H   0  0  0  0  0  0  0  0  0  0  0  0
    6.9513   -4.3276   26.4010 H   0  0  0  0  0  0  0  0  0  0  0  0
    7.9196   -5.4231   25.4163 H   0  0  0  0  0  0  0  0  0  0  0  0
   10.2407    1.1336   24.2782 H   0  0  0  0  0  0  0  0  0  0  0  0
   10.8584    1.5788   22.6869 H   0  0  0  0  0  0  0  0  0  0  0  0
    8.6619   -1.5627   20.3589 H   0  0  0  0  0  0  0  0  0  0  0  0
    7.4230   -1.1880   21.5916 H   0  0  0  0  0  0  0  0  0  0  0  0
  1  2  1  0  0  0  0
  1  5  2  0  0  0  0
  2  6  2  0  0  0  0
  3  7  2  0  0  0  0
  3 12  1  0  0  0  0
  4  8  1  0  0  0  0
  4 12  2  0  0  0  0
  5 14  1  0  0  0  0
  6 15  1  0  0  0  0
  7 16  1  0  0  0  0
  8 16  2  0  0  0  0
  9 10  2  0  0  0  0
  9 13  1  0  0  0  0
 10 26  1  0  0  0  0
 11 13  2  0  0  0  0
 11 26  1  0  0  0  0
 12 18  1  0  0  0  0
 13 19  1  0  0  0  0
 14 15  2  0  0  0  0
 14 21  1  0  0  0  0
 15 23  1  0  0  0  0
 16 24  1  0  0  0  0
 17 20  1  0  0  0  0
 17 24  1  0  0  0  0
 17 25  2  0  0  0  0
 19 24  1  0  0  0  0
 20 23  1  0  0  0  0
 21 22  2  0  0  0  0
 22 23  1  0  0  0  0
  1 27  1  0  0  0  0
  2 28  1  0  0  0  0
  3 29  1  0  0  0  0
  4 30  1  0  0  0  0
  5 31  1  0  0  0  0
  6 32  1  0  0  0  0
  7 33  1  0  0  0  0
  8 34  1  0  0  0  0
  9 35  1  0  0  0  0
 10 36  1  0  0  0  0
 11 37  1  0  0  0  0
 18 38  1  0  0  0  0
 18 39  1  0  0  0  0
 18 40  1  0  0  0  0
 19 41  1  0  0  0  0
 19 42  1  0  0  0  0
 20 43  1  0  0  0  0
 20 44  1  0  0  0  0
M  END
> <clash_score>
0

> <docking_score>
-8.694902420043945

> <overlap_score>
0.8788670301437378

$$$$
BENZO_351_1
  -OEChem-08232013553D

 47 50  0     0  0  0  0  0  0999 V2000
    3.8860    2.1050   19.5250 C   0  0  0  0  0  0  0  0  0  0  0  0
    4.2460    1.7520   20.8250 C   0  0  0  0  0  0  0  0  0  0  0  0
    9.1890   -3.5540   24.0140 C   0  0  0  0  0  0  0  0  0  0  0  0
    7.8700   -2.0610   25.3550 C   0  0  0  0  0  0  0  0  0  0  0  0
    4.6610    1.7170   18.4380 C   0  0  0  0  0  0  0  0  0  0  0  0
    5.3890    1.0010   21.0690 C   0  0  0  0  0  0  0  0  0  0  0  0
    9.5890   -2.4950   23.2210 C   0  0  0  0  0  0  0  0  0  0  0  0
    8.2550   -1.0010   24.5520 C   0  0  0  0  0  0  0  0  0  0  0  0
   13.1924    0.4451   23.8720 C   0  0  0  0  0  0  0  0  0  0  0  0
   12.3814   -0.8861   22.3211 C   0  0  0  0  0  0  0  0  0  0  0  0
    8.3450   -3.3440   25.0980 C   0  0  0  0  0  0  0  0  0  0  0  0
   12.0103    0.1191   23.1805 C   0  0  0  0  0  0  0  0  0  0  0  0
    5.7970    0.9500   18.6730 C   0  0  0  0  0  0  0  0  0  0  0  0
    6.1460    0.6070   19.9750 C   0  0  0  0  0  0  0  0  0  0  0  0
    9.1280   -1.2090   23.4870 C   0  0  0  0  0  0  0  0  0  0  0  0
    9.0430    0.2380   21.4940 C   0  0  0  0  0  0  0  0  0  0  0  0
    7.9522   -4.4794   25.9764 C   0  0  0  0  0  0  0  0  0  0  0  0
   14.5505   -2.0571   21.8714 C   0  0  0  0  0  0  0  0  0  0  0  0
   10.6485    0.7293   23.3453 C   0  0  0  0  0  0  0  0  0  0  0  0
    8.0950   -0.7700   20.8440 C   0  0  0  0  0  0  0  0  0  0  0  0
   14.2362   -0.2932   23.4855 N   0  0  0  0  0  0  0  0  0  0  0  0
    6.7100    0.3850   17.8100 N   0  0  0  0  0  0  0  0  0  0  0  0
    7.5840   -0.2700   18.5160 N   0  0  0  0  0  0  0  0  0  0  0  0
   13.7112   -1.0932   22.5419 N   0  0  0  0  0  0  0  0  0  0  0  0
    7.2710   -0.1460   19.8310 N   0  0  0  0  0  0  0  0  0  0  0  0
    9.5820   -0.1080   22.7000 N   0  0  0  0  0  0  0  0  0  0  0  0
    9.2950    1.3000   20.9480 O   0  0  0  0  0  0  0  0  0  0  0  0
    2.9847    2.6930   19.3611 H   0  0  0  0  0  0  0  0  0  0  0  0
    3.6232    2.0694   21.6565 H   0  0  0  0  0  0  0  0  0  0  0  0
    9.5403   -4.5627   23.7809 H   0  0  0  0  0  0  0  0  0  0  0  0
    7.1911   -1.8848   26.1904 H   0  0  0  0  0  0  0  0  0  0  0  0
    4.3785    2.0112   17.4257 H   0  0  0  0  0  0  0  0  0  0  0  0
    5.6780    0.7321   22.0906 H   0  0  0  0  0  0  0  0  0  0  0  0
   10.2682   -2.6746   22.3865 H   0  0  0  0  0  0  0  0  0  0  0  0
    7.8684   -0.0022   24.7594 H   0  0  0  0  0  0  0  0  0  0  0  0
   13.3390    1.1888   24.6425 H   0  0  0  0  0  0  0  0  0  0  0  0
   11.8259   -1.4583   21.5905 H   0  0  0  0  0  0  0  0  0  0  0  0
    8.6668   -4.5891   26.8013 H   0  0  0  0  0  0  0  0  0  0  0  0
    6.9513   -4.3276   26.4010 H   0  0  0  0  0  0  0  0  0  0  0  0
    7.9196   -5.4231   25.4163 H   0  0  0  0  0  0  0  0  0  0  0  0
   14.9774   -1.5757   20.9876 H   0  0  0  0  0  0  0  0  0  0  0  0
   15.3438   -2.3835   22.5497 H   0  0  0  0  0  0  0  0  0  0  0  0
   13.9474   -2.9226   21.5829 H   0  0  0  0  0  0  0  0  0  0  0  0
   10.3982    0.8340   24.4066 H   0  0  0  0  0  0  0  0  0  0  0  0
   10.6098    1.7298   22.9018 H   0  0  0  0  0  0  0  0  0  0  0  0
    8.6619   -1.5627   20.3589 H   0  0  0  0  0  0  0  0  0  0  0  0
    7.4230   -1.1880   21.5916 H   0  0  0  0  0  0  0  0  0  0  0  0
  1  2  1  0  0  0  0
  1  5  2  0  0  0  0
  2  6  2  0  0  0  0
  3  7  2  0  0  0  0
  3 11  1  0  0  0  0
  4  8  1  0  0  0  0
  4 11  2  0  0  0  0
  5 13  1  0  0  0  0
  6 14  1  0  0  0  0
  7 15  1  0  0  0  0
  8 15  2  0  0  0  0
  9 12  1  0  0  0  0
  9 21  2  0  0  0  0
 10 12  2  0  0  0  0
 10 24  1  0  0  0  0
 11 17  1  0  0  0  0
 12 19  1  0  0  0  0
 13 14  2  0  0  0  0
 13 22  1  0  0  0  0
 14 25  1  0  0  0  0
 15 26  1  0  0  0  0
 16 20  1  0  0  0  0
 16 26  1  0  0  0  0
 16 27  2  0  0  0  0
 18 24  1  0  0  0  0
 19 26  1  0  0  0  0
 20 25  1  0  0  0  0
 21 24  1  0  0  0  0
 22 23  2  0  0  0  0
 23 25  1  0  0  0  0
  1 28  1  0  0  0  0
  2 29  1  0  0  0  0
  3 30  1  0  0  0  0
  4 31  1  0  0  0  0
  5 32  1  0  0  0  0
  6 33  1  0  0  0  0
  7 34  1  0  0  0  0
  8 35  1  0  0  0  0
  9 36  1  0  0  0  0
 10 37  1  0  0  0  0
 17 38  1  0  0  0  0
 17 39  1  0  0  0  0
 17 40  1  0  0  0  0
 18 41  1  0  0  0  0
 18 42  1  0  0  0  0
 18 43  1  0  0  0  0
 19 44  1  0  0  0  0
 19 45  1  0  0  0  0
 20 46  1  0  0  0  0
 20 47  1  0  0  0  0
M  END
> <clash_score>
0

> <docking_score>
-9.118558883666992

> <overlap_score>
0.8901185989379883

$$$$
BENZO_350_1
  -OEChem-08232013553D

 47 50  0     0  0  0  0  0  0999 V2000
    3.8860    2.1050   19.5250 C   0  0  0  0  0  0  0  0  0  0  0  0
    4.2460    1.7520   20.8250 C   0  0  0  0  0  0  0  0  0  0  0  0
   13.5248   -0.9382   25.1669 C   0  0  0  0  0  0  0  0  0  0  0  0
   12.3686   -0.1989   24.9176 C   0  0  0  0  0  0  0  0  0  0  0  0
    9.1890   -3.5540   24.0140 C   0  0  0  0  0  0  0  0  0  0  0  0
    7.8700   -2.0610   25.3550 C   0  0  0  0  0  0  0  0  0  0  0  0
    4.6610    1.7170   18.4380 C   0  0  0  0  0  0  0  0  0  0  0  0
    5.3890    1.0010   21.0690 C   0  0  0  0  0  0  0  0  0  0  0  0
    9.5890   -2.4950   23.2210 C   0  0  0  0  0  0  0  0  0  0  0  0
    8.2550   -1.0010   24.5520 C   0  0  0  0  0  0  0  0  0  0  0  0
   14.2063   -1.5442   24.1114 C   0  0  0  0  0  0  0  0  0  0  0  0
   12.5752   -0.6716   22.5573 C   0  0  0  0  0  0  0  0  0  0  0  0
    8.3450   -3.3440   25.0980 C   0  0  0  0  0  0  0  0  0  0  0  0
   11.8938   -0.0656   23.6128 C   0  0  0  0  0  0  0  0  0  0  0  0
    5.7970    0.9500   18.6730 C   0  0  0  0  0  0  0  0  0  0  0  0
    6.1460    0.6070   19.9750 C   0  0  0  0  0  0  0  0  0  0  0  0
    9.1280   -1.2090   23.4870 C   0  0  0  0  0  0  0  0  0  0  0  0
   13.7315   -1.4109   22.8066 C   0  0  0  0  0  0  0  0  0  0  0  0
    9.0430    0.2380   21.4940 C   0  0  0  0  0  0  0  0  0  0  0  0
    7.9522   -4.4794   25.9764 C   0  0  0  0  0  0  0  0  0  0  0  0
   10.6485    0.7293   23.3453 C   0  0  0  0  0  0  0  0  0  0  0  0
    8.0950   -0.7700   20.8440 C   0  0  0  0  0  0  0  0  0  0  0  0
    6.7100    0.3850   17.8100 N   0  0  0  0  0  0  0  0  0  0  0  0
    7.5840   -0.2700   18.5160 N   0  0  0  0  0  0  0  0  0  0  0  0
    7.2710   -0.1460   19.8310 N   0  0  0  0  0  0  0  0  0  0  0  0
    9.5820   -0.1080   22.7000 N   0  0  0  0  0  0  0  0  0  0  0  0
    9.2950    1.3000   20.9480 O   0  0  0  0  0  0  0  0  0  0  0  0
   14.5721   -2.1598   21.5050 Cl  0  0  0  0  0  0  0  0  0  0  0  0
    2.9847    2.6930   19.3611 H   0  0  0  0  0  0  0  0  0  0  0  0
    3.6232    2.0694   21.6565 H   0  0  0  0  0  0  0  0  0  0  0  0
   13.8941   -1.0418   26.1831 H   0  0  0  0  0  0  0  0  0  0  0  0
   11.8439    0.2698   25.7461 H   0  0  0  0  0  0  0  0  0  0  0  0
    9.5403   -4.5627   23.7809 H   0  0  0  0  0  0  0  0  0  0  0  0
    7.1911   -1.8848   26.1904 H   0  0  0  0  0  0  0  0  0  0  0  0
    4.3785    2.0112   17.4257 H   0  0  0  0  0  0  0  0  0  0  0  0
    5.6780    0.7321   22.0906 H   0  0  0  0  0  0  0  0  0  0  0  0
   10.2682   -2.6746   22.3865 H   0  0  0  0  0  0  0  0  0  0  0  0
    7.8684   -0.0022   24.7594 H   0  0  0  0  0  0  0  0  0  0  0  0
   15.1060   -2.1176   24.3206 H   0  0  0  0  0  0  0  0  0  0  0  0
   12.2013   -0.5643   21.5417 H   0  0  0  0  0  0  0  0  0  0  0  0
    8.6668   -4.5891   26.8013 H   0  0  0  0  0  0  0  0  0  0  0  0
    6.9513   -4.3276   26.4010 H   0  0  0  0  0  0  0  0  0  0  0  0
    7.9196   -5.4231   25.4163 H   0  0  0  0  0  0  0  0  0  0  0  0
   10.2407    1.1336   24.2782 H   0  0  0  0  0  0  0  0  0  0  0  0
   10.8584    1.5788   22.6869 H   0  0  0  0  0  0  0  0  0  0  0  0
    8.6619   -1.5627   20.3589 H   0  0  0  0  0  0  0  0  0  0  0  0
    7.4230   -1.1880   21.5916 H   0  0  0  0  0  0  0  0  0  0  0  0
  1  2  1  0  0  0  0
  1  7  2  0  0  0  0
  2  8  2  0  0  0  0
  3  4  2  0  0  0  0
  3 11  1  0  0  0  0
  4 14  1  0  0  0  0
  5  9  2  0  0  0  0
  5 13  1  0  0  0  0
  6 10  1  0  0  0  0
  6 13  2  0  0  0  0
  7 15  1  0  0  0  0
  8 16  1  0  0  0  0
  9 17  1  0  0  0  0
 10 17  2  0  0  0  0
 11 18  2  0  0  0  0
 12 14  2  0  0  0  0
 12 18  1  0  0  0  0
 13 20  1  0  0  0  0
 14 21  1  0  0  0  0
 15 16  2  0  0  0  0
 15 23  1  0  0  0  0
 16 25  1  0  0  0  0
 17 26  1  0  0  0  0
 18 28  1  0  0  0  0
 19 22  1  0  0  0  0
 19 26  1  0  0  0  0
 19 27  2  0  0  0  0
 21 26  1  0  0  0  0
 22 25  1  0  0  0  0
 23 24  2  0  0  0  0
 24 25  1  0  0  0  0
  1 29  1  0  0  0  0
  2 30  1  0  0  0  0
  3 31  1  0  0  0  0
  4 32  1  0  0  0  0
  5 33  1  0  0  0  0
  6 34  1  0  0  0  0
  7 35  1  0  0  0  0
  8 36  1  0  0  0  0
  9 37  1  0  0  0  0
 10 38  1  0  0  0  0
 11 39  1  0  0  0  0
 12 40  1  0  0  0  0
 20 41  1  0  0  0  0
 20 42  1  0  0  0  0
 20 43  1  0  0  0  0
 21 44  1  0  0  0  0
 21 45  1  0  0  0  0
 22 46  1  0  0  0  0
 22 47  1  0  0  0  0
M  END
> <clash_score>
0

> <docking_score>
-8.091739654541016

> <overlap_score>
0.9014484286308289

$$$$
BENZO_353_1
  -OEChem-08232013553D

 48 51  0     0  0  0  0  0  0999 V2000
   14.2071   -1.5437   24.1090 C   0  0  0  0  0  0  0  0  0  0  0  0
   13.8706   -0.4752   24.9400 C   0  0  0  0  0  0  0  0  0  0  0  0
   13.3871   -1.8732   23.0298 C   0  0  0  0  0  0  0  0  0  0  0  0
    3.8860    2.1050   19.5250 C   0  0  0  0  0  0  0  0  0  0  0  0
    4.2460    1.7520   20.8250 C   0  0  0  0  0  0  0  0  0  0  0  0
   12.7139    0.2638   24.6919 C   0  0  0  0  0  0  0  0  0  0  0  0
   12.2304   -1.1341   22.7817 C   0  0  0  0  0  0  0  0  0  0  0  0
    4.6610    1.7170   18.4380 C   0  0  0  0  0  0  0  0  0  0  0  0
    5.3890    1.0010   21.0690 C   0  0  0  0  0  0  0  0  0  0  0  0
    9.5890   -2.4950   23.2210 C   0  0  0  0  0  0  0  0  0  0  0  0
    8.2550   -1.0010   24.5520 C   0  0  0  0  0  0  0  0  0  0  0  0
    9.1890   -3.5540   24.0140 C   0  0  0  0  0  0  0  0  0  0  0  0
    7.8700   -2.0610   25.3550 C   0  0  0  0  0  0  0  0  0  0  0  0
   11.8938   -0.0656   23.6128 C   0  0  0  0  0  0  0  0  0  0  0  0
    5.7970    0.9500   18.6730 C   0  0  0  0  0  0  0  0  0  0  0  0
    6.1460    0.6070   19.9750 C   0  0  0  0  0  0  0  0  0  0  0  0
    9.1280   -1.2090   23.4870 C   0  0  0  0  0  0  0  0  0  0  0  0
    8.3450   -3.3440   25.0980 C   0  0  0  0  0  0  0  0  0  0  0  0
    9.0430    0.2380   21.4940 C   0  0  0  0  0  0  0  0  0  0  0  0
    8.5124   -5.6657   25.5743 C   0  0  0  0  0  0  0  0  0  0  0  0
   10.6485    0.7293   23.3453 C   0  0  0  0  0  0  0  0  0  0  0  0
    8.0950   -0.7700   20.8440 C   0  0  0  0  0  0  0  0  0  0  0  0
    6.7100    0.3850   17.8100 N   0  0  0  0  0  0  0  0  0  0  0  0
    7.5840   -0.2700   18.5160 N   0  0  0  0  0  0  0  0  0  0  0  0
    7.2710   -0.1460   19.8310 N   0  0  0  0  0  0  0  0  0  0  0  0
    9.5820   -0.1080   22.7000 N   0  0  0  0  0  0  0  0  0  0  0  0
    9.2950    1.3000   20.9480 O   0  0  0  0  0  0  0  0  0  0  0  0
    7.9864   -4.3799   25.8996 O   0  0  0  0  0  0  0  0  0  0  0  0
   15.1085   -2.1182   24.3015 H   0  0  0  0  0  0  0  0  0  0  0  0
   14.5096   -0.2178   25.7797 H   0  0  0  0  0  0  0  0  0  0  0  0
   13.6494   -2.7043   22.3820 H   0  0  0  0  0  0  0  0  0  0  0  0
    2.9847    2.6930   19.3611 H   0  0  0  0  0  0  0  0  0  0  0  0
    3.6232    2.0694   21.6565 H   0  0  0  0  0  0  0  0  0  0  0  0
   12.4595    1.0946   25.3449 H   0  0  0  0  0  0  0  0  0  0  0  0
   11.5974   -1.3981   21.9387 H   0  0  0  0  0  0  0  0  0  0  0  0
    4.3785    2.0112   17.4257 H   0  0  0  0  0  0  0  0  0  0  0  0
    5.6780    0.7321   22.0906 H   0  0  0  0  0  0  0  0  0  0  0  0
   10.2678   -2.6746   22.3862 H   0  0  0  0  0  0  0  0  0  0  0  0
    7.8691   -0.0023   24.7606 H   0  0  0  0  0  0  0  0  0  0  0  0
    9.5404   -4.5633   23.7846 H   0  0  0  0  0  0  0  0  0  0  0  0
    7.1920   -1.8875   26.1914 H   0  0  0  0  0  0  0  0  0  0  0  0
    8.1469   -6.4023   26.2940 H   0  0  0  0  0  0  0  0  0  0  0  0
    9.6045   -5.6298   25.5962 H   0  0  0  0  0  0  0  0  0  0  0  0
    8.1789   -5.9428   24.5715 H   0  0  0  0  0  0  0  0  0  0  0  0
   10.2407    1.1336   24.2782 H   0  0  0  0  0  0  0  0  0  0  0  0
   10.8584    1.5788   22.6869 H   0  0  0  0  0  0  0  0  0  0  0  0
    8.6619   -1.5627   20.3589 H   0  0  0  0  0  0  0  0  0  0  0  0
    7.4230   -1.1880   21.5916 H   0  0  0  0  0  0  0  0  0  0  0  0
  1  2  1  0  0  0  0
  1  3  2  0  0  0  0
  2  6  2  0  0  0  0
  3  7  1  0  0  0  0
  4  5  1  0  0  0  0
  4  8  2  0  0  0  0
  5  9  2  0  0  0  0
  6 14  1  0  0  0  0
  7 14  2  0  0  0  0
  8 15  1  0  0  0  0
  9 16  1  0  0  0  0
 10 12  2  0  0  0  0
 10 17  1  0  0  0  0
 11 13  1  0  0  0  0
 11 17  2  0  0  0  0
 12 18  1  0  0  0  0
 13 18  2  0  0  0  0
 14 21  1  0  0  0  0
 15 16  2  0  0  0  0
 15 23  1  0  0  0  0
 16 25  1  0  0  0  0
 17 26  1  0  0  0  0
 18 28  1  0  0  0  0
 19 22  1  0  0  0  0
 19 26  1  0  0  0  0
 19 27  2  0  0  0  0
 20 28  1  0  0  0  0
 21 26  1  0  0  0  0
 22 25  1  0  0  0  0
 23 24  2  0  0  0  0
 24 25  1  0  0  0  0
  1 29  1  0  0  0  0
  2 30  1  0  0  0  0
  3 31  1  0  0  0  0
  4 32  1  0  0  0  0
  5 33  1  0  0  0  0
  6 34  1  0  0  0  0
  7 35  1  0  0  0  0
  8 36  1  0  0  0  0
  9 37  1  0  0  0  0
 10 38  1  0  0  0  0
 11 39  1  0  0  0  0
 12 40  1  0  0  0  0
 13 41  1  0  0  0  0
 20 42  1  0  0  0  0
 20 43  1  0  0  0  0
 20 44  1  0  0  0  0
 21 45  1  0  0  0  0
 21 46  1  0  0  0  0
 22 47  1  0  0  0  0
 22 48  1  0  0  0  0
M  END
> <clash_score>
0

> <docking_score>
-8.963591575622559

> <overlap_score>
0.9039702415466309

$$$$
BENZO_352_1
  -OEChem-08232013553D

 45 48  0     0  0  0  0  0  0999 V2000
    3.8860    2.1050   19.5250 C   0  0  0  0  0  0  0  0  0  0  0  0
    4.2460    1.7520   20.8250 C   0  0  0  0  0  0  0  0  0  0  0  0
    4.6610    1.7170   18.4380 C   0  0  0  0  0  0  0  0  0  0  0  0
    5.3890    1.0010   21.0690 C   0  0  0  0  0  0  0  0  0  0  0  0
    9.5890   -2.4950   23.2210 C   0  0  0  0  0  0  0  0  0  0  0  0
    8.2550   -1.0010   24.5520 C   0  0  0  0  0  0  0  0  0  0  0  0
    9.1890   -3.5540   24.0140 C   0  0  0  0  0  0  0  0  0  0  0  0
    7.8700   -2.0610   25.3550 C   0  0  0  0  0  0  0  0  0  0  0  0
   12.6538   -0.7170   22.5987 C   0  0  0  0  0  0  0  0  0  0  0  0
   13.7476   -1.3763   23.1149 C   0  0  0  0  0  0  0  0  0  0  0  0
   12.4356   -0.2522   24.8656 C   0  0  0  0  0  0  0  0  0  0  0  0
   11.8938   -0.0656   23.6128 C   0  0  0  0  0  0  0  0  0  0  0  0
    5.7970    0.9500   18.6730 C   0  0  0  0  0  0  0  0  0  0  0  0
    6.1460    0.6070   19.9750 C   0  0  0  0  0  0  0  0  0  0  0  0
    9.1280   -1.2090   23.4870 C   0  0  0  0  0  0  0  0  0  0  0  0
    8.3450   -3.3440   25.0980 C   0  0  0  0  0  0  0  0  0  0  0  0
    9.0430    0.2380   21.4940 C   0  0  0  0  0  0  0  0  0  0  0  0
    7.1173   -4.0855   26.9922 C   0  0  0  0  0  0  0  0  0  0  0  0
   10.6485    0.7293   23.3453 C   0  0  0  0  0  0  0  0  0  0  0  0
    8.0950   -0.7700   20.8440 C   0  0  0  0  0  0  0  0  0  0  0  0
    6.7100    0.3850   17.8100 N   0  0  0  0  0  0  0  0  0  0  0  0
    7.5840   -0.2700   18.5160 N   0  0  0  0  0  0  0  0  0  0  0  0
    7.2710   -0.1460   19.8310 N   0  0  0  0  0  0  0  0  0  0  0  0
    9.5820   -0.1080   22.7000 N   0  0  0  0  0  0  0  0  0  0  0  0
    9.2950    1.3000   20.9480 O   0  0  0  0  0  0  0  0  0  0  0  0
    7.9864   -4.3799   25.8996 O   0  0  0  0  0  0  0  0  0  0  0  0
   13.8549   -1.2089   24.8157 S   0  0  0  0  0  0  0  0  0  0  0  0
    2.9847    2.6930   19.3611 H   0  0  0  0  0  0  0  0  0  0  0  0
    3.6232    2.0694   21.6565 H   0  0  0  0  0  0  0  0  0  0  0  0
    4.3785    2.0112   17.4257 H   0  0  0  0  0  0  0  0  0  0  0  0
    5.6780    0.7321   22.0906 H   0  0  0  0  0  0  0  0  0  0  0  0
   10.2678   -2.6746   22.3862 H   0  0  0  0  0  0  0  0  0  0  0  0
    7.8691   -0.0023   24.7606 H   0  0  0  0  0  0  0  0  0  0  0  0
    9.5404   -4.5633   23.7846 H   0  0  0  0  0  0  0  0  0  0  0  0
    7.1920   -1.8875   26.1914 H   0  0  0  0  0  0  0  0  0  0  0  0
   12.4137   -0.7054   21.5430 H   0  0  0  0  0  0  0  0  0  0  0  0
   14.4883   -1.9488   22.5748 H   0  0  0  0  0  0  0  0  0  0  0  0
   12.0686    0.1247   25.8102 H   0  0  0  0  0  0  0  0  0  0  0  0
    6.9108   -5.0013   27.5514 H   0  0  0  0  0  0  0  0  0  0  0  0
    6.1851   -3.6594   26.6128 H   0  0  0  0  0  0  0  0  0  0  0  0
    7.6053   -3.3620   27.6496 H   0  0  0  0  0  0  0  0  0  0  0  0
   10.2407    1.1336   24.2782 H   0  0  0  0  0  0  0  0  0  0  0  0
   10.8584    1.5788   22.6869 H   0  0  0  0  0  0  0  0  0  0  0  0
    8.6619   -1.5627   20.3589 H   0  0  0  0  0  0  0  0  0  0  0  0
    7.4230   -1.1880   21.5916 H   0  0  0  0  0  0  0  0  0  0  0  0
  1  2  1  0  0  0  0
  1  3  2  0  0  0  0
  2  4  2  0  0  0  0
  3 13  1  0  0  0  0
  4 14  1  0  0  0  0
  5  7  2  0  0  0  0
  5 15  1  0  0  0  0
  6  8  1  0  0  0  0
  6 15  2  0  0  0  0
  7 16  1  0  0  0  0
  8 16  2  0  0  0  0
  9 10  2  0  0  0  0
  9 12  1  0  0  0  0
 10 27  1  0  0  0  0
 11 12  2  0  0  0  0
 11 27  1  0  0  0  0
 12 19  1  0  0  0  0
 13 14  2  0  0  0  0
 13 21  1  0  0  0  0
 14 23  1  0  0  0  0
 15 24  1  0  0  0  0
 16 26  1  0  0  0  0
 17 20  1  0  0  0  0
 17 24  1  0  0  0  0
 17 25  2  0  0  0  0
 18 26  1  0  0  0  0
 19 24  1  0  0  0  0
 20 23  1  0  0  0  0
 21 22  2  0  0  0  0
 22 23  1  0  0  0  0
  1 28  1  0  0  0  0
  2 29  1  0  0  0  0
  3 30  1  0  0  0  0
  4 31  1  0  0  0  0
  5 32  1  0  0  0  0
  6 33  1  0  0  0  0
  7 34  1  0  0  0  0
  8 35  1  0  0  0  0
  9 36  1  0  0  0  0
 10 37  1  0  0  0  0
 11 38  1  0  0  0  0
 18 39  1  0  0  0  0
 18 40  1  0  0  0  0
 18 41  1  0  0  0  0
 19 42  1  0  0  0  0
 19 43  1  0  0  0  0
 20 44  1  0  0  0  0
 20 45  1  0  0  0  0
M  END
> <clash_score>
0

> <docking_score>
-8.232613563537598

> <overlap_score>
0.8985605239868164

$$$$
BENZO_355_1
  -OEChem-08232013553D

 48 51  0     0  0  0  0  0  0999 V2000
    3.8860    2.1050   19.5250 C   0  0  0  0  0  0  0  0  0  0  0  0
    4.2460    1.7520   20.8250 C   0  0  0  0  0  0  0  0  0  0  0  0
    4.6610    1.7170   18.4380 C   0  0  0  0  0  0  0  0  0  0  0  0
    5.3890    1.0010   21.0690 C   0  0  0  0  0  0  0  0  0  0  0  0
    9.5890   -2.4950   23.2210 C   0  0  0  0  0  0  0  0  0  0  0  0
    8.2550   -1.0010   24.5520 C   0  0  0  0  0  0  0  0  0  0  0  0
    9.1890   -3.5540   24.0140 C   0  0  0  0  0  0  0  0  0  0  0  0
    7.8700   -2.0610   25.3550 C   0  0  0  0  0  0  0  0  0  0  0  0
   13.1924    0.4451   23.8720 C   0  0  0  0  0  0  0  0  0  0  0  0
   12.3814   -0.8861   22.3211 C   0  0  0  0  0  0  0  0  0  0  0  0
   12.0103    0.1191   23.1805 C   0  0  0  0  0  0  0  0  0  0  0  0
    5.7970    0.9500   18.6730 C   0  0  0  0  0  0  0  0  0  0  0  0
    6.1460    0.6070   19.9750 C   0  0  0  0  0  0  0  0  0  0  0  0
    9.1280   -1.2090   23.4870 C   0  0  0  0  0  0  0  0  0  0  0  0
    8.3450   -3.3440   25.0980 C   0  0  0  0  0  0  0  0  0  0  0  0
    9.0430    0.2380   21.4940 C   0  0  0  0  0  0  0  0  0  0  0  0
   14.5505   -2.0571   21.8714 C   0  0  0  0  0  0  0  0  0  0  0  0
    8.5124   -5.6657   25.5743 C   0  0  0  0  0  0  0  0  0  0  0  0
   10.6485    0.7293   23.3453 C   0  0  0  0  0  0  0  0  0  0  0  0
    8.0950   -0.7700   20.8440 C   0  0  0  0  0  0  0  0  0  0  0  0
   14.2362   -0.2932   23.4855 N   0  0  0  0  0  0  0  0  0  0  0  0
    6.7100    0.3850   17.8100 N   0  0  0  0  0  0  0  0  0  0  0  0
    7.5840   -0.2700   18.5160 N   0  0  0  0  0  0  0  0  0  0  0  0
   13.7112   -1.0932   22.5419 N   0  0  0  0  0  0  0  0  0  0  0  0
    7.2710   -0.1460   19.8310 N   0  0  0  0  0  0  0  0  0  0  0  0
    9.5820   -0.1080   22.7000 N   0  0  0  0  0  0  0  0  0  0  0  0
    9.2950    1.3000   20.9480 O   0  0  0  0  0  0  0  0  0  0  0  0
    7.9864   -4.3799   25.8996 O   0  0  0  0  0  0  0  0  0  0  0  0
    2.9847    2.6930   19.3611 H   0  0  0  0  0  0  0  0  0  0  0  0
    3.6232    2.0694   21.6565 H   0  0  0  0  0  0  0  0  0  0  0  0
    4.3785    2.0112   17.4257 H   0  0  0  0  0  0  0  0  0  0  0  0
    5.6780    0.7321   22.0906 H   0  0  0  0  0  0  0  0  0  0  0  0
   10.2678   -2.6746   22.3862 H   0  0  0  0  0  0  0  0  0  0  0  0
    7.8691   -0.0023   24.7606 H   0  0  0  0  0  0  0  0  0  0  0  0
    9.5404   -4.5633   23.7846 H   0  0  0  0  0  0  0  0  0  0  0  0
    7.1920   -1.8875   26.1914 H   0  0  0  0  0  0  0  0  0  0  0  0
   13.3390    1.1888   24.6425 H   0  0  0  0  0  0  0  0  0  0  0  0
   11.8259   -1.4583   21.5905 H   0  0  0  0  0  0  0  0  0  0  0  0
   14.9774   -1.5757   20.9876 H   0  0  0  0  0  0  0  0  0  0  0  0
   15.3438   -2.3835   22.5497 H   0  0  0  0  0  0  0  0  0  0  0  0
   13.9474   -2.9226   21.5829 H   0  0  0  0  0  0  0  0  0  0  0  0
    8.1469   -6.4023   26.2940 H   0  0  0  0  0  0  0  0  0  0  0  0
    9.6045   -5.6298   25.5962 H   0  0  0  0  0  0  0  0  0  0  0  0
    8.1789   -5.9428   24.5715 H   0  0  0  0  0  0  0  0  0  0  0  0
   10.3982    0.8340   24.4066 H   0  0  0  0  0  0  0  0  0  0  0  0
   10.6098    1.7298   22.9018 H   0  0  0  0  0  0  0  0  0  0  0  0
    8.6619   -1.5627   20.3589 H   0  0  0  0  0  0  0  0  0  0  0  0
    7.4230   -1.1880   21.5916 H   0  0  0  0  0  0  0  0  0  0  0  0
  1  2  1  0  0  0  0
  1  3  2  0  0  0  0
  2  4  2  0  0  0  0
  3 12  1  0  0  0  0
  4 13  1  0  0  0  0
  5  7  2  0  0  0  0
  5 14  1  0  0  0  0
  6  8  1  0  0  0  0
  6 14  2  0  0  0  0
  7 15  1  0  0  0  0
  8 15  2  0  0  0  0
  9 11  1  0  0  0  0
  9 21  2  0  0  0  0
 10 11  2  0  0  0  0
 10 24  1  0  0  0  0
 11 19  1  0  0  0  0
 12 13  2  0  0  0  0
 12 22  1  0  0  0  0
 13 25  1  0  0  0  0
 14 26  1  0  0  0  0
 15 28  1  0  0  0  0
 16 20  1  0  0  0  0
 16 26  1  0  0  0  0
 16 27  2  0  0  0  0
 17 24  1  0  0  0  0
 18 28  1  0  0  0  0
 19 26  1  0  0  0  0
 20 25  1  0  0  0  0
 21 24  1  0  0  0  0
 22 23  2  0  0  0  0
 23 25  1  0  0  0  0
  1 29  1  0  0  0  0
  2 30  1  0  0  0  0
  3 31  1  0  0  0  0
  4 32  1  0  0  0  0
  5 33  1  0  0  0  0
  6 34  1  0  0  0  0
  7 35  1  0  0  0  0
  8 36  1  0  0  0  0
  9 37  1  0  0  0  0
 10 38  1  0  0  0  0
 17 39  1  0  0  0  0
 17 40  1  0  0  0  0
 17 41  1  0  0  0  0
 18 42  1  0  0  0  0
 18 43  1  0  0  0  0
 18 44  1  0  0  0  0
 19 45  1  0  0  0  0
 19 46  1  0  0  0  0
 20 47  1  0  0  0  0
 20 48  1  0  0  0  0
M  END
> <clash_score>
0

> <docking_score>
-9.238755226135254

> <overlap_score>
0.9034032225608826

$$$$
BENZO_354_1
  -OEChem-08232013553D

 48 51  0     0  0  0  0  0  0999 V2000
    3.8860    2.1050   19.5250 C   0  0  0  0  0  0  0  0  0  0  0  0
    4.2460    1.7520   20.8250 C   0  0  0  0  0  0  0  0  0  0  0  0
   13.5248   -0.9382   25.1669 C   0  0  0  0  0  0  0  0  0  0  0  0
   12.3686   -0.1989   24.9176 C   0  0  0  0  0  0  0  0  0  0  0  0
    4.6610    1.7170   18.4380 C   0  0  0  0  0  0  0  0  0  0  0  0
    5.3890    1.0010   21.0690 C   0  0  0  0  0  0  0  0  0  0  0  0
    9.5890   -2.4950   23.2210 C   0  0  0  0  0  0  0  0  0  0  0  0
    8.2550   -1.0010   24.5520 C   0  0  0  0  0  0  0  0  0  0  0  0
    9.1890   -3.5540   24.0140 C   0  0  0  0  0  0  0  0  0  0  0  0
    7.8700   -2.0610   25.3550 C   0  0  0  0  0  0  0  0  0  0  0  0
   14.2063   -1.5442   24.1114 C   0  0  0  0  0  0  0  0  0  0  0  0
   12.5752   -0.6716   22.5573 C   0  0  0  0  0  0  0  0  0  0  0  0
   11.8938   -0.0656   23.6128 C   0  0  0  0  0  0  0  0  0  0  0  0
    5.7970    0.9500   18.6730 C   0  0  0  0  0  0  0  0  0  0  0  0
    6.1460    0.6070   19.9750 C   0  0  0  0  0  0  0  0  0  0  0  0
    9.1280   -1.2090   23.4870 C   0  0  0  0  0  0  0  0  0  0  0  0
    8.3450   -3.3440   25.0980 C   0  0  0  0  0  0  0  0  0  0  0  0
   13.7315   -1.4109   22.8066 C   0  0  0  0  0  0  0  0  0  0  0  0
    9.0430    0.2380   21.4940 C   0  0  0  0  0  0  0  0  0  0  0  0
    8.5124   -5.6657   25.5743 C   0  0  0  0  0  0  0  0  0  0  0  0
   10.6485    0.7293   23.3453 C   0  0  0  0  0  0  0  0  0  0  0  0
    8.0950   -0.7700   20.8440 C   0  0  0  0  0  0  0  0  0  0  0  0
    6.7100    0.3850   17.8100 N   0  0  0  0  0  0  0  0  0  0  0  0
    7.5840   -0.2700   18.5160 N   0  0  0  0  0  0  0  0  0  0  0  0
    7.2710   -0.1460   19.8310 N   0  0  0  0  0  0  0  0  0  0  0  0
    9.5820   -0.1080   22.7000 N   0  0  0  0  0  0  0  0  0  0  0  0
    9.2950    1.3000   20.9480 O   0  0  0  0  0  0  0  0  0  0  0  0
    7.9864   -4.3799   25.8996 O   0  0  0  0  0  0  0  0  0  0  0  0
   14.5721   -2.1598   21.5050 Cl  0  0  0  0  0  0  0  0  0  0  0  0
    2.9847    2.6930   19.3611 H   0  0  0  0  0  0  0  0  0  0  0  0
    3.6232    2.0694   21.6565 H   0  0  0  0  0  0  0  0  0  0  0  0
   13.8941   -1.0418   26.1831 H   0  0  0  0  0  0  0  0  0  0  0  0
   11.8439    0.2698   25.7461 H   0  0  0  0  0  0  0  0  0  0  0  0
    4.3785    2.0112   17.4257 H   0  0  0  0  0  0  0  0  0  0  0  0
    5.6780    0.7321   22.0906 H   0  0  0  0  0  0  0  0  0  0  0  0
   10.2678   -2.6746   22.3862 H   0  0  0  0  0  0  0  0  0  0  0  0
    7.8691   -0.0023   24.7606 H   0  0  0  0  0  0  0  0  0  0  0  0
    9.5404   -4.5633   23.7846 H   0  0  0  0  0  0  0  0  0  0  0  0
    7.1920   -1.8875   26.1914 H   0  0  0  0  0  0  0  0  0  0  0  0
   15.1060   -2.1176   24.3206 H   0  0  0  0  0  0  0  0  0  0  0  0
   12.2013   -0.5643   21.5417 H   0  0  0  0  0  0  0  0  0  0  0  0
    8.1469   -6.4023   26.2940 H   0  0  0  0  0  0  0  0  0  0  0  0
    9.6045   -5.6298   25.5962 H   0  0  0  0  0  0  0  0  0  0  0  0
    8.1789   -5.9428   24.5715 H   0  0  0  0  0  0  0  0  0  0  0  0
   10.2407    1.1336   24.2782 H   0  0  0  0  0  0  0  0  0  0  0  0
   10.8584    1.5788   22.6869 H   0  0  0  0  0  0  0  0  0  0  0  0
    8.6619   -1.5627   20.3589 H   0  0  0  0  0  0  0  0  0  0  0  0
    7.4230   -1.1880   21.5916 H   0  0  0  0  0  0  0  0  0  0  0  0
  1  2  1  0  0  0  0
  1  5  2  0  0  0  0
  2  6  2  0  0  0  0
  3  4  2  0  0  0  0
  3 11  1  0  0  0  0
  4 13  1  0  0  0  0
  5 14  1  0  0  0  0
  6 15  1  0  0  0  0
  7  9  2  0  0  0  0
  7 16  1  0  0  0  0
  8 10  1  0  0  0  0
  8 16  2  0  0  0  0
  9 17  1  0  0  0  0
 10 17  2  0  0  0  0
 11 18  2  0  0  0  0
 12 13  2  0  0  0  0
 12 18  1  0  0  0  0
 13 21  1  0  0  0  0
 14 15  2  0  0  0  0
 14 23  1  0  0  0  0
 15 25  1  0  0  0  0
 16 26  1  0  0  0  0
 17 28  1  0  0  0  0
 18 29  1  0  0  0  0
 19 22  1  0  0  0  0
 19 26  1  0  0  0  0
 19 27  2  0  0  0  0
 20 28  1  0  0  0  0
 21 26  1  0  0  0  0
 22 25  1  0  0  0  0
 23 24  2  0  0  0  0
 24 25  1  0  0  0  0
  1 30  1  0  0  0  0
  2 31  1  0  0  0  0
  3 32  1  0  0  0  0
  4 33  1  0  0  0  0
  5 34  1  0  0  0  0
  6 35  1  0  0  0  0
  7 36  1  0  0  0  0
  8 37  1  0  0  0  0
  9 38  1  0  0  0  0
 10 39  1  0  0  0  0
 11 40  1  0  0  0  0
 12 41  1  0  0  0  0
 20 42  1  0  0  0  0
 20 43  1  0  0  0  0
 20 44  1  0  0  0  0
 21 45  1  0  0  0  0
 21 46  1  0  0  0  0
 22 47  1  0  0  0  0
 22 48  1  0  0  0  0
M  END
> <clash_score>
0

> <docking_score>
-8.211935043334961

> <overlap_score>
0.9147005081176758

$$$$
BENZO_357_1
  -OEChem-08232013553D

 58 62  0     0  0  0  0  0  0999 V2000
   14.2426   -1.4610   24.1314 C   0  0  0  0  0  0  0  0  0  0  0  0
   13.8952   -0.3779   24.9387 C   0  0  0  0  0  0  0  0  0  0  0  0
   13.4237   -1.8252   23.0625 C   0  0  0  0  0  0  0  0  0  0  0  0
    3.8860    2.1050   19.5250 C   0  0  0  0  0  0  0  0  0  0  0  0
    4.2460    1.7520   20.8250 C   0  0  0  0  0  0  0  0  0  0  0  0
   12.7289    0.3410   24.6772 C   0  0  0  0  0  0  0  0  0  0  0  0
   12.2574   -1.1063   22.8010 C   0  0  0  0  0  0  0  0  0  0  0  0
    4.6610    1.7170   18.4380 C   0  0  0  0  0  0  0  0  0  0  0  0
    5.3890    1.0010   21.0690 C   0  0  0  0  0  0  0  0  0  0  0  0
    9.1890   -3.5540   24.0140 C   0  0  0  0  0  0  0  0  0  0  0  0
    7.8700   -2.0610   25.3550 C   0  0  0  0  0  0  0  0  0  0  0  0
    9.5890   -2.4950   23.2210 C   0  0  0  0  0  0  0  0  0  0  0  0
    8.2550   -1.0010   24.5520 C   0  0  0  0  0  0  0  0  0  0  0  0
   11.9099   -0.0232   23.6083 C   0  0  0  0  0  0  0  0  0  0  0  0
    5.7970    0.9500   18.6730 C   0  0  0  0  0  0  0  0  0  0  0  0
    6.1460    0.6070   19.9750 C   0  0  0  0  0  0  0  0  0  0  0  0
    8.3450   -3.3440   25.0980 C   0  0  0  0  0  0  0  0  0  0  0  0
    9.1280   -1.2090   23.4870 C   0  0  0  0  0  0  0  0  0  0  0  0
    7.2752   -5.5548   25.4273 C   0  0  0  0  0  0  0  0  0  0  0  0
    9.0430    0.2380   21.4940 C   0  0  0  0  0  0  0  0  0  0  0  0
    7.1880   -6.7800   26.3209 C   0  0  0  0  0  0  0  0  0  0  0  0
    7.0916   -6.4753   27.7999 C   0  0  0  0  0  0  0  0  0  0  0  0
    8.2362   -5.5641   28.1841 C   0  0  0  0  0  0  0  0  0  0  0  0
    8.1241   -4.2655   27.4032 C   0  0  0  0  0  0  0  0  0  0  0  0
   10.6542    0.7501   23.3264 C   0  0  0  0  0  0  0  0  0  0  0  0
    8.0950   -0.7700   20.8440 C   0  0  0  0  0  0  0  0  0  0  0  0
    6.7100    0.3850   17.8100 N   0  0  0  0  0  0  0  0  0  0  0  0
    7.5840   -0.2700   18.5160 N   0  0  0  0  0  0  0  0  0  0  0  0
    7.2710   -0.1460   19.8310 N   0  0  0  0  0  0  0  0  0  0  0  0
    7.9635   -4.4452   25.9501 N   0  0  0  0  0  0  0  0  0  0  0  0
    9.5820   -0.1080   22.7000 N   0  0  0  0  0  0  0  0  0  0  0  0
    6.7947   -5.6299   24.2931 O   0  0  0  0  0  0  0  0  0  0  0  0
    9.2950    1.3000   20.9480 O   0  0  0  0  0  0  0  0  0  0  0  0
   15.1516   -2.0199   24.3344 H   0  0  0  0  0  0  0  0  0  0  0  0
   14.5333   -0.0935   25.7703 H   0  0  0  0  0  0  0  0  0  0  0  0
   13.6945   -2.6678   22.4332 H   0  0  0  0  0  0  0  0  0  0  0  0
    2.9847    2.6930   19.3611 H   0  0  0  0  0  0  0  0  0  0  0  0
    3.6232    2.0694   21.6565 H   0  0  0  0  0  0  0  0  0  0  0  0
   12.4660    1.1834   25.3116 H   0  0  0  0  0  0  0  0  0  0  0  0
   11.6254   -1.3974   21.9662 H   0  0  0  0  0  0  0  0  0  0  0  0
    4.3785    2.0112   17.4257 H   0  0  0  0  0  0  0  0  0  0  0  0
    5.6780    0.7321   22.0906 H   0  0  0  0  0  0  0  0  0  0  0  0
    9.5436   -4.5614   23.7799 H   0  0  0  0  0  0  0  0  0  0  0  0
    7.1918   -1.8823   26.1906 H   0  0  0  0  0  0  0  0  0  0  0  0
   10.2676   -2.6754   22.3861 H   0  0  0  0  0  0  0  0  0  0  0  0
    7.8686   -0.0026   24.7598 H   0  0  0  0  0  0  0  0  0  0  0  0
    6.3101   -7.3613   26.0164 H   0  0  0  0  0  0  0  0  0  0  0  0
    8.0752   -7.3922   26.1183 H   0  0  0  0  0  0  0  0  0  0  0  0
    6.1328   -5.9938   28.0269 H   0  0  0  0  0  0  0  0  0  0  0  0
    7.1363   -7.4051   28.3772 H   0  0  0  0  0  0  0  0  0  0  0  0
    8.2035   -5.3520   29.2586 H   0  0  0  0  0  0  0  0  0  0  0  0
    9.1990   -6.0474   27.9788 H   0  0  0  0  0  0  0  0  0  0  0  0
    7.2505   -3.6996   27.7511 H   0  0  0  0  0  0  0  0  0  0  0  0
    9.0155   -3.6525   27.5824 H   0  0  0  0  0  0  0  0  0  0  0  0
   10.2315    1.1514   24.2540 H   0  0  0  0  0  0  0  0  0  0  0  0
   10.8560    1.6003   22.6664 H   0  0  0  0  0  0  0  0  0  0  0  0
    8.6688   -1.5655   20.3666 H   0  0  0  0  0  0  0  0  0  0  0  0
    7.4298   -1.1908   21.5994 H   0  0  0  0  0  0  0  0  0  0  0  0
  1  2  1  0  0  0  0
  1  3  2  0  0  0  0
  2  6  2  0  0  0  0
  3  7  1  0  0  0  0
  4  5  1  0  0  0  0
  4  8  2  0  0  0  0
  5  9  2  0  0  0  0
  6 14  1  0  0  0  0
  7 14  2  0  0  0  0
  8 15  1  0  0  0  0
  9 16  1  0  0  0  0
 10 12  2  0  0  0  0
 10 17  1  0  0  0  0
 11 13  1  0  0  0  0
 11 17  2  0  0  0  0
 12 18  1  0  0  0  0
 13 18  2  0  0  0  0
 14 25  1  0  0  0  0
 15 16  2  0  0  0  0
 15 27  1  0  0  0  0
 16 29  1  0  0  0  0
 17 30  1  0  0  0  0
 18 31  1  0  0  0  0
 19 21  1  0  0  0  0
 19 30  1  0  0  0  0
 19 32  2  0  0  0  0
 20 26  1  0  0  0  0
 20 31  1  0  0  0  0
 20 33  2  0  0  0  0
 21 22  1  0  0  0  0
 22 23  1  0  0  0  0
 23 24  1  0  0  0  0
 24 30  1  0  0  0  0
 25 31  1  0  0  0  0
 26 29  1  0  0  0  0
 27 28  2  0  0  0  0
 28 29  1  0  0  0  0
  1 34  1  0  0  0  0
  2 35  1  0  0  0  0
  3 36  1  0  0  0  0
  4 37  1  0  0  0  0
  5 38  1  0  0  0  0
  6 39  1  0  0  0  0
  7 40  1  0  0  0  0
  8 41  1  0  0  0  0
  9 42  1  0  0  0  0
 10 43  1  0  0  0  0
 11 44  1  0  0  0  0
 12 45  1  0  0  0  0
 13 46  1  0  0  0  0
 21 47  1  0  0  0  0
 21 48  1  0  0  0  0
 22 49  1  0  0  0  0
 22 50  1  0  0  0  0
 23 51  1  0  0  0  0
 23 52  1  0  0  0  0
 24 53  1  0  0  0  0
 24 54  1  0  0  0  0
 25 55  1  0  0  0  0
 25 56  1  0  0  0  0
 26 57  1  0  0  0  0
 26 58  1  0  0  0  0
M  END
> <clash_score>
0

> <docking_score>
-8.627119064331055

> <overlap_score>
0.9846128225326538

$$$$
BENZO_356_1
  -OEChem-08232013553D

 55 59  0     0  0  0  0  0  0999 V2000
    3.8860    2.1050   19.5250 C   0  0  0  0  0  0  0  0  0  0  0  0
    4.2460    1.7520   20.8250 C   0  0  0  0  0  0  0  0  0  0  0  0
    4.6610    1.7170   18.4380 C   0  0  0  0  0  0  0  0  0  0  0  0
    5.3890    1.0010   21.0690 C   0  0  0  0  0  0  0  0  0  0  0  0
    9.1890   -3.5540   24.0140 C   0  0  0  0  0  0  0  0  0  0  0  0
    7.8700   -2.0610   25.3550 C   0  0  0  0  0  0  0  0  0  0  0  0
    9.5890   -2.4950   23.2210 C   0  0  0  0  0  0  0  0  0  0  0  0
    8.2550   -1.0010   24.5520 C   0  0  0  0  0  0  0  0  0  0  0  0
   12.4593   -0.1988   24.9112 C   0  0  0  0  0  0  0  0  0  0  0  0
   13.6148   -0.9483   24.8888 C   0  0  0  0  0  0  0  0  0  0  0  0
   12.6667   -0.6451   22.6396 C   0  0  0  0  0  0  0  0  0  0  0  0
   11.9099   -0.0232   23.6083 C   0  0  0  0  0  0  0  0  0  0  0  0
    5.7970    0.9500   18.6730 C   0  0  0  0  0  0  0  0  0  0  0  0
    6.1460    0.6070   19.9750 C   0  0  0  0  0  0  0  0  0  0  0  0
    8.3450   -3.3440   25.0980 C   0  0  0  0  0  0  0  0  0  0  0  0
    9.1280   -1.2090   23.4870 C   0  0  0  0  0  0  0  0  0  0  0  0
    7.2752   -5.5548   25.4273 C   0  0  0  0  0  0  0  0  0  0  0  0
    9.0430    0.2380   21.4940 C   0  0  0  0  0  0  0  0  0  0  0  0
    7.1880   -6.7800   26.3209 C   0  0  0  0  0  0  0  0  0  0  0  0
    7.0916   -6.4753   27.7999 C   0  0  0  0  0  0  0  0  0  0  0  0
    8.2362   -5.5641   28.1841 C   0  0  0  0  0  0  0  0  0  0  0  0
    8.1241   -4.2655   27.4032 C   0  0  0  0  0  0  0  0  0  0  0  0
   10.6542    0.7501   23.3264 C   0  0  0  0  0  0  0  0  0  0  0  0
    8.0950   -0.7700   20.8440 C   0  0  0  0  0  0  0  0  0  0  0  0
    6.7100    0.3850   17.8100 N   0  0  0  0  0  0  0  0  0  0  0  0
    7.5840   -0.2700   18.5160 N   0  0  0  0  0  0  0  0  0  0  0  0
    7.2710   -0.1460   19.8310 N   0  0  0  0  0  0  0  0  0  0  0  0
    7.9635   -4.4452   25.9501 N   0  0  0  0  0  0  0  0  0  0  0  0
    9.5820   -0.1080   22.7000 N   0  0  0  0  0  0  0  0  0  0  0  0
    6.7947   -5.6299   24.2931 O   0  0  0  0  0  0  0  0  0  0  0  0
    9.2950    1.3000   20.9480 O   0  0  0  0  0  0  0  0  0  0  0  0
   14.0331   -1.4368   23.3018 S   0  0  0  0  0  0  0  0  0  0  0  0
    2.9847    2.6930   19.3611 H   0  0  0  0  0  0  0  0  0  0  0  0
    3.6232    2.0694   21.6565 H   0  0  0  0  0  0  0  0  0  0  0  0
    4.3785    2.0112   17.4257 H   0  0  0  0  0  0  0  0  0  0  0  0
    5.6780    0.7321   22.0906 H   0  0  0  0  0  0  0  0  0  0  0  0
    9.5436   -4.5614   23.7799 H   0  0  0  0  0  0  0  0  0  0  0  0
    7.1918   -1.8823   26.1906 H   0  0  0  0  0  0  0  0  0  0  0  0
   10.2676   -2.6754   22.3861 H   0  0  0  0  0  0  0  0  0  0  0  0
    7.8686   -0.0026   24.7598 H   0  0  0  0  0  0  0  0  0  0  0  0
   12.0321    0.2030   25.8214 H   0  0  0  0  0  0  0  0  0  0  0  0
   14.2338   -1.2319   25.7283 H   0  0  0  0  0  0  0  0  0  0  0  0
   12.4868   -0.6739   21.5739 H   0  0  0  0  0  0  0  0  0  0  0  0
    6.3101   -7.3613   26.0164 H   0  0  0  0  0  0  0  0  0  0  0  0
    8.0752   -7.3922   26.1183 H   0  0  0  0  0  0  0  0  0  0  0  0
    6.1328   -5.9938   28.0269 H   0  0  0  0  0  0  0  0  0  0  0  0
    7.1363   -7.4051   28.3772 H   0  0  0  0  0  0  0  0  0  0  0  0
    8.2035   -5.3520   29.2586 H   0  0  0  0  0  0  0  0  0  0  0  0
    9.1990   -6.0474   27.9788 H   0  0  0  0  0  0  0  0  0  0  0  0
    7.2505   -3.6996   27.7511 H   0  0  0  0  0  0  0  0  0  0  0  0
    9.0155   -3.6525   27.5824 H   0  0  0  0  0  0  0  0  0  0  0  0
   10.2315    1.1514   24.2540 H   0  0  0  0  0  0  0  0  0  0  0  0
   10.8560    1.6003   22.6664 H   0  0  0  0  0  0  0  0  0  0  0  0
    8.6688   -1.5655   20.3666 H   0  0  0  0  0  0  0  0  0  0  0  0
    7.4298   -1.1908   21.5994 H   0  0  0  0  0  0  0  0  0  0  0  0
  1  2  1  0  0  0  0
  1  3  2  0  0  0  0
  2  4  2  0  0  0  0
  3 13  1  0  0  0  0
  4 14  1  0  0  0  0
  5  7  2  0  0  0  0
  5 15  1  0  0  0  0
  6  8  1  0  0  0  0
  6 15  2  0  0  0  0
  7 16  1  0  0  0  0
  8 16  2  0  0  0  0
  9 10  2  0  0  0  0
  9 12  1  0  0  0  0
 10 32  1  0  0  0  0
 11 12  2  0  0  0  0
 11 32  1  0  0  0  0
 12 23  1  0  0  0  0
 13 14  2  0  0  0  0
 13 25  1  0  0  0  0
 14 27  1  0  0  0  0
 15 28  1  0  0  0  0
 16 29  1  0  0  0  0
 17 19  1  0  0  0  0
 17 28  1  0  0  0  0
 17 30  2  0  0  0  0
 18 24  1  0  0  0  0
 18 29  1  0  0  0  0
 18 31  2  0  0  0  0
 19 20  1  0  0  0  0
 20 21  1  0  0  0  0
 21 22  1  0  0  0  0
 22 28  1  0  0  0  0
 23 29  1  0  0  0  0
 24 27  1  0  0  0  0
 25 26  2  0  0  0  0
 26 27  1  0  0  0  0
  1 33  1  0  0  0  0
  2 34  1  0  0  0  0
  3 35  1  0  0  0  0
  4 36  1  0  0  0  0
  5 37  1  0  0  0  0
  6 38  1  0  0  0  0
  7 39  1  0  0  0  0
  8 40  1  0  0  0  0
  9 41  1  0  0  0  0
 10 42  1  0  0  0  0
 11 43  1  0  0  0  0
 19 44  1  0  0  0  0
 19 45  1  0  0  0  0
 20 46  1  0  0  0  0
 20 47  1  0  0  0  0
 21 48  1  0  0  0  0
 21 49  1  0  0  0  0
 22 50  1  0  0  0  0
 22 51  1  0  0  0  0
 23 52  1  0  0  0  0
 23 53  1  0  0  0  0
 24 54  1  0  0  0  0
 24 55  1  0  0  0  0
M  END
> <clash_score>
0

> <docking_score>
-8.558536529541016

> <overlap_score>
0.9698922038078308

$$$$
BENZO_359_1
  -OEChem-08232013553D

 58 62  0     0  0  0  0  0  0999 V2000
    3.8860    2.1050   19.5250 C   0  0  0  0  0  0  0  0  0  0  0  0
    4.2460    1.7520   20.8250 C   0  0  0  0  0  0  0  0  0  0  0  0
    4.6610    1.7170   18.4380 C   0  0  0  0  0  0  0  0  0  0  0  0
    5.3890    1.0010   21.0690 C   0  0  0  0  0  0  0  0  0  0  0  0
    9.1890   -3.5540   24.0140 C   0  0  0  0  0  0  0  0  0  0  0  0
    7.8700   -2.0610   25.3550 C   0  0  0  0  0  0  0  0  0  0  0  0
    9.5890   -2.4950   23.2210 C   0  0  0  0  0  0  0  0  0  0  0  0
    8.2550   -1.0010   24.5520 C   0  0  0  0  0  0  0  0  0  0  0  0
   13.1960    0.4900   23.8753 C   0  0  0  0  0  0  0  0  0  0  0  0
   12.4111   -0.8490   22.3177 C   0  0  0  0  0  0  0  0  0  0  0  0
   12.0231    0.1527   23.1736 C   0  0  0  0  0  0  0  0  0  0  0  0
    5.7970    0.9500   18.6730 C   0  0  0  0  0  0  0  0  0  0  0  0
    6.1460    0.6070   19.9750 C   0  0  0  0  0  0  0  0  0  0  0  0
    8.3450   -3.3440   25.0980 C   0  0  0  0  0  0  0  0  0  0  0  0
    9.1280   -1.2090   23.4870 C   0  0  0  0  0  0  0  0  0  0  0  0
    7.2757   -5.5631   25.4492 C   0  0  0  0  0  0  0  0  0  0  0  0
    9.0430    0.2380   21.4940 C   0  0  0  0  0  0  0  0  0  0  0  0
    6.9626   -6.6001   26.5133 C   0  0  0  0  0  0  0  0  0  0  0  0
    6.3764   -5.9422   27.7501 C   0  0  0  0  0  0  0  0  0  0  0  0
    7.2660   -4.8258   28.2881 C   0  0  0  0  0  0  0  0  0  0  0  0
    8.4098   -4.4623   27.3426 C   0  0  0  0  0  0  0  0  0  0  0  0
   14.5950   -1.9995   21.8870 C   0  0  0  0  0  0  0  0  0  0  0  0
   10.6542    0.7501   23.3264 C   0  0  0  0  0  0  0  0  0  0  0  0
    8.0950   -0.7700   20.8440 C   0  0  0  0  0  0  0  0  0  0  0  0
   14.2501   -0.2385   23.4981 N   0  0  0  0  0  0  0  0  0  0  0  0
    6.7100    0.3850   17.8100 N   0  0  0  0  0  0  0  0  0  0  0  0
    7.5840   -0.2700   18.5160 N   0  0  0  0  0  0  0  0  0  0  0  0
   13.7409   -1.0435   22.5500 N   0  0  0  0  0  0  0  0  0  0  0  0
    7.2710   -0.1460   19.8310 N   0  0  0  0  0  0  0  0  0  0  0  0
    7.9658   -4.4384   25.9449 N   0  0  0  0  0  0  0  0  0  0  0  0
    9.5820   -0.1080   22.7000 N   0  0  0  0  0  0  0  0  0  0  0  0
    6.9858   -5.7908   24.2753 O   0  0  0  0  0  0  0  0  0  0  0  0
    9.2950    1.3000   20.9480 O   0  0  0  0  0  0  0  0  0  0  0  0
    2.9847    2.6930   19.3611 H   0  0  0  0  0  0  0  0  0  0  0  0
    3.6232    2.0694   21.6565 H   0  0  0  0  0  0  0  0  0  0  0  0
    4.3785    2.0112   17.4257 H   0  0  0  0  0  0  0  0  0  0  0  0
    5.6780    0.7321   22.0906 H   0  0  0  0  0  0  0  0  0  0  0  0
    9.5436   -4.5614   23.7799 H   0  0  0  0  0  0  0  0  0  0  0  0
    7.1918   -1.8823   26.1906 H   0  0  0  0  0  0  0  0  0  0  0  0
   10.2676   -2.6754   22.3861 H   0  0  0  0  0  0  0  0  0  0  0  0
    7.8686   -0.0026   24.7598 H   0  0  0  0  0  0  0  0  0  0  0  0
   13.3289    1.2351   24.6469 H   0  0  0  0  0  0  0  0  0  0  0  0
   11.8674   -1.4265   21.5823 H   0  0  0  0  0  0  0  0  0  0  0  0
    6.2500   -7.3027   26.1097 H   0  0  0  0  0  0  0  0  0  0  0  0
    7.8838   -7.1078   26.7574 H   0  0  0  0  0  0  0  0  0  0  0  0
    5.3690   -5.5363   27.5214 H   0  0  0  0  0  0  0  0  0  0  0  0
    6.2178   -6.7054   28.5384 H   0  0  0  0  0  0  0  0  0  0  0  0
    6.6498   -3.9225   28.4807 H   0  0  0  0  0  0  0  0  0  0  0  0
    7.6764   -5.1138   29.2803 H   0  0  0  0  0  0  0  0  0  0  0  0
    8.7796   -3.4700   27.5826 H   0  0  0  0  0  0  0  0  0  0  0  0
    9.2112   -5.1853   27.4497 H   0  0  0  0  0  0  0  0  0  0  0  0
   15.0250   -1.5142   21.0069 H   0  0  0  0  0  0  0  0  0  0  0  0
   15.3854   -2.3183   22.5723 H   0  0  0  0  0  0  0  0  0  0  0  0
   14.0027   -2.8707   21.5935 H   0  0  0  0  0  0  0  0  0  0  0  0
   10.3937    0.8526   24.3856 H   0  0  0  0  0  0  0  0  0  0  0  0
   10.6100    1.7501   22.8824 H   0  0  0  0  0  0  0  0  0  0  0  0
    8.6688   -1.5655   20.3666 H   0  0  0  0  0  0  0  0  0  0  0  0
    7.4298   -1.1908   21.5994 H   0  0  0  0  0  0  0  0  0  0  0  0
  1  2  1  0  0  0  0
  1  3  2  0  0  0  0
  2  4  2  0  0  0  0
  3 12  1  0  0  0  0
  4 13  1  0  0  0  0
  5  7  2  0  0  0  0
  5 14  1  0  0  0  0
  6  8  1  0  0  0  0
  6 14  2  0  0  0  0
  7 15  1  0  0  0  0
  8 15  2  0  0  0  0
  9 11  1  0  0  0  0
  9 25  2  0  0  0  0
 10 11  2  0  0  0  0
 10 28  1  0  0  0  0
 11 23  1  0  0  0  0
 12 13  2  0  0  0  0
 12 26  1  0  0  0  0
 13 29  1  0  0  0  0
 14 30  1  0  0  0  0
 15 31  1  0  0  0  0
 16 18  1  0  0  0  0
 16 30  1  0  0  0  0
 16 32  2  0  0  0  0
 17 24  1  0  0  0  0
 17 31  1  0  0  0  0
 17 33  2  0  0  0  0
 18 19  1  0  0  0  0
 19 20  1  0  0  0  0
 20 21  1  0  0  0  0
 21 30  1  0  0  0  0
 22 28  1  0  0  0  0
 23 31  1  0  0  0  0
 24 29  1  0  0  0  0
 25 28  1  0  0  0  0
 26 27  2  0  0  0  0
 27 29  1  0  0  0  0
  1 34  1  0  0  0  0
  2 35  1  0  0  0  0
  3 36  1  0  0  0  0
  4 37  1  0  0  0  0
  5 38  1  0  0  0  0
  6 39  1  0  0  0  0
  7 40  1  0  0  0  0
  8 41  1  0  0  0  0
  9 42  1  0  0  0  0
 10 43  1  0  0  0  0
 18 44  1  0  0  0  0
 18 45  1  0  0  0  0
 19 46  1  0  0  0  0
 19 47  1  0  0  0  0
 20 48  1  0  0  0  0
 20 49  1  0  0  0  0
 21 50  1  0  0  0  0
 21 51  1  0  0  0  0
 22 52  1  0  0  0  0
 22 53  1  0  0  0  0
 22 54  1  0  0  0  0
 23 55  1  0  0  0  0
 23 56  1  0  0  0  0
 24 57  1  0  0  0  0
 24 58  1  0  0  0  0
M  END
> <clash_score>
0

> <docking_score>
-9.009406089782715

> <overlap_score>
0.9764638543128967

$$$$
BENZO_358_1
  -OEChem-08232013553D

 58 62  0     0  0  0  0  0  0999 V2000
    3.8860    2.1050   19.5250 C   0  0  0  0  0  0  0  0  0  0  0  0
    4.2460    1.7520   20.8250 C   0  0  0  0  0  0  0  0  0  0  0  0
   13.5409   -0.8625   25.1806 C   0  0  0  0  0  0  0  0  0  0  0  0
   12.3750   -0.1434   24.9179 C   0  0  0  0  0  0  0  0  0  0  0  0
    4.6610    1.7170   18.4380 C   0  0  0  0  0  0  0  0  0  0  0  0
    5.3890    1.0010   21.0690 C   0  0  0  0  0  0  0  0  0  0  0  0
    9.1890   -3.5540   24.0140 C   0  0  0  0  0  0  0  0  0  0  0  0
    7.8700   -2.0610   25.3550 C   0  0  0  0  0  0  0  0  0  0  0  0
    9.5890   -2.4950   23.2210 C   0  0  0  0  0  0  0  0  0  0  0  0
    8.2550   -1.0010   24.5520 C   0  0  0  0  0  0  0  0  0  0  0  0
   14.2418   -1.4615   24.1338 C   0  0  0  0  0  0  0  0  0  0  0  0
   12.6107   -0.6221   22.5615 C   0  0  0  0  0  0  0  0  0  0  0  0
   11.9099   -0.0232   23.6083 C   0  0  0  0  0  0  0  0  0  0  0  0
    5.7970    0.9500   18.6730 C   0  0  0  0  0  0  0  0  0  0  0  0
    6.1460    0.6070   19.9750 C   0  0  0  0  0  0  0  0  0  0  0  0
    8.3450   -3.3440   25.0980 C   0  0  0  0  0  0  0  0  0  0  0  0
    9.1280   -1.2090   23.4870 C   0  0  0  0  0  0  0  0  0  0  0  0
   13.7767   -1.3413   22.8243 C   0  0  0  0  0  0  0  0  0  0  0  0
    7.2757   -5.5631   25.4492 C   0  0  0  0  0  0  0  0  0  0  0  0
    9.0430    0.2380   21.4940 C   0  0  0  0  0  0  0  0  0  0  0  0
    6.9626   -6.6001   26.5133 C   0  0  0  0  0  0  0  0  0  0  0  0
    6.3764   -5.9422   27.7501 C   0  0  0  0  0  0  0  0  0  0  0  0
    7.2660   -4.8258   28.2881 C   0  0  0  0  0  0  0  0  0  0  0  0
    8.4098   -4.4623   27.3426 C   0  0  0  0  0  0  0  0  0  0  0  0
   10.6542    0.7501   23.3264 C   0  0  0  0  0  0  0  0  0  0  0  0
    8.0950   -0.7700   20.8440 C   0  0  0  0  0  0  0  0  0  0  0  0
    6.7100    0.3850   17.8100 N   0  0  0  0  0  0  0  0  0  0  0  0
    7.5840   -0.2700   18.5160 N   0  0  0  0  0  0  0  0  0  0  0  0
    7.2710   -0.1460   19.8310 N   0  0  0  0  0  0  0  0  0  0  0  0
    7.9658   -4.4384   25.9449 N   0  0  0  0  0  0  0  0  0  0  0  0
    9.5820   -0.1080   22.7000 N   0  0  0  0  0  0  0  0  0  0  0  0
    6.9858   -5.7908   24.2753 O   0  0  0  0  0  0  0  0  0  0  0  0
    9.2950    1.3000   20.9480 O   0  0  0  0  0  0  0  0  0  0  0  0
   14.6412   -2.0814   21.5333 Cl  0  0  0  0  0  0  0  0  0  0  0  0
    2.9847    2.6930   19.3611 H   0  0  0  0  0  0  0  0  0  0  0  0
    3.6232    2.0694   21.6565 H   0  0  0  0  0  0  0  0  0  0  0  0
   13.9027   -0.9560   26.2005 H   0  0  0  0  0  0  0  0  0  0  0  0
   11.8353    0.3199   25.7397 H   0  0  0  0  0  0  0  0  0  0  0  0
    4.3785    2.0112   17.4257 H   0  0  0  0  0  0  0  0  0  0  0  0
    5.6780    0.7321   22.0906 H   0  0  0  0  0  0  0  0  0  0  0  0
    9.5436   -4.5614   23.7799 H   0  0  0  0  0  0  0  0  0  0  0  0
    7.1918   -1.8823   26.1906 H   0  0  0  0  0  0  0  0  0  0  0  0
   10.2676   -2.6754   22.3861 H   0  0  0  0  0  0  0  0  0  0  0  0
    7.8686   -0.0026   24.7598 H   0  0  0  0  0  0  0  0  0  0  0  0
   15.1489   -2.0192   24.3534 H   0  0  0  0  0  0  0  0  0  0  0  0
   12.2442   -0.5251   21.5422 H   0  0  0  0  0  0  0  0  0  0  0  0
    6.2500   -7.3027   26.1097 H   0  0  0  0  0  0  0  0  0  0  0  0
    7.8838   -7.1078   26.7574 H   0  0  0  0  0  0  0  0  0  0  0  0
    5.3690   -5.5363   27.5214 H   0  0  0  0  0  0  0  0  0  0  0  0
    6.2178   -6.7054   28.5384 H   0  0  0  0  0  0  0  0  0  0  0  0
    6.6498   -3.9225   28.4807 H   0  0  0  0  0  0  0  0  0  0  0  0
    7.6764   -5.1138   29.2803 H   0  0  0  0  0  0  0  0  0  0  0  0
    8.7796   -3.4700   27.5826 H   0  0  0  0  0  0  0  0  0  0  0  0
    9.2112   -5.1853   27.4497 H   0  0  0  0  0  0  0  0  0  0  0  0
   10.2315    1.1514   24.2540 H   0  0  0  0  0  0  0  0  0  0  0  0
   10.8560    1.6003   22.6664 H   0  0  0  0  0  0  0  0  0  0  0  0
    8.6688   -1.5655   20.3666 H   0  0  0  0  0  0  0  0  0  0  0  0
    7.4298   -1.1908   21.5994 H   0  0  0  0  0  0  0  0  0  0  0  0
  1  2  1  0  0  0  0
  1  5  2  0  0  0  0
  2  6  2  0  0  0  0
  3  4  2  0  0  0  0
  3 11  1  0  0  0  0
  4 13  1  0  0  0  0
  5 14  1  0  0  0  0
  6 15  1  0  0  0  0
  7  9  2  0  0  0  0
  7 16  1  0  0  0  0
  8 10  1  0  0  0  0
  8 16  2  0  0  0  0
  9 17  1  0  0  0  0
 10 17  2  0  0  0  0
 11 18  2  0  0  0  0
 12 13  2  0  0  0  0
 12 18  1  0  0  0  0
 13 25  1  0  0  0  0
 14 15  2  0  0  0  0
 14 27  1  0  0  0  0
 15 29  1  0  0  0  0
 16 30  1  0  0  0  0
 17 31  1  0  0  0  0
 18 34  1  0  0  0  0
 19 21  1  0  0  0  0
 19 30  1  0  0  0  0
 19 32  2  0  0  0  0
 20 26  1  0  0  0  0
 20 31  1  0  0  0  0
 20 33  2  0  0  0  0
 21 22  1  0  0  0  0
 22 23  1  0  0  0  0
 23 24  1  0  0  0  0
 24 30  1  0  0  0  0
 25 31  1  0  0  0  0
 26 29  1  0  0  0  0
 27 28  2  0  0  0  0
 28 29  1  0  0  0  0
  1 35  1  0  0  0  0
  2 36  1  0  0  0  0
  3 37  1  0  0  0  0
  4 38  1  0  0  0  0
  5 39  1  0  0  0  0
  6 40  1  0  0  0  0
  7 41  1  0  0  0  0
  8 42  1  0  0  0  0
  9 43  1  0  0  0  0
 10 44  1  0  0  0  0
 11 45  1  0  0  0  0
 12 46  1  0  0  0  0
 21 47  1  0  0  0  0
 21 48  1  0  0  0  0
 22 49  1  0  0  0  0
 22 50  1  0  0  0  0
 23 51  1  0  0  0  0
 23 52  1  0  0  0  0
 24 53  1  0  0  0  0
 24 54  1  0  0  0  0
 25 55  1  0  0  0  0
 25 56  1  0  0  0  0
 26 57  1  0  0  0  0
 26 58  1  0  0  0  0
M  END
> <clash_score>
0

> <docking_score>
-8.016801834106445

> <overlap_score>
0.9892028570175171

$$$$
BENZO_361_1
  -OEChem-08232013553D

 57 61  0     0  0  0  0  0  0999 V2000
   14.2335   -1.4764   24.1298 C   0  0  0  0  0  0  0  0  0  0  0  0
   13.8907   -0.3922   24.9376 C   0  0  0  0  0  0  0  0  0  0  0  0
   13.4129   -1.8367   23.0609 C   0  0  0  0  0  0  0  0  0  0  0  0
    3.8860    2.1050   19.5250 C   0  0  0  0  0  0  0  0  0  0  0  0
    4.2460    1.7520   20.8250 C   0  0  0  0  0  0  0  0  0  0  0  0
   12.7274    0.3317   24.6767 C   0  0  0  0  0  0  0  0  0  0  0  0
   12.2495   -1.1128   22.7999 C   0  0  0  0  0  0  0  0  0  0  0  0
    4.6610    1.7170   18.4380 C   0  0  0  0  0  0  0  0  0  0  0  0
    5.3890    1.0010   21.0690 C   0  0  0  0  0  0  0  0  0  0  0  0
    9.1890   -3.5540   24.0140 C   0  0  0  0  0  0  0  0  0  0  0  0
    7.8700   -2.0610   25.3550 C   0  0  0  0  0  0  0  0  0  0  0  0
    9.5890   -2.4950   23.2210 C   0  0  0  0  0  0  0  0  0  0  0  0
    8.2550   -1.0010   24.5520 C   0  0  0  0  0  0  0  0  0  0  0  0
   11.9067   -0.0285   23.6078 C   0  0  0  0  0  0  0  0  0  0  0  0
    5.7970    0.9500   18.6730 C   0  0  0  0  0  0  0  0  0  0  0  0
    6.1460    0.6070   19.9750 C   0  0  0  0  0  0  0  0  0  0  0  0
    8.3450   -3.3440   25.0980 C   0  0  0  0  0  0  0  0  0  0  0  0
    9.1280   -1.2090   23.4870 C   0  0  0  0  0  0  0  0  0  0  0  0
    9.0430    0.2380   21.4940 C   0  0  0  0  0  0  0  0  0  0  0  0
    8.9524   -5.2012   26.6600 C   0  0  0  0  0  0  0  0  0  0  0  0
    6.6112   -4.5068   26.4379 C   0  0  0  0  0  0  0  0  0  0  0  0
    8.9037   -4.7845   28.1261 C   0  0  0  0  0  0  0  0  0  0  0  0
    6.6374   -4.1243   27.9184 C   0  0  0  0  0  0  0  0  0  0  0  0
   10.6542    0.7501   23.3264 C   0  0  0  0  0  0  0  0  0  0  0  0
    8.0950   -0.7700   20.8440 C   0  0  0  0  0  0  0  0  0  0  0  0
    6.7100    0.3850   17.8100 N   0  0  0  0  0  0  0  0  0  0  0  0
    7.5840   -0.2700   18.5160 N   0  0  0  0  0  0  0  0  0  0  0  0
    7.2710   -0.1460   19.8310 N   0  0  0  0  0  0  0  0  0  0  0  0
    7.9775   -4.4014   25.9151 N   0  0  0  0  0  0  0  0  0  0  0  0
    9.5820   -0.1080   22.7000 N   0  0  0  0  0  0  0  0  0  0  0  0
    9.2950    1.3000   20.9480 O   0  0  0  0  0  0  0  0  0  0  0  0
    7.5729   -4.9391   28.6338 O   0  0  0  0  0  0  0  0  0  0  0  0
   15.1401   -2.0391   24.3324 H   0  0  0  0  0  0  0  0  0  0  0  0
   14.5301   -0.1108   25.7693 H   0  0  0  0  0  0  0  0  0  0  0  0
   13.6800   -2.6801   22.4311 H   0  0  0  0  0  0  0  0  0  0  0  0
    2.9847    2.6930   19.3611 H   0  0  0  0  0  0  0  0  0  0  0  0
    3.6232    2.0694   21.6565 H   0  0  0  0  0  0  0  0  0  0  0  0
   12.4681    1.1749   25.3115 H   0  0  0  0  0  0  0  0  0  0  0  0
   11.6161   -1.4008   21.9650 H   0  0  0  0  0  0  0  0  0  0  0  0
    4.3785    2.0112   17.4257 H   0  0  0  0  0  0  0  0  0  0  0  0
    5.6780    0.7321   22.0906 H   0  0  0  0  0  0  0  0  0  0  0  0
    9.5426   -4.5618   23.7797 H   0  0  0  0  0  0  0  0  0  0  0  0
    7.1914   -1.8824   26.1903 H   0  0  0  0  0  0  0  0  0  0  0  0
   10.2669   -2.6745   22.3854 H   0  0  0  0  0  0  0  0  0  0  0  0
    7.8690   -0.0020   24.7587 H   0  0  0  0  0  0  0  0  0  0  0  0
    9.9615   -5.0500   26.2711 H   0  0  0  0  0  0  0  0  0  0  0  0
    8.6935   -6.2597   26.5720 H   0  0  0  0  0  0  0  0  0  0  0  0
    6.2628   -5.5350   26.3330 H   0  0  0  0  0  0  0  0  0  0  0  0
    5.9347   -3.8423   25.9023 H   0  0  0  0  0  0  0  0  0  0  0  0
    9.5597   -5.4275   28.7166 H   0  0  0  0  0  0  0  0  0  0  0  0
    9.2344   -3.7511   28.2636 H   0  0  0  0  0  0  0  0  0  0  0  0
    6.8874   -3.0657   28.0553 H   0  0  0  0  0  0  0  0  0  0  0  0
    5.6495   -4.2893   28.3591 H   0  0  0  0  0  0  0  0  0  0  0  0
   10.2330    1.1522   24.2543 H   0  0  0  0  0  0  0  0  0  0  0  0
   10.8596    1.6000   22.6673 H   0  0  0  0  0  0  0  0  0  0  0  0
    8.6688   -1.5655   20.3666 H   0  0  0  0  0  0  0  0  0  0  0  0
    7.4298   -1.1908   21.5994 H   0  0  0  0  0  0  0  0  0  0  0  0
  1  2  1  0  0  0  0
  1  3  2  0  0  0  0
  2  6  2  0  0  0  0
  3  7  1  0  0  0  0
  4  5  1  0  0  0  0
  4  8  2  0  0  0  0
  5  9  2  0  0  0  0
  6 14  1  0  0  0  0
  7 14  2  0  0  0  0
  8 15  1  0  0  0  0
  9 16  1  0  0  0  0
 10 12  2  0  0  0  0
 10 17  1  0  0  0  0
 11 13  1  0  0  0  0
 11 17  2  0  0  0  0
 12 18  1  0  0  0  0
 13 18  2  0  0  0  0
 14 24  1  0  0  0  0
 15 16  2  0  0  0  0
 15 26  1  0  0  0  0
 16 28  1  0  0  0  0
 17 29  1  0  0  0  0
 18 30  1  0  0  0  0
 19 25  1  0  0  0  0
 19 30  1  0  0  0  0
 19 31  2  0  0  0  0
 20 22  1  0  0  0  0
 20 29  1  0  0  0  0
 21 23  1  0  0  0  0
 21 29  1  0  0  0  0
 22 32  1  0  0  0  0
 23 32  1  0  0  0  0
 24 30  1  0  0  0  0
 25 28  1  0  0  0  0
 26 27  2  0  0  0  0
 27 28  1  0  0  0  0
  1 33  1  0  0  0  0
  2 34  1  0  0  0  0
  3 35  1  0  0  0  0
  4 36  1  0  0  0  0
  5 37  1  0  0  0  0
  6 38  1  0  0  0  0
  7 39  1  0  0  0  0
  8 40  1  0  0  0  0
  9 41  1  0  0  0  0
 10 42  1  0  0  0  0
 11 43  1  0  0  0  0
 12 44  1  0  0  0  0
 13 45  1  0  0  0  0
 20 46  1  0  0  0  0
 20 47  1  0  0  0  0
 21 48  1  0  0  0  0
 21 49  1  0  0  0  0
 22 50  1  0  0  0  0
 22 51  1  0  0  0  0
 23 52  1  0  0  0  0
 23 53  1  0  0  0  0
 24 54  1  0  0  0  0
 24 55  1  0  0  0  0
 25 56  1  0  0  0  0
 25 57  1  0  0  0  0
M  END
> <clash_score>
0

> <docking_score>
-9.779765129089355

> <overlap_score>
0.9823015332221985

$$$$
BENZO_360_1
  -OEChem-08232013553D

 54 58  0     0  0  0  0  0  0999 V2000
    3.8860    2.1050   19.5250 C   0  0  0  0  0  0  0  0  0  0  0  0
    4.2460    1.7520   20.8250 C   0  0  0  0  0  0  0  0  0  0  0  0
    4.6610    1.7170   18.4380 C   0  0  0  0  0  0  0  0  0  0  0  0
    5.3890    1.0010   21.0690 C   0  0  0  0  0  0  0  0  0  0  0  0
    9.1890   -3.5540   24.0140 C   0  0  0  0  0  0  0  0  0  0  0  0
    7.8700   -2.0610   25.3550 C   0  0  0  0  0  0  0  0  0  0  0  0
    9.5890   -2.4950   23.2210 C   0  0  0  0  0  0  0  0  0  0  0  0
    8.2550   -1.0010   24.5520 C   0  0  0  0  0  0  0  0  0  0  0  0
   12.4552   -0.2076   24.9106 C   0  0  0  0  0  0  0  0  0  0  0  0
   13.6076   -0.9618   24.8876 C   0  0  0  0  0  0  0  0  0  0  0  0
   12.6611   -0.6527   22.6386 C   0  0  0  0  0  0  0  0  0  0  0  0
   11.9067   -0.0285   23.6078 C   0  0  0  0  0  0  0  0  0  0  0  0
    5.7970    0.9500   18.6730 C   0  0  0  0  0  0  0  0  0  0  0  0
    6.1460    0.6070   19.9750 C   0  0  0  0  0  0  0  0  0  0  0  0
    8.3450   -3.3440   25.0980 C   0  0  0  0  0  0  0  0  0  0  0  0
    9.1280   -1.2090   23.4870 C   0  0  0  0  0  0  0  0  0  0  0  0
    9.0430    0.2380   21.4940 C   0  0  0  0  0  0  0  0  0  0  0  0
    8.9524   -5.2012   26.6600 C   0  0  0  0  0  0  0  0  0  0  0  0
    6.6112   -4.5068   26.4379 C   0  0  0  0  0  0  0  0  0  0  0  0
    8.9037   -4.7845   28.1261 C   0  0  0  0  0  0  0  0  0  0  0  0
    6.6374   -4.1243   27.9184 C   0  0  0  0  0  0  0  0  0  0  0  0
   10.6542    0.7501   23.3264 C   0  0  0  0  0  0  0  0  0  0  0  0
    8.0950   -0.7700   20.8440 C   0  0  0  0  0  0  0  0  0  0  0  0
    6.7100    0.3850   17.8100 N   0  0  0  0  0  0  0  0  0  0  0  0
    7.5840   -0.2700   18.5160 N   0  0  0  0  0  0  0  0  0  0  0  0
    7.2710   -0.1460   19.8310 N   0  0  0  0  0  0  0  0  0  0  0  0
    7.9775   -4.4014   25.9151 N   0  0  0  0  0  0  0  0  0  0  0  0
    9.5820   -0.1080   22.7000 N   0  0  0  0  0  0  0  0  0  0  0  0
    9.2950    1.3000   20.9480 O   0  0  0  0  0  0  0  0  0  0  0  0
    7.5729   -4.9391   28.6338 O   0  0  0  0  0  0  0  0  0  0  0  0
   14.0242   -1.4505   23.3002 S   0  0  0  0  0  0  0  0  0  0  0  0
    2.9847    2.6930   19.3611 H   0  0  0  0  0  0  0  0  0  0  0  0
    3.6232    2.0694   21.6565 H   0  0  0  0  0  0  0  0  0  0  0  0
    4.3785    2.0112   17.4257 H   0  0  0  0  0  0  0  0  0  0  0  0
    5.6780    0.7321   22.0906 H   0  0  0  0  0  0  0  0  0  0  0  0
    9.5426   -4.5618   23.7797 H   0  0  0  0  0  0  0  0  0  0  0  0
    7.1914   -1.8824   26.1903 H   0  0  0  0  0  0  0  0  0  0  0  0
   10.2669   -2.6745   22.3854 H   0  0  0  0  0  0  0  0  0  0  0  0
    7.8690   -0.0020   24.7587 H   0  0  0  0  0  0  0  0  0  0  0  0
   12.0295    0.1950   25.8210 H   0  0  0  0  0  0  0  0  0  0  0  0
   14.2253   -1.2487   25.7269 H   0  0  0  0  0  0  0  0  0  0  0  0
   12.4813   -0.6797   21.5728 H   0  0  0  0  0  0  0  0  0  0  0  0
    9.9615   -5.0500   26.2711 H   0  0  0  0  0  0  0  0  0  0  0  0
    8.6935   -6.2597   26.5720 H   0  0  0  0  0  0  0  0  0  0  0  0
    6.2628   -5.5350   26.3330 H   0  0  0  0  0  0  0  0  0  0  0  0
    5.9347   -3.8423   25.9023 H   0  0  0  0  0  0  0  0  0  0  0  0
    9.5597   -5.4275   28.7166 H   0  0  0  0  0  0  0  0  0  0  0  0
    9.2344   -3.7511   28.2636 H   0  0  0  0  0  0  0  0  0  0  0  0
    6.8874   -3.0657   28.0553 H   0  0  0  0  0  0  0  0  0  0  0  0
    5.6495   -4.2893   28.3591 H   0  0  0  0  0  0  0  0  0  0  0  0
   10.2330    1.1522   24.2543 H   0  0  0  0  0  0  0  0  0  0  0  0
   10.8596    1.6000   22.6673 H   0  0  0  0  0  0  0  0  0  0  0  0
    8.6688   -1.5655   20.3666 H   0  0  0  0  0  0  0  0  0  0  0  0
    7.4298   -1.1908   21.5994 H   0  0  0  0  0  0  0  0  0  0  0  0
  1  2  1  0  0  0  0
  1  3  2  0  0  0  0
  2  4  2  0  0  0  0
  3 13  1  0  0  0  0
  4 14  1  0  0  0  0
  5  7  2  0  0  0  0
  5 15  1  0  0  0  0
  6  8  1  0  0  0  0
  6 15  2  0  0  0  0
  7 16  1  0  0  0  0
  8 16  2  0  0  0  0
  9 10  2  0  0  0  0
  9 12  1  0  0  0  0
 10 31  1  0  0  0  0
 11 12  2  0  0  0  0
 11 31  1  0  0  0  0
 12 22  1  0  0  0  0
 13 14  2  0  0  0  0
 13 24  1  0  0  0  0
 14 26  1  0  0  0  0
 15 27  1  0  0  0  0
 16 28  1  0  0  0  0
 17 23  1  0  0  0  0
 17 28  1  0  0  0  0
 17 29  2  0  0  0  0
 18 20  1  0  0  0  0
 18 27  1  0  0  0  0
 19 21  1  0  0  0  0
 19 27  1  0  0  0  0
 20 30  1  0  0  0  0
 21 30  1  0  0  0  0
 22 28  1  0  0  0  0
 23 26  1  0  0  0  0
 24 25  2  0  0  0  0
 25 26  1  0  0  0  0
  1 32  1  0  0  0  0
  2 33  1  0  0  0  0
  3 34  1  0  0  0  0
  4 35  1  0  0  0  0
  5 36  1  0  0  0  0
  6 37  1  0  0  0  0
  7 38  1  0  0  0  0
  8 39  1  0  0  0  0
  9 40  1  0  0  0  0
 10 41  1  0  0  0  0
 11 42  1  0  0  0  0
 18 43  1  0  0  0  0
 18 44  1  0  0  0  0
 19 45  1  0  0  0  0
 19 46  1  0  0  0  0
 20 47  1  0  0  0  0
 20 48  1  0  0  0  0
 21 49  1  0  0  0  0
 21 50  1  0  0  0  0
 22 51  1  0  0  0  0
 22 52  1  0  0  0  0
 23 53  1  0  0  0  0
 23 54  1  0  0  0  0
M  END
> <clash_score>
0

> <docking_score>
-9.703444480895996

> <overlap_score>
0.9676774144172668

$$$$
BENZO_363_1
  -OEChem-08232013553D

 57 61  0     0  0  0  0  0  0999 V2000
    3.8860    2.1050   19.5250 C   0  0  0  0  0  0  0  0  0  0  0  0
    4.2460    1.7520   20.8250 C   0  0  0  0  0  0  0  0  0  0  0  0
    4.6610    1.7170   18.4380 C   0  0  0  0  0  0  0  0  0  0  0  0
    5.3890    1.0010   21.0690 C   0  0  0  0  0  0  0  0  0  0  0  0
    9.1890   -3.5540   24.0140 C   0  0  0  0  0  0  0  0  0  0  0  0
    7.8700   -2.0610   25.3550 C   0  0  0  0  0  0  0  0  0  0  0  0
    9.5890   -2.4950   23.2210 C   0  0  0  0  0  0  0  0  0  0  0  0
    8.2550   -1.0010   24.5520 C   0  0  0  0  0  0  0  0  0  0  0  0
   13.1955    0.4796   23.8729 C   0  0  0  0  0  0  0  0  0  0  0  0
   12.4036   -0.8560   22.3159 C   0  0  0  0  0  0  0  0  0  0  0  0
   12.0205    0.1472   23.1722 C   0  0  0  0  0  0  0  0  0  0  0  0
    5.7970    0.9500   18.6730 C   0  0  0  0  0  0  0  0  0  0  0  0
    6.1460    0.6070   19.9750 C   0  0  0  0  0  0  0  0  0  0  0  0
    8.3450   -3.3440   25.0980 C   0  0  0  0  0  0  0  0  0  0  0  0
    9.1280   -1.2090   23.4870 C   0  0  0  0  0  0  0  0  0  0  0  0
    9.0430    0.2380   21.4940 C   0  0  0  0  0  0  0  0  0  0  0  0
    8.9524   -5.2012   26.6600 C   0  0  0  0  0  0  0  0  0  0  0  0
    6.6112   -4.5068   26.4379 C   0  0  0  0  0  0  0  0  0  0  0  0
    8.9037   -4.7845   28.1261 C   0  0  0  0  0  0  0  0  0  0  0  0
    6.6374   -4.1243   27.9184 C   0  0  0  0  0  0  0  0  0  0  0  0
   14.5824   -2.0155   21.8831 C   0  0  0  0  0  0  0  0  0  0  0  0
   10.6542    0.7501   23.3264 C   0  0  0  0  0  0  0  0  0  0  0  0
    8.0950   -0.7700   20.8440 C   0  0  0  0  0  0  0  0  0  0  0  0
   14.2462   -0.2532   23.4946 N   0  0  0  0  0  0  0  0  0  0  0  0
    6.7100    0.3850   17.8100 N   0  0  0  0  0  0  0  0  0  0  0  0
    7.5840   -0.2700   18.5160 N   0  0  0  0  0  0  0  0  0  0  0  0
   13.7328   -1.0560   22.5470 N   0  0  0  0  0  0  0  0  0  0  0  0
    7.2710   -0.1460   19.8310 N   0  0  0  0  0  0  0  0  0  0  0  0
    7.9775   -4.4014   25.9151 N   0  0  0  0  0  0  0  0  0  0  0  0
    9.5820   -0.1080   22.7000 N   0  0  0  0  0  0  0  0  0  0  0  0
    9.2950    1.3000   20.9480 O   0  0  0  0  0  0  0  0  0  0  0  0
    7.5729   -4.9391   28.6338 O   0  0  0  0  0  0  0  0  0  0  0  0
    2.9847    2.6930   19.3611 H   0  0  0  0  0  0  0  0  0  0  0  0
    3.6232    2.0694   21.6565 H   0  0  0  0  0  0  0  0  0  0  0  0
    4.3785    2.0112   17.4257 H   0  0  0  0  0  0  0  0  0  0  0  0
    5.6780    0.7321   22.0906 H   0  0  0  0  0  0  0  0  0  0  0  0
    9.5426   -4.5618   23.7797 H   0  0  0  0  0  0  0  0  0  0  0  0
    7.1914   -1.8824   26.1903 H   0  0  0  0  0  0  0  0  0  0  0  0
   10.2669   -2.6745   22.3854 H   0  0  0  0  0  0  0  0  0  0  0  0
    7.8690   -0.0020   24.7587 H   0  0  0  0  0  0  0  0  0  0  0  0
   13.3321    1.2241   24.6444 H   0  0  0  0  0  0  0  0  0  0  0  0
   11.8569   -1.4313   21.5811 H   0  0  0  0  0  0  0  0  0  0  0  0
    9.9615   -5.0500   26.2711 H   0  0  0  0  0  0  0  0  0  0  0  0
    8.6935   -6.2597   26.5720 H   0  0  0  0  0  0  0  0  0  0  0  0
    6.2628   -5.5350   26.3330 H   0  0  0  0  0  0  0  0  0  0  0  0
    5.9347   -3.8423   25.9023 H   0  0  0  0  0  0  0  0  0  0  0  0
    9.5597   -5.4275   28.7166 H   0  0  0  0  0  0  0  0  0  0  0  0
    9.2344   -3.7511   28.2636 H   0  0  0  0  0  0  0  0  0  0  0  0
    6.8874   -3.0657   28.0553 H   0  0  0  0  0  0  0  0  0  0  0  0
    5.6495   -4.2893   28.3591 H   0  0  0  0  0  0  0  0  0  0  0  0
   15.0135   -1.5318   21.0026 H   0  0  0  0  0  0  0  0  0  0  0  0
   15.3722   -2.3375   22.5676 H   0  0  0  0  0  0  0  0  0  0  0  0
   13.9863   -2.8842   21.5901 H   0  0  0  0  0  0  0  0  0  0  0  0
   10.3952    0.8536   24.3858 H   0  0  0  0  0  0  0  0  0  0  0  0
   10.6136    1.7503   22.8825 H   0  0  0  0  0  0  0  0  0  0  0  0
    8.6688   -1.5655   20.3666 H   0  0  0  0  0  0  0  0  0  0  0  0
    7.4298   -1.1908   21.5994 H   0  0  0  0  0  0  0  0  0  0  0  0
  1  2  1  0  0  0  0
  1  3  2  0  0  0  0
  2  4  2  0  0  0  0
  3 12  1  0  0  0  0
  4 13  1  0  0  0  0
  5  7  2  0  0  0  0
  5 14  1  0  0  0  0
  6  8  1  0  0  0  0
  6 14  2  0  0  0  0
  7 15  1  0  0  0  0
  8 15  2  0  0  0  0
  9 11  1  0  0  0  0
  9 24  2  0  0  0  0
 10 11  2  0  0  0  0
 10 27  1  0  0  0  0
 11 22  1  0  0  0  0
 12 13  2  0  0  0  0
 12 25  1  0  0  0  0
 13 28  1  0  0  0  0
 14 29  1  0  0  0  0
 15 30  1  0  0  0  0
 16 23  1  0  0  0  0
 16 30  1  0  0  0  0
 16 31  2  0  0  0  0
 17 19  1  0  0  0  0
 17 29  1  0  0  0  0
 18 20  1  0  0  0  0
 18 29  1  0  0  0  0
 19 32  1  0  0  0  0
 20 32  1  0  0  0  0
 21 27  1  0  0  0  0
 22 30  1  0  0  0  0
 23 28  1  0  0  0  0
 24 27  1  0  0  0  0
 25 26  2  0  0  0  0
 26 28  1  0  0  0  0
  1 33  1  0  0  0  0
  2 34  1  0  0  0  0
  3 35  1  0  0  0  0
  4 36  1  0  0  0  0
  5 37  1  0  0  0  0
  6 38  1  0  0  0  0
  7 39  1  0  0  0  0
  8 40  1  0  0  0  0
  9 41  1  0  0  0  0
 10 42  1  0  0  0  0
 17 43  1  0  0  0  0
 17 44  1  0  0  0  0
 18 45  1  0  0  0  0
 18 46  1  0  0  0  0
 19 47  1  0  0  0  0
 19 48  1  0  0  0  0
 20 49  1  0  0  0  0
 20 50  1  0  0  0  0
 21 51  1  0  0  0  0
 21 52  1  0  0  0  0
 21 53  1  0  0  0  0
 22 54  1  0  0  0  0
 22 55  1  0  0  0  0
 23 56  1  0  0  0  0
 23 57  1  0  0  0  0
M  END
> <clash_score>
0

> <docking_score>
-10.092126846313477

> <overlap_score>
0.9802502393722534

$$$$
BENZO_365_1
  -OEChem-08232013553D

 53 56  0     0  0  0  0  0  0999 V2000
   14.2308   -1.5082   24.1035 C   0  0  0  0  0  0  0  0  0  0  0  0
   13.8842   -0.4439   24.9358 C   0  0  0  0  0  0  0  0  0  0  0  0
   13.4130   -1.8449   23.0247 C   0  0  0  0  0  0  0  0  0  0  0  0
    3.8860    2.1050   19.5250 C   0  0  0  0  0  0  0  0  0  0  0  0
    4.2460    1.7520   20.8250 C   0  0  0  0  0  0  0  0  0  0  0  0
   12.7198    0.2836   24.6895 C   0  0  0  0  0  0  0  0  0  0  0  0
   12.2487   -1.1174   22.7785 C   0  0  0  0  0  0  0  0  0  0  0  0
    4.6610    1.7170   18.4380 C   0  0  0  0  0  0  0  0  0  0  0  0
    5.3890    1.0010   21.0690 C   0  0  0  0  0  0  0  0  0  0  0  0
    9.5890   -2.4950   23.2210 C   0  0  0  0  0  0  0  0  0  0  0  0
    8.2550   -1.0010   24.5520 C   0  0  0  0  0  0  0  0  0  0  0  0
    9.1890   -3.5540   24.0140 C   0  0  0  0  0  0  0  0  0  0  0  0
    7.8700   -2.0610   25.3550 C   0  0  0  0  0  0  0  0  0  0  0  0
    7.5840   -0.2700   18.5160 C   0  0  0  0  0  0  0  0  0  0  0  0
   11.9020   -0.0532   23.6108 C   0  0  0  0  0  0  0  0  0  0  0  0
    5.7970    0.9500   18.6730 C   0  0  0  0  0  0  0  0  0  0  0  0
    6.1460    0.6070   19.9750 C   0  0  0  0  0  0  0  0  0  0  0  0
    9.1280   -1.2090   23.4870 C   0  0  0  0  0  0  0  0  0  0  0  0
    8.3450   -3.3440   25.0980 C   0  0  0  0  0  0  0  0  0  0  0  0
    9.0430    0.2380   21.4940 C   0  0  0  0  0  0  0  0  0  0  0  0
    7.2639   -5.5572   25.3803 C   0  0  0  0  0  0  0  0  0  0  0  0
    8.3059   -4.4049   27.3386 C   0  0  0  0  0  0  0  0  0  0  0  0
   10.6485    0.7293   23.3453 C   0  0  0  0  0  0  0  0  0  0  0  0
    8.0950   -0.7700   20.8440 C   0  0  0  0  0  0  0  0  0  0  0  0
    6.7100    0.3850   17.8100 N   0  0  0  0  0  0  0  0  0  0  0  0
    7.2710   -0.1460   19.8310 N   0  0  0  0  0  0  0  0  0  0  0  0
    9.5820   -0.1080   22.7000 N   0  0  0  0  0  0  0  0  0  0  0  0
    7.9731   -4.4180   25.9279 N   0  0  0  0  0  0  0  0  0  0  0  0
    9.2950    1.3000   20.9480 O   0  0  0  0  0  0  0  0  0  0  0  0
   15.1381   -2.0737   24.2946 H   0  0  0  0  0  0  0  0  0  0  0  0
   14.5213   -0.1809   25.7751 H   0  0  0  0  0  0  0  0  0  0  0  0
   13.6831   -2.6728   22.3759 H   0  0  0  0  0  0  0  0  0  0  0  0
    2.9844    2.6932   19.3613 H   0  0  0  0  0  0  0  0  0  0  0  0
    3.6232    2.0695   21.6567 H   0  0  0  0  0  0  0  0  0  0  0  0
   12.4576    1.1111   25.3435 H   0  0  0  0  0  0  0  0  0  0  0  0
   11.6176   -1.3871   21.9358 H   0  0  0  0  0  0  0  0  0  0  0  0
    4.3779    2.0108   17.4276 H   0  0  0  0  0  0  0  0  0  0  0  0
    5.6763    0.7334   22.0897 H   0  0  0  0  0  0  0  0  0  0  0  0
   10.2682   -2.6746   22.3864 H   0  0  0  0  0  0  0  0  0  0  0  0
    7.8692   -0.0022   24.7600 H   0  0  0  0  0  0  0  0  0  0  0  0
    9.5433   -4.5619   23.7809 H   0  0  0  0  0  0  0  0  0  0  0  0
    7.1923   -1.8829   26.1908 H   0  0  0  0  0  0  0  0  0  0  0  0
    8.4216   -0.8246   18.1565 H   0  0  0  0  0  0  0  0  0  0  0  0
    7.0638   -6.2846   26.1808 H   0  0  0  0  0  0  0  0  0  0  0  0
    6.3117   -5.2211   24.9440 H   0  0  0  0  0  0  0  0  0  0  0  0
    7.8779   -6.0306   24.5999 H   0  0  0  0  0  0  0  0  0  0  0  0
    7.9321   -5.3245   27.8126 H   0  0  0  0  0  0  0  0  0  0  0  0
    9.3981   -4.3495   27.4569 H   0  0  0  0  0  0  0  0  0  0  0  0
    7.8404   -3.5306   27.8169 H   0  0  0  0  0  0  0  0  0  0  0  0
   10.2409    1.1337   24.2782 H   0  0  0  0  0  0  0  0  0  0  0  0
   10.8479    1.5780   22.6826 H   0  0  0  0  0  0  0  0  0  0  0  0
    8.6626   -1.5629   20.3596 H   0  0  0  0  0  0  0  0  0  0  0  0
    7.4236   -1.1883   21.5924 H   0  0  0  0  0  0  0  0  0  0  0  0
  1  2  1  0  0  0  0
  1  3  2  0  0  0  0
  2  6  2  0  0  0  0
  3  7  1  0  0  0  0
  4  5  1  0  0  0  0
  4  8  2  0  0  0  0
  5  9  2  0  0  0  0
  6 15  1  0  0  0  0
  7 15  2  0  0  0  0
  8 16  1  0  0  0  0
  9 17  1  0  0  0  0
 10 12  2  0  0  0  0
 10 18  1  0  0  0  0
 11 13  1  0  0  0  0
 11 18  2  0  0  0  0
 12 19  1  0  0  0  0
 13 19  2  0  0  0  0
 14 25  2  0  0  0  0
 14 26  1  0  0  0  0
 15 23  1  0  0  0  0
 16 17  2  0  0  0  0
 16 25  1  0  0  0  0
 17 26  1  0  0  0  0
 18 27  1  0  0  0  0
 19 28  1  0  0  0  0
 20 24  1  0  0  0  0
 20 27  1  0  0  0  0
 20 29  2  0  0  0  0
 21 28  1  0  0  0  0
 22 28  1  0  0  0  0
 23 27  1  0  0  0  0
 24 26  1  0  0  0  0
  1 30  1  0  0  0  0
  2 31  1  0  0  0  0
  3 32  1  0  0  0  0
  4 33  1  0  0  0  0
  5 34  1  0  0  0  0
  6 35  1  0  0  0  0
  7 36  1  0  0  0  0
  8 37  1  0  0  0  0
  9 38  1  0  0  0  0
 10 39  1  0  0  0  0
 11 40  1  0  0  0  0
 12 41  1  0  0  0  0
 13 42  1  0  0  0  0
 14 43  1  0  0  0  0
 21 44  1  0  0  0  0
 21 45  1  0  0  0  0
 21 46  1  0  0  0  0
 22 47  1  0  0  0  0
 22 48  1  0  0  0  0
 22 49  1  0  0  0  0
 23 50  1  0  0  0  0
 23 51  1  0  0  0  0
 24 52  1  0  0  0  0
 24 53  1  0  0  0  0
M  END
> <clash_score>
0

> <docking_score>
-9.462909698486328

> <overlap_score>
0.9357069730758667

$$$$
BENZO_362_1
  -OEChem-08232013553D

 57 61  0     0  0  0  0  0  0999 V2000
    3.8860    2.1050   19.5250 C   0  0  0  0  0  0  0  0  0  0  0  0
    4.2460    1.7520   20.8250 C   0  0  0  0  0  0  0  0  0  0  0  0
   13.5341   -0.8760   25.1795 C   0  0  0  0  0  0  0  0  0  0  0  0
   12.3712   -0.1519   24.9173 C   0  0  0  0  0  0  0  0  0  0  0  0
    4.6610    1.7170   18.4380 C   0  0  0  0  0  0  0  0  0  0  0  0
    5.3890    1.0010   21.0690 C   0  0  0  0  0  0  0  0  0  0  0  0
    9.1890   -3.5540   24.0140 C   0  0  0  0  0  0  0  0  0  0  0  0
    7.8700   -2.0610   25.3550 C   0  0  0  0  0  0  0  0  0  0  0  0
    9.5890   -2.4950   23.2210 C   0  0  0  0  0  0  0  0  0  0  0  0
    8.2550   -1.0010   24.5520 C   0  0  0  0  0  0  0  0  0  0  0  0
   14.2327   -1.4768   24.1322 C   0  0  0  0  0  0  0  0  0  0  0  0
   12.6052   -0.6294   22.5605 C   0  0  0  0  0  0  0  0  0  0  0  0
   11.9067   -0.0285   23.6078 C   0  0  0  0  0  0  0  0  0  0  0  0
    5.7970    0.9500   18.6730 C   0  0  0  0  0  0  0  0  0  0  0  0
    6.1460    0.6070   19.9750 C   0  0  0  0  0  0  0  0  0  0  0  0
    8.3450   -3.3440   25.0980 C   0  0  0  0  0  0  0  0  0  0  0  0
    9.1280   -1.2090   23.4870 C   0  0  0  0  0  0  0  0  0  0  0  0
   13.7682   -1.3535   22.8227 C   0  0  0  0  0  0  0  0  0  0  0  0
    9.0430    0.2380   21.4940 C   0  0  0  0  0  0  0  0  0  0  0  0
    8.9524   -5.2012   26.6600 C   0  0  0  0  0  0  0  0  0  0  0  0
    6.6112   -4.5068   26.4379 C   0  0  0  0  0  0  0  0  0  0  0  0
    8.9037   -4.7845   28.1261 C   0  0  0  0  0  0  0  0  0  0  0  0
    6.6374   -4.1243   27.9184 C   0  0  0  0  0  0  0  0  0  0  0  0
   10.6542    0.7501   23.3264 C   0  0  0  0  0  0  0  0  0  0  0  0
    8.0950   -0.7700   20.8440 C   0  0  0  0  0  0  0  0  0  0  0  0
    6.7100    0.3850   17.8100 N   0  0  0  0  0  0  0  0  0  0  0  0
    7.5840   -0.2700   18.5160 N   0  0  0  0  0  0  0  0  0  0  0  0
    7.2710   -0.1460   19.8310 N   0  0  0  0  0  0  0  0  0  0  0  0
    7.9775   -4.4014   25.9151 N   0  0  0  0  0  0  0  0  0  0  0  0
    9.5820   -0.1080   22.7000 N   0  0  0  0  0  0  0  0  0  0  0  0
    9.2950    1.3000   20.9480 O   0  0  0  0  0  0  0  0  0  0  0  0
    7.5729   -4.9391   28.6338 O   0  0  0  0  0  0  0  0  0  0  0  0
   14.6298   -2.0960   21.5312 Cl  0  0  0  0  0  0  0  0  0  0  0  0
    2.9847    2.6930   19.3611 H   0  0  0  0  0  0  0  0  0  0  0  0
    3.6232    2.0694   21.6565 H   0  0  0  0  0  0  0  0  0  0  0  0
   13.8953   -0.9719   26.1993 H   0  0  0  0  0  0  0  0  0  0  0  0
   11.8332    0.3129   25.7394 H   0  0  0  0  0  0  0  0  0  0  0  0
    4.3785    2.0112   17.4257 H   0  0  0  0  0  0  0  0  0  0  0  0
    5.6780    0.7321   22.0906 H   0  0  0  0  0  0  0  0  0  0  0  0
    9.5426   -4.5618   23.7797 H   0  0  0  0  0  0  0  0  0  0  0  0
    7.1914   -1.8824   26.1903 H   0  0  0  0  0  0  0  0  0  0  0  0
   10.2669   -2.6745   22.3854 H   0  0  0  0  0  0  0  0  0  0  0  0
    7.8690   -0.0020   24.7587 H   0  0  0  0  0  0  0  0  0  0  0  0
   15.1374   -2.0385   24.3514 H   0  0  0  0  0  0  0  0  0  0  0  0
   12.2393   -0.5299   21.5412 H   0  0  0  0  0  0  0  0  0  0  0  0
    9.9615   -5.0500   26.2711 H   0  0  0  0  0  0  0  0  0  0  0  0
    8.6935   -6.2597   26.5720 H   0  0  0  0  0  0  0  0  0  0  0  0
    6.2628   -5.5350   26.3330 H   0  0  0  0  0  0  0  0  0  0  0  0
    5.9347   -3.8423   25.9023 H   0  0  0  0  0  0  0  0  0  0  0  0
    9.5597   -5.4275   28.7166 H   0  0  0  0  0  0  0  0  0  0  0  0
    9.2344   -3.7511   28.2636 H   0  0  0  0  0  0  0  0  0  0  0  0
    6.8874   -3.0657   28.0553 H   0  0  0  0  0  0  0  0  0  0  0  0
    5.6495   -4.2893   28.3591 H   0  0  0  0  0  0  0  0  0  0  0  0
   10.2330    1.1522   24.2543 H   0  0  0  0  0  0  0  0  0  0  0  0
   10.8596    1.6000   22.6673 H   0  0  0  0  0  0  0  0  0  0  0  0
    8.6688   -1.5655   20.3666 H   0  0  0  0  0  0  0  0  0  0  0  0
    7.4298   -1.1908   21.5994 H   0  0  0  0  0  0  0  0  0  0  0  0
  1  2  1  0  0  0  0
  1  5  2  0  0  0  0
  2  6  2  0  0  0  0
  3  4  2  0  0  0  0
  3 11  1  0  0  0  0
  4 13  1  0  0  0  0
  5 14  1  0  0  0  0
  6 15  1  0  0  0  0
  7  9  2  0  0  0  0
  7 16  1  0  0  0  0
  8 10  1  0  0  0  0
  8 16  2  0  0  0  0
  9 17  1  0  0  0  0
 10 17  2  0  0  0  0
 11 18  2  0  0  0  0
 12 13  2  0  0  0  0
 12 18  1  0  0  0  0
 13 24  1  0  0  0  0
 14 15  2  0  0  0  0
 14 26  1  0  0  0  0
 15 28  1  0  0  0  0
 16 29  1  0  0  0  0
 17 30  1  0  0  0  0
 18 33  1  0  0  0  0
 19 25  1  0  0  0  0
 19 30  1  0  0  0  0
 19 31  2  0  0  0  0
 20 22  1  0  0  0  0
 20 29  1  0  0  0  0
 21 23  1  0  0  0  0
 21 29  1  0  0  0  0
 22 32  1  0  0  0  0
 23 32  1  0  0  0  0
 24 30  1  0  0  0  0
 25 28  1  0  0  0  0
 26 27  2  0  0  0  0
 27 28  1  0  0  0  0
  1 34  1  0  0  0  0
  2 35  1  0  0  0  0
  3 36  1  0  0  0  0
  4 37  1  0  0  0  0
  5 38  1  0  0  0  0
  6 39  1  0  0  0  0
  7 40  1  0  0  0  0
  8 41  1  0  0  0  0
  9 42  1  0  0  0  0
 10 43  1  0  0  0  0
 11 44  1  0  0  0  0
 12 45  1  0  0  0  0
 20 46  1  0  0  0  0
 20 47  1  0  0  0  0
 21 48  1  0  0  0  0
 21 49  1  0  0  0  0
 22 50  1  0  0  0  0
 22 51  1  0  0  0  0
 23 52  1  0  0  0  0
 23 53  1  0  0  0  0
 24 54  1  0  0  0  0
 24 55  1  0  0  0  0
 25 56  1  0  0  0  0
 25 57  1  0  0  0  0
M  END
> <clash_score>
0

> <docking_score>
-9.087462425231934

> <overlap_score>
0.9926254749298096

$$$$
BENZO_364_1
  -OEChem-08232013553D

 50 53  0     0  0  0  0  0  0999 V2000
    3.8860    2.1050   19.5250 C   0  0  0  0  0  0  0  0  0  0  0  0
    4.2460    1.7520   20.8250 C   0  0  0  0  0  0  0  0  0  0  0  0
    4.6610    1.7170   18.4380 C   0  0  0  0  0  0  0  0  0  0  0  0
    5.3890    1.0010   21.0690 C   0  0  0  0  0  0  0  0  0  0  0  0
    9.5890   -2.4950   23.2210 C   0  0  0  0  0  0  0  0  0  0  0  0
    8.2550   -1.0010   24.5520 C   0  0  0  0  0  0  0  0  0  0  0  0
    9.1890   -3.5540   24.0140 C   0  0  0  0  0  0  0  0  0  0  0  0
    7.8700   -2.0610   25.3550 C   0  0  0  0  0  0  0  0  0  0  0  0
   12.4671   -0.2328   24.9064 C   0  0  0  0  0  0  0  0  0  0  0  0
   13.6167   -0.9909   24.8690 C   0  0  0  0  0  0  0  0  0  0  0  0
   12.6415   -0.6807   22.6324 C   0  0  0  0  0  0  0  0  0  0  0  0
    7.5840   -0.2700   18.5160 C   0  0  0  0  0  0  0  0  0  0  0  0
   11.9020   -0.0532   23.6108 C   0  0  0  0  0  0  0  0  0  0  0  0
    5.7970    0.9500   18.6730 C   0  0  0  0  0  0  0  0  0  0  0  0
    6.1460    0.6070   19.9750 C   0  0  0  0  0  0  0  0  0  0  0  0
    9.1280   -1.2090   23.4870 C   0  0  0  0  0  0  0  0  0  0  0  0
    8.3450   -3.3440   25.0980 C   0  0  0  0  0  0  0  0  0  0  0  0
    9.0430    0.2380   21.4940 C   0  0  0  0  0  0  0  0  0  0  0  0
    7.2639   -5.5572   25.3803 C   0  0  0  0  0  0  0  0  0  0  0  0
    8.3059   -4.4049   27.3386 C   0  0  0  0  0  0  0  0  0  0  0  0
   10.6485    0.7293   23.3453 C   0  0  0  0  0  0  0  0  0  0  0  0
    8.0950   -0.7700   20.8440 C   0  0  0  0  0  0  0  0  0  0  0  0
    6.7100    0.3850   17.8100 N   0  0  0  0  0  0  0  0  0  0  0  0
    7.2710   -0.1460   19.8310 N   0  0  0  0  0  0  0  0  0  0  0  0
    9.5820   -0.1080   22.7000 N   0  0  0  0  0  0  0  0  0  0  0  0
    7.9731   -4.4180   25.9279 N   0  0  0  0  0  0  0  0  0  0  0  0
    9.2950    1.3000   20.9480 O   0  0  0  0  0  0  0  0  0  0  0  0
   14.0106   -1.4825   23.2767 S   0  0  0  0  0  0  0  0  0  0  0  0
    2.9844    2.6932   19.3613 H   0  0  0  0  0  0  0  0  0  0  0  0
    3.6232    2.0695   21.6567 H   0  0  0  0  0  0  0  0  0  0  0  0
    4.3779    2.0108   17.4276 H   0  0  0  0  0  0  0  0  0  0  0  0
    5.6763    0.7334   22.0897 H   0  0  0  0  0  0  0  0  0  0  0  0
   10.2682   -2.6746   22.3864 H   0  0  0  0  0  0  0  0  0  0  0  0
    7.8692   -0.0022   24.7600 H   0  0  0  0  0  0  0  0  0  0  0  0
    9.5433   -4.5619   23.7809 H   0  0  0  0  0  0  0  0  0  0  0  0
    7.1923   -1.8829   26.1908 H   0  0  0  0  0  0  0  0  0  0  0  0
   12.0548    0.1721   25.8221 H   0  0  0  0  0  0  0  0  0  0  0  0
   14.2445   -1.2790   25.7003 H   0  0  0  0  0  0  0  0  0  0  0  0
   12.4475   -0.7082   21.5691 H   0  0  0  0  0  0  0  0  0  0  0  0
    8.4216   -0.8246   18.1565 H   0  0  0  0  0  0  0  0  0  0  0  0
    7.0638   -6.2846   26.1808 H   0  0  0  0  0  0  0  0  0  0  0  0
    6.3117   -5.2211   24.9440 H   0  0  0  0  0  0  0  0  0  0  0  0
    7.8779   -6.0306   24.5999 H   0  0  0  0  0  0  0  0  0  0  0  0
    7.9321   -5.3245   27.8126 H   0  0  0  0  0  0  0  0  0  0  0  0
    9.3981   -4.3495   27.4569 H   0  0  0  0  0  0  0  0  0  0  0  0
    7.8404   -3.5306   27.8169 H   0  0  0  0  0  0  0  0  0  0  0  0
   10.2409    1.1337   24.2782 H   0  0  0  0  0  0  0  0  0  0  0  0
   10.8479    1.5780   22.6826 H   0  0  0  0  0  0  0  0  0  0  0  0
    8.6626   -1.5629   20.3596 H   0  0  0  0  0  0  0  0  0  0  0  0
    7.4236   -1.1883   21.5924 H   0  0  0  0  0  0  0  0  0  0  0  0
  1  2  1  0  0  0  0
  1  3  2  0  0  0  0
  2  4  2  0  0  0  0
  3 14  1  0  0  0  0
  4 15  1  0  0  0  0
  5  7  2  0  0  0  0
  5 16  1  0  0  0  0
  6  8  1  0  0  0  0
  6 16  2  0  0  0  0
  7 17  1  0  0  0  0
  8 17  2  0  0  0  0
  9 10  2  0  0  0  0
  9 13  1  0  0  0  0
 10 28  1  0  0  0  0
 11 13  2  0  0  0  0
 11 28  1  0  0  0  0
 12 23  2  0  0  0  0
 12 24  1  0  0  0  0
 13 21  1  0  0  0  0
 14 15  2  0  0  0  0
 14 23  1  0  0  0  0
 15 24  1  0  0  0  0
 16 25  1  0  0  0  0
 17 26  1  0  0  0  0
 18 22  1  0  0  0  0
 18 25  1  0  0  0  0
 18 27  2  0  0  0  0
 19 26  1  0  0  0  0
 20 26  1  0  0  0  0
 21 25  1  0  0  0  0
 22 24  1  0  0  0  0
  1 29  1  0  0  0  0
  2 30  1  0  0  0  0
  3 31  1  0  0  0  0
  4 32  1  0  0  0  0
  5 33  1  0  0  0  0
  6 34  1  0  0  0  0
  7 35  1  0  0  0  0
  8 36  1  0  0  0  0
  9 37  1  0  0  0  0
 10 38  1  0  0  0  0
 11 39  1  0  0  0  0
 12 40  1  0  0  0  0
 19 41  1  0  0  0  0
 19 42  1  0  0  0  0
 19 43  1  0  0  0  0
 20 44  1  0  0  0  0
 20 45  1  0  0  0  0
 20 46  1  0  0  0  0
 21 47  1  0  0  0  0
 21 48  1  0  0  0  0
 22 49  1  0  0  0  0
 22 50  1  0  0  0  0
M  END
> <clash_score>
0

> <docking_score>
-9.31361198425293

> <overlap_score>
0.9207345843315125

$$$$
BENZO_367_1
  -OEChem-08232013553D

 53 56  0     0  0  0  0  0  0999 V2000
    3.8860    2.1050   19.5250 C   0  0  0  0  0  0  0  0  0  0  0  0
    4.2460    1.7520   20.8250 C   0  0  0  0  0  0  0  0  0  0  0  0
    4.6610    1.7170   18.4380 C   0  0  0  0  0  0  0  0  0  0  0  0
    5.3890    1.0010   21.0690 C   0  0  0  0  0  0  0  0  0  0  0  0
    9.5890   -2.4950   23.2210 C   0  0  0  0  0  0  0  0  0  0  0  0
    8.2550   -1.0010   24.5520 C   0  0  0  0  0  0  0  0  0  0  0  0
    9.1890   -3.5540   24.0140 C   0  0  0  0  0  0  0  0  0  0  0  0
    7.8700   -2.0610   25.3550 C   0  0  0  0  0  0  0  0  0  0  0  0
   13.1958    0.4729   23.8697 C   0  0  0  0  0  0  0  0  0  0  0  0
   12.3969   -0.8706   22.3232 C   0  0  0  0  0  0  0  0  0  0  0  0
    7.5840   -0.2700   18.5160 C   0  0  0  0  0  0  0  0  0  0  0  0
   12.0164    0.1329   23.1804 C   0  0  0  0  0  0  0  0  0  0  0  0
    5.7970    0.9500   18.6730 C   0  0  0  0  0  0  0  0  0  0  0  0
    6.1460    0.6070   19.9750 C   0  0  0  0  0  0  0  0  0  0  0  0
    9.1280   -1.2090   23.4870 C   0  0  0  0  0  0  0  0  0  0  0  0
    8.3450   -3.3440   25.0980 C   0  0  0  0  0  0  0  0  0  0  0  0
    9.0430    0.2380   21.4940 C   0  0  0  0  0  0  0  0  0  0  0  0
   14.5775   -2.0202   21.8738 C   0  0  0  0  0  0  0  0  0  0  0  0
    7.2639   -5.5572   25.3803 C   0  0  0  0  0  0  0  0  0  0  0  0
    8.3059   -4.4049   27.3386 C   0  0  0  0  0  0  0  0  0  0  0  0
   10.6485    0.7293   23.3453 C   0  0  0  0  0  0  0  0  0  0  0  0
    8.0950   -0.7700   20.8440 C   0  0  0  0  0  0  0  0  0  0  0  0
   14.2468   -0.2555   23.4839 N   0  0  0  0  0  0  0  0  0  0  0  0
    6.7100    0.3850   17.8100 N   0  0  0  0  0  0  0  0  0  0  0  0
   13.7291   -1.0633   22.5429 N   0  0  0  0  0  0  0  0  0  0  0  0
    7.2710   -0.1460   19.8310 N   0  0  0  0  0  0  0  0  0  0  0  0
    9.5820   -0.1080   22.7000 N   0  0  0  0  0  0  0  0  0  0  0  0
    7.9731   -4.4180   25.9279 N   0  0  0  0  0  0  0  0  0  0  0  0
    9.2950    1.3000   20.9480 O   0  0  0  0  0  0  0  0  0  0  0  0
    2.9844    2.6932   19.3613 H   0  0  0  0  0  0  0  0  0  0  0  0
    3.6232    2.0695   21.6567 H   0  0  0  0  0  0  0  0  0  0  0  0
    4.3779    2.0108   17.4276 H   0  0  0  0  0  0  0  0  0  0  0  0
    5.6763    0.7334   22.0897 H   0  0  0  0  0  0  0  0  0  0  0  0
   10.2682   -2.6746   22.3864 H   0  0  0  0  0  0  0  0  0  0  0  0
    7.8692   -0.0022   24.7600 H   0  0  0  0  0  0  0  0  0  0  0  0
    9.5433   -4.5619   23.7809 H   0  0  0  0  0  0  0  0  0  0  0  0
    7.1923   -1.8829   26.1908 H   0  0  0  0  0  0  0  0  0  0  0  0
   13.3356    1.2201   24.6381 H   0  0  0  0  0  0  0  0  0  0  0  0
   11.8465   -1.4504   21.5947 H   0  0  0  0  0  0  0  0  0  0  0  0
    8.4216   -0.8246   18.1565 H   0  0  0  0  0  0  0  0  0  0  0  0
   14.9983   -1.5366   20.9883 H   0  0  0  0  0  0  0  0  0  0  0  0
   15.3749   -2.3365   22.5520 H   0  0  0  0  0  0  0  0  0  0  0  0
   13.9832   -2.8926   21.5883 H   0  0  0  0  0  0  0  0  0  0  0  0
    7.0638   -6.2846   26.1808 H   0  0  0  0  0  0  0  0  0  0  0  0
    6.3117   -5.2211   24.9440 H   0  0  0  0  0  0  0  0  0  0  0  0
    7.8779   -6.0306   24.5999 H   0  0  0  0  0  0  0  0  0  0  0  0
    7.9321   -5.3245   27.8126 H   0  0  0  0  0  0  0  0  0  0  0  0
    9.3981   -4.3495   27.4569 H   0  0  0  0  0  0  0  0  0  0  0  0
    7.8404   -3.5306   27.8169 H   0  0  0  0  0  0  0  0  0  0  0  0
   10.3984    0.8342   24.4067 H   0  0  0  0  0  0  0  0  0  0  0  0
   10.5989    1.7282   22.8993 H   0  0  0  0  0  0  0  0  0  0  0  0
    8.6626   -1.5629   20.3596 H   0  0  0  0  0  0  0  0  0  0  0  0
    7.4236   -1.1883   21.5924 H   0  0  0  0  0  0  0  0  0  0  0  0
  1  2  1  0  0  0  0
  1  3  2  0  0  0  0
  2  4  2  0  0  0  0
  3 13  1  0  0  0  0
  4 14  1  0  0  0  0
  5  7  2  0  0  0  0
  5 15  1  0  0  0  0
  6  8  1  0  0  0  0
  6 15  2  0  0  0  0
  7 16  1  0  0  0  0
  8 16  2  0  0  0  0
  9 12  1  0  0  0  0
  9 23  2  0  0  0  0
 10 12  2  0  0  0  0
 10 25  1  0  0  0  0
 11 24  2  0  0  0  0
 11 26  1  0  0  0  0
 12 21  1  0  0  0  0
 13 14  2  0  0  0  0
 13 24  1  0  0  0  0
 14 26  1  0  0  0  0
 15 27  1  0  0  0  0
 16 28  1  0  0  0  0
 17 22  1  0  0  0  0
 17 27  1  0  0  0  0
 17 29  2  0  0  0  0
 18 25  1  0  0  0  0
 19 28  1  0  0  0  0
 20 28  1  0  0  0  0
 21 27  1  0  0  0  0
 22 26  1  0  0  0  0
 23 25  1  0  0  0  0
  1 30  1  0  0  0  0
  2 31  1  0  0  0  0
  3 32  1  0  0  0  0
  4 33  1  0  0  0  0
  5 34  1  0  0  0  0
  6 35  1  0  0  0  0
  7 36  1  0  0  0  0
  8 37  1  0  0  0  0
  9 38  1  0  0  0  0
 10 39  1  0  0  0  0
 11 40  1  0  0  0  0
 18 41  1  0  0  0  0
 18 42  1  0  0  0  0
 18 43  1  0  0  0  0
 19 44  1  0  0  0  0
 19 45  1  0  0  0  0
 19 46  1  0  0  0  0
 20 47  1  0  0  0  0
 20 48  1  0  0  0  0
 20 49  1  0  0  0  0
 21 50  1  0  0  0  0
 21 51  1  0  0  0  0
 22 52  1  0  0  0  0
 22 53  1  0  0  0  0
M  END
> <clash_score>
0

> <docking_score>
-9.724660873413086

> <overlap_score>
0.9333298206329346

$$$$
BENZO_366_1
  -OEChem-08232013553D

 53 56  0     0  0  0  0  0  0999 V2000
    3.8860    2.1050   19.5250 C   0  0  0  0  0  0  0  0  0  0  0  0
    4.2460    1.7520   20.8250 C   0  0  0  0  0  0  0  0  0  0  0  0
   13.5473   -0.9045   25.1617 C   0  0  0  0  0  0  0  0  0  0  0  0
   12.3834   -0.1768   24.9142 C   0  0  0  0  0  0  0  0  0  0  0  0
    4.6610    1.7170   18.4380 C   0  0  0  0  0  0  0  0  0  0  0  0
    5.3890    1.0010   21.0690 C   0  0  0  0  0  0  0  0  0  0  0  0
    9.5890   -2.4950   23.2210 C   0  0  0  0  0  0  0  0  0  0  0  0
    8.2550   -1.0010   24.5520 C   0  0  0  0  0  0  0  0  0  0  0  0
    9.1890   -3.5540   24.0140 C   0  0  0  0  0  0  0  0  0  0  0  0
    7.8700   -2.0610   25.3550 C   0  0  0  0  0  0  0  0  0  0  0  0
   14.2299   -1.5086   24.1059 C   0  0  0  0  0  0  0  0  0  0  0  0
   12.5847   -0.6573   22.5550 C   0  0  0  0  0  0  0  0  0  0  0  0
    7.5840   -0.2700   18.5160 C   0  0  0  0  0  0  0  0  0  0  0  0
   11.9020   -0.0532   23.6108 C   0  0  0  0  0  0  0  0  0  0  0  0
    5.7970    0.9500   18.6730 C   0  0  0  0  0  0  0  0  0  0  0  0
    6.1460    0.6070   19.9750 C   0  0  0  0  0  0  0  0  0  0  0  0
    9.1280   -1.2090   23.4870 C   0  0  0  0  0  0  0  0  0  0  0  0
    8.3450   -3.3440   25.0980 C   0  0  0  0  0  0  0  0  0  0  0  0
   13.7486   -1.3850   22.8026 C   0  0  0  0  0  0  0  0  0  0  0  0
    9.0430    0.2380   21.4940 C   0  0  0  0  0  0  0  0  0  0  0  0
    7.2639   -5.5572   25.3803 C   0  0  0  0  0  0  0  0  0  0  0  0
    8.3059   -4.4049   27.3386 C   0  0  0  0  0  0  0  0  0  0  0  0
   10.6485    0.7293   23.3453 C   0  0  0  0  0  0  0  0  0  0  0  0
    8.0950   -0.7700   20.8440 C   0  0  0  0  0  0  0  0  0  0  0  0
    6.7100    0.3850   17.8100 N   0  0  0  0  0  0  0  0  0  0  0  0
    7.2710   -0.1460   19.8310 N   0  0  0  0  0  0  0  0  0  0  0  0
    9.5820   -0.1080   22.7000 N   0  0  0  0  0  0  0  0  0  0  0  0
    7.9731   -4.4180   25.9279 N   0  0  0  0  0  0  0  0  0  0  0  0
    9.2950    1.3000   20.9480 O   0  0  0  0  0  0  0  0  0  0  0  0
   14.5907   -2.1315   21.5005 Cl  0  0  0  0  0  0  0  0  0  0  0  0
    2.9844    2.6932   19.3613 H   0  0  0  0  0  0  0  0  0  0  0  0
    3.6232    2.0695   21.6567 H   0  0  0  0  0  0  0  0  0  0  0  0
   13.9217   -1.0007   26.1768 H   0  0  0  0  0  0  0  0  0  0  0  0
   11.8579    0.2905   25.7429 H   0  0  0  0  0  0  0  0  0  0  0  0
    4.3779    2.0108   17.4276 H   0  0  0  0  0  0  0  0  0  0  0  0
    5.6763    0.7334   22.0897 H   0  0  0  0  0  0  0  0  0  0  0  0
   10.2682   -2.6746   22.3864 H   0  0  0  0  0  0  0  0  0  0  0  0
    7.8692   -0.0022   24.7600 H   0  0  0  0  0  0  0  0  0  0  0  0
    9.5433   -4.5619   23.7809 H   0  0  0  0  0  0  0  0  0  0  0  0
    7.1923   -1.8829   26.1908 H   0  0  0  0  0  0  0  0  0  0  0  0
   15.1357   -2.0730   24.3137 H   0  0  0  0  0  0  0  0  0  0  0  0
   12.2056   -0.5576   21.5405 H   0  0  0  0  0  0  0  0  0  0  0  0
    8.4216   -0.8246   18.1565 H   0  0  0  0  0  0  0  0  0  0  0  0
    7.0638   -6.2846   26.1808 H   0  0  0  0  0  0  0  0  0  0  0  0
    6.3117   -5.2211   24.9440 H   0  0  0  0  0  0  0  0  0  0  0  0
    7.8779   -6.0306   24.5999 H   0  0  0  0  0  0  0  0  0  0  0  0
    7.9321   -5.3245   27.8126 H   0  0  0  0  0  0  0  0  0  0  0  0
    9.3981   -4.3495   27.4569 H   0  0  0  0  0  0  0  0  0  0  0  0
    7.8404   -3.5306   27.8169 H   0  0  0  0  0  0  0  0  0  0  0  0
   10.2409    1.1337   24.2782 H   0  0  0  0  0  0  0  0  0  0  0  0
   10.8479    1.5780   22.6826 H   0  0  0  0  0  0  0  0  0  0  0  0
    8.6626   -1.5629   20.3596 H   0  0  0  0  0  0  0  0  0  0  0  0
    7.4236   -1.1883   21.5924 H   0  0  0  0  0  0  0  0  0  0  0  0
  1  2  1  0  0  0  0
  1  5  2  0  0  0  0
  2  6  2  0  0  0  0
  3  4  2  0  0  0  0
  3 11  1  0  0  0  0
  4 14  1  0  0  0  0
  5 15  1  0  0  0  0
  6 16  1  0  0  0  0
  7  9  2  0  0  0  0
  7 17  1  0  0  0  0
  8 10  1  0  0  0  0
  8 17  2  0  0  0  0
  9 18  1  0  0  0  0
 10 18  2  0  0  0  0
 11 19  2  0  0  0  0
 12 14  2  0  0  0  0
 12 19  1  0  0  0  0
 13 25  2  0  0  0  0
 13 26  1  0  0  0  0
 14 23  1  0  0  0  0
 15 16  2  0  0  0  0
 15 25  1  0  0  0  0
 16 26  1  0  0  0  0
 17 27  1  0  0  0  0
 18 28  1  0  0  0  0
 19 30  1  0  0  0  0
 20 24  1  0  0  0  0
 20 27  1  0  0  0  0
 20 29  2  0  0  0  0
 21 28  1  0  0  0  0
 22 28  1  0  0  0  0
 23 27  1  0  0  0  0
 24 26  1  0  0  0  0
  1 31  1  0  0  0  0
  2 32  1  0  0  0  0
  3 33  1  0  0  0  0
  4 34  1  0  0  0  0
  5 35  1  0  0  0  0
  6 36  1  0  0  0  0
  7 37  1  0  0  0  0
  8 38  1  0  0  0  0
  9 39  1  0  0  0  0
 10 40  1  0  0  0  0
 11 41  1  0  0  0  0
 12 42  1  0  0  0  0
 13 43  1  0  0  0  0
 21 44  1  0  0  0  0
 21 45  1  0  0  0  0
 21 46  1  0  0  0  0
 22 47  1  0  0  0  0
 22 48  1  0  0  0  0
 22 49  1  0  0  0  0
 23 50  1  0  0  0  0
 23 51  1  0  0  0  0
 24 52  1  0  0  0  0
 24 53  1  0  0  0  0
M  END
> <clash_score>
0

> <docking_score>
-8.7178316116333

> <overlap_score>
0.9459957480430603

$$$$
BENZO_369_1
  -OEChem-08232013553D

 55 58  0     0  0  0  0  0  0999 V2000
   14.2308   -1.5082   24.1035 C   0  0  0  0  0  0  0  0  0  0  0  0
   13.8842   -0.4439   24.9358 C   0  0  0  0  0  0  0  0  0  0  0  0
   13.4130   -1.8449   23.0247 C   0  0  0  0  0  0  0  0  0  0  0  0
    3.8860    2.1050   19.5250 C   0  0  0  0  0  0  0  0  0  0  0  0
    4.2460    1.7520   20.8250 C   0  0  0  0  0  0  0  0  0  0  0  0
   12.7198    0.2836   24.6895 C   0  0  0  0  0  0  0  0  0  0  0  0
   12.2487   -1.1174   22.7785 C   0  0  0  0  0  0  0  0  0  0  0  0
    4.6610    1.7170   18.4380 C   0  0  0  0  0  0  0  0  0  0  0  0
    5.3890    1.0010   21.0690 C   0  0  0  0  0  0  0  0  0  0  0  0
    9.1890   -3.5540   24.0140 C   0  0  0  0  0  0  0  0  0  0  0  0
    7.8700   -2.0610   25.3550 C   0  0  0  0  0  0  0  0  0  0  0  0
    9.5890   -2.4950   23.2210 C   0  0  0  0  0  0  0  0  0  0  0  0
    8.2550   -1.0010   24.5520 C   0  0  0  0  0  0  0  0  0  0  0  0
    7.5840   -0.2700   18.5160 C   0  0  0  0  0  0  0  0  0  0  0  0
   11.9020   -0.0532   23.6108 C   0  0  0  0  0  0  0  0  0  0  0  0
    5.7970    0.9500   18.6730 C   0  0  0  0  0  0  0  0  0  0  0  0
    6.1460    0.6070   19.9750 C   0  0  0  0  0  0  0  0  0  0  0  0
    8.3450   -3.3440   25.0980 C   0  0  0  0  0  0  0  0  0  0  0  0
    9.1280   -1.2090   23.4870 C   0  0  0  0  0  0  0  0  0  0  0  0
    7.6606   -4.3758   27.2875 C   0  0  0  0  0  0  0  0  0  0  0  0
    9.0430    0.2380   21.4940 C   0  0  0  0  0  0  0  0  0  0  0  0
    8.4363   -6.7642   27.6029 C   0  0  0  0  0  0  0  0  0  0  0  0
   10.6485    0.7293   23.3453 C   0  0  0  0  0  0  0  0  0  0  0  0
    7.3112   -5.7645   27.8015 C   0  0  0  0  0  0  0  0  0  0  0  0
    8.0950   -0.7700   20.8440 C   0  0  0  0  0  0  0  0  0  0  0  0
    6.7100    0.3850   17.8100 N   0  0  0  0  0  0  0  0  0  0  0  0
    7.2710   -0.1460   19.8310 N   0  0  0  0  0  0  0  0  0  0  0  0
    7.9771   -4.4058   25.9196 N   0  0  0  0  0  0  0  0  0  0  0  0
    9.5820   -0.1080   22.7000 N   0  0  0  0  0  0  0  0  0  0  0  0
    7.6509   -3.3903   28.0177 O   0  0  0  0  0  0  0  0  0  0  0  0
    9.2950    1.3000   20.9480 O   0  0  0  0  0  0  0  0  0  0  0  0
   15.1381   -2.0737   24.2946 H   0  0  0  0  0  0  0  0  0  0  0  0
   14.5213   -0.1809   25.7751 H   0  0  0  0  0  0  0  0  0  0  0  0
   13.6831   -2.6728   22.3759 H   0  0  0  0  0  0  0  0  0  0  0  0
    2.9844    2.6932   19.3613 H   0  0  0  0  0  0  0  0  0  0  0  0
    3.6232    2.0695   21.6567 H   0  0  0  0  0  0  0  0  0  0  0  0
   12.4576    1.1111   25.3435 H   0  0  0  0  0  0  0  0  0  0  0  0
   11.6176   -1.3871   21.9358 H   0  0  0  0  0  0  0  0  0  0  0  0
    4.3779    2.0108   17.4276 H   0  0  0  0  0  0  0  0  0  0  0  0
    5.6763    0.7334   22.0897 H   0  0  0  0  0  0  0  0  0  0  0  0
    9.5436   -4.5614   23.7799 H   0  0  0  0  0  0  0  0  0  0  0  0
    7.1918   -1.8823   26.1906 H   0  0  0  0  0  0  0  0  0  0  0  0
   10.2676   -2.6754   22.3861 H   0  0  0  0  0  0  0  0  0  0  0  0
    7.8686   -0.0026   24.7598 H   0  0  0  0  0  0  0  0  0  0  0  0
    8.4216   -0.8246   18.1565 H   0  0  0  0  0  0  0  0  0  0  0  0
    8.6959   -6.8588   26.5434 H   0  0  0  0  0  0  0  0  0  0  0  0
    8.1390   -7.7508   27.9715 H   0  0  0  0  0  0  0  0  0  0  0  0
    9.3372   -6.4545   28.1428 H   0  0  0  0  0  0  0  0  0  0  0  0
   10.2409    1.1337   24.2782 H   0  0  0  0  0  0  0  0  0  0  0  0
   10.8479    1.5780   22.6826 H   0  0  0  0  0  0  0  0  0  0  0  0
    7.0726   -5.6901   28.8688 H   0  0  0  0  0  0  0  0  0  0  0  0
    6.4146   -6.1140   27.2767 H   0  0  0  0  0  0  0  0  0  0  0  0
    8.6626   -1.5629   20.3596 H   0  0  0  0  0  0  0  0  0  0  0  0
    7.4236   -1.1883   21.5924 H   0  0  0  0  0  0  0  0  0  0  0  0
    7.9294   -5.3301   25.4753 H   0  0  0  0  0  0  0  0  0  0  0  0
  1  2  1  0  0  0  0
  1  3  2  0  0  0  0
  2  6  2  0  0  0  0
  3  7  1  0  0  0  0
  4  5  1  0  0  0  0
  4  8  2  0  0  0  0
  5  9  2  0  0  0  0
  6 15  1  0  0  0  0
  7 15  2  0  0  0  0
  8 16  1  0  0  0  0
  9 17  1  0  0  0  0
 10 12  2  0  0  0  0
 10 18  1  0  0  0  0
 11 13  1  0  0  0  0
 11 18  2  0  0  0  0
 12 19  1  0  0  0  0
 13 19  2  0  0  0  0
 14 26  2  0  0  0  0
 14 27  1  0  0  0  0
 15 23  1  0  0  0  0
 16 17  2  0  0  0  0
 16 26  1  0  0  0  0
 17 27  1  0  0  0  0
 18 28  1  0  0  0  0
 19 29  1  0  0  0  0
 20 24  1  0  0  0  0
 20 28  1  0  0  0  0
 20 30  2  0  0  0  0
 21 25  1  0  0  0  0
 21 29  1  0  0  0  0
 21 31  2  0  0  0  0
 22 24  1  0  0  0  0
 23 29  1  0  0  0  0
 25 27  1  0  0  0  0
  1 32  1  0  0  0  0
  2 33  1  0  0  0  0
  3 34  1  0  0  0  0
  4 35  1  0  0  0  0
  5 36  1  0  0  0  0
  6 37  1  0  0  0  0
  7 38  1  0  0  0  0
  8 39  1  0  0  0  0
  9 40  1  0  0  0  0
 10 41  1  0  0  0  0
 11 42  1  0  0  0  0
 12 43  1  0  0  0  0
 13 44  1  0  0  0  0
 14 45  1  0  0  0  0
 22 46  1  0  0  0  0
 22 47  1  0  0  0  0
 22 48  1  0  0  0  0
 23 49  1  0  0  0  0
 23 50  1  0  0  0  0
 24 51  1  0  0  0  0
 24 52  1  0  0  0  0
 25 53  1  0  0  0  0
 25 54  1  0  0  0  0
 28 55  1  0  0  0  0
M  END
> <clash_score>
0

> <docking_score>
-9.232954978942871

> <overlap_score>
0.9748451113700867

$$$$
BENZO_368_1
  -OEChem-08232013553D

 52 55  0     0  0  0  0  0  0999 V2000
    3.8860    2.1050   19.5250 C   0  0  0  0  0  0  0  0  0  0  0  0
    4.2460    1.7520   20.8250 C   0  0  0  0  0  0  0  0  0  0  0  0
    4.6610    1.7170   18.4380 C   0  0  0  0  0  0  0  0  0  0  0  0
    5.3890    1.0010   21.0690 C   0  0  0  0  0  0  0  0  0  0  0  0
    9.1890   -3.5540   24.0140 C   0  0  0  0  0  0  0  0  0  0  0  0
    7.8700   -2.0610   25.3550 C   0  0  0  0  0  0  0  0  0  0  0  0
    9.5890   -2.4950   23.2210 C   0  0  0  0  0  0  0  0  0  0  0  0
    8.2550   -1.0010   24.5520 C   0  0  0  0  0  0  0  0  0  0  0  0
   12.4671   -0.2328   24.9064 C   0  0  0  0  0  0  0  0  0  0  0  0
   13.6167   -0.9909   24.8690 C   0  0  0  0  0  0  0  0  0  0  0  0
   12.6415   -0.6807   22.6324 C   0  0  0  0  0  0  0  0  0  0  0  0
    7.5840   -0.2700   18.5160 C   0  0  0  0  0  0  0  0  0  0  0  0
   11.9020   -0.0532   23.6108 C   0  0  0  0  0  0  0  0  0  0  0  0
    5.7970    0.9500   18.6730 C   0  0  0  0  0  0  0  0  0  0  0  0
    6.1460    0.6070   19.9750 C   0  0  0  0  0  0  0  0  0  0  0  0
    8.3450   -3.3440   25.0980 C   0  0  0  0  0  0  0  0  0  0  0  0
    9.1280   -1.2090   23.4870 C   0  0  0  0  0  0  0  0  0  0  0  0
    8.2028   -4.5559   27.2975 C   0  0  0  0  0  0  0  0  0  0  0  0
    9.0430    0.2380   21.4940 C   0  0  0  0  0  0  0  0  0  0  0  0
    7.8897   -6.0865   29.2887 C   0  0  0  0  0  0  0  0  0  0  0  0
   10.6485    0.7293   23.3453 C   0  0  0  0  0  0  0  0  0  0  0  0
    7.6349   -5.8720   27.8075 C   0  0  0  0  0  0  0  0  0  0  0  0
    8.0950   -0.7700   20.8440 C   0  0  0  0  0  0  0  0  0  0  0  0
    6.7100    0.3850   17.8100 N   0  0  0  0  0  0  0  0  0  0  0  0
    7.2710   -0.1460   19.8310 N   0  0  0  0  0  0  0  0  0  0  0  0
    7.9771   -4.4058   25.9196 N   0  0  0  0  0  0  0  0  0  0  0  0
    9.5820   -0.1080   22.7000 N   0  0  0  0  0  0  0  0  0  0  0  0
    8.7749   -3.7635   28.0387 O   0  0  0  0  0  0  0  0  0  0  0  0
    9.2950    1.3000   20.9480 O   0  0  0  0  0  0  0  0  0  0  0  0
   14.0106   -1.4825   23.2767 S   0  0  0  0  0  0  0  0  0  0  0  0
    2.9844    2.6932   19.3613 H   0  0  0  0  0  0  0  0  0  0  0  0
    3.6232    2.0695   21.6567 H   0  0  0  0  0  0  0  0  0  0  0  0
    4.3779    2.0108   17.4276 H   0  0  0  0  0  0  0  0  0  0  0  0
    5.6763    0.7334   22.0897 H   0  0  0  0  0  0  0  0  0  0  0  0
    9.5436   -4.5614   23.7799 H   0  0  0  0  0  0  0  0  0  0  0  0
    7.1918   -1.8823   26.1906 H   0  0  0  0  0  0  0  0  0  0  0  0
   10.2676   -2.6754   22.3861 H   0  0  0  0  0  0  0  0  0  0  0  0
    7.8686   -0.0026   24.7598 H   0  0  0  0  0  0  0  0  0  0  0  0
   12.0548    0.1721   25.8221 H   0  0  0  0  0  0  0  0  0  0  0  0
   14.2445   -1.2790   25.7003 H   0  0  0  0  0  0  0  0  0  0  0  0
   12.4475   -0.7082   21.5691 H   0  0  0  0  0  0  0  0  0  0  0  0
    8.4216   -0.8246   18.1565 H   0  0  0  0  0  0  0  0  0  0  0  0
    8.9625   -6.0815   29.5080 H   0  0  0  0  0  0  0  0  0  0  0  0
    7.4794   -7.0486   29.6106 H   0  0  0  0  0  0  0  0  0  0  0  0
    7.4213   -5.2977   29.8865 H   0  0  0  0  0  0  0  0  0  0  0  0
   10.2409    1.1337   24.2782 H   0  0  0  0  0  0  0  0  0  0  0  0
   10.8479    1.5780   22.6826 H   0  0  0  0  0  0  0  0  0  0  0  0
    6.5555   -5.8816   27.6173 H   0  0  0  0  0  0  0  0  0  0  0  0
    8.0877   -6.6906   27.2364 H   0  0  0  0  0  0  0  0  0  0  0  0
    8.6626   -1.5629   20.3596 H   0  0  0  0  0  0  0  0  0  0  0  0
    7.4236   -1.1883   21.5924 H   0  0  0  0  0  0  0  0  0  0  0  0
    7.4775   -5.1800   25.4669 H   0  0  0  0  0  0  0  0  0  0  0  0
  1  2  1  0  0  0  0
  1  3  2  0  0  0  0
  2  4  2  0  0  0  0
  3 14  1  0  0  0  0
  4 15  1  0  0  0  0
  5  7  2  0  0  0  0
  5 16  1  0  0  0  0
  6  8  1  0  0  0  0
  6 16  2  0  0  0  0
  7 17  1  0  0  0  0
  8 17  2  0  0  0  0
  9 10  2  0  0  0  0
  9 13  1  0  0  0  0
 10 30  1  0  0  0  0
 11 13  2  0  0  0  0
 11 30  1  0  0  0  0
 12 24  2  0  0  0  0
 12 25  1  0  0  0  0
 13 21  1  0  0  0  0
 14 15  2  0  0  0  0
 14 24  1  0  0  0  0
 15 25  1  0  0  0  0
 16 26  1  0  0  0  0
 17 27  1  0  0  0  0
 18 22  1  0  0  0  0
 18 26  1  0  0  0  0
 18 28  2  0  0  0  0
 19 23  1  0  0  0  0
 19 27  1  0  0  0  0
 19 29  2  0  0  0  0
 20 22  1  0  0  0  0
 21 27  1  0  0  0  0
 23 25  1  0  0  0  0
  1 31  1  0  0  0  0
  2 32  1  0  0  0  0
  3 33  1  0  0  0  0
  4 34  1  0  0  0  0
  5 35  1  0  0  0  0
  6 36  1  0  0  0  0
  7 37  1  0  0  0  0
  8 38  1  0  0  0  0
  9 39  1  0  0  0  0
 10 40  1  0  0  0  0
 11 41  1  0  0  0  0
 12 42  1  0  0  0  0
 20 43  1  0  0  0  0
 20 44  1  0  0  0  0
 20 45  1  0  0  0  0
 21 46  1  0  0  0  0
 21 47  1  0  0  0  0
 22 48  1  0  0  0  0
 22 49  1  0  0  0  0
 23 50  1  0  0  0  0
 23 51  1  0  0  0  0
 26 52  1  0  0  0  0
M  END
> <clash_score>
0

> <docking_score>
-9.587794303894043

> <overlap_score>
0.9771667718887329

$$$$
BENZO_373_1
  -OEChem-08232013553D

 60 64  0     0  0  0  0  0  0999 V2000
   14.3059   -1.3742   24.0790 C   0  0  0  0  0  0  0  0  0  0  0  0
   13.9373   -0.3085   24.9000 C   0  0  0  0  0  0  0  0  0  0  0  0
   13.4875   -1.7492   23.0134 C   0  0  0  0  0  0  0  0  0  0  0  0
    3.8860    2.1050   19.5250 C   0  0  0  0  0  0  0  0  0  0  0  0
    4.2460    1.7520   20.8250 C   0  0  0  0  0  0  0  0  0  0  0  0
   12.7504    0.3822   24.6556 C   0  0  0  0  0  0  0  0  0  0  0  0
   12.3006   -1.0585   22.7690 C   0  0  0  0  0  0  0  0  0  0  0  0
    4.6610    1.7170   18.4380 C   0  0  0  0  0  0  0  0  0  0  0  0
    5.3890    1.0010   21.0690 C   0  0  0  0  0  0  0  0  0  0  0  0
    9.1890   -3.5540   24.0140 C   0  0  0  0  0  0  0  0  0  0  0  0
    7.8700   -2.0610   25.3550 C   0  0  0  0  0  0  0  0  0  0  0  0
    9.5890   -2.4950   23.2210 C   0  0  0  0  0  0  0  0  0  0  0  0
    8.2550   -1.0010   24.5520 C   0  0  0  0  0  0  0  0  0  0  0  0
    7.5840   -0.2700   18.5160 C   0  0  0  0  0  0  0  0  0  0  0  0
   11.9320    0.0072   23.5900 C   0  0  0  0  0  0  0  0  0  0  0  0
    5.7970    0.9500   18.6730 C   0  0  0  0  0  0  0  0  0  0  0  0
    6.1460    0.6070   19.9750 C   0  0  0  0  0  0  0  0  0  0  0  0
    8.3450   -3.3440   25.0980 C   0  0  0  0  0  0  0  0  0  0  0  0
    9.1280   -1.2090   23.4870 C   0  0  0  0  0  0  0  0  0  0  0  0
    9.0430    0.2380   21.4940 C   0  0  0  0  0  0  0  0  0  0  0  0
    7.5748   -4.8280   28.7278 C   0  0  0  0  0  0  0  0  0  0  0  0
    8.9776   -4.7555   28.1204 C   0  0  0  0  0  0  0  0  0  0  0  0
    6.5554   -4.0713   27.8732 C   0  0  0  0  0  0  0  0  0  0  0  0
    8.9620   -5.1961   26.6568 C   0  0  0  0  0  0  0  0  0  0  0  0
    6.6009   -4.5253   26.4110 C   0  0  0  0  0  0  0  0  0  0  0  0
   10.6542    0.7501   23.3264 C   0  0  0  0  0  0  0  0  0  0  0  0
    8.0950   -0.7700   20.8440 C   0  0  0  0  0  0  0  0  0  0  0  0
    6.7100    0.3850   17.8100 N   0  0  0  0  0  0  0  0  0  0  0  0
    7.2710   -0.1460   19.8310 N   0  0  0  0  0  0  0  0  0  0  0  0
    7.9770   -4.4029   25.9162 N   0  0  0  0  0  0  0  0  0  0  0  0
    9.5820   -0.1080   22.7000 N   0  0  0  0  0  0  0  0  0  0  0  0
    9.2950    1.3000   20.9480 O   0  0  0  0  0  0  0  0  0  0  0  0
   15.2308   -1.9111   24.2687 H   0  0  0  0  0  0  0  0  0  0  0  0
   14.5750   -0.0157   25.7291 H   0  0  0  0  0  0  0  0  0  0  0  0
   13.7747   -2.5782   22.3734 H   0  0  0  0  0  0  0  0  0  0  0  0
    2.9844    2.6932   19.3613 H   0  0  0  0  0  0  0  0  0  0  0  0
    3.6232    2.0695   21.6567 H   0  0  0  0  0  0  0  0  0  0  0  0
   12.4712    1.2111   25.3006 H   0  0  0  0  0  0  0  0  0  0  0  0
   11.6692   -1.3578   21.9366 H   0  0  0  0  0  0  0  0  0  0  0  0
    4.3779    2.0108   17.4276 H   0  0  0  0  0  0  0  0  0  0  0  0
    5.6763    0.7334   22.0897 H   0  0  0  0  0  0  0  0  0  0  0  0
    9.5426   -4.5618   23.7797 H   0  0  0  0  0  0  0  0  0  0  0  0
    7.1914   -1.8824   26.1903 H   0  0  0  0  0  0  0  0  0  0  0  0
   10.2669   -2.6745   22.3854 H   0  0  0  0  0  0  0  0  0  0  0  0
    7.8690   -0.0020   24.7587 H   0  0  0  0  0  0  0  0  0  0  0  0
    8.4216   -0.8246   18.1565 H   0  0  0  0  0  0  0  0  0  0  0  0
    7.2681   -5.8807   28.8239 H   0  0  0  0  0  0  0  0  0  0  0  0
    7.5891   -4.4101   29.7448 H   0  0  0  0  0  0  0  0  0  0  0  0
    9.3554   -3.7320   28.1920 H   0  0  0  0  0  0  0  0  0  0  0  0
    9.6558   -5.3943   28.6900 H   0  0  0  0  0  0  0  0  0  0  0  0
    5.5496   -4.2322   28.2751 H   0  0  0  0  0  0  0  0  0  0  0  0
    6.7545   -2.9948   27.9293 H   0  0  0  0  0  0  0  0  0  0  0  0
    9.9612   -5.0560   26.2363 H   0  0  0  0  0  0  0  0  0  0  0  0
    8.7097   -6.2583   26.5922 H   0  0  0  0  0  0  0  0  0  0  0  0
    6.2649   -5.5600   26.3335 H   0  0  0  0  0  0  0  0  0  0  0  0
    5.9271   -3.8964   25.8283 H   0  0  0  0  0  0  0  0  0  0  0  0
   10.2469    1.1601   24.2571 H   0  0  0  0  0  0  0  0  0  0  0  0
   10.8221    1.5917   22.6463 H   0  0  0  0  0  0  0  0  0  0  0  0
    8.6688   -1.5655   20.3666 H   0  0  0  0  0  0  0  0  0  0  0  0
    7.4298   -1.1908   21.5994 H   0  0  0  0  0  0  0  0  0  0  0  0
  1  2  1  0  0  0  0
  1  3  2  0  0  0  0
  2  6  2  0  0  0  0
  3  7  1  0  0  0  0
  4  5  1  0  0  0  0
  4  8  2  0  0  0  0
  5  9  2  0  0  0  0
  6 15  1  0  0  0  0
  7 15  2  0  0  0  0
  8 16  1  0  0  0  0
  9 17  1  0  0  0  0
 10 12  2  0  0  0  0
 10 18  1  0  0  0  0
 11 13  1  0  0  0  0
 11 18  2  0  0  0  0
 12 19  1  0  0  0  0
 13 19  2  0  0  0  0
 14 28  2  0  0  0  0
 14 29  1  0  0  0  0
 15 26  1  0  0  0  0
 16 17  2  0  0  0  0
 16 28  1  0  0  0  0
 17 29  1  0  0  0  0
 18 30  1  0  0  0  0
 19 31  1  0  0  0  0
 20 27  1  0  0  0  0
 20 31  1  0  0  0  0
 20 32  2  0  0  0  0
 21 22  1  0  0  0  0
 21 23  1  0  0  0  0
 22 24  1  0  0  0  0
 23 25  1  0  0  0  0
 24 30  1  0  0  0  0
 25 30  1  0  0  0  0
 26 31  1  0  0  0  0
 27 29  1  0  0  0  0
  1 33  1  0  0  0  0
  2 34  1  0  0  0  0
  3 35  1  0  0  0  0
  4 36  1  0  0  0  0
  5 37  1  0  0  0  0
  6 38  1  0  0  0  0
  7 39  1  0  0  0  0
  8 40  1  0  0  0  0
  9 41  1  0  0  0  0
 10 42  1  0  0  0  0
 11 43  1  0  0  0  0
 12 44  1  0  0  0  0
 13 45  1  0  0  0  0
 14 46  1  0  0  0  0
 21 47  1  0  0  0  0
 21 48  1  0  0  0  0
 22 49  1  0  0  0  0
 22 50  1  0  0  0  0
 23 51  1  0  0  0  0
 23 52  1  0  0  0  0
 24 53  1  0  0  0  0
 24 54  1  0  0  0  0
 25 55  1  0  0  0  0
 25 56  1  0  0  0  0
 26 57  1  0  0  0  0
 26 58  1  0  0  0  0
 27 59  1  0  0  0  0
 27 60  1  0  0  0  0
M  END
> <clash_score>
0

> <docking_score>
-10.034956932067871

> <overlap_score>
0.979856014251709

$$$$
BENZO_372_1
  -OEChem-08232013553D

 57 61  0     0  0  0  0  0  0999 V2000
    3.8860    2.1050   19.5250 C   0  0  0  0  0  0  0  0  0  0  0  0
    4.2460    1.7520   20.8250 C   0  0  0  0  0  0  0  0  0  0  0  0
    4.6610    1.7170   18.4380 C   0  0  0  0  0  0  0  0  0  0  0  0
    5.3890    1.0010   21.0690 C   0  0  0  0  0  0  0  0  0  0  0  0
    9.1890   -3.5540   24.0140 C   0  0  0  0  0  0  0  0  0  0  0  0
    7.8700   -2.0610   25.3550 C   0  0  0  0  0  0  0  0  0  0  0  0
    9.5890   -2.4950   23.2210 C   0  0  0  0  0  0  0  0  0  0  0  0
    8.2550   -1.0010   24.5520 C   0  0  0  0  0  0  0  0  0  0  0  0
   12.5175   -0.1333   24.8814 C   0  0  0  0  0  0  0  0  0  0  0  0
   13.6871   -0.8602   24.8429 C   0  0  0  0  0  0  0  0  0  0  0  0
   12.6766   -0.6175   22.6136 C   0  0  0  0  0  0  0  0  0  0  0  0
    7.5840   -0.2700   18.5160 C   0  0  0  0  0  0  0  0  0  0  0  0
   11.9320    0.0072   23.5900 C   0  0  0  0  0  0  0  0  0  0  0  0
    5.7970    0.9500   18.6730 C   0  0  0  0  0  0  0  0  0  0  0  0
    6.1460    0.6070   19.9750 C   0  0  0  0  0  0  0  0  0  0  0  0
    8.3450   -3.3440   25.0980 C   0  0  0  0  0  0  0  0  0  0  0  0
    9.1280   -1.2090   23.4870 C   0  0  0  0  0  0  0  0  0  0  0  0
    9.0430    0.2380   21.4940 C   0  0  0  0  0  0  0  0  0  0  0  0
    7.5748   -4.8280   28.7278 C   0  0  0  0  0  0  0  0  0  0  0  0
    8.9776   -4.7555   28.1204 C   0  0  0  0  0  0  0  0  0  0  0  0
    6.5554   -4.0713   27.8732 C   0  0  0  0  0  0  0  0  0  0  0  0
    8.9620   -5.1961   26.6568 C   0  0  0  0  0  0  0  0  0  0  0  0
    6.6009   -4.5253   26.4110 C   0  0  0  0  0  0  0  0  0  0  0  0
   10.6542    0.7501   23.3264 C   0  0  0  0  0  0  0  0  0  0  0  0
    8.0950   -0.7700   20.8440 C   0  0  0  0  0  0  0  0  0  0  0  0
    6.7100    0.3850   17.8100 N   0  0  0  0  0  0  0  0  0  0  0  0
    7.2710   -0.1460   19.8310 N   0  0  0  0  0  0  0  0  0  0  0  0
    7.9770   -4.4029   25.9162 N   0  0  0  0  0  0  0  0  0  0  0  0
    9.5820   -0.1080   22.7000 N   0  0  0  0  0  0  0  0  0  0  0  0
    9.2950    1.3000   20.9480 O   0  0  0  0  0  0  0  0  0  0  0  0
   14.0750   -1.3696   23.2547 S   0  0  0  0  0  0  0  0  0  0  0  0
    2.9844    2.6932   19.3613 H   0  0  0  0  0  0  0  0  0  0  0  0
    3.6232    2.0695   21.6567 H   0  0  0  0  0  0  0  0  0  0  0  0
    4.3779    2.0108   17.4276 H   0  0  0  0  0  0  0  0  0  0  0  0
    5.6763    0.7334   22.0897 H   0  0  0  0  0  0  0  0  0  0  0  0
    9.5426   -4.5618   23.7797 H   0  0  0  0  0  0  0  0  0  0  0  0
    7.1914   -1.8824   26.1903 H   0  0  0  0  0  0  0  0  0  0  0  0
   10.2669   -2.6745   22.3854 H   0  0  0  0  0  0  0  0  0  0  0  0
    7.8690   -0.0020   24.7587 H   0  0  0  0  0  0  0  0  0  0  0  0
   12.1053    0.2767   25.7948 H   0  0  0  0  0  0  0  0  0  0  0  0
   14.3326   -1.1158   25.6713 H   0  0  0  0  0  0  0  0  0  0  0  0
   12.4706   -0.6696   21.5535 H   0  0  0  0  0  0  0  0  0  0  0  0
    8.4216   -0.8246   18.1565 H   0  0  0  0  0  0  0  0  0  0  0  0
    7.2681   -5.8807   28.8239 H   0  0  0  0  0  0  0  0  0  0  0  0
    7.5891   -4.4101   29.7448 H   0  0  0  0  0  0  0  0  0  0  0  0
    9.3554   -3.7320   28.1920 H   0  0  0  0  0  0  0  0  0  0  0  0
    9.6558   -5.3943   28.6900 H   0  0  0  0  0  0  0  0  0  0  0  0
    5.5496   -4.2322   28.2751 H   0  0  0  0  0  0  0  0  0  0  0  0
    6.7545   -2.9948   27.9293 H   0  0  0  0  0  0  0  0  0  0  0  0
    9.9612   -5.0560   26.2363 H   0  0  0  0  0  0  0  0  0  0  0  0
    8.7097   -6.2583   26.5922 H   0  0  0  0  0  0  0  0  0  0  0  0
    6.2649   -5.5600   26.3335 H   0  0  0  0  0  0  0  0  0  0  0  0
    5.9271   -3.8964   25.8283 H   0  0  0  0  0  0  0  0  0  0  0  0
   10.2469    1.1601   24.2571 H   0  0  0  0  0  0  0  0  0  0  0  0
   10.8221    1.5917   22.6463 H   0  0  0  0  0  0  0  0  0  0  0  0
    8.6688   -1.5655   20.3666 H   0  0  0  0  0  0  0  0  0  0  0  0
    7.4298   -1.1908   21.5994 H   0  0  0  0  0  0  0  0  0  0  0  0
  1  2  1  0  0  0  0
  1  3  2  0  0  0  0
  2  4  2  0  0  0  0
  3 14  1  0  0  0  0
  4 15  1  0  0  0  0
  5  7  2  0  0  0  0
  5 16  1  0  0  0  0
  6  8  1  0  0  0  0
  6 16  2  0  0  0  0
  7 17  1  0  0  0  0
  8 17  2  0  0  0  0
  9 10  2  0  0  0  0
  9 13  1  0  0  0  0
 10 31  1  0  0  0  0
 11 13  2  0  0  0  0
 11 31  1  0  0  0  0
 12 26  2  0  0  0  0
 12 27  1  0  0  0  0
 13 24  1  0  0  0  0
 14 15  2  0  0  0  0
 14 26  1  0  0  0  0
 15 27  1  0  0  0  0
 16 28  1  0  0  0  0
 17 29  1  0  0  0  0
 18 25  1  0  0  0  0
 18 29  1  0  0  0  0
 18 30  2  0  0  0  0
 19 20  1  0  0  0  0
 19 21  1  0  0  0  0
 20 22  1  0  0  0  0
 21 23  1  0  0  0  0
 22 28  1  0  0  0  0
 23 28  1  0  0  0  0
 24 29  1  0  0  0  0
 25 27  1  0  0  0  0
  1 32  1  0  0  0  0
  2 33  1  0  0  0  0
  3 34  1  0  0  0  0
  4 35  1  0  0  0  0
  5 36  1  0  0  0  0
  6 37  1  0  0  0  0
  7 38  1  0  0  0  0
  8 39  1  0  0  0  0
  9 40  1  0  0  0  0
 10 41  1  0  0  0  0
 11 42  1  0  0  0  0
 12 43  1  0  0  0  0
 19 44  1  0  0  0  0
 19 45  1  0  0  0  0
 20 46  1  0  0  0  0
 20 47  1  0  0  0  0
 21 48  1  0  0  0  0
 21 49  1  0  0  0  0
 22 50  1  0  0  0  0
 22 51  1  0  0  0  0
 23 52  1  0  0  0  0
 23 53  1  0  0  0  0
 24 54  1  0  0  0  0
 24 55  1  0  0  0  0
 25 56  1  0  0  0  0
 25 57  1  0  0  0  0
M  END
> <clash_score>
0

> <docking_score>
-9.911125183105469

> <overlap_score>
0.9641402959823608

$$$$
BENZO_371_1
  -OEChem-08232013553D

 55 58  0     0  0  0  0  0  0999 V2000
    3.8860    2.1050   19.5250 C   0  0  0  0  0  0  0  0  0  0  0  0
    4.2460    1.7520   20.8250 C   0  0  0  0  0  0  0  0  0  0  0  0
    4.6610    1.7170   18.4380 C   0  0  0  0  0  0  0  0  0  0  0  0
    5.3890    1.0010   21.0690 C   0  0  0  0  0  0  0  0  0  0  0  0
    9.1890   -3.5540   24.0140 C   0  0  0  0  0  0  0  0  0  0  0  0
    7.8700   -2.0610   25.3550 C   0  0  0  0  0  0  0  0  0  0  0  0
    9.5890   -2.4950   23.2210 C   0  0  0  0  0  0  0  0  0  0  0  0
    8.2550   -1.0010   24.5520 C   0  0  0  0  0  0  0  0  0  0  0  0
   13.1958    0.4729   23.8697 C   0  0  0  0  0  0  0  0  0  0  0  0
   12.3969   -0.8706   22.3232 C   0  0  0  0  0  0  0  0  0  0  0  0
    7.5840   -0.2700   18.5160 C   0  0  0  0  0  0  0  0  0  0  0  0
   12.0164    0.1329   23.1804 C   0  0  0  0  0  0  0  0  0  0  0  0
    5.7970    0.9500   18.6730 C   0  0  0  0  0  0  0  0  0  0  0  0
    6.1460    0.6070   19.9750 C   0  0  0  0  0  0  0  0  0  0  0  0
    8.3450   -3.3440   25.0980 C   0  0  0  0  0  0  0  0  0  0  0  0
    9.1280   -1.2090   23.4870 C   0  0  0  0  0  0  0  0  0  0  0  0
    7.6606   -4.3758   27.2875 C   0  0  0  0  0  0  0  0  0  0  0  0
    9.0430    0.2380   21.4940 C   0  0  0  0  0  0  0  0  0  0  0  0
    8.4363   -6.7642   27.6029 C   0  0  0  0  0  0  0  0  0  0  0  0
   14.5775   -2.0202   21.8738 C   0  0  0  0  0  0  0  0  0  0  0  0
   10.6485    0.7293   23.3453 C   0  0  0  0  0  0  0  0  0  0  0  0
    7.3112   -5.7645   27.8015 C   0  0  0  0  0  0  0  0  0  0  0  0
    8.0950   -0.7700   20.8440 C   0  0  0  0  0  0  0  0  0  0  0  0
   14.2468   -0.2555   23.4839 N   0  0  0  0  0  0  0  0  0  0  0  0
    6.7100    0.3850   17.8100 N   0  0  0  0  0  0  0  0  0  0  0  0
   13.7291   -1.0633   22.5429 N   0  0  0  0  0  0  0  0  0  0  0  0
    7.2710   -0.1460   19.8310 N   0  0  0  0  0  0  0  0  0  0  0  0
    7.9771   -4.4058   25.9196 N   0  0  0  0  0  0  0  0  0  0  0  0
    9.5820   -0.1080   22.7000 N   0  0  0  0  0  0  0  0  0  0  0  0
    7.6509   -3.3903   28.0177 O   0  0  0  0  0  0  0  0  0  0  0  0
    9.2950    1.3000   20.9480 O   0  0  0  0  0  0  0  0  0  0  0  0
    2.9844    2.6932   19.3613 H   0  0  0  0  0  0  0  0  0  0  0  0
    3.6232    2.0695   21.6567 H   0  0  0  0  0  0  0  0  0  0  0  0
    4.3779    2.0108   17.4276 H   0  0  0  0  0  0  0  0  0  0  0  0
    5.6763    0.7334   22.0897 H   0  0  0  0  0  0  0  0  0  0  0  0
    9.5436   -4.5614   23.7799 H   0  0  0  0  0  0  0  0  0  0  0  0
    7.1918   -1.8823   26.1906 H   0  0  0  0  0  0  0  0  0  0  0  0
   10.2676   -2.6754   22.3861 H   0  0  0  0  0  0  0  0  0  0  0  0
    7.8686   -0.0026   24.7598 H   0  0  0  0  0  0  0  0  0  0  0  0
   13.3356    1.2201   24.6381 H   0  0  0  0  0  0  0  0  0  0  0  0
   11.8465   -1.4504   21.5947 H   0  0  0  0  0  0  0  0  0  0  0  0
    8.4216   -0.8246   18.1565 H   0  0  0  0  0  0  0  0  0  0  0  0
    8.6959   -6.8588   26.5434 H   0  0  0  0  0  0  0  0  0  0  0  0
    8.1390   -7.7508   27.9715 H   0  0  0  0  0  0  0  0  0  0  0  0
    9.3372   -6.4545   28.1428 H   0  0  0  0  0  0  0  0  0  0  0  0
   14.9983   -1.5366   20.9883 H   0  0  0  0  0  0  0  0  0  0  0  0
   15.3749   -2.3365   22.5520 H   0  0  0  0  0  0  0  0  0  0  0  0
   13.9832   -2.8926   21.5883 H   0  0  0  0  0  0  0  0  0  0  0  0
   10.3984    0.8342   24.4067 H   0  0  0  0  0  0  0  0  0  0  0  0
   10.5989    1.7282   22.8993 H   0  0  0  0  0  0  0  0  0  0  0  0
    7.0726   -5.6901   28.8688 H   0  0  0  0  0  0  0  0  0  0  0  0
    6.4146   -6.1140   27.2767 H   0  0  0  0  0  0  0  0  0  0  0  0
    8.6626   -1.5629   20.3596 H   0  0  0  0  0  0  0  0  0  0  0  0
    7.4236   -1.1883   21.5924 H   0  0  0  0  0  0  0  0  0  0  0  0
    7.9294   -5.3301   25.4753 H   0  0  0  0  0  0  0  0  0  0  0  0
  1  2  1  0  0  0  0
  1  3  2  0  0  0  0
  2  4  2  0  0  0  0
  3 13  1  0  0  0  0
  4 14  1  0  0  0  0
  5  7  2  0  0  0  0
  5 15  1  0  0  0  0
  6  8  1  0  0  0  0
  6 15  2  0  0  0  0
  7 16  1  0  0  0  0
  8 16  2  0  0  0  0
  9 12  1  0  0  0  0
  9 24  2  0  0  0  0
 10 12  2  0  0  0  0
 10 26  1  0  0  0  0
 11 25  2  0  0  0  0
 11 27  1  0  0  0  0
 12 21  1  0  0  0  0
 13 14  2  0  0  0  0
 13 25  1  0  0  0  0
 14 27  1  0  0  0  0
 15 28  1  0  0  0  0
 16 29  1  0  0  0  0
 17 22  1  0  0  0  0
 17 28  1  0  0  0  0
 17 30  2  0  0  0  0
 18 23  1  0  0  0  0
 18 29  1  0  0  0  0
 18 31  2  0  0  0  0
 19 22  1  0  0  0  0
 20 26  1  0  0  0  0
 21 29  1  0  0  0  0
 23 27  1  0  0  0  0
 24 26  1  0  0  0  0
  1 32  1  0  0  0  0
  2 33  1  0  0  0  0
  3 34  1  0  0  0  0
  4 35  1  0  0  0  0
  5 36  1  0  0  0  0
  6 37  1  0  0  0  0
  7 38  1  0  0  0  0
  8 39  1  0  0  0  0
  9 40  1  0  0  0  0
 10 41  1  0  0  0  0
 11 42  1  0  0  0  0
 19 43  1  0  0  0  0
 19 44  1  0  0  0  0
 19 45  1  0  0  0  0
 20 46  1  0  0  0  0
 20 47  1  0  0  0  0
 20 48  1  0  0  0  0
 21 49  1  0  0  0  0
 21 50  1  0  0  0  0
 22 51  1  0  0  0  0
 22 52  1  0  0  0  0
 23 53  1  0  0  0  0
 23 54  1  0  0  0  0
 28 55  1  0  0  0  0
M  END
> <clash_score>
0

> <docking_score>
-9.494707107543945

> <overlap_score>
0.9724655747413635

$$$$
BENZO_370_1
  -OEChem-08232013553D

 55 58  0     0  0  0  0  0  0999 V2000
    3.8860    2.1050   19.5250 C   0  0  0  0  0  0  0  0  0  0  0  0
    4.2460    1.7520   20.8250 C   0  0  0  0  0  0  0  0  0  0  0  0
   13.5473   -0.9045   25.1617 C   0  0  0  0  0  0  0  0  0  0  0  0
   12.3834   -0.1768   24.9142 C   0  0  0  0  0  0  0  0  0  0  0  0
    4.6610    1.7170   18.4380 C   0  0  0  0  0  0  0  0  0  0  0  0
    5.3890    1.0010   21.0690 C   0  0  0  0  0  0  0  0  0  0  0  0
    9.1890   -3.5540   24.0140 C   0  0  0  0  0  0  0  0  0  0  0  0
    7.8700   -2.0610   25.3550 C   0  0  0  0  0  0  0  0  0  0  0  0
    9.5890   -2.4950   23.2210 C   0  0  0  0  0  0  0  0  0  0  0  0
    8.2550   -1.0010   24.5520 C   0  0  0  0  0  0  0  0  0  0  0  0
   14.2299   -1.5086   24.1059 C   0  0  0  0  0  0  0  0  0  0  0  0
   12.5847   -0.6573   22.5550 C   0  0  0  0  0  0  0  0  0  0  0  0
    7.5840   -0.2700   18.5160 C   0  0  0  0  0  0  0  0  0  0  0  0
   11.9020   -0.0532   23.6108 C   0  0  0  0  0  0  0  0  0  0  0  0
    5.7970    0.9500   18.6730 C   0  0  0  0  0  0  0  0  0  0  0  0
    6.1460    0.6070   19.9750 C   0  0  0  0  0  0  0  0  0  0  0  0
    8.3450   -3.3440   25.0980 C   0  0  0  0  0  0  0  0  0  0  0  0
    9.1280   -1.2090   23.4870 C   0  0  0  0  0  0  0  0  0  0  0  0
   13.7486   -1.3850   22.8026 C   0  0  0  0  0  0  0  0  0  0  0  0
    8.2028   -4.5559   27.2975 C   0  0  0  0  0  0  0  0  0  0  0  0
    9.0430    0.2380   21.4940 C   0  0  0  0  0  0  0  0  0  0  0  0
    7.8897   -6.0865   29.2887 C   0  0  0  0  0  0  0  0  0  0  0  0
   10.6485    0.7293   23.3453 C   0  0  0  0  0  0  0  0  0  0  0  0
    7.6349   -5.8720   27.8075 C   0  0  0  0  0  0  0  0  0  0  0  0
    8.0950   -0.7700   20.8440 C   0  0  0  0  0  0  0  0  0  0  0  0
    6.7100    0.3850   17.8100 N   0  0  0  0  0  0  0  0  0  0  0  0
    7.2710   -0.1460   19.8310 N   0  0  0  0  0  0  0  0  0  0  0  0
    7.9771   -4.4058   25.9196 N   0  0  0  0  0  0  0  0  0  0  0  0
    9.5820   -0.1080   22.7000 N   0  0  0  0  0  0  0  0  0  0  0  0
    8.7749   -3.7635   28.0387 O   0  0  0  0  0  0  0  0  0  0  0  0
    9.2950    1.3000   20.9480 O   0  0  0  0  0  0  0  0  0  0  0  0
   14.5907   -2.1315   21.5005 Cl  0  0  0  0  0  0  0  0  0  0  0  0
    2.9844    2.6932   19.3613 H   0  0  0  0  0  0  0  0  0  0  0  0
    3.6232    2.0695   21.6567 H   0  0  0  0  0  0  0  0  0  0  0  0
   13.9217   -1.0007   26.1768 H   0  0  0  0  0  0  0  0  0  0  0  0
   11.8579    0.2905   25.7429 H   0  0  0  0  0  0  0  0  0  0  0  0
    4.3779    2.0108   17.4276 H   0  0  0  0  0  0  0  0  0  0  0  0
    5.6763    0.7334   22.0897 H   0  0  0  0  0  0  0  0  0  0  0  0
    9.5436   -4.5614   23.7799 H   0  0  0  0  0  0  0  0  0  0  0  0
    7.1918   -1.8823   26.1906 H   0  0  0  0  0  0  0  0  0  0  0  0
   10.2676   -2.6754   22.3861 H   0  0  0  0  0  0  0  0  0  0  0  0
    7.8686   -0.0026   24.7598 H   0  0  0  0  0  0  0  0  0  0  0  0
   15.1357   -2.0730   24.3137 H   0  0  0  0  0  0  0  0  0  0  0  0
   12.2056   -0.5576   21.5405 H   0  0  0  0  0  0  0  0  0  0  0  0
    8.4216   -0.8246   18.1565 H   0  0  0  0  0  0  0  0  0  0  0  0
    8.9625   -6.0815   29.5080 H   0  0  0  0  0  0  0  0  0  0  0  0
    7.4794   -7.0486   29.6106 H   0  0  0  0  0  0  0  0  0  0  0  0
    7.4213   -5.2977   29.8865 H   0  0  0  0  0  0  0  0  0  0  0  0
   10.2409    1.1337   24.2782 H   0  0  0  0  0  0  0  0  0  0  0  0
   10.8479    1.5780   22.6826 H   0  0  0  0  0  0  0  0  0  0  0  0
    6.5555   -5.8816   27.6173 H   0  0  0  0  0  0  0  0  0  0  0  0
    8.0877   -6.6906   27.2364 H   0  0  0  0  0  0  0  0  0  0  0  0
    8.6626   -1.5629   20.3596 H   0  0  0  0  0  0  0  0  0  0  0  0
    7.4236   -1.1883   21.5924 H   0  0  0  0  0  0  0  0  0  0  0  0
    7.4775   -5.1800   25.4669 H   0  0  0  0  0  0  0  0  0  0  0  0
  1  2  1  0  0  0  0
  1  5  2  0  0  0  0
  2  6  2  0  0  0  0
  3  4  2  0  0  0  0
  3 11  1  0  0  0  0
  4 14  1  0  0  0  0
  5 15  1  0  0  0  0
  6 16  1  0  0  0  0
  7  9  2  0  0  0  0
  7 17  1  0  0  0  0
  8 10  1  0  0  0  0
  8 17  2  0  0  0  0
  9 18  1  0  0  0  0
 10 18  2  0  0  0  0
 11 19  2  0  0  0  0
 12 14  2  0  0  0  0
 12 19  1  0  0  0  0
 13 26  2  0  0  0  0
 13 27  1  0  0  0  0
 14 23  1  0  0  0  0
 15 16  2  0  0  0  0
 15 26  1  0  0  0  0
 16 27  1  0  0  0  0
 17 28  1  0  0  0  0
 18 29  1  0  0  0  0
 19 32  1  0  0  0  0
 20 24  1  0  0  0  0
 20 28  1  0  0  0  0
 20 30  2  0  0  0  0
 21 25  1  0  0  0  0
 21 29  1  0  0  0  0
 21 31  2  0  0  0  0
 22 24  1  0  0  0  0
 23 29  1  0  0  0  0
 25 27  1  0  0  0  0
  1 33  1  0  0  0  0
  2 34  1  0  0  0  0
  3 35  1  0  0  0  0
  4 36  1  0  0  0  0
  5 37  1  0  0  0  0
  6 38  1  0  0  0  0
  7 39  1  0  0  0  0
  8 40  1  0  0  0  0
  9 41  1  0  0  0  0
 10 42  1  0  0  0  0
 11 43  1  0  0  0  0
 12 44  1  0  0  0  0
 13 45  1  0  0  0  0
 22 46  1  0  0  0  0
 22 47  1  0  0  0  0
 22 48  1  0  0  0  0
 23 49  1  0  0  0  0
 23 50  1  0  0  0  0
 24 51  1  0  0  0  0
 24 52  1  0  0  0  0
 25 53  1  0  0  0  0
 25 54  1  0  0  0  0
 28 55  1  0  0  0  0
M  END
> <clash_score>
0

> <docking_score>
-8.992013931274414

> <overlap_score>
1.0021528005599976

$$$$
BENZO_377_1
  -OEChem-08232013553D

 48 51  0     0  0  0  0  0  0999 V2000
   14.2308   -1.5082   24.1035 C   0  0  0  0  0  0  0  0  0  0  0  0
   13.8842   -0.4439   24.9358 C   0  0  0  0  0  0  0  0  0  0  0  0
   13.4130   -1.8449   23.0247 C   0  0  0  0  0  0  0  0  0  0  0  0
    3.8860    2.1050   19.5250 C   0  0  0  0  0  0  0  0  0  0  0  0
    4.2460    1.7520   20.8250 C   0  0  0  0  0  0  0  0  0  0  0  0
   12.7198    0.2836   24.6895 C   0  0  0  0  0  0  0  0  0  0  0  0
   12.2487   -1.1174   22.7785 C   0  0  0  0  0  0  0  0  0  0  0  0
    9.1890   -3.5540   24.0140 C   0  0  0  0  0  0  0  0  0  0  0  0
    7.8700   -2.0610   25.3550 C   0  0  0  0  0  0  0  0  0  0  0  0
    4.6610    1.7170   18.4380 C   0  0  0  0  0  0  0  0  0  0  0  0
    5.3890    1.0010   21.0690 C   0  0  0  0  0  0  0  0  0  0  0  0
    9.5890   -2.4950   23.2210 C   0  0  0  0  0  0  0  0  0  0  0  0
    8.2550   -1.0010   24.5520 C   0  0  0  0  0  0  0  0  0  0  0  0
    7.5840   -0.2700   18.5160 C   0  0  0  0  0  0  0  0  0  0  0  0
    8.3450   -3.3440   25.0980 C   0  0  0  0  0  0  0  0  0  0  0  0
   11.9020   -0.0532   23.6108 C   0  0  0  0  0  0  0  0  0  0  0  0
    5.7970    0.9500   18.6730 C   0  0  0  0  0  0  0  0  0  0  0  0
    6.1460    0.6070   19.9750 C   0  0  0  0  0  0  0  0  0  0  0  0
    9.1280   -1.2090   23.4870 C   0  0  0  0  0  0  0  0  0  0  0  0
    9.0430    0.2380   21.4940 C   0  0  0  0  0  0  0  0  0  0  0  0
    7.9522   -4.4794   25.9764 C   0  0  0  0  0  0  0  0  0  0  0  0
   10.6485    0.7293   23.3453 C   0  0  0  0  0  0  0  0  0  0  0  0
    8.0950   -0.7700   20.8440 C   0  0  0  0  0  0  0  0  0  0  0  0
    6.7100    0.3850   17.8100 N   0  0  0  0  0  0  0  0  0  0  0  0
    7.2710   -0.1460   19.8310 N   0  0  0  0  0  0  0  0  0  0  0  0
    9.5820   -0.1080   22.7000 N   0  0  0  0  0  0  0  0  0  0  0  0
    9.2950    1.3000   20.9480 O   0  0  0  0  0  0  0  0  0  0  0  0
   15.1381   -2.0737   24.2946 H   0  0  0  0  0  0  0  0  0  0  0  0
   14.5213   -0.1809   25.7751 H   0  0  0  0  0  0  0  0  0  0  0  0
   13.6831   -2.6728   22.3759 H   0  0  0  0  0  0  0  0  0  0  0  0
    2.9844    2.6932   19.3613 H   0  0  0  0  0  0  0  0  0  0  0  0
    3.6232    2.0695   21.6567 H   0  0  0  0  0  0  0  0  0  0  0  0
   12.4576    1.1111   25.3435 H   0  0  0  0  0  0  0  0  0  0  0  0
   11.6176   -1.3871   21.9358 H   0  0  0  0  0  0  0  0  0  0  0  0
    9.5403   -4.5627   23.7809 H   0  0  0  0  0  0  0  0  0  0  0  0
    7.1911   -1.8848   26.1904 H   0  0  0  0  0  0  0  0  0  0  0  0
    4.3779    2.0108   17.4276 H   0  0  0  0  0  0  0  0  0  0  0  0
    5.6763    0.7334   22.0897 H   0  0  0  0  0  0  0  0  0  0  0  0
   10.2682   -2.6746   22.3865 H   0  0  0  0  0  0  0  0  0  0  0  0
    7.8684   -0.0022   24.7594 H   0  0  0  0  0  0  0  0  0  0  0  0
    8.4216   -0.8246   18.1565 H   0  0  0  0  0  0  0  0  0  0  0  0
    8.6668   -4.5891   26.8013 H   0  0  0  0  0  0  0  0  0  0  0  0
    6.9513   -4.3276   26.4010 H   0  0  0  0  0  0  0  0  0  0  0  0
    7.9196   -5.4231   25.4163 H   0  0  0  0  0  0  0  0  0  0  0  0
   10.2409    1.1337   24.2782 H   0  0  0  0  0  0  0  0  0  0  0  0
   10.8479    1.5780   22.6826 H   0  0  0  0  0  0  0  0  0  0  0  0
    8.6626   -1.5629   20.3596 H   0  0  0  0  0  0  0  0  0  0  0  0
    7.4236   -1.1883   21.5924 H   0  0  0  0  0  0  0  0  0  0  0  0
  1  2  1  0  0  0  0
  1  3  2  0  0  0  0
  2  6  2  0  0  0  0
  3  7  1  0  0  0  0
  4  5  1  0  0  0  0
  4 10  2  0  0  0  0
  5 11  2  0  0  0  0
  6 16  1  0  0  0  0
  7 16  2  0  0  0  0
  8 12  2  0  0  0  0
  8 15  1  0  0  0  0
  9 13  1  0  0  0  0
  9 15  2  0  0  0  0
 10 17  1  0  0  0  0
 11 18  1  0  0  0  0
 12 19  1  0  0  0  0
 13 19  2  0  0  0  0
 14 24  2  0  0  0  0
 14 25  1  0  0  0  0
 15 21  1  0  0  0  0
 16 22  1  0  0  0  0
 17 18  2  0  0  0  0
 17 24  1  0  0  0  0
 18 25  1  0  0  0  0
 19 26  1  0  0  0  0
 20 23  1  0  0  0  0
 20 26  1  0  0  0  0
 20 27  2  0  0  0  0
 22 26  1  0  0  0  0
 23 25  1  0  0  0  0
  1 28  1  0  0  0  0
  2 29  1  0  0  0  0
  3 30  1  0  0  0  0
  4 31  1  0  0  0  0
  5 32  1  0  0  0  0
  6 33  1  0  0  0  0
  7 34  1  0  0  0  0
  8 35  1  0  0  0  0
  9 36  1  0  0  0  0
 10 37  1  0  0  0  0
 11 38  1  0  0  0  0
 12 39  1  0  0  0  0
 13 40  1  0  0  0  0
 14 41  1  0  0  0  0
 21 42  1  0  0  0  0
 21 43  1  0  0  0  0
 21 44  1  0  0  0  0
 22 45  1  0  0  0  0
 22 46  1  0  0  0  0
 23 47  1  0  0  0  0
 23 48  1  0  0  0  0
M  END
> <clash_score>
0

> <docking_score>
-9.200925827026367

> <overlap_score>
0.8910932540893555

$$$$
BENZO_376_1
  -OEChem-08232013553D

 45 48  0     0  0  0  0  0  0999 V2000
    3.8860    2.1050   19.5250 C   0  0  0  0  0  0  0  0  0  0  0  0
    4.2460    1.7520   20.8250 C   0  0  0  0  0  0  0  0  0  0  0  0
    9.1890   -3.5540   24.0140 C   0  0  0  0  0  0  0  0  0  0  0  0
    7.8700   -2.0610   25.3550 C   0  0  0  0  0  0  0  0  0  0  0  0
    4.6610    1.7170   18.4380 C   0  0  0  0  0  0  0  0  0  0  0  0
    5.3890    1.0010   21.0690 C   0  0  0  0  0  0  0  0  0  0  0  0
    9.5890   -2.4950   23.2210 C   0  0  0  0  0  0  0  0  0  0  0  0
    8.2550   -1.0010   24.5520 C   0  0  0  0  0  0  0  0  0  0  0  0
   12.4671   -0.2328   24.9064 C   0  0  0  0  0  0  0  0  0  0  0  0
   13.6167   -0.9909   24.8690 C   0  0  0  0  0  0  0  0  0  0  0  0
   12.6415   -0.6807   22.6324 C   0  0  0  0  0  0  0  0  0  0  0  0
    7.5840   -0.2700   18.5160 C   0  0  0  0  0  0  0  0  0  0  0  0
    8.3450   -3.3440   25.0980 C   0  0  0  0  0  0  0  0  0  0  0  0
   11.9020   -0.0532   23.6108 C   0  0  0  0  0  0  0  0  0  0  0  0
    5.7970    0.9500   18.6730 C   0  0  0  0  0  0  0  0  0  0  0  0
    6.1460    0.6070   19.9750 C   0  0  0  0  0  0  0  0  0  0  0  0
    9.1280   -1.2090   23.4870 C   0  0  0  0  0  0  0  0  0  0  0  0
    9.0430    0.2380   21.4940 C   0  0  0  0  0  0  0  0  0  0  0  0
    7.9522   -4.4794   25.9764 C   0  0  0  0  0  0  0  0  0  0  0  0
   10.6485    0.7293   23.3453 C   0  0  0  0  0  0  0  0  0  0  0  0
    8.0950   -0.7700   20.8440 C   0  0  0  0  0  0  0  0  0  0  0  0
    6.7100    0.3850   17.8100 N   0  0  0  0  0  0  0  0  0  0  0  0
    7.2710   -0.1460   19.8310 N   0  0  0  0  0  0  0  0  0  0  0  0
    9.5820   -0.1080   22.7000 N   0  0  0  0  0  0  0  0  0  0  0  0
    9.2950    1.3000   20.9480 O   0  0  0  0  0  0  0  0  0  0  0  0
   14.0106   -1.4825   23.2767 S   0  0  0  0  0  0  0  0  0  0  0  0
    2.9844    2.6932   19.3613 H   0  0  0  0  0  0  0  0  0  0  0  0
    3.6232    2.0695   21.6567 H   0  0  0  0  0  0  0  0  0  0  0  0
    9.5403   -4.5627   23.7809 H   0  0  0  0  0  0  0  0  0  0  0  0
    7.1911   -1.8848   26.1904 H   0  0  0  0  0  0  0  0  0  0  0  0
    4.3779    2.0108   17.4276 H   0  0  0  0  0  0  0  0  0  0  0  0
    5.6763    0.7334   22.0897 H   0  0  0  0  0  0  0  0  0  0  0  0
   10.2682   -2.6746   22.3865 H   0  0  0  0  0  0  0  0  0  0  0  0
    7.8684   -0.0022   24.7594 H   0  0  0  0  0  0  0  0  0  0  0  0
   12.0548    0.1721   25.8221 H   0  0  0  0  0  0  0  0  0  0  0  0
   14.2445   -1.2790   25.7003 H   0  0  0  0  0  0  0  0  0  0  0  0
   12.4475   -0.7082   21.5691 H   0  0  0  0  0  0  0  0  0  0  0  0
    8.4216   -0.8246   18.1565 H   0  0  0  0  0  0  0  0  0  0  0  0
    8.6668   -4.5891   26.8013 H   0  0  0  0  0  0  0  0  0  0  0  0
    6.9513   -4.3276   26.4010 H   0  0  0  0  0  0  0  0  0  0  0  0
    7.9196   -5.4231   25.4163 H   0  0  0  0  0  0  0  0  0  0  0  0
   10.2409    1.1337   24.2782 H   0  0  0  0  0  0  0  0  0  0  0  0
   10.8479    1.5780   22.6826 H   0  0  0  0  0  0  0  0  0  0  0  0
    8.6626   -1.5629   20.3596 H   0  0  0  0  0  0  0  0  0  0  0  0
    7.4236   -1.1883   21.5924 H   0  0  0  0  0  0  0  0  0  0  0  0
  1  2  1  0  0  0  0
  1  5  2  0  0  0  0
  2  6  2  0  0  0  0
  3  7  2  0  0  0  0
  3 13  1  0  0  0  0
  4  8  1  0  0  0  0
  4 13  2  0  0  0  0
  5 15  1  0  0  0  0
  6 16  1  0  0  0  0
  7 17  1  0  0  0  0
  8 17  2  0  0  0  0
  9 10  2  0  0  0  0
  9 14  1  0  0  0  0
 10 26  1  0  0  0  0
 11 14  2  0  0  0  0
 11 26  1  0  0  0  0
 12 22  2  0  0  0  0
 12 23  1  0  0  0  0
 13 19  1  0  0  0  0
 14 20  1  0  0  0  0
 15 16  2  0  0  0  0
 15 22  1  0  0  0  0
 16 23  1  0  0  0  0
 17 24  1  0  0  0  0
 18 21  1  0  0  0  0
 18 24  1  0  0  0  0
 18 25  2  0  0  0  0
 20 24  1  0  0  0  0
 21 23  1  0  0  0  0
  1 27  1  0  0  0  0
  2 28  1  0  0  0  0
  3 29  1  0  0  0  0
  4 30  1  0  0  0  0
  5 31  1  0  0  0  0
  6 32  1  0  0  0  0
  7 33  1  0  0  0  0
  8 34  1  0  0  0  0
  9 35  1  0  0  0  0
 10 36  1  0  0  0  0
 11 37  1  0  0  0  0
 12 38  1  0  0  0  0
 19 39  1  0  0  0  0
 19 40  1  0  0  0  0
 19 41  1  0  0  0  0
 20 42  1  0  0  0  0
 20 43  1  0  0  0  0
 21 44  1  0  0  0  0
 21 45  1  0  0  0  0
M  END
> <clash_score>
0

> <docking_score>
-9.051626205444336

> <overlap_score>
0.8759723901748657

$$$$
BENZO_375_1
  -OEChem-08232013553D

 60 64  0     0  0  0  0  0  0999 V2000
    3.8860    2.1050   19.5250 C   0  0  0  0  0  0  0  0  0  0  0  0
    4.2460    1.7520   20.8250 C   0  0  0  0  0  0  0  0  0  0  0  0
    4.6610    1.7170   18.4380 C   0  0  0  0  0  0  0  0  0  0  0  0
    5.3890    1.0010   21.0690 C   0  0  0  0  0  0  0  0  0  0  0  0
    9.1890   -3.5540   24.0140 C   0  0  0  0  0  0  0  0  0  0  0  0
    7.8700   -2.0610   25.3550 C   0  0  0  0  0  0  0  0  0  0  0  0
    9.5890   -2.4950   23.2210 C   0  0  0  0  0  0  0  0  0  0  0  0
    8.2550   -1.0010   24.5520 C   0  0  0  0  0  0  0  0  0  0  0  0
   13.2488    0.8981   23.0513 C   0  0  0  0  0  0  0  0  0  0  0  0
   12.4037   -1.1317   23.0825 C   0  0  0  0  0  0  0  0  0  0  0  0
    7.5840   -0.2700   18.5160 C   0  0  0  0  0  0  0  0  0  0  0  0
   12.0371    0.1897   23.1601 C   0  0  0  0  0  0  0  0  0  0  0  0
    5.7970    0.9500   18.6730 C   0  0  0  0  0  0  0  0  0  0  0  0
    6.1460    0.6070   19.9750 C   0  0  0  0  0  0  0  0  0  0  0  0
    8.3450   -3.3440   25.0980 C   0  0  0  0  0  0  0  0  0  0  0  0
    9.1280   -1.2090   23.4870 C   0  0  0  0  0  0  0  0  0  0  0  0
    9.0430    0.2380   21.4940 C   0  0  0  0  0  0  0  0  0  0  0  0
    7.5748   -4.8280   28.7278 C   0  0  0  0  0  0  0  0  0  0  0  0
    8.9776   -4.7555   28.1204 C   0  0  0  0  0  0  0  0  0  0  0  0
    6.5554   -4.0713   27.8732 C   0  0  0  0  0  0  0  0  0  0  0  0
    8.9620   -5.1961   26.6568 C   0  0  0  0  0  0  0  0  0  0  0  0
    6.6009   -4.5253   26.4110 C   0  0  0  0  0  0  0  0  0  0  0  0
   14.6054   -2.2975   22.8141 C   0  0  0  0  0  0  0  0  0  0  0  0
   10.6542    0.7501   23.3264 C   0  0  0  0  0  0  0  0  0  0  0  0
    8.0950   -0.7700   20.8440 C   0  0  0  0  0  0  0  0  0  0  0  0
   14.3061    0.0933   22.9152 N   0  0  0  0  0  0  0  0  0  0  0  0
    6.7100    0.3850   17.8100 N   0  0  0  0  0  0  0  0  0  0  0  0
   13.7599   -1.1344   22.9380 N   0  0  0  0  0  0  0  0  0  0  0  0
    7.2710   -0.1460   19.8310 N   0  0  0  0  0  0  0  0  0  0  0  0
    7.9770   -4.4029   25.9162 N   0  0  0  0  0  0  0  0  0  0  0  0
    9.5820   -0.1080   22.7000 N   0  0  0  0  0  0  0  0  0  0  0  0
    9.2950    1.3000   20.9480 O   0  0  0  0  0  0  0  0  0  0  0  0
    2.9844    2.6932   19.3613 H   0  0  0  0  0  0  0  0  0  0  0  0
    3.6232    2.0695   21.6567 H   0  0  0  0  0  0  0  0  0  0  0  0
    4.3779    2.0108   17.4276 H   0  0  0  0  0  0  0  0  0  0  0  0
    5.6763    0.7334   22.0897 H   0  0  0  0  0  0  0  0  0  0  0  0
    9.5426   -4.5618   23.7797 H   0  0  0  0  0  0  0  0  0  0  0  0
    7.1914   -1.8824   26.1903 H   0  0  0  0  0  0  0  0  0  0  0  0
   10.2669   -2.6745   22.3854 H   0  0  0  0  0  0  0  0  0  0  0  0
    7.8690   -0.0020   24.7587 H   0  0  0  0  0  0  0  0  0  0  0  0
   13.4081    1.9670   23.0662 H   0  0  0  0  0  0  0  0  0  0  0  0
   11.8295   -2.0475   23.1183 H   0  0  0  0  0  0  0  0  0  0  0  0
    8.4216   -0.8246   18.1565 H   0  0  0  0  0  0  0  0  0  0  0  0
    7.2681   -5.8807   28.8239 H   0  0  0  0  0  0  0  0  0  0  0  0
    7.5891   -4.4101   29.7448 H   0  0  0  0  0  0  0  0  0  0  0  0
    9.3554   -3.7320   28.1920 H   0  0  0  0  0  0  0  0  0  0  0  0
    9.6558   -5.3943   28.6900 H   0  0  0  0  0  0  0  0  0  0  0  0
    5.5496   -4.2322   28.2751 H   0  0  0  0  0  0  0  0  0  0  0  0
    6.7545   -2.9948   27.9293 H   0  0  0  0  0  0  0  0  0  0  0  0
    9.9612   -5.0560   26.2363 H   0  0  0  0  0  0  0  0  0  0  0  0
    8.7097   -6.2583   26.5922 H   0  0  0  0  0  0  0  0  0  0  0  0
    6.2649   -5.5600   26.3335 H   0  0  0  0  0  0  0  0  0  0  0  0
    5.9271   -3.8964   25.8283 H   0  0  0  0  0  0  0  0  0  0  0  0
   14.6930   -2.5392   21.7516 H   0  0  0  0  0  0  0  0  0  0  0  0
   15.5893   -2.0793   23.2389 H   0  0  0  0  0  0  0  0  0  0  0  0
   14.1560   -3.1309   23.3612 H   0  0  0  0  0  0  0  0  0  0  0  0
   10.4084    0.8627   24.3880 H   0  0  0  0  0  0  0  0  0  0  0  0
   10.5737    1.7409   22.8670 H   0  0  0  0  0  0  0  0  0  0  0  0
    8.6688   -1.5655   20.3666 H   0  0  0  0  0  0  0  0  0  0  0  0
    7.4298   -1.1908   21.5994 H   0  0  0  0  0  0  0  0  0  0  0  0
  1  2  1  0  0  0  0
  1  3  2  0  0  0  0
  2  4  2  0  0  0  0
  3 13  1  0  0  0  0
  4 14  1  0  0  0  0
  5  7  2  0  0  0  0
  5 15  1  0  0  0  0
  6  8  1  0  0  0  0
  6 15  2  0  0  0  0
  7 16  1  0  0  0  0
  8 16  2  0  0  0  0
  9 12  1  0  0  0  0
  9 26  2  0  0  0  0
 10 12  2  0  0  0  0
 10 28  1  0  0  0  0
 11 27  2  0  0  0  0
 11 29  1  0  0  0  0
 12 24  1  0  0  0  0
 13 14  2  0  0  0  0
 13 27  1  0  0  0  0
 14 29  1  0  0  0  0
 15 30  1  0  0  0  0
 16 31  1  0  0  0  0
 17 25  1  0  0  0  0
 17 31  1  0  0  0  0
 17 32  2  0  0  0  0
 18 19  1  0  0  0  0
 18 20  1  0  0  0  0
 19 21  1  0  0  0  0
 20 22  1  0  0  0  0
 21 30  1  0  0  0  0
 22 30  1  0  0  0  0
 23 28  1  0  0  0  0
 24 31  1  0  0  0  0
 25 29  1  0  0  0  0
 26 28  1  0  0  0  0
  1 33  1  0  0  0  0
  2 34  1  0  0  0  0
  3 35  1  0  0  0  0
  4 36  1  0  0  0  0
  5 37  1  0  0  0  0
  6 38  1  0  0  0  0
  7 39  1  0  0  0  0
  8 40  1  0  0  0  0
  9 41  1  0  0  0  0
 10 42  1  0  0  0  0
 11 43  1  0  0  0  0
 18 44  1  0  0  0  0
 18 45  1  0  0  0  0
 19 46  1  0  0  0  0
 19 47  1  0  0  0  0
 20 48  1  0  0  0  0
 20 49  1  0  0  0  0
 21 50  1  0  0  0  0
 21 51  1  0  0  0  0
 22 52  1  0  0  0  0
 22 53  1  0  0  0  0
 23 54  1  0  0  0  0
 23 55  1  0  0  0  0
 23 56  1  0  0  0  0
 24 57  1  0  0  0  0
 24 58  1  0  0  0  0
 25 59  1  0  0  0  0
 25 60  1  0  0  0  0
M  END
> <clash_score>
0

> <docking_score>
-10.993675231933594

> <overlap_score>
0.9660443663597107

$$$$
BENZO_374_1
  -OEChem-08232013553D

 60 64  0     0  0  0  0  0  0999 V2000
    3.8860    2.1050   19.5250 C   0  0  0  0  0  0  0  0  0  0  0  0
    4.2460    1.7520   20.8250 C   0  0  0  0  0  0  0  0  0  0  0  0
   13.6188   -0.7705   25.1349 C   0  0  0  0  0  0  0  0  0  0  0  0
   12.4324   -0.0795   24.8892 C   0  0  0  0  0  0  0  0  0  0  0  0
    4.6610    1.7170   18.4380 C   0  0  0  0  0  0  0  0  0  0  0  0
    5.3890    1.0010   21.0690 C   0  0  0  0  0  0  0  0  0  0  0  0
    9.1890   -3.5540   24.0140 C   0  0  0  0  0  0  0  0  0  0  0  0
    7.8700   -2.0610   25.3550 C   0  0  0  0  0  0  0  0  0  0  0  0
    9.5890   -2.4950   23.2210 C   0  0  0  0  0  0  0  0  0  0  0  0
    8.2550   -1.0010   24.5520 C   0  0  0  0  0  0  0  0  0  0  0  0
   14.3051   -1.3747   24.0815 C   0  0  0  0  0  0  0  0  0  0  0  0
   12.6182   -0.5971   22.5366 C   0  0  0  0  0  0  0  0  0  0  0  0
    7.5840   -0.2700   18.5160 C   0  0  0  0  0  0  0  0  0  0  0  0
   11.9320    0.0072   23.5900 C   0  0  0  0  0  0  0  0  0  0  0  0
    5.7970    0.9500   18.6730 C   0  0  0  0  0  0  0  0  0  0  0  0
    6.1460    0.6070   19.9750 C   0  0  0  0  0  0  0  0  0  0  0  0
    8.3450   -3.3440   25.0980 C   0  0  0  0  0  0  0  0  0  0  0  0
    9.1280   -1.2090   23.4870 C   0  0  0  0  0  0  0  0  0  0  0  0
   13.8048   -1.2880   22.7823 C   0  0  0  0  0  0  0  0  0  0  0  0
    9.0430    0.2380   21.4940 C   0  0  0  0  0  0  0  0  0  0  0  0
    7.5748   -4.8280   28.7278 C   0  0  0  0  0  0  0  0  0  0  0  0
    8.9776   -4.7555   28.1204 C   0  0  0  0  0  0  0  0  0  0  0  0
    6.5554   -4.0713   27.8732 C   0  0  0  0  0  0  0  0  0  0  0  0
    8.9620   -5.1961   26.6568 C   0  0  0  0  0  0  0  0  0  0  0  0
    6.6009   -4.5253   26.4110 C   0  0  0  0  0  0  0  0  0  0  0  0
   10.6542    0.7501   23.3264 C   0  0  0  0  0  0  0  0  0  0  0  0
    8.0950   -0.7700   20.8440 C   0  0  0  0  0  0  0  0  0  0  0  0
    6.7100    0.3850   17.8100 N   0  0  0  0  0  0  0  0  0  0  0  0
    7.2710   -0.1460   19.8310 N   0  0  0  0  0  0  0  0  0  0  0  0
    7.9770   -4.4029   25.9162 N   0  0  0  0  0  0  0  0  0  0  0  0
    9.5820   -0.1080   22.7000 N   0  0  0  0  0  0  0  0  0  0  0  0
    9.2950    1.3000   20.9480 O   0  0  0  0  0  0  0  0  0  0  0  0
   14.6512   -2.0347   21.4832 Cl  0  0  0  0  0  0  0  0  0  0  0  0
    2.9844    2.6932   19.3613 H   0  0  0  0  0  0  0  0  0  0  0  0
    3.6232    2.0695   21.6567 H   0  0  0  0  0  0  0  0  0  0  0  0
   14.0080   -0.8378   26.1467 H   0  0  0  0  0  0  0  0  0  0  0  0
   11.9042    0.3882   25.7160 H   0  0  0  0  0  0  0  0  0  0  0  0
    4.3779    2.0108   17.4276 H   0  0  0  0  0  0  0  0  0  0  0  0
    5.6763    0.7334   22.0897 H   0  0  0  0  0  0  0  0  0  0  0  0
    9.5426   -4.5618   23.7797 H   0  0  0  0  0  0  0  0  0  0  0  0
    7.1914   -1.8824   26.1903 H   0  0  0  0  0  0  0  0  0  0  0  0
   10.2669   -2.6745   22.3854 H   0  0  0  0  0  0  0  0  0  0  0  0
    7.8690   -0.0020   24.7587 H   0  0  0  0  0  0  0  0  0  0  0  0
   15.2285   -1.9102   24.2878 H   0  0  0  0  0  0  0  0  0  0  0  0
   12.2242   -0.5262   21.5253 H   0  0  0  0  0  0  0  0  0  0  0  0
    8.4216   -0.8246   18.1565 H   0  0  0  0  0  0  0  0  0  0  0  0
    7.2681   -5.8807   28.8239 H   0  0  0  0  0  0  0  0  0  0  0  0
    7.5891   -4.4101   29.7448 H   0  0  0  0  0  0  0  0  0  0  0  0
    9.3554   -3.7320   28.1920 H   0  0  0  0  0  0  0  0  0  0  0  0
    9.6558   -5.3943   28.6900 H   0  0  0  0  0  0  0  0  0  0  0  0
    5.5496   -4.2322   28.2751 H   0  0  0  0  0  0  0  0  0  0  0  0
    6.7545   -2.9948   27.9293 H   0  0  0  0  0  0  0  0  0  0  0  0
    9.9612   -5.0560   26.2363 H   0  0  0  0  0  0  0  0  0  0  0  0
    8.7097   -6.2583   26.5922 H   0  0  0  0  0  0  0  0  0  0  0  0
    6.2649   -5.5600   26.3335 H   0  0  0  0  0  0  0  0  0  0  0  0
    5.9271   -3.8964   25.8283 H   0  0  0  0  0  0  0  0  0  0  0  0
   10.2469    1.1601   24.2571 H   0  0  0  0  0  0  0  0  0  0  0  0
   10.8221    1.5917   22.6463 H   0  0  0  0  0  0  0  0  0  0  0  0
    8.6688   -1.5655   20.3666 H   0  0  0  0  0  0  0  0  0  0  0  0
    7.4298   -1.1908   21.5994 H   0  0  0  0  0  0  0  0  0  0  0  0
  1  2  1  0  0  0  0
  1  5  2  0  0  0  0
  2  6  2  0  0  0  0
  3  4  2  0  0  0  0
  3 11  1  0  0  0  0
  4 14  1  0  0  0  0
  5 15  1  0  0  0  0
  6 16  1  0  0  0  0
  7  9  2  0  0  0  0
  7 17  1  0  0  0  0
  8 10  1  0  0  0  0
  8 17  2  0  0  0  0
  9 18  1  0  0  0  0
 10 18  2  0  0  0  0
 11 19  2  0  0  0  0
 12 14  2  0  0  0  0
 12 19  1  0  0  0  0
 13 28  2  0  0  0  0
 13 29  1  0  0  0  0
 14 26  1  0  0  0  0
 15 16  2  0  0  0  0
 15 28  1  0  0  0  0
 16 29  1  0  0  0  0
 17 30  1  0  0  0  0
 18 31  1  0  0  0  0
 19 33  1  0  0  0  0
 20 27  1  0  0  0  0
 20 31  1  0  0  0  0
 20 32  2  0  0  0  0
 21 22  1  0  0  0  0
 21 23  1  0  0  0  0
 22 24  1  0  0  0  0
 23 25  1  0  0  0  0
 24 30  1  0  0  0  0
 25 30  1  0  0  0  0
 26 31  1  0  0  0  0
 27 29  1  0  0  0  0
  1 34  1  0  0  0  0
  2 35  1  0  0  0  0
  3 36  1  0  0  0  0
  4 37  1  0  0  0  0
  5 38  1  0  0  0  0
  6 39  1  0  0  0  0
  7 40  1  0  0  0  0
  8 41  1  0  0  0  0
  9 42  1  0  0  0  0
 10 43  1  0  0  0  0
 11 44  1  0  0  0  0
 12 45  1  0  0  0  0
 13 46  1  0  0  0  0
 21 47  1  0  0  0  0
 21 48  1  0  0  0  0
 22 49  1  0  0  0  0
 22 50  1  0  0  0  0
 23 51  1  0  0  0  0
 23 52  1  0  0  0  0
 24 53  1  0  0  0  0
 24 54  1  0  0  0  0
 25 55  1  0  0  0  0
 25 56  1  0  0  0  0
 26 57  1  0  0  0  0
 26 58  1  0  0  0  0
 27 59  1  0  0  0  0
 27 60  1  0  0  0  0
M  END
> <clash_score>
0

> <docking_score>
-9.338823318481445

> <overlap_score>
0.9888110756874084

$$$$
BENZO_379_1
  -OEChem-08232013553D

 48 51  0     0  0  0  0  0  0999 V2000
    3.8860    2.1050   19.5250 C   0  0  0  0  0  0  0  0  0  0  0  0
    4.2460    1.7520   20.8250 C   0  0  0  0  0  0  0  0  0  0  0  0
    9.1890   -3.5540   24.0140 C   0  0  0  0  0  0  0  0  0  0  0  0
    7.8700   -2.0610   25.3550 C   0  0  0  0  0  0  0  0  0  0  0  0
    4.6610    1.7170   18.4380 C   0  0  0  0  0  0  0  0  0  0  0  0
    5.3890    1.0010   21.0690 C   0  0  0  0  0  0  0  0  0  0  0  0
    9.5890   -2.4950   23.2210 C   0  0  0  0  0  0  0  0  0  0  0  0
    8.2550   -1.0010   24.5520 C   0  0  0  0  0  0  0  0  0  0  0  0
   13.1958    0.4729   23.8697 C   0  0  0  0  0  0  0  0  0  0  0  0
   12.3969   -0.8706   22.3232 C   0  0  0  0  0  0  0  0  0  0  0  0
    7.5840   -0.2700   18.5160 C   0  0  0  0  0  0  0  0  0  0  0  0
    8.3450   -3.3440   25.0980 C   0  0  0  0  0  0  0  0  0  0  0  0
   12.0164    0.1329   23.1804 C   0  0  0  0  0  0  0  0  0  0  0  0
    5.7970    0.9500   18.6730 C   0  0  0  0  0  0  0  0  0  0  0  0
    6.1460    0.6070   19.9750 C   0  0  0  0  0  0  0  0  0  0  0  0
    9.1280   -1.2090   23.4870 C   0  0  0  0  0  0  0  0  0  0  0  0
    9.0430    0.2380   21.4940 C   0  0  0  0  0  0  0  0  0  0  0  0
    7.9522   -4.4794   25.9764 C   0  0  0  0  0  0  0  0  0  0  0  0
   14.5775   -2.0202   21.8738 C   0  0  0  0  0  0  0  0  0  0  0  0
   10.6485    0.7293   23.3453 C   0  0  0  0  0  0  0  0  0  0  0  0
    8.0950   -0.7700   20.8440 C   0  0  0  0  0  0  0  0  0  0  0  0
   14.2468   -0.2555   23.4839 N   0  0  0  0  0  0  0  0  0  0  0  0
    6.7100    0.3850   17.8100 N   0  0  0  0  0  0  0  0  0  0  0  0
   13.7291   -1.0633   22.5429 N   0  0  0  0  0  0  0  0  0  0  0  0
    7.2710   -0.1460   19.8310 N   0  0  0  0  0  0  0  0  0  0  0  0
    9.5820   -0.1080   22.7000 N   0  0  0  0  0  0  0  0  0  0  0  0
    9.2950    1.3000   20.9480 O   0  0  0  0  0  0  0  0  0  0  0  0
    2.9844    2.6932   19.3613 H   0  0  0  0  0  0  0  0  0  0  0  0
    3.6232    2.0695   21.6567 H   0  0  0  0  0  0  0  0  0  0  0  0
    9.5403   -4.5627   23.7809 H   0  0  0  0  0  0  0  0  0  0  0  0
    7.1911   -1.8848   26.1904 H   0  0  0  0  0  0  0  0  0  0  0  0
    4.3779    2.0108   17.4276 H   0  0  0  0  0  0  0  0  0  0  0  0
    5.6763    0.7334   22.0897 H   0  0  0  0  0  0  0  0  0  0  0  0
   10.2682   -2.6746   22.3865 H   0  0  0  0  0  0  0  0  0  0  0  0
    7.8684   -0.0022   24.7594 H   0  0  0  0  0  0  0  0  0  0  0  0
   13.3356    1.2201   24.6381 H   0  0  0  0  0  0  0  0  0  0  0  0
   11.8465   -1.4504   21.5947 H   0  0  0  0  0  0  0  0  0  0  0  0
    8.4216   -0.8246   18.1565 H   0  0  0  0  0  0  0  0  0  0  0  0
    8.6668   -4.5891   26.8013 H   0  0  0  0  0  0  0  0  0  0  0  0
    6.9513   -4.3276   26.4010 H   0  0  0  0  0  0  0  0  0  0  0  0
    7.9196   -5.4231   25.4163 H   0  0  0  0  0  0  0  0  0  0  0  0
   14.9983   -1.5366   20.9883 H   0  0  0  0  0  0  0  0  0  0  0  0
   15.3749   -2.3365   22.5520 H   0  0  0  0  0  0  0  0  0  0  0  0
   13.9832   -2.8926   21.5883 H   0  0  0  0  0  0  0  0  0  0  0  0
   10.3984    0.8342   24.4067 H   0  0  0  0  0  0  0  0  0  0  0  0
   10.5989    1.7282   22.8993 H   0  0  0  0  0  0  0  0  0  0  0  0
    8.6626   -1.5629   20.3596 H   0  0  0  0  0  0  0  0  0  0  0  0
    7.4236   -1.1883   21.5924 H   0  0  0  0  0  0  0  0  0  0  0  0
  1  2  1  0  0  0  0
  1  5  2  0  0  0  0
  2  6  2  0  0  0  0
  3  7  2  0  0  0  0
  3 12  1  0  0  0  0
  4  8  1  0  0  0  0
  4 12  2  0  0  0  0
  5 14  1  0  0  0  0
  6 15  1  0  0  0  0
  7 16  1  0  0  0  0
  8 16  2  0  0  0  0
  9 13  1  0  0  0  0
  9 22  2  0  0  0  0
 10 13  2  0  0  0  0
 10 24  1  0  0  0  0
 11 23  2  0  0  0  0
 11 25  1  0  0  0  0
 12 18  1  0  0  0  0
 13 20  1  0  0  0  0
 14 15  2  0  0  0  0
 14 23  1  0  0  0  0
 15 25  1  0  0  0  0
 16 26  1  0  0  0  0
 17 21  1  0  0  0  0
 17 26  1  0  0  0  0
 17 27  2  0  0  0  0
 19 24  1  0  0  0  0
 20 26  1  0  0  0  0
 21 25  1  0  0  0  0
 22 24  1  0  0  0  0
  1 28  1  0  0  0  0
  2 29  1  0  0  0  0
  3 30  1  0  0  0  0
  4 31  1  0  0  0  0
  5 32  1  0  0  0  0
  6 33  1  0  0  0  0
  7 34  1  0  0  0  0
  8 35  1  0  0  0  0
  9 36  1  0  0  0  0
 10 37  1  0  0  0  0
 11 38  1  0  0  0  0
 18 39  1  0  0  0  0
 18 40  1  0  0  0  0
 18 41  1  0  0  0  0
 19 42  1  0  0  0  0
 19 43  1  0  0  0  0
 19 44  1  0  0  0  0
 20 45  1  0  0  0  0
 20 46  1  0  0  0  0
 21 47  1  0  0  0  0
 21 48  1  0  0  0  0
M  END
> <clash_score>
0

> <docking_score>
-9.462675094604492

> <overlap_score>
0.8887198567390442

$$$$
BENZO_378_1
  -OEChem-08232013553D

 48 51  0     0  0  0  0  0  0999 V2000
    3.8860    2.1050   19.5250 C   0  0  0  0  0  0  0  0  0  0  0  0
    4.2460    1.7520   20.8250 C   0  0  0  0  0  0  0  0  0  0  0  0
   13.5473   -0.9045   25.1617 C   0  0  0  0  0  0  0  0  0  0  0  0
   12.3834   -0.1768   24.9142 C   0  0  0  0  0  0  0  0  0  0  0  0
    9.1890   -3.5540   24.0140 C   0  0  0  0  0  0  0  0  0  0  0  0
    7.8700   -2.0610   25.3550 C   0  0  0  0  0  0  0  0  0  0  0  0
    4.6610    1.7170   18.4380 C   0  0  0  0  0  0  0  0  0  0  0  0
    5.3890    1.0010   21.0690 C   0  0  0  0  0  0  0  0  0  0  0  0
    9.5890   -2.4950   23.2210 C   0  0  0  0  0  0  0  0  0  0  0  0
    8.2550   -1.0010   24.5520 C   0  0  0  0  0  0  0  0  0  0  0  0
   14.2299   -1.5086   24.1059 C   0  0  0  0  0  0  0  0  0  0  0  0
   12.5847   -0.6573   22.5550 C   0  0  0  0  0  0  0  0  0  0  0  0
    7.5840   -0.2700   18.5160 C   0  0  0  0  0  0  0  0  0  0  0  0
    8.3450   -3.3440   25.0980 C   0  0  0  0  0  0  0  0  0  0  0  0
   11.9020   -0.0532   23.6108 C   0  0  0  0  0  0  0  0  0  0  0  0
    5.7970    0.9500   18.6730 C   0  0  0  0  0  0  0  0  0  0  0  0
    6.1460    0.6070   19.9750 C   0  0  0  0  0  0  0  0  0  0  0  0
    9.1280   -1.2090   23.4870 C   0  0  0  0  0  0  0  0  0  0  0  0
   13.7486   -1.3850   22.8026 C   0  0  0  0  0  0  0  0  0  0  0  0
    9.0430    0.2380   21.4940 C   0  0  0  0  0  0  0  0  0  0  0  0
    7.9522   -4.4794   25.9764 C   0  0  0  0  0  0  0  0  0  0  0  0
   10.6485    0.7293   23.3453 C   0  0  0  0  0  0  0  0  0  0  0  0
    8.0950   -0.7700   20.8440 C   0  0  0  0  0  0  0  0  0  0  0  0
    6.7100    0.3850   17.8100 N   0  0  0  0  0  0  0  0  0  0  0  0
    7.2710   -0.1460   19.8310 N   0  0  0  0  0  0  0  0  0  0  0  0
    9.5820   -0.1080   22.7000 N   0  0  0  0  0  0  0  0  0  0  0  0
    9.2950    1.3000   20.9480 O   0  0  0  0  0  0  0  0  0  0  0  0
   14.5907   -2.1315   21.5005 Cl  0  0  0  0  0  0  0  0  0  0  0  0
    2.9844    2.6932   19.3613 H   0  0  0  0  0  0  0  0  0  0  0  0
    3.6232    2.0695   21.6567 H   0  0  0  0  0  0  0  0  0  0  0  0
   13.9217   -1.0007   26.1768 H   0  0  0  0  0  0  0  0  0  0  0  0
   11.8579    0.2905   25.7429 H   0  0  0  0  0  0  0  0  0  0  0  0
    9.5403   -4.5627   23.7809 H   0  0  0  0  0  0  0  0  0  0  0  0
    7.1911   -1.8848   26.1904 H   0  0  0  0  0  0  0  0  0  0  0  0
    4.3779    2.0108   17.4276 H   0  0  0  0  0  0  0  0  0  0  0  0
    5.6763    0.7334   22.0897 H   0  0  0  0  0  0  0  0  0  0  0  0
   10.2682   -2.6746   22.3865 H   0  0  0  0  0  0  0  0  0  0  0  0
    7.8684   -0.0022   24.7594 H   0  0  0  0  0  0  0  0  0  0  0  0
   15.1357   -2.0730   24.3137 H   0  0  0  0  0  0  0  0  0  0  0  0
   12.2056   -0.5576   21.5405 H   0  0  0  0  0  0  0  0  0  0  0  0
    8.4216   -0.8246   18.1565 H   0  0  0  0  0  0  0  0  0  0  0  0
    8.6668   -4.5891   26.8013 H   0  0  0  0  0  0  0  0  0  0  0  0
    6.9513   -4.3276   26.4010 H   0  0  0  0  0  0  0  0  0  0  0  0
    7.9196   -5.4231   25.4163 H   0  0  0  0  0  0  0  0  0  0  0  0
   10.2409    1.1337   24.2782 H   0  0  0  0  0  0  0  0  0  0  0  0
   10.8479    1.5780   22.6826 H   0  0  0  0  0  0  0  0  0  0  0  0
    8.6626   -1.5629   20.3596 H   0  0  0  0  0  0  0  0  0  0  0  0
    7.4236   -1.1883   21.5924 H   0  0  0  0  0  0  0  0  0  0  0  0
  1  2  1  0  0  0  0
  1  7  2  0  0  0  0
  2  8  2  0  0  0  0
  3  4  2  0  0  0  0
  3 11  1  0  0  0  0
  4 15  1  0  0  0  0
  5  9  2  0  0  0  0
  5 14  1  0  0  0  0
  6 10  1  0  0  0  0
  6 14  2  0  0  0  0
  7 16  1  0  0  0  0
  8 17  1  0  0  0  0
  9 18  1  0  0  0  0
 10 18  2  0  0  0  0
 11 19  2  0  0  0  0
 12 15  2  0  0  0  0
 12 19  1  0  0  0  0
 13 24  2  0  0  0  0
 13 25  1  0  0  0  0
 14 21  1  0  0  0  0
 15 22  1  0  0  0  0
 16 17  2  0  0  0  0
 16 24  1  0  0  0  0
 17 25  1  0  0  0  0
 18 26  1  0  0  0  0
 19 28  1  0  0  0  0
 20 23  1  0  0  0  0
 20 26  1  0  0  0  0
 20 27  2  0  0  0  0
 22 26  1  0  0  0  0
 23 25  1  0  0  0  0
  1 29  1  0  0  0  0
  2 30  1  0  0  0  0
  3 31  1  0  0  0  0
  4 32  1  0  0  0  0
  5 33  1  0  0  0  0
  6 34  1  0  0  0  0
  7 35  1  0  0  0  0
  8 36  1  0  0  0  0
  9 37  1  0  0  0  0
 10 38  1  0  0  0  0
 11 39  1  0  0  0  0
 12 40  1  0  0  0  0
 13 41  1  0  0  0  0
 21 42  1  0  0  0  0
 21 43  1  0  0  0  0
 21 44  1  0  0  0  0
 22 45  1  0  0  0  0
 22 46  1  0  0  0  0
 23 47  1  0  0  0  0
 23 48  1  0  0  0  0
M  END
> <clash_score>
0

> <docking_score>
-8.455845832824707

> <overlap_score>
0.9014704823493958

$$$$
BENZO_381_1
  -OEChem-08232013553D

 49 52  0     0  0  0  0  0  0999 V2000
   14.2308   -1.5082   24.1035 C   0  0  0  0  0  0  0  0  0  0  0  0
   13.8842   -0.4439   24.9358 C   0  0  0  0  0  0  0  0  0  0  0  0
   13.4130   -1.8449   23.0247 C   0  0  0  0  0  0  0  0  0  0  0  0
    3.8860    2.1050   19.5250 C   0  0  0  0  0  0  0  0  0  0  0  0
    4.2460    1.7520   20.8250 C   0  0  0  0  0  0  0  0  0  0  0  0
   12.7198    0.2836   24.6895 C   0  0  0  0  0  0  0  0  0  0  0  0
   12.2487   -1.1174   22.7785 C   0  0  0  0  0  0  0  0  0  0  0  0
    4.6610    1.7170   18.4380 C   0  0  0  0  0  0  0  0  0  0  0  0
    5.3890    1.0010   21.0690 C   0  0  0  0  0  0  0  0  0  0  0  0
    9.5890   -2.4950   23.2210 C   0  0  0  0  0  0  0  0  0  0  0  0
    8.2550   -1.0010   24.5520 C   0  0  0  0  0  0  0  0  0  0  0  0
    9.1890   -3.5540   24.0140 C   0  0  0  0  0  0  0  0  0  0  0  0
    7.8700   -2.0610   25.3550 C   0  0  0  0  0  0  0  0  0  0  0  0
    7.5840   -0.2700   18.5160 C   0  0  0  0  0  0  0  0  0  0  0  0
   11.9020   -0.0532   23.6108 C   0  0  0  0  0  0  0  0  0  0  0  0
    5.7970    0.9500   18.6730 C   0  0  0  0  0  0  0  0  0  0  0  0
    6.1460    0.6070   19.9750 C   0  0  0  0  0  0  0  0  0  0  0  0
    9.1280   -1.2090   23.4870 C   0  0  0  0  0  0  0  0  0  0  0  0
    8.3450   -3.3440   25.0980 C   0  0  0  0  0  0  0  0  0  0  0  0
    9.0430    0.2380   21.4940 C   0  0  0  0  0  0  0  0  0  0  0  0
    8.5124   -5.6656   25.5743 C   0  0  0  0  0  0  0  0  0  0  0  0
   10.6485    0.7293   23.3453 C   0  0  0  0  0  0  0  0  0  0  0  0
    8.0950   -0.7700   20.8440 C   0  0  0  0  0  0  0  0  0  0  0  0
    6.7100    0.3850   17.8100 N   0  0  0  0  0  0  0  0  0  0  0  0
    7.2710   -0.1460   19.8310 N   0  0  0  0  0  0  0  0  0  0  0  0
    9.5820   -0.1080   22.7000 N   0  0  0  0  0  0  0  0  0  0  0  0
    9.2950    1.3000   20.9480 O   0  0  0  0  0  0  0  0  0  0  0  0
    7.9864   -4.3799   25.8996 O   0  0  0  0  0  0  0  0  0  0  0  0
   15.1381   -2.0737   24.2946 H   0  0  0  0  0  0  0  0  0  0  0  0
   14.5213   -0.1809   25.7751 H   0  0  0  0  0  0  0  0  0  0  0  0
   13.6831   -2.6728   22.3759 H   0  0  0  0  0  0  0  0  0  0  0  0
    2.9844    2.6932   19.3613 H   0  0  0  0  0  0  0  0  0  0  0  0
    3.6232    2.0695   21.6567 H   0  0  0  0  0  0  0  0  0  0  0  0
   12.4576    1.1111   25.3435 H   0  0  0  0  0  0  0  0  0  0  0  0
   11.6176   -1.3871   21.9358 H   0  0  0  0  0  0  0  0  0  0  0  0
    4.3779    2.0108   17.4276 H   0  0  0  0  0  0  0  0  0  0  0  0
    5.6763    0.7334   22.0897 H   0  0  0  0  0  0  0  0  0  0  0  0
   10.2678   -2.6746   22.3862 H   0  0  0  0  0  0  0  0  0  0  0  0
    7.8691   -0.0023   24.7606 H   0  0  0  0  0  0  0  0  0  0  0  0
    9.5404   -4.5633   23.7846 H   0  0  0  0  0  0  0  0  0  0  0  0
    7.1920   -1.8875   26.1914 H   0  0  0  0  0  0  0  0  0  0  0  0
    8.4216   -0.8246   18.1565 H   0  0  0  0  0  0  0  0  0  0  0  0
    8.1469   -6.4024   26.2938 H   0  0  0  0  0  0  0  0  0  0  0  0
    9.6045   -5.6297   25.5962 H   0  0  0  0  0  0  0  0  0  0  0  0
    8.1790   -5.9427   24.5714 H   0  0  0  0  0  0  0  0  0  0  0  0
   10.2409    1.1337   24.2782 H   0  0  0  0  0  0  0  0  0  0  0  0
   10.8479    1.5780   22.6826 H   0  0  0  0  0  0  0  0  0  0  0  0
    8.6626   -1.5629   20.3596 H   0  0  0  0  0  0  0  0  0  0  0  0
    7.4236   -1.1883   21.5924 H   0  0  0  0  0  0  0  0  0  0  0  0
  1  2  1  0  0  0  0
  1  3  2  0  0  0  0
  2  6  2  0  0  0  0
  3  7  1  0  0  0  0
  4  5  1  0  0  0  0
  4  8  2  0  0  0  0
  5  9  2  0  0  0  0
  6 15  1  0  0  0  0
  7 15  2  0  0  0  0
  8 16  1  0  0  0  0
  9 17  1  0  0  0  0
 10 12  2  0  0  0  0
 10 18  1  0  0  0  0
 11 13  1  0  0  0  0
 11 18  2  0  0  0  0
 12 19  1  0  0  0  0
 13 19  2  0  0  0  0
 14 24  2  0  0  0  0
 14 25  1  0  0  0  0
 15 22  1  0  0  0  0
 16 17  2  0  0  0  0
 16 24  1  0  0  0  0
 17 25  1  0  0  0  0
 18 26  1  0  0  0  0
 19 28  1  0  0  0  0
 20 23  1  0  0  0  0
 20 26  1  0  0  0  0
 20 27  2  0  0  0  0
 21 28  1  0  0  0  0
 22 26  1  0  0  0  0
 23 25  1  0  0  0  0
  1 29  1  0  0  0  0
  2 30  1  0  0  0  0
  3 31  1  0  0  0  0
  4 32  1  0  0  0  0
  5 33  1  0  0  0  0
  6 34  1  0  0  0  0
  7 35  1  0  0  0  0
  8 36  1  0  0  0  0
  9 37  1  0  0  0  0
 10 38  1  0  0  0  0
 11 39  1  0  0  0  0
 12 40  1  0  0  0  0
 13 41  1  0  0  0  0
 14 42  1  0  0  0  0
 21 43  1  0  0  0  0
 21 44  1  0  0  0  0
 21 45  1  0  0  0  0
 22 46  1  0  0  0  0
 22 47  1  0  0  0  0
 23 48  1  0  0  0  0
 23 49  1  0  0  0  0
M  END
> <clash_score>
0

> <docking_score>
-9.32114028930664

> <overlap_score>
0.9043794870376587

$$$$
BENZO_380_1
  -OEChem-08232013553D

 46 49  0     0  0  0  0  0  0999 V2000
    3.8860    2.1050   19.5250 C   0  0  0  0  0  0  0  0  0  0  0  0
    4.2460    1.7520   20.8250 C   0  0  0  0  0  0  0  0  0  0  0  0
    4.6610    1.7170   18.4380 C   0  0  0  0  0  0  0  0  0  0  0  0
    5.3890    1.0010   21.0690 C   0  0  0  0  0  0  0  0  0  0  0  0
    9.5890   -2.4950   23.2210 C   0  0  0  0  0  0  0  0  0  0  0  0
    8.2550   -1.0010   24.5520 C   0  0  0  0  0  0  0  0  0  0  0  0
    9.1890   -3.5540   24.0140 C   0  0  0  0  0  0  0  0  0  0  0  0
    7.8700   -2.0610   25.3550 C   0  0  0  0  0  0  0  0  0  0  0  0
   12.4671   -0.2328   24.9064 C   0  0  0  0  0  0  0  0  0  0  0  0
   13.6167   -0.9909   24.8690 C   0  0  0  0  0  0  0  0  0  0  0  0
   12.6415   -0.6807   22.6324 C   0  0  0  0  0  0  0  0  0  0  0  0
    7.5840   -0.2700   18.5160 C   0  0  0  0  0  0  0  0  0  0  0  0
   11.9020   -0.0532   23.6108 C   0  0  0  0  0  0  0  0  0  0  0  0
    5.7970    0.9500   18.6730 C   0  0  0  0  0  0  0  0  0  0  0  0
    6.1460    0.6070   19.9750 C   0  0  0  0  0  0  0  0  0  0  0  0
    9.1280   -1.2090   23.4870 C   0  0  0  0  0  0  0  0  0  0  0  0
    8.3450   -3.3440   25.0980 C   0  0  0  0  0  0  0  0  0  0  0  0
    9.0430    0.2380   21.4940 C   0  0  0  0  0  0  0  0  0  0  0  0
    7.1173   -4.0854   26.9922 C   0  0  0  0  0  0  0  0  0  0  0  0
   10.6485    0.7293   23.3453 C   0  0  0  0  0  0  0  0  0  0  0  0
    8.0950   -0.7700   20.8440 C   0  0  0  0  0  0  0  0  0  0  0  0
    6.7100    0.3850   17.8100 N   0  0  0  0  0  0  0  0  0  0  0  0
    7.2710   -0.1460   19.8310 N   0  0  0  0  0  0  0  0  0  0  0  0
    9.5820   -0.1080   22.7000 N   0  0  0  0  0  0  0  0  0  0  0  0
    9.2950    1.3000   20.9480 O   0  0  0  0  0  0  0  0  0  0  0  0
    7.9864   -4.3799   25.8996 O   0  0  0  0  0  0  0  0  0  0  0  0
   14.0106   -1.4825   23.2767 S   0  0  0  0  0  0  0  0  0  0  0  0
    2.9844    2.6932   19.3613 H   0  0  0  0  0  0  0  0  0  0  0  0
    3.6232    2.0695   21.6567 H   0  0  0  0  0  0  0  0  0  0  0  0
    4.3779    2.0108   17.4276 H   0  0  0  0  0  0  0  0  0  0  0  0
    5.6763    0.7334   22.0897 H   0  0  0  0  0  0  0  0  0  0  0  0
   10.2678   -2.6746   22.3862 H   0  0  0  0  0  0  0  0  0  0  0  0
    7.8691   -0.0023   24.7606 H   0  0  0  0  0  0  0  0  0  0  0  0
    9.5404   -4.5633   23.7846 H   0  0  0  0  0  0  0  0  0  0  0  0
    7.1920   -1.8875   26.1914 H   0  0  0  0  0  0  0  0  0  0  0  0
   12.0548    0.1721   25.8221 H   0  0  0  0  0  0  0  0  0  0  0  0
   14.2445   -1.2790   25.7003 H   0  0  0  0  0  0  0  0  0  0  0  0
   12.4475   -0.7082   21.5691 H   0  0  0  0  0  0  0  0  0  0  0  0
    8.4216   -0.8246   18.1565 H   0  0  0  0  0  0  0  0  0  0  0  0
    6.9108   -5.0011   27.5515 H   0  0  0  0  0  0  0  0  0  0  0  0
    6.1851   -3.6594   26.6128 H   0  0  0  0  0  0  0  0  0  0  0  0
    7.6053   -3.3619   27.6495 H   0  0  0  0  0  0  0  0  0  0  0  0
   10.2409    1.1337   24.2782 H   0  0  0  0  0  0  0  0  0  0  0  0
   10.8479    1.5780   22.6826 H   0  0  0  0  0  0  0  0  0  0  0  0
    8.6626   -1.5629   20.3596 H   0  0  0  0  0  0  0  0  0  0  0  0
    7.4236   -1.1883   21.5924 H   0  0  0  0  0  0  0  0  0  0  0  0
  1  2  1  0  0  0  0
  1  3  2  0  0  0  0
  2  4  2  0  0  0  0
  3 14  1  0  0  0  0
  4 15  1  0  0  0  0
  5  7  2  0  0  0  0
  5 16  1  0  0  0  0
  6  8  1  0  0  0  0
  6 16  2  0  0  0  0
  7 17  1  0  0  0  0
  8 17  2  0  0  0  0
  9 10  2  0  0  0  0
  9 13  1  0  0  0  0
 10 27  1  0  0  0  0
 11 13  2  0  0  0  0
 11 27  1  0  0  0  0
 12 22  2  0  0  0  0
 12 23  1  0  0  0  0
 13 20  1  0  0  0  0
 14 15  2  0  0  0  0
 14 22  1  0  0  0  0
 15 23  1  0  0  0  0
 16 24  1  0  0  0  0
 17 26  1  0  0  0  0
 18 21  1  0  0  0  0
 18 24  1  0  0  0  0
 18 25  2  0  0  0  0
 19 26  1  0  0  0  0
 20 24  1  0  0  0  0
 21 23  1  0  0  0  0
  1 28  1  0  0  0  0
  2 29  1  0  0  0  0
  3 30  1  0  0  0  0
  4 31  1  0  0  0  0
  5 32  1  0  0  0  0
  6 33  1  0  0  0  0
  7 34  1  0  0  0  0
  8 35  1  0  0  0  0
  9 36  1  0  0  0  0
 10 37  1  0  0  0  0
 11 38  1  0  0  0  0
 12 39  1  0  0  0  0
 19 40  1  0  0  0  0
 19 41  1  0  0  0  0
 19 42  1  0  0  0  0
 20 43  1  0  0  0  0
 20 44  1  0  0  0  0
 21 45  1  0  0  0  0
 21 46  1  0  0  0  0
M  END
> <clash_score>
0

> <docking_score>
-8.58934497833252

> <overlap_score>
0.895670473575592

$$$$
BENZO_383_1
  -OEChem-08232013553D

 49 52  0     0  0  0  0  0  0999 V2000
    3.8860    2.1050   19.5250 C   0  0  0  0  0  0  0  0  0  0  0  0
    4.2460    1.7520   20.8250 C   0  0  0  0  0  0  0  0  0  0  0  0
    4.6610    1.7170   18.4380 C   0  0  0  0  0  0  0  0  0  0  0  0
    5.3890    1.0010   21.0690 C   0  0  0  0  0  0  0  0  0  0  0  0
    9.5890   -2.4950   23.2210 C   0  0  0  0  0  0  0  0  0  0  0  0
    8.2550   -1.0010   24.5520 C   0  0  0  0  0  0  0  0  0  0  0  0
    9.1890   -3.5540   24.0140 C   0  0  0  0  0  0  0  0  0  0  0  0
    7.8700   -2.0610   25.3550 C   0  0  0  0  0  0  0  0  0  0  0  0
   13.1958    0.4729   23.8697 C   0  0  0  0  0  0  0  0  0  0  0  0
   12.3969   -0.8706   22.3232 C   0  0  0  0  0  0  0  0  0  0  0  0
    7.5840   -0.2700   18.5160 C   0  0  0  0  0  0  0  0  0  0  0  0
   12.0164    0.1329   23.1804 C   0  0  0  0  0  0  0  0  0  0  0  0
    5.7970    0.9500   18.6730 C   0  0  0  0  0  0  0  0  0  0  0  0
    6.1460    0.6070   19.9750 C   0  0  0  0  0  0  0  0  0  0  0  0
    9.1280   -1.2090   23.4870 C   0  0  0  0  0  0  0  0  0  0  0  0
    8.3450   -3.3440   25.0980 C   0  0  0  0  0  0  0  0  0  0  0  0
    9.0430    0.2380   21.4940 C   0  0  0  0  0  0  0  0  0  0  0  0
   14.5775   -2.0202   21.8738 C   0  0  0  0  0  0  0  0  0  0  0  0
    7.1173   -4.0854   26.9922 C   0  0  0  0  0  0  0  0  0  0  0  0
   10.6485    0.7293   23.3453 C   0  0  0  0  0  0  0  0  0  0  0  0
    8.0950   -0.7700   20.8440 C   0  0  0  0  0  0  0  0  0  0  0  0
   14.2468   -0.2555   23.4839 N   0  0  0  0  0  0  0  0  0  0  0  0
    6.7100    0.3850   17.8100 N   0  0  0  0  0  0  0  0  0  0  0  0
   13.7291   -1.0633   22.5429 N   0  0  0  0  0  0  0  0  0  0  0  0
    7.2710   -0.1460   19.8310 N   0  0  0  0  0  0  0  0  0  0  0  0
    9.5820   -0.1080   22.7000 N   0  0  0  0  0  0  0  0  0  0  0  0
    9.2950    1.3000   20.9480 O   0  0  0  0  0  0  0  0  0  0  0  0
    7.9864   -4.3799   25.8996 O   0  0  0  0  0  0  0  0  0  0  0  0
    2.9844    2.6932   19.3613 H   0  0  0  0  0  0  0  0  0  0  0  0
    3.6232    2.0695   21.6567 H   0  0  0  0  0  0  0  0  0  0  0  0
    4.3779    2.0108   17.4276 H   0  0  0  0  0  0  0  0  0  0  0  0
    5.6763    0.7334   22.0897 H   0  0  0  0  0  0  0  0  0  0  0  0
   10.2678   -2.6746   22.3862 H   0  0  0  0  0  0  0  0  0  0  0  0
    7.8691   -0.0023   24.7606 H   0  0  0  0  0  0  0  0  0  0  0  0
    9.5404   -4.5633   23.7846 H   0  0  0  0  0  0  0  0  0  0  0  0
    7.1920   -1.8875   26.1914 H   0  0  0  0  0  0  0  0  0  0  0  0
   13.3356    1.2201   24.6381 H   0  0  0  0  0  0  0  0  0  0  0  0
   11.8465   -1.4504   21.5947 H   0  0  0  0  0  0  0  0  0  0  0  0
    8.4216   -0.8246   18.1565 H   0  0  0  0  0  0  0  0  0  0  0  0
   14.9983   -1.5366   20.9883 H   0  0  0  0  0  0  0  0  0  0  0  0
   15.3749   -2.3365   22.5520 H   0  0  0  0  0  0  0  0  0  0  0  0
   13.9832   -2.8926   21.5883 H   0  0  0  0  0  0  0  0  0  0  0  0
    6.9108   -5.0011   27.5515 H   0  0  0  0  0  0  0  0  0  0  0  0
    6.1851   -3.6594   26.6128 H   0  0  0  0  0  0  0  0  0  0  0  0
    7.6053   -3.3619   27.6495 H   0  0  0  0  0  0  0  0  0  0  0  0
   10.3984    0.8342   24.4067 H   0  0  0  0  0  0  0  0  0  0  0  0
   10.5989    1.7282   22.8993 H   0  0  0  0  0  0  0  0  0  0  0  0
    8.6626   -1.5629   20.3596 H   0  0  0  0  0  0  0  0  0  0  0  0
    7.4236   -1.1883   21.5924 H   0  0  0  0  0  0  0  0  0  0  0  0
  1  2  1  0  0  0  0
  1  3  2  0  0  0  0
  2  4  2  0  0  0  0
  3 13  1  0  0  0  0
  4 14  1  0  0  0  0
  5  7  2  0  0  0  0
  5 15  1  0  0  0  0
  6  8  1  0  0  0  0
  6 15  2  0  0  0  0
  7 16  1  0  0  0  0
  8 16  2  0  0  0  0
  9 12  1  0  0  0  0
  9 22  2  0  0  0  0
 10 12  2  0  0  0  0
 10 24  1  0  0  0  0
 11 23  2  0  0  0  0
 11 25  1  0  0  0  0
 12 20  1  0  0  0  0
 13 14  2  0  0  0  0
 13 23  1  0  0  0  0
 14 25  1  0  0  0  0
 15 26  1  0  0  0  0
 16 28  1  0  0  0  0
 17 21  1  0  0  0  0
 17 26  1  0  0  0  0
 17 27  2  0  0  0  0
 18 24  1  0  0  0  0
 19 28  1  0  0  0  0
 20 26  1  0  0  0  0
 21 25  1  0  0  0  0
 22 24  1  0  0  0  0
  1 29  1  0  0  0  0
  2 30  1  0  0  0  0
  3 31  1  0  0  0  0
  4 32  1  0  0  0  0
  5 33  1  0  0  0  0
  6 34  1  0  0  0  0
  7 35  1  0  0  0  0
  8 36  1  0  0  0  0
  9 37  1  0  0  0  0
 10 38  1  0  0  0  0
 11 39  1  0  0  0  0
 18 40  1  0  0  0  0
 18 41  1  0  0  0  0
 18 42  1  0  0  0  0
 19 43  1  0  0  0  0
 19 44  1  0  0  0  0
 19 45  1  0  0  0  0
 20 46  1  0  0  0  0
 20 47  1  0  0  0  0
 21 48  1  0  0  0  0
 21 49  1  0  0  0  0
M  END
> <clash_score>
0

> <docking_score>
-9.000393867492676

> <overlap_score>
0.9083467125892639

$$$$
BENZO_382_1
  -OEChem-08232013553D

 49 52  0     0  0  0  0  0  0999 V2000
    3.8860    2.1050   19.5250 C   0  0  0  0  0  0  0  0  0  0  0  0
    4.2460    1.7520   20.8250 C   0  0  0  0  0  0  0  0  0  0  0  0
   13.5473   -0.9045   25.1617 C   0  0  0  0  0  0  0  0  0  0  0  0
   12.3834   -0.1768   24.9142 C   0  0  0  0  0  0  0  0  0  0  0  0
    4.6610    1.7170   18.4380 C   0  0  0  0  0  0  0  0  0  0  0  0
    5.3890    1.0010   21.0690 C   0  0  0  0  0  0  0  0  0  0  0  0
    9.5890   -2.4950   23.2210 C   0  0  0  0  0  0  0  0  0  0  0  0
    8.2550   -1.0010   24.5520 C   0  0  0  0  0  0  0  0  0  0  0  0
    9.1890   -3.5540   24.0140 C   0  0  0  0  0  0  0  0  0  0  0  0
    7.8700   -2.0610   25.3550 C   0  0  0  0  0  0  0  0  0  0  0  0
   14.2299   -1.5086   24.1059 C   0  0  0  0  0  0  0  0  0  0  0  0
   12.5847   -0.6573   22.5550 C   0  0  0  0  0  0  0  0  0  0  0  0
    7.5840   -0.2700   18.5160 C   0  0  0  0  0  0  0  0  0  0  0  0
   11.9020   -0.0532   23.6108 C   0  0  0  0  0  0  0  0  0  0  0  0
    5.7970    0.9500   18.6730 C   0  0  0  0  0  0  0  0  0  0  0  0
    6.1460    0.6070   19.9750 C   0  0  0  0  0  0  0  0  0  0  0  0
    9.1280   -1.2090   23.4870 C   0  0  0  0  0  0  0  0  0  0  0  0
    8.3450   -3.3440   25.0980 C   0  0  0  0  0  0  0  0  0  0  0  0
   13.7486   -1.3850   22.8026 C   0  0  0  0  0  0  0  0  0  0  0  0
    9.0430    0.2380   21.4940 C   0  0  0  0  0  0  0  0  0  0  0  0
    8.5124   -5.6656   25.5743 C   0  0  0  0  0  0  0  0  0  0  0  0
   10.6485    0.7293   23.3453 C   0  0  0  0  0  0  0  0  0  0  0  0
    8.0950   -0.7700   20.8440 C   0  0  0  0  0  0  0  0  0  0  0  0
    6.7100    0.3850   17.8100 N   0  0  0  0  0  0  0  0  0  0  0  0
    7.2710   -0.1460   19.8310 N   0  0  0  0  0  0  0  0  0  0  0  0
    9.5820   -0.1080   22.7000 N   0  0  0  0  0  0  0  0  0  0  0  0
    9.2950    1.3000   20.9480 O   0  0  0  0  0  0  0  0  0  0  0  0
    7.9864   -4.3799   25.8996 O   0  0  0  0  0  0  0  0  0  0  0  0
   14.5907   -2.1315   21.5005 Cl  0  0  0  0  0  0  0  0  0  0  0  0
    2.9844    2.6932   19.3613 H   0  0  0  0  0  0  0  0  0  0  0  0
    3.6232    2.0695   21.6567 H   0  0  0  0  0  0  0  0  0  0  0  0
   13.9217   -1.0007   26.1768 H   0  0  0  0  0  0  0  0  0  0  0  0
   11.8579    0.2905   25.7429 H   0  0  0  0  0  0  0  0  0  0  0  0
    4.3779    2.0108   17.4276 H   0  0  0  0  0  0  0  0  0  0  0  0
    5.6763    0.7334   22.0897 H   0  0  0  0  0  0  0  0  0  0  0  0
   10.2678   -2.6746   22.3862 H   0  0  0  0  0  0  0  0  0  0  0  0
    7.8691   -0.0023   24.7606 H   0  0  0  0  0  0  0  0  0  0  0  0
    9.5404   -4.5633   23.7846 H   0  0  0  0  0  0  0  0  0  0  0  0
    7.1920   -1.8875   26.1914 H   0  0  0  0  0  0  0  0  0  0  0  0
   15.1357   -2.0730   24.3137 H   0  0  0  0  0  0  0  0  0  0  0  0
   12.2056   -0.5576   21.5405 H   0  0  0  0  0  0  0  0  0  0  0  0
    8.4216   -0.8246   18.1565 H   0  0  0  0  0  0  0  0  0  0  0  0
    8.1469   -6.4024   26.2938 H   0  0  0  0  0  0  0  0  0  0  0  0
    9.6045   -5.6297   25.5962 H   0  0  0  0  0  0  0  0  0  0  0  0
    8.1790   -5.9427   24.5714 H   0  0  0  0  0  0  0  0  0  0  0  0
   10.2409    1.1337   24.2782 H   0  0  0  0  0  0  0  0  0  0  0  0
   10.8479    1.5780   22.6826 H   0  0  0  0  0  0  0  0  0  0  0  0
    8.6626   -1.5629   20.3596 H   0  0  0  0  0  0  0  0  0  0  0  0
    7.4236   -1.1883   21.5924 H   0  0  0  0  0  0  0  0  0  0  0  0
  1  2  1  0  0  0  0
  1  5  2  0  0  0  0
  2  6  2  0  0  0  0
  3  4  2  0  0  0  0
  3 11  1  0  0  0  0
  4 14  1  0  0  0  0
  5 15  1  0  0  0  0
  6 16  1  0  0  0  0
  7  9  2  0  0  0  0
  7 17  1  0  0  0  0
  8 10  1  0  0  0  0
  8 17  2  0  0  0  0
  9 18  1  0  0  0  0
 10 18  2  0  0  0  0
 11 19  2  0  0  0  0
 12 14  2  0  0  0  0
 12 19  1  0  0  0  0
 13 24  2  0  0  0  0
 13 25  1  0  0  0  0
 14 22  1  0  0  0  0
 15 16  2  0  0  0  0
 15 24  1  0  0  0  0
 16 25  1  0  0  0  0
 17 26  1  0  0  0  0
 18 28  1  0  0  0  0
 19 29  1  0  0  0  0
 20 23  1  0  0  0  0
 20 26  1  0  0  0  0
 20 27  2  0  0  0  0
 21 28  1  0  0  0  0
 22 26  1  0  0  0  0
 23 25  1  0  0  0  0
  1 30  1  0  0  0  0
  2 31  1  0  0  0  0
  3 32  1  0  0  0  0
  4 33  1  0  0  0  0
  5 34  1  0  0  0  0
  6 35  1  0  0  0  0
  7 36  1  0  0  0  0
  8 37  1  0  0  0  0
  9 38  1  0  0  0  0
 10 39  1  0  0  0  0
 11 40  1  0  0  0  0
 12 41  1  0  0  0  0
 13 42  1  0  0  0  0
 21 43  1  0  0  0  0
 21 44  1  0  0  0  0
 21 45  1  0  0  0  0
 22 46  1  0  0  0  0
 22 47  1  0  0  0  0
 23 48  1  0  0  0  0
 23 49  1  0  0  0  0
M  END
> <clash_score>
0

> <docking_score>
-8.57606315612793

> <overlap_score>
0.914722204208374

$$$$
BENZO_385_1
  -OEChem-08232013553D

 59 63  0     0  0  0  0  0  0999 V2000
   14.2426   -1.4610   24.1314 C   0  0  0  0  0  0  0  0  0  0  0  0
   13.8952   -0.3779   24.9387 C   0  0  0  0  0  0  0  0  0  0  0  0
   13.4237   -1.8252   23.0625 C   0  0  0  0  0  0  0  0  0  0  0  0
    3.8860    2.1050   19.5250 C   0  0  0  0  0  0  0  0  0  0  0  0
    4.2460    1.7520   20.8250 C   0  0  0  0  0  0  0  0  0  0  0  0
   12.7289    0.3410   24.6772 C   0  0  0  0  0  0  0  0  0  0  0  0
   12.2574   -1.1063   22.8010 C   0  0  0  0  0  0  0  0  0  0  0  0
    4.6610    1.7170   18.4380 C   0  0  0  0  0  0  0  0  0  0  0  0
    5.3890    1.0010   21.0690 C   0  0  0  0  0  0  0  0  0  0  0  0
    9.1890   -3.5540   24.0140 C   0  0  0  0  0  0  0  0  0  0  0  0
    7.8700   -2.0610   25.3550 C   0  0  0  0  0  0  0  0  0  0  0  0
    9.5890   -2.4950   23.2210 C   0  0  0  0  0  0  0  0  0  0  0  0
    8.2550   -1.0010   24.5520 C   0  0  0  0  0  0  0  0  0  0  0  0
    7.5840   -0.2700   18.5160 C   0  0  0  0  0  0  0  0  0  0  0  0
   11.9099   -0.0232   23.6083 C   0  0  0  0  0  0  0  0  0  0  0  0
    5.7970    0.9500   18.6730 C   0  0  0  0  0  0  0  0  0  0  0  0
    6.1460    0.6070   19.9750 C   0  0  0  0  0  0  0  0  0  0  0  0
    8.3450   -3.3440   25.0980 C   0  0  0  0  0  0  0  0  0  0  0  0
    9.1280   -1.2090   23.4870 C   0  0  0  0  0  0  0  0  0  0  0  0
    7.2752   -5.5548   25.4273 C   0  0  0  0  0  0  0  0  0  0  0  0
    9.0430    0.2380   21.4940 C   0  0  0  0  0  0  0  0  0  0  0  0
    7.1880   -6.7800   26.3209 C   0  0  0  0  0  0  0  0  0  0  0  0
    7.0916   -6.4753   27.7999 C   0  0  0  0  0  0  0  0  0  0  0  0
    8.2362   -5.5641   28.1841 C   0  0  0  0  0  0  0  0  0  0  0  0
    8.1241   -4.2655   27.4032 C   0  0  0  0  0  0  0  0  0  0  0  0
   10.6542    0.7501   23.3264 C   0  0  0  0  0  0  0  0  0  0  0  0
    8.0950   -0.7700   20.8440 C   0  0  0  0  0  0  0  0  0  0  0  0
    6.7100    0.3850   17.8100 N   0  0  0  0  0  0  0  0  0  0  0  0
    7.2710   -0.1460   19.8310 N   0  0  0  0  0  0  0  0  0  0  0  0
    7.9635   -4.4452   25.9501 N   0  0  0  0  0  0  0  0  0  0  0  0
    9.5820   -0.1080   22.7000 N   0  0  0  0  0  0  0  0  0  0  0  0
    6.7947   -5.6299   24.2931 O   0  0  0  0  0  0  0  0  0  0  0  0
    9.2950    1.3000   20.9480 O   0  0  0  0  0  0  0  0  0  0  0  0
   15.1516   -2.0199   24.3344 H   0  0  0  0  0  0  0  0  0  0  0  0
   14.5333   -0.0935   25.7703 H   0  0  0  0  0  0  0  0  0  0  0  0
   13.6945   -2.6678   22.4332 H   0  0  0  0  0  0  0  0  0  0  0  0
    2.9844    2.6932   19.3613 H   0  0  0  0  0  0  0  0  0  0  0  0
    3.6232    2.0695   21.6567 H   0  0  0  0  0  0  0  0  0  0  0  0
   12.4660    1.1834   25.3116 H   0  0  0  0  0  0  0  0  0  0  0  0
   11.6254   -1.3974   21.9662 H   0  0  0  0  0  0  0  0  0  0  0  0
    4.3779    2.0108   17.4276 H   0  0  0  0  0  0  0  0  0  0  0  0
    5.6762    0.7334   22.0897 H   0  0  0  0  0  0  0  0  0  0  0  0
    9.5436   -4.5614   23.7799 H   0  0  0  0  0  0  0  0  0  0  0  0
    7.1918   -1.8823   26.1906 H   0  0  0  0  0  0  0  0  0  0  0  0
   10.2676   -2.6754   22.3861 H   0  0  0  0  0  0  0  0  0  0  0  0
    7.8686   -0.0026   24.7598 H   0  0  0  0  0  0  0  0  0  0  0  0
    8.4216   -0.8246   18.1565 H   0  0  0  0  0  0  0  0  0  0  0  0
    6.3101   -7.3613   26.0164 H   0  0  0  0  0  0  0  0  0  0  0  0
    8.0752   -7.3922   26.1183 H   0  0  0  0  0  0  0  0  0  0  0  0
    6.1328   -5.9938   28.0269 H   0  0  0  0  0  0  0  0  0  0  0  0
    7.1363   -7.4051   28.3772 H   0  0  0  0  0  0  0  0  0  0  0  0
    8.2035   -5.3520   29.2586 H   0  0  0  0  0  0  0  0  0  0  0  0
    9.1990   -6.0474   27.9788 H   0  0  0  0  0  0  0  0  0  0  0  0
    7.2505   -3.6996   27.7511 H   0  0  0  0  0  0  0  0  0  0  0  0
    9.0155   -3.6525   27.5824 H   0  0  0  0  0  0  0  0  0  0  0  0
   10.2315    1.1514   24.2540 H   0  0  0  0  0  0  0  0  0  0  0  0
   10.8560    1.6003   22.6664 H   0  0  0  0  0  0  0  0  0  0  0  0
    8.6688   -1.5655   20.3666 H   0  0  0  0  0  0  0  0  0  0  0  0
    7.4298   -1.1908   21.5994 H   0  0  0  0  0  0  0  0  0  0  0  0
  1  2  1  0  0  0  0
  1  3  2  0  0  0  0
  2  6  2  0  0  0  0
  3  7  1  0  0  0  0
  4  5  1  0  0  0  0
  4  8  2  0  0  0  0
  5  9  2  0  0  0  0
  6 15  1  0  0  0  0
  7 15  2  0  0  0  0
  8 16  1  0  0  0  0
  9 17  1  0  0  0  0
 10 12  2  0  0  0  0
 10 18  1  0  0  0  0
 11 13  1  0  0  0  0
 11 18  2  0  0  0  0
 12 19  1  0  0  0  0
 13 19  2  0  0  0  0
 14 28  2  0  0  0  0
 14 29  1  0  0  0  0
 15 26  1  0  0  0  0
 16 17  2  0  0  0  0
 16 28  1  0  0  0  0
 17 29  1  0  0  0  0
 18 30  1  0  0  0  0
 19 31  1  0  0  0  0
 20 22  1  0  0  0  0
 20 30  1  0  0  0  0
 20 32  2  0  0  0  0
 21 27  1  0  0  0  0
 21 31  1  0  0  0  0
 21 33  2  0  0  0  0
 22 23  1  0  0  0  0
 23 24  1  0  0  0  0
 24 25  1  0  0  0  0
 25 30  1  0  0  0  0
 26 31  1  0  0  0  0
 27 29  1  0  0  0  0
  1 34  1  0  0  0  0
  2 35  1  0  0  0  0
  3 36  1  0  0  0  0
  4 37  1  0  0  0  0
  5 38  1  0  0  0  0
  6 39  1  0  0  0  0
  7 40  1  0  0  0  0
  8 41  1  0  0  0  0
  9 42  1  0  0  0  0
 10 43  1  0  0  0  0
 11 44  1  0  0  0  0
 12 45  1  0  0  0  0
 13 46  1  0  0  0  0
 14 47  1  0  0  0  0
 22 48  1  0  0  0  0
 22 49  1  0  0  0  0
 23 50  1  0  0  0  0
 23 51  1  0  0  0  0
 24 52  1  0  0  0  0
 24 53  1  0  0  0  0
 25 54  1  0  0  0  0
 25 55  1  0  0  0  0
 26 56  1  0  0  0  0
 26 57  1  0  0  0  0
 27 58  1  0  0  0  0
 27 59  1  0  0  0  0
M  END
> <clash_score>
0

> <docking_score>
-8.993571281433105

> <overlap_score>
0.9846128225326538

$$$$
BENZO_384_1
  -OEChem-08232013553D

 56 60  0     0  0  0  0  0  0999 V2000
    3.8860    2.1050   19.5250 C   0  0  0  0  0  0  0  0  0  0  0  0
    4.2460    1.7520   20.8250 C   0  0  0  0  0  0  0  0  0  0  0  0
    4.6610    1.7170   18.4380 C   0  0  0  0  0  0  0  0  0  0  0  0
    5.3890    1.0010   21.0690 C   0  0  0  0  0  0  0  0  0  0  0  0
    9.1890   -3.5540   24.0140 C   0  0  0  0  0  0  0  0  0  0  0  0
    7.8700   -2.0610   25.3550 C   0  0  0  0  0  0  0  0  0  0  0  0
    9.5890   -2.4950   23.2210 C   0  0  0  0  0  0  0  0  0  0  0  0
    8.2550   -1.0010   24.5520 C   0  0  0  0  0  0  0  0  0  0  0  0
   12.4593   -0.1988   24.9112 C   0  0  0  0  0  0  0  0  0  0  0  0
   13.6148   -0.9483   24.8888 C   0  0  0  0  0  0  0  0  0  0  0  0
   12.6667   -0.6451   22.6396 C   0  0  0  0  0  0  0  0  0  0  0  0
    7.5840   -0.2700   18.5160 C   0  0  0  0  0  0  0  0  0  0  0  0
   11.9099   -0.0232   23.6083 C   0  0  0  0  0  0  0  0  0  0  0  0
    5.7970    0.9500   18.6730 C   0  0  0  0  0  0  0  0  0  0  0  0
    6.1460    0.6070   19.9750 C   0  0  0  0  0  0  0  0  0  0  0  0
    8.3450   -3.3440   25.0980 C   0  0  0  0  0  0  0  0  0  0  0  0
    9.1280   -1.2090   23.4870 C   0  0  0  0  0  0  0  0  0  0  0  0
    7.2752   -5.5548   25.4273 C   0  0  0  0  0  0  0  0  0  0  0  0
    9.0430    0.2380   21.4940 C   0  0  0  0  0  0  0  0  0  0  0  0
    7.1880   -6.7800   26.3209 C   0  0  0  0  0  0  0  0  0  0  0  0
    7.0916   -6.4753   27.7999 C   0  0  0  0  0  0  0  0  0  0  0  0
    8.2362   -5.5641   28.1841 C   0  0  0  0  0  0  0  0  0  0  0  0
    8.1241   -4.2655   27.4032 C   0  0  0  0  0  0  0  0  0  0  0  0
   10.6542    0.7501   23.3264 C   0  0  0  0  0  0  0  0  0  0  0  0
    8.0950   -0.7700   20.8440 C   0  0  0  0  0  0  0  0  0  0  0  0
    6.7100    0.3850   17.8100 N   0  0  0  0  0  0  0  0  0  0  0  0
    7.2710   -0.1460   19.8310 N   0  0  0  0  0  0  0  0  0  0  0  0
    7.9635   -4.4452   25.9501 N   0  0  0  0  0  0  0  0  0  0  0  0
    9.5820   -0.1080   22.7000 N   0  0  0  0  0  0  0  0  0  0  0  0
    6.7947   -5.6299   24.2931 O   0  0  0  0  0  0  0  0  0  0  0  0
    9.2950    1.3000   20.9480 O   0  0  0  0  0  0  0  0  0  0  0  0
   14.0331   -1.4368   23.3018 S   0  0  0  0  0  0  0  0  0  0  0  0
    2.9844    2.6932   19.3613 H   0  0  0  0  0  0  0  0  0  0  0  0
    3.6232    2.0695   21.6567 H   0  0  0  0  0  0  0  0  0  0  0  0
    4.3779    2.0108   17.4276 H   0  0  0  0  0  0  0  0  0  0  0  0
    5.6762    0.7334   22.0897 H   0  0  0  0  0  0  0  0  0  0  0  0
    9.5436   -4.5614   23.7799 H   0  0  0  0  0  0  0  0  0  0  0  0
    7.1918   -1.8823   26.1906 H   0  0  0  0  0  0  0  0  0  0  0  0
   10.2676   -2.6754   22.3861 H   0  0  0  0  0  0  0  0  0  0  0  0
    7.8686   -0.0026   24.7598 H   0  0  0  0  0  0  0  0  0  0  0  0
   12.0321    0.2030   25.8214 H   0  0  0  0  0  0  0  0  0  0  0  0
   14.2338   -1.2319   25.7283 H   0  0  0  0  0  0  0  0  0  0  0  0
   12.4868   -0.6739   21.5739 H   0  0  0  0  0  0  0  0  0  0  0  0
    8.4216   -0.8246   18.1565 H   0  0  0  0  0  0  0  0  0  0  0  0
    6.3101   -7.3613   26.0164 H   0  0  0  0  0  0  0  0  0  0  0  0
    8.0752   -7.3922   26.1183 H   0  0  0  0  0  0  0  0  0  0  0  0
    6.1328   -5.9938   28.0269 H   0  0  0  0  0  0  0  0  0  0  0  0
    7.1363   -7.4051   28.3772 H   0  0  0  0  0  0  0  0  0  0  0  0
    8.2035   -5.3520   29.2586 H   0  0  0  0  0  0  0  0  0  0  0  0
    9.1990   -6.0474   27.9788 H   0  0  0  0  0  0  0  0  0  0  0  0
    7.2505   -3.6996   27.7511 H   0  0  0  0  0  0  0  0  0  0  0  0
    9.0155   -3.6525   27.5824 H   0  0  0  0  0  0  0  0  0  0  0  0
   10.2315    1.1514   24.2540 H   0  0  0  0  0  0  0  0  0  0  0  0
   10.8560    1.6003   22.6664 H   0  0  0  0  0  0  0  0  0  0  0  0
    8.6688   -1.5655   20.3666 H   0  0  0  0  0  0  0  0  0  0  0  0
    7.4298   -1.1908   21.5994 H   0  0  0  0  0  0  0  0  0  0  0  0
  1  2  1  0  0  0  0
  1  3  2  0  0  0  0
  2  4  2  0  0  0  0
  3 14  1  0  0  0  0
  4 15  1  0  0  0  0
  5  7  2  0  0  0  0
  5 16  1  0  0  0  0
  6  8  1  0  0  0  0
  6 16  2  0  0  0  0
  7 17  1  0  0  0  0
  8 17  2  0  0  0  0
  9 10  2  0  0  0  0
  9 13  1  0  0  0  0
 10 32  1  0  0  0  0
 11 13  2  0  0  0  0
 11 32  1  0  0  0  0
 12 26  2  0  0  0  0
 12 27  1  0  0  0  0
 13 24  1  0  0  0  0
 14 15  2  0  0  0  0
 14 26  1  0  0  0  0
 15 27  1  0  0  0  0
 16 28  1  0  0  0  0
 17 29  1  0  0  0  0
 18 20  1  0  0  0  0
 18 28  1  0  0  0  0
 18 30  2  0  0  0  0
 19 25  1  0  0  0  0
 19 29  1  0  0  0  0
 19 31  2  0  0  0  0
 20 21  1  0  0  0  0
 21 22  1  0  0  0  0
 22 23  1  0  0  0  0
 23 28  1  0  0  0  0
 24 29  1  0  0  0  0
 25 27  1  0  0  0  0
  1 33  1  0  0  0  0
  2 34  1  0  0  0  0
  3 35  1  0  0  0  0
  4 36  1  0  0  0  0
  5 37  1  0  0  0  0
  6 38  1  0  0  0  0
  7 39  1  0  0  0  0
  8 40  1  0  0  0  0
  9 41  1  0  0  0  0
 10 42  1  0  0  0  0
 11 43  1  0  0  0  0
 12 44  1  0  0  0  0
 20 45  1  0  0  0  0
 20 46  1  0  0  0  0
 21 47  1  0  0  0  0
 21 48  1  0  0  0  0
 22 49  1  0  0  0  0
 22 50  1  0  0  0  0
 23 51  1  0  0  0  0
 23 52  1  0  0  0  0
 24 53  1  0  0  0  0
 24 54  1  0  0  0  0
 25 55  1  0  0  0  0
 25 56  1  0  0  0  0
M  END
> <clash_score>
0

> <docking_score>
-8.9249906539917

> <overlap_score>
0.9698922038078308

$$$$
BENZO_387_1
  -OEChem-08232013553D

 59 63  0     0  0  0  0  0  0999 V2000
    3.8860    2.1050   19.5250 C   0  0  0  0  0  0  0  0  0  0  0  0
    4.2460    1.7520   20.8250 C   0  0  0  0  0  0  0  0  0  0  0  0
    4.6610    1.7170   18.4380 C   0  0  0  0  0  0  0  0  0  0  0  0
    5.3890    1.0010   21.0690 C   0  0  0  0  0  0  0  0  0  0  0  0
    9.1890   -3.5540   24.0140 C   0  0  0  0  0  0  0  0  0  0  0  0
    7.8700   -2.0610   25.3550 C   0  0  0  0  0  0  0  0  0  0  0  0
    9.5890   -2.4950   23.2210 C   0  0  0  0  0  0  0  0  0  0  0  0
    8.2550   -1.0010   24.5520 C   0  0  0  0  0  0  0  0  0  0  0  0
   13.1960    0.4900   23.8753 C   0  0  0  0  0  0  0  0  0  0  0  0
   12.4111   -0.8490   22.3177 C   0  0  0  0  0  0  0  0  0  0  0  0
    7.5840   -0.2700   18.5160 C   0  0  0  0  0  0  0  0  0  0  0  0
   12.0231    0.1527   23.1736 C   0  0  0  0  0  0  0  0  0  0  0  0
    5.7970    0.9500   18.6730 C   0  0  0  0  0  0  0  0  0  0  0  0
    6.1460    0.6070   19.9750 C   0  0  0  0  0  0  0  0  0  0  0  0
    8.3450   -3.3440   25.0980 C   0  0  0  0  0  0  0  0  0  0  0  0
    9.1280   -1.2090   23.4870 C   0  0  0  0  0  0  0  0  0  0  0  0
    7.2757   -5.5631   25.4492 C   0  0  0  0  0  0  0  0  0  0  0  0
    9.0430    0.2380   21.4940 C   0  0  0  0  0  0  0  0  0  0  0  0
    6.9626   -6.6001   26.5133 C   0  0  0  0  0  0  0  0  0  0  0  0
    6.3764   -5.9422   27.7501 C   0  0  0  0  0  0  0  0  0  0  0  0
    7.2660   -4.8258   28.2881 C   0  0  0  0  0  0  0  0  0  0  0  0
    8.4098   -4.4623   27.3426 C   0  0  0  0  0  0  0  0  0  0  0  0
   14.5950   -1.9995   21.8870 C   0  0  0  0  0  0  0  0  0  0  0  0
   10.6542    0.7501   23.3264 C   0  0  0  0  0  0  0  0  0  0  0  0
    8.0950   -0.7700   20.8440 C   0  0  0  0  0  0  0  0  0  0  0  0
   14.2501   -0.2385   23.4981 N   0  0  0  0  0  0  0  0  0  0  0  0
    6.7100    0.3850   17.8100 N   0  0  0  0  0  0  0  0  0  0  0  0
   13.7409   -1.0435   22.5500 N   0  0  0  0  0  0  0  0  0  0  0  0
    7.2710   -0.1460   19.8310 N   0  0  0  0  0  0  0  0  0  0  0  0
    7.9658   -4.4384   25.9449 N   0  0  0  0  0  0  0  0  0  0  0  0
    9.5820   -0.1080   22.7000 N   0  0  0  0  0  0  0  0  0  0  0  0
    6.9858   -5.7908   24.2753 O   0  0  0  0  0  0  0  0  0  0  0  0
    9.2950    1.3000   20.9480 O   0  0  0  0  0  0  0  0  0  0  0  0
    2.9844    2.6932   19.3613 H   0  0  0  0  0  0  0  0  0  0  0  0
    3.6232    2.0695   21.6567 H   0  0  0  0  0  0  0  0  0  0  0  0
    4.3779    2.0108   17.4276 H   0  0  0  0  0  0  0  0  0  0  0  0
    5.6762    0.7334   22.0897 H   0  0  0  0  0  0  0  0  0  0  0  0
    9.5436   -4.5614   23.7799 H   0  0  0  0  0  0  0  0  0  0  0  0
    7.1918   -1.8823   26.1906 H   0  0  0  0  0  0  0  0  0  0  0  0
   10.2676   -2.6754   22.3861 H   0  0  0  0  0  0  0  0  0  0  0  0
    7.8686   -0.0026   24.7598 H   0  0  0  0  0  0  0  0  0  0  0  0
   13.3289    1.2351   24.6469 H   0  0  0  0  0  0  0  0  0  0  0  0
   11.8674   -1.4265   21.5823 H   0  0  0  0  0  0  0  0  0  0  0  0
    8.4216   -0.8246   18.1565 H   0  0  0  0  0  0  0  0  0  0  0  0
    6.2500   -7.3027   26.1097 H   0  0  0  0  0  0  0  0  0  0  0  0
    7.8838   -7.1078   26.7574 H   0  0  0  0  0  0  0  0  0  0  0  0
    5.3690   -5.5363   27.5214 H   0  0  0  0  0  0  0  0  0  0  0  0
    6.2178   -6.7054   28.5384 H   0  0  0  0  0  0  0  0  0  0  0  0
    6.6498   -3.9225   28.4807 H   0  0  0  0  0  0  0  0  0  0  0  0
    7.6764   -5.1138   29.2803 H   0  0  0  0  0  0  0  0  0  0  0  0
    8.7796   -3.4700   27.5826 H   0  0  0  0  0  0  0  0  0  0  0  0
    9.2112   -5.1853   27.4497 H   0  0  0  0  0  0  0  0  0  0  0  0
   15.0250   -1.5142   21.0069 H   0  0  0  0  0  0  0  0  0  0  0  0
   15.3854   -2.3183   22.5723 H   0  0  0  0  0  0  0  0  0  0  0  0
   14.0027   -2.8707   21.5935 H   0  0  0  0  0  0  0  0  0  0  0  0
   10.3937    0.8526   24.3856 H   0  0  0  0  0  0  0  0  0  0  0  0
   10.6100    1.7501   22.8824 H   0  0  0  0  0  0  0  0  0  0  0  0
    8.6688   -1.5655   20.3666 H   0  0  0  0  0  0  0  0  0  0  0  0
    7.4298   -1.1908   21.5994 H   0  0  0  0  0  0  0  0  0  0  0  0
  1  2  1  0  0  0  0
  1  3  2  0  0  0  0
  2  4  2  0  0  0  0
  3 13  1  0  0  0  0
  4 14  1  0  0  0  0
  5  7  2  0  0  0  0
  5 15  1  0  0  0  0
  6  8  1  0  0  0  0
  6 15  2  0  0  0  0
  7 16  1  0  0  0  0
  8 16  2  0  0  0  0
  9 12  1  0  0  0  0
  9 26  2  0  0  0  0
 10 12  2  0  0  0  0
 10 28  1  0  0  0  0
 11 27  2  0  0  0  0
 11 29  1  0  0  0  0
 12 24  1  0  0  0  0
 13 14  2  0  0  0  0
 13 27  1  0  0  0  0
 14 29  1  0  0  0  0
 15 30  1  0  0  0  0
 16 31  1  0  0  0  0
 17 19  1  0  0  0  0
 17 30  1  0  0  0  0
 17 32  2  0  0  0  0
 18 25  1  0  0  0  0
 18 31  1  0  0  0  0
 18 33  2  0  0  0  0
 19 20  1  0  0  0  0
 20 21  1  0  0  0  0
 21 22  1  0  0  0  0
 22 30  1  0  0  0  0
 23 28  1  0  0  0  0
 24 31  1  0  0  0  0
 25 29  1  0  0  0  0
 26 28  1  0  0  0  0
  1 34  1  0  0  0  0
  2 35  1  0  0  0  0
  3 36  1  0  0  0  0
  4 37  1  0  0  0  0
  5 38  1  0  0  0  0
  6 39  1  0  0  0  0
  7 40  1  0  0  0  0
  8 41  1  0  0  0  0
  9 42  1  0  0  0  0
 10 43  1  0  0  0  0
 11 44  1  0  0  0  0
 19 45  1  0  0  0  0
 19 46  1  0  0  0  0
 20 47  1  0  0  0  0
 20 48  1  0  0  0  0
 21 49  1  0  0  0  0
 21 50  1  0  0  0  0
 22 51  1  0  0  0  0
 22 52  1  0  0  0  0
 23 53  1  0  0  0  0
 23 54  1  0  0  0  0
 23 55  1  0  0  0  0
 24 56  1  0  0  0  0
 24 57  1  0  0  0  0
 25 58  1  0  0  0  0
 25 59  1  0  0  0  0
M  END
> <clash_score>
0

> <docking_score>
-9.37585735321045

> <overlap_score>
0.9764638543128967

$$$$
BENZO_386_1
  -OEChem-08232013553D

 59 63  0     0  0  0  0  0  0999 V2000
    3.8860    2.1050   19.5250 C   0  0  0  0  0  0  0  0  0  0  0  0
    4.2460    1.7520   20.8250 C   0  0  0  0  0  0  0  0  0  0  0  0
   13.5409   -0.8625   25.1806 C   0  0  0  0  0  0  0  0  0  0  0  0
   12.3750   -0.1434   24.9179 C   0  0  0  0  0  0  0  0  0  0  0  0
    4.6610    1.7170   18.4380 C   0  0  0  0  0  0  0  0  0  0  0  0
    5.3890    1.0010   21.0690 C   0  0  0  0  0  0  0  0  0  0  0  0
    9.1890   -3.5540   24.0140 C   0  0  0  0  0  0  0  0  0  0  0  0
    7.8700   -2.0610   25.3550 C   0  0  0  0  0  0  0  0  0  0  0  0
    9.5890   -2.4950   23.2210 C   0  0  0  0  0  0  0  0  0  0  0  0
    8.2550   -1.0010   24.5520 C   0  0  0  0  0  0  0  0  0  0  0  0
   14.2418   -1.4615   24.1338 C   0  0  0  0  0  0  0  0  0  0  0  0
   12.6107   -0.6221   22.5615 C   0  0  0  0  0  0  0  0  0  0  0  0
    7.5840   -0.2700   18.5160 C   0  0  0  0  0  0  0  0  0  0  0  0
   11.9099   -0.0232   23.6083 C   0  0  0  0  0  0  0  0  0  0  0  0
    5.7970    0.9500   18.6730 C   0  0  0  0  0  0  0  0  0  0  0  0
    6.1460    0.6070   19.9750 C   0  0  0  0  0  0  0  0  0  0  0  0
    8.3450   -3.3440   25.0980 C   0  0  0  0  0  0  0  0  0  0  0  0
    9.1280   -1.2090   23.4870 C   0  0  0  0  0  0  0  0  0  0  0  0
   13.7767   -1.3413   22.8243 C   0  0  0  0  0  0  0  0  0  0  0  0
    7.2757   -5.5631   25.4492 C   0  0  0  0  0  0  0  0  0  0  0  0
    9.0430    0.2380   21.4940 C   0  0  0  0  0  0  0  0  0  0  0  0
    6.9626   -6.6001   26.5133 C   0  0  0  0  0  0  0  0  0  0  0  0
    6.3764   -5.9422   27.7501 C   0  0  0  0  0  0  0  0  0  0  0  0
    7.2660   -4.8258   28.2881 C   0  0  0  0  0  0  0  0  0  0  0  0
    8.4098   -4.4623   27.3426 C   0  0  0  0  0  0  0  0  0  0  0  0
   10.6542    0.7501   23.3264 C   0  0  0  0  0  0  0  0  0  0  0  0
    8.0950   -0.7700   20.8440 C   0  0  0  0  0  0  0  0  0  0  0  0
    6.7100    0.3850   17.8100 N   0  0  0  0  0  0  0  0  0  0  0  0
    7.2710   -0.1460   19.8310 N   0  0  0  0  0  0  0  0  0  0  0  0
    7.9658   -4.4384   25.9449 N   0  0  0  0  0  0  0  0  0  0  0  0
    9.5820   -0.1080   22.7000 N   0  0  0  0  0  0  0  0  0  0  0  0
    6.9858   -5.7908   24.2753 O   0  0  0  0  0  0  0  0  0  0  0  0
    9.2950    1.3000   20.9480 O   0  0  0  0  0  0  0  0  0  0  0  0
   14.6412   -2.0814   21.5333 Cl  0  0  0  0  0  0  0  0  0  0  0  0
    2.9844    2.6932   19.3613 H   0  0  0  0  0  0  0  0  0  0  0  0
    3.6232    2.0695   21.6567 H   0  0  0  0  0  0  0  0  0  0  0  0
   13.9027   -0.9560   26.2005 H   0  0  0  0  0  0  0  0  0  0  0  0
   11.8353    0.3199   25.7397 H   0  0  0  0  0  0  0  0  0  0  0  0
    4.3779    2.0108   17.4276 H   0  0  0  0  0  0  0  0  0  0  0  0
    5.6762    0.7334   22.0897 H   0  0  0  0  0  0  0  0  0  0  0  0
    9.5436   -4.5614   23.7799 H   0  0  0  0  0  0  0  0  0  0  0  0
    7.1918   -1.8823   26.1906 H   0  0  0  0  0  0  0  0  0  0  0  0
   10.2676   -2.6754   22.3861 H   0  0  0  0  0  0  0  0  0  0  0  0
    7.8686   -0.0026   24.7598 H   0  0  0  0  0  0  0  0  0  0  0  0
   15.1489   -2.0192   24.3534 H   0  0  0  0  0  0  0  0  0  0  0  0
   12.2442   -0.5251   21.5422 H   0  0  0  0  0  0  0  0  0  0  0  0
    8.4216   -0.8246   18.1565 H   0  0  0  0  0  0  0  0  0  0  0  0
    6.2500   -7.3027   26.1097 H   0  0  0  0  0  0  0  0  0  0  0  0
    7.8838   -7.1078   26.7574 H   0  0  0  0  0  0  0  0  0  0  0  0
    5.3690   -5.5363   27.5214 H   0  0  0  0  0  0  0  0  0  0  0  0
    6.2178   -6.7054   28.5384 H   0  0  0  0  0  0  0  0  0  0  0  0
    6.6498   -3.9225   28.4807 H   0  0  0  0  0  0  0  0  0  0  0  0
    7.6764   -5.1138   29.2803 H   0  0  0  0  0  0  0  0  0  0  0  0
    8.7796   -3.4700   27.5826 H   0  0  0  0  0  0  0  0  0  0  0  0
    9.2112   -5.1853   27.4497 H   0  0  0  0  0  0  0  0  0  0  0  0
   10.2315    1.1514   24.2540 H   0  0  0  0  0  0  0  0  0  0  0  0
   10.8560    1.6003   22.6664 H   0  0  0  0  0  0  0  0  0  0  0  0
    8.6688   -1.5655   20.3666 H   0  0  0  0  0  0  0  0  0  0  0  0
    7.4298   -1.1908   21.5994 H   0  0  0  0  0  0  0  0  0  0  0  0
  1  2  1  0  0  0  0
  1  5  2  0  0  0  0
  2  6  2  0  0  0  0
  3  4  2  0  0  0  0
  3 11  1  0  0  0  0
  4 14  1  0  0  0  0
  5 15  1  0  0  0  0
  6 16  1  0  0  0  0
  7  9  2  0  0  0  0
  7 17  1  0  0  0  0
  8 10  1  0  0  0  0
  8 17  2  0  0  0  0
  9 18  1  0  0  0  0
 10 18  2  0  0  0  0
 11 19  2  0  0  0  0
 12 14  2  0  0  0  0
 12 19  1  0  0  0  0
 13 28  2  0  0  0  0
 13 29  1  0  0  0  0
 14 26  1  0  0  0  0
 15 16  2  0  0  0  0
 15 28  1  0  0  0  0
 16 29  1  0  0  0  0
 17 30  1  0  0  0  0
 18 31  1  0  0  0  0
 19 34  1  0  0  0  0
 20 22  1  0  0  0  0
 20 30  1  0  0  0  0
 20 32  2  0  0  0  0
 21 27  1  0  0  0  0
 21 31  1  0  0  0  0
 21 33  2  0  0  0  0
 22 23  1  0  0  0  0
 23 24  1  0  0  0  0
 24 25  1  0  0  0  0
 25 30  1  0  0  0  0
 26 31  1  0  0  0  0
 27 29  1  0  0  0  0
  1 35  1  0  0  0  0
  2 36  1  0  0  0  0
  3 37  1  0  0  0  0
  4 38  1  0  0  0  0
  5 39  1  0  0  0  0
  6 40  1  0  0  0  0
  7 41  1  0  0  0  0
  8 42  1  0  0  0  0
  9 43  1  0  0  0  0
 10 44  1  0  0  0  0
 11 45  1  0  0  0  0
 12 46  1  0  0  0  0
 13 47  1  0  0  0  0
 22 48  1  0  0  0  0
 22 49  1  0  0  0  0
 23 50  1  0  0  0  0
 23 51  1  0  0  0  0
 24 52  1  0  0  0  0
 24 53  1  0  0  0  0
 25 54  1  0  0  0  0
 25 55  1  0  0  0  0
 26 56  1  0  0  0  0
 26 57  1  0  0  0  0
 27 58  1  0  0  0  0
 27 59  1  0  0  0  0
M  END
> <clash_score>
0

> <docking_score>
-8.383252143859863

> <overlap_score>
0.9892028570175171

$$$$
BENZO_389_1
  -OEChem-08232013553D

 58 62  0     0  0  0  0  0  0999 V2000
   14.2335   -1.4764   24.1298 C   0  0  0  0  0  0  0  0  0  0  0  0
   13.8907   -0.3922   24.9376 C   0  0  0  0  0  0  0  0  0  0  0  0
   13.4129   -1.8367   23.0609 C   0  0  0  0  0  0  0  0  0  0  0  0
    3.8860    2.1050   19.5250 C   0  0  0  0  0  0  0  0  0  0  0  0
    4.2460    1.7520   20.8250 C   0  0  0  0  0  0  0  0  0  0  0  0
   12.7274    0.3317   24.6767 C   0  0  0  0  0  0  0  0  0  0  0  0
   12.2495   -1.1128   22.7999 C   0  0  0  0  0  0  0  0  0  0  0  0
    4.6610    1.7170   18.4380 C   0  0  0  0  0  0  0  0  0  0  0  0
    5.3890    1.0010   21.0690 C   0  0  0  0  0  0  0  0  0  0  0  0
    9.1890   -3.5540   24.0140 C   0  0  0  0  0  0  0  0  0  0  0  0
    7.8700   -2.0610   25.3550 C   0  0  0  0  0  0  0  0  0  0  0  0
    9.5890   -2.4950   23.2210 C   0  0  0  0  0  0  0  0  0  0  0  0
    8.2550   -1.0010   24.5520 C   0  0  0  0  0  0  0  0  0  0  0  0
    7.5840   -0.2700   18.5160 C   0  0  0  0  0  0  0  0  0  0  0  0
   11.9067   -0.0285   23.6078 C   0  0  0  0  0  0  0  0  0  0  0  0
    5.7970    0.9500   18.6730 C   0  0  0  0  0  0  0  0  0  0  0  0
    6.1460    0.6070   19.9750 C   0  0  0  0  0  0  0  0  0  0  0  0
    8.3450   -3.3440   25.0980 C   0  0  0  0  0  0  0  0  0  0  0  0
    9.1280   -1.2090   23.4870 C   0  0  0  0  0  0  0  0  0  0  0  0
    9.0430    0.2380   21.4940 C   0  0  0  0  0  0  0  0  0  0  0  0
    8.9524   -5.2012   26.6600 C   0  0  0  0  0  0  0  0  0  0  0  0
    6.6112   -4.5068   26.4379 C   0  0  0  0  0  0  0  0  0  0  0  0
    8.9037   -4.7845   28.1261 C   0  0  0  0  0  0  0  0  0  0  0  0
    6.6374   -4.1243   27.9184 C   0  0  0  0  0  0  0  0  0  0  0  0
   10.6542    0.7501   23.3264 C   0  0  0  0  0  0  0  0  0  0  0  0
    8.0950   -0.7700   20.8440 C   0  0  0  0  0  0  0  0  0  0  0  0
    6.7100    0.3850   17.8100 N   0  0  0  0  0  0  0  0  0  0  0  0
    7.2710   -0.1460   19.8310 N   0  0  0  0  0  0  0  0  0  0  0  0
    7.9775   -4.4014   25.9151 N   0  0  0  0  0  0  0  0  0  0  0  0
    9.5820   -0.1080   22.7000 N   0  0  0  0  0  0  0  0  0  0  0  0
    9.2950    1.3000   20.9480 O   0  0  0  0  0  0  0  0  0  0  0  0
    7.5729   -4.9391   28.6338 O   0  0  0  0  0  0  0  0  0  0  0  0
   15.1401   -2.0391   24.3324 H   0  0  0  0  0  0  0  0  0  0  0  0
   14.5301   -0.1108   25.7693 H   0  0  0  0  0  0  0  0  0  0  0  0
   13.6800   -2.6801   22.4311 H   0  0  0  0  0  0  0  0  0  0  0  0
    2.9844    2.6932   19.3613 H   0  0  0  0  0  0  0  0  0  0  0  0
    3.6232    2.0695   21.6567 H   0  0  0  0  0  0  0  0  0  0  0  0
   12.4681    1.1749   25.3115 H   0  0  0  0  0  0  0  0  0  0  0  0
   11.6161   -1.4008   21.9650 H   0  0  0  0  0  0  0  0  0  0  0  0
    4.3779    2.0108   17.4276 H   0  0  0  0  0  0  0  0  0  0  0  0
    5.6762    0.7334   22.0897 H   0  0  0  0  0  0  0  0  0  0  0  0
    9.5426   -4.5618   23.7797 H   0  0  0  0  0  0  0  0  0  0  0  0
    7.1914   -1.8824   26.1903 H   0  0  0  0  0  0  0  0  0  0  0  0
   10.2669   -2.6745   22.3854 H   0  0  0  0  0  0  0  0  0  0  0  0
    7.8690   -0.0020   24.7587 H   0  0  0  0  0  0  0  0  0  0  0  0
    8.4216   -0.8246   18.1565 H   0  0  0  0  0  0  0  0  0  0  0  0
    9.9615   -5.0500   26.2711 H   0  0  0  0  0  0  0  0  0  0  0  0
    8.6935   -6.2597   26.5720 H   0  0  0  0  0  0  0  0  0  0  0  0
    6.2628   -5.5350   26.3330 H   0  0  0  0  0  0  0  0  0  0  0  0
    5.9347   -3.8423   25.9023 H   0  0  0  0  0  0  0  0  0  0  0  0
    9.5597   -5.4275   28.7166 H   0  0  0  0  0  0  0  0  0  0  0  0
    9.2344   -3.7511   28.2636 H   0  0  0  0  0  0  0  0  0  0  0  0
    6.8874   -3.0657   28.0553 H   0  0  0  0  0  0  0  0  0  0  0  0
    5.6495   -4.2893   28.3591 H   0  0  0  0  0  0  0  0  0  0  0  0
   10.2330    1.1522   24.2543 H   0  0  0  0  0  0  0  0  0  0  0  0
   10.8596    1.6000   22.6673 H   0  0  0  0  0  0  0  0  0  0  0  0
    8.6688   -1.5655   20.3666 H   0  0  0  0  0  0  0  0  0  0  0  0
    7.4298   -1.1908   21.5994 H   0  0  0  0  0  0  0  0  0  0  0  0
  1  2  1  0  0  0  0
  1  3  2  0  0  0  0
  2  6  2  0  0  0  0
  3  7  1  0  0  0  0
  4  5  1  0  0  0  0
  4  8  2  0  0  0  0
  5  9  2  0  0  0  0
  6 15  1  0  0  0  0
  7 15  2  0  0  0  0
  8 16  1  0  0  0  0
  9 17  1  0  0  0  0
 10 12  2  0  0  0  0
 10 18  1  0  0  0  0
 11 13  1  0  0  0  0
 11 18  2  0  0  0  0
 12 19  1  0  0  0  0
 13 19  2  0  0  0  0
 14 27  2  0  0  0  0
 14 28  1  0  0  0  0
 15 25  1  0  0  0  0
 16 17  2  0  0  0  0
 16 27  1  0  0  0  0
 17 28  1  0  0  0  0
 18 29  1  0  0  0  0
 19 30  1  0  0  0  0
 20 26  1  0  0  0  0
 20 30  1  0  0  0  0
 20 31  2  0  0  0  0
 21 23  1  0  0  0  0
 21 29  1  0  0  0  0
 22 24  1  0  0  0  0
 22 29  1  0  0  0  0
 23 32  1  0  0  0  0
 24 32  1  0  0  0  0
 25 30  1  0  0  0  0
 26 28  1  0  0  0  0
  1 33  1  0  0  0  0
  2 34  1  0  0  0  0
  3 35  1  0  0  0  0
  4 36  1  0  0  0  0
  5 37  1  0  0  0  0
  6 38  1  0  0  0  0
  7 39  1  0  0  0  0
  8 40  1  0  0  0  0
  9 41  1  0  0  0  0
 10 42  1  0  0  0  0
 11 43  1  0  0  0  0
 12 44  1  0  0  0  0
 13 45  1  0  0  0  0
 14 46  1  0  0  0  0
 21 47  1  0  0  0  0
 21 48  1  0  0  0  0
 22 49  1  0  0  0  0
 22 50  1  0  0  0  0
 23 51  1  0  0  0  0
 23 52  1  0  0  0  0
 24 53  1  0  0  0  0
 24 54  1  0  0  0  0
 25 55  1  0  0  0  0
 25 56  1  0  0  0  0
 26 57  1  0  0  0  0
 26 58  1  0  0  0  0
M  END
> <clash_score>
0

> <docking_score>
-10.146219253540039

> <overlap_score>
0.9823015332221985

$$$$
BENZO_388_1
  -OEChem-08232013553D

 55 59  0     0  0  0  0  0  0999 V2000
    3.8860    2.1050   19.5250 C   0  0  0  0  0  0  0  0  0  0  0  0
    4.2460    1.7520   20.8250 C   0  0  0  0  0  0  0  0  0  0  0  0
    4.6610    1.7170   18.4380 C   0  0  0  0  0  0  0  0  0  0  0  0
    5.3890    1.0010   21.0690 C   0  0  0  0  0  0  0  0  0  0  0  0
    9.1890   -3.5540   24.0140 C   0  0  0  0  0  0  0  0  0  0  0  0
    7.8700   -2.0610   25.3550 C   0  0  0  0  0  0  0  0  0  0  0  0
    9.5890   -2.4950   23.2210 C   0  0  0  0  0  0  0  0  0  0  0  0
    8.2550   -1.0010   24.5520 C   0  0  0  0  0  0  0  0  0  0  0  0
   12.4552   -0.2076   24.9106 C   0  0  0  0  0  0  0  0  0  0  0  0
   13.6076   -0.9618   24.8876 C   0  0  0  0  0  0  0  0  0  0  0  0
   12.6611   -0.6527   22.6386 C   0  0  0  0  0  0  0  0  0  0  0  0
    7.5840   -0.2700   18.5160 C   0  0  0  0  0  0  0  0  0  0  0  0
   11.9067   -0.0285   23.6078 C   0  0  0  0  0  0  0  0  0  0  0  0
    5.7970    0.9500   18.6730 C   0  0  0  0  0  0  0  0  0  0  0  0
    6.1460    0.6070   19.9750 C   0  0  0  0  0  0  0  0  0  0  0  0
    8.3450   -3.3440   25.0980 C   0  0  0  0  0  0  0  0  0  0  0  0
    9.1280   -1.2090   23.4870 C   0  0  0  0  0  0  0  0  0  0  0  0
    9.0430    0.2380   21.4940 C   0  0  0  0  0  0  0  0  0  0  0  0
    8.9524   -5.2012   26.6600 C   0  0  0  0  0  0  0  0  0  0  0  0
    6.6112   -4.5068   26.4379 C   0  0  0  0  0  0  0  0  0  0  0  0
    8.9037   -4.7845   28.1261 C   0  0  0  0  0  0  0  0  0  0  0  0
    6.6374   -4.1243   27.9184 C   0  0  0  0  0  0  0  0  0  0  0  0
   10.6542    0.7501   23.3264 C   0  0  0  0  0  0  0  0  0  0  0  0
    8.0950   -0.7700   20.8440 C   0  0  0  0  0  0  0  0  0  0  0  0
    6.7100    0.3850   17.8100 N   0  0  0  0  0  0  0  0  0  0  0  0
    7.2710   -0.1460   19.8310 N   0  0  0  0  0  0  0  0  0  0  0  0
    7.9775   -4.4014   25.9151 N   0  0  0  0  0  0  0  0  0  0  0  0
    9.5820   -0.1080   22.7000 N   0  0  0  0  0  0  0  0  0  0  0  0
    9.2950    1.3000   20.9480 O   0  0  0  0  0  0  0  0  0  0  0  0
    7.5729   -4.9391   28.6338 O   0  0  0  0  0  0  0  0  0  0  0  0
   14.0242   -1.4505   23.3002 S   0  0  0  0  0  0  0  0  0  0  0  0
    2.9844    2.6932   19.3613 H   0  0  0  0  0  0  0  0  0  0  0  0
    3.6232    2.0695   21.6567 H   0  0  0  0  0  0  0  0  0  0  0  0
    4.3779    2.0108   17.4276 H   0  0  0  0  0  0  0  0  0  0  0  0
    5.6762    0.7334   22.0897 H   0  0  0  0  0  0  0  0  0  0  0  0
    9.5426   -4.5618   23.7797 H   0  0  0  0  0  0  0  0  0  0  0  0
    7.1914   -1.8824   26.1903 H   0  0  0  0  0  0  0  0  0  0  0  0
   10.2669   -2.6745   22.3854 H   0  0  0  0  0  0  0  0  0  0  0  0
    7.8690   -0.0020   24.7587 H   0  0  0  0  0  0  0  0  0  0  0  0
   12.0295    0.1950   25.8210 H   0  0  0  0  0  0  0  0  0  0  0  0
   14.2253   -1.2487   25.7269 H   0  0  0  0  0  0  0  0  0  0  0  0
   12.4813   -0.6797   21.5728 H   0  0  0  0  0  0  0  0  0  0  0  0
    8.4216   -0.8246   18.1565 H   0  0  0  0  0  0  0  0  0  0  0  0
    9.9615   -5.0500   26.2711 H   0  0  0  0  0  0  0  0  0  0  0  0
    8.6935   -6.2597   26.5720 H   0  0  0  0  0  0  0  0  0  0  0  0
    6.2628   -5.5350   26.3330 H   0  0  0  0  0  0  0  0  0  0  0  0
    5.9347   -3.8423   25.9023 H   0  0  0  0  0  0  0  0  0  0  0  0
    9.5597   -5.4275   28.7166 H   0  0  0  0  0  0  0  0  0  0  0  0
    9.2344   -3.7511   28.2636 H   0  0  0  0  0  0  0  0  0  0  0  0
    6.8874   -3.0657   28.0553 H   0  0  0  0  0  0  0  0  0  0  0  0
    5.6495   -4.2893   28.3591 H   0  0  0  0  0  0  0  0  0  0  0  0
   10.2330    1.1522   24.2543 H   0  0  0  0  0  0  0  0  0  0  0  0
   10.8596    1.6000   22.6673 H   0  0  0  0  0  0  0  0  0  0  0  0
    8.6688   -1.5655   20.3666 H   0  0  0  0  0  0  0  0  0  0  0  0
    7.4298   -1.1908   21.5994 H   0  0  0  0  0  0  0  0  0  0  0  0
  1  2  1  0  0  0  0
  1  3  2  0  0  0  0
  2  4  2  0  0  0  0
  3 14  1  0  0  0  0
  4 15  1  0  0  0  0
  5  7  2  0  0  0  0
  5 16  1  0  0  0  0
  6  8  1  0  0  0  0
  6 16  2  0  0  0  0
  7 17  1  0  0  0  0
  8 17  2  0  0  0  0
  9 10  2  0  0  0  0
  9 13  1  0  0  0  0
 10 31  1  0  0  0  0
 11 13  2  0  0  0  0
 11 31  1  0  0  0  0
 12 25  2  0  0  0  0
 12 26  1  0  0  0  0
 13 23  1  0  0  0  0
 14 15  2  0  0  0  0
 14 25  1  0  0  0  0
 15 26  1  0  0  0  0
 16 27  1  0  0  0  0
 17 28  1  0  0  0  0
 18 24  1  0  0  0  0
 18 28  1  0  0  0  0
 18 29  2  0  0  0  0
 19 21  1  0  0  0  0
 19 27  1  0  0  0  0
 20 22  1  0  0  0  0
 20 27  1  0  0  0  0
 21 30  1  0  0  0  0
 22 30  1  0  0  0  0
 23 28  1  0  0  0  0
 24 26  1  0  0  0  0
  1 32  1  0  0  0  0
  2 33  1  0  0  0  0
  3 34  1  0  0  0  0
  4 35  1  0  0  0  0
  5 36  1  0  0  0  0
  6 37  1  0  0  0  0
  7 38  1  0  0  0  0
  8 39  1  0  0  0  0
  9 40  1  0  0  0  0
 10 41  1  0  0  0  0
 11 42  1  0  0  0  0
 12 43  1  0  0  0  0
 19 44  1  0  0  0  0
 19 45  1  0  0  0  0
 20 46  1  0  0  0  0
 20 47  1  0  0  0  0
 21 48  1  0  0  0  0
 21 49  1  0  0  0  0
 22 50  1  0  0  0  0
 22 51  1  0  0  0  0
 23 52  1  0  0  0  0
 23 53  1  0  0  0  0
 24 54  1  0  0  0  0
 24 55  1  0  0  0  0
M  END
> <clash_score>
0

> <docking_score>
-10.06989860534668

> <overlap_score>
0.9676774144172668

$$$$
BENZO_390_1
  -OEChem-08232013553D

 58 62  0     0  0  0  0  0  0999 V2000
    3.8860    2.1050   19.5250 C   0  0  0  0  0  0  0  0  0  0  0  0
    4.2460    1.7520   20.8250 C   0  0  0  0  0  0  0  0  0  0  0  0
   13.5341   -0.8760   25.1795 C   0  0  0  0  0  0  0  0  0  0  0  0
   12.3712   -0.1519   24.9173 C   0  0  0  0  0  0  0  0  0  0  0  0
    4.6610    1.7170   18.4380 C   0  0  0  0  0  0  0  0  0  0  0  0
    5.3890    1.0010   21.0690 C   0  0  0  0  0  0  0  0  0  0  0  0
    9.1890   -3.5540   24.0140 C   0  0  0  0  0  0  0  0  0  0  0  0
    7.8700   -2.0610   25.3550 C   0  0  0  0  0  0  0  0  0  0  0  0
    9.5890   -2.4950   23.2210 C   0  0  0  0  0  0  0  0  0  0  0  0
    8.2550   -1.0010   24.5520 C   0  0  0  0  0  0  0  0  0  0  0  0
   14.2327   -1.4768   24.1322 C   0  0  0  0  0  0  0  0  0  0  0  0
   12.6052   -0.6294   22.5605 C   0  0  0  0  0  0  0  0  0  0  0  0
    7.5840   -0.2700   18.5160 C   0  0  0  0  0  0  0  0  0  0  0  0
   11.9067   -0.0285   23.6078 C   0  0  0  0  0  0  0  0  0  0  0  0
    5.7970    0.9500   18.6730 C   0  0  0  0  0  0  0  0  0  0  0  0
    6.1460    0.6070   19.9750 C   0  0  0  0  0  0  0  0  0  0  0  0
    8.3450   -3.3440   25.0980 C   0  0  0  0  0  0  0  0  0  0  0  0
    9.1280   -1.2090   23.4870 C   0  0  0  0  0  0  0  0  0  0  0  0
   13.7682   -1.3535   22.8227 C   0  0  0  0  0  0  0  0  0  0  0  0
    9.0430    0.2380   21.4940 C   0  0  0  0  0  0  0  0  0  0  0  0
    8.9524   -5.2012   26.6600 C   0  0  0  0  0  0  0  0  0  0  0  0
    6.6112   -4.5068   26.4379 C   0  0  0  0  0  0  0  0  0  0  0  0
    8.9037   -4.7845   28.1261 C   0  0  0  0  0  0  0  0  0  0  0  0
    6.6374   -4.1243   27.9184 C   0  0  0  0  0  0  0  0  0  0  0  0
   10.6542    0.7501   23.3264 C   0  0  0  0  0  0  0  0  0  0  0  0
    8.0950   -0.7700   20.8440 C   0  0  0  0  0  0  0  0  0  0  0  0
    6.7100    0.3850   17.8100 N   0  0  0  0  0  0  0  0  0  0  0  0
    7.2710   -0.1460   19.8310 N   0  0  0  0  0  0  0  0  0  0  0  0
    7.9775   -4.4014   25.9151 N   0  0  0  0  0  0  0  0  0  0  0  0
    9.5820   -0.1080   22.7000 N   0  0  0  0  0  0  0  0  0  0  0  0
    9.2950    1.3000   20.9480 O   0  0  0  0  0  0  0  0  0  0  0  0
    7.5729   -4.9391   28.6338 O   0  0  0  0  0  0  0  0  0  0  0  0
   14.6298   -2.0960   21.5312 Cl  0  0  0  0  0  0  0  0  0  0  0  0
    2.9844    2.6932   19.3613 H   0  0  0  0  0  0  0  0  0  0  0  0
    3.6232    2.0695   21.6567 H   0  0  0  0  0  0  0  0  0  0  0  0
   13.8953   -0.9719   26.1993 H   0  0  0  0  0  0  0  0  0  0  0  0
   11.8332    0.3129   25.7394 H   0  0  0  0  0  0  0  0  0  0  0  0
    4.3779    2.0108   17.4276 H   0  0  0  0  0  0  0  0  0  0  0  0
    5.6762    0.7334   22.0897 H   0  0  0  0  0  0  0  0  0  0  0  0
    9.5426   -4.5618   23.7797 H   0  0  0  0  0  0  0  0  0  0  0  0
    7.1914   -1.8824   26.1903 H   0  0  0  0  0  0  0  0  0  0  0  0
   10.2669   -2.6745   22.3854 H   0  0  0  0  0  0  0  0  0  0  0  0
    7.8690   -0.0020   24.7587 H   0  0  0  0  0  0  0  0  0  0  0  0
   15.1374   -2.0385   24.3514 H   0  0  0  0  0  0  0  0  0  0  0  0
   12.2393   -0.5299   21.5412 H   0  0  0  0  0  0  0  0  0  0  0  0
    8.4216   -0.8246   18.1565 H   0  0  0  0  0  0  0  0  0  0  0  0
    9.9615   -5.0500   26.2711 H   0  0  0  0  0  0  0  0  0  0  0  0
    8.6935   -6.2597   26.5720 H   0  0  0  0  0  0  0  0  0  0  0  0
    6.2628   -5.5350   26.3330 H   0  0  0  0  0  0  0  0  0  0  0  0
    5.9347   -3.8423   25.9023 H   0  0  0  0  0  0  0  0  0  0  0  0
    9.5597   -5.4275   28.7166 H   0  0  0  0  0  0  0  0  0  0  0  0
    9.2344   -3.7511   28.2636 H   0  0  0  0  0  0  0  0  0  0  0  0
    6.8874   -3.0657   28.0553 H   0  0  0  0  0  0  0  0  0  0  0  0
    5.6495   -4.2893   28.3591 H   0  0  0  0  0  0  0  0  0  0  0  0
   10.2330    1.1522   24.2543 H   0  0  0  0  0  0  0  0  0  0  0  0
   10.8596    1.6000   22.6673 H   0  0  0  0  0  0  0  0  0  0  0  0
    8.6688   -1.5655   20.3666 H   0  0  0  0  0  0  0  0  0  0  0  0
    7.4298   -1.1908   21.5994 H   0  0  0  0  0  0  0  0  0  0  0  0
  1  2  1  0  0  0  0
  1  5  2  0  0  0  0
  2  6  2  0  0  0  0
  3  4  2  0  0  0  0
  3 11  1  0  0  0  0
  4 14  1  0  0  0  0
  5 15  1  0  0  0  0
  6 16  1  0  0  0  0
  7  9  2  0  0  0  0
  7 17  1  0  0  0  0
  8 10  1  0  0  0  0
  8 17  2  0  0  0  0
  9 18  1  0  0  0  0
 10 18  2  0  0  0  0
 11 19  2  0  0  0  0
 12 14  2  0  0  0  0
 12 19  1  0  0  0  0
 13 27  2  0  0  0  0
 13 28  1  0  0  0  0
 14 25  1  0  0  0  0
 15 16  2  0  0  0  0
 15 27  1  0  0  0  0
 16 28  1  0  0  0  0
 17 29  1  0  0  0  0
 18 30  1  0  0  0  0
 19 33  1  0  0  0  0
 20 26  1  0  0  0  0
 20 30  1  0  0  0  0
 20 31  2  0  0  0  0
 21 23  1  0  0  0  0
 21 29  1  0  0  0  0
 22 24  1  0  0  0  0
 22 29  1  0  0  0  0
 23 32  1  0  0  0  0
 24 32  1  0  0  0  0
 25 30  1  0  0  0  0
 26 28  1  0  0  0  0
  1 34  1  0  0  0  0
  2 35  1  0  0  0  0
  3 36  1  0  0  0  0
  4 37  1  0  0  0  0
  5 38  1  0  0  0  0
  6 39  1  0  0  0  0
  7 40  1  0  0  0  0
  8 41  1  0  0  0  0
  9 42  1  0  0  0  0
 10 43  1  0  0  0  0
 11 44  1  0  0  0  0
 12 45  1  0  0  0  0
 13 46  1  0  0  0  0
 21 47  1  0  0  0  0
 21 48  1  0  0  0  0
 22 49  1  0  0  0  0
 22 50  1  0  0  0  0
 23 51  1  0  0  0  0
 23 52  1  0  0  0  0
 24 53  1  0  0  0  0
 24 54  1  0  0  0  0
 25 55  1  0  0  0  0
 25 56  1  0  0  0  0
 26 57  1  0  0  0  0
 26 58  1  0  0  0  0
M  END
> <clash_score>
0

> <docking_score>
-9.453913688659668

> <overlap_score>
0.9926254749298096

$$$$
BENZO_391_1
  -OEChem-08232013553D

 58 62  0     0  0  0  0  0  0999 V2000
    3.8860    2.1050   19.5250 C   0  0  0  0  0  0  0  0  0  0  0  0
    4.2460    1.7520   20.8250 C   0  0  0  0  0  0  0  0  0  0  0  0
    4.6610    1.7170   18.4380 C   0  0  0  0  0  0  0  0  0  0  0  0
    5.3890    1.0010   21.0690 C   0  0  0  0  0  0  0  0  0  0  0  0
    9.1890   -3.5540   24.0140 C   0  0  0  0  0  0  0  0  0  0  0  0
    7.8700   -2.0610   25.3550 C   0  0  0  0  0  0  0  0  0  0  0  0
    9.5890   -2.4950   23.2210 C   0  0  0  0  0  0  0  0  0  0  0  0
    8.2550   -1.0010   24.5520 C   0  0  0  0  0  0  0  0  0  0  0  0
   13.1955    0.4796   23.8729 C   0  0  0  0  0  0  0  0  0  0  0  0
   12.4036   -0.8560   22.3159 C   0  0  0  0  0  0  0  0  0  0  0  0
    7.5840   -0.2700   18.5160 C   0  0  0  0  0  0  0  0  0  0  0  0
   12.0205    0.1472   23.1722 C   0  0  0  0  0  0  0  0  0  0  0  0
    5.7970    0.9500   18.6730 C   0  0  0  0  0  0  0  0  0  0  0  0
    6.1460    0.6070   19.9750 C   0  0  0  0  0  0  0  0  0  0  0  0
    8.3450   -3.3440   25.0980 C   0  0  0  0  0  0  0  0  0  0  0  0
    9.1280   -1.2090   23.4870 C   0  0  0  0  0  0  0  0  0  0  0  0
    9.0430    0.2380   21.4940 C   0  0  0  0  0  0  0  0  0  0  0  0
    8.9524   -5.2012   26.6600 C   0  0  0  0  0  0  0  0  0  0  0  0
    6.6112   -4.5068   26.4379 C   0  0  0  0  0  0  0  0  0  0  0  0
    8.9037   -4.7845   28.1261 C   0  0  0  0  0  0  0  0  0  0  0  0
    6.6374   -4.1243   27.9184 C   0  0  0  0  0  0  0  0  0  0  0  0
   14.5824   -2.0155   21.8831 C   0  0  0  0  0  0  0  0  0  0  0  0
   10.6542    0.7501   23.3264 C   0  0  0  0  0  0  0  0  0  0  0  0
    8.0950   -0.7700   20.8440 C   0  0  0  0  0  0  0  0  0  0  0  0
   14.2462   -0.2532   23.4946 N   0  0  0  0  0  0  0  0  0  0  0  0
    6.7100    0.3850   17.8100 N   0  0  0  0  0  0  0  0  0  0  0  0
   13.7328   -1.0560   22.5470 N   0  0  0  0  0  0  0  0  0  0  0  0
    7.2710   -0.1460   19.8310 N   0  0  0  0  0  0  0  0  0  0  0  0
    7.9775   -4.4014   25.9151 N   0  0  0  0  0  0  0  0  0  0  0  0
    9.5820   -0.1080   22.7000 N   0  0  0  0  0  0  0  0  0  0  0  0
    9.2950    1.3000   20.9480 O   0  0  0  0  0  0  0  0  0  0  0  0
    7.5729   -4.9391   28.6338 O   0  0  0  0  0  0  0  0  0  0  0  0
    2.9844    2.6932   19.3613 H   0  0  0  0  0  0  0  0  0  0  0  0
    3.6232    2.0695   21.6567 H   0  0  0  0  0  0  0  0  0  0  0  0
    4.3779    2.0108   17.4276 H   0  0  0  0  0  0  0  0  0  0  0  0
    5.6762    0.7334   22.0897 H   0  0  0  0  0  0  0  0  0  0  0  0
    9.5426   -4.5618   23.7797 H   0  0  0  0  0  0  0  0  0  0  0  0
    7.1914   -1.8824   26.1903 H   0  0  0  0  0  0  0  0  0  0  0  0
   10.2669   -2.6745   22.3854 H   0  0  0  0  0  0  0  0  0  0  0  0
    7.8690   -0.0020   24.7587 H   0  0  0  0  0  0  0  0  0  0  0  0
   13.3321    1.2241   24.6444 H   0  0  0  0  0  0  0  0  0  0  0  0
   11.8569   -1.4313   21.5811 H   0  0  0  0  0  0  0  0  0  0  0  0
    8.4216   -0.8246   18.1565 H   0  0  0  0  0  0  0  0  0  0  0  0
    9.9615   -5.0500   26.2711 H   0  0  0  0  0  0  0  0  0  0  0  0
    8.6935   -6.2597   26.5720 H   0  0  0  0  0  0  0  0  0  0  0  0
    6.2628   -5.5350   26.3330 H   0  0  0  0  0  0  0  0  0  0  0  0
    5.9347   -3.8423   25.9023 H   0  0  0  0  0  0  0  0  0  0  0  0
    9.5597   -5.4275   28.7166 H   0  0  0  0  0  0  0  0  0  0  0  0
    9.2344   -3.7511   28.2636 H   0  0  0  0  0  0  0  0  0  0  0  0
    6.8874   -3.0657   28.0553 H   0  0  0  0  0  0  0  0  0  0  0  0
    5.6495   -4.2893   28.3591 H   0  0  0  0  0  0  0  0  0  0  0  0
   15.0135   -1.5318   21.0026 H   0  0  0  0  0  0  0  0  0  0  0  0
   15.3722   -2.3375   22.5676 H   0  0  0  0  0  0  0  0  0  0  0  0
   13.9863   -2.8842   21.5901 H   0  0  0  0  0  0  0  0  0  0  0  0
   10.3952    0.8536   24.3858 H   0  0  0  0  0  0  0  0  0  0  0  0
   10.6136    1.7503   22.8825 H   0  0  0  0  0  0  0  0  0  0  0  0
    8.6688   -1.5655   20.3666 H   0  0  0  0  0  0  0  0  0  0  0  0
    7.4298   -1.1908   21.5994 H   0  0  0  0  0  0  0  0  0  0  0  0
  1  2  1  0  0  0  0
  1  3  2  0  0  0  0
  2  4  2  0  0  0  0
  3 13  1  0  0  0  0
  4 14  1  0  0  0  0
  5  7  2  0  0  0  0
  5 15  1  0  0  0  0
  6  8  1  0  0  0  0
  6 15  2  0  0  0  0
  7 16  1  0  0  0  0
  8 16  2  0  0  0  0
  9 12  1  0  0  0  0
  9 25  2  0  0  0  0
 10 12  2  0  0  0  0
 10 27  1  0  0  0  0
 11 26  2  0  0  0  0
 11 28  1  0  0  0  0
 12 23  1  0  0  0  0
 13 14  2  0  0  0  0
 13 26  1  0  0  0  0
 14 28  1  0  0  0  0
 15 29  1  0  0  0  0
 16 30  1  0  0  0  0
 17 24  1  0  0  0  0
 17 30  1  0  0  0  0
 17 31  2  0  0  0  0
 18 20  1  0  0  0  0
 18 29  1  0  0  0  0
 19 21  1  0  0  0  0
 19 29  1  0  0  0  0
 20 32  1  0  0  0  0
 21 32  1  0  0  0  0
 22 27  1  0  0  0  0
 23 30  1  0  0  0  0
 24 28  1  0  0  0  0
 25 27  1  0  0  0  0
  1 33  1  0  0  0  0
  2 34  1  0  0  0  0
  3 35  1  0  0  0  0
  4 36  1  0  0  0  0
  5 37  1  0  0  0  0
  6 38  1  0  0  0  0
  7 39  1  0  0  0  0
  8 40  1  0  0  0  0
  9 41  1  0  0  0  0
 10 42  1  0  0  0  0
 11 43  1  0  0  0  0
 18 44  1  0  0  0  0
 18 45  1  0  0  0  0
 19 46  1  0  0  0  0
 19 47  1  0  0  0  0
 20 48  1  0  0  0  0
 20 49  1  0  0  0  0
 21 50  1  0  0  0  0
 21 51  1  0  0  0  0
 22 52  1  0  0  0  0
 22 53  1  0  0  0  0
 22 54  1  0  0  0  0
 23 55  1  0  0  0  0
 23 56  1  0  0  0  0
 24 57  1  0  0  0  0
 24 58  1  0  0  0  0
M  END
> <clash_score>
0

> <docking_score>
-10.458581924438477

> <overlap_score>
0.9802502393722534

$$$$
BENZO_393_1
  -OEChem-08232013553D

 53 56  0     0  0  0  0  0  0999 V2000
   14.2591   -1.7044   23.7531 C   0  0  0  0  0  0  0  0  0  0  0  0
    4.2460    1.7520   20.8250 C   0  0  0  0  0  0  0  0  0  0  0  0
   14.0215   -0.6360   24.6177 C   0  0  0  0  0  0  0  0  0  0  0  0
   13.3508   -1.9926   22.7345 C   0  0  0  0  0  0  0  0  0  0  0  0
    3.8860    2.1050   19.5250 C   0  0  0  0  0  0  0  0  0  0  0  0
    5.3890    1.0010   21.0690 C   0  0  0  0  0  0  0  0  0  0  0  0
   12.8755    0.1441   24.4639 C   0  0  0  0  0  0  0  0  0  0  0  0
   12.2047   -1.2125   22.5806 C   0  0  0  0  0  0  0  0  0  0  0  0
    4.6610    1.7170   18.4380 C   0  0  0  0  0  0  0  0  0  0  0  0
    9.5890   -2.4950   23.2210 C   0  0  0  0  0  0  0  0  0  0  0  0
    8.2550   -1.0010   24.5520 C   0  0  0  0  0  0  0  0  0  0  0  0
    9.1890   -3.5540   24.0140 C   0  0  0  0  0  0  0  0  0  0  0  0
    7.8700   -2.0610   25.3550 C   0  0  0  0  0  0  0  0  0  0  0  0
    6.1460    0.6070   19.9750 C   0  0  0  0  0  0  0  0  0  0  0  0
   11.9671   -0.1441   23.4453 C   0  0  0  0  0  0  0  0  0  0  0  0
    5.7970    0.9500   18.6730 C   0  0  0  0  0  0  0  0  0  0  0  0
    9.1280   -1.2090   23.4870 C   0  0  0  0  0  0  0  0  0  0  0  0
    8.3450   -3.3440   25.0980 C   0  0  0  0  0  0  0  0  0  0  0  0
    7.2710   -0.1460   19.8310 C   0  0  0  0  0  0  0  0  0  0  0  0
    9.0430    0.2380   21.4940 C   0  0  0  0  0  0  0  0  0  0  0  0
    8.4656   -5.7549   25.6620 C   0  0  0  0  0  0  0  0  0  0  0  0
    7.1039   -4.1993   27.0671 C   0  0  0  0  0  0  0  0  0  0  0  0
   10.7332    0.6950   23.2793 C   0  0  0  0  0  0  0  0  0  0  0  0
    8.0950   -0.7700   20.8440 C   0  0  0  0  0  0  0  0  0  0  0  0
    6.7100    0.3850   17.8100 N   0  0  0  0  0  0  0  0  0  0  0  0
    7.5840   -0.2700   18.5160 N   0  0  0  0  0  0  0  0  0  0  0  0
    9.5820   -0.1080   22.7000 N   0  0  0  0  0  0  0  0  0  0  0  0
    7.9731   -4.4180   25.9279 N   0  0  0  0  0  0  0  0  0  0  0  0
    9.2950    1.3000   20.9480 O   0  0  0  0  0  0  0  0  0  0  0  0
   15.1522   -2.3109   23.8722 H   0  0  0  0  0  0  0  0  0  0  0  0
    3.6316    2.0634   21.6529 H   0  0  0  0  0  0  0  0  0  0  0  0
   14.7292   -0.4107   25.4102 H   0  0  0  0  0  0  0  0  0  0  0  0
   13.5360   -2.8237   22.0604 H   0  0  0  0  0  0  0  0  0  0  0  0
    2.9935    2.6871   19.3570 H   0  0  0  0  0  0  0  0  0  0  0  0
    5.6758    0.7297   22.1281 H   0  0  0  0  0  0  0  0  0  0  0  0
   12.6984    0.9745   25.1424 H   0  0  0  0  0  0  0  0  0  0  0  0
   11.5025   -1.4446   21.7843 H   0  0  0  0  0  0  0  0  0  0  0  0
    4.3688    2.0204   17.3972 H   0  0  0  0  0  0  0  0  0  0  0  0
   10.2682   -2.6746   22.3864 H   0  0  0  0  0  0  0  0  0  0  0  0
    7.8692   -0.0022   24.7600 H   0  0  0  0  0  0  0  0  0  0  0  0
    9.5433   -4.5619   23.7809 H   0  0  0  0  0  0  0  0  0  0  0  0
    7.1923   -1.8829   26.1908 H   0  0  0  0  0  0  0  0  0  0  0  0
    8.0658   -6.4501   26.4149 H   0  0  0  0  0  0  0  0  0  0  0  0
    8.1404   -6.0728   24.6604 H   0  0  0  0  0  0  0  0  0  0  0  0
    9.5646   -5.7567   25.7084 H   0  0  0  0  0  0  0  0  0  0  0  0
    6.9312   -5.1538   27.5858 H   0  0  0  0  0  0  0  0  0  0  0  0
    7.5780   -3.4870   27.7584 H   0  0  0  0  0  0  0  0  0  0  0  0
    6.1428   -3.7906   26.7217 H   0  0  0  0  0  0  0  0  0  0  0  0
   10.4115    1.1036   24.2435 H   0  0  0  0  0  0  0  0  0  0  0  0
   10.9216    1.5434   22.6131 H   0  0  0  0  0  0  0  0  0  0  0  0
    7.4774   -1.2066   21.6419 H   0  0  0  0  0  0  0  0  0  0  0  0
    8.7084   -1.5788   20.4215 H   0  0  0  0  0  0  0  0  0  0  0  0
    8.3291   -0.7564   18.0959 H   0  0  0  0  0  0  0  0  0  0  0  0
  1  3  1  0  0  0  0
  1  4  2  0  0  0  0
  2  5  1  0  0  0  0
  2  6  2  0  0  0  0
  3  7  2  0  0  0  0
  4  8  1  0  0  0  0
  5  9  2  0  0  0  0
  6 14  1  0  0  0  0
  7 15  1  0  0  0  0
  8 15  2  0  0  0  0
  9 16  1  0  0  0  0
 10 12  2  0  0  0  0
 10 17  1  0  0  0  0
 11 13  1  0  0  0  0
 11 17  2  0  0  0  0
 12 18  1  0  0  0  0
 13 18  2  0  0  0  0
 14 16  1  0  0  0  0
 14 19  2  0  0  0  0
 15 23  1  0  0  0  0
 16 25  2  0  0  0  0
 17 27  1  0  0  0  0
 18 28  1  0  0  0  0
 19 24  1  0  0  0  0
 19 26  1  0  0  0  0
 20 24  1  0  0  0  0
 20 27  1  0  0  0  0
 20 29  2  0  0  0  0
 21 28  1  0  0  0  0
 22 28  1  0  0  0  0
 23 27  1  0  0  0  0
 25 26  1  0  0  0  0
  1 30  1  0  0  0  0
  2 31  1  0  0  0  0
  3 32  1  0  0  0  0
  4 33  1  0  0  0  0
  5 34  1  0  0  0  0
  6 35  1  0  0  0  0
  7 36  1  0  0  0  0
  8 37  1  0  0  0  0
  9 38  1  0  0  0  0
 10 39  1  0  0  0  0
 11 40  1  0  0  0  0
 12 41  1  0  0  0  0
 13 42  1  0  0  0  0
 21 43  1  0  0  0  0
 21 44  1  0  0  0  0
 21 45  1  0  0  0  0
 22 46  1  0  0  0  0
 22 47  1  0  0  0  0
 22 48  1  0  0  0  0
 23 49  1  0  0  0  0
 23 50  1  0  0  0  0
 24 51  1  0  0  0  0
 24 52  1  0  0  0  0
 26 53  1  0  0  0  0
M  END
> <clash_score>
0

> <docking_score>
-9.356942176818848

> <overlap_score>
0.9300978779792786

$$$$
BENZO_392_1
  -OEChem-08232013553D

 50 53  0     0  0  0  0  0  0999 V2000
    4.2460    1.7520   20.8250 C   0  0  0  0  0  0  0  0  0  0  0  0
    3.8860    2.1050   19.5250 C   0  0  0  0  0  0  0  0  0  0  0  0
    5.3890    1.0010   21.0690 C   0  0  0  0  0  0  0  0  0  0  0  0
    4.6610    1.7170   18.4380 C   0  0  0  0  0  0  0  0  0  0  0  0
    9.5890   -2.4950   23.2210 C   0  0  0  0  0  0  0  0  0  0  0  0
    8.2550   -1.0010   24.5520 C   0  0  0  0  0  0  0  0  0  0  0  0
    9.1890   -3.5540   24.0140 C   0  0  0  0  0  0  0  0  0  0  0  0
    7.8700   -2.0610   25.3550 C   0  0  0  0  0  0  0  0  0  0  0  0
   12.6150   -0.3657   24.6948 C   0  0  0  0  0  0  0  0  0  0  0  0
   13.7247   -1.1718   24.5664 C   0  0  0  0  0  0  0  0  0  0  0  0
   12.6064   -0.7892   22.4094 C   0  0  0  0  0  0  0  0  0  0  0  0
    6.1460    0.6070   19.9750 C   0  0  0  0  0  0  0  0  0  0  0  0
   11.9671   -0.1441   23.4453 C   0  0  0  0  0  0  0  0  0  0  0  0
    5.7970    0.9500   18.6730 C   0  0  0  0  0  0  0  0  0  0  0  0
    9.1280   -1.2090   23.4870 C   0  0  0  0  0  0  0  0  0  0  0  0
    8.3450   -3.3440   25.0980 C   0  0  0  0  0  0  0  0  0  0  0  0
    7.2710   -0.1460   19.8310 C   0  0  0  0  0  0  0  0  0  0  0  0
    9.0430    0.2380   21.4940 C   0  0  0  0  0  0  0  0  0  0  0  0
    7.2639   -5.5569   25.3796 C   0  0  0  0  0  0  0  0  0  0  0  0
    8.3060   -4.4058   27.3385 C   0  0  0  0  0  0  0  0  0  0  0  0
   10.7332    0.6950   23.2793 C   0  0  0  0  0  0  0  0  0  0  0  0
    8.0950   -0.7700   20.8440 C   0  0  0  0  0  0  0  0  0  0  0  0
    6.7100    0.3850   17.8100 N   0  0  0  0  0  0  0  0  0  0  0  0
    7.5840   -0.2700   18.5160 N   0  0  0  0  0  0  0  0  0  0  0  0
    9.5820   -0.1080   22.7000 N   0  0  0  0  0  0  0  0  0  0  0  0
    7.9731   -4.4180   25.9279 N   0  0  0  0  0  0  0  0  0  0  0  0
    9.2950    1.3000   20.9480 O   0  0  0  0  0  0  0  0  0  0  0  0
   13.9816   -1.6578   22.9446 S   0  0  0  0  0  0  0  0  0  0  0  0
    3.6316    2.0634   21.6529 H   0  0  0  0  0  0  0  0  0  0  0  0
    2.9935    2.6871   19.3570 H   0  0  0  0  0  0  0  0  0  0  0  0
    5.6758    0.7297   22.1281 H   0  0  0  0  0  0  0  0  0  0  0  0
    4.3688    2.0204   17.3972 H   0  0  0  0  0  0  0  0  0  0  0  0
   10.2682   -2.6746   22.3864 H   0  0  0  0  0  0  0  0  0  0  0  0
    7.8692   -0.0022   24.7600 H   0  0  0  0  0  0  0  0  0  0  0  0
    9.5433   -4.5619   23.7809 H   0  0  0  0  0  0  0  0  0  0  0  0
    7.1923   -1.8829   26.1908 H   0  0  0  0  0  0  0  0  0  0  0  0
   12.2875    0.0438   25.6420 H   0  0  0  0  0  0  0  0  0  0  0  0
   14.3972   -1.4981   25.3471 H   0  0  0  0  0  0  0  0  0  0  0  0
   12.3357   -0.7936   21.3626 H   0  0  0  0  0  0  0  0  0  0  0  0
    7.0639   -6.2849   26.1797 H   0  0  0  0  0  0  0  0  0  0  0  0
    6.3116   -5.2206   24.9437 H   0  0  0  0  0  0  0  0  0  0  0  0
    7.8778   -6.0298   24.5989 H   0  0  0  0  0  0  0  0  0  0  0  0
    7.9323   -5.3256   27.8120 H   0  0  0  0  0  0  0  0  0  0  0  0
    9.3983   -4.3503   27.4568 H   0  0  0  0  0  0  0  0  0  0  0  0
    7.8405   -3.5318   27.8175 H   0  0  0  0  0  0  0  0  0  0  0  0
   10.4115    1.1036   24.2435 H   0  0  0  0  0  0  0  0  0  0  0  0
   10.9216    1.5434   22.6131 H   0  0  0  0  0  0  0  0  0  0  0  0
    7.4774   -1.2066   21.6419 H   0  0  0  0  0  0  0  0  0  0  0  0
    8.7084   -1.5788   20.4215 H   0  0  0  0  0  0  0  0  0  0  0  0
    8.3291   -0.7564   18.0959 H   0  0  0  0  0  0  0  0  0  0  0  0
  1  2  1  0  0  0  0
  1  3  2  0  0  0  0
  2  4  2  0  0  0  0
  3 12  1  0  0  0  0
  4 14  1  0  0  0  0
  5  7  2  0  0  0  0
  5 15  1  0  0  0  0
  6  8  1  0  0  0  0
  6 15  2  0  0  0  0
  7 16  1  0  0  0  0
  8 16  2  0  0  0  0
  9 10  2  0  0  0  0
  9 13  1  0  0  0  0
 10 28  1  0  0  0  0
 11 13  2  0  0  0  0
 11 28  1  0  0  0  0
 12 14  1  0  0  0  0
 12 17  2  0  0  0  0
 13 21  1  0  0  0  0
 14 23  2  0  0  0  0
 15 25  1  0  0  0  0
 16 26  1  0  0  0  0
 17 22  1  0  0  0  0
 17 24  1  0  0  0  0
 18 22  1  0  0  0  0
 18 25  1  0  0  0  0
 18 27  2  0  0  0  0
 19 26  1  0  0  0  0
 20 26  1  0  0  0  0
 21 25  1  0  0  0  0
 23 24  1  0  0  0  0
  1 29  1  0  0  0  0
  2 30  1  0  0  0  0
  3 31  1  0  0  0  0
  4 32  1  0  0  0  0
  5 33  1  0  0  0  0
  6 34  1  0  0  0  0
  7 35  1  0  0  0  0
  8 36  1  0  0  0  0
  9 37  1  0  0  0  0
 10 38  1  0  0  0  0
 11 39  1  0  0  0  0
 19 40  1  0  0  0  0
 19 41  1  0  0  0  0
 19 42  1  0  0  0  0
 20 43  1  0  0  0  0
 20 44  1  0  0  0  0
 20 45  1  0  0  0  0
 21 46  1  0  0  0  0
 21 47  1  0  0  0  0
 22 48  1  0  0  0  0
 22 49  1  0  0  0  0
 24 50  1  0  0  0  0
M  END
> <clash_score>
0

> <docking_score>
-9.032519340515137

> <overlap_score>
0.9280547499656677

$$$$
BENZO_395_1
  -OEChem-08232013553D

 53 56  0     0  0  0  0  0  0999 V2000
    4.2460    1.7520   20.8250 C   0  0  0  0  0  0  0  0  0  0  0  0
    3.8860    2.1050   19.5250 C   0  0  0  0  0  0  0  0  0  0  0  0
    5.3890    1.0010   21.0690 C   0  0  0  0  0  0  0  0  0  0  0  0
    4.6610    1.7170   18.4380 C   0  0  0  0  0  0  0  0  0  0  0  0
    9.5890   -2.4950   23.2210 C   0  0  0  0  0  0  0  0  0  0  0  0
    8.2550   -1.0010   24.5520 C   0  0  0  0  0  0  0  0  0  0  0  0
    9.1890   -3.5540   24.0140 C   0  0  0  0  0  0  0  0  0  0  0  0
    7.8700   -2.0610   25.3550 C   0  0  0  0  0  0  0  0  0  0  0  0
   13.2988    0.3227   23.6093 C   0  0  0  0  0  0  0  0  0  0  0  0
   12.3287   -0.9665   22.1153 C   0  0  0  0  0  0  0  0  0  0  0  0
    6.1460    0.6070   19.9750 C   0  0  0  0  0  0  0  0  0  0  0  0
   12.0575    0.0421   23.0073 C   0  0  0  0  0  0  0  0  0  0  0  0
    5.7970    0.9500   18.6730 C   0  0  0  0  0  0  0  0  0  0  0  0
    9.1280   -1.2090   23.4870 C   0  0  0  0  0  0  0  0  0  0  0  0
    8.3450   -3.3440   25.0980 C   0  0  0  0  0  0  0  0  0  0  0  0
    7.2710   -0.1460   19.8310 C   0  0  0  0  0  0  0  0  0  0  0  0
    9.0430    0.2380   21.4940 C   0  0  0  0  0  0  0  0  0  0  0  0
   14.4173   -2.2036   21.4940 C   0  0  0  0  0  0  0  0  0  0  0  0
    7.2639   -5.5569   25.3796 C   0  0  0  0  0  0  0  0  0  0  0  0
    8.3060   -4.4058   27.3385 C   0  0  0  0  0  0  0  0  0  0  0  0
   10.7332    0.6950   23.2793 C   0  0  0  0  0  0  0  0  0  0  0  0
    8.0950   -0.7700   20.8440 C   0  0  0  0  0  0  0  0  0  0  0  0
   14.2851   -0.4457   23.1396 N   0  0  0  0  0  0  0  0  0  0  0  0
    6.7100    0.3850   17.8100 N   0  0  0  0  0  0  0  0  0  0  0  0
    7.5840   -0.2700   18.5160 N   0  0  0  0  0  0  0  0  0  0  0  0
   13.6638   -1.2191   22.2330 N   0  0  0  0  0  0  0  0  0  0  0  0
    9.5820   -0.1080   22.7000 N   0  0  0  0  0  0  0  0  0  0  0  0
    7.9731   -4.4180   25.9279 N   0  0  0  0  0  0  0  0  0  0  0  0
    9.2950    1.3000   20.9480 O   0  0  0  0  0  0  0  0  0  0  0  0
    3.6316    2.0634   21.6529 H   0  0  0  0  0  0  0  0  0  0  0  0
    2.9935    2.6871   19.3570 H   0  0  0  0  0  0  0  0  0  0  0  0
    5.6758    0.7297   22.1281 H   0  0  0  0  0  0  0  0  0  0  0  0
    4.3688    2.0204   17.3972 H   0  0  0  0  0  0  0  0  0  0  0  0
   10.2682   -2.6746   22.3864 H   0  0  0  0  0  0  0  0  0  0  0  0
    7.8692   -0.0022   24.7600 H   0  0  0  0  0  0  0  0  0  0  0  0
    9.5433   -4.5619   23.7809 H   0  0  0  0  0  0  0  0  0  0  0  0
    7.1923   -1.8829   26.1908 H   0  0  0  0  0  0  0  0  0  0  0  0
   13.5280    1.0539   24.3716 H   0  0  0  0  0  0  0  0  0  0  0  0
   11.7008   -1.5132   21.4250 H   0  0  0  0  0  0  0  0  0  0  0  0
   14.7920   -1.7281   20.5837 H   0  0  0  0  0  0  0  0  0  0  0  0
   15.2483   -2.5621   22.1078 H   0  0  0  0  0  0  0  0  0  0  0  0
   13.7657   -3.0461   21.2461 H   0  0  0  0  0  0  0  0  0  0  0  0
    7.0639   -6.2849   26.1797 H   0  0  0  0  0  0  0  0  0  0  0  0
    6.3116   -5.2206   24.9437 H   0  0  0  0  0  0  0  0  0  0  0  0
    7.8778   -6.0298   24.5989 H   0  0  0  0  0  0  0  0  0  0  0  0
    7.9323   -5.3256   27.8120 H   0  0  0  0  0  0  0  0  0  0  0  0
    9.3983   -4.3503   27.4568 H   0  0  0  0  0  0  0  0  0  0  0  0
    7.8405   -3.5318   27.8175 H   0  0  0  0  0  0  0  0  0  0  0  0
   10.5676    0.7979   24.3573 H   0  0  0  0  0  0  0  0  0  0  0  0
   10.6945    1.7004   22.8469 H   0  0  0  0  0  0  0  0  0  0  0  0
    7.4774   -1.2066   21.6419 H   0  0  0  0  0  0  0  0  0  0  0  0
    8.7084   -1.5788   20.4215 H   0  0  0  0  0  0  0  0  0  0  0  0
    8.3291   -0.7564   18.0959 H   0  0  0  0  0  0  0  0  0  0  0  0
  1  2  1  0  0  0  0
  1  3  2  0  0  0  0
  2  4  2  0  0  0  0
  3 11  1  0  0  0  0
  4 13  1  0  0  0  0
  5  7  2  0  0  0  0
  5 14  1  0  0  0  0
  6  8  1  0  0  0  0
  6 14  2  0  0  0  0
  7 15  1  0  0  0  0
  8 15  2  0  0  0  0
  9 12  1  0  0  0  0
  9 23  2  0  0  0  0
 10 12  2  0  0  0  0
 10 26  1  0  0  0  0
 11 13  1  0  0  0  0
 11 16  2  0  0  0  0
 12 21  1  0  0  0  0
 13 24  2  0  0  0  0
 14 27  1  0  0  0  0
 15 28  1  0  0  0  0
 16 22  1  0  0  0  0
 16 25  1  0  0  0  0
 17 22  1  0  0  0  0
 17 27  1  0  0  0  0
 17 29  2  0  0  0  0
 18 26  1  0  0  0  0
 19 28  1  0  0  0  0
 20 28  1  0  0  0  0
 21 27  1  0  0  0  0
 23 26  1  0  0  0  0
 24 25  1  0  0  0  0
  1 30  1  0  0  0  0
  2 31  1  0  0  0  0
  3 32  1  0  0  0  0
  4 33  1  0  0  0  0
  5 34  1  0  0  0  0
  6 35  1  0  0  0  0
  7 36  1  0  0  0  0
  8 37  1  0  0  0  0
  9 38  1  0  0  0  0
 10 39  1  0  0  0  0
 18 40  1  0  0  0  0
 18 41  1  0  0  0  0
 18 42  1  0  0  0  0
 19 43  1  0  0  0  0
 19 44  1  0  0  0  0
 19 45  1  0  0  0  0
 20 46  1  0  0  0  0
 20 47  1  0  0  0  0
 20 48  1  0  0  0  0
 21 49  1  0  0  0  0
 21 50  1  0  0  0  0
 22 51  1  0  0  0  0
 22 52  1  0  0  0  0
 25 53  1  0  0  0  0
M  END
> <clash_score>
0

> <docking_score>
-9.302571296691895

> <overlap_score>
0.930759608745575

$$$$
BENZO_394_1
  -OEChem-08232013553D

 53 56  0     0  0  0  0  0  0999 V2000
    4.2460    1.7520   20.8250 C   0  0  0  0  0  0  0  0  0  0  0  0
    3.8860    2.1050   19.5250 C   0  0  0  0  0  0  0  0  0  0  0  0
   13.6802   -1.0867   24.8643 C   0  0  0  0  0  0  0  0  0  0  0  0
    5.3890    1.0010   21.0690 C   0  0  0  0  0  0  0  0  0  0  0  0
   12.5346   -0.3063   24.7091 C   0  0  0  0  0  0  0  0  0  0  0  0
    4.6610    1.7170   18.4380 C   0  0  0  0  0  0  0  0  0  0  0  0
    9.5890   -2.4950   23.2210 C   0  0  0  0  0  0  0  0  0  0  0  0
    8.2550   -1.0010   24.5520 C   0  0  0  0  0  0  0  0  0  0  0  0
    9.1890   -3.5540   24.0140 C   0  0  0  0  0  0  0  0  0  0  0  0
    7.8700   -2.0610   25.3550 C   0  0  0  0  0  0  0  0  0  0  0  0
   14.2585   -1.7048   23.7555 C   0  0  0  0  0  0  0  0  0  0  0  0
   12.5452   -0.7623   22.3366 C   0  0  0  0  0  0  0  0  0  0  0  0
    6.1460    0.6070   19.9750 C   0  0  0  0  0  0  0  0  0  0  0  0
   11.9671   -0.1441   23.4453 C   0  0  0  0  0  0  0  0  0  0  0  0
    5.7970    0.9500   18.6730 C   0  0  0  0  0  0  0  0  0  0  0  0
    9.1280   -1.2090   23.4870 C   0  0  0  0  0  0  0  0  0  0  0  0
    8.3450   -3.3440   25.0980 C   0  0  0  0  0  0  0  0  0  0  0  0
   13.6909   -1.5427   22.4917 C   0  0  0  0  0  0  0  0  0  0  0  0
    7.2710   -0.1460   19.8310 C   0  0  0  0  0  0  0  0  0  0  0  0
    9.0430    0.2380   21.4940 C   0  0  0  0  0  0  0  0  0  0  0  0
    7.2639   -5.5569   25.3796 C   0  0  0  0  0  0  0  0  0  0  0  0
    8.3060   -4.4058   27.3385 C   0  0  0  0  0  0  0  0  0  0  0  0
   10.7332    0.6950   23.2793 C   0  0  0  0  0  0  0  0  0  0  0  0
    8.0950   -0.7700   20.8440 C   0  0  0  0  0  0  0  0  0  0  0  0
    6.7100    0.3850   17.8100 N   0  0  0  0  0  0  0  0  0  0  0  0
    7.5840   -0.2700   18.5160 N   0  0  0  0  0  0  0  0  0  0  0  0
    9.5820   -0.1080   22.7000 N   0  0  0  0  0  0  0  0  0  0  0  0
    7.9731   -4.4180   25.9279 N   0  0  0  0  0  0  0  0  0  0  0  0
    9.2950    1.3000   20.9480 O   0  0  0  0  0  0  0  0  0  0  0  0
   14.4041   -2.3065   21.1243 Cl  0  0  0  0  0  0  0  0  0  0  0  0
    3.6316    2.0634   21.6529 H   0  0  0  0  0  0  0  0  0  0  0  0
    2.9935    2.6871   19.3570 H   0  0  0  0  0  0  0  0  0  0  0  0
   14.1218   -1.2128   25.8486 H   0  0  0  0  0  0  0  0  0  0  0  0
    5.6758    0.7297   22.1281 H   0  0  0  0  0  0  0  0  0  0  0  0
   12.0907    0.1716   25.5786 H   0  0  0  0  0  0  0  0  0  0  0  0
    4.3688    2.0204   17.3972 H   0  0  0  0  0  0  0  0  0  0  0  0
   10.2682   -2.6746   22.3864 H   0  0  0  0  0  0  0  0  0  0  0  0
    7.8692   -0.0022   24.7600 H   0  0  0  0  0  0  0  0  0  0  0  0
    9.5433   -4.5619   23.7809 H   0  0  0  0  0  0  0  0  0  0  0  0
    7.1923   -1.8829   26.1908 H   0  0  0  0  0  0  0  0  0  0  0  0
   15.1512   -2.3104   23.8914 H   0  0  0  0  0  0  0  0  0  0  0  0
   12.0992   -0.6324   21.3532 H   0  0  0  0  0  0  0  0  0  0  0  0
    7.0639   -6.2849   26.1797 H   0  0  0  0  0  0  0  0  0  0  0  0
    6.3116   -5.2206   24.9437 H   0  0  0  0  0  0  0  0  0  0  0  0
    7.8778   -6.0298   24.5989 H   0  0  0  0  0  0  0  0  0  0  0  0
    7.9323   -5.3256   27.8120 H   0  0  0  0  0  0  0  0  0  0  0  0
    9.3983   -4.3503   27.4568 H   0  0  0  0  0  0  0  0  0  0  0  0
    7.8405   -3.5318   27.8175 H   0  0  0  0  0  0  0  0  0  0  0  0
   10.4115    1.1036   24.2435 H   0  0  0  0  0  0  0  0  0  0  0  0
   10.9216    1.5434   22.6131 H   0  0  0  0  0  0  0  0  0  0  0  0
    7.4774   -1.2066   21.6419 H   0  0  0  0  0  0  0  0  0  0  0  0
    8.7084   -1.5788   20.4215 H   0  0  0  0  0  0  0  0  0  0  0  0
    8.3291   -0.7564   18.0959 H   0  0  0  0  0  0  0  0  0  0  0  0
  1  2  1  0  0  0  0
  1  4  2  0  0  0  0
  2  6  2  0  0  0  0
  3  5  2  0  0  0  0
  3 11  1  0  0  0  0
  4 13  1  0  0  0  0
  5 14  1  0  0  0  0
  6 15  1  0  0  0  0
  7  9  2  0  0  0  0
  7 16  1  0  0  0  0
  8 10  1  0  0  0  0
  8 16  2  0  0  0  0
  9 17  1  0  0  0  0
 10 17  2  0  0  0  0
 11 18  2  0  0  0  0
 12 14  2  0  0  0  0
 12 18  1  0  0  0  0
 13 15  1  0  0  0  0
 13 19  2  0  0  0  0
 14 23  1  0  0  0  0
 15 25  2  0  0  0  0
 16 27  1  0  0  0  0
 17 28  1  0  0  0  0
 18 30  1  0  0  0  0
 19 24  1  0  0  0  0
 19 26  1  0  0  0  0
 20 24  1  0  0  0  0
 20 27  1  0  0  0  0
 20 29  2  0  0  0  0
 21 28  1  0  0  0  0
 22 28  1  0  0  0  0
 23 27  1  0  0  0  0
 25 26  1  0  0  0  0
  1 31  1  0  0  0  0
  2 32  1  0  0  0  0
  3 33  1  0  0  0  0
  4 34  1  0  0  0  0
  5 35  1  0  0  0  0
  6 36  1  0  0  0  0
  7 37  1  0  0  0  0
  8 38  1  0  0  0  0
  9 39  1  0  0  0  0
 10 40  1  0  0  0  0
 11 41  1  0  0  0  0
 12 42  1  0  0  0  0
 21 43  1  0  0  0  0
 21 44  1  0  0  0  0
 21 45  1  0  0  0  0
 22 46  1  0  0  0  0
 22 47  1  0  0  0  0
 22 48  1  0  0  0  0
 23 49  1  0  0  0  0
 23 50  1  0  0  0  0
 24 51  1  0  0  0  0
 24 52  1  0  0  0  0
 26 53  1  0  0  0  0
M  END
> <clash_score>
0

> <docking_score>
-8.498331069946289

> <overlap_score>
0.9509857892990112

$$$$
BENZO_397_1
  -OEChem-08232013553D

 55 58  0     0  0  0  0  0  0999 V2000
   14.2591   -1.7044   23.7531 C   0  0  0  0  0  0  0  0  0  0  0  0
    4.2460    1.7520   20.8250 C   0  0  0  0  0  0  0  0  0  0  0  0
   14.0215   -0.6360   24.6177 C   0  0  0  0  0  0  0  0  0  0  0  0
   13.3508   -1.9926   22.7345 C   0  0  0  0  0  0  0  0  0  0  0  0
    3.8860    2.1050   19.5250 C   0  0  0  0  0  0  0  0  0  0  0  0
    5.3890    1.0010   21.0690 C   0  0  0  0  0  0  0  0  0  0  0  0
   12.8755    0.1441   24.4639 C   0  0  0  0  0  0  0  0  0  0  0  0
   12.2047   -1.2125   22.5806 C   0  0  0  0  0  0  0  0  0  0  0  0
    4.6610    1.7170   18.4380 C   0  0  0  0  0  0  0  0  0  0  0  0
    9.1890   -3.5540   24.0140 C   0  0  0  0  0  0  0  0  0  0  0  0
    7.8700   -2.0610   25.3550 C   0  0  0  0  0  0  0  0  0  0  0  0
    9.5890   -2.4950   23.2210 C   0  0  0  0  0  0  0  0  0  0  0  0
    8.2550   -1.0010   24.5520 C   0  0  0  0  0  0  0  0  0  0  0  0
    6.1460    0.6070   19.9750 C   0  0  0  0  0  0  0  0  0  0  0  0
   11.9671   -0.1441   23.4453 C   0  0  0  0  0  0  0  0  0  0  0  0
    5.7970    0.9500   18.6730 C   0  0  0  0  0  0  0  0  0  0  0  0
    8.3450   -3.3440   25.0980 C   0  0  0  0  0  0  0  0  0  0  0  0
    9.1280   -1.2090   23.4870 C   0  0  0  0  0  0  0  0  0  0  0  0
    7.2710   -0.1460   19.8310 C   0  0  0  0  0  0  0  0  0  0  0  0
    9.0430    0.2380   21.4940 C   0  0  0  0  0  0  0  0  0  0  0  0
    7.1418   -4.3826   27.0483 C   0  0  0  0  0  0  0  0  0  0  0  0
    8.0793   -6.0704   28.6847 C   0  0  0  0  0  0  0  0  0  0  0  0
   10.7332    0.6950   23.2793 C   0  0  0  0  0  0  0  0  0  0  0  0
    8.0950   -0.7700   20.8440 C   0  0  0  0  0  0  0  0  0  0  0  0
    7.0024   -5.7696   27.6577 C   0  0  0  0  0  0  0  0  0  0  0  0
    6.7100    0.3850   17.8100 N   0  0  0  0  0  0  0  0  0  0  0  0
    7.5840   -0.2700   18.5160 N   0  0  0  0  0  0  0  0  0  0  0  0
    7.9771   -4.4058   25.9196 N   0  0  0  0  0  0  0  0  0  0  0  0
    9.5820   -0.1080   22.7000 N   0  0  0  0  0  0  0  0  0  0  0  0
    9.2950    1.3000   20.9480 O   0  0  0  0  0  0  0  0  0  0  0  0
    6.5747   -3.4037   27.5223 O   0  0  0  0  0  0  0  0  0  0  0  0
   15.1522   -2.3109   23.8722 H   0  0  0  0  0  0  0  0  0  0  0  0
    3.6316    2.0634   21.6529 H   0  0  0  0  0  0  0  0  0  0  0  0
   14.7292   -0.4107   25.4102 H   0  0  0  0  0  0  0  0  0  0  0  0
   13.5360   -2.8237   22.0604 H   0  0  0  0  0  0  0  0  0  0  0  0
    2.9935    2.6871   19.3570 H   0  0  0  0  0  0  0  0  0  0  0  0
    5.6758    0.7297   22.1281 H   0  0  0  0  0  0  0  0  0  0  0  0
   12.6984    0.9745   25.1424 H   0  0  0  0  0  0  0  0  0  0  0  0
   11.5025   -1.4446   21.7843 H   0  0  0  0  0  0  0  0  0  0  0  0
    4.3688    2.0204   17.3972 H   0  0  0  0  0  0  0  0  0  0  0  0
    9.5436   -4.5614   23.7799 H   0  0  0  0  0  0  0  0  0  0  0  0
    7.1918   -1.8823   26.1906 H   0  0  0  0  0  0  0  0  0  0  0  0
   10.2676   -2.6754   22.3861 H   0  0  0  0  0  0  0  0  0  0  0  0
    7.8686   -0.0026   24.7598 H   0  0  0  0  0  0  0  0  0  0  0  0
    9.0773   -6.0031   28.2393 H   0  0  0  0  0  0  0  0  0  0  0  0
    7.9515   -7.0804   29.0862 H   0  0  0  0  0  0  0  0  0  0  0  0
    8.0356   -5.3626   29.5190 H   0  0  0  0  0  0  0  0  0  0  0  0
   10.4115    1.1036   24.2435 H   0  0  0  0  0  0  0  0  0  0  0  0
   10.9216    1.5434   22.6131 H   0  0  0  0  0  0  0  0  0  0  0  0
    7.4774   -1.2066   21.6419 H   0  0  0  0  0  0  0  0  0  0  0  0
    8.7084   -1.5788   20.4215 H   0  0  0  0  0  0  0  0  0  0  0  0
    6.0161   -5.8441   28.1300 H   0  0  0  0  0  0  0  0  0  0  0  0
    7.0494   -6.5101   26.8510 H   0  0  0  0  0  0  0  0  0  0  0  0
    8.3291   -0.7564   18.0959 H   0  0  0  0  0  0  0  0  0  0  0  0
    8.3624   -5.3252   25.6740 H   0  0  0  0  0  0  0  0  0  0  0  0
  1  3  1  0  0  0  0
  1  4  2  0  0  0  0
  2  5  1  0  0  0  0
  2  6  2  0  0  0  0
  3  7  2  0  0  0  0
  4  8  1  0  0  0  0
  5  9  2  0  0  0  0
  6 14  1  0  0  0  0
  7 15  1  0  0  0  0
  8 15  2  0  0  0  0
  9 16  1  0  0  0  0
 10 12  2  0  0  0  0
 10 17  1  0  0  0  0
 11 13  1  0  0  0  0
 11 17  2  0  0  0  0
 12 18  1  0  0  0  0
 13 18  2  0  0  0  0
 14 16  1  0  0  0  0
 14 19  2  0  0  0  0
 15 23  1  0  0  0  0
 16 26  2  0  0  0  0
 17 28  1  0  0  0  0
 18 29  1  0  0  0  0
 19 24  1  0  0  0  0
 19 27  1  0  0  0  0
 20 24  1  0  0  0  0
 20 29  1  0  0  0  0
 20 30  2  0  0  0  0
 21 25  1  0  0  0  0
 21 28  1  0  0  0  0
 21 31  2  0  0  0  0
 22 25  1  0  0  0  0
 23 29  1  0  0  0  0
 26 27  1  0  0  0  0
  1 32  1  0  0  0  0
  2 33  1  0  0  0  0
  3 34  1  0  0  0  0
  4 35  1  0  0  0  0
  5 36  1  0  0  0  0
  6 37  1  0  0  0  0
  7 38  1  0  0  0  0
  8 39  1  0  0  0  0
  9 40  1  0  0  0  0
 10 41  1  0  0  0  0
 11 42  1  0  0  0  0
 12 43  1  0  0  0  0
 13 44  1  0  0  0  0
 22 45  1  0  0  0  0
 22 46  1  0  0  0  0
 22 47  1  0  0  0  0
 23 48  1  0  0  0  0
 23 49  1  0  0  0  0
 24 50  1  0  0  0  0
 24 51  1  0  0  0  0
 25 52  1  0  0  0  0
 25 53  1  0  0  0  0
 27 54  1  0  0  0  0
 28 55  1  0  0  0  0
M  END
> <clash_score>
0

> <docking_score>
-8.917245864868164

> <overlap_score>
0.9669471383094788

$$$$
BENZO_396_1
  -OEChem-08232013553D

 52 55  0     0  0  0  0  0  0999 V2000
    4.2460    1.7520   20.8250 C   0  0  0  0  0  0  0  0  0  0  0  0
    3.8860    2.1050   19.5250 C   0  0  0  0  0  0  0  0  0  0  0  0
    5.3890    1.0010   21.0690 C   0  0  0  0  0  0  0  0  0  0  0  0
    4.6610    1.7170   18.4380 C   0  0  0  0  0  0  0  0  0  0  0  0
    9.1890   -3.5540   24.0140 C   0  0  0  0  0  0  0  0  0  0  0  0
    7.8700   -2.0610   25.3550 C   0  0  0  0  0  0  0  0  0  0  0  0
    9.5890   -2.4950   23.2210 C   0  0  0  0  0  0  0  0  0  0  0  0
    8.2550   -1.0010   24.5520 C   0  0  0  0  0  0  0  0  0  0  0  0
   12.6150   -0.3657   24.6948 C   0  0  0  0  0  0  0  0  0  0  0  0
   13.7247   -1.1718   24.5664 C   0  0  0  0  0  0  0  0  0  0  0  0
   12.6064   -0.7892   22.4094 C   0  0  0  0  0  0  0  0  0  0  0  0
    6.1460    0.6070   19.9750 C   0  0  0  0  0  0  0  0  0  0  0  0
   11.9671   -0.1441   23.4453 C   0  0  0  0  0  0  0  0  0  0  0  0
    5.7970    0.9500   18.6730 C   0  0  0  0  0  0  0  0  0  0  0  0
    8.3450   -3.3440   25.0980 C   0  0  0  0  0  0  0  0  0  0  0  0
    9.1280   -1.2090   23.4870 C   0  0  0  0  0  0  0  0  0  0  0  0
    7.2710   -0.1460   19.8310 C   0  0  0  0  0  0  0  0  0  0  0  0
    9.0430    0.2380   21.4940 C   0  0  0  0  0  0  0  0  0  0  0  0
    8.2020   -4.5570   27.2975 C   0  0  0  0  0  0  0  0  0  0  0  0
    7.8876   -6.0892   29.2873 C   0  0  0  0  0  0  0  0  0  0  0  0
   10.7332    0.6950   23.2793 C   0  0  0  0  0  0  0  0  0  0  0  0
    8.0950   -0.7700   20.8440 C   0  0  0  0  0  0  0  0  0  0  0  0
    7.6337   -5.8735   27.8062 C   0  0  0  0  0  0  0  0  0  0  0  0
    6.7100    0.3850   17.8100 N   0  0  0  0  0  0  0  0  0  0  0  0
    7.5840   -0.2700   18.5160 N   0  0  0  0  0  0  0  0  0  0  0  0
    7.9771   -4.4058   25.9196 N   0  0  0  0  0  0  0  0  0  0  0  0
    9.5820   -0.1080   22.7000 N   0  0  0  0  0  0  0  0  0  0  0  0
    9.2950    1.3000   20.9480 O   0  0  0  0  0  0  0  0  0  0  0  0
    8.7738   -3.7653   28.0397 O   0  0  0  0  0  0  0  0  0  0  0  0
   13.9816   -1.6578   22.9446 S   0  0  0  0  0  0  0  0  0  0  0  0
    3.6316    2.0634   21.6529 H   0  0  0  0  0  0  0  0  0  0  0  0
    2.9935    2.6871   19.3570 H   0  0  0  0  0  0  0  0  0  0  0  0
    5.6758    0.7297   22.1281 H   0  0  0  0  0  0  0  0  0  0  0  0
    4.3688    2.0204   17.3972 H   0  0  0  0  0  0  0  0  0  0  0  0
    9.5436   -4.5614   23.7799 H   0  0  0  0  0  0  0  0  0  0  0  0
    7.1918   -1.8823   26.1906 H   0  0  0  0  0  0  0  0  0  0  0  0
   10.2676   -2.6754   22.3861 H   0  0  0  0  0  0  0  0  0  0  0  0
    7.8686   -0.0026   24.7598 H   0  0  0  0  0  0  0  0  0  0  0  0
   12.2875    0.0438   25.6420 H   0  0  0  0  0  0  0  0  0  0  0  0
   14.3972   -1.4981   25.3471 H   0  0  0  0  0  0  0  0  0  0  0  0
   12.3357   -0.7936   21.3626 H   0  0  0  0  0  0  0  0  0  0  0  0
    8.9603   -6.0845   29.5072 H   0  0  0  0  0  0  0  0  0  0  0  0
    7.4771   -7.0516   29.6082 H   0  0  0  0  0  0  0  0  0  0  0  0
    7.4189   -5.3008   29.8855 H   0  0  0  0  0  0  0  0  0  0  0  0
   10.4115    1.1036   24.2435 H   0  0  0  0  0  0  0  0  0  0  0  0
   10.9216    1.5434   22.6131 H   0  0  0  0  0  0  0  0  0  0  0  0
    7.4774   -1.2066   21.6419 H   0  0  0  0  0  0  0  0  0  0  0  0
    8.7084   -1.5788   20.4215 H   0  0  0  0  0  0  0  0  0  0  0  0
    6.5544   -5.8829   27.6153 H   0  0  0  0  0  0  0  0  0  0  0  0
    8.0867   -6.6917   27.2346 H   0  0  0  0  0  0  0  0  0  0  0  0
    8.3291   -0.7564   18.0959 H   0  0  0  0  0  0  0  0  0  0  0  0
    7.4775   -5.1795   25.4660 H   0  0  0  0  0  0  0  0  0  0  0  0
  1  2  1  0  0  0  0
  1  3  2  0  0  0  0
  2  4  2  0  0  0  0
  3 12  1  0  0  0  0
  4 14  1  0  0  0  0
  5  7  2  0  0  0  0
  5 15  1  0  0  0  0
  6  8  1  0  0  0  0
  6 15  2  0  0  0  0
  7 16  1  0  0  0  0
  8 16  2  0  0  0  0
  9 10  2  0  0  0  0
  9 13  1  0  0  0  0
 10 30  1  0  0  0  0
 11 13  2  0  0  0  0
 11 30  1  0  0  0  0
 12 14  1  0  0  0  0
 12 17  2  0  0  0  0
 13 21  1  0  0  0  0
 14 24  2  0  0  0  0
 15 26  1  0  0  0  0
 16 27  1  0  0  0  0
 17 22  1  0  0  0  0
 17 25  1  0  0  0  0
 18 22  1  0  0  0  0
 18 27  1  0  0  0  0
 18 28  2  0  0  0  0
 19 23  1  0  0  0  0
 19 26  1  0  0  0  0
 19 29  2  0  0  0  0
 20 23  1  0  0  0  0
 21 27  1  0  0  0  0
 24 25  1  0  0  0  0
  1 31  1  0  0  0  0
  2 32  1  0  0  0  0
  3 33  1  0  0  0  0
  4 34  1  0  0  0  0
  5 35  1  0  0  0  0
  6 36  1  0  0  0  0
  7 37  1  0  0  0  0
  8 38  1  0  0  0  0
  9 39  1  0  0  0  0
 10 40  1  0  0  0  0
 11 41  1  0  0  0  0
 20 42  1  0  0  0  0
 20 43  1  0  0  0  0
 20 44  1  0  0  0  0
 21 45  1  0  0  0  0
 21 46  1  0  0  0  0
 22 47  1  0  0  0  0
 22 48  1  0  0  0  0
 23 49  1  0  0  0  0
 23 50  1  0  0  0  0
 25 51  1  0  0  0  0
 26 52  1  0  0  0  0
M  END
> <clash_score>
0

> <docking_score>
-9.310972213745117

> <overlap_score>
0.9844761490821838

$$$$
BENZO_399_1
  -OEChem-08232013553D

 55 58  0     0  0  0  0  0  0999 V2000
    4.2460    1.7520   20.8250 C   0  0  0  0  0  0  0  0  0  0  0  0
    3.8860    2.1050   19.5250 C   0  0  0  0  0  0  0  0  0  0  0  0
    5.3890    1.0010   21.0690 C   0  0  0  0  0  0  0  0  0  0  0  0
    4.6610    1.7170   18.4380 C   0  0  0  0  0  0  0  0  0  0  0  0
    9.1890   -3.5540   24.0140 C   0  0  0  0  0  0  0  0  0  0  0  0
    7.8700   -2.0610   25.3550 C   0  0  0  0  0  0  0  0  0  0  0  0
    9.5890   -2.4950   23.2210 C   0  0  0  0  0  0  0  0  0  0  0  0
    8.2550   -1.0010   24.5520 C   0  0  0  0  0  0  0  0  0  0  0  0
   13.2988    0.3227   23.6093 C   0  0  0  0  0  0  0  0  0  0  0  0
   12.3287   -0.9665   22.1153 C   0  0  0  0  0  0  0  0  0  0  0  0
    6.1460    0.6070   19.9750 C   0  0  0  0  0  0  0  0  0  0  0  0
   12.0575    0.0421   23.0073 C   0  0  0  0  0  0  0  0  0  0  0  0
    5.7970    0.9500   18.6730 C   0  0  0  0  0  0  0  0  0  0  0  0
    8.3450   -3.3440   25.0980 C   0  0  0  0  0  0  0  0  0  0  0  0
    9.1280   -1.2090   23.4870 C   0  0  0  0  0  0  0  0  0  0  0  0
    7.2710   -0.1460   19.8310 C   0  0  0  0  0  0  0  0  0  0  0  0
    9.0430    0.2380   21.4940 C   0  0  0  0  0  0  0  0  0  0  0  0
    7.6602   -4.3771   27.2874 C   0  0  0  0  0  0  0  0  0  0  0  0
    8.4366   -6.7656   27.6009 C   0  0  0  0  0  0  0  0  0  0  0  0
   14.4173   -2.2036   21.4940 C   0  0  0  0  0  0  0  0  0  0  0  0
   10.7332    0.6950   23.2793 C   0  0  0  0  0  0  0  0  0  0  0  0
    8.0950   -0.7700   20.8440 C   0  0  0  0  0  0  0  0  0  0  0  0
    7.3111   -5.7664   27.8001 C   0  0  0  0  0  0  0  0  0  0  0  0
   14.2851   -0.4457   23.1396 N   0  0  0  0  0  0  0  0  0  0  0  0
    6.7100    0.3850   17.8100 N   0  0  0  0  0  0  0  0  0  0  0  0
    7.5840   -0.2700   18.5160 N   0  0  0  0  0  0  0  0  0  0  0  0
   13.6638   -1.2191   22.2330 N   0  0  0  0  0  0  0  0  0  0  0  0
    7.9771   -4.4058   25.9196 N   0  0  0  0  0  0  0  0  0  0  0  0
    9.5820   -0.1080   22.7000 N   0  0  0  0  0  0  0  0  0  0  0  0
    9.2950    1.3000   20.9480 O   0  0  0  0  0  0  0  0  0  0  0  0
    7.6499   -3.3923   28.0185 O   0  0  0  0  0  0  0  0  0  0  0  0
    3.6316    2.0634   21.6529 H   0  0  0  0  0  0  0  0  0  0  0  0
    2.9935    2.6871   19.3570 H   0  0  0  0  0  0  0  0  0  0  0  0
    5.6758    0.7297   22.1281 H   0  0  0  0  0  0  0  0  0  0  0  0
    4.3688    2.0204   17.3972 H   0  0  0  0  0  0  0  0  0  0  0  0
    9.5436   -4.5614   23.7799 H   0  0  0  0  0  0  0  0  0  0  0  0
    7.1918   -1.8823   26.1906 H   0  0  0  0  0  0  0  0  0  0  0  0
   10.2676   -2.6754   22.3861 H   0  0  0  0  0  0  0  0  0  0  0  0
    7.8686   -0.0026   24.7598 H   0  0  0  0  0  0  0  0  0  0  0  0
   13.5280    1.0539   24.3716 H   0  0  0  0  0  0  0  0  0  0  0  0
   11.7008   -1.5132   21.4250 H   0  0  0  0  0  0  0  0  0  0  0  0
    8.6965   -6.8591   26.5414 H   0  0  0  0  0  0  0  0  0  0  0  0
    8.1395   -7.7526   27.9686 H   0  0  0  0  0  0  0  0  0  0  0  0
    9.3372   -6.4561   28.1414 H   0  0  0  0  0  0  0  0  0  0  0  0
   14.7920   -1.7281   20.5837 H   0  0  0  0  0  0  0  0  0  0  0  0
   15.2483   -2.5621   22.1078 H   0  0  0  0  0  0  0  0  0  0  0  0
   13.7657   -3.0461   21.2461 H   0  0  0  0  0  0  0  0  0  0  0  0
   10.5676    0.7979   24.3573 H   0  0  0  0  0  0  0  0  0  0  0  0
   10.6945    1.7004   22.8469 H   0  0  0  0  0  0  0  0  0  0  0  0
    7.4774   -1.2066   21.6419 H   0  0  0  0  0  0  0  0  0  0  0  0
    8.7084   -1.5788   20.4215 H   0  0  0  0  0  0  0  0  0  0  0  0
    7.0722   -5.6930   28.8674 H   0  0  0  0  0  0  0  0  0  0  0  0
    6.4148   -6.1157   27.2747 H   0  0  0  0  0  0  0  0  0  0  0  0
    8.3291   -0.7564   18.0959 H   0  0  0  0  0  0  0  0  0  0  0  0
    7.9297   -5.3297   25.4745 H   0  0  0  0  0  0  0  0  0  0  0  0
  1  2  1  0  0  0  0
  1  3  2  0  0  0  0
  2  4  2  0  0  0  0
  3 11  1  0  0  0  0
  4 13  1  0  0  0  0
  5  7  2  0  0  0  0
  5 14  1  0  0  0  0
  6  8  1  0  0  0  0
  6 14  2  0  0  0  0
  7 15  1  0  0  0  0
  8 15  2  0  0  0  0
  9 12  1  0  0  0  0
  9 24  2  0  0  0  0
 10 12  2  0  0  0  0
 10 27  1  0  0  0  0
 11 13  1  0  0  0  0
 11 16  2  0  0  0  0
 12 21  1  0  0  0  0
 13 25  2  0  0  0  0
 14 28  1  0  0  0  0
 15 29  1  0  0  0  0
 16 22  1  0  0  0  0
 16 26  1  0  0  0  0
 17 22  1  0  0  0  0
 17 29  1  0  0  0  0
 17 30  2  0  0  0  0
 18 23  1  0  0  0  0
 18 28  1  0  0  0  0
 18 31  2  0  0  0  0
 19 23  1  0  0  0  0
 20 27  1  0  0  0  0
 21 29  1  0  0  0  0
 24 27  1  0  0  0  0
 25 26  1  0  0  0  0
  1 32  1  0  0  0  0
  2 33  1  0  0  0  0
  3 34  1  0  0  0  0
  4 35  1  0  0  0  0
  5 36  1  0  0  0  0
  6 37  1  0  0  0  0
  7 38  1  0  0  0  0
  8 39  1  0  0  0  0
  9 40  1  0  0  0  0
 10 41  1  0  0  0  0
 19 42  1  0  0  0  0
 19 43  1  0  0  0  0
 19 44  1  0  0  0  0
 20 45  1  0  0  0  0
 20 46  1  0  0  0  0
 20 47  1  0  0  0  0
 21 48  1  0  0  0  0
 21 49  1  0  0  0  0
 22 50  1  0  0  0  0
 22 51  1  0  0  0  0
 23 52  1  0  0  0  0
 23 53  1  0  0  0  0
 26 54  1  0  0  0  0
 28 55  1  0  0  0  0
M  END
> <clash_score>
0

> <docking_score>
-9.070516586303711

> <overlap_score>
0.9698755741119385

$$$$
BENZO_401_1
  -OEChem-08232013553D

 60 64  0     0  0  0  0  0  0999 V2000
   14.2996   -1.3839   24.0679 C   0  0  0  0  0  0  0  0  0  0  0  0
    4.2460    1.7520   20.8250 C   0  0  0  0  0  0  0  0  0  0  0  0
   13.9343   -0.3216   24.8947 C   0  0  0  0  0  0  0  0  0  0  0  0
   13.4794   -1.7518   23.0013 C   0  0  0  0  0  0  0  0  0  0  0  0
    3.8860    2.1050   19.5250 C   0  0  0  0  0  0  0  0  0  0  0  0
    5.3890    1.0010   21.0690 C   0  0  0  0  0  0  0  0  0  0  0  0
   12.7486    0.3729   24.6549 C   0  0  0  0  0  0  0  0  0  0  0  0
   12.2937   -1.0573   22.7616 C   0  0  0  0  0  0  0  0  0  0  0  0
    4.6610    1.7170   18.4380 C   0  0  0  0  0  0  0  0  0  0  0  0
    9.1890   -3.5540   24.0140 C   0  0  0  0  0  0  0  0  0  0  0  0
    7.8700   -2.0610   25.3550 C   0  0  0  0  0  0  0  0  0  0  0  0
    9.5890   -2.4950   23.2210 C   0  0  0  0  0  0  0  0  0  0  0  0
    8.2550   -1.0010   24.5520 C   0  0  0  0  0  0  0  0  0  0  0  0
    6.1460    0.6070   19.9750 C   0  0  0  0  0  0  0  0  0  0  0  0
   11.9283    0.0051   23.5884 C   0  0  0  0  0  0  0  0  0  0  0  0
    5.7970    0.9500   18.6730 C   0  0  0  0  0  0  0  0  0  0  0  0
    8.3450   -3.3440   25.0980 C   0  0  0  0  0  0  0  0  0  0  0  0
    9.1280   -1.2090   23.4870 C   0  0  0  0  0  0  0  0  0  0  0  0
    7.2710   -0.1460   19.8310 C   0  0  0  0  0  0  0  0  0  0  0  0
    9.0430    0.2380   21.4940 C   0  0  0  0  0  0  0  0  0  0  0  0
    7.5748   -4.8280   28.7278 C   0  0  0  0  0  0  0  0  0  0  0  0
    8.9776   -4.7555   28.1204 C   0  0  0  0  0  0  0  0  0  0  0  0
    6.5554   -4.0713   27.8732 C   0  0  0  0  0  0  0  0  0  0  0  0
    8.9620   -5.1961   26.6568 C   0  0  0  0  0  0  0  0  0  0  0  0
    6.6009   -4.5253   26.4110 C   0  0  0  0  0  0  0  0  0  0  0  0
   10.6518    0.7520   23.3299 C   0  0  0  0  0  0  0  0  0  0  0  0
    8.0950   -0.7700   20.8440 C   0  0  0  0  0  0  0  0  0  0  0  0
    6.7100    0.3850   17.8100 N   0  0  0  0  0  0  0  0  0  0  0  0
    7.5840   -0.2700   18.5160 N   0  0  0  0  0  0  0  0  0  0  0  0
    7.9770   -4.4029   25.9162 N   0  0  0  0  0  0  0  0  0  0  0  0
    9.5820   -0.1080   22.7000 N   0  0  0  0  0  0  0  0  0  0  0  0
    9.2950    1.3000   20.9480 O   0  0  0  0  0  0  0  0  0  0  0  0
   15.2236   -1.9237   24.2539 H   0  0  0  0  0  0  0  0  0  0  0  0
    3.6316    2.0634   21.6529 H   0  0  0  0  0  0  0  0  0  0  0  0
   14.5734   -0.0343   25.7245 H   0  0  0  0  0  0  0  0  0  0  0  0
   13.7641   -2.5781   22.3568 H   0  0  0  0  0  0  0  0  0  0  0  0
    2.9935    2.6871   19.3570 H   0  0  0  0  0  0  0  0  0  0  0  0
    5.6758    0.7297   22.1281 H   0  0  0  0  0  0  0  0  0  0  0  0
   12.4719    1.1992   25.3044 H   0  0  0  0  0  0  0  0  0  0  0  0
   11.6608   -1.3510   21.9284 H   0  0  0  0  0  0  0  0  0  0  0  0
    4.3688    2.0204   17.3972 H   0  0  0  0  0  0  0  0  0  0  0  0
    9.5426   -4.5618   23.7797 H   0  0  0  0  0  0  0  0  0  0  0  0
    7.1914   -1.8824   26.1903 H   0  0  0  0  0  0  0  0  0  0  0  0
   10.2669   -2.6745   22.3854 H   0  0  0  0  0  0  0  0  0  0  0  0
    7.8690   -0.0020   24.7587 H   0  0  0  0  0  0  0  0  0  0  0  0
    7.2681   -5.8807   28.8239 H   0  0  0  0  0  0  0  0  0  0  0  0
    7.5891   -4.4101   29.7448 H   0  0  0  0  0  0  0  0  0  0  0  0
    9.3554   -3.7320   28.1920 H   0  0  0  0  0  0  0  0  0  0  0  0
    9.6558   -5.3943   28.6900 H   0  0  0  0  0  0  0  0  0  0  0  0
    5.5496   -4.2322   28.2751 H   0  0  0  0  0  0  0  0  0  0  0  0
    6.7545   -2.9948   27.9293 H   0  0  0  0  0  0  0  0  0  0  0  0
    9.9612   -5.0560   26.2363 H   0  0  0  0  0  0  0  0  0  0  0  0
    8.7097   -6.2583   26.5922 H   0  0  0  0  0  0  0  0  0  0  0  0
    6.2649   -5.5600   26.3335 H   0  0  0  0  0  0  0  0  0  0  0  0
    5.9271   -3.8964   25.8283 H   0  0  0  0  0  0  0  0  0  0  0  0
   10.2524    1.1679   24.2614 H   0  0  0  0  0  0  0  0  0  0  0  0
   10.8186    1.5899   22.6448 H   0  0  0  0  0  0  0  0  0  0  0  0
    7.4659   -1.2025   21.6292 H   0  0  0  0  0  0  0  0  0  0  0  0
    8.6969   -1.5747   20.4087 H   0  0  0  0  0  0  0  0  0  0  0  0
    8.3291   -0.7564   18.0959 H   0  0  0  0  0  0  0  0  0  0  0  0
  1  3  1  0  0  0  0
  1  4  2  0  0  0  0
  2  5  1  0  0  0  0
  2  6  2  0  0  0  0
  3  7  2  0  0  0  0
  4  8  1  0  0  0  0
  5  9  2  0  0  0  0
  6 14  1  0  0  0  0
  7 15  1  0  0  0  0
  8 15  2  0  0  0  0
  9 16  1  0  0  0  0
 10 12  2  0  0  0  0
 10 17  1  0  0  0  0
 11 13  1  0  0  0  0
 11 17  2  0  0  0  0
 12 18  1  0  0  0  0
 13 18  2  0  0  0  0
 14 16  1  0  0  0  0
 14 19  2  0  0  0  0
 15 26  1  0  0  0  0
 16 28  2  0  0  0  0
 17 30  1  0  0  0  0
 18 31  1  0  0  0  0
 19 27  1  0  0  0  0
 19 29  1  0  0  0  0
 20 27  1  0  0  0  0
 20 31  1  0  0  0  0
 20 32  2  0  0  0  0
 21 22  1  0  0  0  0
 21 23  1  0  0  0  0
 22 24  1  0  0  0  0
 23 25  1  0  0  0  0
 24 30  1  0  0  0  0
 25 30  1  0  0  0  0
 26 31  1  0  0  0  0
 28 29  1  0  0  0  0
  1 33  1  0  0  0  0
  2 34  1  0  0  0  0
  3 35  1  0  0  0  0
  4 36  1  0  0  0  0
  5 37  1  0  0  0  0
  6 38  1  0  0  0  0
  7 39  1  0  0  0  0
  8 40  1  0  0  0  0
  9 41  1  0  0  0  0
 10 42  1  0  0  0  0
 11 43  1  0  0  0  0
 12 44  1  0  0  0  0
 13 45  1  0  0  0  0
 21 46  1  0  0  0  0
 21 47  1  0  0  0  0
 22 48  1  0  0  0  0
 22 49  1  0  0  0  0
 23 50  1  0  0  0  0
 23 51  1  0  0  0  0
 24 52  1  0  0  0  0
 24 53  1  0  0  0  0
 25 54  1  0  0  0  0
 25 55  1  0  0  0  0
 26 56  1  0  0  0  0
 26 57  1  0  0  0  0
 27 58  1  0  0  0  0
 27 59  1  0  0  0  0
 29 60  1  0  0  0  0
M  END
> <clash_score>
0

> <docking_score>
-9.33755111694336

> <overlap_score>
0.9801599979400635

$$$$
BENZO_398_1
  -OEChem-08232013553D

 55 58  0     0  0  0  0  0  0999 V2000
    4.2460    1.7520   20.8250 C   0  0  0  0  0  0  0  0  0  0  0  0
    3.8860    2.1050   19.5250 C   0  0  0  0  0  0  0  0  0  0  0  0
   13.6802   -1.0867   24.8643 C   0  0  0  0  0  0  0  0  0  0  0  0
    5.3890    1.0010   21.0690 C   0  0  0  0  0  0  0  0  0  0  0  0
   12.5346   -0.3063   24.7091 C   0  0  0  0  0  0  0  0  0  0  0  0
    4.6610    1.7170   18.4380 C   0  0  0  0  0  0  0  0  0  0  0  0
    9.1890   -3.5540   24.0140 C   0  0  0  0  0  0  0  0  0  0  0  0
    7.8700   -2.0610   25.3550 C   0  0  0  0  0  0  0  0  0  0  0  0
    9.5890   -2.4950   23.2210 C   0  0  0  0  0  0  0  0  0  0  0  0
    8.2550   -1.0010   24.5520 C   0  0  0  0  0  0  0  0  0  0  0  0
   14.2585   -1.7048   23.7555 C   0  0  0  0  0  0  0  0  0  0  0  0
   12.5452   -0.7623   22.3366 C   0  0  0  0  0  0  0  0  0  0  0  0
    6.1460    0.6070   19.9750 C   0  0  0  0  0  0  0  0  0  0  0  0
   11.9671   -0.1441   23.4453 C   0  0  0  0  0  0  0  0  0  0  0  0
    5.7970    0.9500   18.6730 C   0  0  0  0  0  0  0  0  0  0  0  0
    8.3450   -3.3440   25.0980 C   0  0  0  0  0  0  0  0  0  0  0  0
    9.1280   -1.2090   23.4870 C   0  0  0  0  0  0  0  0  0  0  0  0
   13.6909   -1.5427   22.4917 C   0  0  0  0  0  0  0  0  0  0  0  0
    7.2710   -0.1460   19.8310 C   0  0  0  0  0  0  0  0  0  0  0  0
    9.0430    0.2380   21.4940 C   0  0  0  0  0  0  0  0  0  0  0  0
    8.2020   -4.5570   27.2975 C   0  0  0  0  0  0  0  0  0  0  0  0
    7.8876   -6.0892   29.2873 C   0  0  0  0  0  0  0  0  0  0  0  0
   10.7332    0.6950   23.2793 C   0  0  0  0  0  0  0  0  0  0  0  0
    8.0950   -0.7700   20.8440 C   0  0  0  0  0  0  0  0  0  0  0  0
    7.6337   -5.8735   27.8062 C   0  0  0  0  0  0  0  0  0  0  0  0
    6.7100    0.3850   17.8100 N   0  0  0  0  0  0  0  0  0  0  0  0
    7.5840   -0.2700   18.5160 N   0  0  0  0  0  0  0  0  0  0  0  0
    7.9771   -4.4058   25.9196 N   0  0  0  0  0  0  0  0  0  0  0  0
    9.5820   -0.1080   22.7000 N   0  0  0  0  0  0  0  0  0  0  0  0
    9.2950    1.3000   20.9480 O   0  0  0  0  0  0  0  0  0  0  0  0
    8.7738   -3.7653   28.0397 O   0  0  0  0  0  0  0  0  0  0  0  0
   14.4041   -2.3065   21.1243 Cl  0  0  0  0  0  0  0  0  0  0  0  0
    3.6316    2.0634   21.6529 H   0  0  0  0  0  0  0  0  0  0  0  0
    2.9935    2.6871   19.3570 H   0  0  0  0  0  0  0  0  0  0  0  0
   14.1218   -1.2128   25.8486 H   0  0  0  0  0  0  0  0  0  0  0  0
    5.6758    0.7297   22.1281 H   0  0  0  0  0  0  0  0  0  0  0  0
   12.0907    0.1716   25.5786 H   0  0  0  0  0  0  0  0  0  0  0  0
    4.3688    2.0204   17.3972 H   0  0  0  0  0  0  0  0  0  0  0  0
    9.5436   -4.5614   23.7799 H   0  0  0  0  0  0  0  0  0  0  0  0
    7.1918   -1.8823   26.1906 H   0  0  0  0  0  0  0  0  0  0  0  0
   10.2676   -2.6754   22.3861 H   0  0  0  0  0  0  0  0  0  0  0  0
    7.8686   -0.0026   24.7598 H   0  0  0  0  0  0  0  0  0  0  0  0
   15.1512   -2.3104   23.8914 H   0  0  0  0  0  0  0  0  0  0  0  0
   12.0992   -0.6324   21.3532 H   0  0  0  0  0  0  0  0  0  0  0  0
    8.9603   -6.0845   29.5072 H   0  0  0  0  0  0  0  0  0  0  0  0
    7.4771   -7.0516   29.6082 H   0  0  0  0  0  0  0  0  0  0  0  0
    7.4189   -5.3008   29.8855 H   0  0  0  0  0  0  0  0  0  0  0  0
   10.4115    1.1036   24.2435 H   0  0  0  0  0  0  0  0  0  0  0  0
   10.9216    1.5434   22.6131 H   0  0  0  0  0  0  0  0  0  0  0  0
    7.4774   -1.2066   21.6419 H   0  0  0  0  0  0  0  0  0  0  0  0
    8.7084   -1.5788   20.4215 H   0  0  0  0  0  0  0  0  0  0  0  0
    6.5544   -5.8829   27.6153 H   0  0  0  0  0  0  0  0  0  0  0  0
    8.0867   -6.6917   27.2346 H   0  0  0  0  0  0  0  0  0  0  0  0
    8.3291   -0.7564   18.0959 H   0  0  0  0  0  0  0  0  0  0  0  0
    7.4775   -5.1795   25.4660 H   0  0  0  0  0  0  0  0  0  0  0  0
  1  2  1  0  0  0  0
  1  4  2  0  0  0  0
  2  6  2  0  0  0  0
  3  5  2  0  0  0  0
  3 11  1  0  0  0  0
  4 13  1  0  0  0  0
  5 14  1  0  0  0  0
  6 15  1  0  0  0  0
  7  9  2  0  0  0  0
  7 16  1  0  0  0  0
  8 10  1  0  0  0  0
  8 16  2  0  0  0  0
  9 17  1  0  0  0  0
 10 17  2  0  0  0  0
 11 18  2  0  0  0  0
 12 14  2  0  0  0  0
 12 18  1  0  0  0  0
 13 15  1  0  0  0  0
 13 19  2  0  0  0  0
 14 23  1  0  0  0  0
 15 26  2  0  0  0  0
 16 28  1  0  0  0  0
 17 29  1  0  0  0  0
 18 32  1  0  0  0  0
 19 24  1  0  0  0  0
 19 27  1  0  0  0  0
 20 24  1  0  0  0  0
 20 29  1  0  0  0  0
 20 30  2  0  0  0  0
 21 25  1  0  0  0  0
 21 28  1  0  0  0  0
 21 31  2  0  0  0  0
 22 25  1  0  0  0  0
 23 29  1  0  0  0  0
 26 27  1  0  0  0  0
  1 33  1  0  0  0  0
  2 34  1  0  0  0  0
  3 35  1  0  0  0  0
  4 36  1  0  0  0  0
  5 37  1  0  0  0  0
  6 38  1  0  0  0  0
  7 39  1  0  0  0  0
  8 40  1  0  0  0  0
  9 41  1  0  0  0  0
 10 42  1  0  0  0  0
 11 43  1  0  0  0  0
 12 44  1  0  0  0  0
 22 45  1  0  0  0  0
 22 46  1  0  0  0  0
 22 47  1  0  0  0  0
 23 48  1  0  0  0  0
 23 49  1  0  0  0  0
 24 50  1  0  0  0  0
 24 51  1  0  0  0  0
 25 52  1  0  0  0  0
 25 53  1  0  0  0  0
 27 54  1  0  0  0  0
 28 55  1  0  0  0  0
M  END
> <clash_score>
0

> <docking_score>
-8.776786804199219

> <overlap_score>
1.0071394443511963

$$$$
BENZO_400_1
  -OEChem-08232013553D

 57 61  0     0  0  0  0  0  0999 V2000
    4.2460    1.7520   20.8250 C   0  0  0  0  0  0  0  0  0  0  0  0
    3.8860    2.1050   19.5250 C   0  0  0  0  0  0  0  0  0  0  0  0
    5.3890    1.0010   21.0690 C   0  0  0  0  0  0  0  0  0  0  0  0
    4.6610    1.7170   18.4380 C   0  0  0  0  0  0  0  0  0  0  0  0
    9.1890   -3.5540   24.0140 C   0  0  0  0  0  0  0  0  0  0  0  0
    7.8700   -2.0610   25.3550 C   0  0  0  0  0  0  0  0  0  0  0  0
    9.5890   -2.4950   23.2210 C   0  0  0  0  0  0  0  0  0  0  0  0
    8.2550   -1.0010   24.5520 C   0  0  0  0  0  0  0  0  0  0  0  0
   12.5218   -0.1320   24.8765 C   0  0  0  0  0  0  0  0  0  0  0  0
   13.6880   -0.8639   24.8336 C   0  0  0  0  0  0  0  0  0  0  0  0
   12.6638   -0.6270   22.6099 C   0  0  0  0  0  0  0  0  0  0  0  0
    6.1460    0.6070   19.9750 C   0  0  0  0  0  0  0  0  0  0  0  0
   11.9283    0.0051   23.5884 C   0  0  0  0  0  0  0  0  0  0  0  0
    5.7970    0.9500   18.6730 C   0  0  0  0  0  0  0  0  0  0  0  0
    8.3450   -3.3440   25.0980 C   0  0  0  0  0  0  0  0  0  0  0  0
    9.1280   -1.2090   23.4870 C   0  0  0  0  0  0  0  0  0  0  0  0
    7.2710   -0.1460   19.8310 C   0  0  0  0  0  0  0  0  0  0  0  0
    9.0430    0.2380   21.4940 C   0  0  0  0  0  0  0  0  0  0  0  0
    7.5748   -4.8280   28.7278 C   0  0  0  0  0  0  0  0  0  0  0  0
    8.9776   -4.7555   28.1204 C   0  0  0  0  0  0  0  0  0  0  0  0
    6.5554   -4.0713   27.8732 C   0  0  0  0  0  0  0  0  0  0  0  0
    8.9620   -5.1961   26.6568 C   0  0  0  0  0  0  0  0  0  0  0  0
    6.6009   -4.5253   26.4110 C   0  0  0  0  0  0  0  0  0  0  0  0
   10.6518    0.7520   23.3299 C   0  0  0  0  0  0  0  0  0  0  0  0
    8.0950   -0.7700   20.8440 C   0  0  0  0  0  0  0  0  0  0  0  0
    6.7100    0.3850   17.8100 N   0  0  0  0  0  0  0  0  0  0  0  0
    7.5840   -0.2700   18.5160 N   0  0  0  0  0  0  0  0  0  0  0  0
    7.9770   -4.4029   25.9162 N   0  0  0  0  0  0  0  0  0  0  0  0
    9.5820   -0.1080   22.7000 N   0  0  0  0  0  0  0  0  0  0  0  0
    9.2950    1.3000   20.9480 O   0  0  0  0  0  0  0  0  0  0  0  0
   14.0634   -1.3820   23.2452 S   0  0  0  0  0  0  0  0  0  0  0  0
    3.6316    2.0634   21.6529 H   0  0  0  0  0  0  0  0  0  0  0  0
    2.9935    2.6871   19.3570 H   0  0  0  0  0  0  0  0  0  0  0  0
    5.6758    0.7297   22.1281 H   0  0  0  0  0  0  0  0  0  0  0  0
    4.3688    2.0204   17.3972 H   0  0  0  0  0  0  0  0  0  0  0  0
    9.5426   -4.5618   23.7797 H   0  0  0  0  0  0  0  0  0  0  0  0
    7.1914   -1.8824   26.1903 H   0  0  0  0  0  0  0  0  0  0  0  0
   10.2669   -2.6745   22.3854 H   0  0  0  0  0  0  0  0  0  0  0  0
    7.8690   -0.0020   24.7587 H   0  0  0  0  0  0  0  0  0  0  0  0
   12.1173    0.2838   25.7907 H   0  0  0  0  0  0  0  0  0  0  0  0
   14.3380   -1.1184   25.6588 H   0  0  0  0  0  0  0  0  0  0  0  0
   12.4505   -0.6831   21.5514 H   0  0  0  0  0  0  0  0  0  0  0  0
    7.2681   -5.8807   28.8239 H   0  0  0  0  0  0  0  0  0  0  0  0
    7.5891   -4.4101   29.7448 H   0  0  0  0  0  0  0  0  0  0  0  0
    9.3554   -3.7320   28.1920 H   0  0  0  0  0  0  0  0  0  0  0  0
    9.6558   -5.3943   28.6900 H   0  0  0  0  0  0  0  0  0  0  0  0
    5.5496   -4.2322   28.2751 H   0  0  0  0  0  0  0  0  0  0  0  0
    6.7545   -2.9948   27.9293 H   0  0  0  0  0  0  0  0  0  0  0  0
    9.9612   -5.0560   26.2363 H   0  0  0  0  0  0  0  0  0  0  0  0
    8.7097   -6.2583   26.5922 H   0  0  0  0  0  0  0  0  0  0  0  0
    6.2649   -5.5600   26.3335 H   0  0  0  0  0  0  0  0  0  0  0  0
    5.9271   -3.8964   25.8283 H   0  0  0  0  0  0  0  0  0  0  0  0
   10.2524    1.1679   24.2614 H   0  0  0  0  0  0  0  0  0  0  0  0
   10.8186    1.5899   22.6448 H   0  0  0  0  0  0  0  0  0  0  0  0
    7.4659   -1.2025   21.6292 H   0  0  0  0  0  0  0  0  0  0  0  0
    8.6969   -1.5747   20.4087 H   0  0  0  0  0  0  0  0  0  0  0  0
    8.3291   -0.7564   18.0959 H   0  0  0  0  0  0  0  0  0  0  0  0
  1  2  1  0  0  0  0
  1  3  2  0  0  0  0
  2  4  2  0  0  0  0
  3 12  1  0  0  0  0
  4 14  1  0  0  0  0
  5  7  2  0  0  0  0
  5 15  1  0  0  0  0
  6  8  1  0  0  0  0
  6 15  2  0  0  0  0
  7 16  1  0  0  0  0
  8 16  2  0  0  0  0
  9 10  2  0  0  0  0
  9 13  1  0  0  0  0
 10 31  1  0  0  0  0
 11 13  2  0  0  0  0
 11 31  1  0  0  0  0
 12 14  1  0  0  0  0
 12 17  2  0  0  0  0
 13 24  1  0  0  0  0
 14 26  2  0  0  0  0
 15 28  1  0  0  0  0
 16 29  1  0  0  0  0
 17 25  1  0  0  0  0
 17 27  1  0  0  0  0
 18 25  1  0  0  0  0
 18 29  1  0  0  0  0
 18 30  2  0  0  0  0
 19 20  1  0  0  0  0
 19 21  1  0  0  0  0
 20 22  1  0  0  0  0
 21 23  1  0  0  0  0
 22 28  1  0  0  0  0
 23 28  1  0  0  0  0
 24 29  1  0  0  0  0
 26 27  1  0  0  0  0
  1 32  1  0  0  0  0
  2 33  1  0  0  0  0
  3 34  1  0  0  0  0
  4 35  1  0  0  0  0
  5 36  1  0  0  0  0
  6 37  1  0  0  0  0
  7 38  1  0  0  0  0
  8 39  1  0  0  0  0
  9 40  1  0  0  0  0
 10 41  1  0  0  0  0
 11 42  1  0  0  0  0
 19 43  1  0  0  0  0
 19 44  1  0  0  0  0
 20 45  1  0  0  0  0
 20 46  1  0  0  0  0
 21 47  1  0  0  0  0
 21 48  1  0  0  0  0
 22 49  1  0  0  0  0
 22 50  1  0  0  0  0
 23 51  1  0  0  0  0
 23 52  1  0  0  0  0
 24 53  1  0  0  0  0
 24 54  1  0  0  0  0
 25 55  1  0  0  0  0
 25 56  1  0  0  0  0
 27 57  1  0  0  0  0
M  END
> <clash_score>
0

> <docking_score>
-9.220613479614258

> <overlap_score>
0.9644513726234436

$$$$
BENZO_405_1
  -OEChem-08232013553D

 48 51  0     0  0  0  0  0  0999 V2000
   14.2591   -1.7044   23.7531 C   0  0  0  0  0  0  0  0  0  0  0  0
    4.2460    1.7520   20.8250 C   0  0  0  0  0  0  0  0  0  0  0  0
   14.0215   -0.6360   24.6177 C   0  0  0  0  0  0  0  0  0  0  0  0
   13.3508   -1.9926   22.7345 C   0  0  0  0  0  0  0  0  0  0  0  0
    3.8860    2.1050   19.5250 C   0  0  0  0  0  0  0  0  0  0  0  0
    5.3890    1.0010   21.0690 C   0  0  0  0  0  0  0  0  0  0  0  0
   12.8755    0.1441   24.4639 C   0  0  0  0  0  0  0  0  0  0  0  0
   12.2047   -1.2125   22.5806 C   0  0  0  0  0  0  0  0  0  0  0  0
    9.1890   -3.5540   24.0140 C   0  0  0  0  0  0  0  0  0  0  0  0
    7.8700   -2.0610   25.3550 C   0  0  0  0  0  0  0  0  0  0  0  0
    4.6610    1.7170   18.4380 C   0  0  0  0  0  0  0  0  0  0  0  0
    9.5890   -2.4950   23.2210 C   0  0  0  0  0  0  0  0  0  0  0  0
    8.2550   -1.0010   24.5520 C   0  0  0  0  0  0  0  0  0  0  0  0
    6.1460    0.6070   19.9750 C   0  0  0  0  0  0  0  0  0  0  0  0
    8.3450   -3.3440   25.0980 C   0  0  0  0  0  0  0  0  0  0  0  0
   11.9671   -0.1441   23.4453 C   0  0  0  0  0  0  0  0  0  0  0  0
    5.7970    0.9500   18.6730 C   0  0  0  0  0  0  0  0  0  0  0  0
    9.1280   -1.2090   23.4870 C   0  0  0  0  0  0  0  0  0  0  0  0
    7.2710   -0.1460   19.8310 C   0  0  0  0  0  0  0  0  0  0  0  0
    9.0430    0.2380   21.4940 C   0  0  0  0  0  0  0  0  0  0  0  0
    7.9522   -4.4794   25.9764 C   0  0  0  0  0  0  0  0  0  0  0  0
   10.7332    0.6950   23.2793 C   0  0  0  0  0  0  0  0  0  0  0  0
    8.0950   -0.7700   20.8440 C   0  0  0  0  0  0  0  0  0  0  0  0
    6.7100    0.3850   17.8100 N   0  0  0  0  0  0  0  0  0  0  0  0
    7.5840   -0.2700   18.5160 N   0  0  0  0  0  0  0  0  0  0  0  0
    9.5820   -0.1080   22.7000 N   0  0  0  0  0  0  0  0  0  0  0  0
    9.2950    1.3000   20.9480 O   0  0  0  0  0  0  0  0  0  0  0  0
   15.1522   -2.3109   23.8722 H   0  0  0  0  0  0  0  0  0  0  0  0
    3.6316    2.0634   21.6529 H   0  0  0  0  0  0  0  0  0  0  0  0
   14.7292   -0.4107   25.4102 H   0  0  0  0  0  0  0  0  0  0  0  0
   13.5360   -2.8237   22.0604 H   0  0  0  0  0  0  0  0  0  0  0  0
    2.9935    2.6871   19.3570 H   0  0  0  0  0  0  0  0  0  0  0  0
    5.6758    0.7297   22.1281 H   0  0  0  0  0  0  0  0  0  0  0  0
   12.6984    0.9745   25.1424 H   0  0  0  0  0  0  0  0  0  0  0  0
   11.5025   -1.4446   21.7843 H   0  0  0  0  0  0  0  0  0  0  0  0
    9.5403   -4.5627   23.7809 H   0  0  0  0  0  0  0  0  0  0  0  0
    7.1911   -1.8848   26.1904 H   0  0  0  0  0  0  0  0  0  0  0  0
    4.3688    2.0204   17.3972 H   0  0  0  0  0  0  0  0  0  0  0  0
   10.2682   -2.6746   22.3865 H   0  0  0  0  0  0  0  0  0  0  0  0
    7.8684   -0.0022   24.7594 H   0  0  0  0  0  0  0  0  0  0  0  0
    8.6668   -4.5891   26.8013 H   0  0  0  0  0  0  0  0  0  0  0  0
    6.9513   -4.3276   26.4010 H   0  0  0  0  0  0  0  0  0  0  0  0
    7.9196   -5.4231   25.4163 H   0  0  0  0  0  0  0  0  0  0  0  0
   10.4115    1.1036   24.2435 H   0  0  0  0  0  0  0  0  0  0  0  0
   10.9216    1.5434   22.6131 H   0  0  0  0  0  0  0  0  0  0  0  0
    7.4774   -1.2066   21.6419 H   0  0  0  0  0  0  0  0  0  0  0  0
    8.7084   -1.5788   20.4215 H   0  0  0  0  0  0  0  0  0  0  0  0
    8.3291   -0.7564   18.0959 H   0  0  0  0  0  0  0  0  0  0  0  0
  1  3  1  0  0  0  0
  1  4  2  0  0  0  0
  2  5  1  0  0  0  0
  2  6  2  0  0  0  0
  3  7  2  0  0  0  0
  4  8  1  0  0  0  0
  5 11  2  0  0  0  0
  6 14  1  0  0  0  0
  7 16  1  0  0  0  0
  8 16  2  0  0  0  0
  9 12  2  0  0  0  0
  9 15  1  0  0  0  0
 10 13  1  0  0  0  0
 10 15  2  0  0  0  0
 11 17  1  0  0  0  0
 12 18  1  0  0  0  0
 13 18  2  0  0  0  0
 14 17  1  0  0  0  0
 14 19  2  0  0  0  0
 15 21  1  0  0  0  0
 16 22  1  0  0  0  0
 17 24  2  0  0  0  0
 18 26  1  0  0  0  0
 19 23  1  0  0  0  0
 19 25  1  0  0  0  0
 20 23  1  0  0  0  0
 20 26  1  0  0  0  0
 20 27  2  0  0  0  0
 22 26  1  0  0  0  0
 24 25  1  0  0  0  0
  1 28  1  0  0  0  0
  2 29  1  0  0  0  0
  3 30  1  0  0  0  0
  4 31  1  0  0  0  0
  5 32  1  0  0  0  0
  6 33  1  0  0  0  0
  7 34  1  0  0  0  0
  8 35  1  0  0  0  0
  9 36  1  0  0  0  0
 10 37  1  0  0  0  0
 11 38  1  0  0  0  0
 12 39  1  0  0  0  0
 13 40  1  0  0  0  0
 21 41  1  0  0  0  0
 21 42  1  0  0  0  0
 21 43  1  0  0  0  0
 22 44  1  0  0  0  0
 22 45  1  0  0  0  0
 23 46  1  0  0  0  0
 23 47  1  0  0  0  0
 25 48  1  0  0  0  0
M  END
> <clash_score>
0

> <docking_score>
-9.226685523986816

> <overlap_score>
0.897782027721405

$$$$
BENZO_404_1
  -OEChem-08232013553D

 45 48  0     0  0  0  0  0  0999 V2000
    4.2460    1.7520   20.8250 C   0  0  0  0  0  0  0  0  0  0  0  0
    3.8860    2.1050   19.5250 C   0  0  0  0  0  0  0  0  0  0  0  0
    5.3890    1.0010   21.0690 C   0  0  0  0  0  0  0  0  0  0  0  0
    9.1890   -3.5540   24.0140 C   0  0  0  0  0  0  0  0  0  0  0  0
    7.8700   -2.0610   25.3550 C   0  0  0  0  0  0  0  0  0  0  0  0
    4.6610    1.7170   18.4380 C   0  0  0  0  0  0  0  0  0  0  0  0
    9.5890   -2.4950   23.2210 C   0  0  0  0  0  0  0  0  0  0  0  0
    8.2550   -1.0010   24.5520 C   0  0  0  0  0  0  0  0  0  0  0  0
   12.6150   -0.3657   24.6948 C   0  0  0  0  0  0  0  0  0  0  0  0
   13.7247   -1.1718   24.5664 C   0  0  0  0  0  0  0  0  0  0  0  0
   12.6064   -0.7892   22.4094 C   0  0  0  0  0  0  0  0  0  0  0  0
    6.1460    0.6070   19.9750 C   0  0  0  0  0  0  0  0  0  0  0  0
    8.3450   -3.3440   25.0980 C   0  0  0  0  0  0  0  0  0  0  0  0
   11.9671   -0.1441   23.4453 C   0  0  0  0  0  0  0  0  0  0  0  0
    5.7970    0.9500   18.6730 C   0  0  0  0  0  0  0  0  0  0  0  0
    9.1280   -1.2090   23.4870 C   0  0  0  0  0  0  0  0  0  0  0  0
    7.2710   -0.1460   19.8310 C   0  0  0  0  0  0  0  0  0  0  0  0
    9.0430    0.2380   21.4940 C   0  0  0  0  0  0  0  0  0  0  0  0
    7.9522   -4.4794   25.9764 C   0  0  0  0  0  0  0  0  0  0  0  0
   10.7332    0.6950   23.2793 C   0  0  0  0  0  0  0  0  0  0  0  0
    8.0950   -0.7700   20.8440 C   0  0  0  0  0  0  0  0  0  0  0  0
    6.7100    0.3850   17.8100 N   0  0  0  0  0  0  0  0  0  0  0  0
    7.5840   -0.2700   18.5160 N   0  0  0  0  0  0  0  0  0  0  0  0
    9.5820   -0.1080   22.7000 N   0  0  0  0  0  0  0  0  0  0  0  0
    9.2950    1.3000   20.9480 O   0  0  0  0  0  0  0  0  0  0  0  0
   13.9816   -1.6578   22.9446 S   0  0  0  0  0  0  0  0  0  0  0  0
    3.6316    2.0634   21.6529 H   0  0  0  0  0  0  0  0  0  0  0  0
    2.9935    2.6871   19.3570 H   0  0  0  0  0  0  0  0  0  0  0  0
    5.6758    0.7297   22.1281 H   0  0  0  0  0  0  0  0  0  0  0  0
    9.5403   -4.5627   23.7809 H   0  0  0  0  0  0  0  0  0  0  0  0
    7.1911   -1.8848   26.1904 H   0  0  0  0  0  0  0  0  0  0  0  0
    4.3688    2.0204   17.3972 H   0  0  0  0  0  0  0  0  0  0  0  0
   10.2682   -2.6746   22.3865 H   0  0  0  0  0  0  0  0  0  0  0  0
    7.8684   -0.0022   24.7594 H   0  0  0  0  0  0  0  0  0  0  0  0
   12.2875    0.0438   25.6420 H   0  0  0  0  0  0  0  0  0  0  0  0
   14.3972   -1.4981   25.3471 H   0  0  0  0  0  0  0  0  0  0  0  0
   12.3357   -0.7936   21.3626 H   0  0  0  0  0  0  0  0  0  0  0  0
    8.6668   -4.5891   26.8013 H   0  0  0  0  0  0  0  0  0  0  0  0
    6.9513   -4.3276   26.4010 H   0  0  0  0  0  0  0  0  0  0  0  0
    7.9196   -5.4231   25.4163 H   0  0  0  0  0  0  0  0  0  0  0  0
   10.4115    1.1036   24.2435 H   0  0  0  0  0  0  0  0  0  0  0  0
   10.9216    1.5434   22.6131 H   0  0  0  0  0  0  0  0  0  0  0  0
    7.4774   -1.2066   21.6419 H   0  0  0  0  0  0  0  0  0  0  0  0
    8.7084   -1.5788   20.4215 H   0  0  0  0  0  0  0  0  0  0  0  0
    8.3291   -0.7564   18.0959 H   0  0  0  0  0  0  0  0  0  0  0  0
  1  2  1  0  0  0  0
  1  3  2  0  0  0  0
  2  6  2  0  0  0  0
  3 12  1  0  0  0  0
  4  7  2  0  0  0  0
  4 13  1  0  0  0  0
  5  8  1  0  0  0  0
  5 13  2  0  0  0  0
  6 15  1  0  0  0  0
  7 16  1  0  0  0  0
  8 16  2  0  0  0  0
  9 10  2  0  0  0  0
  9 14  1  0  0  0  0
 10 26  1  0  0  0  0
 11 14  2  0  0  0  0
 11 26  1  0  0  0  0
 12 15  1  0  0  0  0
 12 17  2  0  0  0  0
 13 19  1  0  0  0  0
 14 20  1  0  0  0  0
 15 22  2  0  0  0  0
 16 24  1  0  0  0  0
 17 21  1  0  0  0  0
 17 23  1  0  0  0  0
 18 21  1  0  0  0  0
 18 24  1  0  0  0  0
 18 25  2  0  0  0  0
 20 24  1  0  0  0  0
 22 23  1  0  0  0  0
  1 27  1  0  0  0  0
  2 28  1  0  0  0  0
  3 29  1  0  0  0  0
  4 30  1  0  0  0  0
  5 31  1  0  0  0  0
  6 32  1  0  0  0  0
  7 33  1  0  0  0  0
  8 34  1  0  0  0  0
  9 35  1  0  0  0  0
 10 36  1  0  0  0  0
 11 37  1  0  0  0  0
 19 38  1  0  0  0  0
 19 39  1  0  0  0  0
 19 40  1  0  0  0  0
 20 41  1  0  0  0  0
 20 42  1  0  0  0  0
 21 43  1  0  0  0  0
 21 44  1  0  0  0  0
 23 45  1  0  0  0  0
M  END
> <clash_score>
0

> <docking_score>
-8.770441055297852

> <overlap_score>
0.8833129405975342

$$$$
BENZO_403_1
  -OEChem-08232013553D

 60 64  0     0  0  0  0  0  0999 V2000
    4.2460    1.7520   20.8250 C   0  0  0  0  0  0  0  0  0  0  0  0
    3.8860    2.1050   19.5250 C   0  0  0  0  0  0  0  0  0  0  0  0
    5.3890    1.0010   21.0690 C   0  0  0  0  0  0  0  0  0  0  0  0
    4.6610    1.7170   18.4380 C   0  0  0  0  0  0  0  0  0  0  0  0
    9.1890   -3.5540   24.0140 C   0  0  0  0  0  0  0  0  0  0  0  0
    7.8700   -2.0610   25.3550 C   0  0  0  0  0  0  0  0  0  0  0  0
    9.5890   -2.4950   23.2210 C   0  0  0  0  0  0  0  0  0  0  0  0
    8.2550   -1.0010   24.5520 C   0  0  0  0  0  0  0  0  0  0  0  0
   13.2446    0.8966   23.0363 C   0  0  0  0  0  0  0  0  0  0  0  0
   12.3986   -1.1324   23.0868 C   0  0  0  0  0  0  0  0  0  0  0  0
    6.1460    0.6070   19.9750 C   0  0  0  0  0  0  0  0  0  0  0  0
   12.0333    0.1898   23.1580 C   0  0  0  0  0  0  0  0  0  0  0  0
    5.7970    0.9500   18.6730 C   0  0  0  0  0  0  0  0  0  0  0  0
    8.3450   -3.3440   25.0980 C   0  0  0  0  0  0  0  0  0  0  0  0
    9.1280   -1.2090   23.4870 C   0  0  0  0  0  0  0  0  0  0  0  0
    7.2710   -0.1460   19.8310 C   0  0  0  0  0  0  0  0  0  0  0  0
    9.0430    0.2380   21.4940 C   0  0  0  0  0  0  0  0  0  0  0  0
    7.5748   -4.8280   28.7278 C   0  0  0  0  0  0  0  0  0  0  0  0
    8.9776   -4.7555   28.1204 C   0  0  0  0  0  0  0  0  0  0  0  0
    6.5554   -4.0713   27.8732 C   0  0  0  0  0  0  0  0  0  0  0  0
    8.9620   -5.1961   26.6568 C   0  0  0  0  0  0  0  0  0  0  0  0
    6.6009   -4.5253   26.4110 C   0  0  0  0  0  0  0  0  0  0  0  0
   14.5977   -2.3013   22.8113 C   0  0  0  0  0  0  0  0  0  0  0  0
   10.6518    0.7520   23.3299 C   0  0  0  0  0  0  0  0  0  0  0  0
    8.0950   -0.7700   20.8440 C   0  0  0  0  0  0  0  0  0  0  0  0
   14.3005    0.0903   22.8984 N   0  0  0  0  0  0  0  0  0  0  0  0
    6.7100    0.3850   17.8100 N   0  0  0  0  0  0  0  0  0  0  0  0
    7.5840   -0.2700   18.5160 N   0  0  0  0  0  0  0  0  0  0  0  0
   13.7537   -1.1369   22.9331 N   0  0  0  0  0  0  0  0  0  0  0  0
    7.9770   -4.4029   25.9162 N   0  0  0  0  0  0  0  0  0  0  0  0
    9.5820   -0.1080   22.7000 N   0  0  0  0  0  0  0  0  0  0  0  0
    9.2950    1.3000   20.9480 O   0  0  0  0  0  0  0  0  0  0  0  0
    3.6316    2.0634   21.6529 H   0  0  0  0  0  0  0  0  0  0  0  0
    2.9935    2.6871   19.3570 H   0  0  0  0  0  0  0  0  0  0  0  0
    5.6758    0.7297   22.1281 H   0  0  0  0  0  0  0  0  0  0  0  0
    4.3688    2.0204   17.3972 H   0  0  0  0  0  0  0  0  0  0  0  0
    9.5426   -4.5618   23.7797 H   0  0  0  0  0  0  0  0  0  0  0  0
    7.1914   -1.8824   26.1903 H   0  0  0  0  0  0  0  0  0  0  0  0
   10.2669   -2.6745   22.3854 H   0  0  0  0  0  0  0  0  0  0  0  0
    7.8690   -0.0020   24.7587 H   0  0  0  0  0  0  0  0  0  0  0  0
   13.4046    1.9655   23.0429 H   0  0  0  0  0  0  0  0  0  0  0  0
   11.8240   -2.0476   23.1325 H   0  0  0  0  0  0  0  0  0  0  0  0
    7.2681   -5.8807   28.8239 H   0  0  0  0  0  0  0  0  0  0  0  0
    7.5891   -4.4101   29.7448 H   0  0  0  0  0  0  0  0  0  0  0  0
    9.3554   -3.7320   28.1920 H   0  0  0  0  0  0  0  0  0  0  0  0
    9.6558   -5.3943   28.6900 H   0  0  0  0  0  0  0  0  0  0  0  0
    5.5496   -4.2322   28.2751 H   0  0  0  0  0  0  0  0  0  0  0  0
    6.7545   -2.9948   27.9293 H   0  0  0  0  0  0  0  0  0  0  0  0
    9.9612   -5.0560   26.2363 H   0  0  0  0  0  0  0  0  0  0  0  0
    8.7097   -6.2583   26.5922 H   0  0  0  0  0  0  0  0  0  0  0  0
    6.2649   -5.5600   26.3335 H   0  0  0  0  0  0  0  0  0  0  0  0
    5.9271   -3.8964   25.8283 H   0  0  0  0  0  0  0  0  0  0  0  0
   14.6779   -2.5502   21.7499 H   0  0  0  0  0  0  0  0  0  0  0  0
   15.5845   -2.0810   23.2280 H   0  0  0  0  0  0  0  0  0  0  0  0
   14.1515   -3.1308   23.3670 H   0  0  0  0  0  0  0  0  0  0  0  0
   10.4132    0.8720   24.3923 H   0  0  0  0  0  0  0  0  0  0  0  0
   10.5688    1.7398   22.8644 H   0  0  0  0  0  0  0  0  0  0  0  0
    7.4659   -1.2025   21.6292 H   0  0  0  0  0  0  0  0  0  0  0  0
    8.6969   -1.5747   20.4087 H   0  0  0  0  0  0  0  0  0  0  0  0
    8.3291   -0.7564   18.0959 H   0  0  0  0  0  0  0  0  0  0  0  0
  1  2  1  0  0  0  0
  1  3  2  0  0  0  0
  2  4  2  0  0  0  0
  3 11  1  0  0  0  0
  4 13  1  0  0  0  0
  5  7  2  0  0  0  0
  5 14  1  0  0  0  0
  6  8  1  0  0  0  0
  6 14  2  0  0  0  0
  7 15  1  0  0  0  0
  8 15  2  0  0  0  0
  9 12  1  0  0  0  0
  9 26  2  0  0  0  0
 10 12  2  0  0  0  0
 10 29  1  0  0  0  0
 11 13  1  0  0  0  0
 11 16  2  0  0  0  0
 12 24  1  0  0  0  0
 13 27  2  0  0  0  0
 14 30  1  0  0  0  0
 15 31  1  0  0  0  0
 16 25  1  0  0  0  0
 16 28  1  0  0  0  0
 17 25  1  0  0  0  0
 17 31  1  0  0  0  0
 17 32  2  0  0  0  0
 18 19  1  0  0  0  0
 18 20  1  0  0  0  0
 19 21  1  0  0  0  0
 20 22  1  0  0  0  0
 21 30  1  0  0  0  0
 22 30  1  0  0  0  0
 23 29  1  0  0  0  0
 24 31  1  0  0  0  0
 26 29  1  0  0  0  0
 27 28  1  0  0  0  0
  1 33  1  0  0  0  0
  2 34  1  0  0  0  0
  3 35  1  0  0  0  0
  4 36  1  0  0  0  0
  5 37  1  0  0  0  0
  6 38  1  0  0  0  0
  7 39  1  0  0  0  0
  8 40  1  0  0  0  0
  9 41  1  0  0  0  0
 10 42  1  0  0  0  0
 18 43  1  0  0  0  0
 18 44  1  0  0  0  0
 19 45  1  0  0  0  0
 19 46  1  0  0  0  0
 20 47  1  0  0  0  0
 20 48  1  0  0  0  0
 21 49  1  0  0  0  0
 21 50  1  0  0  0  0
 22 51  1  0  0  0  0
 22 52  1  0  0  0  0
 23 53  1  0  0  0  0
 23 54  1  0  0  0  0
 23 55  1  0  0  0  0
 24 56  1  0  0  0  0
 24 57  1  0  0  0  0
 25 58  1  0  0  0  0
 25 59  1  0  0  0  0
 28 60  1  0  0  0  0
M  END
> <clash_score>
0

> <docking_score>
-10.245942115783691

> <overlap_score>
0.9660855531692505

$$$$
BENZO_402_1
  -OEChem-08232013553D

 60 64  0     0  0  0  0  0  0999 V2000
    4.2460    1.7520   20.8250 C   0  0  0  0  0  0  0  0  0  0  0  0
    3.8860    2.1050   19.5250 C   0  0  0  0  0  0  0  0  0  0  0  0
   13.6221   -0.7726   25.1256 C   0  0  0  0  0  0  0  0  0  0  0  0
    5.3890    1.0010   21.0690 C   0  0  0  0  0  0  0  0  0  0  0  0
   12.4369   -0.0778   24.8846 C   0  0  0  0  0  0  0  0  0  0  0  0
    4.6610    1.7170   18.4380 C   0  0  0  0  0  0  0  0  0  0  0  0
    9.1890   -3.5540   24.0140 C   0  0  0  0  0  0  0  0  0  0  0  0
    7.8700   -2.0610   25.3550 C   0  0  0  0  0  0  0  0  0  0  0  0
    9.5890   -2.4950   23.2210 C   0  0  0  0  0  0  0  0  0  0  0  0
    8.2550   -1.0010   24.5520 C   0  0  0  0  0  0  0  0  0  0  0  0
   14.2989   -1.3844   24.0704 C   0  0  0  0  0  0  0  0  0  0  0  0
   12.6050   -0.6067   22.5332 C   0  0  0  0  0  0  0  0  0  0  0  0
    6.1460    0.6070   19.9750 C   0  0  0  0  0  0  0  0  0  0  0  0
   11.9283    0.0051   23.5884 C   0  0  0  0  0  0  0  0  0  0  0  0
    5.7970    0.9500   18.6730 C   0  0  0  0  0  0  0  0  0  0  0  0
    8.3450   -3.3440   25.0980 C   0  0  0  0  0  0  0  0  0  0  0  0
    9.1280   -1.2090   23.4870 C   0  0  0  0  0  0  0  0  0  0  0  0
   13.7903   -1.3015   22.7742 C   0  0  0  0  0  0  0  0  0  0  0  0
    7.2710   -0.1460   19.8310 C   0  0  0  0  0  0  0  0  0  0  0  0
    9.0430    0.2380   21.4940 C   0  0  0  0  0  0  0  0  0  0  0  0
    7.5748   -4.8280   28.7278 C   0  0  0  0  0  0  0  0  0  0  0  0
    8.9776   -4.7555   28.1204 C   0  0  0  0  0  0  0  0  0  0  0  0
    6.5554   -4.0713   27.8732 C   0  0  0  0  0  0  0  0  0  0  0  0
    8.9620   -5.1961   26.6568 C   0  0  0  0  0  0  0  0  0  0  0  0
    6.6009   -4.5253   26.4110 C   0  0  0  0  0  0  0  0  0  0  0  0
   10.6518    0.7520   23.3299 C   0  0  0  0  0  0  0  0  0  0  0  0
    8.0950   -0.7700   20.8440 C   0  0  0  0  0  0  0  0  0  0  0  0
    6.7100    0.3850   17.8100 N   0  0  0  0  0  0  0  0  0  0  0  0
    7.5840   -0.2700   18.5160 N   0  0  0  0  0  0  0  0  0  0  0  0
    7.9770   -4.4029   25.9162 N   0  0  0  0  0  0  0  0  0  0  0  0
    9.5820   -0.1080   22.7000 N   0  0  0  0  0  0  0  0  0  0  0  0
    9.2950    1.3000   20.9480 O   0  0  0  0  0  0  0  0  0  0  0  0
   14.6251   -2.0575   21.4729 Cl  0  0  0  0  0  0  0  0  0  0  0  0
    3.6316    2.0634   21.6529 H   0  0  0  0  0  0  0  0  0  0  0  0
    2.9935    2.6871   19.3570 H   0  0  0  0  0  0  0  0  0  0  0  0
   14.0177   -0.8370   26.1351 H   0  0  0  0  0  0  0  0  0  0  0  0
    5.6758    0.7297   22.1281 H   0  0  0  0  0  0  0  0  0  0  0  0
   11.9162    0.3957   25.7128 H   0  0  0  0  0  0  0  0  0  0  0  0
    4.3688    2.0204   17.3972 H   0  0  0  0  0  0  0  0  0  0  0  0
    9.5426   -4.5618   23.7797 H   0  0  0  0  0  0  0  0  0  0  0  0
    7.1914   -1.8824   26.1903 H   0  0  0  0  0  0  0  0  0  0  0  0
   10.2669   -2.6745   22.3854 H   0  0  0  0  0  0  0  0  0  0  0  0
    7.8690   -0.0020   24.7587 H   0  0  0  0  0  0  0  0  0  0  0  0
   15.2214   -1.9227   24.2731 H   0  0  0  0  0  0  0  0  0  0  0  0
   12.2046   -0.5388   21.5243 H   0  0  0  0  0  0  0  0  0  0  0  0
    7.2681   -5.8807   28.8239 H   0  0  0  0  0  0  0  0  0  0  0  0
    7.5891   -4.4101   29.7448 H   0  0  0  0  0  0  0  0  0  0  0  0
    9.3554   -3.7320   28.1920 H   0  0  0  0  0  0  0  0  0  0  0  0
    9.6558   -5.3943   28.6900 H   0  0  0  0  0  0  0  0  0  0  0  0
    5.5496   -4.2322   28.2751 H   0  0  0  0  0  0  0  0  0  0  0  0
    6.7545   -2.9948   27.9293 H   0  0  0  0  0  0  0  0  0  0  0  0
    9.9612   -5.0560   26.2363 H   0  0  0  0  0  0  0  0  0  0  0  0
    8.7097   -6.2583   26.5922 H   0  0  0  0  0  0  0  0  0  0  0  0
    6.2649   -5.5600   26.3335 H   0  0  0  0  0  0  0  0  0  0  0  0
    5.9271   -3.8964   25.8283 H   0  0  0  0  0  0  0  0  0  0  0  0
   10.2524    1.1679   24.2614 H   0  0  0  0  0  0  0  0  0  0  0  0
   10.8186    1.5899   22.6448 H   0  0  0  0  0  0  0  0  0  0  0  0
    7.4659   -1.2025   21.6292 H   0  0  0  0  0  0  0  0  0  0  0  0
    8.6969   -1.5747   20.4087 H   0  0  0  0  0  0  0  0  0  0  0  0
    8.3291   -0.7564   18.0959 H   0  0  0  0  0  0  0  0  0  0  0  0
  1  2  1  0  0  0  0
  1  4  2  0  0  0  0
  2  6  2  0  0  0  0
  3  5  2  0  0  0  0
  3 11  1  0  0  0  0
  4 13  1  0  0  0  0
  5 14  1  0  0  0  0
  6 15  1  0  0  0  0
  7  9  2  0  0  0  0
  7 16  1  0  0  0  0
  8 10  1  0  0  0  0
  8 16  2  0  0  0  0
  9 17  1  0  0  0  0
 10 17  2  0  0  0  0
 11 18  2  0  0  0  0
 12 14  2  0  0  0  0
 12 18  1  0  0  0  0
 13 15  1  0  0  0  0
 13 19  2  0  0  0  0
 14 26  1  0  0  0  0
 15 28  2  0  0  0  0
 16 30  1  0  0  0  0
 17 31  1  0  0  0  0
 18 33  1  0  0  0  0
 19 27  1  0  0  0  0
 19 29  1  0  0  0  0
 20 27  1  0  0  0  0
 20 31  1  0  0  0  0
 20 32  2  0  0  0  0
 21 22  1  0  0  0  0
 21 23  1  0  0  0  0
 22 24  1  0  0  0  0
 23 25  1  0  0  0  0
 24 30  1  0  0  0  0
 25 30  1  0  0  0  0
 26 31  1  0  0  0  0
 28 29  1  0  0  0  0
  1 34  1  0  0  0  0
  2 35  1  0  0  0  0
  3 36  1  0  0  0  0
  4 37  1  0  0  0  0
  5 38  1  0  0  0  0
  6 39  1  0  0  0  0
  7 40  1  0  0  0  0
  8 41  1  0  0  0  0
  9 42  1  0  0  0  0
 10 43  1  0  0  0  0
 11 44  1  0  0  0  0
 12 45  1  0  0  0  0
 21 46  1  0  0  0  0
 21 47  1  0  0  0  0
 22 48  1  0  0  0  0
 22 49  1  0  0  0  0
 23 50  1  0  0  0  0
 23 51  1  0  0  0  0
 24 52  1  0  0  0  0
 24 53  1  0  0  0  0
 25 54  1  0  0  0  0
 25 55  1  0  0  0  0
 26 56  1  0  0  0  0
 26 57  1  0  0  0  0
 27 58  1  0  0  0  0
 27 59  1  0  0  0  0
 29 60  1  0  0  0  0
M  END
> <clash_score>
0

> <docking_score>
-8.652153968811035

> <overlap_score>
0.989267110824585

$$$$
BENZO_407_1
  -OEChem-08232013553D

 48 51  0     0  0  0  0  0  0999 V2000
    4.2460    1.7520   20.8250 C   0  0  0  0  0  0  0  0  0  0  0  0
    3.8860    2.1050   19.5250 C   0  0  0  0  0  0  0  0  0  0  0  0
    5.3890    1.0010   21.0690 C   0  0  0  0  0  0  0  0  0  0  0  0
    9.1890   -3.5540   24.0140 C   0  0  0  0  0  0  0  0  0  0  0  0
    7.8700   -2.0610   25.3550 C   0  0  0  0  0  0  0  0  0  0  0  0
    4.6610    1.7170   18.4380 C   0  0  0  0  0  0  0  0  0  0  0  0
    9.5890   -2.4950   23.2210 C   0  0  0  0  0  0  0  0  0  0  0  0
    8.2550   -1.0010   24.5520 C   0  0  0  0  0  0  0  0  0  0  0  0
   12.6723   -0.4178   24.6326 C   0  0  0  0  0  0  0  0  0  0  0  0
   12.6600   -0.8199   22.4708 C   0  0  0  0  0  0  0  0  0  0  0  0
    6.1460    0.6070   19.9750 C   0  0  0  0  0  0  0  0  0  0  0  0
    8.3450   -3.3440   25.0980 C   0  0  0  0  0  0  0  0  0  0  0  0
   11.9671   -0.1441   23.4453 C   0  0  0  0  0  0  0  0  0  0  0  0
    5.7970    0.9500   18.6730 C   0  0  0  0  0  0  0  0  0  0  0  0
    9.1280   -1.2090   23.4870 C   0  0  0  0  0  0  0  0  0  0  0  0
    7.2710   -0.1460   19.8310 C   0  0  0  0  0  0  0  0  0  0  0  0
    9.0430    0.2380   21.4940 C   0  0  0  0  0  0  0  0  0  0  0  0
    7.9522   -4.4794   25.9764 C   0  0  0  0  0  0  0  0  0  0  0  0
   14.7069   -2.2649   22.4980 C   0  0  0  0  0  0  0  0  0  0  0  0
   10.7332    0.6950   23.2793 C   0  0  0  0  0  0  0  0  0  0  0  0
    8.0950   -0.7700   20.8440 C   0  0  0  0  0  0  0  0  0  0  0  0
   13.7318   -1.2062   24.4329 N   0  0  0  0  0  0  0  0  0  0  0  0
    6.7100    0.3850   17.8100 N   0  0  0  0  0  0  0  0  0  0  0  0
    7.5840   -0.2700   18.5160 N   0  0  0  0  0  0  0  0  0  0  0  0
   13.6974   -1.4337   23.1088 N   0  0  0  0  0  0  0  0  0  0  0  0
    9.5820   -0.1080   22.7000 N   0  0  0  0  0  0  0  0  0  0  0  0
    9.2950    1.3000   20.9480 O   0  0  0  0  0  0  0  0  0  0  0  0
    3.6316    2.0634   21.6529 H   0  0  0  0  0  0  0  0  0  0  0  0
    2.9935    2.6871   19.3570 H   0  0  0  0  0  0  0  0  0  0  0  0
    5.6758    0.7297   22.1281 H   0  0  0  0  0  0  0  0  0  0  0  0
    9.5403   -4.5627   23.7809 H   0  0  0  0  0  0  0  0  0  0  0  0
    7.1911   -1.8848   26.1904 H   0  0  0  0  0  0  0  0  0  0  0  0
    4.3688    2.0204   17.3972 H   0  0  0  0  0  0  0  0  0  0  0  0
   10.2682   -2.6746   22.3865 H   0  0  0  0  0  0  0  0  0  0  0  0
    7.8684   -0.0022   24.7594 H   0  0  0  0  0  0  0  0  0  0  0  0
   12.4597   -0.0776   25.6362 H   0  0  0  0  0  0  0  0  0  0  0  0
   12.5062   -0.9151   21.4044 H   0  0  0  0  0  0  0  0  0  0  0  0
    8.6668   -4.5891   26.8013 H   0  0  0  0  0  0  0  0  0  0  0  0
    6.9513   -4.3276   26.4010 H   0  0  0  0  0  0  0  0  0  0  0  0
    7.9196   -5.4231   25.4163 H   0  0  0  0  0  0  0  0  0  0  0  0
   15.5369   -1.6206   22.1960 H   0  0  0  0  0  0  0  0  0  0  0  0
   15.0470   -3.0138   23.2186 H   0  0  0  0  0  0  0  0  0  0  0  0
   14.2796   -2.7725   21.6287 H   0  0  0  0  0  0  0  0  0  0  0  0
   10.4115    1.1036   24.2435 H   0  0  0  0  0  0  0  0  0  0  0  0
   10.9216    1.5434   22.6131 H   0  0  0  0  0  0  0  0  0  0  0  0
    7.4774   -1.2066   21.6419 H   0  0  0  0  0  0  0  0  0  0  0  0
    8.7084   -1.5788   20.4215 H   0  0  0  0  0  0  0  0  0  0  0  0
    8.3291   -0.7564   18.0959 H   0  0  0  0  0  0  0  0  0  0  0  0
  1  2  1  0  0  0  0
  1  3  2  0  0  0  0
  2  6  2  0  0  0  0
  3 11  1  0  0  0  0
  4  7  2  0  0  0  0
  4 12  1  0  0  0  0
  5  8  1  0  0  0  0
  5 12  2  0  0  0  0
  6 14  1  0  0  0  0
  7 15  1  0  0  0  0
  8 15  2  0  0  0  0
  9 13  1  0  0  0  0
  9 22  2  0  0  0  0
 10 13  2  0  0  0  0
 10 25  1  0  0  0  0
 11 14  1  0  0  0  0
 11 16  2  0  0  0  0
 12 18  1  0  0  0  0
 13 20  1  0  0  0  0
 14 23  2  0  0  0  0
 15 26  1  0  0  0  0
 16 21  1  0  0  0  0
 16 24  1  0  0  0  0
 17 21  1  0  0  0  0
 17 26  1  0  0  0  0
 17 27  2  0  0  0  0
 19 25  1  0  0  0  0
 20 26  1  0  0  0  0
 22 25  1  0  0  0  0
 23 24  1  0  0  0  0
  1 28  1  0  0  0  0
  2 29  1  0  0  0  0
  3 30  1  0  0  0  0
  4 31  1  0  0  0  0
  5 32  1  0  0  0  0
  6 33  1  0  0  0  0
  7 34  1  0  0  0  0
  8 35  1  0  0  0  0
  9 36  1  0  0  0  0
 10 37  1  0  0  0  0
 18 38  1  0  0  0  0
 18 39  1  0  0  0  0
 18 40  1  0  0  0  0
 19 41  1  0  0  0  0
 19 42  1  0  0  0  0
 19 43  1  0  0  0  0
 20 44  1  0  0  0  0
 20 45  1  0  0  0  0
 21 46  1  0  0  0  0
 21 47  1  0  0  0  0
 24 48  1  0  0  0  0
M  END
> <clash_score>
0

> <docking_score>
-7.7759552001953125

> <overlap_score>
0.9009540677070618

$$$$
BENZO_409_1
  -OEChem-08232013553D

 49 52  0     0  0  0  0  0  0999 V2000
   14.2591   -1.7044   23.7531 C   0  0  0  0  0  0  0  0  0  0  0  0
    4.2460    1.7520   20.8250 C   0  0  0  0  0  0  0  0  0  0  0  0
   14.0215   -0.6360   24.6177 C   0  0  0  0  0  0  0  0  0  0  0  0
   13.3508   -1.9926   22.7345 C   0  0  0  0  0  0  0  0  0  0  0  0
    3.8860    2.1050   19.5250 C   0  0  0  0  0  0  0  0  0  0  0  0
    5.3890    1.0010   21.0690 C   0  0  0  0  0  0  0  0  0  0  0  0
   12.8755    0.1441   24.4639 C   0  0  0  0  0  0  0  0  0  0  0  0
   12.2047   -1.2125   22.5806 C   0  0  0  0  0  0  0  0  0  0  0  0
    4.6610    1.7170   18.4380 C   0  0  0  0  0  0  0  0  0  0  0  0
    9.5890   -2.4950   23.2210 C   0  0  0  0  0  0  0  0  0  0  0  0
    8.2550   -1.0010   24.5520 C   0  0  0  0  0  0  0  0  0  0  0  0
    9.1890   -3.5540   24.0140 C   0  0  0  0  0  0  0  0  0  0  0  0
    7.8700   -2.0610   25.3550 C   0  0  0  0  0  0  0  0  0  0  0  0
    6.1460    0.6070   19.9750 C   0  0  0  0  0  0  0  0  0  0  0  0
   11.9671   -0.1441   23.4453 C   0  0  0  0  0  0  0  0  0  0  0  0
    5.7970    0.9500   18.6730 C   0  0  0  0  0  0  0  0  0  0  0  0
    9.1280   -1.2090   23.4870 C   0  0  0  0  0  0  0  0  0  0  0  0
    8.3450   -3.3440   25.0980 C   0  0  0  0  0  0  0  0  0  0  0  0
    7.2710   -0.1460   19.8310 C   0  0  0  0  0  0  0  0  0  0  0  0
    9.0430    0.2380   21.4940 C   0  0  0  0  0  0  0  0  0  0  0  0
    8.5126   -5.6654   25.5739 C   0  0  0  0  0  0  0  0  0  0  0  0
   10.7332    0.6950   23.2793 C   0  0  0  0  0  0  0  0  0  0  0  0
    8.0950   -0.7700   20.8440 C   0  0  0  0  0  0  0  0  0  0  0  0
    6.7100    0.3850   17.8100 N   0  0  0  0  0  0  0  0  0  0  0  0
    7.5840   -0.2700   18.5160 N   0  0  0  0  0  0  0  0  0  0  0  0
    9.5820   -0.1080   22.7000 N   0  0  0  0  0  0  0  0  0  0  0  0
    9.2950    1.3000   20.9480 O   0  0  0  0  0  0  0  0  0  0  0  0
    7.9864   -4.3799   25.8996 O   0  0  0  0  0  0  0  0  0  0  0  0
   15.1522   -2.3109   23.8722 H   0  0  0  0  0  0  0  0  0  0  0  0
    3.6316    2.0634   21.6529 H   0  0  0  0  0  0  0  0  0  0  0  0
   14.7292   -0.4107   25.4102 H   0  0  0  0  0  0  0  0  0  0  0  0
   13.5360   -2.8237   22.0604 H   0  0  0  0  0  0  0  0  0  0  0  0
    2.9935    2.6871   19.3570 H   0  0  0  0  0  0  0  0  0  0  0  0
    5.6758    0.7297   22.1281 H   0  0  0  0  0  0  0  0  0  0  0  0
   12.6984    0.9745   25.1424 H   0  0  0  0  0  0  0  0  0  0  0  0
   11.5025   -1.4446   21.7843 H   0  0  0  0  0  0  0  0  0  0  0  0
    4.3688    2.0204   17.3972 H   0  0  0  0  0  0  0  0  0  0  0  0
   10.2678   -2.6746   22.3862 H   0  0  0  0  0  0  0  0  0  0  0  0
    7.8691   -0.0023   24.7606 H   0  0  0  0  0  0  0  0  0  0  0  0
    9.5404   -4.5633   23.7846 H   0  0  0  0  0  0  0  0  0  0  0  0
    7.1920   -1.8875   26.1914 H   0  0  0  0  0  0  0  0  0  0  0  0
    8.1472   -6.4025   26.2932 H   0  0  0  0  0  0  0  0  0  0  0  0
    9.6047   -5.6294   25.5960 H   0  0  0  0  0  0  0  0  0  0  0  0
    8.1794   -5.9422   24.5709 H   0  0  0  0  0  0  0  0  0  0  0  0
   10.4115    1.1036   24.2435 H   0  0  0  0  0  0  0  0  0  0  0  0
   10.9216    1.5434   22.6131 H   0  0  0  0  0  0  0  0  0  0  0  0
    7.4774   -1.2066   21.6419 H   0  0  0  0  0  0  0  0  0  0  0  0
    8.7084   -1.5788   20.4215 H   0  0  0  0  0  0  0  0  0  0  0  0
    8.3291   -0.7564   18.0959 H   0  0  0  0  0  0  0  0  0  0  0  0
  1  3  1  0  0  0  0
  1  4  2  0  0  0  0
  2  5  1  0  0  0  0
  2  6  2  0  0  0  0
  3  7  2  0  0  0  0
  4  8  1  0  0  0  0
  5  9  2  0  0  0  0
  6 14  1  0  0  0  0
  7 15  1  0  0  0  0
  8 15  2  0  0  0  0
  9 16  1  0  0  0  0
 10 12  2  0  0  0  0
 10 17  1  0  0  0  0
 11 13  1  0  0  0  0
 11 17  2  0  0  0  0
 12 18  1  0  0  0  0
 13 18  2  0  0  0  0
 14 16  1  0  0  0  0
 14 19  2  0  0  0  0
 15 22  1  0  0  0  0
 16 24  2  0  0  0  0
 17 26  1  0  0  0  0
 18 28  1  0  0  0  0
 19 23  1  0  0  0  0
 19 25  1  0  0  0  0
 20 23  1  0  0  0  0
 20 26  1  0  0  0  0
 20 27  2  0  0  0  0
 21 28  1  0  0  0  0
 22 26  1  0  0  0  0
 24 25  1  0  0  0  0
  1 29  1  0  0  0  0
  2 30  1  0  0  0  0
  3 31  1  0  0  0  0
  4 32  1  0  0  0  0
  5 33  1  0  0  0  0
  6 34  1  0  0  0  0
  7 35  1  0  0  0  0
  8 36  1  0  0  0  0
  9 37  1  0  0  0  0
 10 38  1  0  0  0  0
 11 39  1  0  0  0  0
 12 40  1  0  0  0  0
 13 41  1  0  0  0  0
 21 42  1  0  0  0  0
 21 43  1  0  0  0  0
 21 44  1  0  0  0  0
 22 45  1  0  0  0  0
 22 46  1  0  0  0  0
 23 47  1  0  0  0  0
 23 48  1  0  0  0  0
 25 49  1  0  0  0  0
M  END
> <clash_score>
0

> <docking_score>
-9.347007751464844

> <overlap_score>
0.9110553860664368

$$$$
BENZO_406_1
  -OEChem-08232013553D

 48 51  0     0  0  0  0  0  0999 V2000
    4.2460    1.7520   20.8250 C   0  0  0  0  0  0  0  0  0  0  0  0
    3.8860    2.1050   19.5250 C   0  0  0  0  0  0  0  0  0  0  0  0
   13.6802   -1.0867   24.8643 C   0  0  0  0  0  0  0  0  0  0  0  0
    5.3890    1.0010   21.0690 C   0  0  0  0  0  0  0  0  0  0  0  0
   12.5346   -0.3063   24.7091 C   0  0  0  0  0  0  0  0  0  0  0  0
    9.1890   -3.5540   24.0140 C   0  0  0  0  0  0  0  0  0  0  0  0
    7.8700   -2.0610   25.3550 C   0  0  0  0  0  0  0  0  0  0  0  0
    4.6610    1.7170   18.4380 C   0  0  0  0  0  0  0  0  0  0  0  0
    9.5890   -2.4950   23.2210 C   0  0  0  0  0  0  0  0  0  0  0  0
    8.2550   -1.0010   24.5520 C   0  0  0  0  0  0  0  0  0  0  0  0
   14.2585   -1.7048   23.7555 C   0  0  0  0  0  0  0  0  0  0  0  0
   12.5452   -0.7623   22.3366 C   0  0  0  0  0  0  0  0  0  0  0  0
    6.1460    0.6070   19.9750 C   0  0  0  0  0  0  0  0  0  0  0  0
    8.3450   -3.3440   25.0980 C   0  0  0  0  0  0  0  0  0  0  0  0
   11.9671   -0.1441   23.4453 C   0  0  0  0  0  0  0  0  0  0  0  0
    5.7970    0.9500   18.6730 C   0  0  0  0  0  0  0  0  0  0  0  0
    9.1280   -1.2090   23.4870 C   0  0  0  0  0  0  0  0  0  0  0  0
   13.6909   -1.5427   22.4917 C   0  0  0  0  0  0  0  0  0  0  0  0
    7.2710   -0.1460   19.8310 C   0  0  0  0  0  0  0  0  0  0  0  0
    9.0430    0.2380   21.4940 C   0  0  0  0  0  0  0  0  0  0  0  0
    7.9522   -4.4794   25.9764 C   0  0  0  0  0  0  0  0  0  0  0  0
   10.7332    0.6950   23.2793 C   0  0  0  0  0  0  0  0  0  0  0  0
    8.0950   -0.7700   20.8440 C   0  0  0  0  0  0  0  0  0  0  0  0
    6.7100    0.3850   17.8100 N   0  0  0  0  0  0  0  0  0  0  0  0
    7.5840   -0.2700   18.5160 N   0  0  0  0  0  0  0  0  0  0  0  0
    9.5820   -0.1080   22.7000 N   0  0  0  0  0  0  0  0  0  0  0  0
    9.2950    1.3000   20.9480 O   0  0  0  0  0  0  0  0  0  0  0  0
   14.4041   -2.3065   21.1243 Cl  0  0  0  0  0  0  0  0  0  0  0  0
    3.6316    2.0634   21.6529 H   0  0  0  0  0  0  0  0  0  0  0  0
    2.9935    2.6871   19.3570 H   0  0  0  0  0  0  0  0  0  0  0  0
   14.1218   -1.2128   25.8486 H   0  0  0  0  0  0  0  0  0  0  0  0
    5.6758    0.7297   22.1281 H   0  0  0  0  0  0  0  0  0  0  0  0
   12.0907    0.1716   25.5786 H   0  0  0  0  0  0  0  0  0  0  0  0
    9.5403   -4.5627   23.7809 H   0  0  0  0  0  0  0  0  0  0  0  0
    7.1911   -1.8848   26.1904 H   0  0  0  0  0  0  0  0  0  0  0  0
    4.3688    2.0204   17.3972 H   0  0  0  0  0  0  0  0  0  0  0  0
   10.2682   -2.6746   22.3865 H   0  0  0  0  0  0  0  0  0  0  0  0
    7.8684   -0.0022   24.7594 H   0  0  0  0  0  0  0  0  0  0  0  0
   15.1512   -2.3104   23.8914 H   0  0  0  0  0  0  0  0  0  0  0  0
   12.0992   -0.6324   21.3532 H   0  0  0  0  0  0  0  0  0  0  0  0
    8.6668   -4.5891   26.8013 H   0  0  0  0  0  0  0  0  0  0  0  0
    6.9513   -4.3276   26.4010 H   0  0  0  0  0  0  0  0  0  0  0  0
    7.9196   -5.4231   25.4163 H   0  0  0  0  0  0  0  0  0  0  0  0
   10.4115    1.1036   24.2435 H   0  0  0  0  0  0  0  0  0  0  0  0
   10.9216    1.5434   22.6131 H   0  0  0  0  0  0  0  0  0  0  0  0
    7.4774   -1.2066   21.6419 H   0  0  0  0  0  0  0  0  0  0  0  0
    8.7084   -1.5788   20.4215 H   0  0  0  0  0  0  0  0  0  0  0  0
    8.3291   -0.7564   18.0959 H   0  0  0  0  0  0  0  0  0  0  0  0
  1  2  1  0  0  0  0
  1  4  2  0  0  0  0
  2  8  2  0  0  0  0
  3  5  2  0  0  0  0
  3 11  1  0  0  0  0
  4 13  1  0  0  0  0
  5 15  1  0  0  0  0
  6  9  2  0  0  0  0
  6 14  1  0  0  0  0
  7 10  1  0  0  0  0
  7 14  2  0  0  0  0
  8 16  1  0  0  0  0
  9 17  1  0  0  0  0
 10 17  2  0  0  0  0
 11 18  2  0  0  0  0
 12 15  2  0  0  0  0
 12 18  1  0  0  0  0
 13 16  1  0  0  0  0
 13 19  2  0  0  0  0
 14 21  1  0  0  0  0
 15 22  1  0  0  0  0
 16 24  2  0  0  0  0
 17 26  1  0  0  0  0
 18 28  1  0  0  0  0
 19 23  1  0  0  0  0
 19 25  1  0  0  0  0
 20 23  1  0  0  0  0
 20 26  1  0  0  0  0
 20 27  2  0  0  0  0
 22 26  1  0  0  0  0
 24 25  1  0  0  0  0
  1 29  1  0  0  0  0
  2 30  1  0  0  0  0
  3 31  1  0  0  0  0
  4 32  1  0  0  0  0
  5 33  1  0  0  0  0
  6 34  1  0  0  0  0
  7 35  1  0  0  0  0
  8 36  1  0  0  0  0
  9 37  1  0  0  0  0
 10 38  1  0  0  0  0
 11 39  1  0  0  0  0
 12 40  1  0  0  0  0
 21 41  1  0  0  0  0
 21 42  1  0  0  0  0
 21 43  1  0  0  0  0
 22 44  1  0  0  0  0
 22 45  1  0  0  0  0
 23 46  1  0  0  0  0
 23 47  1  0  0  0  0
 25 48  1  0  0  0  0
M  END
> <clash_score>
0

> <docking_score>
-8.23625373840332

> <overlap_score>
0.9064733982086182

$$$$
BENZO_408_1
  -OEChem-08232013553D

 46 49  0     0  0  0  0  0  0999 V2000
    4.2460    1.7520   20.8250 C   0  0  0  0  0  0  0  0  0  0  0  0
    3.8860    2.1050   19.5250 C   0  0  0  0  0  0  0  0  0  0  0  0
    5.3890    1.0010   21.0690 C   0  0  0  0  0  0  0  0  0  0  0  0
    4.6610    1.7170   18.4380 C   0  0  0  0  0  0  0  0  0  0  0  0
    9.5890   -2.4950   23.2210 C   0  0  0  0  0  0  0  0  0  0  0  0
    8.2550   -1.0010   24.5520 C   0  0  0  0  0  0  0  0  0  0  0  0
    9.1890   -3.5540   24.0140 C   0  0  0  0  0  0  0  0  0  0  0  0
    7.8700   -2.0610   25.3550 C   0  0  0  0  0  0  0  0  0  0  0  0
   12.6250   -0.8107   22.3716 C   0  0  0  0  0  0  0  0  0  0  0  0
   13.7315   -1.5117   22.7981 C   0  0  0  0  0  0  0  0  0  0  0  0
   12.5956   -0.3613   24.6518 C   0  0  0  0  0  0  0  0  0  0  0  0
    6.1460    0.6070   19.9750 C   0  0  0  0  0  0  0  0  0  0  0  0
   11.9671   -0.1441   23.4453 C   0  0  0  0  0  0  0  0  0  0  0  0
    5.7970    0.9500   18.6730 C   0  0  0  0  0  0  0  0  0  0  0  0
    9.1280   -1.2090   23.4870 C   0  0  0  0  0  0  0  0  0  0  0  0
    8.3450   -3.3440   25.0980 C   0  0  0  0  0  0  0  0  0  0  0  0
    7.2710   -0.1460   19.8310 C   0  0  0  0  0  0  0  0  0  0  0  0
    9.0430    0.2380   21.4940 C   0  0  0  0  0  0  0  0  0  0  0  0
    8.5126   -5.6654   25.5739 C   0  0  0  0  0  0  0  0  0  0  0  0
   10.7332    0.6950   23.2793 C   0  0  0  0  0  0  0  0  0  0  0  0
    8.0950   -0.7700   20.8440 C   0  0  0  0  0  0  0  0  0  0  0  0
    6.7100    0.3850   17.8100 N   0  0  0  0  0  0  0  0  0  0  0  0
    7.5840   -0.2700   18.5160 N   0  0  0  0  0  0  0  0  0  0  0  0
    9.5820   -0.1080   22.7000 N   0  0  0  0  0  0  0  0  0  0  0  0
    9.2950    1.3000   20.9480 O   0  0  0  0  0  0  0  0  0  0  0  0
    7.9864   -4.3799   25.8996 O   0  0  0  0  0  0  0  0  0  0  0  0
   13.9733   -1.3649   24.4870 S   0  0  0  0  0  0  0  0  0  0  0  0
    3.6316    2.0634   21.6529 H   0  0  0  0  0  0  0  0  0  0  0  0
    2.9935    2.6871   19.3570 H   0  0  0  0  0  0  0  0  0  0  0  0
    5.6758    0.7297   22.1281 H   0  0  0  0  0  0  0  0  0  0  0  0
    4.3688    2.0204   17.3972 H   0  0  0  0  0  0  0  0  0  0  0  0
   10.2678   -2.6746   22.3862 H   0  0  0  0  0  0  0  0  0  0  0  0
    7.8691   -0.0023   24.7606 H   0  0  0  0  0  0  0  0  0  0  0  0
    9.5404   -4.5633   23.7846 H   0  0  0  0  0  0  0  0  0  0  0  0
    7.1920   -1.8875   26.1914 H   0  0  0  0  0  0  0  0  0  0  0  0
   12.3061   -0.7805   21.3373 H   0  0  0  0  0  0  0  0  0  0  0  0
   14.4090   -2.1035   22.1990 H   0  0  0  0  0  0  0  0  0  0  0  0
   12.3145    0.0183   25.6244 H   0  0  0  0  0  0  0  0  0  0  0  0
    8.1472   -6.4025   26.2932 H   0  0  0  0  0  0  0  0  0  0  0  0
    9.6047   -5.6294   25.5960 H   0  0  0  0  0  0  0  0  0  0  0  0
    8.1794   -5.9422   24.5709 H   0  0  0  0  0  0  0  0  0  0  0  0
   10.4115    1.1036   24.2435 H   0  0  0  0  0  0  0  0  0  0  0  0
   10.9216    1.5434   22.6131 H   0  0  0  0  0  0  0  0  0  0  0  0
    7.4774   -1.2066   21.6419 H   0  0  0  0  0  0  0  0  0  0  0  0
    8.7084   -1.5788   20.4215 H   0  0  0  0  0  0  0  0  0  0  0  0
    8.3291   -0.7564   18.0959 H   0  0  0  0  0  0  0  0  0  0  0  0
  1  2  1  0  0  0  0
  1  3  2  0  0  0  0
  2  4  2  0  0  0  0
  3 12  1  0  0  0  0
  4 14  1  0  0  0  0
  5  7  2  0  0  0  0
  5 15  1  0  0  0  0
  6  8  1  0  0  0  0
  6 15  2  0  0  0  0
  7 16  1  0  0  0  0
  8 16  2  0  0  0  0
  9 10  2  0  0  0  0
  9 13  1  0  0  0  0
 10 27  1  0  0  0  0
 11 13  2  0  0  0  0
 11 27  1  0  0  0  0
 12 14  1  0  0  0  0
 12 17  2  0  0  0  0
 13 20  1  0  0  0  0
 14 22  2  0  0  0  0
 15 24  1  0  0  0  0
 16 26  1  0  0  0  0
 17 21  1  0  0  0  0
 17 23  1  0  0  0  0
 18 21  1  0  0  0  0
 18 24  1  0  0  0  0
 18 25  2  0  0  0  0
 19 26  1  0  0  0  0
 20 24  1  0  0  0  0
 22 23  1  0  0  0  0
  1 28  1  0  0  0  0
  2 29  1  0  0  0  0
  3 30  1  0  0  0  0
  4 31  1  0  0  0  0
  5 32  1  0  0  0  0
  6 33  1  0  0  0  0
  7 34  1  0  0  0  0
  8 35  1  0  0  0  0
  9 36  1  0  0  0  0
 10 37  1  0  0  0  0
 11 38  1  0  0  0  0
 19 39  1  0  0  0  0
 19 40  1  0  0  0  0
 19 41  1  0  0  0  0
 20 42  1  0  0  0  0
 20 43  1  0  0  0  0
 21 44  1  0  0  0  0
 21 45  1  0  0  0  0
 23 46  1  0  0  0  0
M  END
> <clash_score>
0

> <docking_score>
-8.881514549255371

> <overlap_score>
0.8990170955657959

$$$$
BENZO_411_1
  -OEChem-08232013553D

 49 52  0     0  0  0  0  0  0999 V2000
    4.2460    1.7520   20.8250 C   0  0  0  0  0  0  0  0  0  0  0  0
    3.8860    2.1050   19.5250 C   0  0  0  0  0  0  0  0  0  0  0  0
    5.3890    1.0010   21.0690 C   0  0  0  0  0  0  0  0  0  0  0  0
    4.6610    1.7170   18.4380 C   0  0  0  0  0  0  0  0  0  0  0  0
    9.5890   -2.4950   23.2210 C   0  0  0  0  0  0  0  0  0  0  0  0
    8.2550   -1.0010   24.5520 C   0  0  0  0  0  0  0  0  0  0  0  0
    9.1890   -3.5540   24.0140 C   0  0  0  0  0  0  0  0  0  0  0  0
    7.8700   -2.0610   25.3550 C   0  0  0  0  0  0  0  0  0  0  0  0
   13.2988    0.3227   23.6093 C   0  0  0  0  0  0  0  0  0  0  0  0
   12.3287   -0.9665   22.1153 C   0  0  0  0  0  0  0  0  0  0  0  0
    6.1460    0.6070   19.9750 C   0  0  0  0  0  0  0  0  0  0  0  0
   12.0575    0.0421   23.0073 C   0  0  0  0  0  0  0  0  0  0  0  0
    5.7970    0.9500   18.6730 C   0  0  0  0  0  0  0  0  0  0  0  0
    9.1280   -1.2090   23.4870 C   0  0  0  0  0  0  0  0  0  0  0  0
    8.3450   -3.3440   25.0980 C   0  0  0  0  0  0  0  0  0  0  0  0
    7.2710   -0.1460   19.8310 C   0  0  0  0  0  0  0  0  0  0  0  0
    9.0430    0.2380   21.4940 C   0  0  0  0  0  0  0  0  0  0  0  0
   14.4173   -2.2036   21.4940 C   0  0  0  0  0  0  0  0  0  0  0  0
    7.1173   -4.0849   26.9921 C   0  0  0  0  0  0  0  0  0  0  0  0
   10.7332    0.6950   23.2793 C   0  0  0  0  0  0  0  0  0  0  0  0
    8.0950   -0.7700   20.8440 C   0  0  0  0  0  0  0  0  0  0  0  0
   14.2851   -0.4457   23.1396 N   0  0  0  0  0  0  0  0  0  0  0  0
    6.7100    0.3850   17.8100 N   0  0  0  0  0  0  0  0  0  0  0  0
    7.5840   -0.2700   18.5160 N   0  0  0  0  0  0  0  0  0  0  0  0
   13.6638   -1.2191   22.2330 N   0  0  0  0  0  0  0  0  0  0  0  0
    9.5820   -0.1080   22.7000 N   0  0  0  0  0  0  0  0  0  0  0  0
    9.2950    1.3000   20.9480 O   0  0  0  0  0  0  0  0  0  0  0  0
    7.9864   -4.3799   25.8996 O   0  0  0  0  0  0  0  0  0  0  0  0
    3.6316    2.0634   21.6529 H   0  0  0  0  0  0  0  0  0  0  0  0
    2.9935    2.6871   19.3570 H   0  0  0  0  0  0  0  0  0  0  0  0
    5.6758    0.7297   22.1281 H   0  0  0  0  0  0  0  0  0  0  0  0
    4.3688    2.0204   17.3972 H   0  0  0  0  0  0  0  0  0  0  0  0
   10.2678   -2.6746   22.3862 H   0  0  0  0  0  0  0  0  0  0  0  0
    7.8691   -0.0023   24.7606 H   0  0  0  0  0  0  0  0  0  0  0  0
    9.5404   -4.5633   23.7846 H   0  0  0  0  0  0  0  0  0  0  0  0
    7.1920   -1.8875   26.1914 H   0  0  0  0  0  0  0  0  0  0  0  0
   13.5280    1.0539   24.3716 H   0  0  0  0  0  0  0  0  0  0  0  0
   11.7008   -1.5132   21.4250 H   0  0  0  0  0  0  0  0  0  0  0  0
   14.7920   -1.7281   20.5837 H   0  0  0  0  0  0  0  0  0  0  0  0
   15.2483   -2.5621   22.1078 H   0  0  0  0  0  0  0  0  0  0  0  0
   13.7657   -3.0461   21.2461 H   0  0  0  0  0  0  0  0  0  0  0  0
    6.9107   -5.0005   27.5517 H   0  0  0  0  0  0  0  0  0  0  0  0
    6.1851   -3.6590   26.6125 H   0  0  0  0  0  0  0  0  0  0  0  0
    7.6053   -3.3612   27.6492 H   0  0  0  0  0  0  0  0  0  0  0  0
   10.5676    0.7979   24.3573 H   0  0  0  0  0  0  0  0  0  0  0  0
   10.6945    1.7004   22.8469 H   0  0  0  0  0  0  0  0  0  0  0  0
    7.4774   -1.2066   21.6419 H   0  0  0  0  0  0  0  0  0  0  0  0
    8.7084   -1.5788   20.4215 H   0  0  0  0  0  0  0  0  0  0  0  0
    8.3291   -0.7564   18.0959 H   0  0  0  0  0  0  0  0  0  0  0  0
  1  2  1  0  0  0  0
  1  3  2  0  0  0  0
  2  4  2  0  0  0  0
  3 11  1  0  0  0  0
  4 13  1  0  0  0  0
  5  7  2  0  0  0  0
  5 14  1  0  0  0  0
  6  8  1  0  0  0  0
  6 14  2  0  0  0  0
  7 15  1  0  0  0  0
  8 15  2  0  0  0  0
  9 12  1  0  0  0  0
  9 22  2  0  0  0  0
 10 12  2  0  0  0  0
 10 25  1  0  0  0  0
 11 13  1  0  0  0  0
 11 16  2  0  0  0  0
 12 20  1  0  0  0  0
 13 23  2  0  0  0  0
 14 26  1  0  0  0  0
 15 28  1  0  0  0  0
 16 21  1  0  0  0  0
 16 24  1  0  0  0  0
 17 21  1  0  0  0  0
 17 26  1  0  0  0  0
 17 27  2  0  0  0  0
 18 25  1  0  0  0  0
 19 28  1  0  0  0  0
 20 26  1  0  0  0  0
 22 25  1  0  0  0  0
 23 24  1  0  0  0  0
  1 29  1  0  0  0  0
  2 30  1  0  0  0  0
  3 31  1  0  0  0  0
  4 32  1  0  0  0  0
  5 33  1  0  0  0  0
  6 34  1  0  0  0  0
  7 35  1  0  0  0  0
  8 36  1  0  0  0  0
  9 37  1  0  0  0  0
 10 38  1  0  0  0  0
 18 39  1  0  0  0  0
 18 40  1  0  0  0  0
 18 41  1  0  0  0  0
 19 42  1  0  0  0  0
 19 43  1  0  0  0  0
 19 44  1  0  0  0  0
 20 45  1  0  0  0  0
 20 46  1  0  0  0  0
 21 47  1  0  0  0  0
 21 48  1  0  0  0  0
 24 49  1  0  0  0  0
M  END
> <clash_score>
0

> <docking_score>
-8.57824420928955

> <overlap_score>
0.9057672619819641

$$$$
BENZO_410_1
  -OEChem-08232013553D

 49 52  0     0  0  0  0  0  0999 V2000
    4.2460    1.7520   20.8250 C   0  0  0  0  0  0  0  0  0  0  0  0
    3.8860    2.1050   19.5250 C   0  0  0  0  0  0  0  0  0  0  0  0
   13.6802   -1.0867   24.8643 C   0  0  0  0  0  0  0  0  0  0  0  0
    5.3890    1.0010   21.0690 C   0  0  0  0  0  0  0  0  0  0  0  0
   12.5346   -0.3063   24.7091 C   0  0  0  0  0  0  0  0  0  0  0  0
    4.6610    1.7170   18.4380 C   0  0  0  0  0  0  0  0  0  0  0  0
    9.5890   -2.4950   23.2210 C   0  0  0  0  0  0  0  0  0  0  0  0
    8.2550   -1.0010   24.5520 C   0  0  0  0  0  0  0  0  0  0  0  0
    9.1890   -3.5540   24.0140 C   0  0  0  0  0  0  0  0  0  0  0  0
    7.8700   -2.0610   25.3550 C   0  0  0  0  0  0  0  0  0  0  0  0
   14.2585   -1.7048   23.7555 C   0  0  0  0  0  0  0  0  0  0  0  0
   12.5452   -0.7623   22.3366 C   0  0  0  0  0  0  0  0  0  0  0  0
    6.1460    0.6070   19.9750 C   0  0  0  0  0  0  0  0  0  0  0  0
   11.9671   -0.1441   23.4453 C   0  0  0  0  0  0  0  0  0  0  0  0
    5.7970    0.9500   18.6730 C   0  0  0  0  0  0  0  0  0  0  0  0
    9.1280   -1.2090   23.4870 C   0  0  0  0  0  0  0  0  0  0  0  0
    8.3450   -3.3440   25.0980 C   0  0  0  0  0  0  0  0  0  0  0  0
   13.6909   -1.5427   22.4917 C   0  0  0  0  0  0  0  0  0  0  0  0
    7.2710   -0.1460   19.8310 C   0  0  0  0  0  0  0  0  0  0  0  0
    9.0430    0.2380   21.4940 C   0  0  0  0  0  0  0  0  0  0  0  0
    8.5126   -5.6654   25.5739 C   0  0  0  0  0  0  0  0  0  0  0  0
   10.7332    0.6950   23.2793 C   0  0  0  0  0  0  0  0  0  0  0  0
    8.0950   -0.7700   20.8440 C   0  0  0  0  0  0  0  0  0  0  0  0
    6.7100    0.3850   17.8100 N   0  0  0  0  0  0  0  0  0  0  0  0
    7.5840   -0.2700   18.5160 N   0  0  0  0  0  0  0  0  0  0  0  0
    9.5820   -0.1080   22.7000 N   0  0  0  0  0  0  0  0  0  0  0  0
    9.2950    1.3000   20.9480 O   0  0  0  0  0  0  0  0  0  0  0  0
    7.9864   -4.3799   25.8996 O   0  0  0  0  0  0  0  0  0  0  0  0
   14.4041   -2.3065   21.1243 Cl  0  0  0  0  0  0  0  0  0  0  0  0
    3.6316    2.0634   21.6529 H   0  0  0  0  0  0  0  0  0  0  0  0
    2.9935    2.6871   19.3570 H   0  0  0  0  0  0  0  0  0  0  0  0
   14.1218   -1.2128   25.8486 H   0  0  0  0  0  0  0  0  0  0  0  0
    5.6758    0.7297   22.1281 H   0  0  0  0  0  0  0  0  0  0  0  0
   12.0907    0.1716   25.5786 H   0  0  0  0  0  0  0  0  0  0  0  0
    4.3688    2.0204   17.3972 H   0  0  0  0  0  0  0  0  0  0  0  0
   10.2678   -2.6746   22.3862 H   0  0  0  0  0  0  0  0  0  0  0  0
    7.8691   -0.0023   24.7606 H   0  0  0  0  0  0  0  0  0  0  0  0
    9.5404   -4.5633   23.7846 H   0  0  0  0  0  0  0  0  0  0  0  0
    7.1920   -1.8875   26.1914 H   0  0  0  0  0  0  0  0  0  0  0  0
   15.1512   -2.3104   23.8914 H   0  0  0  0  0  0  0  0  0  0  0  0
   12.0992   -0.6324   21.3532 H   0  0  0  0  0  0  0  0  0  0  0  0
    8.1472   -6.4025   26.2932 H   0  0  0  0  0  0  0  0  0  0  0  0
    9.6047   -5.6294   25.5960 H   0  0  0  0  0  0  0  0  0  0  0  0
    8.1794   -5.9422   24.5709 H   0  0  0  0  0  0  0  0  0  0  0  0
   10.4115    1.1036   24.2435 H   0  0  0  0  0  0  0  0  0  0  0  0
   10.9216    1.5434   22.6131 H   0  0  0  0  0  0  0  0  0  0  0  0
    7.4774   -1.2066   21.6419 H   0  0  0  0  0  0  0  0  0  0  0  0
    8.7084   -1.5788   20.4215 H   0  0  0  0  0  0  0  0  0  0  0  0
    8.3291   -0.7564   18.0959 H   0  0  0  0  0  0  0  0  0  0  0  0
  1  2  1  0  0  0  0
  1  4  2  0  0  0  0
  2  6  2  0  0  0  0
  3  5  2  0  0  0  0
  3 11  1  0  0  0  0
  4 13  1  0  0  0  0
  5 14  1  0  0  0  0
  6 15  1  0  0  0  0
  7  9  2  0  0  0  0
  7 16  1  0  0  0  0
  8 10  1  0  0  0  0
  8 16  2  0  0  0  0
  9 17  1  0  0  0  0
 10 17  2  0  0  0  0
 11 18  2  0  0  0  0
 12 14  2  0  0  0  0
 12 18  1  0  0  0  0
 13 15  1  0  0  0  0
 13 19  2  0  0  0  0
 14 22  1  0  0  0  0
 15 24  2  0  0  0  0
 16 26  1  0  0  0  0
 17 28  1  0  0  0  0
 18 29  1  0  0  0  0
 19 23  1  0  0  0  0
 19 25  1  0  0  0  0
 20 23  1  0  0  0  0
 20 26  1  0  0  0  0
 20 27  2  0  0  0  0
 21 28  1  0  0  0  0
 22 26  1  0  0  0  0
 24 25  1  0  0  0  0
  1 30  1  0  0  0  0
  2 31  1  0  0  0  0
  3 32  1  0  0  0  0
  4 33  1  0  0  0  0
  5 34  1  0  0  0  0
  6 35  1  0  0  0  0
  7 36  1  0  0  0  0
  8 37  1  0  0  0  0
  9 38  1  0  0  0  0
 10 39  1  0  0  0  0
 11 40  1  0  0  0  0
 12 41  1  0  0  0  0
 21 42  1  0  0  0  0
 21 43  1  0  0  0  0
 21 44  1  0  0  0  0
 22 45  1  0  0  0  0
 22 46  1  0  0  0  0
 23 47  1  0  0  0  0
 23 48  1  0  0  0  0
 25 49  1  0  0  0  0
M  END
> <clash_score>
0

> <docking_score>
-8.356576919555664

> <overlap_score>
0.9197152256965637

$$$$
BENZO_413_1
  -OEChem-08232013553D

 59 63  0     0  0  0  0  0  0999 V2000
   14.3042   -1.3694   24.0873 C   0  0  0  0  0  0  0  0  0  0  0  0
    4.2460    1.7520   20.8250 C   0  0  0  0  0  0  0  0  0  0  0  0
   13.9329   -0.3050   24.9087 C   0  0  0  0  0  0  0  0  0  0  0  0
   13.4883   -1.7440   23.0196 C   0  0  0  0  0  0  0  0  0  0  0  0
    3.8860    2.1050   19.5250 C   0  0  0  0  0  0  0  0  0  0  0  0
    5.3890    1.0010   21.0690 C   0  0  0  0  0  0  0  0  0  0  0  0
   12.7458    0.3848   24.6627 C   0  0  0  0  0  0  0  0  0  0  0  0
   12.3012   -1.0542   22.7736 C   0  0  0  0  0  0  0  0  0  0  0  0
    4.6610    1.7170   18.4380 C   0  0  0  0  0  0  0  0  0  0  0  0
    9.1890   -3.5540   24.0140 C   0  0  0  0  0  0  0  0  0  0  0  0
    7.8700   -2.0610   25.3550 C   0  0  0  0  0  0  0  0  0  0  0  0
    9.5890   -2.4950   23.2210 C   0  0  0  0  0  0  0  0  0  0  0  0
    8.2550   -1.0010   24.5520 C   0  0  0  0  0  0  0  0  0  0  0  0
    6.1460    0.6070   19.9750 C   0  0  0  0  0  0  0  0  0  0  0  0
   11.9299    0.0102   23.5951 C   0  0  0  0  0  0  0  0  0  0  0  0
    5.7970    0.9500   18.6730 C   0  0  0  0  0  0  0  0  0  0  0  0
    8.3450   -3.3440   25.0980 C   0  0  0  0  0  0  0  0  0  0  0  0
    9.1280   -1.2090   23.4870 C   0  0  0  0  0  0  0  0  0  0  0  0
    7.2710   -0.1460   19.8310 C   0  0  0  0  0  0  0  0  0  0  0  0
    7.2752   -5.5548   25.4273 C   0  0  0  0  0  0  0  0  0  0  0  0
    9.0430    0.2380   21.4940 C   0  0  0  0  0  0  0  0  0  0  0  0
    7.1880   -6.7800   26.3209 C   0  0  0  0  0  0  0  0  0  0  0  0
    7.0916   -6.4753   27.7999 C   0  0  0  0  0  0  0  0  0  0  0  0
    8.2362   -5.5641   28.1841 C   0  0  0  0  0  0  0  0  0  0  0  0
    8.1241   -4.2655   27.4032 C   0  0  0  0  0  0  0  0  0  0  0  0
   10.6518    0.7520   23.3299 C   0  0  0  0  0  0  0  0  0  0  0  0
    8.0950   -0.7700   20.8440 C   0  0  0  0  0  0  0  0  0  0  0  0
    6.7100    0.3850   17.8100 N   0  0  0  0  0  0  0  0  0  0  0  0
    7.5840   -0.2700   18.5160 N   0  0  0  0  0  0  0  0  0  0  0  0
    7.9635   -4.4452   25.9501 N   0  0  0  0  0  0  0  0  0  0  0  0
    9.5820   -0.1080   22.7000 N   0  0  0  0  0  0  0  0  0  0  0  0
    6.7947   -5.6299   24.2931 O   0  0  0  0  0  0  0  0  0  0  0  0
    9.2950    1.3000   20.9480 O   0  0  0  0  0  0  0  0  0  0  0  0
   15.2292   -1.9055   24.2781 H   0  0  0  0  0  0  0  0  0  0  0  0
    3.6316    2.0634   21.6529 H   0  0  0  0  0  0  0  0  0  0  0  0
   14.5686   -0.0125   25.7394 H   0  0  0  0  0  0  0  0  0  0  0  0
   13.7776   -2.5719   22.3792 H   0  0  0  0  0  0  0  0  0  0  0  0
    2.9935    2.6871   19.3570 H   0  0  0  0  0  0  0  0  0  0  0  0
    5.6758    0.7297   22.1281 H   0  0  0  0  0  0  0  0  0  0  0  0
   12.4644    1.2127   25.3082 H   0  0  0  0  0  0  0  0  0  0  0  0
   11.6717   -1.3531   21.9396 H   0  0  0  0  0  0  0  0  0  0  0  0
    4.3688    2.0204   17.3972 H   0  0  0  0  0  0  0  0  0  0  0  0
    9.5436   -4.5614   23.7799 H   0  0  0  0  0  0  0  0  0  0  0  0
    7.1918   -1.8823   26.1906 H   0  0  0  0  0  0  0  0  0  0  0  0
   10.2676   -2.6754   22.3861 H   0  0  0  0  0  0  0  0  0  0  0  0
    7.8686   -0.0026   24.7598 H   0  0  0  0  0  0  0  0  0  0  0  0
    6.3101   -7.3613   26.0164 H   0  0  0  0  0  0  0  0  0  0  0  0
    8.0752   -7.3922   26.1183 H   0  0  0  0  0  0  0  0  0  0  0  0
    6.1328   -5.9938   28.0269 H   0  0  0  0  0  0  0  0  0  0  0  0
    7.1363   -7.4051   28.3772 H   0  0  0  0  0  0  0  0  0  0  0  0
    8.2035   -5.3520   29.2586 H   0  0  0  0  0  0  0  0  0  0  0  0
    9.1990   -6.0474   27.9788 H   0  0  0  0  0  0  0  0  0  0  0  0
    7.2505   -3.6996   27.7511 H   0  0  0  0  0  0  0  0  0  0  0  0
    9.0155   -3.6525   27.5824 H   0  0  0  0  0  0  0  0  0  0  0  0
   10.2440    1.1632   24.2598 H   0  0  0  0  0  0  0  0  0  0  0  0
   10.8196    1.5928   22.6486 H   0  0  0  0  0  0  0  0  0  0  0  0
    7.4659   -1.2025   21.6292 H   0  0  0  0  0  0  0  0  0  0  0  0
    8.6969   -1.5747   20.4087 H   0  0  0  0  0  0  0  0  0  0  0  0
    8.3291   -0.7564   18.0959 H   0  0  0  0  0  0  0  0  0  0  0  0
  1  3  1  0  0  0  0
  1  4  2  0  0  0  0
  2  5  1  0  0  0  0
  2  6  2  0  0  0  0
  3  7  2  0  0  0  0
  4  8  1  0  0  0  0
  5  9  2  0  0  0  0
  6 14  1  0  0  0  0
  7 15  1  0  0  0  0
  8 15  2  0  0  0  0
  9 16  1  0  0  0  0
 10 12  2  0  0  0  0
 10 17  1  0  0  0  0
 11 13  1  0  0  0  0
 11 17  2  0  0  0  0
 12 18  1  0  0  0  0
 13 18  2  0  0  0  0
 14 16  1  0  0  0  0
 14 19  2  0  0  0  0
 15 26  1  0  0  0  0
 16 28  2  0  0  0  0
 17 30  1  0  0  0  0
 18 31  1  0  0  0  0
 19 27  1  0  0  0  0
 19 29  1  0  0  0  0
 20 22  1  0  0  0  0
 20 30  1  0  0  0  0
 20 32  2  0  0  0  0
 21 27  1  0  0  0  0
 21 31  1  0  0  0  0
 21 33  2  0  0  0  0
 22 23  1  0  0  0  0
 23 24  1  0  0  0  0
 24 25  1  0  0  0  0
 25 30  1  0  0  0  0
 26 31  1  0  0  0  0
 28 29  1  0  0  0  0
  1 34  1  0  0  0  0
  2 35  1  0  0  0  0
  3 36  1  0  0  0  0
  4 37  1  0  0  0  0
  5 38  1  0  0  0  0
  6 39  1  0  0  0  0
  7 40  1  0  0  0  0
  8 41  1  0  0  0  0
  9 42  1  0  0  0  0
 10 43  1  0  0  0  0
 11 44  1  0  0  0  0
 12 45  1  0  0  0  0
 13 46  1  0  0  0  0
 22 47  1  0  0  0  0
 22 48  1  0  0  0  0
 23 49  1  0  0  0  0
 23 50  1  0  0  0  0
 24 51  1  0  0  0  0
 24 52  1  0  0  0  0
 25 53  1  0  0  0  0
 25 54  1  0  0  0  0
 26 55  1  0  0  0  0
 26 56  1  0  0  0  0
 27 57  1  0  0  0  0
 27 58  1  0  0  0  0
 29 59  1  0  0  0  0
M  END
> <clash_score>
0

> <docking_score>
-8.29906940460205

> <overlap_score>
0.9858354330062866

$$$$
BENZO_412_1
  -OEChem-08232013553D

 56 60  0     0  0  0  0  0  0999 V2000
    4.2460    1.7520   20.8250 C   0  0  0  0  0  0  0  0  0  0  0  0
    3.8860    2.1050   19.5250 C   0  0  0  0  0  0  0  0  0  0  0  0
    5.3890    1.0010   21.0690 C   0  0  0  0  0  0  0  0  0  0  0  0
    4.6610    1.7170   18.4380 C   0  0  0  0  0  0  0  0  0  0  0  0
    9.1890   -3.5540   24.0140 C   0  0  0  0  0  0  0  0  0  0  0  0
    7.8700   -2.0610   25.3550 C   0  0  0  0  0  0  0  0  0  0  0  0
    9.5890   -2.4950   23.2210 C   0  0  0  0  0  0  0  0  0  0  0  0
    8.2550   -1.0010   24.5520 C   0  0  0  0  0  0  0  0  0  0  0  0
   12.5149   -0.1281   24.8869 C   0  0  0  0  0  0  0  0  0  0  0  0
   13.6848   -0.8545   24.8501 C   0  0  0  0  0  0  0  0  0  0  0  0
   12.6752   -0.6156   22.6200 C   0  0  0  0  0  0  0  0  0  0  0  0
    6.1460    0.6070   19.9750 C   0  0  0  0  0  0  0  0  0  0  0  0
   11.9299    0.0102   23.5951 C   0  0  0  0  0  0  0  0  0  0  0  0
    5.7970    0.9500   18.6730 C   0  0  0  0  0  0  0  0  0  0  0  0
    8.3450   -3.3440   25.0980 C   0  0  0  0  0  0  0  0  0  0  0  0
    9.1280   -1.2090   23.4870 C   0  0  0  0  0  0  0  0  0  0  0  0
    7.2710   -0.1460   19.8310 C   0  0  0  0  0  0  0  0  0  0  0  0
    7.2752   -5.5548   25.4273 C   0  0  0  0  0  0  0  0  0  0  0  0
    9.0430    0.2380   21.4940 C   0  0  0  0  0  0  0  0  0  0  0  0
    7.1880   -6.7800   26.3209 C   0  0  0  0  0  0  0  0  0  0  0  0
    7.0916   -6.4753   27.7999 C   0  0  0  0  0  0  0  0  0  0  0  0
    8.2362   -5.5641   28.1841 C   0  0  0  0  0  0  0  0  0  0  0  0
    8.1241   -4.2655   27.4032 C   0  0  0  0  0  0  0  0  0  0  0  0
   10.6518    0.7520   23.3299 C   0  0  0  0  0  0  0  0  0  0  0  0
    8.0950   -0.7700   20.8440 C   0  0  0  0  0  0  0  0  0  0  0  0
    6.7100    0.3850   17.8100 N   0  0  0  0  0  0  0  0  0  0  0  0
    7.5840   -0.2700   18.5160 N   0  0  0  0  0  0  0  0  0  0  0  0
    7.9635   -4.4452   25.9501 N   0  0  0  0  0  0  0  0  0  0  0  0
    9.5820   -0.1080   22.7000 N   0  0  0  0  0  0  0  0  0  0  0  0
    6.7947   -5.6299   24.2931 O   0  0  0  0  0  0  0  0  0  0  0  0
    9.2950    1.3000   20.9480 O   0  0  0  0  0  0  0  0  0  0  0  0
   14.0737   -1.3661   23.2629 S   0  0  0  0  0  0  0  0  0  0  0  0
    3.6316    2.0634   21.6529 H   0  0  0  0  0  0  0  0  0  0  0  0
    2.9935    2.6871   19.3570 H   0  0  0  0  0  0  0  0  0  0  0  0
    5.6758    0.7297   22.1281 H   0  0  0  0  0  0  0  0  0  0  0  0
    4.3688    2.0204   17.3972 H   0  0  0  0  0  0  0  0  0  0  0  0
    9.5436   -4.5614   23.7799 H   0  0  0  0  0  0  0  0  0  0  0  0
    7.1918   -1.8823   26.1906 H   0  0  0  0  0  0  0  0  0  0  0  0
   10.2676   -2.6754   22.3861 H   0  0  0  0  0  0  0  0  0  0  0  0
    7.8686   -0.0026   24.7598 H   0  0  0  0  0  0  0  0  0  0  0  0
   12.1021    0.2830   25.7996 H   0  0  0  0  0  0  0  0  0  0  0  0
   14.3301   -1.1085   25.6791 H   0  0  0  0  0  0  0  0  0  0  0  0
   12.4696   -0.6694   21.5599 H   0  0  0  0  0  0  0  0  0  0  0  0
    6.3101   -7.3613   26.0164 H   0  0  0  0  0  0  0  0  0  0  0  0
    8.0752   -7.3922   26.1183 H   0  0  0  0  0  0  0  0  0  0  0  0
    6.1328   -5.9938   28.0269 H   0  0  0  0  0  0  0  0  0  0  0  0
    7.1363   -7.4051   28.3772 H   0  0  0  0  0  0  0  0  0  0  0  0
    8.2035   -5.3520   29.2586 H   0  0  0  0  0  0  0  0  0  0  0  0
    9.1990   -6.0474   27.9788 H   0  0  0  0  0  0  0  0  0  0  0  0
    7.2505   -3.6996   27.7511 H   0  0  0  0  0  0  0  0  0  0  0  0
    9.0155   -3.6525   27.5824 H   0  0  0  0  0  0  0  0  0  0  0  0
   10.2440    1.1632   24.2598 H   0  0  0  0  0  0  0  0  0  0  0  0
   10.8196    1.5928   22.6486 H   0  0  0  0  0  0  0  0  0  0  0  0
    7.4659   -1.2025   21.6292 H   0  0  0  0  0  0  0  0  0  0  0  0
    8.6969   -1.5747   20.4087 H   0  0  0  0  0  0  0  0  0  0  0  0
    8.3291   -0.7564   18.0959 H   0  0  0  0  0  0  0  0  0  0  0  0
  1  2  1  0  0  0  0
  1  3  2  0  0  0  0
  2  4  2  0  0  0  0
  3 12  1  0  0  0  0
  4 14  1  0  0  0  0
  5  7  2  0  0  0  0
  5 15  1  0  0  0  0
  6  8  1  0  0  0  0
  6 15  2  0  0  0  0
  7 16  1  0  0  0  0
  8 16  2  0  0  0  0
  9 10  2  0  0  0  0
  9 13  1  0  0  0  0
 10 32  1  0  0  0  0
 11 13  2  0  0  0  0
 11 32  1  0  0  0  0
 12 14  1  0  0  0  0
 12 17  2  0  0  0  0
 13 24  1  0  0  0  0
 14 26  2  0  0  0  0
 15 28  1  0  0  0  0
 16 29  1  0  0  0  0
 17 25  1  0  0  0  0
 17 27  1  0  0  0  0
 18 20  1  0  0  0  0
 18 28  1  0  0  0  0
 18 30  2  0  0  0  0
 19 25  1  0  0  0  0
 19 29  1  0  0  0  0
 19 31  2  0  0  0  0
 20 21  1  0  0  0  0
 21 22  1  0  0  0  0
 22 23  1  0  0  0  0
 23 28  1  0  0  0  0
 24 29  1  0  0  0  0
 26 27  1  0  0  0  0
  1 33  1  0  0  0  0
  2 34  1  0  0  0  0
  3 35  1  0  0  0  0
  4 36  1  0  0  0  0
  5 37  1  0  0  0  0
  6 38  1  0  0  0  0
  7 39  1  0  0  0  0
  8 40  1  0  0  0  0
  9 41  1  0  0  0  0
 10 42  1  0  0  0  0
 11 43  1  0  0  0  0
 20 44  1  0  0  0  0
 20 45  1  0  0  0  0
 21 46  1  0  0  0  0
 21 47  1  0  0  0  0
 22 48  1  0  0  0  0
 22 49  1  0  0  0  0
 23 50  1  0  0  0  0
 23 51  1  0  0  0  0
 24 52  1  0  0  0  0
 24 53  1  0  0  0  0
 25 54  1  0  0  0  0
 25 55  1  0  0  0  0
 27 56  1  0  0  0  0
M  END
> <clash_score>
0

> <docking_score>
-8.182502746582031

> <overlap_score>
0.970133900642395

$$$$
BENZO_415_1
  -OEChem-08232013553D

 59 63  0     0  0  0  0  0  0999 V2000
    4.2460    1.7520   20.8250 C   0  0  0  0  0  0  0  0  0  0  0  0
    3.8860    2.1050   19.5250 C   0  0  0  0  0  0  0  0  0  0  0  0
    5.3890    1.0010   21.0690 C   0  0  0  0  0  0  0  0  0  0  0  0
    4.6610    1.7170   18.4380 C   0  0  0  0  0  0  0  0  0  0  0  0
    9.1890   -3.5540   24.0140 C   0  0  0  0  0  0  0  0  0  0  0  0
    7.8700   -2.0610   25.3550 C   0  0  0  0  0  0  0  0  0  0  0  0
    9.5890   -2.4950   23.2210 C   0  0  0  0  0  0  0  0  0  0  0  0
    8.2550   -1.0010   24.5520 C   0  0  0  0  0  0  0  0  0  0  0  0
   13.2088    0.5787   23.8415 C   0  0  0  0  0  0  0  0  0  0  0  0
   12.4401   -0.8120   22.3216 C   0  0  0  0  0  0  0  0  0  0  0  0
    6.1460    0.6070   19.9750 C   0  0  0  0  0  0  0  0  0  0  0  0
   12.0356    0.1934   23.1654 C   0  0  0  0  0  0  0  0  0  0  0  0
    5.7970    0.9500   18.6730 C   0  0  0  0  0  0  0  0  0  0  0  0
    8.3450   -3.3440   25.0980 C   0  0  0  0  0  0  0  0  0  0  0  0
    9.1280   -1.2090   23.4870 C   0  0  0  0  0  0  0  0  0  0  0  0
    7.2710   -0.1460   19.8310 C   0  0  0  0  0  0  0  0  0  0  0  0
    8.7161   -4.7975   27.0830 C   0  0  0  0  0  0  0  0  0  0  0  0
    9.0430    0.2380   21.4940 C   0  0  0  0  0  0  0  0  0  0  0  0
    8.1364   -5.9760   27.8449 C   0  0  0  0  0  0  0  0  0  0  0  0
    6.6423   -5.8008   28.0518 C   0  0  0  0  0  0  0  0  0  0  0  0
    5.9022   -5.5526   26.7413 C   0  0  0  0  0  0  0  0  0  0  0  0
    6.8397   -5.2970   25.5620 C   0  0  0  0  0  0  0  0  0  0  0  0
   14.6508   -1.9043   21.8760 C   0  0  0  0  0  0  0  0  0  0  0  0
   10.6518    0.7520   23.3299 C   0  0  0  0  0  0  0  0  0  0  0  0
    8.0950   -0.7700   20.8440 C   0  0  0  0  0  0  0  0  0  0  0  0
   14.2783   -0.1247   23.4602 N   0  0  0  0  0  0  0  0  0  0  0  0
    6.7100    0.3850   17.8100 N   0  0  0  0  0  0  0  0  0  0  0  0
    7.5840   -0.2700   18.5160 N   0  0  0  0  0  0  0  0  0  0  0  0
   13.7788   -0.9622   22.5355 N   0  0  0  0  0  0  0  0  0  0  0  0
    7.9658   -4.4385   25.9449 N   0  0  0  0  0  0  0  0  0  0  0  0
    9.5820   -0.1080   22.7000 N   0  0  0  0  0  0  0  0  0  0  0  0
    9.7829   -4.3044   27.4475 O   0  0  0  0  0  0  0  0  0  0  0  0
    9.2950    1.3000   20.9480 O   0  0  0  0  0  0  0  0  0  0  0  0
    3.6316    2.0634   21.6529 H   0  0  0  0  0  0  0  0  0  0  0  0
    2.9935    2.6871   19.3570 H   0  0  0  0  0  0  0  0  0  0  0  0
    5.6758    0.7297   22.1281 H   0  0  0  0  0  0  0  0  0  0  0  0
    4.3688    2.0204   17.3972 H   0  0  0  0  0  0  0  0  0  0  0  0
    9.5436   -4.5614   23.7799 H   0  0  0  0  0  0  0  0  0  0  0  0
    7.1918   -1.8823   26.1906 H   0  0  0  0  0  0  0  0  0  0  0  0
   10.2676   -2.6754   22.3861 H   0  0  0  0  0  0  0  0  0  0  0  0
    7.8686   -0.0026   24.7598 H   0  0  0  0  0  0  0  0  0  0  0  0
   13.3312    1.3418   24.5971 H   0  0  0  0  0  0  0  0  0  0  0  0
   11.9026   -1.4192   21.6059 H   0  0  0  0  0  0  0  0  0  0  0  0
    8.3160   -6.8753   27.2760 H   0  0  0  0  0  0  0  0  0  0  0  0
    8.6443   -6.0335   28.7960 H   0  0  0  0  0  0  0  0  0  0  0  0
    6.2215   -6.6983   28.5513 H   0  0  0  0  0  0  0  0  0  0  0  0
    6.4589   -4.9587   28.7491 H   0  0  0  0  0  0  0  0  0  0  0  0
    5.2548   -6.4248   26.5112 H   0  0  0  0  0  0  0  0  0  0  0  0
    5.2035   -4.6957   26.8575 H   0  0  0  0  0  0  0  0  0  0  0  0
    7.2534   -6.2390   25.2146 H   0  0  0  0  0  0  0  0  0  0  0  0
    6.2879   -4.8231   24.7574 H   0  0  0  0  0  0  0  0  0  0  0  0
   15.0518   -1.4228   20.9803 H   0  0  0  0  0  0  0  0  0  0  0  0
   15.4613   -2.1864   22.5538 H   0  0  0  0  0  0  0  0  0  0  0  0
   14.0806   -2.7982   21.6082 H   0  0  0  0  0  0  0  0  0  0  0  0
   10.4052    0.8664   24.3911 H   0  0  0  0  0  0  0  0  0  0  0  0
   10.5702    1.7418   22.8685 H   0  0  0  0  0  0  0  0  0  0  0  0
    7.4659   -1.2025   21.6292 H   0  0  0  0  0  0  0  0  0  0  0  0
    8.6969   -1.5747   20.4087 H   0  0  0  0  0  0  0  0  0  0  0  0
    8.3291   -0.7564   18.0959 H   0  0  0  0  0  0  0  0  0  0  0  0
  1  2  1  0  0  0  0
  1  3  2  0  0  0  0
  2  4  2  0  0  0  0
  3 11  1  0  0  0  0
  4 13  1  0  0  0  0
  5  7  2  0  0  0  0
  5 14  1  0  0  0  0
  6  8  1  0  0  0  0
  6 14  2  0  0  0  0
  7 15  1  0  0  0  0
  8 15  2  0  0  0  0
  9 12  1  0  0  0  0
  9 26  2  0  0  0  0
 10 12  2  0  0  0  0
 10 29  1  0  0  0  0
 11 13  1  0  0  0  0
 11 16  2  0  0  0  0
 12 24  1  0  0  0  0
 13 27  2  0  0  0  0
 14 30  1  0  0  0  0
 15 31  1  0  0  0  0
 16 25  1  0  0  0  0
 16 28  1  0  0  0  0
 17 19  1  0  0  0  0
 17 30  1  0  0  0  0
 17 32  2  0  0  0  0
 18 25  1  0  0  0  0
 18 31  1  0  0  0  0
 18 33  2  0  0  0  0
 19 20  1  0  0  0  0
 20 21  1  0  0  0  0
 21 22  1  0  0  0  0
 22 30  1  0  0  0  0
 23 29  1  0  0  0  0
 24 31  1  0  0  0  0
 26 29  1  0  0  0  0
 27 28  1  0  0  0  0
  1 34  1  0  0  0  0
  2 35  1  0  0  0  0
  3 36  1  0  0  0  0
  4 37  1  0  0  0  0
  5 38  1  0  0  0  0
  6 39  1  0  0  0  0
  7 40  1  0  0  0  0
  8 41  1  0  0  0  0
  9 42  1  0  0  0  0
 10 43  1  0  0  0  0
 19 44  1  0  0  0  0
 19 45  1  0  0  0  0
 20 46  1  0  0  0  0
 20 47  1  0  0  0  0
 21 48  1  0  0  0  0
 21 49  1  0  0  0  0
 22 50  1  0  0  0  0
 22 51  1  0  0  0  0
 23 52  1  0  0  0  0
 23 53  1  0  0  0  0
 23 54  1  0  0  0  0
 24 55  1  0  0  0  0
 24 56  1  0  0  0  0
 25 57  1  0  0  0  0
 25 58  1  0  0  0  0
 28 59  1  0  0  0  0
M  END
> <clash_score>
0

> <docking_score>
-8.563928604125977

> <overlap_score>
0.9913878440856934

$$$$
BENZO_417_1
  -OEChem-08232013553D

 58 62  0     0  0  0  0  0  0999 V2000
   14.3042   -1.3681   24.0908 C   0  0  0  0  0  0  0  0  0  0  0  0
    4.2460    1.7520   20.8250 C   0  0  0  0  0  0  0  0  0  0  0  0
   13.9323   -0.3032   24.9113 C   0  0  0  0  0  0  0  0  0  0  0  0
   13.4890   -1.7436   23.0229 C   0  0  0  0  0  0  0  0  0  0  0  0
    3.8860    2.1050   19.5250 C   0  0  0  0  0  0  0  0  0  0  0  0
    5.3890    1.0010   21.0690 C   0  0  0  0  0  0  0  0  0  0  0  0
   12.7451    0.3861   24.6641 C   0  0  0  0  0  0  0  0  0  0  0  0
   12.3019   -1.0542   22.7758 C   0  0  0  0  0  0  0  0  0  0  0  0
    4.6610    1.7170   18.4380 C   0  0  0  0  0  0  0  0  0  0  0  0
    9.1890   -3.5540   24.0140 C   0  0  0  0  0  0  0  0  0  0  0  0
    7.8700   -2.0610   25.3550 C   0  0  0  0  0  0  0  0  0  0  0  0
    9.5890   -2.4950   23.2210 C   0  0  0  0  0  0  0  0  0  0  0  0
    8.2550   -1.0010   24.5520 C   0  0  0  0  0  0  0  0  0  0  0  0
    6.1460    0.6070   19.9750 C   0  0  0  0  0  0  0  0  0  0  0  0
   11.9299    0.0106   23.5964 C   0  0  0  0  0  0  0  0  0  0  0  0
    5.7970    0.9500   18.6730 C   0  0  0  0  0  0  0  0  0  0  0  0
    8.3450   -3.3440   25.0980 C   0  0  0  0  0  0  0  0  0  0  0  0
    9.1280   -1.2090   23.4870 C   0  0  0  0  0  0  0  0  0  0  0  0
    7.2710   -0.1460   19.8310 C   0  0  0  0  0  0  0  0  0  0  0  0
    9.0430    0.2380   21.4940 C   0  0  0  0  0  0  0  0  0  0  0  0
    8.9524   -5.2012   26.6600 C   0  0  0  0  0  0  0  0  0  0  0  0
    6.6112   -4.5068   26.4379 C   0  0  0  0  0  0  0  0  0  0  0  0
    8.9037   -4.7845   28.1261 C   0  0  0  0  0  0  0  0  0  0  0  0
    6.6374   -4.1243   27.9184 C   0  0  0  0  0  0  0  0  0  0  0  0
   10.6518    0.7520   23.3299 C   0  0  0  0  0  0  0  0  0  0  0  0
    8.0950   -0.7700   20.8440 C   0  0  0  0  0  0  0  0  0  0  0  0
    6.7100    0.3850   17.8100 N   0  0  0  0  0  0  0  0  0  0  0  0
    7.5840   -0.2700   18.5160 N   0  0  0  0  0  0  0  0  0  0  0  0
    7.9775   -4.4014   25.9151 N   0  0  0  0  0  0  0  0  0  0  0  0
    9.5820   -0.1080   22.7000 N   0  0  0  0  0  0  0  0  0  0  0  0
    9.2950    1.3000   20.9480 O   0  0  0  0  0  0  0  0  0  0  0  0
    7.5729   -4.9391   28.6338 O   0  0  0  0  0  0  0  0  0  0  0  0
   15.2293   -1.9039   24.2825 H   0  0  0  0  0  0  0  0  0  0  0  0
    3.6316    2.0634   21.6529 H   0  0  0  0  0  0  0  0  0  0  0  0
   14.5674   -0.0100   25.7421 H   0  0  0  0  0  0  0  0  0  0  0  0
   13.7788   -2.5719   22.3832 H   0  0  0  0  0  0  0  0  0  0  0  0
    2.9935    2.6871   19.3570 H   0  0  0  0  0  0  0  0  0  0  0  0
    5.6758    0.7297   22.1281 H   0  0  0  0  0  0  0  0  0  0  0  0
   12.4632    1.2145   25.3089 H   0  0  0  0  0  0  0  0  0  0  0  0
   11.6729   -1.3539   21.9416 H   0  0  0  0  0  0  0  0  0  0  0  0
    4.3688    2.0204   17.3972 H   0  0  0  0  0  0  0  0  0  0  0  0
    9.5426   -4.5618   23.7797 H   0  0  0  0  0  0  0  0  0  0  0  0
    7.1914   -1.8824   26.1903 H   0  0  0  0  0  0  0  0  0  0  0  0
   10.2669   -2.6745   22.3854 H   0  0  0  0  0  0  0  0  0  0  0  0
    7.8690   -0.0020   24.7587 H   0  0  0  0  0  0  0  0  0  0  0  0
    9.9615   -5.0500   26.2711 H   0  0  0  0  0  0  0  0  0  0  0  0
    8.6935   -6.2597   26.5720 H   0  0  0  0  0  0  0  0  0  0  0  0
    6.2628   -5.5350   26.3330 H   0  0  0  0  0  0  0  0  0  0  0  0
    5.9347   -3.8423   25.9023 H   0  0  0  0  0  0  0  0  0  0  0  0
    9.5597   -5.4275   28.7166 H   0  0  0  0  0  0  0  0  0  0  0  0
    9.2344   -3.7511   28.2636 H   0  0  0  0  0  0  0  0  0  0  0  0
    6.8874   -3.0657   28.0553 H   0  0  0  0  0  0  0  0  0  0  0  0
    5.6495   -4.2893   28.3591 H   0  0  0  0  0  0  0  0  0  0  0  0
   10.2425    1.1625   24.2595 H   0  0  0  0  0  0  0  0  0  0  0  0
   10.8201    1.5933   22.6493 H   0  0  0  0  0  0  0  0  0  0  0  0
    7.4659   -1.2025   21.6292 H   0  0  0  0  0  0  0  0  0  0  0  0
    8.6969   -1.5747   20.4087 H   0  0  0  0  0  0  0  0  0  0  0  0
    8.3291   -0.7564   18.0959 H   0  0  0  0  0  0  0  0  0  0  0  0
  1  3  1  0  0  0  0
  1  4  2  0  0  0  0
  2  5  1  0  0  0  0
  2  6  2  0  0  0  0
  3  7  2  0  0  0  0
  4  8  1  0  0  0  0
  5  9  2  0  0  0  0
  6 14  1  0  0  0  0
  7 15  1  0  0  0  0
  8 15  2  0  0  0  0
  9 16  1  0  0  0  0
 10 12  2  0  0  0  0
 10 17  1  0  0  0  0
 11 13  1  0  0  0  0
 11 17  2  0  0  0  0
 12 18  1  0  0  0  0
 13 18  2  0  0  0  0
 14 16  1  0  0  0  0
 14 19  2  0  0  0  0
 15 25  1  0  0  0  0
 16 27  2  0  0  0  0
 17 29  1  0  0  0  0
 18 30  1  0  0  0  0
 19 26  1  0  0  0  0
 19 28  1  0  0  0  0
 20 26  1  0  0  0  0
 20 30  1  0  0  0  0
 20 31  2  0  0  0  0
 21 23  1  0  0  0  0
 21 29  1  0  0  0  0
 22 24  1  0  0  0  0
 22 29  1  0  0  0  0
 23 32  1  0  0  0  0
 24 32  1  0  0  0  0
 25 30  1  0  0  0  0
 27 28  1  0  0  0  0
  1 33  1  0  0  0  0
  2 34  1  0  0  0  0
  3 35  1  0  0  0  0
  4 36  1  0  0  0  0
  5 37  1  0  0  0  0
  6 38  1  0  0  0  0
  7 39  1  0  0  0  0
  8 40  1  0  0  0  0
  9 41  1  0  0  0  0
 10 42  1  0  0  0  0
 11 43  1  0  0  0  0
 12 44  1  0  0  0  0
 13 45  1  0  0  0  0
 21 46  1  0  0  0  0
 21 47  1  0  0  0  0
 22 48  1  0  0  0  0
 22 49  1  0  0  0  0
 23 50  1  0  0  0  0
 23 51  1  0  0  0  0
 24 52  1  0  0  0  0
 24 53  1  0  0  0  0
 25 54  1  0  0  0  0
 25 55  1  0  0  0  0
 26 56  1  0  0  0  0
 26 57  1  0  0  0  0
 28 58  1  0  0  0  0
M  END
> <clash_score>
0

> <docking_score>
-9.427201271057129

> <overlap_score>
0.9834479093551636

$$$$
BENZO_416_1
  -OEChem-08232013553D

 55 59  0     0  0  0  0  0  0999 V2000
    4.2460    1.7520   20.8250 C   0  0  0  0  0  0  0  0  0  0  0  0
    3.8860    2.1050   19.5250 C   0  0  0  0  0  0  0  0  0  0  0  0
    5.3890    1.0010   21.0690 C   0  0  0  0  0  0  0  0  0  0  0  0
    4.6610    1.7170   18.4380 C   0  0  0  0  0  0  0  0  0  0  0  0
    9.1890   -3.5540   24.0140 C   0  0  0  0  0  0  0  0  0  0  0  0
    7.8700   -2.0610   25.3550 C   0  0  0  0  0  0  0  0  0  0  0  0
    9.5890   -2.4950   23.2210 C   0  0  0  0  0  0  0  0  0  0  0  0
    8.2550   -1.0010   24.5520 C   0  0  0  0  0  0  0  0  0  0  0  0
   12.5132   -0.1282   24.8889 C   0  0  0  0  0  0  0  0  0  0  0  0
   13.6835   -0.8539   24.8531 C   0  0  0  0  0  0  0  0  0  0  0  0
   12.6768   -0.6142   22.6218 C   0  0  0  0  0  0  0  0  0  0  0  0
    6.1460    0.6070   19.9750 C   0  0  0  0  0  0  0  0  0  0  0  0
   11.9299    0.0106   23.5964 C   0  0  0  0  0  0  0  0  0  0  0  0
    5.7970    0.9500   18.6730 C   0  0  0  0  0  0  0  0  0  0  0  0
    8.3450   -3.3440   25.0980 C   0  0  0  0  0  0  0  0  0  0  0  0
    9.1280   -1.2090   23.4870 C   0  0  0  0  0  0  0  0  0  0  0  0
    7.2710   -0.1460   19.8310 C   0  0  0  0  0  0  0  0  0  0  0  0
    9.0430    0.2380   21.4940 C   0  0  0  0  0  0  0  0  0  0  0  0
    8.9524   -5.2012   26.6600 C   0  0  0  0  0  0  0  0  0  0  0  0
    6.6112   -4.5068   26.4379 C   0  0  0  0  0  0  0  0  0  0  0  0
    8.9037   -4.7845   28.1261 C   0  0  0  0  0  0  0  0  0  0  0  0
    6.6374   -4.1243   27.9184 C   0  0  0  0  0  0  0  0  0  0  0  0
   10.6518    0.7520   23.3299 C   0  0  0  0  0  0  0  0  0  0  0  0
    8.0950   -0.7700   20.8440 C   0  0  0  0  0  0  0  0  0  0  0  0
    6.7100    0.3850   17.8100 N   0  0  0  0  0  0  0  0  0  0  0  0
    7.5840   -0.2700   18.5160 N   0  0  0  0  0  0  0  0  0  0  0  0
    7.9775   -4.4014   25.9151 N   0  0  0  0  0  0  0  0  0  0  0  0
    9.5820   -0.1080   22.7000 N   0  0  0  0  0  0  0  0  0  0  0  0
    9.2950    1.3000   20.9480 O   0  0  0  0  0  0  0  0  0  0  0  0
    7.5729   -4.9391   28.6338 O   0  0  0  0  0  0  0  0  0  0  0  0
   14.0748   -1.3644   23.2661 S   0  0  0  0  0  0  0  0  0  0  0  0
    3.6316    2.0634   21.6529 H   0  0  0  0  0  0  0  0  0  0  0  0
    2.9935    2.6871   19.3570 H   0  0  0  0  0  0  0  0  0  0  0  0
    5.6758    0.7297   22.1281 H   0  0  0  0  0  0  0  0  0  0  0  0
    4.3688    2.0204   17.3972 H   0  0  0  0  0  0  0  0  0  0  0  0
    9.5426   -4.5618   23.7797 H   0  0  0  0  0  0  0  0  0  0  0  0
    7.1914   -1.8824   26.1903 H   0  0  0  0  0  0  0  0  0  0  0  0
   10.2669   -2.6745   22.3854 H   0  0  0  0  0  0  0  0  0  0  0  0
    7.8690   -0.0020   24.7587 H   0  0  0  0  0  0  0  0  0  0  0  0
   12.0991    0.2822   25.8012 H   0  0  0  0  0  0  0  0  0  0  0  0
   14.3279   -1.1082   25.6828 H   0  0  0  0  0  0  0  0  0  0  0  0
   12.4727   -0.6673   21.5614 H   0  0  0  0  0  0  0  0  0  0  0  0
    9.9615   -5.0500   26.2711 H   0  0  0  0  0  0  0  0  0  0  0  0
    8.6935   -6.2597   26.5720 H   0  0  0  0  0  0  0  0  0  0  0  0
    6.2628   -5.5350   26.3330 H   0  0  0  0  0  0  0  0  0  0  0  0
    5.9347   -3.8423   25.9023 H   0  0  0  0  0  0  0  0  0  0  0  0
    9.5597   -5.4275   28.7166 H   0  0  0  0  0  0  0  0  0  0  0  0
    9.2344   -3.7511   28.2636 H   0  0  0  0  0  0  0  0  0  0  0  0
    6.8874   -3.0657   28.0553 H   0  0  0  0  0  0  0  0  0  0  0  0
    5.6495   -4.2893   28.3591 H   0  0  0  0  0  0  0  0  0  0  0  0
   10.2425    1.1625   24.2595 H   0  0  0  0  0  0  0  0  0  0  0  0
   10.8201    1.5933   22.6493 H   0  0  0  0  0  0  0  0  0  0  0  0
    7.4659   -1.2025   21.6292 H   0  0  0  0  0  0  0  0  0  0  0  0
    8.6969   -1.5747   20.4087 H   0  0  0  0  0  0  0  0  0  0  0  0
    8.3291   -0.7564   18.0959 H   0  0  0  0  0  0  0  0  0  0  0  0
  1  2  1  0  0  0  0
  1  3  2  0  0  0  0
  2  4  2  0  0  0  0
  3 12  1  0  0  0  0
  4 14  1  0  0  0  0
  5  7  2  0  0  0  0
  5 15  1  0  0  0  0
  6  8  1  0  0  0  0
  6 15  2  0  0  0  0
  7 16  1  0  0  0  0
  8 16  2  0  0  0  0
  9 10  2  0  0  0  0
  9 13  1  0  0  0  0
 10 31  1  0  0  0  0
 11 13  2  0  0  0  0
 11 31  1  0  0  0  0
 12 14  1  0  0  0  0
 12 17  2  0  0  0  0
 13 23  1  0  0  0  0
 14 25  2  0  0  0  0
 15 27  1  0  0  0  0
 16 28  1  0  0  0  0
 17 24  1  0  0  0  0
 17 26  1  0  0  0  0
 18 24  1  0  0  0  0
 18 28  1  0  0  0  0
 18 29  2  0  0  0  0
 19 21  1  0  0  0  0
 19 27  1  0  0  0  0
 20 22  1  0  0  0  0
 20 27  1  0  0  0  0
 21 30  1  0  0  0  0
 22 30  1  0  0  0  0
 23 28  1  0  0  0  0
 25 26  1  0  0  0  0
  1 32  1  0  0  0  0
  2 33  1  0  0  0  0
  3 34  1  0  0  0  0
  4 35  1  0  0  0  0
  5 36  1  0  0  0  0
  6 37  1  0  0  0  0
  7 38  1  0  0  0  0
  8 39  1  0  0  0  0
  9 40  1  0  0  0  0
 10 41  1  0  0  0  0
 11 42  1  0  0  0  0
 19 43  1  0  0  0  0
 19 44  1  0  0  0  0
 20 45  1  0  0  0  0
 20 46  1  0  0  0  0
 21 47  1  0  0  0  0
 21 48  1  0  0  0  0
 22 49  1  0  0  0  0
 22 50  1  0  0  0  0
 23 51  1  0  0  0  0
 23 52  1  0  0  0  0
 24 53  1  0  0  0  0
 24 54  1  0  0  0  0
 26 55  1  0  0  0  0
M  END
> <clash_score>
0

> <docking_score>
-9.312767028808594

> <overlap_score>
0.9677200317382812

$$$$
BENZO_414_1
  -OEChem-08232013553D

 59 63  0     0  0  0  0  0  0999 V2000
    4.2460    1.7520   20.8250 C   0  0  0  0  0  0  0  0  0  0  0  0
    3.8860    2.1050   19.5250 C   0  0  0  0  0  0  0  0  0  0  0  0
   13.6164   -0.7643   25.1419 C   0  0  0  0  0  0  0  0  0  0  0  0
    5.3890    1.0010   21.0690 C   0  0  0  0  0  0  0  0  0  0  0  0
   12.4297   -0.0743   24.8946 C   0  0  0  0  0  0  0  0  0  0  0  0
    4.6610    1.7170   18.4380 C   0  0  0  0  0  0  0  0  0  0  0  0
    9.1890   -3.5540   24.0140 C   0  0  0  0  0  0  0  0  0  0  0  0
    7.8700   -2.0610   25.3550 C   0  0  0  0  0  0  0  0  0  0  0  0
    9.5890   -2.4950   23.2210 C   0  0  0  0  0  0  0  0  0  0  0  0
    8.2550   -1.0010   24.5520 C   0  0  0  0  0  0  0  0  0  0  0  0
   14.3034   -1.3698   24.0897 C   0  0  0  0  0  0  0  0  0  0  0  0
   12.6168   -0.5953   22.5429 C   0  0  0  0  0  0  0  0  0  0  0  0
    6.1460    0.6070   19.9750 C   0  0  0  0  0  0  0  0  0  0  0  0
   11.9299    0.0102   23.5951 C   0  0  0  0  0  0  0  0  0  0  0  0
    5.7970    0.9500   18.6730 C   0  0  0  0  0  0  0  0  0  0  0  0
    8.3450   -3.3440   25.0980 C   0  0  0  0  0  0  0  0  0  0  0  0
    9.1280   -1.2090   23.4870 C   0  0  0  0  0  0  0  0  0  0  0  0
   13.8036   -1.2853   22.7902 C   0  0  0  0  0  0  0  0  0  0  0  0
    7.2710   -0.1460   19.8310 C   0  0  0  0  0  0  0  0  0  0  0  0
    7.2757   -5.5631   25.4492 C   0  0  0  0  0  0  0  0  0  0  0  0
    9.0430    0.2380   21.4940 C   0  0  0  0  0  0  0  0  0  0  0  0
    6.9626   -6.6001   26.5133 C   0  0  0  0  0  0  0  0  0  0  0  0
    6.3764   -5.9422   27.7501 C   0  0  0  0  0  0  0  0  0  0  0  0
    7.2660   -4.8258   28.2881 C   0  0  0  0  0  0  0  0  0  0  0  0
    8.4098   -4.4623   27.3426 C   0  0  0  0  0  0  0  0  0  0  0  0
   10.6518    0.7520   23.3299 C   0  0  0  0  0  0  0  0  0  0  0  0
    8.0950   -0.7700   20.8440 C   0  0  0  0  0  0  0  0  0  0  0  0
    6.7100    0.3850   17.8100 N   0  0  0  0  0  0  0  0  0  0  0  0
    7.5840   -0.2700   18.5160 N   0  0  0  0  0  0  0  0  0  0  0  0
    7.9658   -4.4384   25.9449 N   0  0  0  0  0  0  0  0  0  0  0  0
    9.5820   -0.1080   22.7000 N   0  0  0  0  0  0  0  0  0  0  0  0
    6.9858   -5.7908   24.2753 O   0  0  0  0  0  0  0  0  0  0  0  0
    9.2950    1.3000   20.9480 O   0  0  0  0  0  0  0  0  0  0  0  0
   14.6510   -2.0336   21.4926 Cl  0  0  0  0  0  0  0  0  0  0  0  0
    3.6316    2.0634   21.6529 H   0  0  0  0  0  0  0  0  0  0  0  0
    2.9935    2.6871   19.3570 H   0  0  0  0  0  0  0  0  0  0  0  0
   14.0052   -0.8300   26.1540 H   0  0  0  0  0  0  0  0  0  0  0  0
    5.6758    0.7297   22.1281 H   0  0  0  0  0  0  0  0  0  0  0  0
   11.9010    0.3943   25.7206 H   0  0  0  0  0  0  0  0  0  0  0  0
    4.3688    2.0204   17.3972 H   0  0  0  0  0  0  0  0  0  0  0  0
    9.5436   -4.5614   23.7799 H   0  0  0  0  0  0  0  0  0  0  0  0
    7.1918   -1.8823   26.1906 H   0  0  0  0  0  0  0  0  0  0  0  0
   10.2676   -2.6754   22.3861 H   0  0  0  0  0  0  0  0  0  0  0  0
    7.8686   -0.0026   24.7598 H   0  0  0  0  0  0  0  0  0  0  0  0
   15.2270   -1.9046   24.2973 H   0  0  0  0  0  0  0  0  0  0  0  0
   12.2232   -0.5262   21.5314 H   0  0  0  0  0  0  0  0  0  0  0  0
    6.2500   -7.3027   26.1097 H   0  0  0  0  0  0  0  0  0  0  0  0
    7.8838   -7.1078   26.7574 H   0  0  0  0  0  0  0  0  0  0  0  0
    5.3690   -5.5363   27.5214 H   0  0  0  0  0  0  0  0  0  0  0  0
    6.2178   -6.7054   28.5384 H   0  0  0  0  0  0  0  0  0  0  0  0
    6.6498   -3.9225   28.4807 H   0  0  0  0  0  0  0  0  0  0  0  0
    7.6764   -5.1138   29.2803 H   0  0  0  0  0  0  0  0  0  0  0  0
    8.7796   -3.4700   27.5826 H   0  0  0  0  0  0  0  0  0  0  0  0
    9.2112   -5.1853   27.4497 H   0  0  0  0  0  0  0  0  0  0  0  0
   10.2440    1.1632   24.2598 H   0  0  0  0  0  0  0  0  0  0  0  0
   10.8196    1.5928   22.6486 H   0  0  0  0  0  0  0  0  0  0  0  0
    7.4659   -1.2025   21.6292 H   0  0  0  0  0  0  0  0  0  0  0  0
    8.6969   -1.5747   20.4087 H   0  0  0  0  0  0  0  0  0  0  0  0
    8.3291   -0.7564   18.0959 H   0  0  0  0  0  0  0  0  0  0  0  0
  1  2  1  0  0  0  0
  1  4  2  0  0  0  0
  2  6  2  0  0  0  0
  3  5  2  0  0  0  0
  3 11  1  0  0  0  0
  4 13  1  0  0  0  0
  5 14  1  0  0  0  0
  6 15  1  0  0  0  0
  7  9  2  0  0  0  0
  7 16  1  0  0  0  0
  8 10  1  0  0  0  0
  8 16  2  0  0  0  0
  9 17  1  0  0  0  0
 10 17  2  0  0  0  0
 11 18  2  0  0  0  0
 12 14  2  0  0  0  0
 12 18  1  0  0  0  0
 13 15  1  0  0  0  0
 13 19  2  0  0  0  0
 14 26  1  0  0  0  0
 15 28  2  0  0  0  0
 16 30  1  0  0  0  0
 17 31  1  0  0  0  0
 18 34  1  0  0  0  0
 19 27  1  0  0  0  0
 19 29  1  0  0  0  0
 20 22  1  0  0  0  0
 20 30  1  0  0  0  0
 20 32  2  0  0  0  0
 21 27  1  0  0  0  0
 21 31  1  0  0  0  0
 21 33  2  0  0  0  0
 22 23  1  0  0  0  0
 23 24  1  0  0  0  0
 24 25  1  0  0  0  0
 25 30  1  0  0  0  0
 26 31  1  0  0  0  0
 28 29  1  0  0  0  0
  1 35  1  0  0  0  0
  2 36  1  0  0  0  0
  3 37  1  0  0  0  0
  4 38  1  0  0  0  0
  5 39  1  0  0  0  0
  6 40  1  0  0  0  0
  7 41  1  0  0  0  0
  8 42  1  0  0  0  0
  9 43  1  0  0  0  0
 10 44  1  0  0  0  0
 11 45  1  0  0  0  0
 12 46  1  0  0  0  0
 22 47  1  0  0  0  0
 22 48  1  0  0  0  0
 23 49  1  0  0  0  0
 23 50  1  0  0  0  0
 24 51  1  0  0  0  0
 24 52  1  0  0  0  0
 25 53  1  0  0  0  0
 25 54  1  0  0  0  0
 26 55  1  0  0  0  0
 26 56  1  0  0  0  0
 27 57  1  0  0  0  0
 27 58  1  0  0  0  0
 29 59  1  0  0  0  0
M  END
> <clash_score>
0

> <docking_score>
-7.6905293464660645

> <overlap_score>
0.9892637133598328

$$$$
BENZO_421_1
  -OEChem-08232013553D

 52 55  0     0  0  0  0  0  0999 V2000
   14.2829   -1.6682   23.7576 C   0  0  0  0  0  0  0  0  0  0  0  0
   14.0337   -0.6017   24.6214 C   0  0  0  0  0  0  0  0  0  0  0  0
   13.3784   -1.9663   22.7384 C   0  0  0  0  0  0  0  0  0  0  0  0
   12.8799    0.1666   24.4661 C   0  0  0  0  0  0  0  0  0  0  0  0
   12.2246   -1.1979   22.5831 C   0  0  0  0  0  0  0  0  0  0  0  0
    9.5890   -2.4950   23.2210 C   0  0  0  0  0  0  0  0  0  0  0  0
    8.2550   -1.0010   24.5520 C   0  0  0  0  0  0  0  0  0  0  0  0
    9.1890   -3.5540   24.0140 C   0  0  0  0  0  0  0  0  0  0  0  0
    7.8700   -2.0610   25.3550 C   0  0  0  0  0  0  0  0  0  0  0  0
   11.9754   -0.1315   23.4469 C   0  0  0  0  0  0  0  0  0  0  0  0
    9.1280   -1.2090   23.4870 C   0  0  0  0  0  0  0  0  0  0  0  0
    8.3450   -3.3440   25.0980 C   0  0  0  0  0  0  0  0  0  0  0  0
    6.1460    0.6070   19.9750 C   0  0  0  0  0  0  0  0  0  0  0  0
    7.2710   -0.1460   19.8310 C   0  0  0  0  0  0  0  0  0  0  0  0
    5.3890    1.0010   21.0690 C   0  0  0  0  0  0  0  0  0  0  0  0
    4.2460    1.7520   20.8250 C   0  0  0  0  0  0  0  0  0  0  0  0
    3.8860    2.1050   19.5250 C   0  0  0  0  0  0  0  0  0  0  0  0
    4.6610    1.7170   18.4380 C   0  0  0  0  0  0  0  0  0  0  0  0
    9.0430    0.2380   21.4940 C   0  0  0  0  0  0  0  0  0  0  0  0
    7.2639   -5.5576   25.3810 C   0  0  0  0  0  0  0  0  0  0  0  0
    8.3067   -4.4045   27.3384 C   0  0  0  0  0  0  0  0  0  0  0  0
   10.7332    0.6950   23.2793 C   0  0  0  0  0  0  0  0  0  0  0  0
    8.0950   -0.7700   20.8440 C   0  0  0  0  0  0  0  0  0  0  0  0
    7.5840   -0.2700   18.5160 N   0  0  0  0  0  0  0  0  0  0  0  0
    6.7100    0.3850   17.8100 N   0  0  0  0  0  0  0  0  0  0  0  0
    5.7970    0.9500   18.6730 N   0  0  0  0  0  0  0  0  0  0  0  0
    9.5820   -0.1080   22.7000 N   0  0  0  0  0  0  0  0  0  0  0  0
    7.9731   -4.4180   25.9279 N   0  0  0  0  0  0  0  0  0  0  0  0
    9.2950    1.3000   20.9480 O   0  0  0  0  0  0  0  0  0  0  0  0
   15.1820   -2.2655   23.8778 H   0  0  0  0  0  0  0  0  0  0  0  0
   14.7384   -0.3688   25.4143 H   0  0  0  0  0  0  0  0  0  0  0  0
   13.5726   -2.7958   22.0650 H   0  0  0  0  0  0  0  0  0  0  0  0
   12.6938    0.9956   25.1439 H   0  0  0  0  0  0  0  0  0  0  0  0
   11.5255   -1.4376   21.7863 H   0  0  0  0  0  0  0  0  0  0  0  0
   10.2682   -2.6746   22.3864 H   0  0  0  0  0  0  0  0  0  0  0  0
    7.8692   -0.0022   24.7600 H   0  0  0  0  0  0  0  0  0  0  0  0
    9.5433   -4.5619   23.7809 H   0  0  0  0  0  0  0  0  0  0  0  0
    7.1923   -1.8829   26.1908 H   0  0  0  0  0  0  0  0  0  0  0  0
    5.6533    0.7494   22.0767 H   0  0  0  0  0  0  0  0  0  0  0  0
    3.6389    2.0586   21.6677 H   0  0  0  0  0  0  0  0  0  0  0  0
    2.9824    2.6968   19.3331 H   0  0  0  0  0  0  0  0  0  0  0  0
    4.4115    1.9887   17.4356 H   0  0  0  0  0  0  0  0  0  0  0  0
    7.0644   -6.2848   26.1818 H   0  0  0  0  0  0  0  0  0  0  0  0
    6.3113   -5.2218   24.9452 H   0  0  0  0  0  0  0  0  0  0  0  0
    7.8775   -6.0310   24.6004 H   0  0  0  0  0  0  0  0  0  0  0  0
    7.9333   -5.3240   27.8129 H   0  0  0  0  0  0  0  0  0  0  0  0
    9.3989   -4.3487   27.4561 H   0  0  0  0  0  0  0  0  0  0  0  0
    7.8412   -3.5301   27.8167 H   0  0  0  0  0  0  0  0  0  0  0  0
   10.4069    1.1014   24.2429 H   0  0  0  0  0  0  0  0  0  0  0  0
   10.9135    1.5446   22.6123 H   0  0  0  0  0  0  0  0  0  0  0  0
    7.4785   -1.2070   21.6432 H   0  0  0  0  0  0  0  0  0  0  0  0
    8.7096   -1.5792   20.4228 H   0  0  0  0  0  0  0  0  0  0  0  0
  1  2  1  0  0  0  0
  1  3  2  0  0  0  0
  2  4  2  0  0  0  0
  3  5  1  0  0  0  0
  4 10  1  0  0  0  0
  5 10  2  0  0  0  0
  6  8  2  0  0  0  0
  6 11  1  0  0  0  0
  7  9  1  0  0  0  0
  7 11  2  0  0  0  0
  8 12  1  0  0  0  0
  9 12  2  0  0  0  0
 10 22  1  0  0  0  0
 11 27  1  0  0  0  0
 12 28  1  0  0  0  0
 13 14  2  0  0  0  0
 13 15  1  0  0  0  0
 13 26  1  0  0  0  0
 14 23  1  0  0  0  0
 14 24  1  0  0  0  0
 15 16  2  0  0  0  0
 16 17  1  0  0  0  0
 17 18  2  0  0  0  0
 18 26  1  0  0  0  0
 19 23  1  0  0  0  0
 19 27  1  0  0  0  0
 19 29  2  0  0  0  0
 20 28  1  0  0  0  0
 21 28  1  0  0  0  0
 22 27  1  0  0  0  0
 24 25  2  0  0  0  0
 25 26  1  0  0  0  0
  1 30  1  0  0  0  0
  2 31  1  0  0  0  0
  3 32  1  0  0  0  0
  4 33  1  0  0  0  0
  5 34  1  0  0  0  0
  6 35  1  0  0  0  0
  7 36  1  0  0  0  0
  8 37  1  0  0  0  0
  9 38  1  0  0  0  0
 15 39  1  0  0  0  0
 16 40  1  0  0  0  0
 17 41  1  0  0  0  0
 18 42  1  0  0  0  0
 20 43  1  0  0  0  0
 20 44  1  0  0  0  0
 20 45  1  0  0  0  0
 21 46  1  0  0  0  0
 21 47  1  0  0  0  0
 21 48  1  0  0  0  0
 22 49  1  0  0  0  0
 22 50  1  0  0  0  0
 23 51  1  0  0  0  0
 23 52  1  0  0  0  0
M  END
> <clash_score>
0

> <docking_score>
-9.700332641601562

> <overlap_score>
0.9425107836723328

$$$$
BENZO_420_1
  -OEChem-08232013553D

 49 52  0     0  0  0  0  0  0999 V2000
    9.5890   -2.4950   23.2210 C   0  0  0  0  0  0  0  0  0  0  0  0
    8.2550   -1.0010   24.5520 C   0  0  0  0  0  0  0  0  0  0  0  0
    9.1890   -3.5540   24.0140 C   0  0  0  0  0  0  0  0  0  0  0  0
    7.8700   -2.0610   25.3550 C   0  0  0  0  0  0  0  0  0  0  0  0
   12.6248   -0.3452   24.6970 C   0  0  0  0  0  0  0  0  0  0  0  0
   13.7426   -1.1402   24.5701 C   0  0  0  0  0  0  0  0  0  0  0  0
   12.6218   -0.7711   22.4120 C   0  0  0  0  0  0  0  0  0  0  0  0
   11.9754   -0.1315   23.4469 C   0  0  0  0  0  0  0  0  0  0  0  0
    9.1280   -1.2090   23.4870 C   0  0  0  0  0  0  0  0  0  0  0  0
    8.3450   -3.3440   25.0980 C   0  0  0  0  0  0  0  0  0  0  0  0
    6.1460    0.6070   19.9750 C   0  0  0  0  0  0  0  0  0  0  0  0
    7.2710   -0.1460   19.8310 C   0  0  0  0  0  0  0  0  0  0  0  0
    5.3890    1.0010   21.0690 C   0  0  0  0  0  0  0  0  0  0  0  0
    4.2460    1.7520   20.8250 C   0  0  0  0  0  0  0  0  0  0  0  0
    3.8860    2.1050   19.5250 C   0  0  0  0  0  0  0  0  0  0  0  0
    4.6610    1.7170   18.4380 C   0  0  0  0  0  0  0  0  0  0  0  0
    9.0430    0.2380   21.4940 C   0  0  0  0  0  0  0  0  0  0  0  0
    7.2639   -5.5576   25.3810 C   0  0  0  0  0  0  0  0  0  0  0  0
    8.3067   -4.4045   27.3384 C   0  0  0  0  0  0  0  0  0  0  0  0
   10.7332    0.6950   23.2793 C   0  0  0  0  0  0  0  0  0  0  0  0
    8.0950   -0.7700   20.8440 C   0  0  0  0  0  0  0  0  0  0  0  0
    7.5840   -0.2700   18.5160 N   0  0  0  0  0  0  0  0  0  0  0  0
    6.7100    0.3850   17.8100 N   0  0  0  0  0  0  0  0  0  0  0  0
    5.7970    0.9500   18.6730 N   0  0  0  0  0  0  0  0  0  0  0  0
    9.5820   -0.1080   22.7000 N   0  0  0  0  0  0  0  0  0  0  0  0
    7.9731   -4.4180   25.9279 N   0  0  0  0  0  0  0  0  0  0  0  0
    9.2950    1.3000   20.9480 O   0  0  0  0  0  0  0  0  0  0  0  0
   14.0054   -1.6252   22.9489 S   0  0  0  0  0  0  0  0  0  0  0  0
   10.2682   -2.6746   22.3864 H   0  0  0  0  0  0  0  0  0  0  0  0
    7.8692   -0.0022   24.7600 H   0  0  0  0  0  0  0  0  0  0  0  0
    9.5433   -4.5619   23.7809 H   0  0  0  0  0  0  0  0  0  0  0  0
    7.1923   -1.8829   26.1908 H   0  0  0  0  0  0  0  0  0  0  0  0
   12.2926    0.0619   25.6436 H   0  0  0  0  0  0  0  0  0  0  0  0
   14.4179   -1.4589   25.3515 H   0  0  0  0  0  0  0  0  0  0  0  0
   12.3518   -0.7793   21.3651 H   0  0  0  0  0  0  0  0  0  0  0  0
    5.6533    0.7494   22.0767 H   0  0  0  0  0  0  0  0  0  0  0  0
    3.6389    2.0586   21.6677 H   0  0  0  0  0  0  0  0  0  0  0  0
    2.9824    2.6968   19.3331 H   0  0  0  0  0  0  0  0  0  0  0  0
    4.4115    1.9887   17.4356 H   0  0  0  0  0  0  0  0  0  0  0  0
    7.0644   -6.2848   26.1818 H   0  0  0  0  0  0  0  0  0  0  0  0
    6.3113   -5.2218   24.9452 H   0  0  0  0  0  0  0  0  0  0  0  0
    7.8775   -6.0310   24.6004 H   0  0  0  0  0  0  0  0  0  0  0  0
    7.9333   -5.3240   27.8129 H   0  0  0  0  0  0  0  0  0  0  0  0
    9.3989   -4.3487   27.4561 H   0  0  0  0  0  0  0  0  0  0  0  0
    7.8412   -3.5301   27.8167 H   0  0  0  0  0  0  0  0  0  0  0  0
   10.4069    1.1014   24.2429 H   0  0  0  0  0  0  0  0  0  0  0  0
   10.9135    1.5446   22.6123 H   0  0  0  0  0  0  0  0  0  0  0  0
    7.4785   -1.2070   21.6432 H   0  0  0  0  0  0  0  0  0  0  0  0
    8.7096   -1.5792   20.4228 H   0  0  0  0  0  0  0  0  0  0  0  0
  1  3  2  0  0  0  0
  1  9  1  0  0  0  0
  2  4  1  0  0  0  0
  2  9  2  0  0  0  0
  3 10  1  0  0  0  0
  4 10  2  0  0  0  0
  5  6  2  0  0  0  0
  5  8  1  0  0  0  0
  6 28  1  0  0  0  0
  7  8  2  0  0  0  0
  7 28  1  0  0  0  0
  8 20  1  0  0  0  0
  9 25  1  0  0  0  0
 10 26  1  0  0  0  0
 11 12  2  0  0  0  0
 11 13  1  0  0  0  0
 11 24  1  0  0  0  0
 12 21  1  0  0  0  0
 12 22  1  0  0  0  0
 13 14  2  0  0  0  0
 14 15  1  0  0  0  0
 15 16  2  0  0  0  0
 16 24  1  0  0  0  0
 17 21  1  0  0  0  0
 17 25  1  0  0  0  0
 17 27  2  0  0  0  0
 18 26  1  0  0  0  0
 19 26  1  0  0  0  0
 20 25  1  0  0  0  0
 22 23  2  0  0  0  0
 23 24  1  0  0  0  0
  1 29  1  0  0  0  0
  2 30  1  0  0  0  0
  3 31  1  0  0  0  0
  4 32  1  0  0  0  0
  5 33  1  0  0  0  0
  6 34  1  0  0  0  0
  7 35  1  0  0  0  0
 13 36  1  0  0  0  0
 14 37  1  0  0  0  0
 15 38  1  0  0  0  0
 16 39  1  0  0  0  0
 18 40  1  0  0  0  0
 18 41  1  0  0  0  0
 18 42  1  0  0  0  0
 19 43  1  0  0  0  0
 19 44  1  0  0  0  0
 19 45  1  0  0  0  0
 20 46  1  0  0  0  0
 20 47  1  0  0  0  0
 21 48  1  0  0  0  0
 21 49  1  0  0  0  0
M  END
> <clash_score>
0

> <docking_score>
-9.26054859161377

> <overlap_score>
0.9279918670654297

$$$$
BENZO_418_1
  -OEChem-08232013553D

 58 62  0     0  0  0  0  0  0999 V2000
    4.2460    1.7520   20.8250 C   0  0  0  0  0  0  0  0  0  0  0  0
    3.8860    2.1050   19.5250 C   0  0  0  0  0  0  0  0  0  0  0  0
   13.6147   -0.7640   25.1449 C   0  0  0  0  0  0  0  0  0  0  0  0
    5.3890    1.0010   21.0690 C   0  0  0  0  0  0  0  0  0  0  0  0
   12.4280   -0.0744   24.8965 C   0  0  0  0  0  0  0  0  0  0  0  0
    4.6610    1.7170   18.4380 C   0  0  0  0  0  0  0  0  0  0  0  0
    9.1890   -3.5540   24.0140 C   0  0  0  0  0  0  0  0  0  0  0  0
    7.8700   -2.0610   25.3550 C   0  0  0  0  0  0  0  0  0  0  0  0
    9.5890   -2.4950   23.2210 C   0  0  0  0  0  0  0  0  0  0  0  0
    8.2550   -1.0010   24.5520 C   0  0  0  0  0  0  0  0  0  0  0  0
   14.3034   -1.3685   24.0932 C   0  0  0  0  0  0  0  0  0  0  0  0
   12.6185   -0.5939   22.5446 C   0  0  0  0  0  0  0  0  0  0  0  0
    6.1460    0.6070   19.9750 C   0  0  0  0  0  0  0  0  0  0  0  0
   11.9299    0.0106   23.5964 C   0  0  0  0  0  0  0  0  0  0  0  0
    5.7970    0.9500   18.6730 C   0  0  0  0  0  0  0  0  0  0  0  0
    8.3450   -3.3440   25.0980 C   0  0  0  0  0  0  0  0  0  0  0  0
    9.1280   -1.2090   23.4870 C   0  0  0  0  0  0  0  0  0  0  0  0
   13.8053   -1.2834   22.7931 C   0  0  0  0  0  0  0  0  0  0  0  0
    7.2710   -0.1460   19.8310 C   0  0  0  0  0  0  0  0  0  0  0  0
    9.0430    0.2380   21.4940 C   0  0  0  0  0  0  0  0  0  0  0  0
    8.9524   -5.2012   26.6600 C   0  0  0  0  0  0  0  0  0  0  0  0
    6.6112   -4.5068   26.4379 C   0  0  0  0  0  0  0  0  0  0  0  0
    8.9037   -4.7845   28.1261 C   0  0  0  0  0  0  0  0  0  0  0  0
    6.6374   -4.1243   27.9184 C   0  0  0  0  0  0  0  0  0  0  0  0
   10.6518    0.7520   23.3299 C   0  0  0  0  0  0  0  0  0  0  0  0
    8.0950   -0.7700   20.8440 C   0  0  0  0  0  0  0  0  0  0  0  0
    6.7100    0.3850   17.8100 N   0  0  0  0  0  0  0  0  0  0  0  0
    7.5840   -0.2700   18.5160 N   0  0  0  0  0  0  0  0  0  0  0  0
    7.9775   -4.4014   25.9151 N   0  0  0  0  0  0  0  0  0  0  0  0
    9.5820   -0.1080   22.7000 N   0  0  0  0  0  0  0  0  0  0  0  0
    9.2950    1.3000   20.9480 O   0  0  0  0  0  0  0  0  0  0  0  0
    7.5729   -4.9391   28.6338 O   0  0  0  0  0  0  0  0  0  0  0  0
   14.6548   -2.0304   21.4961 Cl  0  0  0  0  0  0  0  0  0  0  0  0
    3.6316    2.0634   21.6529 H   0  0  0  0  0  0  0  0  0  0  0  0
    2.9935    2.6871   19.3570 H   0  0  0  0  0  0  0  0  0  0  0  0
   14.0022   -0.8302   26.1575 H   0  0  0  0  0  0  0  0  0  0  0  0
    5.6758    0.7297   22.1281 H   0  0  0  0  0  0  0  0  0  0  0  0
   11.8980    0.3934   25.7220 H   0  0  0  0  0  0  0  0  0  0  0  0
    4.3688    2.0204   17.3972 H   0  0  0  0  0  0  0  0  0  0  0  0
    9.5426   -4.5618   23.7797 H   0  0  0  0  0  0  0  0  0  0  0  0
    7.1914   -1.8824   26.1903 H   0  0  0  0  0  0  0  0  0  0  0  0
   10.2669   -2.6745   22.3854 H   0  0  0  0  0  0  0  0  0  0  0  0
    7.8690   -0.0020   24.7587 H   0  0  0  0  0  0  0  0  0  0  0  0
   15.2270   -1.9030   24.3017 H   0  0  0  0  0  0  0  0  0  0  0  0
   12.2263   -0.5242   21.5327 H   0  0  0  0  0  0  0  0  0  0  0  0
    9.9615   -5.0500   26.2711 H   0  0  0  0  0  0  0  0  0  0  0  0
    8.6935   -6.2597   26.5720 H   0  0  0  0  0  0  0  0  0  0  0  0
    6.2628   -5.5350   26.3330 H   0  0  0  0  0  0  0  0  0  0  0  0
    5.9347   -3.8423   25.9023 H   0  0  0  0  0  0  0  0  0  0  0  0
    9.5597   -5.4275   28.7166 H   0  0  0  0  0  0  0  0  0  0  0  0
    9.2344   -3.7511   28.2636 H   0  0  0  0  0  0  0  0  0  0  0  0
    6.8874   -3.0657   28.0553 H   0  0  0  0  0  0  0  0  0  0  0  0
    5.6495   -4.2893   28.3591 H   0  0  0  0  0  0  0  0  0  0  0  0
   10.2425    1.1625   24.2595 H   0  0  0  0  0  0  0  0  0  0  0  0
   10.8201    1.5933   22.6493 H   0  0  0  0  0  0  0  0  0  0  0  0
    7.4659   -1.2025   21.6292 H   0  0  0  0  0  0  0  0  0  0  0  0
    8.6969   -1.5747   20.4087 H   0  0  0  0  0  0  0  0  0  0  0  0
    8.3291   -0.7564   18.0959 H   0  0  0  0  0  0  0  0  0  0  0  0
  1  2  1  0  0  0  0
  1  4  2  0  0  0  0
  2  6  2  0  0  0  0
  3  5  2  0  0  0  0
  3 11  1  0  0  0  0
  4 13  1  0  0  0  0
  5 14  1  0  0  0  0
  6 15  1  0  0  0  0
  7  9  2  0  0  0  0
  7 16  1  0  0  0  0
  8 10  1  0  0  0  0
  8 16  2  0  0  0  0
  9 17  1  0  0  0  0
 10 17  2  0  0  0  0
 11 18  2  0  0  0  0
 12 14  2  0  0  0  0
 12 18  1  0  0  0  0
 13 15  1  0  0  0  0
 13 19  2  0  0  0  0
 14 25  1  0  0  0  0
 15 27  2  0  0  0  0
 16 29  1  0  0  0  0
 17 30  1  0  0  0  0
 18 33  1  0  0  0  0
 19 26  1  0  0  0  0
 19 28  1  0  0  0  0
 20 26  1  0  0  0  0
 20 30  1  0  0  0  0
 20 31  2  0  0  0  0
 21 23  1  0  0  0  0
 21 29  1  0  0  0  0
 22 24  1  0  0  0  0
 22 29  1  0  0  0  0
 23 32  1  0  0  0  0
 24 32  1  0  0  0  0
 25 30  1  0  0  0  0
 27 28  1  0  0  0  0
  1 34  1  0  0  0  0
  2 35  1  0  0  0  0
  3 36  1  0  0  0  0
  4 37  1  0  0  0  0
  5 38  1  0  0  0  0
  6 39  1  0  0  0  0
  7 40  1  0  0  0  0
  8 41  1  0  0  0  0
  9 42  1  0  0  0  0
 10 43  1  0  0  0  0
 11 44  1  0  0  0  0
 12 45  1  0  0  0  0
 21 46  1  0  0  0  0
 21 47  1  0  0  0  0
 22 48  1  0  0  0  0
 22 49  1  0  0  0  0
 23 50  1  0  0  0  0
 23 51  1  0  0  0  0
 24 52  1  0  0  0  0
 24 53  1  0  0  0  0
 25 54  1  0  0  0  0
 25 55  1  0  0  0  0
 26 56  1  0  0  0  0
 26 57  1  0  0  0  0
 28 58  1  0  0  0  0
M  END
> <clash_score>
0

> <docking_score>
-8.740111351013184

> <overlap_score>
0.992435872554779

$$$$
BENZO_419_1
  -OEChem-08232013553D

 58 62  0     0  0  0  0  0  0999 V2000
    4.2460    1.7520   20.8250 C   0  0  0  0  0  0  0  0  0  0  0  0
    3.8860    2.1050   19.5250 C   0  0  0  0  0  0  0  0  0  0  0  0
    5.3890    1.0010   21.0690 C   0  0  0  0  0  0  0  0  0  0  0  0
    4.6610    1.7170   18.4380 C   0  0  0  0  0  0  0  0  0  0  0  0
    9.1890   -3.5540   24.0140 C   0  0  0  0  0  0  0  0  0  0  0  0
    7.8700   -2.0610   25.3550 C   0  0  0  0  0  0  0  0  0  0  0  0
    9.5890   -2.4950   23.2210 C   0  0  0  0  0  0  0  0  0  0  0  0
    8.2550   -1.0010   24.5520 C   0  0  0  0  0  0  0  0  0  0  0  0
   13.2467    0.9035   23.0594 C   0  0  0  0  0  0  0  0  0  0  0  0
   12.4045   -1.1274   23.0912 C   0  0  0  0  0  0  0  0  0  0  0  0
    6.1460    0.6070   19.9750 C   0  0  0  0  0  0  0  0  0  0  0  0
   12.0359    0.1935   23.1667 C   0  0  0  0  0  0  0  0  0  0  0  0
    5.7970    0.9500   18.6730 C   0  0  0  0  0  0  0  0  0  0  0  0
    8.3450   -3.3440   25.0980 C   0  0  0  0  0  0  0  0  0  0  0  0
    9.1280   -1.2090   23.4870 C   0  0  0  0  0  0  0  0  0  0  0  0
    7.2710   -0.1460   19.8310 C   0  0  0  0  0  0  0  0  0  0  0  0
    9.0430    0.2380   21.4940 C   0  0  0  0  0  0  0  0  0  0  0  0
    8.9524   -5.2012   26.6600 C   0  0  0  0  0  0  0  0  0  0  0  0
    6.6112   -4.5068   26.4379 C   0  0  0  0  0  0  0  0  0  0  0  0
    8.9037   -4.7845   28.1261 C   0  0  0  0  0  0  0  0  0  0  0  0
    6.6374   -4.1243   27.9184 C   0  0  0  0  0  0  0  0  0  0  0  0
   14.6083   -2.2904   22.8282 C   0  0  0  0  0  0  0  0  0  0  0  0
   10.6518    0.7520   23.3299 C   0  0  0  0  0  0  0  0  0  0  0  0
    8.0950   -0.7700   20.8440 C   0  0  0  0  0  0  0  0  0  0  0  0
   14.3054    0.1001   22.9261 N   0  0  0  0  0  0  0  0  0  0  0  0
    6.7100    0.3850   17.8100 N   0  0  0  0  0  0  0  0  0  0  0  0
    7.5840   -0.2700   18.5160 N   0  0  0  0  0  0  0  0  0  0  0  0
   13.7609   -1.1284   22.9492 N   0  0  0  0  0  0  0  0  0  0  0  0
    7.9775   -4.4014   25.9151 N   0  0  0  0  0  0  0  0  0  0  0  0
    9.5820   -0.1080   22.7000 N   0  0  0  0  0  0  0  0  0  0  0  0
    9.2950    1.3000   20.9480 O   0  0  0  0  0  0  0  0  0  0  0  0
    7.5729   -4.9391   28.6338 O   0  0  0  0  0  0  0  0  0  0  0  0
    3.6316    2.0634   21.6529 H   0  0  0  0  0  0  0  0  0  0  0  0
    2.9935    2.6871   19.3570 H   0  0  0  0  0  0  0  0  0  0  0  0
    5.6758    0.7297   22.1281 H   0  0  0  0  0  0  0  0  0  0  0  0
    4.3688    2.0204   17.3972 H   0  0  0  0  0  0  0  0  0  0  0  0
    9.5426   -4.5618   23.7797 H   0  0  0  0  0  0  0  0  0  0  0  0
    7.1914   -1.8824   26.1903 H   0  0  0  0  0  0  0  0  0  0  0  0
   10.2669   -2.6745   22.3854 H   0  0  0  0  0  0  0  0  0  0  0  0
    7.8690   -0.0020   24.7587 H   0  0  0  0  0  0  0  0  0  0  0  0
   13.4045    1.9726   23.0734 H   0  0  0  0  0  0  0  0  0  0  0  0
   11.8315   -2.0441   23.1269 H   0  0  0  0  0  0  0  0  0  0  0  0
    9.9615   -5.0500   26.2711 H   0  0  0  0  0  0  0  0  0  0  0  0
    8.6935   -6.2597   26.5720 H   0  0  0  0  0  0  0  0  0  0  0  0
    6.2628   -5.5350   26.3330 H   0  0  0  0  0  0  0  0  0  0  0  0
    5.9347   -3.8423   25.9023 H   0  0  0  0  0  0  0  0  0  0  0  0
    9.5597   -5.4275   28.7166 H   0  0  0  0  0  0  0  0  0  0  0  0
    9.2344   -3.7511   28.2636 H   0  0  0  0  0  0  0  0  0  0  0  0
    6.8874   -3.0657   28.0553 H   0  0  0  0  0  0  0  0  0  0  0  0
    5.6495   -4.2893   28.3591 H   0  0  0  0  0  0  0  0  0  0  0  0
   14.6982   -2.5331   21.7661 H   0  0  0  0  0  0  0  0  0  0  0  0
   15.5910   -2.0704   23.2545 H   0  0  0  0  0  0  0  0  0  0  0  0
   14.1591   -3.1239   23.3753 H   0  0  0  0  0  0  0  0  0  0  0  0
   10.4039    0.8655   24.3909 H   0  0  0  0  0  0  0  0  0  0  0  0
   10.5708    1.7422   22.8693 H   0  0  0  0  0  0  0  0  0  0  0  0
    7.4659   -1.2025   21.6292 H   0  0  0  0  0  0  0  0  0  0  0  0
    8.6969   -1.5747   20.4087 H   0  0  0  0  0  0  0  0  0  0  0  0
    8.3291   -0.7564   18.0959 H   0  0  0  0  0  0  0  0  0  0  0  0
  1  2  1  0  0  0  0
  1  3  2  0  0  0  0
  2  4  2  0  0  0  0
  3 11  1  0  0  0  0
  4 13  1  0  0  0  0
  5  7  2  0  0  0  0
  5 14  1  0  0  0  0
  6  8  1  0  0  0  0
  6 14  2  0  0  0  0
  7 15  1  0  0  0  0
  8 15  2  0  0  0  0
  9 12  1  0  0  0  0
  9 25  2  0  0  0  0
 10 12  2  0  0  0  0
 10 28  1  0  0  0  0
 11 13  1  0  0  0  0
 11 16  2  0  0  0  0
 12 23  1  0  0  0  0
 13 26  2  0  0  0  0
 14 29  1  0  0  0  0
 15 30  1  0  0  0  0
 16 24  1  0  0  0  0
 16 27  1  0  0  0  0
 17 24  1  0  0  0  0
 17 30  1  0  0  0  0
 17 31  2  0  0  0  0
 18 20  1  0  0  0  0
 18 29  1  0  0  0  0
 19 21  1  0  0  0  0
 19 29  1  0  0  0  0
 20 32  1  0  0  0  0
 21 32  1  0  0  0  0
 22 28  1  0  0  0  0
 23 30  1  0  0  0  0
 25 28  1  0  0  0  0
 26 27  1  0  0  0  0
  1 33  1  0  0  0  0
  2 34  1  0  0  0  0
  3 35  1  0  0  0  0
  4 36  1  0  0  0  0
  5 37  1  0  0  0  0
  6 38  1  0  0  0  0
  7 39  1  0  0  0  0
  8 40  1  0  0  0  0
  9 41  1  0  0  0  0
 10 42  1  0  0  0  0
 18 43  1  0  0  0  0
 18 44  1  0  0  0  0
 19 45  1  0  0  0  0
 19 46  1  0  0  0  0
 20 47  1  0  0  0  0
 20 48  1  0  0  0  0
 21 49  1  0  0  0  0
 21 50  1  0  0  0  0
 22 51  1  0  0  0  0
 22 52  1  0  0  0  0
 22 53  1  0  0  0  0
 23 54  1  0  0  0  0
 23 55  1  0  0  0  0
 24 56  1  0  0  0  0
 24 57  1  0  0  0  0
 27 58  1  0  0  0  0
M  END
> <clash_score>
0

> <docking_score>
-10.418848037719727

> <overlap_score>
0.969912052154541

$$$$
BENZO_423_1
  -OEChem-08232013553D

 52 55  0     0  0  0  0  0  0999 V2000
    9.5890   -2.4950   23.2210 C   0  0  0  0  0  0  0  0  0  0  0  0
    8.2550   -1.0010   24.5520 C   0  0  0  0  0  0  0  0  0  0  0  0
    9.1890   -3.5540   24.0140 C   0  0  0  0  0  0  0  0  0  0  0  0
    7.8700   -2.0610   25.3550 C   0  0  0  0  0  0  0  0  0  0  0  0
   13.3011    0.3469   23.6172 C   0  0  0  0  0  0  0  0  0  0  0  0
   12.3483   -0.9498   22.1187 C   0  0  0  0  0  0  0  0  0  0  0  0
   12.0646    0.0552   23.0109 C   0  0  0  0  0  0  0  0  0  0  0  0
    9.1280   -1.2090   23.4870 C   0  0  0  0  0  0  0  0  0  0  0  0
    8.3450   -3.3440   25.0980 C   0  0  0  0  0  0  0  0  0  0  0  0
    6.1460    0.6070   19.9750 C   0  0  0  0  0  0  0  0  0  0  0  0
    7.2710   -0.1460   19.8310 C   0  0  0  0  0  0  0  0  0  0  0  0
    5.3890    1.0010   21.0690 C   0  0  0  0  0  0  0  0  0  0  0  0
    4.2460    1.7520   20.8250 C   0  0  0  0  0  0  0  0  0  0  0  0
    3.8860    2.1050   19.5250 C   0  0  0  0  0  0  0  0  0  0  0  0
    4.6610    1.7170   18.4380 C   0  0  0  0  0  0  0  0  0  0  0  0
    9.0430    0.2380   21.4940 C   0  0  0  0  0  0  0  0  0  0  0  0
   14.4506   -2.1662   21.5028 C   0  0  0  0  0  0  0  0  0  0  0  0
    7.2639   -5.5576   25.3810 C   0  0  0  0  0  0  0  0  0  0  0  0
    8.3067   -4.4045   27.3384 C   0  0  0  0  0  0  0  0  0  0  0  0
   10.7332    0.6950   23.2793 C   0  0  0  0  0  0  0  0  0  0  0  0
    8.0950   -0.7700   20.8440 C   0  0  0  0  0  0  0  0  0  0  0  0
   14.2963   -0.4115   23.1498 N   0  0  0  0  0  0  0  0  0  0  0  0
    7.5840   -0.2700   18.5160 N   0  0  0  0  0  0  0  0  0  0  0  0
    6.7100    0.3850   17.8100 N   0  0  0  0  0  0  0  0  0  0  0  0
   13.6854   -1.1898   22.2404 N   0  0  0  0  0  0  0  0  0  0  0  0
    5.7970    0.9500   18.6730 N   0  0  0  0  0  0  0  0  0  0  0  0
    9.5820   -0.1080   22.7000 N   0  0  0  0  0  0  0  0  0  0  0  0
    7.9731   -4.4180   25.9279 N   0  0  0  0  0  0  0  0  0  0  0  0
    9.2950    1.3000   20.9480 O   0  0  0  0  0  0  0  0  0  0  0  0
   10.2682   -2.6746   22.3864 H   0  0  0  0  0  0  0  0  0  0  0  0
    7.8692   -0.0022   24.7600 H   0  0  0  0  0  0  0  0  0  0  0  0
    9.5433   -4.5619   23.7809 H   0  0  0  0  0  0  0  0  0  0  0  0
    7.1923   -1.8829   26.1908 H   0  0  0  0  0  0  0  0  0  0  0  0
   13.5209    1.0795   24.3810 H   0  0  0  0  0  0  0  0  0  0  0  0
   11.7278   -1.5018   21.4258 H   0  0  0  0  0  0  0  0  0  0  0  0
    5.6533    0.7494   22.0767 H   0  0  0  0  0  0  0  0  0  0  0  0
    3.6389    2.0586   21.6677 H   0  0  0  0  0  0  0  0  0  0  0  0
    2.9824    2.6968   19.3331 H   0  0  0  0  0  0  0  0  0  0  0  0
    4.4115    1.9887   17.4356 H   0  0  0  0  0  0  0  0  0  0  0  0
   14.8236   -1.6862   20.5943 H   0  0  0  0  0  0  0  0  0  0  0  0
   15.2831   -2.5175   22.1189 H   0  0  0  0  0  0  0  0  0  0  0  0
   13.8079   -3.0147   21.2520 H   0  0  0  0  0  0  0  0  0  0  0  0
    7.0644   -6.2848   26.1818 H   0  0  0  0  0  0  0  0  0  0  0  0
    6.3113   -5.2218   24.9452 H   0  0  0  0  0  0  0  0  0  0  0  0
    7.8775   -6.0310   24.6004 H   0  0  0  0  0  0  0  0  0  0  0  0
    7.9333   -5.3240   27.8129 H   0  0  0  0  0  0  0  0  0  0  0  0
    9.3989   -4.3487   27.4561 H   0  0  0  0  0  0  0  0  0  0  0  0
    7.8412   -3.5301   27.8167 H   0  0  0  0  0  0  0  0  0  0  0  0
   10.5631    0.7951   24.3568 H   0  0  0  0  0  0  0  0  0  0  0  0
   10.6863    1.7004   22.8479 H   0  0  0  0  0  0  0  0  0  0  0  0
    7.4785   -1.2070   21.6432 H   0  0  0  0  0  0  0  0  0  0  0  0
    8.7096   -1.5792   20.4228 H   0  0  0  0  0  0  0  0  0  0  0  0
  1  3  2  0  0  0  0
  1  8  1  0  0  0  0
  2  4  1  0  0  0  0
  2  8  2  0  0  0  0
  3  9  1  0  0  0  0
  4  9  2  0  0  0  0
  5  7  1  0  0  0  0
  5 22  2  0  0  0  0
  6  7  2  0  0  0  0
  6 25  1  0  0  0  0
  7 20  1  0  0  0  0
  8 27  1  0  0  0  0
  9 28  1  0  0  0  0
 10 11  2  0  0  0  0
 10 12  1  0  0  0  0
 10 26  1  0  0  0  0
 11 21  1  0  0  0  0
 11 23  1  0  0  0  0
 12 13  2  0  0  0  0
 13 14  1  0  0  0  0
 14 15  2  0  0  0  0
 15 26  1  0  0  0  0
 16 21  1  0  0  0  0
 16 27  1  0  0  0  0
 16 29  2  0  0  0  0
 17 25  1  0  0  0  0
 18 28  1  0  0  0  0
 19 28  1  0  0  0  0
 20 27  1  0  0  0  0
 22 25  1  0  0  0  0
 23 24  2  0  0  0  0
 24 26  1  0  0  0  0
  1 30  1  0  0  0  0
  2 31  1  0  0  0  0
  3 32  1  0  0  0  0
  4 33  1  0  0  0  0
  5 34  1  0  0  0  0
  6 35  1  0  0  0  0
 12 36  1  0  0  0  0
 13 37  1  0  0  0  0
 14 38  1  0  0  0  0
 15 39  1  0  0  0  0
 17 40  1  0  0  0  0
 17 41  1  0  0  0  0
 17 42  1  0  0  0  0
 18 43  1  0  0  0  0
 18 44  1  0  0  0  0
 18 45  1  0  0  0  0
 19 46  1  0  0  0  0
 19 47  1  0  0  0  0
 19 48  1  0  0  0  0
 20 49  1  0  0  0  0
 20 50  1  0  0  0  0
 21 51  1  0  0  0  0
 21 52  1  0  0  0  0
M  END
> <clash_score>
0

> <docking_score>
-9.535209655761719

> <overlap_score>
0.9297633171081543

$$$$
BENZO_422_1
  -OEChem-08232013553D

 52 55  0     0  0  0  0  0  0999 V2000
   13.6971   -1.0552   24.8678 C   0  0  0  0  0  0  0  0  0  0  0  0
   12.5438   -0.2866   24.7112 C   0  0  0  0  0  0  0  0  0  0  0  0
    9.5890   -2.4950   23.2210 C   0  0  0  0  0  0  0  0  0  0  0  0
    8.2550   -1.0010   24.5520 C   0  0  0  0  0  0  0  0  0  0  0  0
    9.1890   -3.5540   24.0140 C   0  0  0  0  0  0  0  0  0  0  0  0
    7.8700   -2.0610   25.3550 C   0  0  0  0  0  0  0  0  0  0  0  0
   14.2822   -1.6686   23.7601 C   0  0  0  0  0  0  0  0  0  0  0  0
   12.5604   -0.7449   22.3391 C   0  0  0  0  0  0  0  0  0  0  0  0
   11.9754   -0.1315   23.4469 C   0  0  0  0  0  0  0  0  0  0  0  0
    9.1280   -1.2090   23.4870 C   0  0  0  0  0  0  0  0  0  0  0  0
    8.3450   -3.3440   25.0980 C   0  0  0  0  0  0  0  0  0  0  0  0
   13.7138   -1.5135   22.4957 C   0  0  0  0  0  0  0  0  0  0  0  0
    6.1460    0.6070   19.9750 C   0  0  0  0  0  0  0  0  0  0  0  0
    7.2710   -0.1460   19.8310 C   0  0  0  0  0  0  0  0  0  0  0  0
    5.3890    1.0010   21.0690 C   0  0  0  0  0  0  0  0  0  0  0  0
    4.2460    1.7520   20.8250 C   0  0  0  0  0  0  0  0  0  0  0  0
    3.8860    2.1050   19.5250 C   0  0  0  0  0  0  0  0  0  0  0  0
    4.6610    1.7170   18.4380 C   0  0  0  0  0  0  0  0  0  0  0  0
    9.0430    0.2380   21.4940 C   0  0  0  0  0  0  0  0  0  0  0  0
    7.2639   -5.5576   25.3810 C   0  0  0  0  0  0  0  0  0  0  0  0
    8.3067   -4.4045   27.3384 C   0  0  0  0  0  0  0  0  0  0  0  0
   10.7332    0.6950   23.2793 C   0  0  0  0  0  0  0  0  0  0  0  0
    8.0950   -0.7700   20.8440 C   0  0  0  0  0  0  0  0  0  0  0  0
    7.5840   -0.2700   18.5160 N   0  0  0  0  0  0  0  0  0  0  0  0
    6.7100    0.3850   17.8100 N   0  0  0  0  0  0  0  0  0  0  0  0
    5.7970    0.9500   18.6730 N   0  0  0  0  0  0  0  0  0  0  0  0
    9.5820   -0.1080   22.7000 N   0  0  0  0  0  0  0  0  0  0  0  0
    7.9731   -4.4180   25.9279 N   0  0  0  0  0  0  0  0  0  0  0  0
    9.2950    1.3000   20.9480 O   0  0  0  0  0  0  0  0  0  0  0  0
   14.4355   -2.2715   21.1296 Cl  0  0  0  0  0  0  0  0  0  0  0  0
   14.1393   -1.1759   25.8525 H   0  0  0  0  0  0  0  0  0  0  0  0
   12.0946    0.1877   25.5799 H   0  0  0  0  0  0  0  0  0  0  0  0
   10.2682   -2.6746   22.3864 H   0  0  0  0  0  0  0  0  0  0  0  0
    7.8692   -0.0022   24.7600 H   0  0  0  0  0  0  0  0  0  0  0  0
    9.5433   -4.5619   23.7809 H   0  0  0  0  0  0  0  0  0  0  0  0
    7.1923   -1.8829   26.1908 H   0  0  0  0  0  0  0  0  0  0  0  0
   15.1809   -2.2650   23.8971 H   0  0  0  0  0  0  0  0  0  0  0  0
   12.1137   -0.6205   21.3554 H   0  0  0  0  0  0  0  0  0  0  0  0
    5.6533    0.7494   22.0767 H   0  0  0  0  0  0  0  0  0  0  0  0
    3.6389    2.0586   21.6677 H   0  0  0  0  0  0  0  0  0  0  0  0
    2.9824    2.6968   19.3331 H   0  0  0  0  0  0  0  0  0  0  0  0
    4.4115    1.9887   17.4356 H   0  0  0  0  0  0  0  0  0  0  0  0
    7.0644   -6.2848   26.1818 H   0  0  0  0  0  0  0  0  0  0  0  0
    6.3113   -5.2218   24.9452 H   0  0  0  0  0  0  0  0  0  0  0  0
    7.8775   -6.0310   24.6004 H   0  0  0  0  0  0  0  0  0  0  0  0
    7.9333   -5.3240   27.8129 H   0  0  0  0  0  0  0  0  0  0  0  0
    9.3989   -4.3487   27.4561 H   0  0  0  0  0  0  0  0  0  0  0  0
    7.8412   -3.5301   27.8167 H   0  0  0  0  0  0  0  0  0  0  0  0
   10.4069    1.1014   24.2429 H   0  0  0  0  0  0  0  0  0  0  0  0
   10.9135    1.5446   22.6123 H   0  0  0  0  0  0  0  0  0  0  0  0
    7.4785   -1.2070   21.6432 H   0  0  0  0  0  0  0  0  0  0  0  0
    8.7096   -1.5792   20.4228 H   0  0  0  0  0  0  0  0  0  0  0  0
  1  2  2  0  0  0  0
  1  7  1  0  0  0  0
  2  9  1  0  0  0  0
  3  5  2  0  0  0  0
  3 10  1  0  0  0  0
  4  6  1  0  0  0  0
  4 10  2  0  0  0  0
  5 11  1  0  0  0  0
  6 11  2  0  0  0  0
  7 12  2  0  0  0  0
  8  9  2  0  0  0  0
  8 12  1  0  0  0  0
  9 22  1  0  0  0  0
 10 27  1  0  0  0  0
 11 28  1  0  0  0  0
 12 30  1  0  0  0  0
 13 14  2  0  0  0  0
 13 15  1  0  0  0  0
 13 26  1  0  0  0  0
 14 23  1  0  0  0  0
 14 24  1  0  0  0  0
 15 16  2  0  0  0  0
 16 17  1  0  0  0  0
 17 18  2  0  0  0  0
 18 26  1  0  0  0  0
 19 23  1  0  0  0  0
 19 27  1  0  0  0  0
 19 29  2  0  0  0  0
 20 28  1  0  0  0  0
 21 28  1  0  0  0  0
 22 27  1  0  0  0  0
 24 25  2  0  0  0  0
 25 26  1  0  0  0  0
  1 31  1  0  0  0  0
  2 32  1  0  0  0  0
  3 33  1  0  0  0  0
  4 34  1  0  0  0  0
  5 35  1  0  0  0  0
  6 36  1  0  0  0  0
  7 37  1  0  0  0  0
  8 38  1  0  0  0  0
 15 39  1  0  0  0  0
 16 40  1  0  0  0  0
 17 41  1  0  0  0  0
 18 42  1  0  0  0  0
 20 43  1  0  0  0  0
 20 44  1  0  0  0  0
 20 45  1  0  0  0  0
 21 46  1  0  0  0  0
 21 47  1  0  0  0  0
 21 48  1  0  0  0  0
 22 49  1  0  0  0  0
 22 50  1  0  0  0  0
 23 51  1  0  0  0  0
 23 52  1  0  0  0  0
M  END
> <clash_score>
0

> <docking_score>
-8.731619834899902

> <overlap_score>
0.9509475231170654

$$$$
BENZO_425_1
  -OEChem-08232013553D

 54 57  0     0  0  0  0  0  0999 V2000
   14.2829   -1.6682   23.7576 C   0  0  0  0  0  0  0  0  0  0  0  0
   14.0337   -0.6017   24.6214 C   0  0  0  0  0  0  0  0  0  0  0  0
   13.3784   -1.9663   22.7384 C   0  0  0  0  0  0  0  0  0  0  0  0
   12.8799    0.1666   24.4661 C   0  0  0  0  0  0  0  0  0  0  0  0
   12.2246   -1.1979   22.5831 C   0  0  0  0  0  0  0  0  0  0  0  0
    9.1890   -3.5540   24.0140 C   0  0  0  0  0  0  0  0  0  0  0  0
    7.8700   -2.0610   25.3550 C   0  0  0  0  0  0  0  0  0  0  0  0
    9.5890   -2.4950   23.2210 C   0  0  0  0  0  0  0  0  0  0  0  0
    8.2550   -1.0010   24.5520 C   0  0  0  0  0  0  0  0  0  0  0  0
   11.9754   -0.1315   23.4469 C   0  0  0  0  0  0  0  0  0  0  0  0
    8.3450   -3.3440   25.0980 C   0  0  0  0  0  0  0  0  0  0  0  0
    9.1280   -1.2090   23.4870 C   0  0  0  0  0  0  0  0  0  0  0  0
    6.1460    0.6070   19.9750 C   0  0  0  0  0  0  0  0  0  0  0  0
    7.2710   -0.1460   19.8310 C   0  0  0  0  0  0  0  0  0  0  0  0
    5.3890    1.0010   21.0690 C   0  0  0  0  0  0  0  0  0  0  0  0
    4.2460    1.7520   20.8250 C   0  0  0  0  0  0  0  0  0  0  0  0
    3.8860    2.1050   19.5250 C   0  0  0  0  0  0  0  0  0  0  0  0
    4.6610    1.7170   18.4380 C   0  0  0  0  0  0  0  0  0  0  0  0
    9.0430    0.2380   21.4940 C   0  0  0  0  0  0  0  0  0  0  0  0
    7.6605   -4.3757   27.2874 C   0  0  0  0  0  0  0  0  0  0  0  0
    8.4363   -6.7640   27.6033 C   0  0  0  0  0  0  0  0  0  0  0  0
   10.7332    0.6950   23.2793 C   0  0  0  0  0  0  0  0  0  0  0  0
    8.0950   -0.7700   20.8440 C   0  0  0  0  0  0  0  0  0  0  0  0
    7.3111   -5.7643   27.8016 C   0  0  0  0  0  0  0  0  0  0  0  0
    7.5840   -0.2700   18.5160 N   0  0  0  0  0  0  0  0  0  0  0  0
    6.7100    0.3850   17.8100 N   0  0  0  0  0  0  0  0  0  0  0  0
    5.7970    0.9500   18.6730 N   0  0  0  0  0  0  0  0  0  0  0  0
    7.9771   -4.4058   25.9196 N   0  0  0  0  0  0  0  0  0  0  0  0
    9.5820   -0.1080   22.7000 N   0  0  0  0  0  0  0  0  0  0  0  0
    9.2950    1.3000   20.9480 O   0  0  0  0  0  0  0  0  0  0  0  0
    7.6505   -3.3901   28.0176 O   0  0  0  0  0  0  0  0  0  0  0  0
   15.1820   -2.2655   23.8778 H   0  0  0  0  0  0  0  0  0  0  0  0
   14.7384   -0.3688   25.4143 H   0  0  0  0  0  0  0  0  0  0  0  0
   13.5726   -2.7958   22.0650 H   0  0  0  0  0  0  0  0  0  0  0  0
   12.6938    0.9956   25.1439 H   0  0  0  0  0  0  0  0  0  0  0  0
   11.5255   -1.4376   21.7863 H   0  0  0  0  0  0  0  0  0  0  0  0
    9.5436   -4.5614   23.7799 H   0  0  0  0  0  0  0  0  0  0  0  0
    7.1918   -1.8823   26.1906 H   0  0  0  0  0  0  0  0  0  0  0  0
   10.2676   -2.6754   22.3861 H   0  0  0  0  0  0  0  0  0  0  0  0
    7.8686   -0.0026   24.7598 H   0  0  0  0  0  0  0  0  0  0  0  0
    5.6533    0.7494   22.0767 H   0  0  0  0  0  0  0  0  0  0  0  0
    3.6389    2.0586   21.6677 H   0  0  0  0  0  0  0  0  0  0  0  0
    2.9824    2.6968   19.3331 H   0  0  0  0  0  0  0  0  0  0  0  0
    4.4115    1.9887   17.4356 H   0  0  0  0  0  0  0  0  0  0  0  0
    8.6960   -6.8587   26.5437 H   0  0  0  0  0  0  0  0  0  0  0  0
    8.1390   -7.7505   27.9720 H   0  0  0  0  0  0  0  0  0  0  0  0
    9.3371   -6.4542   28.1432 H   0  0  0  0  0  0  0  0  0  0  0  0
   10.4069    1.1014   24.2429 H   0  0  0  0  0  0  0  0  0  0  0  0
   10.9135    1.5446   22.6123 H   0  0  0  0  0  0  0  0  0  0  0  0
    7.4785   -1.2070   21.6432 H   0  0  0  0  0  0  0  0  0  0  0  0
    8.7096   -1.5792   20.4228 H   0  0  0  0  0  0  0  0  0  0  0  0
    7.0724   -5.6898   28.8688 H   0  0  0  0  0  0  0  0  0  0  0  0
    6.4146   -6.1140   27.2767 H   0  0  0  0  0  0  0  0  0  0  0  0
    7.9294   -5.3301   25.4754 H   0  0  0  0  0  0  0  0  0  0  0  0
  1  2  1  0  0  0  0
  1  3  2  0  0  0  0
  2  4  2  0  0  0  0
  3  5  1  0  0  0  0
  4 10  1  0  0  0  0
  5 10  2  0  0  0  0
  6  8  2  0  0  0  0
  6 11  1  0  0  0  0
  7  9  1  0  0  0  0
  7 11  2  0  0  0  0
  8 12  1  0  0  0  0
  9 12  2  0  0  0  0
 10 22  1  0  0  0  0
 11 28  1  0  0  0  0
 12 29  1  0  0  0  0
 13 14  2  0  0  0  0
 13 15  1  0  0  0  0
 13 27  1  0  0  0  0
 14 23  1  0  0  0  0
 14 25  1  0  0  0  0
 15 16  2  0  0  0  0
 16 17  1  0  0  0  0
 17 18  2  0  0  0  0
 18 27  1  0  0  0  0
 19 23  1  0  0  0  0
 19 29  1  0  0  0  0
 19 30  2  0  0  0  0
 20 24  1  0  0  0  0
 20 28  1  0  0  0  0
 20 31  2  0  0  0  0
 21 24  1  0  0  0  0
 22 29  1  0  0  0  0
 25 26  2  0  0  0  0
 26 27  1  0  0  0  0
  1 32  1  0  0  0  0
  2 33  1  0  0  0  0
  3 34  1  0  0  0  0
  4 35  1  0  0  0  0
  5 36  1  0  0  0  0
  6 37  1  0  0  0  0
  7 38  1  0  0  0  0
  8 39  1  0  0  0  0
  9 40  1  0  0  0  0
 15 41  1  0  0  0  0
 16 42  1  0  0  0  0
 17 43  1  0  0  0  0
 18 44  1  0  0  0  0
 21 45  1  0  0  0  0
 21 46  1  0  0  0  0
 21 47  1  0  0  0  0
 22 48  1  0  0  0  0
 22 49  1  0  0  0  0
 23 50  1  0  0  0  0
 23 51  1  0  0  0  0
 24 52  1  0  0  0  0
 24 53  1  0  0  0  0
 28 54  1  0  0  0  0
M  END
> <clash_score>
0

> <docking_score>
-9.469963073730469

> <overlap_score>
0.9816223382949829

$$$$
BENZO_424_1
  -OEChem-08232013553D

 51 54  0     0  0  0  0  0  0999 V2000
    9.1890   -3.5540   24.0140 C   0  0  0  0  0  0  0  0  0  0  0  0
    7.8700   -2.0610   25.3550 C   0  0  0  0  0  0  0  0  0  0  0  0
    9.5890   -2.4950   23.2210 C   0  0  0  0  0  0  0  0  0  0  0  0
    8.2550   -1.0010   24.5520 C   0  0  0  0  0  0  0  0  0  0  0  0
   12.6248   -0.3452   24.6970 C   0  0  0  0  0  0  0  0  0  0  0  0
   13.7426   -1.1402   24.5701 C   0  0  0  0  0  0  0  0  0  0  0  0
   12.6218   -0.7711   22.4120 C   0  0  0  0  0  0  0  0  0  0  0  0
   11.9754   -0.1315   23.4469 C   0  0  0  0  0  0  0  0  0  0  0  0
    8.3450   -3.3440   25.0980 C   0  0  0  0  0  0  0  0  0  0  0  0
    9.1280   -1.2090   23.4870 C   0  0  0  0  0  0  0  0  0  0  0  0
    6.1460    0.6070   19.9750 C   0  0  0  0  0  0  0  0  0  0  0  0
    7.2710   -0.1460   19.8310 C   0  0  0  0  0  0  0  0  0  0  0  0
    5.3890    1.0010   21.0690 C   0  0  0  0  0  0  0  0  0  0  0  0
    4.2460    1.7520   20.8250 C   0  0  0  0  0  0  0  0  0  0  0  0
    3.8860    2.1050   19.5250 C   0  0  0  0  0  0  0  0  0  0  0  0
    4.6610    1.7170   18.4380 C   0  0  0  0  0  0  0  0  0  0  0  0
    9.0430    0.2380   21.4940 C   0  0  0  0  0  0  0  0  0  0  0  0
    8.2027   -4.5557   27.2976 C   0  0  0  0  0  0  0  0  0  0  0  0
    7.8896   -6.0861   29.2889 C   0  0  0  0  0  0  0  0  0  0  0  0
   10.7332    0.6950   23.2793 C   0  0  0  0  0  0  0  0  0  0  0  0
    8.0950   -0.7700   20.8440 C   0  0  0  0  0  0  0  0  0  0  0  0
    7.6349   -5.8718   27.8077 C   0  0  0  0  0  0  0  0  0  0  0  0
    7.5840   -0.2700   18.5160 N   0  0  0  0  0  0  0  0  0  0  0  0
    6.7100    0.3850   17.8100 N   0  0  0  0  0  0  0  0  0  0  0  0
    5.7970    0.9500   18.6730 N   0  0  0  0  0  0  0  0  0  0  0  0
    7.9771   -4.4058   25.9196 N   0  0  0  0  0  0  0  0  0  0  0  0
    9.5820   -0.1080   22.7000 N   0  0  0  0  0  0  0  0  0  0  0  0
    9.2950    1.3000   20.9480 O   0  0  0  0  0  0  0  0  0  0  0  0
    8.7747   -3.7632   28.0387 O   0  0  0  0  0  0  0  0  0  0  0  0
   14.0054   -1.6252   22.9489 S   0  0  0  0  0  0  0  0  0  0  0  0
    9.5436   -4.5614   23.7799 H   0  0  0  0  0  0  0  0  0  0  0  0
    7.1918   -1.8823   26.1906 H   0  0  0  0  0  0  0  0  0  0  0  0
   10.2676   -2.6754   22.3861 H   0  0  0  0  0  0  0  0  0  0  0  0
    7.8686   -0.0026   24.7598 H   0  0  0  0  0  0  0  0  0  0  0  0
   12.2926    0.0619   25.6436 H   0  0  0  0  0  0  0  0  0  0  0  0
   14.4179   -1.4589   25.3515 H   0  0  0  0  0  0  0  0  0  0  0  0
   12.3518   -0.7793   21.3651 H   0  0  0  0  0  0  0  0  0  0  0  0
    5.6533    0.7494   22.0767 H   0  0  0  0  0  0  0  0  0  0  0  0
    3.6389    2.0586   21.6677 H   0  0  0  0  0  0  0  0  0  0  0  0
    2.9824    2.6968   19.3331 H   0  0  0  0  0  0  0  0  0  0  0  0
    4.4115    1.9887   17.4356 H   0  0  0  0  0  0  0  0  0  0  0  0
    8.9624   -6.0810   29.5082 H   0  0  0  0  0  0  0  0  0  0  0  0
    7.4794   -7.0482   29.6108 H   0  0  0  0  0  0  0  0  0  0  0  0
    7.4210   -5.2973   29.8865 H   0  0  0  0  0  0  0  0  0  0  0  0
   10.4069    1.1014   24.2429 H   0  0  0  0  0  0  0  0  0  0  0  0
   10.9135    1.5446   22.6123 H   0  0  0  0  0  0  0  0  0  0  0  0
    7.4785   -1.2070   21.6432 H   0  0  0  0  0  0  0  0  0  0  0  0
    8.7096   -1.5792   20.4228 H   0  0  0  0  0  0  0  0  0  0  0  0
    6.5555   -5.8816   27.6174 H   0  0  0  0  0  0  0  0  0  0  0  0
    8.0878   -6.6904   27.2366 H   0  0  0  0  0  0  0  0  0  0  0  0
    7.4775   -5.1801   25.4670 H   0  0  0  0  0  0  0  0  0  0  0  0
  1  3  2  0  0  0  0
  1  9  1  0  0  0  0
  2  4  1  0  0  0  0
  2  9  2  0  0  0  0
  3 10  1  0  0  0  0
  4 10  2  0  0  0  0
  5  6  2  0  0  0  0
  5  8  1  0  0  0  0
  6 30  1  0  0  0  0
  7  8  2  0  0  0  0
  7 30  1  0  0  0  0
  8 20  1  0  0  0  0
  9 26  1  0  0  0  0
 10 27  1  0  0  0  0
 11 12  2  0  0  0  0
 11 13  1  0  0  0  0
 11 25  1  0  0  0  0
 12 21  1  0  0  0  0
 12 23  1  0  0  0  0
 13 14  2  0  0  0  0
 14 15  1  0  0  0  0
 15 16  2  0  0  0  0
 16 25  1  0  0  0  0
 17 21  1  0  0  0  0
 17 27  1  0  0  0  0
 17 28  2  0  0  0  0
 18 22  1  0  0  0  0
 18 26  1  0  0  0  0
 18 29  2  0  0  0  0
 19 22  1  0  0  0  0
 20 27  1  0  0  0  0
 23 24  2  0  0  0  0
 24 25  1  0  0  0  0
  1 31  1  0  0  0  0
  2 32  1  0  0  0  0
  3 33  1  0  0  0  0
  4 34  1  0  0  0  0
  5 35  1  0  0  0  0
  6 36  1  0  0  0  0
  7 37  1  0  0  0  0
 13 38  1  0  0  0  0
 14 39  1  0  0  0  0
 15 40  1  0  0  0  0
 16 41  1  0  0  0  0
 19 42  1  0  0  0  0
 19 43  1  0  0  0  0
 19 44  1  0  0  0  0
 20 45  1  0  0  0  0
 20 46  1  0  0  0  0
 21 47  1  0  0  0  0
 21 48  1  0  0  0  0
 22 49  1  0  0  0  0
 22 50  1  0  0  0  0
 26 51  1  0  0  0  0
M  END
> <clash_score>
0

> <docking_score>
-9.534663200378418

> <overlap_score>
0.9843990206718445

$$$$
BENZO_427_1
  -OEChem-08232013553D

 54 57  0     0  0  0  0  0  0999 V2000
    9.1890   -3.5540   24.0140 C   0  0  0  0  0  0  0  0  0  0  0  0
    7.8700   -2.0610   25.3550 C   0  0  0  0  0  0  0  0  0  0  0  0
    9.5890   -2.4950   23.2210 C   0  0  0  0  0  0  0  0  0  0  0  0
    8.2550   -1.0010   24.5520 C   0  0  0  0  0  0  0  0  0  0  0  0
   13.3011    0.3469   23.6172 C   0  0  0  0  0  0  0  0  0  0  0  0
   12.3483   -0.9498   22.1187 C   0  0  0  0  0  0  0  0  0  0  0  0
   12.0646    0.0552   23.0109 C   0  0  0  0  0  0  0  0  0  0  0  0
    8.3450   -3.3440   25.0980 C   0  0  0  0  0  0  0  0  0  0  0  0
    9.1280   -1.2090   23.4870 C   0  0  0  0  0  0  0  0  0  0  0  0
    6.1460    0.6070   19.9750 C   0  0  0  0  0  0  0  0  0  0  0  0
    7.2710   -0.1460   19.8310 C   0  0  0  0  0  0  0  0  0  0  0  0
    5.3890    1.0010   21.0690 C   0  0  0  0  0  0  0  0  0  0  0  0
    4.2460    1.7520   20.8250 C   0  0  0  0  0  0  0  0  0  0  0  0
    3.8860    2.1050   19.5250 C   0  0  0  0  0  0  0  0  0  0  0  0
    4.6610    1.7170   18.4380 C   0  0  0  0  0  0  0  0  0  0  0  0
    9.0430    0.2380   21.4940 C   0  0  0  0  0  0  0  0  0  0  0  0
    7.6605   -4.3757   27.2874 C   0  0  0  0  0  0  0  0  0  0  0  0
    8.4363   -6.7640   27.6033 C   0  0  0  0  0  0  0  0  0  0  0  0
   14.4506   -2.1662   21.5028 C   0  0  0  0  0  0  0  0  0  0  0  0
   10.7332    0.6950   23.2793 C   0  0  0  0  0  0  0  0  0  0  0  0
    8.0950   -0.7700   20.8440 C   0  0  0  0  0  0  0  0  0  0  0  0
    7.3111   -5.7643   27.8016 C   0  0  0  0  0  0  0  0  0  0  0  0
   14.2963   -0.4115   23.1498 N   0  0  0  0  0  0  0  0  0  0  0  0
    7.5840   -0.2700   18.5160 N   0  0  0  0  0  0  0  0  0  0  0  0
    6.7100    0.3850   17.8100 N   0  0  0  0  0  0  0  0  0  0  0  0
   13.6854   -1.1898   22.2404 N   0  0  0  0  0  0  0  0  0  0  0  0
    5.7970    0.9500   18.6730 N   0  0  0  0  0  0  0  0  0  0  0  0
    7.9771   -4.4058   25.9196 N   0  0  0  0  0  0  0  0  0  0  0  0
    9.5820   -0.1080   22.7000 N   0  0  0  0  0  0  0  0  0  0  0  0
    9.2950    1.3000   20.9480 O   0  0  0  0  0  0  0  0  0  0  0  0
    7.6505   -3.3901   28.0176 O   0  0  0  0  0  0  0  0  0  0  0  0
    9.5436   -4.5614   23.7799 H   0  0  0  0  0  0  0  0  0  0  0  0
    7.1918   -1.8823   26.1906 H   0  0  0  0  0  0  0  0  0  0  0  0
   10.2676   -2.6754   22.3861 H   0  0  0  0  0  0  0  0  0  0  0  0
    7.8686   -0.0026   24.7598 H   0  0  0  0  0  0  0  0  0  0  0  0
   13.5209    1.0795   24.3810 H   0  0  0  0  0  0  0  0  0  0  0  0
   11.7278   -1.5018   21.4258 H   0  0  0  0  0  0  0  0  0  0  0  0
    5.6533    0.7494   22.0767 H   0  0  0  0  0  0  0  0  0  0  0  0
    3.6389    2.0586   21.6677 H   0  0  0  0  0  0  0  0  0  0  0  0
    2.9824    2.6968   19.3331 H   0  0  0  0  0  0  0  0  0  0  0  0
    4.4115    1.9887   17.4356 H   0  0  0  0  0  0  0  0  0  0  0  0
    8.6960   -6.8587   26.5437 H   0  0  0  0  0  0  0  0  0  0  0  0
    8.1390   -7.7505   27.9720 H   0  0  0  0  0  0  0  0  0  0  0  0
    9.3371   -6.4542   28.1432 H   0  0  0  0  0  0  0  0  0  0  0  0
   14.8236   -1.6862   20.5943 H   0  0  0  0  0  0  0  0  0  0  0  0
   15.2831   -2.5175   22.1189 H   0  0  0  0  0  0  0  0  0  0  0  0
   13.8079   -3.0147   21.2520 H   0  0  0  0  0  0  0  0  0  0  0  0
   10.5631    0.7951   24.3568 H   0  0  0  0  0  0  0  0  0  0  0  0
   10.6863    1.7004   22.8479 H   0  0  0  0  0  0  0  0  0  0  0  0
    7.4785   -1.2070   21.6432 H   0  0  0  0  0  0  0  0  0  0  0  0
    8.7096   -1.5792   20.4228 H   0  0  0  0  0  0  0  0  0  0  0  0
    7.0724   -5.6898   28.8688 H   0  0  0  0  0  0  0  0  0  0  0  0
    6.4146   -6.1140   27.2767 H   0  0  0  0  0  0  0  0  0  0  0  0
    7.9294   -5.3301   25.4754 H   0  0  0  0  0  0  0  0  0  0  0  0
  1  3  2  0  0  0  0
  1  8  1  0  0  0  0
  2  4  1  0  0  0  0
  2  8  2  0  0  0  0
  3  9  1  0  0  0  0
  4  9  2  0  0  0  0
  5  7  1  0  0  0  0
  5 23  2  0  0  0  0
  6  7  2  0  0  0  0
  6 26  1  0  0  0  0
  7 20  1  0  0  0  0
  8 28  1  0  0  0  0
  9 29  1  0  0  0  0
 10 11  2  0  0  0  0
 10 12  1  0  0  0  0
 10 27  1  0  0  0  0
 11 21  1  0  0  0  0
 11 24  1  0  0  0  0
 12 13  2  0  0  0  0
 13 14  1  0  0  0  0
 14 15  2  0  0  0  0
 15 27  1  0  0  0  0
 16 21  1  0  0  0  0
 16 29  1  0  0  0  0
 16 30  2  0  0  0  0
 17 22  1  0  0  0  0
 17 28  1  0  0  0  0
 17 31  2  0  0  0  0
 18 22  1  0  0  0  0
 19 26  1  0  0  0  0
 20 29  1  0  0  0  0
 23 26  1  0  0  0  0
 24 25  2  0  0  0  0
 25 27  1  0  0  0  0
  1 32  1  0  0  0  0
  2 33  1  0  0  0  0
  3 34  1  0  0  0  0
  4 35  1  0  0  0  0
  5 36  1  0  0  0  0
  6 37  1  0  0  0  0
 12 38  1  0  0  0  0
 13 39  1  0  0  0  0
 14 40  1  0  0  0  0
 15 41  1  0  0  0  0
 18 42  1  0  0  0  0
 18 43  1  0  0  0  0
 18 44  1  0  0  0  0
 19 45  1  0  0  0  0
 19 46  1  0  0  0  0
 19 47  1  0  0  0  0
 20 48  1  0  0  0  0
 20 49  1  0  0  0  0
 21 50  1  0  0  0  0
 21 51  1  0  0  0  0
 22 52  1  0  0  0  0
 22 53  1  0  0  0  0
 28 54  1  0  0  0  0
M  END
> <clash_score>
0

> <docking_score>
-9.30483627319336

> <overlap_score>
0.9689051508903503

$$$$
BENZO_426_1
  -OEChem-08232013553D

 54 57  0     0  0  0  0  0  0999 V2000
   13.6971   -1.0552   24.8678 C   0  0  0  0  0  0  0  0  0  0  0  0
   12.5438   -0.2866   24.7112 C   0  0  0  0  0  0  0  0  0  0  0  0
    9.1890   -3.5540   24.0140 C   0  0  0  0  0  0  0  0  0  0  0  0
    7.8700   -2.0610   25.3550 C   0  0  0  0  0  0  0  0  0  0  0  0
    9.5890   -2.4950   23.2210 C   0  0  0  0  0  0  0  0  0  0  0  0
    8.2550   -1.0010   24.5520 C   0  0  0  0  0  0  0  0  0  0  0  0
   14.2822   -1.6686   23.7601 C   0  0  0  0  0  0  0  0  0  0  0  0
   12.5604   -0.7449   22.3391 C   0  0  0  0  0  0  0  0  0  0  0  0
   11.9754   -0.1315   23.4469 C   0  0  0  0  0  0  0  0  0  0  0  0
    8.3450   -3.3440   25.0980 C   0  0  0  0  0  0  0  0  0  0  0  0
    9.1280   -1.2090   23.4870 C   0  0  0  0  0  0  0  0  0  0  0  0
   13.7138   -1.5135   22.4957 C   0  0  0  0  0  0  0  0  0  0  0  0
    6.1460    0.6070   19.9750 C   0  0  0  0  0  0  0  0  0  0  0  0
    7.2710   -0.1460   19.8310 C   0  0  0  0  0  0  0  0  0  0  0  0
    5.3890    1.0010   21.0690 C   0  0  0  0  0  0  0  0  0  0  0  0
    4.2460    1.7520   20.8250 C   0  0  0  0  0  0  0  0  0  0  0  0
    3.8860    2.1050   19.5250 C   0  0  0  0  0  0  0  0  0  0  0  0
    4.6610    1.7170   18.4380 C   0  0  0  0  0  0  0  0  0  0  0  0
    9.0430    0.2380   21.4940 C   0  0  0  0  0  0  0  0  0  0  0  0
    8.2027   -4.5557   27.2976 C   0  0  0  0  0  0  0  0  0  0  0  0
    7.8896   -6.0861   29.2889 C   0  0  0  0  0  0  0  0  0  0  0  0
   10.7332    0.6950   23.2793 C   0  0  0  0  0  0  0  0  0  0  0  0
    8.0950   -0.7700   20.8440 C   0  0  0  0  0  0  0  0  0  0  0  0
    7.6349   -5.8718   27.8077 C   0  0  0  0  0  0  0  0  0  0  0  0
    7.5840   -0.2700   18.5160 N   0  0  0  0  0  0  0  0  0  0  0  0
    6.7100    0.3850   17.8100 N   0  0  0  0  0  0  0  0  0  0  0  0
    5.7970    0.9500   18.6730 N   0  0  0  0  0  0  0  0  0  0  0  0
    7.9771   -4.4058   25.9196 N   0  0  0  0  0  0  0  0  0  0  0  0
    9.5820   -0.1080   22.7000 N   0  0  0  0  0  0  0  0  0  0  0  0
    9.2950    1.3000   20.9480 O   0  0  0  0  0  0  0  0  0  0  0  0
    8.7747   -3.7632   28.0387 O   0  0  0  0  0  0  0  0  0  0  0  0
   14.4355   -2.2715   21.1296 Cl  0  0  0  0  0  0  0  0  0  0  0  0
   14.1393   -1.1759   25.8525 H   0  0  0  0  0  0  0  0  0  0  0  0
   12.0946    0.1877   25.5799 H   0  0  0  0  0  0  0  0  0  0  0  0
    9.5436   -4.5614   23.7799 H   0  0  0  0  0  0  0  0  0  0  0  0
    7.1918   -1.8823   26.1906 H   0  0  0  0  0  0  0  0  0  0  0  0
   10.2676   -2.6754   22.3861 H   0  0  0  0  0  0  0  0  0  0  0  0
    7.8686   -0.0026   24.7598 H   0  0  0  0  0  0  0  0  0  0  0  0
   15.1809   -2.2650   23.8971 H   0  0  0  0  0  0  0  0  0  0  0  0
   12.1137   -0.6205   21.3554 H   0  0  0  0  0  0  0  0  0  0  0  0
    5.6533    0.7494   22.0767 H   0  0  0  0  0  0  0  0  0  0  0  0
    3.6389    2.0586   21.6677 H   0  0  0  0  0  0  0  0  0  0  0  0
    2.9824    2.6968   19.3331 H   0  0  0  0  0  0  0  0  0  0  0  0
    4.4115    1.9887   17.4356 H   0  0  0  0  0  0  0  0  0  0  0  0
    8.9624   -6.0810   29.5082 H   0  0  0  0  0  0  0  0  0  0  0  0
    7.4794   -7.0482   29.6108 H   0  0  0  0  0  0  0  0  0  0  0  0
    7.4210   -5.2973   29.8865 H   0  0  0  0  0  0  0  0  0  0  0  0
   10.4069    1.1014   24.2429 H   0  0  0  0  0  0  0  0  0  0  0  0
   10.9135    1.5446   22.6123 H   0  0  0  0  0  0  0  0  0  0  0  0
    7.4785   -1.2070   21.6432 H   0  0  0  0  0  0  0  0  0  0  0  0
    8.7096   -1.5792   20.4228 H   0  0  0  0  0  0  0  0  0  0  0  0
    6.5555   -5.8816   27.6174 H   0  0  0  0  0  0  0  0  0  0  0  0
    8.0878   -6.6904   27.2366 H   0  0  0  0  0  0  0  0  0  0  0  0
    7.4775   -5.1801   25.4670 H   0  0  0  0  0  0  0  0  0  0  0  0
  1  2  2  0  0  0  0
  1  7  1  0  0  0  0
  2  9  1  0  0  0  0
  3  5  2  0  0  0  0
  3 10  1  0  0  0  0
  4  6  1  0  0  0  0
  4 10  2  0  0  0  0
  5 11  1  0  0  0  0
  6 11  2  0  0  0  0
  7 12  2  0  0  0  0
  8  9  2  0  0  0  0
  8 12  1  0  0  0  0
  9 22  1  0  0  0  0
 10 28  1  0  0  0  0
 11 29  1  0  0  0  0
 12 32  1  0  0  0  0
 13 14  2  0  0  0  0
 13 15  1  0  0  0  0
 13 27  1  0  0  0  0
 14 23  1  0  0  0  0
 14 25  1  0  0  0  0
 15 16  2  0  0  0  0
 16 17  1  0  0  0  0
 17 18  2  0  0  0  0
 18 27  1  0  0  0  0
 19 23  1  0  0  0  0
 19 29  1  0  0  0  0
 19 30  2  0  0  0  0
 20 24  1  0  0  0  0
 20 28  1  0  0  0  0
 20 31  2  0  0  0  0
 21 24  1  0  0  0  0
 22 29  1  0  0  0  0
 25 26  2  0  0  0  0
 26 27  1  0  0  0  0
  1 33  1  0  0  0  0
  2 34  1  0  0  0  0
  3 35  1  0  0  0  0
  4 36  1  0  0  0  0
  5 37  1  0  0  0  0
  6 38  1  0  0  0  0
  7 39  1  0  0  0  0
  8 40  1  0  0  0  0
 15 41  1  0  0  0  0
 16 42  1  0  0  0  0
 17 43  1  0  0  0  0
 18 44  1  0  0  0  0
 21 45  1  0  0  0  0
 21 46  1  0  0  0  0
 21 47  1  0  0  0  0
 22 48  1  0  0  0  0
 22 49  1  0  0  0  0
 23 50  1  0  0  0  0
 23 51  1  0  0  0  0
 24 52  1  0  0  0  0
 24 53  1  0  0  0  0
 28 54  1  0  0  0  0
M  END
> <clash_score>
0

> <docking_score>
-9.00573444366455

> <overlap_score>
1.0070868730545044

$$$$
BENZO_429_1
  -OEChem-08232013553D

 59 63  0     0  0  0  0  0  0999 V2000
   14.2996   -1.3839   24.0679 C   0  0  0  0  0  0  0  0  0  0  0  0
   13.9343   -0.3216   24.8947 C   0  0  0  0  0  0  0  0  0  0  0  0
   13.4794   -1.7518   23.0013 C   0  0  0  0  0  0  0  0  0  0  0  0
   12.7486    0.3729   24.6549 C   0  0  0  0  0  0  0  0  0  0  0  0
   12.2937   -1.0573   22.7616 C   0  0  0  0  0  0  0  0  0  0  0  0
    9.1890   -3.5540   24.0140 C   0  0  0  0  0  0  0  0  0  0  0  0
    7.8700   -2.0610   25.3550 C   0  0  0  0  0  0  0  0  0  0  0  0
    9.5890   -2.4950   23.2210 C   0  0  0  0  0  0  0  0  0  0  0  0
    8.2550   -1.0010   24.5520 C   0  0  0  0  0  0  0  0  0  0  0  0
   11.9283    0.0051   23.5884 C   0  0  0  0  0  0  0  0  0  0  0  0
    8.3450   -3.3440   25.0980 C   0  0  0  0  0  0  0  0  0  0  0  0
    9.1280   -1.2090   23.4870 C   0  0  0  0  0  0  0  0  0  0  0  0
    6.1460    0.6070   19.9750 C   0  0  0  0  0  0  0  0  0  0  0  0
    7.2710   -0.1460   19.8310 C   0  0  0  0  0  0  0  0  0  0  0  0
    5.3890    1.0010   21.0690 C   0  0  0  0  0  0  0  0  0  0  0  0
    4.2460    1.7520   20.8250 C   0  0  0  0  0  0  0  0  0  0  0  0
    3.8860    2.1050   19.5250 C   0  0  0  0  0  0  0  0  0  0  0  0
    4.6610    1.7170   18.4380 C   0  0  0  0  0  0  0  0  0  0  0  0
    9.0430    0.2380   21.4940 C   0  0  0  0  0  0  0  0  0  0  0  0
    7.5748   -4.8280   28.7278 C   0  0  0  0  0  0  0  0  0  0  0  0
    8.9776   -4.7555   28.1204 C   0  0  0  0  0  0  0  0  0  0  0  0
    6.5554   -4.0713   27.8732 C   0  0  0  0  0  0  0  0  0  0  0  0
    8.9620   -5.1961   26.6568 C   0  0  0  0  0  0  0  0  0  0  0  0
    6.6009   -4.5253   26.4110 C   0  0  0  0  0  0  0  0  0  0  0  0
   10.6518    0.7520   23.3299 C   0  0  0  0  0  0  0  0  0  0  0  0
    8.0950   -0.7700   20.8440 C   0  0  0  0  0  0  0  0  0  0  0  0
    7.5840   -0.2700   18.5160 N   0  0  0  0  0  0  0  0  0  0  0  0
    6.7100    0.3850   17.8100 N   0  0  0  0  0  0  0  0  0  0  0  0
    5.7970    0.9500   18.6730 N   0  0  0  0  0  0  0  0  0  0  0  0
    7.9770   -4.4029   25.9162 N   0  0  0  0  0  0  0  0  0  0  0  0
    9.5820   -0.1080   22.7000 N   0  0  0  0  0  0  0  0  0  0  0  0
    9.2950    1.3000   20.9480 O   0  0  0  0  0  0  0  0  0  0  0  0
   15.2236   -1.9237   24.2539 H   0  0  0  0  0  0  0  0  0  0  0  0
   14.5734   -0.0343   25.7245 H   0  0  0  0  0  0  0  0  0  0  0  0
   13.7641   -2.5781   22.3568 H   0  0  0  0  0  0  0  0  0  0  0  0
   12.4719    1.1992   25.3044 H   0  0  0  0  0  0  0  0  0  0  0  0
   11.6608   -1.3510   21.9284 H   0  0  0  0  0  0  0  0  0  0  0  0
    9.5426   -4.5618   23.7797 H   0  0  0  0  0  0  0  0  0  0  0  0
    7.1914   -1.8824   26.1903 H   0  0  0  0  0  0  0  0  0  0  0  0
   10.2669   -2.6745   22.3854 H   0  0  0  0  0  0  0  0  0  0  0  0
    7.8690   -0.0020   24.7587 H   0  0  0  0  0  0  0  0  0  0  0  0
    5.6533    0.7494   22.0767 H   0  0  0  0  0  0  0  0  0  0  0  0
    3.6389    2.0586   21.6677 H   0  0  0  0  0  0  0  0  0  0  0  0
    2.9824    2.6968   19.3331 H   0  0  0  0  0  0  0  0  0  0  0  0
    4.4115    1.9887   17.4356 H   0  0  0  0  0  0  0  0  0  0  0  0
    7.2681   -5.8807   28.8239 H   0  0  0  0  0  0  0  0  0  0  0  0
    7.5891   -4.4101   29.7448 H   0  0  0  0  0  0  0  0  0  0  0  0
    9.3554   -3.7320   28.1920 H   0  0  0  0  0  0  0  0  0  0  0  0
    9.6558   -5.3943   28.6900 H   0  0  0  0  0  0  0  0  0  0  0  0
    5.5496   -4.2322   28.2751 H   0  0  0  0  0  0  0  0  0  0  0  0
    6.7545   -2.9948   27.9293 H   0  0  0  0  0  0  0  0  0  0  0  0
    9.9612   -5.0560   26.2363 H   0  0  0  0  0  0  0  0  0  0  0  0
    8.7097   -6.2583   26.5922 H   0  0  0  0  0  0  0  0  0  0  0  0
    6.2649   -5.5600   26.3335 H   0  0  0  0  0  0  0  0  0  0  0  0
    5.9271   -3.8964   25.8283 H   0  0  0  0  0  0  0  0  0  0  0  0
   10.2524    1.1679   24.2614 H   0  0  0  0  0  0  0  0  0  0  0  0
   10.8186    1.5899   22.6448 H   0  0  0  0  0  0  0  0  0  0  0  0
    7.4659   -1.2025   21.6292 H   0  0  0  0  0  0  0  0  0  0  0  0
    8.6969   -1.5747   20.4087 H   0  0  0  0  0  0  0  0  0  0  0  0
  1  2  1  0  0  0  0
  1  3  2  0  0  0  0
  2  4  2  0  0  0  0
  3  5  1  0  0  0  0
  4 10  1  0  0  0  0
  5 10  2  0  0  0  0
  6  8  2  0  0  0  0
  6 11  1  0  0  0  0
  7  9  1  0  0  0  0
  7 11  2  0  0  0  0
  8 12  1  0  0  0  0
  9 12  2  0  0  0  0
 10 25  1  0  0  0  0
 11 30  1  0  0  0  0
 12 31  1  0  0  0  0
 13 14  2  0  0  0  0
 13 15  1  0  0  0  0
 13 29  1  0  0  0  0
 14 26  1  0  0  0  0
 14 27  1  0  0  0  0
 15 16  2  0  0  0  0
 16 17  1  0  0  0  0
 17 18  2  0  0  0  0
 18 29  1  0  0  0  0
 19 26  1  0  0  0  0
 19 31  1  0  0  0  0
 19 32  2  0  0  0  0
 20 21  1  0  0  0  0
 20 22  1  0  0  0  0
 21 23  1  0  0  0  0
 22 24  1  0  0  0  0
 23 30  1  0  0  0  0
 24 30  1  0  0  0  0
 25 31  1  0  0  0  0
 27 28  2  0  0  0  0
 28 29  1  0  0  0  0
  1 33  1  0  0  0  0
  2 34  1  0  0  0  0
  3 35  1  0  0  0  0
  4 36  1  0  0  0  0
  5 37  1  0  0  0  0
  6 38  1  0  0  0  0
  7 39  1  0  0  0  0
  8 40  1  0  0  0  0
  9 41  1  0  0  0  0
 15 42  1  0  0  0  0
 16 43  1  0  0  0  0
 17 44  1  0  0  0  0
 18 45  1  0  0  0  0
 20 46  1  0  0  0  0
 20 47  1  0  0  0  0
 21 48  1  0  0  0  0
 21 49  1  0  0  0  0
 22 50  1  0  0  0  0
 22 51  1  0  0  0  0
 23 52  1  0  0  0  0
 23 53  1  0  0  0  0
 24 54  1  0  0  0  0
 24 55  1  0  0  0  0
 25 56  1  0  0  0  0
 25 57  1  0  0  0  0
 26 58  1  0  0  0  0
 26 59  1  0  0  0  0
M  END
> <clash_score>
0

> <docking_score>
-9.555268287658691

> <overlap_score>
0.9801599979400635

$$$$
BENZO_428_1
  -OEChem-08232013553D

 56 60  0     0  0  0  0  0  0999 V2000
    9.1890   -3.5540   24.0140 C   0  0  0  0  0  0  0  0  0  0  0  0
    7.8700   -2.0610   25.3550 C   0  0  0  0  0  0  0  0  0  0  0  0
    9.5890   -2.4950   23.2210 C   0  0  0  0  0  0  0  0  0  0  0  0
    8.2550   -1.0010   24.5520 C   0  0  0  0  0  0  0  0  0  0  0  0
   12.5218   -0.1320   24.8765 C   0  0  0  0  0  0  0  0  0  0  0  0
   13.6880   -0.8639   24.8336 C   0  0  0  0  0  0  0  0  0  0  0  0
   12.6638   -0.6270   22.6099 C   0  0  0  0  0  0  0  0  0  0  0  0
   11.9283    0.0051   23.5884 C   0  0  0  0  0  0  0  0  0  0  0  0
    8.3450   -3.3440   25.0980 C   0  0  0  0  0  0  0  0  0  0  0  0
    9.1280   -1.2090   23.4870 C   0  0  0  0  0  0  0  0  0  0  0  0
    6.1460    0.6070   19.9750 C   0  0  0  0  0  0  0  0  0  0  0  0
    7.2710   -0.1460   19.8310 C   0  0  0  0  0  0  0  0  0  0  0  0
    5.3890    1.0010   21.0690 C   0  0  0  0  0  0  0  0  0  0  0  0
    4.2460    1.7520   20.8250 C   0  0  0  0  0  0  0  0  0  0  0  0
    3.8860    2.1050   19.5250 C   0  0  0  0  0  0  0  0  0  0  0  0
    4.6610    1.7170   18.4380 C   0  0  0  0  0  0  0  0  0  0  0  0
    9.0430    0.2380   21.4940 C   0  0  0  0  0  0  0  0  0  0  0  0
    7.5748   -4.8280   28.7278 C   0  0  0  0  0  0  0  0  0  0  0  0
    8.9776   -4.7555   28.1204 C   0  0  0  0  0  0  0  0  0  0  0  0
    6.5554   -4.0713   27.8732 C   0  0  0  0  0  0  0  0  0  0  0  0
    8.9620   -5.1961   26.6568 C   0  0  0  0  0  0  0  0  0  0  0  0
    6.6009   -4.5253   26.4110 C   0  0  0  0  0  0  0  0  0  0  0  0
   10.6518    0.7520   23.3299 C   0  0  0  0  0  0  0  0  0  0  0  0
    8.0950   -0.7700   20.8440 C   0  0  0  0  0  0  0  0  0  0  0  0
    7.5840   -0.2700   18.5160 N   0  0  0  0  0  0  0  0  0  0  0  0
    6.7100    0.3850   17.8100 N   0  0  0  0  0  0  0  0  0  0  0  0
    5.7970    0.9500   18.6730 N   0  0  0  0  0  0  0  0  0  0  0  0
    7.9770   -4.4029   25.9162 N   0  0  0  0  0  0  0  0  0  0  0  0
    9.5820   -0.1080   22.7000 N   0  0  0  0  0  0  0  0  0  0  0  0
    9.2950    1.3000   20.9480 O   0  0  0  0  0  0  0  0  0  0  0  0
   14.0634   -1.3820   23.2452 S   0  0  0  0  0  0  0  0  0  0  0  0
    9.5426   -4.5618   23.7797 H   0  0  0  0  0  0  0  0  0  0  0  0
    7.1914   -1.8824   26.1903 H   0  0  0  0  0  0  0  0  0  0  0  0
   10.2669   -2.6745   22.3854 H   0  0  0  0  0  0  0  0  0  0  0  0
    7.8690   -0.0020   24.7587 H   0  0  0  0  0  0  0  0  0  0  0  0
   12.1173    0.2838   25.7907 H   0  0  0  0  0  0  0  0  0  0  0  0
   14.3380   -1.1184   25.6588 H   0  0  0  0  0  0  0  0  0  0  0  0
   12.4505   -0.6831   21.5514 H   0  0  0  0  0  0  0  0  0  0  0  0
    5.6533    0.7494   22.0767 H   0  0  0  0  0  0  0  0  0  0  0  0
    3.6389    2.0586   21.6677 H   0  0  0  0  0  0  0  0  0  0  0  0
    2.9824    2.6968   19.3331 H   0  0  0  0  0  0  0  0  0  0  0  0
    4.4115    1.9887   17.4356 H   0  0  0  0  0  0  0  0  0  0  0  0
    7.2681   -5.8807   28.8239 H   0  0  0  0  0  0  0  0  0  0  0  0
    7.5891   -4.4101   29.7448 H   0  0  0  0  0  0  0  0  0  0  0  0
    9.3554   -3.7320   28.1920 H   0  0  0  0  0  0  0  0  0  0  0  0
    9.6558   -5.3943   28.6900 H   0  0  0  0  0  0  0  0  0  0  0  0
    5.5496   -4.2322   28.2751 H   0  0  0  0  0  0  0  0  0  0  0  0
    6.7545   -2.9948   27.9293 H   0  0  0  0  0  0  0  0  0  0  0  0
    9.9612   -5.0560   26.2363 H   0  0  0  0  0  0  0  0  0  0  0  0
    8.7097   -6.2583   26.5922 H   0  0  0  0  0  0  0  0  0  0  0  0
    6.2649   -5.5600   26.3335 H   0  0  0  0  0  0  0  0  0  0  0  0
    5.9271   -3.8964   25.8283 H   0  0  0  0  0  0  0  0  0  0  0  0
   10.2524    1.1679   24.2614 H   0  0  0  0  0  0  0  0  0  0  0  0
   10.8186    1.5899   22.6448 H   0  0  0  0  0  0  0  0  0  0  0  0
    7.4659   -1.2025   21.6292 H   0  0  0  0  0  0  0  0  0  0  0  0
    8.6969   -1.5747   20.4087 H   0  0  0  0  0  0  0  0  0  0  0  0
  1  3  2  0  0  0  0
  1  9  1  0  0  0  0
  2  4  1  0  0  0  0
  2  9  2  0  0  0  0
  3 10  1  0  0  0  0
  4 10  2  0  0  0  0
  5  6  2  0  0  0  0
  5  8  1  0  0  0  0
  6 31  1  0  0  0  0
  7  8  2  0  0  0  0
  7 31  1  0  0  0  0
  8 23  1  0  0  0  0
  9 28  1  0  0  0  0
 10 29  1  0  0  0  0
 11 12  2  0  0  0  0
 11 13  1  0  0  0  0
 11 27  1  0  0  0  0
 12 24  1  0  0  0  0
 12 25  1  0  0  0  0
 13 14  2  0  0  0  0
 14 15  1  0  0  0  0
 15 16  2  0  0  0  0
 16 27  1  0  0  0  0
 17 24  1  0  0  0  0
 17 29  1  0  0  0  0
 17 30  2  0  0  0  0
 18 19  1  0  0  0  0
 18 20  1  0  0  0  0
 19 21  1  0  0  0  0
 20 22  1  0  0  0  0
 21 28  1  0  0  0  0
 22 28  1  0  0  0  0
 23 29  1  0  0  0  0
 25 26  2  0  0  0  0
 26 27  1  0  0  0  0
  1 32  1  0  0  0  0
  2 33  1  0  0  0  0
  3 34  1  0  0  0  0
  4 35  1  0  0  0  0
  5 36  1  0  0  0  0
  6 37  1  0  0  0  0
  7 38  1  0  0  0  0
 13 39  1  0  0  0  0
 14 40  1  0  0  0  0
 15 41  1  0  0  0  0
 16 42  1  0  0  0  0
 18 43  1  0  0  0  0
 18 44  1  0  0  0  0
 19 45  1  0  0  0  0
 19 46  1  0  0  0  0
 20 47  1  0  0  0  0
 20 48  1  0  0  0  0
 21 49  1  0  0  0  0
 21 50  1  0  0  0  0
 22 51  1  0  0  0  0
 22 52  1  0  0  0  0
 23 53  1  0  0  0  0
 23 54  1  0  0  0  0
 24 55  1  0  0  0  0
 24 56  1  0  0  0  0
M  END
> <clash_score>
0

> <docking_score>
-9.438331604003906

> <overlap_score>
0.9644513726234436

$$$$
BENZO_432_1
  -OEChem-08232013553D

 44 47  0     0  0  0  0  0  0999 V2000
    9.1890   -3.5540   24.0140 C   0  0  0  0  0  0  0  0  0  0  0  0
    7.8700   -2.0610   25.3550 C   0  0  0  0  0  0  0  0  0  0  0  0
    9.5890   -2.4950   23.2210 C   0  0  0  0  0  0  0  0  0  0  0  0
    8.2550   -1.0010   24.5520 C   0  0  0  0  0  0  0  0  0  0  0  0
   12.6248   -0.3452   24.6970 C   0  0  0  0  0  0  0  0  0  0  0  0
   13.7426   -1.1402   24.5701 C   0  0  0  0  0  0  0  0  0  0  0  0
   12.6218   -0.7711   22.4120 C   0  0  0  0  0  0  0  0  0  0  0  0
    8.3450   -3.3440   25.0980 C   0  0  0  0  0  0  0  0  0  0  0  0
   11.9754   -0.1315   23.4469 C   0  0  0  0  0  0  0  0  0  0  0  0
    9.1280   -1.2090   23.4870 C   0  0  0  0  0  0  0  0  0  0  0  0
    6.1460    0.6070   19.9750 C   0  0  0  0  0  0  0  0  0  0  0  0
    7.2710   -0.1460   19.8310 C   0  0  0  0  0  0  0  0  0  0  0  0
    5.3890    1.0010   21.0690 C   0  0  0  0  0  0  0  0  0  0  0  0
    4.2460    1.7520   20.8250 C   0  0  0  0  0  0  0  0  0  0  0  0
    3.8860    2.1050   19.5250 C   0  0  0  0  0  0  0  0  0  0  0  0
    4.6610    1.7170   18.4380 C   0  0  0  0  0  0  0  0  0  0  0  0
    9.0430    0.2380   21.4940 C   0  0  0  0  0  0  0  0  0  0  0  0
    7.9522   -4.4794   25.9764 C   0  0  0  0  0  0  0  0  0  0  0  0
   10.7332    0.6950   23.2793 C   0  0  0  0  0  0  0  0  0  0  0  0
    8.0950   -0.7700   20.8440 C   0  0  0  0  0  0  0  0  0  0  0  0
    7.5840   -0.2700   18.5160 N   0  0  0  0  0  0  0  0  0  0  0  0
    6.7100    0.3850   17.8100 N   0  0  0  0  0  0  0  0  0  0  0  0
    5.7970    0.9500   18.6730 N   0  0  0  0  0  0  0  0  0  0  0  0
    9.5820   -0.1080   22.7000 N   0  0  0  0  0  0  0  0  0  0  0  0
    9.2950    1.3000   20.9480 O   0  0  0  0  0  0  0  0  0  0  0  0
   14.0054   -1.6252   22.9489 S   0  0  0  0  0  0  0  0  0  0  0  0
    9.5403   -4.5627   23.7809 H   0  0  0  0  0  0  0  0  0  0  0  0
    7.1911   -1.8848   26.1904 H   0  0  0  0  0  0  0  0  0  0  0  0
   10.2682   -2.6746   22.3865 H   0  0  0  0  0  0  0  0  0  0  0  0
    7.8684   -0.0022   24.7594 H   0  0  0  0  0  0  0  0  0  0  0  0
   12.2926    0.0619   25.6436 H   0  0  0  0  0  0  0  0  0  0  0  0
   14.4179   -1.4589   25.3515 H   0  0  0  0  0  0  0  0  0  0  0  0
   12.3518   -0.7793   21.3651 H   0  0  0  0  0  0  0  0  0  0  0  0
    5.6533    0.7494   22.0767 H   0  0  0  0  0  0  0  0  0  0  0  0
    3.6389    2.0586   21.6677 H   0  0  0  0  0  0  0  0  0  0  0  0
    2.9824    2.6968   19.3331 H   0  0  0  0  0  0  0  0  0  0  0  0
    4.4115    1.9887   17.4356 H   0  0  0  0  0  0  0  0  0  0  0  0
    8.6668   -4.5891   26.8013 H   0  0  0  0  0  0  0  0  0  0  0  0
    6.9513   -4.3276   26.4010 H   0  0  0  0  0  0  0  0  0  0  0  0
    7.9196   -5.4231   25.4163 H   0  0  0  0  0  0  0  0  0  0  0  0
   10.4069    1.1014   24.2429 H   0  0  0  0  0  0  0  0  0  0  0  0
   10.9135    1.5446   22.6123 H   0  0  0  0  0  0  0  0  0  0  0  0
    7.4785   -1.2070   21.6432 H   0  0  0  0  0  0  0  0  0  0  0  0
    8.7096   -1.5792   20.4228 H   0  0  0  0  0  0  0  0  0  0  0  0
  1  3  2  0  0  0  0
  1  8  1  0  0  0  0
  2  4  1  0  0  0  0
  2  8  2  0  0  0  0
  3 10  1  0  0  0  0
  4 10  2  0  0  0  0
  5  6  2  0  0  0  0
  5  9  1  0  0  0  0
  6 26  1  0  0  0  0
  7  9  2  0  0  0  0
  7 26  1  0  0  0  0
  8 18  1  0  0  0  0
  9 19  1  0  0  0  0
 10 24  1  0  0  0  0
 11 12  2  0  0  0  0
 11 13  1  0  0  0  0
 11 23  1  0  0  0  0
 12 20  1  0  0  0  0
 12 21  1  0  0  0  0
 13 14  2  0  0  0  0
 14 15  1  0  0  0  0
 15 16  2  0  0  0  0
 16 23  1  0  0  0  0
 17 20  1  0  0  0  0
 17 24  1  0  0  0  0
 17 25  2  0  0  0  0
 19 24  1  0  0  0  0
 21 22  2  0  0  0  0
 22 23  1  0  0  0  0
  1 27  1  0  0  0  0
  2 28  1  0  0  0  0
  3 29  1  0  0  0  0
  4 30  1  0  0  0  0
  5 31  1  0  0  0  0
  6 32  1  0  0  0  0
  7 33  1  0  0  0  0
 13 34  1  0  0  0  0
 14 35  1  0  0  0  0
 15 36  1  0  0  0  0
 16 37  1  0  0  0  0
 18 38  1  0  0  0  0
 18 39  1  0  0  0  0
 18 40  1  0  0  0  0
 19 41  1  0  0  0  0
 19 42  1  0  0  0  0
 20 43  1  0  0  0  0
 20 44  1  0  0  0  0
M  END
> <clash_score>
0

> <docking_score>
-8.99835205078125

> <overlap_score>
0.8832495808601379

$$$$
BENZO_433_1
  -OEChem-08232013553D

 47 50  0     0  0  0  0  0  0999 V2000
   14.2829   -1.6682   23.7576 C   0  0  0  0  0  0  0  0  0  0  0  0
   14.0337   -0.6017   24.6214 C   0  0  0  0  0  0  0  0  0  0  0  0
   13.3784   -1.9663   22.7384 C   0  0  0  0  0  0  0  0  0  0  0  0
   12.8799    0.1666   24.4661 C   0  0  0  0  0  0  0  0  0  0  0  0
   12.2246   -1.1979   22.5831 C   0  0  0  0  0  0  0  0  0  0  0  0
    9.1890   -3.5540   24.0140 C   0  0  0  0  0  0  0  0  0  0  0  0
    7.8700   -2.0610   25.3550 C   0  0  0  0  0  0  0  0  0  0  0  0
    9.5890   -2.4950   23.2210 C   0  0  0  0  0  0  0  0  0  0  0  0
    8.2550   -1.0010   24.5520 C   0  0  0  0  0  0  0  0  0  0  0  0
    8.3450   -3.3440   25.0980 C   0  0  0  0  0  0  0  0  0  0  0  0
   11.9754   -0.1315   23.4469 C   0  0  0  0  0  0  0  0  0  0  0  0
    9.1280   -1.2090   23.4870 C   0  0  0  0  0  0  0  0  0  0  0  0
    6.1460    0.6070   19.9750 C   0  0  0  0  0  0  0  0  0  0  0  0
    7.2710   -0.1460   19.8310 C   0  0  0  0  0  0  0  0  0  0  0  0
    5.3890    1.0010   21.0690 C   0  0  0  0  0  0  0  0  0  0  0  0
    4.2460    1.7520   20.8250 C   0  0  0  0  0  0  0  0  0  0  0  0
    3.8860    2.1050   19.5250 C   0  0  0  0  0  0  0  0  0  0  0  0
    4.6610    1.7170   18.4380 C   0  0  0  0  0  0  0  0  0  0  0  0
    9.0430    0.2380   21.4940 C   0  0  0  0  0  0  0  0  0  0  0  0
    7.9522   -4.4794   25.9764 C   0  0  0  0  0  0  0  0  0  0  0  0
   10.7332    0.6950   23.2793 C   0  0  0  0  0  0  0  0  0  0  0  0
    8.0950   -0.7700   20.8440 C   0  0  0  0  0  0  0  0  0  0  0  0
    7.5840   -0.2700   18.5160 N   0  0  0  0  0  0  0  0  0  0  0  0
    6.7100    0.3850   17.8100 N   0  0  0  0  0  0  0  0  0  0  0  0
    5.7970    0.9500   18.6730 N   0  0  0  0  0  0  0  0  0  0  0  0
    9.5820   -0.1080   22.7000 N   0  0  0  0  0  0  0  0  0  0  0  0
    9.2950    1.3000   20.9480 O   0  0  0  0  0  0  0  0  0  0  0  0
   15.1820   -2.2655   23.8778 H   0  0  0  0  0  0  0  0  0  0  0  0
   14.7384   -0.3688   25.4143 H   0  0  0  0  0  0  0  0  0  0  0  0
   13.5726   -2.7958   22.0650 H   0  0  0  0  0  0  0  0  0  0  0  0
   12.6938    0.9956   25.1439 H   0  0  0  0  0  0  0  0  0  0  0  0
   11.5255   -1.4376   21.7863 H   0  0  0  0  0  0  0  0  0  0  0  0
    9.5403   -4.5627   23.7809 H   0  0  0  0  0  0  0  0  0  0  0  0
    7.1911   -1.8848   26.1904 H   0  0  0  0  0  0  0  0  0  0  0  0
   10.2682   -2.6746   22.3865 H   0  0  0  0  0  0  0  0  0  0  0  0
    7.8684   -0.0022   24.7594 H   0  0  0  0  0  0  0  0  0  0  0  0
    5.6533    0.7494   22.0767 H   0  0  0  0  0  0  0  0  0  0  0  0
    3.6389    2.0586   21.6677 H   0  0  0  0  0  0  0  0  0  0  0  0
    2.9824    2.6968   19.3331 H   0  0  0  0  0  0  0  0  0  0  0  0
    4.4115    1.9887   17.4356 H   0  0  0  0  0  0  0  0  0  0  0  0
    8.6668   -4.5891   26.8013 H   0  0  0  0  0  0  0  0  0  0  0  0
    6.9513   -4.3276   26.4010 H   0  0  0  0  0  0  0  0  0  0  0  0
    7.9196   -5.4231   25.4163 H   0  0  0  0  0  0  0  0  0  0  0  0
   10.4069    1.1014   24.2429 H   0  0  0  0  0  0  0  0  0  0  0  0
   10.9135    1.5446   22.6123 H   0  0  0  0  0  0  0  0  0  0  0  0
    7.4785   -1.2070   21.6432 H   0  0  0  0  0  0  0  0  0  0  0  0
    8.7096   -1.5792   20.4228 H   0  0  0  0  0  0  0  0  0  0  0  0
  1  2  1  0  0  0  0
  1  3  2  0  0  0  0
  2  4  2  0  0  0  0
  3  5  1  0  0  0  0
  4 11  1  0  0  0  0
  5 11  2  0  0  0  0
  6  8  2  0  0  0  0
  6 10  1  0  0  0  0
  7  9  1  0  0  0  0
  7 10  2  0  0  0  0
  8 12  1  0  0  0  0
  9 12  2  0  0  0  0
 10 20  1  0  0  0  0
 11 21  1  0  0  0  0
 12 26  1  0  0  0  0
 13 14  2  0  0  0  0
 13 15  1  0  0  0  0
 13 25  1  0  0  0  0
 14 22  1  0  0  0  0
 14 23  1  0  0  0  0
 15 16  2  0  0  0  0
 16 17  1  0  0  0  0
 17 18  2  0  0  0  0
 18 25  1  0  0  0  0
 19 22  1  0  0  0  0
 19 26  1  0  0  0  0
 19 27  2  0  0  0  0
 21 26  1  0  0  0  0
 23 24  2  0  0  0  0
 24 25  1  0  0  0  0
  1 28  1  0  0  0  0
  2 29  1  0  0  0  0
  3 30  1  0  0  0  0
  4 31  1  0  0  0  0
  5 32  1  0  0  0  0
  6 33  1  0  0  0  0
  7 34  1  0  0  0  0
  8 35  1  0  0  0  0
  9 36  1  0  0  0  0
 15 37  1  0  0  0  0
 16 38  1  0  0  0  0
 17 39  1  0  0  0  0
 18 40  1  0  0  0  0
 20 41  1  0  0  0  0
 20 42  1  0  0  0  0
 20 43  1  0  0  0  0
 21 44  1  0  0  0  0
 21 45  1  0  0  0  0
 22 46  1  0  0  0  0
 22 47  1  0  0  0  0
M  END
> <clash_score>
0

> <docking_score>
-9.438138008117676

> <overlap_score>
0.8979154229164124

$$$$
BENZO_431_1
  -OEChem-08232013553D

 59 63  0     0  0  0  0  0  0999 V2000
    9.1890   -3.5540   24.0140 C   0  0  0  0  0  0  0  0  0  0  0  0
    7.8700   -2.0610   25.3550 C   0  0  0  0  0  0  0  0  0  0  0  0
    9.5890   -2.4950   23.2210 C   0  0  0  0  0  0  0  0  0  0  0  0
    8.2550   -1.0010   24.5520 C   0  0  0  0  0  0  0  0  0  0  0  0
   13.2446    0.8966   23.0363 C   0  0  0  0  0  0  0  0  0  0  0  0
   12.3986   -1.1324   23.0868 C   0  0  0  0  0  0  0  0  0  0  0  0
   12.0333    0.1898   23.1580 C   0  0  0  0  0  0  0  0  0  0  0  0
    8.3450   -3.3440   25.0980 C   0  0  0  0  0  0  0  0  0  0  0  0
    9.1280   -1.2090   23.4870 C   0  0  0  0  0  0  0  0  0  0  0  0
    6.1460    0.6070   19.9750 C   0  0  0  0  0  0  0  0  0  0  0  0
    7.2710   -0.1460   19.8310 C   0  0  0  0  0  0  0  0  0  0  0  0
    5.3890    1.0010   21.0690 C   0  0  0  0  0  0  0  0  0  0  0  0
    4.2460    1.7520   20.8250 C   0  0  0  0  0  0  0  0  0  0  0  0
    3.8860    2.1050   19.5250 C   0  0  0  0  0  0  0  0  0  0  0  0
    4.6610    1.7170   18.4380 C   0  0  0  0  0  0  0  0  0  0  0  0
    9.0430    0.2380   21.4940 C   0  0  0  0  0  0  0  0  0  0  0  0
    7.5748   -4.8280   28.7278 C   0  0  0  0  0  0  0  0  0  0  0  0
    8.9776   -4.7555   28.1204 C   0  0  0  0  0  0  0  0  0  0  0  0
    6.5554   -4.0713   27.8732 C   0  0  0  0  0  0  0  0  0  0  0  0
    8.9620   -5.1961   26.6568 C   0  0  0  0  0  0  0  0  0  0  0  0
    6.6009   -4.5253   26.4110 C   0  0  0  0  0  0  0  0  0  0  0  0
   14.5977   -2.3013   22.8113 C   0  0  0  0  0  0  0  0  0  0  0  0
   10.6518    0.7520   23.3299 C   0  0  0  0  0  0  0  0  0  0  0  0
    8.0950   -0.7700   20.8440 C   0  0  0  0  0  0  0  0  0  0  0  0
   14.3005    0.0903   22.8984 N   0  0  0  0  0  0  0  0  0  0  0  0
    7.5840   -0.2700   18.5160 N   0  0  0  0  0  0  0  0  0  0  0  0
    6.7100    0.3850   17.8100 N   0  0  0  0  0  0  0  0  0  0  0  0
   13.7537   -1.1369   22.9331 N   0  0  0  0  0  0  0  0  0  0  0  0
    5.7970    0.9500   18.6730 N   0  0  0  0  0  0  0  0  0  0  0  0
    7.9770   -4.4029   25.9162 N   0  0  0  0  0  0  0  0  0  0  0  0
    9.5820   -0.1080   22.7000 N   0  0  0  0  0  0  0  0  0  0  0  0
    9.2950    1.3000   20.9480 O   0  0  0  0  0  0  0  0  0  0  0  0
    9.5426   -4.5618   23.7797 H   0  0  0  0  0  0  0  0  0  0  0  0
    7.1914   -1.8824   26.1903 H   0  0  0  0  0  0  0  0  0  0  0  0
   10.2669   -2.6745   22.3854 H   0  0  0  0  0  0  0  0  0  0  0  0
    7.8690   -0.0020   24.7587 H   0  0  0  0  0  0  0  0  0  0  0  0
   13.4046    1.9655   23.0429 H   0  0  0  0  0  0  0  0  0  0  0  0
   11.8240   -2.0476   23.1325 H   0  0  0  0  0  0  0  0  0  0  0  0
    5.6533    0.7494   22.0767 H   0  0  0  0  0  0  0  0  0  0  0  0
    3.6389    2.0586   21.6677 H   0  0  0  0  0  0  0  0  0  0  0  0
    2.9824    2.6968   19.3331 H   0  0  0  0  0  0  0  0  0  0  0  0
    4.4115    1.9887   17.4356 H   0  0  0  0  0  0  0  0  0  0  0  0
    7.2681   -5.8807   28.8239 H   0  0  0  0  0  0  0  0  0  0  0  0
    7.5891   -4.4101   29.7448 H   0  0  0  0  0  0  0  0  0  0  0  0
    9.3554   -3.7320   28.1920 H   0  0  0  0  0  0  0  0  0  0  0  0
    9.6558   -5.3943   28.6900 H   0  0  0  0  0  0  0  0  0  0  0  0
    5.5496   -4.2322   28.2751 H   0  0  0  0  0  0  0  0  0  0  0  0
    6.7545   -2.9948   27.9293 H   0  0  0  0  0  0  0  0  0  0  0  0
    9.9612   -5.0560   26.2363 H   0  0  0  0  0  0  0  0  0  0  0  0
    8.7097   -6.2583   26.5922 H   0  0  0  0  0  0  0  0  0  0  0  0
    6.2649   -5.5600   26.3335 H   0  0  0  0  0  0  0  0  0  0  0  0
    5.9271   -3.8964   25.8283 H   0  0  0  0  0  0  0  0  0  0  0  0
   14.6779   -2.5502   21.7499 H   0  0  0  0  0  0  0  0  0  0  0  0
   15.5845   -2.0810   23.2280 H   0  0  0  0  0  0  0  0  0  0  0  0
   14.1515   -3.1308   23.3670 H   0  0  0  0  0  0  0  0  0  0  0  0
   10.4132    0.8720   24.3923 H   0  0  0  0  0  0  0  0  0  0  0  0
   10.5688    1.7398   22.8644 H   0  0  0  0  0  0  0  0  0  0  0  0
    7.4659   -1.2025   21.6292 H   0  0  0  0  0  0  0  0  0  0  0  0
    8.6969   -1.5747   20.4087 H   0  0  0  0  0  0  0  0  0  0  0  0
  1  3  2  0  0  0  0
  1  8  1  0  0  0  0
  2  4  1  0  0  0  0
  2  8  2  0  0  0  0
  3  9  1  0  0  0  0
  4  9  2  0  0  0  0
  5  7  1  0  0  0  0
  5 25  2  0  0  0  0
  6  7  2  0  0  0  0
  6 28  1  0  0  0  0
  7 23  1  0  0  0  0
  8 30  1  0  0  0  0
  9 31  1  0  0  0  0
 10 11  2  0  0  0  0
 10 12  1  0  0  0  0
 10 29  1  0  0  0  0
 11 24  1  0  0  0  0
 11 26  1  0  0  0  0
 12 13  2  0  0  0  0
 13 14  1  0  0  0  0
 14 15  2  0  0  0  0
 15 29  1  0  0  0  0
 16 24  1  0  0  0  0
 16 31  1  0  0  0  0
 16 32  2  0  0  0  0
 17 18  1  0  0  0  0
 17 19  1  0  0  0  0
 18 20  1  0  0  0  0
 19 21  1  0  0  0  0
 20 30  1  0  0  0  0
 21 30  1  0  0  0  0
 22 28  1  0  0  0  0
 23 31  1  0  0  0  0
 25 28  1  0  0  0  0
 26 27  2  0  0  0  0
 27 29  1  0  0  0  0
  1 33  1  0  0  0  0
  2 34  1  0  0  0  0
  3 35  1  0  0  0  0
  4 36  1  0  0  0  0
  5 37  1  0  0  0  0
  6 38  1  0  0  0  0
 12 39  1  0  0  0  0
 13 40  1  0  0  0  0
 14 41  1  0  0  0  0
 15 42  1  0  0  0  0
 17 43  1  0  0  0  0
 17 44  1  0  0  0  0
 18 45  1  0  0  0  0
 18 46  1  0  0  0  0
 19 47  1  0  0  0  0
 19 48  1  0  0  0  0
 20 49  1  0  0  0  0
 20 50  1  0  0  0  0
 21 51  1  0  0  0  0
 21 52  1  0  0  0  0
 22 53  1  0  0  0  0
 22 54  1  0  0  0  0
 22 55  1  0  0  0  0
 23 56  1  0  0  0  0
 23 57  1  0  0  0  0
 24 58  1  0  0  0  0
 24 59  1  0  0  0  0
M  END
> <clash_score>
0

> <docking_score>
-10.463662147521973

> <overlap_score>
0.9660855531692505

$$$$
BENZO_430_1
  -OEChem-08232013553D

 59 63  0     0  0  0  0  0  0999 V2000
   13.6221   -0.7726   25.1256 C   0  0  0  0  0  0  0  0  0  0  0  0
   12.4369   -0.0778   24.8846 C   0  0  0  0  0  0  0  0  0  0  0  0
    9.1890   -3.5540   24.0140 C   0  0  0  0  0  0  0  0  0  0  0  0
    7.8700   -2.0610   25.3550 C   0  0  0  0  0  0  0  0  0  0  0  0
    9.5890   -2.4950   23.2210 C   0  0  0  0  0  0  0  0  0  0  0  0
    8.2550   -1.0010   24.5520 C   0  0  0  0  0  0  0  0  0  0  0  0
   14.2989   -1.3844   24.0704 C   0  0  0  0  0  0  0  0  0  0  0  0
   12.6050   -0.6067   22.5332 C   0  0  0  0  0  0  0  0  0  0  0  0
   11.9283    0.0051   23.5884 C   0  0  0  0  0  0  0  0  0  0  0  0
    8.3450   -3.3440   25.0980 C   0  0  0  0  0  0  0  0  0  0  0  0
    9.1280   -1.2090   23.4870 C   0  0  0  0  0  0  0  0  0  0  0  0
   13.7903   -1.3015   22.7742 C   0  0  0  0  0  0  0  0  0  0  0  0
    6.1460    0.6070   19.9750 C   0  0  0  0  0  0  0  0  0  0  0  0
    7.2710   -0.1460   19.8310 C   0  0  0  0  0  0  0  0  0  0  0  0
    5.3890    1.0010   21.0690 C   0  0  0  0  0  0  0  0  0  0  0  0
    4.2460    1.7520   20.8250 C   0  0  0  0  0  0  0  0  0  0  0  0
    3.8860    2.1050   19.5250 C   0  0  0  0  0  0  0  0  0  0  0  0
    4.6610    1.7170   18.4380 C   0  0  0  0  0  0  0  0  0  0  0  0
    9.0430    0.2380   21.4940 C   0  0  0  0  0  0  0  0  0  0  0  0
    7.5748   -4.8280   28.7278 C   0  0  0  0  0  0  0  0  0  0  0  0
    8.9776   -4.7555   28.1204 C   0  0  0  0  0  0  0  0  0  0  0  0
    6.5554   -4.0713   27.8732 C   0  0  0  0  0  0  0  0  0  0  0  0
    8.9620   -5.1961   26.6568 C   0  0  0  0  0  0  0  0  0  0  0  0
    6.6009   -4.5253   26.4110 C   0  0  0  0  0  0  0  0  0  0  0  0
   10.6518    0.7520   23.3299 C   0  0  0  0  0  0  0  0  0  0  0  0
    8.0950   -0.7700   20.8440 C   0  0  0  0  0  0  0  0  0  0  0  0
    7.5840   -0.2700   18.5160 N   0  0  0  0  0  0  0  0  0  0  0  0
    6.7100    0.3850   17.8100 N   0  0  0  0  0  0  0  0  0  0  0  0
    5.7970    0.9500   18.6730 N   0  0  0  0  0  0  0  0  0  0  0  0
    7.9770   -4.4029   25.9162 N   0  0  0  0  0  0  0  0  0  0  0  0
    9.5820   -0.1080   22.7000 N   0  0  0  0  0  0  0  0  0  0  0  0
    9.2950    1.3000   20.9480 O   0  0  0  0  0  0  0  0  0  0  0  0
   14.6251   -2.0575   21.4729 Cl  0  0  0  0  0  0  0  0  0  0  0  0
   14.0177   -0.8370   26.1351 H   0  0  0  0  0  0  0  0  0  0  0  0
   11.9162    0.3957   25.7128 H   0  0  0  0  0  0  0  0  0  0  0  0
    9.5426   -4.5618   23.7797 H   0  0  0  0  0  0  0  0  0  0  0  0
    7.1914   -1.8824   26.1903 H   0  0  0  0  0  0  0  0  0  0  0  0
   10.2669   -2.6745   22.3854 H   0  0  0  0  0  0  0  0  0  0  0  0
    7.8690   -0.0020   24.7587 H   0  0  0  0  0  0  0  0  0  0  0  0
   15.2214   -1.9227   24.2731 H   0  0  0  0  0  0  0  0  0  0  0  0
   12.2046   -0.5388   21.5243 H   0  0  0  0  0  0  0  0  0  0  0  0
    5.6533    0.7494   22.0767 H   0  0  0  0  0  0  0  0  0  0  0  0
    3.6389    2.0586   21.6677 H   0  0  0  0  0  0  0  0  0  0  0  0
    2.9824    2.6968   19.3331 H   0  0  0  0  0  0  0  0  0  0  0  0
    4.4115    1.9887   17.4356 H   0  0  0  0  0  0  0  0  0  0  0  0
    7.2681   -5.8807   28.8239 H   0  0  0  0  0  0  0  0  0  0  0  0
    7.5891   -4.4101   29.7448 H   0  0  0  0  0  0  0  0  0  0  0  0
    9.3554   -3.7320   28.1920 H   0  0  0  0  0  0  0  0  0  0  0  0
    9.6558   -5.3943   28.6900 H   0  0  0  0  0  0  0  0  0  0  0  0
    5.5496   -4.2322   28.2751 H   0  0  0  0  0  0  0  0  0  0  0  0
    6.7545   -2.9948   27.9293 H   0  0  0  0  0  0  0  0  0  0  0  0
    9.9612   -5.0560   26.2363 H   0  0  0  0  0  0  0  0  0  0  0  0
    8.7097   -6.2583   26.5922 H   0  0  0  0  0  0  0  0  0  0  0  0
    6.2649   -5.5600   26.3335 H   0  0  0  0  0  0  0  0  0  0  0  0
    5.9271   -3.8964   25.8283 H   0  0  0  0  0  0  0  0  0  0  0  0
   10.2524    1.1679   24.2614 H   0  0  0  0  0  0  0  0  0  0  0  0
   10.8186    1.5899   22.6448 H   0  0  0  0  0  0  0  0  0  0  0  0
    7.4659   -1.2025   21.6292 H   0  0  0  0  0  0  0  0  0  0  0  0
    8.6969   -1.5747   20.4087 H   0  0  0  0  0  0  0  0  0  0  0  0
  1  2  2  0  0  0  0
  1  7  1  0  0  0  0
  2  9  1  0  0  0  0
  3  5  2  0  0  0  0
  3 10  1  0  0  0  0
  4  6  1  0  0  0  0
  4 10  2  0  0  0  0
  5 11  1  0  0  0  0
  6 11  2  0  0  0  0
  7 12  2  0  0  0  0
  8  9  2  0  0  0  0
  8 12  1  0  0  0  0
  9 25  1  0  0  0  0
 10 30  1  0  0  0  0
 11 31  1  0  0  0  0
 12 33  1  0  0  0  0
 13 14  2  0  0  0  0
 13 15  1  0  0  0  0
 13 29  1  0  0  0  0
 14 26  1  0  0  0  0
 14 27  1  0  0  0  0
 15 16  2  0  0  0  0
 16 17  1  0  0  0  0
 17 18  2  0  0  0  0
 18 29  1  0  0  0  0
 19 26  1  0  0  0  0
 19 31  1  0  0  0  0
 19 32  2  0  0  0  0
 20 21  1  0  0  0  0
 20 22  1  0  0  0  0
 21 23  1  0  0  0  0
 22 24  1  0  0  0  0
 23 30  1  0  0  0  0
 24 30  1  0  0  0  0
 25 31  1  0  0  0  0
 27 28  2  0  0  0  0
 28 29  1  0  0  0  0
  1 34  1  0  0  0  0
  2 35  1  0  0  0  0
  3 36  1  0  0  0  0
  4 37  1  0  0  0  0
  5 38  1  0  0  0  0
  6 39  1  0  0  0  0
  7 40  1  0  0  0  0
  8 41  1  0  0  0  0
 15 42  1  0  0  0  0
 16 43  1  0  0  0  0
 17 44  1  0  0  0  0
 18 45  1  0  0  0  0
 20 46  1  0  0  0  0
 20 47  1  0  0  0  0
 21 48  1  0  0  0  0
 21 49  1  0  0  0  0
 22 50  1  0  0  0  0
 22 51  1  0  0  0  0
 23 52  1  0  0  0  0
 23 53  1  0  0  0  0
 24 54  1  0  0  0  0
 24 55  1  0  0  0  0
 25 56  1  0  0  0  0
 25 57  1  0  0  0  0
 26 58  1  0  0  0  0
 26 59  1  0  0  0  0
M  END
> <clash_score>
0

> <docking_score>
-8.869874000549316

> <overlap_score>
0.989267110824585

$$$$
BENZO_435_1
  -OEChem-08232013553D

 47 50  0     0  0  0  0  0  0999 V2000
    9.1890   -3.5540   24.0140 C   0  0  0  0  0  0  0  0  0  0  0  0
    7.8700   -2.0610   25.3550 C   0  0  0  0  0  0  0  0  0  0  0  0
    9.5890   -2.4950   23.2210 C   0  0  0  0  0  0  0  0  0  0  0  0
    8.2550   -1.0010   24.5520 C   0  0  0  0  0  0  0  0  0  0  0  0
   12.6826   -0.3968   24.6348 C   0  0  0  0  0  0  0  0  0  0  0  0
   12.6756   -0.8012   22.4735 C   0  0  0  0  0  0  0  0  0  0  0  0
    8.3450   -3.3440   25.0980 C   0  0  0  0  0  0  0  0  0  0  0  0
   11.9754   -0.1315   23.4469 C   0  0  0  0  0  0  0  0  0  0  0  0
    9.1280   -1.2090   23.4870 C   0  0  0  0  0  0  0  0  0  0  0  0
    6.1460    0.6070   19.9750 C   0  0  0  0  0  0  0  0  0  0  0  0
    7.2710   -0.1460   19.8310 C   0  0  0  0  0  0  0  0  0  0  0  0
    5.3890    1.0010   21.0690 C   0  0  0  0  0  0  0  0  0  0  0  0
    4.2460    1.7520   20.8250 C   0  0  0  0  0  0  0  0  0  0  0  0
    3.8860    2.1050   19.5250 C   0  0  0  0  0  0  0  0  0  0  0  0
    4.6610    1.7170   18.4380 C   0  0  0  0  0  0  0  0  0  0  0  0
    9.0430    0.2380   21.4940 C   0  0  0  0  0  0  0  0  0  0  0  0
    7.9522   -4.4794   25.9764 C   0  0  0  0  0  0  0  0  0  0  0  0
   14.7371   -2.2254   22.5033 C   0  0  0  0  0  0  0  0  0  0  0  0
   10.7332    0.6950   23.2793 C   0  0  0  0  0  0  0  0  0  0  0  0
    8.0950   -0.7700   20.8440 C   0  0  0  0  0  0  0  0  0  0  0  0
   13.7501   -1.1747   24.4366 N   0  0  0  0  0  0  0  0  0  0  0  0
    7.5840   -0.2700   18.5160 N   0  0  0  0  0  0  0  0  0  0  0  0
    6.7100    0.3850   17.8100 N   0  0  0  0  0  0  0  0  0  0  0  0
   13.7189   -1.4039   23.1127 N   0  0  0  0  0  0  0  0  0  0  0  0
    5.7970    0.9500   18.6730 N   0  0  0  0  0  0  0  0  0  0  0  0
    9.5820   -0.1080   22.7000 N   0  0  0  0  0  0  0  0  0  0  0  0
    9.2950    1.3000   20.9480 O   0  0  0  0  0  0  0  0  0  0  0  0
    9.5403   -4.5627   23.7809 H   0  0  0  0  0  0  0  0  0  0  0  0
    7.1911   -1.8848   26.1904 H   0  0  0  0  0  0  0  0  0  0  0  0
   10.2682   -2.6746   22.3865 H   0  0  0  0  0  0  0  0  0  0  0  0
    7.8684   -0.0022   24.7594 H   0  0  0  0  0  0  0  0  0  0  0  0
   12.4660   -0.0577   25.6380 H   0  0  0  0  0  0  0  0  0  0  0  0
   12.5235   -0.8990   21.4071 H   0  0  0  0  0  0  0  0  0  0  0  0
    5.6533    0.7494   22.0767 H   0  0  0  0  0  0  0  0  0  0  0  0
    3.6389    2.0586   21.6677 H   0  0  0  0  0  0  0  0  0  0  0  0
    2.9824    2.6968   19.3331 H   0  0  0  0  0  0  0  0  0  0  0  0
    4.4115    1.9887   17.4356 H   0  0  0  0  0  0  0  0  0  0  0  0
    8.6668   -4.5891   26.8013 H   0  0  0  0  0  0  0  0  0  0  0  0
    6.9513   -4.3276   26.4010 H   0  0  0  0  0  0  0  0  0  0  0  0
    7.9196   -5.4231   25.4163 H   0  0  0  0  0  0  0  0  0  0  0  0
   15.5606   -1.5731   22.2012 H   0  0  0  0  0  0  0  0  0  0  0  0
   15.0842   -2.9701   23.2250 H   0  0  0  0  0  0  0  0  0  0  0  0
   14.3154   -2.7382   21.6343 H   0  0  0  0  0  0  0  0  0  0  0  0
   10.4069    1.1014   24.2429 H   0  0  0  0  0  0  0  0  0  0  0  0
   10.9135    1.5446   22.6123 H   0  0  0  0  0  0  0  0  0  0  0  0
    7.4785   -1.2070   21.6432 H   0  0  0  0  0  0  0  0  0  0  0  0
    8.7096   -1.5792   20.4228 H   0  0  0  0  0  0  0  0  0  0  0  0
  1  3  2  0  0  0  0
  1  7  1  0  0  0  0
  2  4  1  0  0  0  0
  2  7  2  0  0  0  0
  3  9  1  0  0  0  0
  4  9  2  0  0  0  0
  5  8  1  0  0  0  0
  5 21  2  0  0  0  0
  6  8  2  0  0  0  0
  6 24  1  0  0  0  0
  7 17  1  0  0  0  0
  8 19  1  0  0  0  0
  9 26  1  0  0  0  0
 10 11  2  0  0  0  0
 10 12  1  0  0  0  0
 10 25  1  0  0  0  0
 11 20  1  0  0  0  0
 11 22  1  0  0  0  0
 12 13  2  0  0  0  0
 13 14  1  0  0  0  0
 14 15  2  0  0  0  0
 15 25  1  0  0  0  0
 16 20  1  0  0  0  0
 16 26  1  0  0  0  0
 16 27  2  0  0  0  0
 18 24  1  0  0  0  0
 19 26  1  0  0  0  0
 21 24  1  0  0  0  0
 22 23  2  0  0  0  0
 23 25  1  0  0  0  0
  1 28  1  0  0  0  0
  2 29  1  0  0  0  0
  3 30  1  0  0  0  0
  4 31  1  0  0  0  0
  5 32  1  0  0  0  0
  6 33  1  0  0  0  0
 12 34  1  0  0  0  0
 13 35  1  0  0  0  0
 14 36  1  0  0  0  0
 15 37  1  0  0  0  0
 17 38  1  0  0  0  0
 17 39  1  0  0  0  0
 17 40  1  0  0  0  0
 18 41  1  0  0  0  0
 18 42  1  0  0  0  0
 18 43  1  0  0  0  0
 19 44  1  0  0  0  0
 19 45  1  0  0  0  0
 20 46  1  0  0  0  0
 20 47  1  0  0  0  0
M  END
> <clash_score>
0

> <docking_score>
-8.005385398864746

> <overlap_score>
0.9009126424789429

$$$$
BENZO_437_1
  -OEChem-08232013553D

 48 51  0     0  0  0  0  0  0999 V2000
   14.2829   -1.6682   23.7576 C   0  0  0  0  0  0  0  0  0  0  0  0
   14.0337   -0.6017   24.6214 C   0  0  0  0  0  0  0  0  0  0  0  0
   13.3784   -1.9663   22.7384 C   0  0  0  0  0  0  0  0  0  0  0  0
   12.8799    0.1666   24.4661 C   0  0  0  0  0  0  0  0  0  0  0  0
   12.2246   -1.1979   22.5831 C   0  0  0  0  0  0  0  0  0  0  0  0
    9.5890   -2.4950   23.2210 C   0  0  0  0  0  0  0  0  0  0  0  0
    8.2550   -1.0010   24.5520 C   0  0  0  0  0  0  0  0  0  0  0  0
    9.1890   -3.5540   24.0140 C   0  0  0  0  0  0  0  0  0  0  0  0
    7.8700   -2.0610   25.3550 C   0  0  0  0  0  0  0  0  0  0  0  0
   11.9754   -0.1315   23.4469 C   0  0  0  0  0  0  0  0  0  0  0  0
    9.1280   -1.2090   23.4870 C   0  0  0  0  0  0  0  0  0  0  0  0
    8.3450   -3.3440   25.0980 C   0  0  0  0  0  0  0  0  0  0  0  0
    6.1460    0.6070   19.9750 C   0  0  0  0  0  0  0  0  0  0  0  0
    7.2710   -0.1460   19.8310 C   0  0  0  0  0  0  0  0  0  0  0  0
    5.3890    1.0010   21.0690 C   0  0  0  0  0  0  0  0  0  0  0  0
    4.2460    1.7520   20.8250 C   0  0  0  0  0  0  0  0  0  0  0  0
    3.8860    2.1050   19.5250 C   0  0  0  0  0  0  0  0  0  0  0  0
    4.6610    1.7170   18.4380 C   0  0  0  0  0  0  0  0  0  0  0  0
    9.0430    0.2380   21.4940 C   0  0  0  0  0  0  0  0  0  0  0  0
    8.5123   -5.6657   25.5744 C   0  0  0  0  0  0  0  0  0  0  0  0
   10.7332    0.6950   23.2793 C   0  0  0  0  0  0  0  0  0  0  0  0
    8.0950   -0.7700   20.8440 C   0  0  0  0  0  0  0  0  0  0  0  0
    7.5840   -0.2700   18.5160 N   0  0  0  0  0  0  0  0  0  0  0  0
    6.7100    0.3850   17.8100 N   0  0  0  0  0  0  0  0  0  0  0  0
    5.7970    0.9500   18.6730 N   0  0  0  0  0  0  0  0  0  0  0  0
    9.5820   -0.1080   22.7000 N   0  0  0  0  0  0  0  0  0  0  0  0
    9.2950    1.3000   20.9480 O   0  0  0  0  0  0  0  0  0  0  0  0
    7.9864   -4.3799   25.8996 O   0  0  0  0  0  0  0  0  0  0  0  0
   15.1820   -2.2655   23.8778 H   0  0  0  0  0  0  0  0  0  0  0  0
   14.7384   -0.3688   25.4143 H   0  0  0  0  0  0  0  0  0  0  0  0
   13.5726   -2.7958   22.0650 H   0  0  0  0  0  0  0  0  0  0  0  0
   12.6938    0.9956   25.1439 H   0  0  0  0  0  0  0  0  0  0  0  0
   11.5255   -1.4376   21.7863 H   0  0  0  0  0  0  0  0  0  0  0  0
   10.2678   -2.6746   22.3862 H   0  0  0  0  0  0  0  0  0  0  0  0
    7.8691   -0.0023   24.7606 H   0  0  0  0  0  0  0  0  0  0  0  0
    9.5404   -4.5633   23.7846 H   0  0  0  0  0  0  0  0  0  0  0  0
    7.1920   -1.8875   26.1914 H   0  0  0  0  0  0  0  0  0  0  0  0
    5.6533    0.7494   22.0767 H   0  0  0  0  0  0  0  0  0  0  0  0
    3.6389    2.0586   21.6677 H   0  0  0  0  0  0  0  0  0  0  0  0
    2.9824    2.6968   19.3331 H   0  0  0  0  0  0  0  0  0  0  0  0
    4.4115    1.9887   17.4356 H   0  0  0  0  0  0  0  0  0  0  0  0
    8.1469   -6.4023   26.2941 H   0  0  0  0  0  0  0  0  0  0  0  0
    9.6044   -5.6298   25.5962 H   0  0  0  0  0  0  0  0  0  0  0  0
    8.1788   -5.9429   24.5716 H   0  0  0  0  0  0  0  0  0  0  0  0
   10.4069    1.1014   24.2429 H   0  0  0  0  0  0  0  0  0  0  0  0
   10.9135    1.5446   22.6123 H   0  0  0  0  0  0  0  0  0  0  0  0
    7.4785   -1.2070   21.6432 H   0  0  0  0  0  0  0  0  0  0  0  0
    8.7096   -1.5792   20.4228 H   0  0  0  0  0  0  0  0  0  0  0  0
  1  2  1  0  0  0  0
  1  3  2  0  0  0  0
  2  4  2  0  0  0  0
  3  5  1  0  0  0  0
  4 10  1  0  0  0  0
  5 10  2  0  0  0  0
  6  8  2  0  0  0  0
  6 11  1  0  0  0  0
  7  9  1  0  0  0  0
  7 11  2  0  0  0  0
  8 12  1  0  0  0  0
  9 12  2  0  0  0  0
 10 21  1  0  0  0  0
 11 26  1  0  0  0  0
 12 28  1  0  0  0  0
 13 14  2  0  0  0  0
 13 15  1  0  0  0  0
 13 25  1  0  0  0  0
 14 22  1  0  0  0  0
 14 23  1  0  0  0  0
 15 16  2  0  0  0  0
 16 17  1  0  0  0  0
 17 18  2  0  0  0  0
 18 25  1  0  0  0  0
 19 22  1  0  0  0  0
 19 26  1  0  0  0  0
 19 27  2  0  0  0  0
 20 28  1  0  0  0  0
 21 26  1  0  0  0  0
 23 24  2  0  0  0  0
 24 25  1  0  0  0  0
  1 29  1  0  0  0  0
  2 30  1  0  0  0  0
  3 31  1  0  0  0  0
  4 32  1  0  0  0  0
  5 33  1  0  0  0  0
  6 34  1  0  0  0  0
  7 35  1  0  0  0  0
  8 36  1  0  0  0  0
  9 37  1  0  0  0  0
 15 38  1  0  0  0  0
 16 39  1  0  0  0  0
 17 40  1  0  0  0  0
 18 41  1  0  0  0  0
 20 42  1  0  0  0  0
 20 43  1  0  0  0  0
 20 44  1  0  0  0  0
 21 45  1  0  0  0  0
 21 46  1  0  0  0  0
 22 47  1  0  0  0  0
 22 48  1  0  0  0  0
M  END
> <clash_score>
0

> <docking_score>
-9.55831527709961

> <overlap_score>
0.9111907482147217

$$$$
BENZO_434_1
  -OEChem-08232013553D

 47 50  0     0  0  0  0  0  0999 V2000
   13.6971   -1.0552   24.8678 C   0  0  0  0  0  0  0  0  0  0  0  0
   12.5438   -0.2866   24.7112 C   0  0  0  0  0  0  0  0  0  0  0  0
    9.1890   -3.5540   24.0140 C   0  0  0  0  0  0  0  0  0  0  0  0
    7.8700   -2.0610   25.3550 C   0  0  0  0  0  0  0  0  0  0  0  0
    9.5890   -2.4950   23.2210 C   0  0  0  0  0  0  0  0  0  0  0  0
    8.2550   -1.0010   24.5520 C   0  0  0  0  0  0  0  0  0  0  0  0
   14.2822   -1.6686   23.7601 C   0  0  0  0  0  0  0  0  0  0  0  0
   12.5604   -0.7449   22.3391 C   0  0  0  0  0  0  0  0  0  0  0  0
    8.3450   -3.3440   25.0980 C   0  0  0  0  0  0  0  0  0  0  0  0
   11.9754   -0.1315   23.4469 C   0  0  0  0  0  0  0  0  0  0  0  0
    9.1280   -1.2090   23.4870 C   0  0  0  0  0  0  0  0  0  0  0  0
   13.7138   -1.5135   22.4957 C   0  0  0  0  0  0  0  0  0  0  0  0
    6.1460    0.6070   19.9750 C   0  0  0  0  0  0  0  0  0  0  0  0
    7.2710   -0.1460   19.8310 C   0  0  0  0  0  0  0  0  0  0  0  0
    5.3890    1.0010   21.0690 C   0  0  0  0  0  0  0  0  0  0  0  0
    4.2460    1.7520   20.8250 C   0  0  0  0  0  0  0  0  0  0  0  0
    3.8860    2.1050   19.5250 C   0  0  0  0  0  0  0  0  0  0  0  0
    4.6610    1.7170   18.4380 C   0  0  0  0  0  0  0  0  0  0  0  0
    9.0430    0.2380   21.4940 C   0  0  0  0  0  0  0  0  0  0  0  0
    7.9522   -4.4794   25.9764 C   0  0  0  0  0  0  0  0  0  0  0  0
   10.7332    0.6950   23.2793 C   0  0  0  0  0  0  0  0  0  0  0  0
    8.0950   -0.7700   20.8440 C   0  0  0  0  0  0  0  0  0  0  0  0
    7.5840   -0.2700   18.5160 N   0  0  0  0  0  0  0  0  0  0  0  0
    6.7100    0.3850   17.8100 N   0  0  0  0  0  0  0  0  0  0  0  0
    5.7970    0.9500   18.6730 N   0  0  0  0  0  0  0  0  0  0  0  0
    9.5820   -0.1080   22.7000 N   0  0  0  0  0  0  0  0  0  0  0  0
    9.2950    1.3000   20.9480 O   0  0  0  0  0  0  0  0  0  0  0  0
   14.4355   -2.2715   21.1296 Cl  0  0  0  0  0  0  0  0  0  0  0  0
   14.1393   -1.1759   25.8525 H   0  0  0  0  0  0  0  0  0  0  0  0
   12.0946    0.1877   25.5799 H   0  0  0  0  0  0  0  0  0  0  0  0
    9.5403   -4.5627   23.7809 H   0  0  0  0  0  0  0  0  0  0  0  0
    7.1911   -1.8848   26.1904 H   0  0  0  0  0  0  0  0  0  0  0  0
   10.2682   -2.6746   22.3865 H   0  0  0  0  0  0  0  0  0  0  0  0
    7.8684   -0.0022   24.7594 H   0  0  0  0  0  0  0  0  0  0  0  0
   15.1809   -2.2650   23.8971 H   0  0  0  0  0  0  0  0  0  0  0  0
   12.1137   -0.6205   21.3554 H   0  0  0  0  0  0  0  0  0  0  0  0
    5.6533    0.7494   22.0767 H   0  0  0  0  0  0  0  0  0  0  0  0
    3.6389    2.0586   21.6677 H   0  0  0  0  0  0  0  0  0  0  0  0
    2.9824    2.6968   19.3331 H   0  0  0  0  0  0  0  0  0  0  0  0
    4.4115    1.9887   17.4356 H   0  0  0  0  0  0  0  0  0  0  0  0
    8.6668   -4.5891   26.8013 H   0  0  0  0  0  0  0  0  0  0  0  0
    6.9513   -4.3276   26.4010 H   0  0  0  0  0  0  0  0  0  0  0  0
    7.9196   -5.4231   25.4163 H   0  0  0  0  0  0  0  0  0  0  0  0
   10.4069    1.1014   24.2429 H   0  0  0  0  0  0  0  0  0  0  0  0
   10.9135    1.5446   22.6123 H   0  0  0  0  0  0  0  0  0  0  0  0
    7.4785   -1.2070   21.6432 H   0  0  0  0  0  0  0  0  0  0  0  0
    8.7096   -1.5792   20.4228 H   0  0  0  0  0  0  0  0  0  0  0  0
  1  2  2  0  0  0  0
  1  7  1  0  0  0  0
  2 10  1  0  0  0  0
  3  5  2  0  0  0  0
  3  9  1  0  0  0  0
  4  6  1  0  0  0  0
  4  9  2  0  0  0  0
  5 11  1  0  0  0  0
  6 11  2  0  0  0  0
  7 12  2  0  0  0  0
  8 10  2  0  0  0  0
  8 12  1  0  0  0  0
  9 20  1  0  0  0  0
 10 21  1  0  0  0  0
 11 26  1  0  0  0  0
 12 28  1  0  0  0  0
 13 14  2  0  0  0  0
 13 15  1  0  0  0  0
 13 25  1  0  0  0  0
 14 22  1  0  0  0  0
 14 23  1  0  0  0  0
 15 16  2  0  0  0  0
 16 17  1  0  0  0  0
 17 18  2  0  0  0  0
 18 25  1  0  0  0  0
 19 22  1  0  0  0  0
 19 26  1  0  0  0  0
 19 27  2  0  0  0  0
 21 26  1  0  0  0  0
 23 24  2  0  0  0  0
 24 25  1  0  0  0  0
  1 29  1  0  0  0  0
  2 30  1  0  0  0  0
  3 31  1  0  0  0  0
  4 32  1  0  0  0  0
  5 33  1  0  0  0  0
  6 34  1  0  0  0  0
  7 35  1  0  0  0  0
  8 36  1  0  0  0  0
 15 37  1  0  0  0  0
 16 38  1  0  0  0  0
 17 39  1  0  0  0  0
 18 40  1  0  0  0  0
 20 41  1  0  0  0  0
 20 42  1  0  0  0  0
 20 43  1  0  0  0  0
 21 44  1  0  0  0  0
 21 45  1  0  0  0  0
 22 46  1  0  0  0  0
 22 47  1  0  0  0  0
M  END
> <clash_score>
0

> <docking_score>
-8.4694242477417

> <overlap_score>
0.9064345955848694

$$$$
BENZO_436_1
  -OEChem-08232013553D

 45 48  0     0  0  0  0  0  0999 V2000
    9.5890   -2.4950   23.2210 C   0  0  0  0  0  0  0  0  0  0  0  0
    8.2550   -1.0010   24.5520 C   0  0  0  0  0  0  0  0  0  0  0  0
    9.1890   -3.5540   24.0140 C   0  0  0  0  0  0  0  0  0  0  0  0
    7.8700   -2.0610   25.3550 C   0  0  0  0  0  0  0  0  0  0  0  0
   12.6407   -0.7924   22.3742 C   0  0  0  0  0  0  0  0  0  0  0  0
   13.7539   -1.4818   22.8021 C   0  0  0  0  0  0  0  0  0  0  0  0
   12.6054   -0.3411   24.6540 C   0  0  0  0  0  0  0  0  0  0  0  0
   11.9754   -0.1315   23.4469 C   0  0  0  0  0  0  0  0  0  0  0  0
    9.1280   -1.2090   23.4870 C   0  0  0  0  0  0  0  0  0  0  0  0
    8.3450   -3.3440   25.0980 C   0  0  0  0  0  0  0  0  0  0  0  0
    6.1460    0.6070   19.9750 C   0  0  0  0  0  0  0  0  0  0  0  0
    7.2710   -0.1460   19.8310 C   0  0  0  0  0  0  0  0  0  0  0  0
    5.3890    1.0010   21.0690 C   0  0  0  0  0  0  0  0  0  0  0  0
    4.2460    1.7520   20.8250 C   0  0  0  0  0  0  0  0  0  0  0  0
    3.8860    2.1050   19.5250 C   0  0  0  0  0  0  0  0  0  0  0  0
    4.6610    1.7170   18.4380 C   0  0  0  0  0  0  0  0  0  0  0  0
    9.0430    0.2380   21.4940 C   0  0  0  0  0  0  0  0  0  0  0  0
    8.5123   -5.6657   25.5744 C   0  0  0  0  0  0  0  0  0  0  0  0
   10.7332    0.6950   23.2793 C   0  0  0  0  0  0  0  0  0  0  0  0
    8.0950   -0.7700   20.8440 C   0  0  0  0  0  0  0  0  0  0  0  0
    7.5840   -0.2700   18.5160 N   0  0  0  0  0  0  0  0  0  0  0  0
    6.7100    0.3850   17.8100 N   0  0  0  0  0  0  0  0  0  0  0  0
    5.7970    0.9500   18.6730 N   0  0  0  0  0  0  0  0  0  0  0  0
    9.5820   -0.1080   22.7000 N   0  0  0  0  0  0  0  0  0  0  0  0
    9.2950    1.3000   20.9480 O   0  0  0  0  0  0  0  0  0  0  0  0
    7.9864   -4.3799   25.8996 O   0  0  0  0  0  0  0  0  0  0  0  0
   13.9932   -1.3309   24.4910 S   0  0  0  0  0  0  0  0  0  0  0  0
   10.2678   -2.6746   22.3862 H   0  0  0  0  0  0  0  0  0  0  0  0
    7.8691   -0.0023   24.7606 H   0  0  0  0  0  0  0  0  0  0  0  0
    9.5404   -4.5633   23.7846 H   0  0  0  0  0  0  0  0  0  0  0  0
    7.1920   -1.8875   26.1914 H   0  0  0  0  0  0  0  0  0  0  0  0
   12.3221   -0.7665   21.3398 H   0  0  0  0  0  0  0  0  0  0  0  0
   14.4377   -2.0674   22.2040 H   0  0  0  0  0  0  0  0  0  0  0  0
   12.3199    0.0367   25.6260 H   0  0  0  0  0  0  0  0  0  0  0  0
    5.6533    0.7494   22.0767 H   0  0  0  0  0  0  0  0  0  0  0  0
    3.6389    2.0586   21.6677 H   0  0  0  0  0  0  0  0  0  0  0  0
    2.9824    2.6968   19.3331 H   0  0  0  0  0  0  0  0  0  0  0  0
    4.4115    1.9887   17.4356 H   0  0  0  0  0  0  0  0  0  0  0  0
    8.1469   -6.4023   26.2941 H   0  0  0  0  0  0  0  0  0  0  0  0
    9.6044   -5.6298   25.5962 H   0  0  0  0  0  0  0  0  0  0  0  0
    8.1788   -5.9429   24.5716 H   0  0  0  0  0  0  0  0  0  0  0  0
   10.4069    1.1014   24.2429 H   0  0  0  0  0  0  0  0  0  0  0  0
   10.9135    1.5446   22.6123 H   0  0  0  0  0  0  0  0  0  0  0  0
    7.4785   -1.2070   21.6432 H   0  0  0  0  0  0  0  0  0  0  0  0
    8.7096   -1.5792   20.4228 H   0  0  0  0  0  0  0  0  0  0  0  0
  1  3  2  0  0  0  0
  1  9  1  0  0  0  0
  2  4  1  0  0  0  0
  2  9  2  0  0  0  0
  3 10  1  0  0  0  0
  4 10  2  0  0  0  0
  5  6  2  0  0  0  0
  5  8  1  0  0  0  0
  6 27  1  0  0  0  0
  7  8  2  0  0  0  0
  7 27  1  0  0  0  0
  8 19  1  0  0  0  0
  9 24  1  0  0  0  0
 10 26  1  0  0  0  0
 11 12  2  0  0  0  0
 11 13  1  0  0  0  0
 11 23  1  0  0  0  0
 12 20  1  0  0  0  0
 12 21  1  0  0  0  0
 13 14  2  0  0  0  0
 14 15  1  0  0  0  0
 15 16  2  0  0  0  0
 16 23  1  0  0  0  0
 17 20  1  0  0  0  0
 17 24  1  0  0  0  0
 17 25  2  0  0  0  0
 18 26  1  0  0  0  0
 19 24  1  0  0  0  0
 21 22  2  0  0  0  0
 22 23  1  0  0  0  0
  1 28  1  0  0  0  0
  2 29  1  0  0  0  0
  3 30  1  0  0  0  0
  4 31  1  0  0  0  0
  5 32  1  0  0  0  0
  6 33  1  0  0  0  0
  7 34  1  0  0  0  0
 13 35  1  0  0  0  0
 14 36  1  0  0  0  0
 15 37  1  0  0  0  0
 16 38  1  0  0  0  0
 18 39  1  0  0  0  0
 18 40  1  0  0  0  0
 18 41  1  0  0  0  0
 19 42  1  0  0  0  0
 19 43  1  0  0  0  0
 20 44  1  0  0  0  0
 20 45  1  0  0  0  0
M  END
> <clash_score>
0

> <docking_score>
-9.093194961547852

> <overlap_score>
0.8989589810371399

$$$$
BENZO_439_1
  -OEChem-08232013553D

 48 51  0     0  0  0  0  0  0999 V2000
    9.5890   -2.4950   23.2210 C   0  0  0  0  0  0  0  0  0  0  0  0
    8.2550   -1.0010   24.5520 C   0  0  0  0  0  0  0  0  0  0  0  0
    9.1890   -3.5540   24.0140 C   0  0  0  0  0  0  0  0  0  0  0  0
    7.8700   -2.0610   25.3550 C   0  0  0  0  0  0  0  0  0  0  0  0
   13.3011    0.3469   23.6172 C   0  0  0  0  0  0  0  0  0  0  0  0
   12.3483   -0.9498   22.1187 C   0  0  0  0  0  0  0  0  0  0  0  0
   12.0646    0.0552   23.0109 C   0  0  0  0  0  0  0  0  0  0  0  0
    9.1280   -1.2090   23.4870 C   0  0  0  0  0  0  0  0  0  0  0  0
    8.3450   -3.3440   25.0980 C   0  0  0  0  0  0  0  0  0  0  0  0
    6.1460    0.6070   19.9750 C   0  0  0  0  0  0  0  0  0  0  0  0
    7.2710   -0.1460   19.8310 C   0  0  0  0  0  0  0  0  0  0  0  0
    5.3890    1.0010   21.0690 C   0  0  0  0  0  0  0  0  0  0  0  0
    4.2460    1.7520   20.8250 C   0  0  0  0  0  0  0  0  0  0  0  0
    3.8860    2.1050   19.5250 C   0  0  0  0  0  0  0  0  0  0  0  0
    4.6610    1.7170   18.4380 C   0  0  0  0  0  0  0  0  0  0  0  0
    9.0430    0.2380   21.4940 C   0  0  0  0  0  0  0  0  0  0  0  0
   14.4506   -2.1662   21.5028 C   0  0  0  0  0  0  0  0  0  0  0  0
    7.1173   -4.0856   26.9922 C   0  0  0  0  0  0  0  0  0  0  0  0
   10.7332    0.6950   23.2793 C   0  0  0  0  0  0  0  0  0  0  0  0
    8.0950   -0.7700   20.8440 C   0  0  0  0  0  0  0  0  0  0  0  0
   14.2963   -0.4115   23.1498 N   0  0  0  0  0  0  0  0  0  0  0  0
    7.5840   -0.2700   18.5160 N   0  0  0  0  0  0  0  0  0  0  0  0
    6.7100    0.3850   17.8100 N   0  0  0  0  0  0  0  0  0  0  0  0
   13.6854   -1.1898   22.2404 N   0  0  0  0  0  0  0  0  0  0  0  0
    5.7970    0.9500   18.6730 N   0  0  0  0  0  0  0  0  0  0  0  0
    9.5820   -0.1080   22.7000 N   0  0  0  0  0  0  0  0  0  0  0  0
    9.2950    1.3000   20.9480 O   0  0  0  0  0  0  0  0  0  0  0  0
    7.9864   -4.3799   25.8996 O   0  0  0  0  0  0  0  0  0  0  0  0
   10.2678   -2.6746   22.3862 H   0  0  0  0  0  0  0  0  0  0  0  0
    7.8691   -0.0023   24.7606 H   0  0  0  0  0  0  0  0  0  0  0  0
    9.5404   -4.5633   23.7846 H   0  0  0  0  0  0  0  0  0  0  0  0
    7.1920   -1.8875   26.1914 H   0  0  0  0  0  0  0  0  0  0  0  0
   13.5209    1.0795   24.3810 H   0  0  0  0  0  0  0  0  0  0  0  0
   11.7278   -1.5018   21.4258 H   0  0  0  0  0  0  0  0  0  0  0  0
    5.6533    0.7494   22.0767 H   0  0  0  0  0  0  0  0  0  0  0  0
    3.6389    2.0586   21.6677 H   0  0  0  0  0  0  0  0  0  0  0  0
    2.9824    2.6968   19.3331 H   0  0  0  0  0  0  0  0  0  0  0  0
    4.4115    1.9887   17.4356 H   0  0  0  0  0  0  0  0  0  0  0  0
   14.8236   -1.6862   20.5943 H   0  0  0  0  0  0  0  0  0  0  0  0
   15.2831   -2.5175   22.1189 H   0  0  0  0  0  0  0  0  0  0  0  0
   13.8079   -3.0147   21.2520 H   0  0  0  0  0  0  0  0  0  0  0  0
    6.9107   -5.0014   27.5514 H   0  0  0  0  0  0  0  0  0  0  0  0
    6.1851   -3.6594   26.6129 H   0  0  0  0  0  0  0  0  0  0  0  0
    7.6053   -3.3622   27.6497 H   0  0  0  0  0  0  0  0  0  0  0  0
   10.5631    0.7951   24.3568 H   0  0  0  0  0  0  0  0  0  0  0  0
   10.6863    1.7004   22.8479 H   0  0  0  0  0  0  0  0  0  0  0  0
    7.4785   -1.2070   21.6432 H   0  0  0  0  0  0  0  0  0  0  0  0
    8.7096   -1.5792   20.4228 H   0  0  0  0  0  0  0  0  0  0  0  0
  1  3  2  0  0  0  0
  1  8  1  0  0  0  0
  2  4  1  0  0  0  0
  2  8  2  0  0  0  0
  3  9  1  0  0  0  0
  4  9  2  0  0  0  0
  5  7  1  0  0  0  0
  5 21  2  0  0  0  0
  6  7  2  0  0  0  0
  6 24  1  0  0  0  0
  7 19  1  0  0  0  0
  8 26  1  0  0  0  0
  9 28  1  0  0  0  0
 10 11  2  0  0  0  0
 10 12  1  0  0  0  0
 10 25  1  0  0  0  0
 11 20  1  0  0  0  0
 11 22  1  0  0  0  0
 12 13  2  0  0  0  0
 13 14  1  0  0  0  0
 14 15  2  0  0  0  0
 15 25  1  0  0  0  0
 16 20  1  0  0  0  0
 16 26  1  0  0  0  0
 16 27  2  0  0  0  0
 17 24  1  0  0  0  0
 18 28  1  0  0  0  0
 19 26  1  0  0  0  0
 21 24  1  0  0  0  0
 22 23  2  0  0  0  0
 23 25  1  0  0  0  0
  1 29  1  0  0  0  0
  2 30  1  0  0  0  0
  3 31  1  0  0  0  0
  4 32  1  0  0  0  0
  5 33  1  0  0  0  0
  6 34  1  0  0  0  0
 12 35  1  0  0  0  0
 13 36  1  0  0  0  0
 14 37  1  0  0  0  0
 15 38  1  0  0  0  0
 17 39  1  0  0  0  0
 17 40  1  0  0  0  0
 17 41  1  0  0  0  0
 18 42  1  0  0  0  0
 18 43  1  0  0  0  0
 18 44  1  0  0  0  0
 19 45  1  0  0  0  0
 19 46  1  0  0  0  0
 20 47  1  0  0  0  0
 20 48  1  0  0  0  0
M  END
> <clash_score>
0

> <docking_score>
-8.810720443725586

> <overlap_score>
0.9047733545303345

$$$$
BENZO_438_1
  -OEChem-08232013553D

 48 51  0     0  0  0  0  0  0999 V2000
   13.6971   -1.0552   24.8678 C   0  0  0  0  0  0  0  0  0  0  0  0
   12.5438   -0.2866   24.7112 C   0  0  0  0  0  0  0  0  0  0  0  0
    9.5890   -2.4950   23.2210 C   0  0  0  0  0  0  0  0  0  0  0  0
    8.2550   -1.0010   24.5520 C   0  0  0  0  0  0  0  0  0  0  0  0
    9.1890   -3.5540   24.0140 C   0  0  0  0  0  0  0  0  0  0  0  0
    7.8700   -2.0610   25.3550 C   0  0  0  0  0  0  0  0  0  0  0  0
   14.2822   -1.6686   23.7601 C   0  0  0  0  0  0  0  0  0  0  0  0
   12.5604   -0.7449   22.3391 C   0  0  0  0  0  0  0  0  0  0  0  0
   11.9754   -0.1315   23.4469 C   0  0  0  0  0  0  0  0  0  0  0  0
    9.1280   -1.2090   23.4870 C   0  0  0  0  0  0  0  0  0  0  0  0
    8.3450   -3.3440   25.0980 C   0  0  0  0  0  0  0  0  0  0  0  0
   13.7138   -1.5135   22.4957 C   0  0  0  0  0  0  0  0  0  0  0  0
    6.1460    0.6070   19.9750 C   0  0  0  0  0  0  0  0  0  0  0  0
    7.2710   -0.1460   19.8310 C   0  0  0  0  0  0  0  0  0  0  0  0
    5.3890    1.0010   21.0690 C   0  0  0  0  0  0  0  0  0  0  0  0
    4.2460    1.7520   20.8250 C   0  0  0  0  0  0  0  0  0  0  0  0
    3.8860    2.1050   19.5250 C   0  0  0  0  0  0  0  0  0  0  0  0
    4.6610    1.7170   18.4380 C   0  0  0  0  0  0  0  0  0  0  0  0
    9.0430    0.2380   21.4940 C   0  0  0  0  0  0  0  0  0  0  0  0
    8.5123   -5.6657   25.5744 C   0  0  0  0  0  0  0  0  0  0  0  0
   10.7332    0.6950   23.2793 C   0  0  0  0  0  0  0  0  0  0  0  0
    8.0950   -0.7700   20.8440 C   0  0  0  0  0  0  0  0  0  0  0  0
    7.5840   -0.2700   18.5160 N   0  0  0  0  0  0  0  0  0  0  0  0
    6.7100    0.3850   17.8100 N   0  0  0  0  0  0  0  0  0  0  0  0
    5.7970    0.9500   18.6730 N   0  0  0  0  0  0  0  0  0  0  0  0
    9.5820   -0.1080   22.7000 N   0  0  0  0  0  0  0  0  0  0  0  0
    9.2950    1.3000   20.9480 O   0  0  0  0  0  0  0  0  0  0  0  0
    7.9864   -4.3799   25.8996 O   0  0  0  0  0  0  0  0  0  0  0  0
   14.4355   -2.2715   21.1296 Cl  0  0  0  0  0  0  0  0  0  0  0  0
   14.1393   -1.1759   25.8525 H   0  0  0  0  0  0  0  0  0  0  0  0
   12.0946    0.1877   25.5799 H   0  0  0  0  0  0  0  0  0  0  0  0
   10.2678   -2.6746   22.3862 H   0  0  0  0  0  0  0  0  0  0  0  0
    7.8691   -0.0023   24.7606 H   0  0  0  0  0  0  0  0  0  0  0  0
    9.5404   -4.5633   23.7846 H   0  0  0  0  0  0  0  0  0  0  0  0
    7.1920   -1.8875   26.1914 H   0  0  0  0  0  0  0  0  0  0  0  0
   15.1809   -2.2650   23.8971 H   0  0  0  0  0  0  0  0  0  0  0  0
   12.1137   -0.6205   21.3554 H   0  0  0  0  0  0  0  0  0  0  0  0
    5.6533    0.7494   22.0767 H   0  0  0  0  0  0  0  0  0  0  0  0
    3.6389    2.0586   21.6677 H   0  0  0  0  0  0  0  0  0  0  0  0
    2.9824    2.6968   19.3331 H   0  0  0  0  0  0  0  0  0  0  0  0
    4.4115    1.9887   17.4356 H   0  0  0  0  0  0  0  0  0  0  0  0
    8.1469   -6.4023   26.2941 H   0  0  0  0  0  0  0  0  0  0  0  0
    9.6044   -5.6298   25.5962 H   0  0  0  0  0  0  0  0  0  0  0  0
    8.1788   -5.9429   24.5716 H   0  0  0  0  0  0  0  0  0  0  0  0
   10.4069    1.1014   24.2429 H   0  0  0  0  0  0  0  0  0  0  0  0
   10.9135    1.5446   22.6123 H   0  0  0  0  0  0  0  0  0  0  0  0
    7.4785   -1.2070   21.6432 H   0  0  0  0  0  0  0  0  0  0  0  0
    8.7096   -1.5792   20.4228 H   0  0  0  0  0  0  0  0  0  0  0  0
  1  2  2  0  0  0  0
  1  7  1  0  0  0  0
  2  9  1  0  0  0  0
  3  5  2  0  0  0  0
  3 10  1  0  0  0  0
  4  6  1  0  0  0  0
  4 10  2  0  0  0  0
  5 11  1  0  0  0  0
  6 11  2  0  0  0  0
  7 12  2  0  0  0  0
  8  9  2  0  0  0  0
  8 12  1  0  0  0  0
  9 21  1  0  0  0  0
 10 26  1  0  0  0  0
 11 28  1  0  0  0  0
 12 29  1  0  0  0  0
 13 14  2  0  0  0  0
 13 15  1  0  0  0  0
 13 25  1  0  0  0  0
 14 22  1  0  0  0  0
 14 23  1  0  0  0  0
 15 16  2  0  0  0  0
 16 17  1  0  0  0  0
 17 18  2  0  0  0  0
 18 25  1  0  0  0  0
 19 22  1  0  0  0  0
 19 26  1  0  0  0  0
 19 27  2  0  0  0  0
 20 28  1  0  0  0  0
 21 26  1  0  0  0  0
 23 24  2  0  0  0  0
 24 25  1  0  0  0  0
  1 30  1  0  0  0  0
  2 31  1  0  0  0  0
  3 32  1  0  0  0  0
  4 33  1  0  0  0  0
  5 34  1  0  0  0  0
  6 35  1  0  0  0  0
  7 36  1  0  0  0  0
  8 37  1  0  0  0  0
 15 38  1  0  0  0  0
 16 39  1  0  0  0  0
 17 40  1  0  0  0  0
 18 41  1  0  0  0  0
 20 42  1  0  0  0  0
 20 43  1  0  0  0  0
 20 44  1  0  0  0  0
 21 45  1  0  0  0  0
 21 46  1  0  0  0  0
 22 47  1  0  0  0  0
 22 48  1  0  0  0  0
M  END
> <clash_score>
0

> <docking_score>
-8.589605331420898

> <overlap_score>
0.919678807258606

$$$$
BENZO_441_1
  -OEChem-08232013553D

 58 62  0     0  0  0  0  0  0999 V2000
   14.3042   -1.3694   24.0873 C   0  0  0  0  0  0  0  0  0  0  0  0
   13.9329   -0.3050   24.9087 C   0  0  0  0  0  0  0  0  0  0  0  0
   13.4883   -1.7440   23.0196 C   0  0  0  0  0  0  0  0  0  0  0  0
   12.7458    0.3848   24.6627 C   0  0  0  0  0  0  0  0  0  0  0  0
   12.3012   -1.0542   22.7736 C   0  0  0  0  0  0  0  0  0  0  0  0
    9.1890   -3.5540   24.0140 C   0  0  0  0  0  0  0  0  0  0  0  0
    7.8700   -2.0610   25.3550 C   0  0  0  0  0  0  0  0  0  0  0  0
    9.5890   -2.4950   23.2210 C   0  0  0  0  0  0  0  0  0  0  0  0
    8.2550   -1.0010   24.5520 C   0  0  0  0  0  0  0  0  0  0  0  0
   11.9299    0.0102   23.5951 C   0  0  0  0  0  0  0  0  0  0  0  0
    8.3450   -3.3440   25.0980 C   0  0  0  0  0  0  0  0  0  0  0  0
    9.1280   -1.2090   23.4870 C   0  0  0  0  0  0  0  0  0  0  0  0
    6.1460    0.6070   19.9750 C   0  0  0  0  0  0  0  0  0  0  0  0
    7.2710   -0.1460   19.8310 C   0  0  0  0  0  0  0  0  0  0  0  0
    5.3890    1.0010   21.0690 C   0  0  0  0  0  0  0  0  0  0  0  0
    4.2460    1.7520   20.8250 C   0  0  0  0  0  0  0  0  0  0  0  0
    3.8860    2.1050   19.5250 C   0  0  0  0  0  0  0  0  0  0  0  0
    4.6610    1.7170   18.4380 C   0  0  0  0  0  0  0  0  0  0  0  0
    7.2752   -5.5548   25.4273 C   0  0  0  0  0  0  0  0  0  0  0  0
    9.0430    0.2380   21.4940 C   0  0  0  0  0  0  0  0  0  0  0  0
    7.1880   -6.7800   26.3209 C   0  0  0  0  0  0  0  0  0  0  0  0
    7.0916   -6.4753   27.7999 C   0  0  0  0  0  0  0  0  0  0  0  0
    8.2362   -5.5641   28.1841 C   0  0  0  0  0  0  0  0  0  0  0  0
    8.1241   -4.2655   27.4032 C   0  0  0  0  0  0  0  0  0  0  0  0
   10.6518    0.7520   23.3299 C   0  0  0  0  0  0  0  0  0  0  0  0
    8.0950   -0.7700   20.8440 C   0  0  0  0  0  0  0  0  0  0  0  0
    7.5840   -0.2700   18.5160 N   0  0  0  0  0  0  0  0  0  0  0  0
    6.7100    0.3850   17.8100 N   0  0  0  0  0  0  0  0  0  0  0  0
    5.7970    0.9500   18.6730 N   0  0  0  0  0  0  0  0  0  0  0  0
    7.9635   -4.4452   25.9501 N   0  0  0  0  0  0  0  0  0  0  0  0
    9.5820   -0.1080   22.7000 N   0  0  0  0  0  0  0  0  0  0  0  0
    6.7947   -5.6299   24.2931 O   0  0  0  0  0  0  0  0  0  0  0  0
    9.2950    1.3000   20.9480 O   0  0  0  0  0  0  0  0  0  0  0  0
   15.2292   -1.9055   24.2781 H   0  0  0  0  0  0  0  0  0  0  0  0
   14.5686   -0.0125   25.7394 H   0  0  0  0  0  0  0  0  0  0  0  0
   13.7776   -2.5719   22.3792 H   0  0  0  0  0  0  0  0  0  0  0  0
   12.4644    1.2127   25.3082 H   0  0  0  0  0  0  0  0  0  0  0  0
   11.6717   -1.3531   21.9396 H   0  0  0  0  0  0  0  0  0  0  0  0
    9.5436   -4.5614   23.7799 H   0  0  0  0  0  0  0  0  0  0  0  0
    7.1918   -1.8823   26.1906 H   0  0  0  0  0  0  0  0  0  0  0  0
   10.2676   -2.6754   22.3861 H   0  0  0  0  0  0  0  0  0  0  0  0
    7.8686   -0.0026   24.7598 H   0  0  0  0  0  0  0  0  0  0  0  0
    5.6533    0.7494   22.0767 H   0  0  0  0  0  0  0  0  0  0  0  0
    3.6389    2.0586   21.6677 H   0  0  0  0  0  0  0  0  0  0  0  0
    2.9824    2.6968   19.3331 H   0  0  0  0  0  0  0  0  0  0  0  0
    4.4115    1.9887   17.4356 H   0  0  0  0  0  0  0  0  0  0  0  0
    6.3101   -7.3613   26.0164 H   0  0  0  0  0  0  0  0  0  0  0  0
    8.0752   -7.3922   26.1183 H   0  0  0  0  0  0  0  0  0  0  0  0
    6.1328   -5.9938   28.0269 H   0  0  0  0  0  0  0  0  0  0  0  0
    7.1363   -7.4051   28.3772 H   0  0  0  0  0  0  0  0  0  0  0  0
    8.2035   -5.3520   29.2586 H   0  0  0  0  0  0  0  0  0  0  0  0
    9.1990   -6.0474   27.9788 H   0  0  0  0  0  0  0  0  0  0  0  0
    7.2505   -3.6996   27.7511 H   0  0  0  0  0  0  0  0  0  0  0  0
    9.0155   -3.6525   27.5824 H   0  0  0  0  0  0  0  0  0  0  0  0
   10.2440    1.1632   24.2598 H   0  0  0  0  0  0  0  0  0  0  0  0
   10.8196    1.5928   22.6486 H   0  0  0  0  0  0  0  0  0  0  0  0
    7.4659   -1.2025   21.6292 H   0  0  0  0  0  0  0  0  0  0  0  0
    8.6969   -1.5747   20.4087 H   0  0  0  0  0  0  0  0  0  0  0  0
  1  2  1  0  0  0  0
  1  3  2  0  0  0  0
  2  4  2  0  0  0  0
  3  5  1  0  0  0  0
  4 10  1  0  0  0  0
  5 10  2  0  0  0  0
  6  8  2  0  0  0  0
  6 11  1  0  0  0  0
  7  9  1  0  0  0  0
  7 11  2  0  0  0  0
  8 12  1  0  0  0  0
  9 12  2  0  0  0  0
 10 25  1  0  0  0  0
 11 30  1  0  0  0  0
 12 31  1  0  0  0  0
 13 14  2  0  0  0  0
 13 15  1  0  0  0  0
 13 29  1  0  0  0  0
 14 26  1  0  0  0  0
 14 27  1  0  0  0  0
 15 16  2  0  0  0  0
 16 17  1  0  0  0  0
 17 18  2  0  0  0  0
 18 29  1  0  0  0  0
 19 21  1  0  0  0  0
 19 30  1  0  0  0  0
 19 32  2  0  0  0  0
 20 26  1  0  0  0  0
 20 31  1  0  0  0  0
 20 33  2  0  0  0  0
 21 22  1  0  0  0  0
 22 23  1  0  0  0  0
 23 24  1  0  0  0  0
 24 30  1  0  0  0  0
 25 31  1  0  0  0  0
 27 28  2  0  0  0  0
 28 29  1  0  0  0  0
  1 34  1  0  0  0  0
  2 35  1  0  0  0  0
  3 36  1  0  0  0  0
  4 37  1  0  0  0  0
  5 38  1  0  0  0  0
  6 39  1  0  0  0  0
  7 40  1  0  0  0  0
  8 41  1  0  0  0  0
  9 42  1  0  0  0  0
 15 43  1  0  0  0  0
 16 44  1  0  0  0  0
 17 45  1  0  0  0  0
 18 46  1  0  0  0  0
 21 47  1  0  0  0  0
 21 48  1  0  0  0  0
 22 49  1  0  0  0  0
 22 50  1  0  0  0  0
 23 51  1  0  0  0  0
 23 52  1  0  0  0  0
 24 53  1  0  0  0  0
 24 54  1  0  0  0  0
 25 55  1  0  0  0  0
 25 56  1  0  0  0  0
 26 57  1  0  0  0  0
 26 58  1  0  0  0  0
M  END
> <clash_score>
0

> <docking_score>
-8.516782760620117

> <overlap_score>
0.9858354330062866

$$$$
BENZO_440_1
  -OEChem-08232013553D

 55 59  0     0  0  0  0  0  0999 V2000
    9.1890   -3.5540   24.0140 C   0  0  0  0  0  0  0  0  0  0  0  0
    7.8700   -2.0610   25.3550 C   0  0  0  0  0  0  0  0  0  0  0  0
    9.5890   -2.4950   23.2210 C   0  0  0  0  0  0  0  0  0  0  0  0
    8.2550   -1.0010   24.5520 C   0  0  0  0  0  0  0  0  0  0  0  0
   12.5149   -0.1281   24.8869 C   0  0  0  0  0  0  0  0  0  0  0  0
   13.6848   -0.8545   24.8501 C   0  0  0  0  0  0  0  0  0  0  0  0
   12.6752   -0.6156   22.6200 C   0  0  0  0  0  0  0  0  0  0  0  0
   11.9299    0.0102   23.5951 C   0  0  0  0  0  0  0  0  0  0  0  0
    8.3450   -3.3440   25.0980 C   0  0  0  0  0  0  0  0  0  0  0  0
    9.1280   -1.2090   23.4870 C   0  0  0  0  0  0  0  0  0  0  0  0
    6.1460    0.6070   19.9750 C   0  0  0  0  0  0  0  0  0  0  0  0
    7.2710   -0.1460   19.8310 C   0  0  0  0  0  0  0  0  0  0  0  0
    5.3890    1.0010   21.0690 C   0  0  0  0  0  0  0  0  0  0  0  0
    4.2460    1.7520   20.8250 C   0  0  0  0  0  0  0  0  0  0  0  0
    3.8860    2.1050   19.5250 C   0  0  0  0  0  0  0  0  0  0  0  0
    4.6610    1.7170   18.4380 C   0  0  0  0  0  0  0  0  0  0  0  0
    7.2752   -5.5548   25.4273 C   0  0  0  0  0  0  0  0  0  0  0  0
    9.0430    0.2380   21.4940 C   0  0  0  0  0  0  0  0  0  0  0  0
    7.1880   -6.7800   26.3209 C   0  0  0  0  0  0  0  0  0  0  0  0
    7.0916   -6.4753   27.7999 C   0  0  0  0  0  0  0  0  0  0  0  0
    8.2362   -5.5641   28.1841 C   0  0  0  0  0  0  0  0  0  0  0  0
    8.1241   -4.2655   27.4032 C   0  0  0  0  0  0  0  0  0  0  0  0
   10.6518    0.7520   23.3299 C   0  0  0  0  0  0  0  0  0  0  0  0
    8.0950   -0.7700   20.8440 C   0  0  0  0  0  0  0  0  0  0  0  0
    7.5840   -0.2700   18.5160 N   0  0  0  0  0  0  0  0  0  0  0  0
    6.7100    0.3850   17.8100 N   0  0  0  0  0  0  0  0  0  0  0  0
    5.7970    0.9500   18.6730 N   0  0  0  0  0  0  0  0  0  0  0  0
    7.9635   -4.4452   25.9501 N   0  0  0  0  0  0  0  0  0  0  0  0
    9.5820   -0.1080   22.7000 N   0  0  0  0  0  0  0  0  0  0  0  0
    6.7947   -5.6299   24.2931 O   0  0  0  0  0  0  0  0  0  0  0  0
    9.2950    1.3000   20.9480 O   0  0  0  0  0  0  0  0  0  0  0  0
   14.0737   -1.3661   23.2629 S   0  0  0  0  0  0  0  0  0  0  0  0
    9.5436   -4.5614   23.7799 H   0  0  0  0  0  0  0  0  0  0  0  0
    7.1918   -1.8823   26.1906 H   0  0  0  0  0  0  0  0  0  0  0  0
   10.2676   -2.6754   22.3861 H   0  0  0  0  0  0  0  0  0  0  0  0
    7.8686   -0.0026   24.7598 H   0  0  0  0  0  0  0  0  0  0  0  0
   12.1021    0.2830   25.7996 H   0  0  0  0  0  0  0  0  0  0  0  0
   14.3301   -1.1085   25.6791 H   0  0  0  0  0  0  0  0  0  0  0  0
   12.4696   -0.6694   21.5599 H   0  0  0  0  0  0  0  0  0  0  0  0
    5.6533    0.7494   22.0767 H   0  0  0  0  0  0  0  0  0  0  0  0
    3.6389    2.0586   21.6677 H   0  0  0  0  0  0  0  0  0  0  0  0
    2.9824    2.6968   19.3331 H   0  0  0  0  0  0  0  0  0  0  0  0
    4.4115    1.9887   17.4356 H   0  0  0  0  0  0  0  0  0  0  0  0
    6.3101   -7.3613   26.0164 H   0  0  0  0  0  0  0  0  0  0  0  0
    8.0752   -7.3922   26.1183 H   0  0  0  0  0  0  0  0  0  0  0  0
    6.1328   -5.9938   28.0269 H   0  0  0  0  0  0  0  0  0  0  0  0
    7.1363   -7.4051   28.3772 H   0  0  0  0  0  0  0  0  0  0  0  0
    8.2035   -5.3520   29.2586 H   0  0  0  0  0  0  0  0  0  0  0  0
    9.1990   -6.0474   27.9788 H   0  0  0  0  0  0  0  0  0  0  0  0
    7.2505   -3.6996   27.7511 H   0  0  0  0  0  0  0  0  0  0  0  0
    9.0155   -3.6525   27.5824 H   0  0  0  0  0  0  0  0  0  0  0  0
   10.2440    1.1632   24.2598 H   0  0  0  0  0  0  0  0  0  0  0  0
   10.8196    1.5928   22.6486 H   0  0  0  0  0  0  0  0  0  0  0  0
    7.4659   -1.2025   21.6292 H   0  0  0  0  0  0  0  0  0  0  0  0
    8.6969   -1.5747   20.4087 H   0  0  0  0  0  0  0  0  0  0  0  0
  1  3  2  0  0  0  0
  1  9  1  0  0  0  0
  2  4  1  0  0  0  0
  2  9  2  0  0  0  0
  3 10  1  0  0  0  0
  4 10  2  0  0  0  0
  5  6  2  0  0  0  0
  5  8  1  0  0  0  0
  6 32  1  0  0  0  0
  7  8  2  0  0  0  0
  7 32  1  0  0  0  0
  8 23  1  0  0  0  0
  9 28  1  0  0  0  0
 10 29  1  0  0  0  0
 11 12  2  0  0  0  0
 11 13  1  0  0  0  0
 11 27  1  0  0  0  0
 12 24  1  0  0  0  0
 12 25  1  0  0  0  0
 13 14  2  0  0  0  0
 14 15  1  0  0  0  0
 15 16  2  0  0  0  0
 16 27  1  0  0  0  0
 17 19  1  0  0  0  0
 17 28  1  0  0  0  0
 17 30  2  0  0  0  0
 18 24  1  0  0  0  0
 18 29  1  0  0  0  0
 18 31  2  0  0  0  0
 19 20  1  0  0  0  0
 20 21  1  0  0  0  0
 21 22  1  0  0  0  0
 22 28  1  0  0  0  0
 23 29  1  0  0  0  0
 25 26  2  0  0  0  0
 26 27  1  0  0  0  0
  1 33  1  0  0  0  0
  2 34  1  0  0  0  0
  3 35  1  0  0  0  0
  4 36  1  0  0  0  0
  5 37  1  0  0  0  0
  6 38  1  0  0  0  0
  7 39  1  0  0  0  0
 13 40  1  0  0  0  0
 14 41  1  0  0  0  0
 15 42  1  0  0  0  0
 16 43  1  0  0  0  0
 19 44  1  0  0  0  0
 19 45  1  0  0  0  0
 20 46  1  0  0  0  0
 20 47  1  0  0  0  0
 21 48  1  0  0  0  0
 21 49  1  0  0  0  0
 22 50  1  0  0  0  0
 22 51  1  0  0  0  0
 23 52  1  0  0  0  0
 23 53  1  0  0  0  0
 24 54  1  0  0  0  0
 24 55  1  0  0  0  0
M  END
> <clash_score>
0

> <docking_score>
-8.40022087097168

> <overlap_score>
0.970133900642395

$$$$
BENZO_445_1
  -OEChem-08232013553D

 57 61  0     0  0  0  0  0  0999 V2000
   14.3042   -1.3681   24.0908 C   0  0  0  0  0  0  0  0  0  0  0  0
   13.9323   -0.3032   24.9113 C   0  0  0  0  0  0  0  0  0  0  0  0
   13.4890   -1.7436   23.0229 C   0  0  0  0  0  0  0  0  0  0  0  0
   12.7451    0.3861   24.6641 C   0  0  0  0  0  0  0  0  0  0  0  0
   12.3019   -1.0542   22.7758 C   0  0  0  0  0  0  0  0  0  0  0  0
    9.1890   -3.5540   24.0140 C   0  0  0  0  0  0  0  0  0  0  0  0
    7.8700   -2.0610   25.3550 C   0  0  0  0  0  0  0  0  0  0  0  0
    9.5890   -2.4950   23.2210 C   0  0  0  0  0  0  0  0  0  0  0  0
    8.2550   -1.0010   24.5520 C   0  0  0  0  0  0  0  0  0  0  0  0
   11.9299    0.0106   23.5964 C   0  0  0  0  0  0  0  0  0  0  0  0
    8.3450   -3.3440   25.0980 C   0  0  0  0  0  0  0  0  0  0  0  0
    9.1280   -1.2090   23.4870 C   0  0  0  0  0  0  0  0  0  0  0  0
    6.1460    0.6070   19.9750 C   0  0  0  0  0  0  0  0  0  0  0  0
    7.2710   -0.1460   19.8310 C   0  0  0  0  0  0  0  0  0  0  0  0
    5.3890    1.0010   21.0690 C   0  0  0  0  0  0  0  0  0  0  0  0
    4.2460    1.7520   20.8250 C   0  0  0  0  0  0  0  0  0  0  0  0
    3.8860    2.1050   19.5250 C   0  0  0  0  0  0  0  0  0  0  0  0
    4.6610    1.7170   18.4380 C   0  0  0  0  0  0  0  0  0  0  0  0
    9.0430    0.2380   21.4940 C   0  0  0  0  0  0  0  0  0  0  0  0
    8.9524   -5.2012   26.6600 C   0  0  0  0  0  0  0  0  0  0  0  0
    6.6112   -4.5068   26.4379 C   0  0  0  0  0  0  0  0  0  0  0  0
    8.9037   -4.7845   28.1261 C   0  0  0  0  0  0  0  0  0  0  0  0
    6.6374   -4.1243   27.9184 C   0  0  0  0  0  0  0  0  0  0  0  0
   10.6518    0.7520   23.3299 C   0  0  0  0  0  0  0  0  0  0  0  0
    8.0950   -0.7700   20.8440 C   0  0  0  0  0  0  0  0  0  0  0  0
    7.5840   -0.2700   18.5160 N   0  0  0  0  0  0  0  0  0  0  0  0
    6.7100    0.3850   17.8100 N   0  0  0  0  0  0  0  0  0  0  0  0
    5.7970    0.9500   18.6730 N   0  0  0  0  0  0  0  0  0  0  0  0
    7.9775   -4.4014   25.9151 N   0  0  0  0  0  0  0  0  0  0  0  0
    9.5820   -0.1080   22.7000 N   0  0  0  0  0  0  0  0  0  0  0  0
    9.2950    1.3000   20.9480 O   0  0  0  0  0  0  0  0  0  0  0  0
    7.5729   -4.9391   28.6338 O   0  0  0  0  0  0  0  0  0  0  0  0
   15.2293   -1.9039   24.2825 H   0  0  0  0  0  0  0  0  0  0  0  0
   14.5674   -0.0100   25.7421 H   0  0  0  0  0  0  0  0  0  0  0  0
   13.7788   -2.5719   22.3832 H   0  0  0  0  0  0  0  0  0  0  0  0
   12.4632    1.2145   25.3089 H   0  0  0  0  0  0  0  0  0  0  0  0
   11.6729   -1.3539   21.9416 H   0  0  0  0  0  0  0  0  0  0  0  0
    9.5426   -4.5618   23.7797 H   0  0  0  0  0  0  0  0  0  0  0  0
    7.1914   -1.8824   26.1903 H   0  0  0  0  0  0  0  0  0  0  0  0
   10.2669   -2.6745   22.3854 H   0  0  0  0  0  0  0  0  0  0  0  0
    7.8690   -0.0020   24.7587 H   0  0  0  0  0  0  0  0  0  0  0  0
    5.6533    0.7494   22.0767 H   0  0  0  0  0  0  0  0  0  0  0  0
    3.6389    2.0586   21.6677 H   0  0  0  0  0  0  0  0  0  0  0  0
    2.9824    2.6968   19.3331 H   0  0  0  0  0  0  0  0  0  0  0  0
    4.4115    1.9887   17.4356 H   0  0  0  0  0  0  0  0  0  0  0  0
    9.9615   -5.0500   26.2711 H   0  0  0  0  0  0  0  0  0  0  0  0
    8.6935   -6.2597   26.5720 H   0  0  0  0  0  0  0  0  0  0  0  0
    6.2628   -5.5350   26.3330 H   0  0  0  0  0  0  0  0  0  0  0  0
    5.9347   -3.8423   25.9023 H   0  0  0  0  0  0  0  0  0  0  0  0
    9.5597   -5.4275   28.7166 H   0  0  0  0  0  0  0  0  0  0  0  0
    9.2344   -3.7511   28.2636 H   0  0  0  0  0  0  0  0  0  0  0  0
    6.8874   -3.0657   28.0553 H   0  0  0  0  0  0  0  0  0  0  0  0
    5.6495   -4.2893   28.3591 H   0  0  0  0  0  0  0  0  0  0  0  0
   10.2425    1.1625   24.2595 H   0  0  0  0  0  0  0  0  0  0  0  0
   10.8201    1.5933   22.6493 H   0  0  0  0  0  0  0  0  0  0  0  0
    7.4659   -1.2025   21.6292 H   0  0  0  0  0  0  0  0  0  0  0  0
    8.6969   -1.5747   20.4087 H   0  0  0  0  0  0  0  0  0  0  0  0
  1  2  1  0  0  0  0
  1  3  2  0  0  0  0
  2  4  2  0  0  0  0
  3  5  1  0  0  0  0
  4 10  1  0  0  0  0
  5 10  2  0  0  0  0
  6  8  2  0  0  0  0
  6 11  1  0  0  0  0
  7  9  1  0  0  0  0
  7 11  2  0  0  0  0
  8 12  1  0  0  0  0
  9 12  2  0  0  0  0
 10 24  1  0  0  0  0
 11 29  1  0  0  0  0
 12 30  1  0  0  0  0
 13 14  2  0  0  0  0
 13 15  1  0  0  0  0
 13 28  1  0  0  0  0
 14 25  1  0  0  0  0
 14 26  1  0  0  0  0
 15 16  2  0  0  0  0
 16 17  1  0  0  0  0
 17 18  2  0  0  0  0
 18 28  1  0  0  0  0
 19 25  1  0  0  0  0
 19 30  1  0  0  0  0
 19 31  2  0  0  0  0
 20 22  1  0  0  0  0
 20 29  1  0  0  0  0
 21 23  1  0  0  0  0
 21 29  1  0  0  0  0
 22 32  1  0  0  0  0
 23 32  1  0  0  0  0
 24 30  1  0  0  0  0
 26 27  2  0  0  0  0
 27 28  1  0  0  0  0
  1 33  1  0  0  0  0
  2 34  1  0  0  0  0
  3 35  1  0  0  0  0
  4 36  1  0  0  0  0
  5 37  1  0  0  0  0
  6 38  1  0  0  0  0
  7 39  1  0  0  0  0
  8 40  1  0  0  0  0
  9 41  1  0  0  0  0
 15 42  1  0  0  0  0
 16 43  1  0  0  0  0
 17 44  1  0  0  0  0
 18 45  1  0  0  0  0
 20 46  1  0  0  0  0
 20 47  1  0  0  0  0
 21 48  1  0  0  0  0
 21 49  1  0  0  0  0
 22 50  1  0  0  0  0
 22 51  1  0  0  0  0
 23 52  1  0  0  0  0
 23 53  1  0  0  0  0
 24 54  1  0  0  0  0
 24 55  1  0  0  0  0
 25 56  1  0  0  0  0
 25 57  1  0  0  0  0
M  END
> <clash_score>
0

> <docking_score>
-9.644919395446777

> <overlap_score>
0.9834479093551636

$$$$
BENZO_443_1
  -OEChem-08232013553D

 58 62  0     0  0  0  0  0  0999 V2000
    9.1890   -3.5540   24.0140 C   0  0  0  0  0  0  0  0  0  0  0  0
    7.8700   -2.0610   25.3550 C   0  0  0  0  0  0  0  0  0  0  0  0
    9.5890   -2.4950   23.2210 C   0  0  0  0  0  0  0  0  0  0  0  0
    8.2550   -1.0010   24.5520 C   0  0  0  0  0  0  0  0  0  0  0  0
   13.2088    0.5787   23.8415 C   0  0  0  0  0  0  0  0  0  0  0  0
   12.4401   -0.8120   22.3216 C   0  0  0  0  0  0  0  0  0  0  0  0
   12.0356    0.1934   23.1654 C   0  0  0  0  0  0  0  0  0  0  0  0
    8.3450   -3.3440   25.0980 C   0  0  0  0  0  0  0  0  0  0  0  0
    9.1280   -1.2090   23.4870 C   0  0  0  0  0  0  0  0  0  0  0  0
    6.1460    0.6070   19.9750 C   0  0  0  0  0  0  0  0  0  0  0  0
    7.2710   -0.1460   19.8310 C   0  0  0  0  0  0  0  0  0  0  0  0
    5.3890    1.0010   21.0690 C   0  0  0  0  0  0  0  0  0  0  0  0
    4.2460    1.7520   20.8250 C   0  0  0  0  0  0  0  0  0  0  0  0
    3.8860    2.1050   19.5250 C   0  0  0  0  0  0  0  0  0  0  0  0
    4.6610    1.7170   18.4380 C   0  0  0  0  0  0  0  0  0  0  0  0
    8.7161   -4.7975   27.0830 C   0  0  0  0  0  0  0  0  0  0  0  0
    9.0430    0.2380   21.4940 C   0  0  0  0  0  0  0  0  0  0  0  0
    8.1364   -5.9760   27.8449 C   0  0  0  0  0  0  0  0  0  0  0  0
    6.6423   -5.8008   28.0518 C   0  0  0  0  0  0  0  0  0  0  0  0
    5.9022   -5.5526   26.7413 C   0  0  0  0  0  0  0  0  0  0  0  0
    6.8397   -5.2970   25.5620 C   0  0  0  0  0  0  0  0  0  0  0  0
   14.6508   -1.9043   21.8760 C   0  0  0  0  0  0  0  0  0  0  0  0
   10.6518    0.7520   23.3299 C   0  0  0  0  0  0  0  0  0  0  0  0
    8.0950   -0.7700   20.8440 C   0  0  0  0  0  0  0  0  0  0  0  0
   14.2783   -0.1247   23.4602 N   0  0  0  0  0  0  0  0  0  0  0  0
    7.5840   -0.2700   18.5160 N   0  0  0  0  0  0  0  0  0  0  0  0
    6.7100    0.3850   17.8100 N   0  0  0  0  0  0  0  0  0  0  0  0
   13.7788   -0.9622   22.5355 N   0  0  0  0  0  0  0  0  0  0  0  0
    5.7970    0.9500   18.6730 N   0  0  0  0  0  0  0  0  0  0  0  0
    7.9658   -4.4385   25.9449 N   0  0  0  0  0  0  0  0  0  0  0  0
    9.5820   -0.1080   22.7000 N   0  0  0  0  0  0  0  0  0  0  0  0
    9.7829   -4.3044   27.4475 O   0  0  0  0  0  0  0  0  0  0  0  0
    9.2950    1.3000   20.9480 O   0  0  0  0  0  0  0  0  0  0  0  0
    9.5436   -4.5614   23.7799 H   0  0  0  0  0  0  0  0  0  0  0  0
    7.1918   -1.8823   26.1906 H   0  0  0  0  0  0  0  0  0  0  0  0
   10.2676   -2.6754   22.3861 H   0  0  0  0  0  0  0  0  0  0  0  0
    7.8686   -0.0026   24.7598 H   0  0  0  0  0  0  0  0  0  0  0  0
   13.3312    1.3418   24.5971 H   0  0  0  0  0  0  0  0  0  0  0  0
   11.9026   -1.4192   21.6059 H   0  0  0  0  0  0  0  0  0  0  0  0
    5.6533    0.7494   22.0767 H   0  0  0  0  0  0  0  0  0  0  0  0
    3.6389    2.0586   21.6677 H   0  0  0  0  0  0  0  0  0  0  0  0
    2.9824    2.6968   19.3331 H   0  0  0  0  0  0  0  0  0  0  0  0
    4.4115    1.9887   17.4356 H   0  0  0  0  0  0  0  0  0  0  0  0
    8.3160   -6.8753   27.2760 H   0  0  0  0  0  0  0  0  0  0  0  0
    8.6443   -6.0335   28.7960 H   0  0  0  0  0  0  0  0  0  0  0  0
    6.2215   -6.6983   28.5513 H   0  0  0  0  0  0  0  0  0  0  0  0
    6.4589   -4.9587   28.7491 H   0  0  0  0  0  0  0  0  0  0  0  0
    5.2548   -6.4248   26.5112 H   0  0  0  0  0  0  0  0  0  0  0  0
    5.2035   -4.6957   26.8575 H   0  0  0  0  0  0  0  0  0  0  0  0
    7.2534   -6.2390   25.2146 H   0  0  0  0  0  0  0  0  0  0  0  0
    6.2879   -4.8231   24.7574 H   0  0  0  0  0  0  0  0  0  0  0  0
   15.0518   -1.4228   20.9803 H   0  0  0  0  0  0  0  0  0  0  0  0
   15.4613   -2.1864   22.5538 H   0  0  0  0  0  0  0  0  0  0  0  0
   14.0806   -2.7982   21.6082 H   0  0  0  0  0  0  0  0  0  0  0  0
   10.4052    0.8664   24.3911 H   0  0  0  0  0  0  0  0  0  0  0  0
   10.5702    1.7418   22.8685 H   0  0  0  0  0  0  0  0  0  0  0  0
    7.4659   -1.2025   21.6292 H   0  0  0  0  0  0  0  0  0  0  0  0
    8.6969   -1.5747   20.4087 H   0  0  0  0  0  0  0  0  0  0  0  0
  1  3  2  0  0  0  0
  1  8  1  0  0  0  0
  2  4  1  0  0  0  0
  2  8  2  0  0  0  0
  3  9  1  0  0  0  0
  4  9  2  0  0  0  0
  5  7  1  0  0  0  0
  5 25  2  0  0  0  0
  6  7  2  0  0  0  0
  6 28  1  0  0  0  0
  7 23  1  0  0  0  0
  8 30  1  0  0  0  0
  9 31  1  0  0  0  0
 10 11  2  0  0  0  0
 10 12  1  0  0  0  0
 10 29  1  0  0  0  0
 11 24  1  0  0  0  0
 11 26  1  0  0  0  0
 12 13  2  0  0  0  0
 13 14  1  0  0  0  0
 14 15  2  0  0  0  0
 15 29  1  0  0  0  0
 16 18  1  0  0  0  0
 16 30  1  0  0  0  0
 16 32  2  0  0  0  0
 17 24  1  0  0  0  0
 17 31  1  0  0  0  0
 17 33  2  0  0  0  0
 18 19  1  0  0  0  0
 19 20  1  0  0  0  0
 20 21  1  0  0  0  0
 21 30  1  0  0  0  0
 22 28  1  0  0  0  0
 23 31  1  0  0  0  0
 25 28  1  0  0  0  0
 26 27  2  0  0  0  0
 27 29  1  0  0  0  0
  1 34  1  0  0  0  0
  2 35  1  0  0  0  0
  3 36  1  0  0  0  0
  4 37  1  0  0  0  0
  5 38  1  0  0  0  0
  6 39  1  0  0  0  0
 12 40  1  0  0  0  0
 13 41  1  0  0  0  0
 14 42  1  0  0  0  0
 15 43  1  0  0  0  0
 18 44  1  0  0  0  0
 18 45  1  0  0  0  0
 19 46  1  0  0  0  0
 19 47  1  0  0  0  0
 20 48  1  0  0  0  0
 20 49  1  0  0  0  0
 21 50  1  0  0  0  0
 21 51  1  0  0  0  0
 22 52  1  0  0  0  0
 22 53  1  0  0  0  0
 22 54  1  0  0  0  0
 23 55  1  0  0  0  0
 23 56  1  0  0  0  0
 24 57  1  0  0  0  0
 24 58  1  0  0  0  0
M  END
> <clash_score>
0

> <docking_score>
-8.781646728515625

> <overlap_score>
0.9913878440856934

$$$$
BENZO_442_1
  -OEChem-08232013553D

 58 62  0     0  0  0  0  0  0999 V2000
   13.6164   -0.7643   25.1419 C   0  0  0  0  0  0  0  0  0  0  0  0
   12.4297   -0.0743   24.8946 C   0  0  0  0  0  0  0  0  0  0  0  0
    9.1890   -3.5540   24.0140 C   0  0  0  0  0  0  0  0  0  0  0  0
    7.8700   -2.0610   25.3550 C   0  0  0  0  0  0  0  0  0  0  0  0
    9.5890   -2.4950   23.2210 C   0  0  0  0  0  0  0  0  0  0  0  0
    8.2550   -1.0010   24.5520 C   0  0  0  0  0  0  0  0  0  0  0  0
   14.3034   -1.3698   24.0897 C   0  0  0  0  0  0  0  0  0  0  0  0
   12.6168   -0.5953   22.5429 C   0  0  0  0  0  0  0  0  0  0  0  0
   11.9299    0.0102   23.5951 C   0  0  0  0  0  0  0  0  0  0  0  0
    8.3450   -3.3440   25.0980 C   0  0  0  0  0  0  0  0  0  0  0  0
    9.1280   -1.2090   23.4870 C   0  0  0  0  0  0  0  0  0  0  0  0
   13.8036   -1.2853   22.7902 C   0  0  0  0  0  0  0  0  0  0  0  0
    6.1460    0.6070   19.9750 C   0  0  0  0  0  0  0  0  0  0  0  0
    7.2710   -0.1460   19.8310 C   0  0  0  0  0  0  0  0  0  0  0  0
    5.3890    1.0010   21.0690 C   0  0  0  0  0  0  0  0  0  0  0  0
    4.2460    1.7520   20.8250 C   0  0  0  0  0  0  0  0  0  0  0  0
    3.8860    2.1050   19.5250 C   0  0  0  0  0  0  0  0  0  0  0  0
    4.6610    1.7170   18.4380 C   0  0  0  0  0  0  0  0  0  0  0  0
    7.2757   -5.5631   25.4492 C   0  0  0  0  0  0  0  0  0  0  0  0
    9.0430    0.2380   21.4940 C   0  0  0  0  0  0  0  0  0  0  0  0
    6.9626   -6.6001   26.5133 C   0  0  0  0  0  0  0  0  0  0  0  0
    6.3764   -5.9422   27.7501 C   0  0  0  0  0  0  0  0  0  0  0  0
    7.2660   -4.8258   28.2881 C   0  0  0  0  0  0  0  0  0  0  0  0
    8.4098   -4.4623   27.3426 C   0  0  0  0  0  0  0  0  0  0  0  0
   10.6518    0.7520   23.3299 C   0  0  0  0  0  0  0  0  0  0  0  0
    8.0950   -0.7700   20.8440 C   0  0  0  0  0  0  0  0  0  0  0  0
    7.5840   -0.2700   18.5160 N   0  0  0  0  0  0  0  0  0  0  0  0
    6.7100    0.3850   17.8100 N   0  0  0  0  0  0  0  0  0  0  0  0
    5.7970    0.9500   18.6730 N   0  0  0  0  0  0  0  0  0  0  0  0
    7.9658   -4.4384   25.9449 N   0  0  0  0  0  0  0  0  0  0  0  0
    9.5820   -0.1080   22.7000 N   0  0  0  0  0  0  0  0  0  0  0  0
    6.9858   -5.7908   24.2753 O   0  0  0  0  0  0  0  0  0  0  0  0
    9.2950    1.3000   20.9480 O   0  0  0  0  0  0  0  0  0  0  0  0
   14.6510   -2.0336   21.4926 Cl  0  0  0  0  0  0  0  0  0  0  0  0
   14.0052   -0.8300   26.1540 H   0  0  0  0  0  0  0  0  0  0  0  0
   11.9010    0.3943   25.7206 H   0  0  0  0  0  0  0  0  0  0  0  0
    9.5436   -4.5614   23.7799 H   0  0  0  0  0  0  0  0  0  0  0  0
    7.1918   -1.8823   26.1906 H   0  0  0  0  0  0  0  0  0  0  0  0
   10.2676   -2.6754   22.3861 H   0  0  0  0  0  0  0  0  0  0  0  0
    7.8686   -0.0026   24.7598 H   0  0  0  0  0  0  0  0  0  0  0  0
   15.2270   -1.9046   24.2973 H   0  0  0  0  0  0  0  0  0  0  0  0
   12.2232   -0.5262   21.5314 H   0  0  0  0  0  0  0  0  0  0  0  0
    5.6533    0.7494   22.0767 H   0  0  0  0  0  0  0  0  0  0  0  0
    3.6389    2.0586   21.6677 H   0  0  0  0  0  0  0  0  0  0  0  0
    2.9824    2.6968   19.3331 H   0  0  0  0  0  0  0  0  0  0  0  0
    4.4115    1.9887   17.4356 H   0  0  0  0  0  0  0  0  0  0  0  0
    6.2500   -7.3027   26.1097 H   0  0  0  0  0  0  0  0  0  0  0  0
    7.8838   -7.1078   26.7574 H   0  0  0  0  0  0  0  0  0  0  0  0
    5.3690   -5.5363   27.5214 H   0  0  0  0  0  0  0  0  0  0  0  0
    6.2178   -6.7054   28.5384 H   0  0  0  0  0  0  0  0  0  0  0  0
    6.6498   -3.9225   28.4807 H   0  0  0  0  0  0  0  0  0  0  0  0
    7.6764   -5.1138   29.2803 H   0  0  0  0  0  0  0  0  0  0  0  0
    8.7796   -3.4700   27.5826 H   0  0  0  0  0  0  0  0  0  0  0  0
    9.2112   -5.1853   27.4497 H   0  0  0  0  0  0  0  0  0  0  0  0
   10.2440    1.1632   24.2598 H   0  0  0  0  0  0  0  0  0  0  0  0
   10.8196    1.5928   22.6486 H   0  0  0  0  0  0  0  0  0  0  0  0
    7.4659   -1.2025   21.6292 H   0  0  0  0  0  0  0  0  0  0  0  0
    8.6969   -1.5747   20.4087 H   0  0  0  0  0  0  0  0  0  0  0  0
  1  2  2  0  0  0  0
  1  7  1  0  0  0  0
  2  9  1  0  0  0  0
  3  5  2  0  0  0  0
  3 10  1  0  0  0  0
  4  6  1  0  0  0  0
  4 10  2  0  0  0  0
  5 11  1  0  0  0  0
  6 11  2  0  0  0  0
  7 12  2  0  0  0  0
  8  9  2  0  0  0  0
  8 12  1  0  0  0  0
  9 25  1  0  0  0  0
 10 30  1  0  0  0  0
 11 31  1  0  0  0  0
 12 34  1  0  0  0  0
 13 14  2  0  0  0  0
 13 15  1  0  0  0  0
 13 29  1  0  0  0  0
 14 26  1  0  0  0  0
 14 27  1  0  0  0  0
 15 16  2  0  0  0  0
 16 17  1  0  0  0  0
 17 18  2  0  0  0  0
 18 29  1  0  0  0  0
 19 21  1  0  0  0  0
 19 30  1  0  0  0  0
 19 32  2  0  0  0  0
 20 26  1  0  0  0  0
 20 31  1  0  0  0  0
 20 33  2  0  0  0  0
 21 22  1  0  0  0  0
 22 23  1  0  0  0  0
 23 24  1  0  0  0  0
 24 30  1  0  0  0  0
 25 31  1  0  0  0  0
 27 28  2  0  0  0  0
 28 29  1  0  0  0  0
  1 35  1  0  0  0  0
  2 36  1  0  0  0  0
  3 37  1  0  0  0  0
  4 38  1  0  0  0  0
  5 39  1  0  0  0  0
  6 40  1  0  0  0  0
  7 41  1  0  0  0  0
  8 42  1  0  0  0  0
 15 43  1  0  0  0  0
 16 44  1  0  0  0  0
 17 45  1  0  0  0  0
 18 46  1  0  0  0  0
 21 47  1  0  0  0  0
 21 48  1  0  0  0  0
 22 49  1  0  0  0  0
 22 50  1  0  0  0  0
 23 51  1  0  0  0  0
 23 52  1  0  0  0  0
 24 53  1  0  0  0  0
 24 54  1  0  0  0  0
 25 55  1  0  0  0  0
 25 56  1  0  0  0  0
 26 57  1  0  0  0  0
 26 58  1  0  0  0  0
M  END
> <clash_score>
0

> <docking_score>
-7.908245086669922

> <overlap_score>
0.9892637133598328

$$$$
BENZO_444_1
  -OEChem-08232013553D

 54 58  0     0  0  0  0  0  0999 V2000
    9.1890   -3.5540   24.0140 C   0  0  0  0  0  0  0  0  0  0  0  0
    7.8700   -2.0610   25.3550 C   0  0  0  0  0  0  0  0  0  0  0  0
    9.5890   -2.4950   23.2210 C   0  0  0  0  0  0  0  0  0  0  0  0
    8.2550   -1.0010   24.5520 C   0  0  0  0  0  0  0  0  0  0  0  0
   12.5132   -0.1282   24.8889 C   0  0  0  0  0  0  0  0  0  0  0  0
   13.6835   -0.8539   24.8531 C   0  0  0  0  0  0  0  0  0  0  0  0
   12.6768   -0.6142   22.6218 C   0  0  0  0  0  0  0  0  0  0  0  0
   11.9299    0.0106   23.5964 C   0  0  0  0  0  0  0  0  0  0  0  0
    8.3450   -3.3440   25.0980 C   0  0  0  0  0  0  0  0  0  0  0  0
    9.1280   -1.2090   23.4870 C   0  0  0  0  0  0  0  0  0  0  0  0
    6.1460    0.6070   19.9750 C   0  0  0  0  0  0  0  0  0  0  0  0
    7.2710   -0.1460   19.8310 C   0  0  0  0  0  0  0  0  0  0  0  0
    5.3890    1.0010   21.0690 C   0  0  0  0  0  0  0  0  0  0  0  0
    4.2460    1.7520   20.8250 C   0  0  0  0  0  0  0  0  0  0  0  0
    3.8860    2.1050   19.5250 C   0  0  0  0  0  0  0  0  0  0  0  0
    4.6610    1.7170   18.4380 C   0  0  0  0  0  0  0  0  0  0  0  0
    9.0430    0.2380   21.4940 C   0  0  0  0  0  0  0  0  0  0  0  0
    8.9524   -5.2012   26.6600 C   0  0  0  0  0  0  0  0  0  0  0  0
    6.6112   -4.5068   26.4379 C   0  0  0  0  0  0  0  0  0  0  0  0
    8.9037   -4.7845   28.1261 C   0  0  0  0  0  0  0  0  0  0  0  0
    6.6374   -4.1243   27.9184 C   0  0  0  0  0  0  0  0  0  0  0  0
   10.6518    0.7520   23.3299 C   0  0  0  0  0  0  0  0  0  0  0  0
    8.0950   -0.7700   20.8440 C   0  0  0  0  0  0  0  0  0  0  0  0
    7.5840   -0.2700   18.5160 N   0  0  0  0  0  0  0  0  0  0  0  0
    6.7100    0.3850   17.8100 N   0  0  0  0  0  0  0  0  0  0  0  0
    5.7970    0.9500   18.6730 N   0  0  0  0  0  0  0  0  0  0  0  0
    7.9775   -4.4014   25.9151 N   0  0  0  0  0  0  0  0  0  0  0  0
    9.5820   -0.1080   22.7000 N   0  0  0  0  0  0  0  0  0  0  0  0
    9.2950    1.3000   20.9480 O   0  0  0  0  0  0  0  0  0  0  0  0
    7.5729   -4.9391   28.6338 O   0  0  0  0  0  0  0  0  0  0  0  0
   14.0748   -1.3644   23.2661 S   0  0  0  0  0  0  0  0  0  0  0  0
    9.5426   -4.5618   23.7797 H   0  0  0  0  0  0  0  0  0  0  0  0
    7.1914   -1.8824   26.1903 H   0  0  0  0  0  0  0  0  0  0  0  0
   10.2669   -2.6745   22.3854 H   0  0  0  0  0  0  0  0  0  0  0  0
    7.8690   -0.0020   24.7587 H   0  0  0  0  0  0  0  0  0  0  0  0
   12.0991    0.2822   25.8012 H   0  0  0  0  0  0  0  0  0  0  0  0
   14.3279   -1.1082   25.6828 H   0  0  0  0  0  0  0  0  0  0  0  0
   12.4727   -0.6673   21.5614 H   0  0  0  0  0  0  0  0  0  0  0  0
    5.6533    0.7494   22.0767 H   0  0  0  0  0  0  0  0  0  0  0  0
    3.6389    2.0586   21.6677 H   0  0  0  0  0  0  0  0  0  0  0  0
    2.9824    2.6968   19.3331 H   0  0  0  0  0  0  0  0  0  0  0  0
    4.4115    1.9887   17.4356 H   0  0  0  0  0  0  0  0  0  0  0  0
    9.9615   -5.0500   26.2711 H   0  0  0  0  0  0  0  0  0  0  0  0
    8.6935   -6.2597   26.5720 H   0  0  0  0  0  0  0  0  0  0  0  0
    6.2628   -5.5350   26.3330 H   0  0  0  0  0  0  0  0  0  0  0  0
    5.9347   -3.8423   25.9023 H   0  0  0  0  0  0  0  0  0  0  0  0
    9.5597   -5.4275   28.7166 H   0  0  0  0  0  0  0  0  0  0  0  0
    9.2344   -3.7511   28.2636 H   0  0  0  0  0  0  0  0  0  0  0  0
    6.8874   -3.0657   28.0553 H   0  0  0  0  0  0  0  0  0  0  0  0
    5.6495   -4.2893   28.3591 H   0  0  0  0  0  0  0  0  0  0  0  0
   10.2425    1.1625   24.2595 H   0  0  0  0  0  0  0  0  0  0  0  0
   10.8201    1.5933   22.6493 H   0  0  0  0  0  0  0  0  0  0  0  0
    7.4659   -1.2025   21.6292 H   0  0  0  0  0  0  0  0  0  0  0  0
    8.6969   -1.5747   20.4087 H   0  0  0  0  0  0  0  0  0  0  0  0
  1  3  2  0  0  0  0
  1  9  1  0  0  0  0
  2  4  1  0  0  0  0
  2  9  2  0  0  0  0
  3 10  1  0  0  0  0
  4 10  2  0  0  0  0
  5  6  2  0  0  0  0
  5  8  1  0  0  0  0
  6 31  1  0  0  0  0
  7  8  2  0  0  0  0
  7 31  1  0  0  0  0
  8 22  1  0  0  0  0
  9 27  1  0  0  0  0
 10 28  1  0  0  0  0
 11 12  2  0  0  0  0
 11 13  1  0  0  0  0
 11 26  1  0  0  0  0
 12 23  1  0  0  0  0
 12 24  1  0  0  0  0
 13 14  2  0  0  0  0
 14 15  1  0  0  0  0
 15 16  2  0  0  0  0
 16 26  1  0  0  0  0
 17 23  1  0  0  0  0
 17 28  1  0  0  0  0
 17 29  2  0  0  0  0
 18 20  1  0  0  0  0
 18 27  1  0  0  0  0
 19 21  1  0  0  0  0
 19 27  1  0  0  0  0
 20 30  1  0  0  0  0
 21 30  1  0  0  0  0
 22 28  1  0  0  0  0
 24 25  2  0  0  0  0
 25 26  1  0  0  0  0
  1 32  1  0  0  0  0
  2 33  1  0  0  0  0
  3 34  1  0  0  0  0
  4 35  1  0  0  0  0
  5 36  1  0  0  0  0
  6 37  1  0  0  0  0
  7 38  1  0  0  0  0
 13 39  1  0  0  0  0
 14 40  1  0  0  0  0
 15 41  1  0  0  0  0
 16 42  1  0  0  0  0
 18 43  1  0  0  0  0
 18 44  1  0  0  0  0
 19 45  1  0  0  0  0
 19 46  1  0  0  0  0
 20 47  1  0  0  0  0
 20 48  1  0  0  0  0
 21 49  1  0  0  0  0
 21 50  1  0  0  0  0
 22 51  1  0  0  0  0
 22 52  1  0  0  0  0
 23 53  1  0  0  0  0
 23 54  1  0  0  0  0
M  END
> <clash_score>
0

> <docking_score>
-9.530486106872559

> <overlap_score>
0.9677200317382812

$$$$
BENZO_446_1
  -OEChem-08232013553D

 57 61  0     0  0  0  0  0  0999 V2000
   13.6147   -0.7640   25.1449 C   0  0  0  0  0  0  0  0  0  0  0  0
   12.4280   -0.0744   24.8965 C   0  0  0  0  0  0  0  0  0  0  0  0
    9.1890   -3.5540   24.0140 C   0  0  0  0  0  0  0  0  0  0  0  0
    7.8700   -2.0610   25.3550 C   0  0  0  0  0  0  0  0  0  0  0  0
    9.5890   -2.4950   23.2210 C   0  0  0  0  0  0  0  0  0  0  0  0
    8.2550   -1.0010   24.5520 C   0  0  0  0  0  0  0  0  0  0  0  0
   14.3034   -1.3685   24.0932 C   0  0  0  0  0  0  0  0  0  0  0  0
   12.6185   -0.5939   22.5446 C   0  0  0  0  0  0  0  0  0  0  0  0
   11.9299    0.0106   23.5964 C   0  0  0  0  0  0  0  0  0  0  0  0
    8.3450   -3.3440   25.0980 C   0  0  0  0  0  0  0  0  0  0  0  0
    9.1280   -1.2090   23.4870 C   0  0  0  0  0  0  0  0  0  0  0  0
   13.8053   -1.2834   22.7931 C   0  0  0  0  0  0  0  0  0  0  0  0
    6.1460    0.6070   19.9750 C   0  0  0  0  0  0  0  0  0  0  0  0
    7.2710   -0.1460   19.8310 C   0  0  0  0  0  0  0  0  0  0  0  0
    5.3890    1.0010   21.0690 C   0  0  0  0  0  0  0  0  0  0  0  0
    4.2460    1.7520   20.8250 C   0  0  0  0  0  0  0  0  0  0  0  0
    3.8860    2.1050   19.5250 C   0  0  0  0  0  0  0  0  0  0  0  0
    4.6610    1.7170   18.4380 C   0  0  0  0  0  0  0  0  0  0  0  0
    9.0430    0.2380   21.4940 C   0  0  0  0  0  0  0  0  0  0  0  0
    8.9524   -5.2012   26.6600 C   0  0  0  0  0  0  0  0  0  0  0  0
    6.6112   -4.5068   26.4379 C   0  0  0  0  0  0  0  0  0  0  0  0
    8.9037   -4.7845   28.1261 C   0  0  0  0  0  0  0  0  0  0  0  0
    6.6374   -4.1243   27.9184 C   0  0  0  0  0  0  0  0  0  0  0  0
   10.6518    0.7520   23.3299 C   0  0  0  0  0  0  0  0  0  0  0  0
    8.0950   -0.7700   20.8440 C   0  0  0  0  0  0  0  0  0  0  0  0
    7.5840   -0.2700   18.5160 N   0  0  0  0  0  0  0  0  0  0  0  0
    6.7100    0.3850   17.8100 N   0  0  0  0  0  0  0  0  0  0  0  0
    5.7970    0.9500   18.6730 N   0  0  0  0  0  0  0  0  0  0  0  0
    7.9775   -4.4014   25.9151 N   0  0  0  0  0  0  0  0  0  0  0  0
    9.5820   -0.1080   22.7000 N   0  0  0  0  0  0  0  0  0  0  0  0
    9.2950    1.3000   20.9480 O   0  0  0  0  0  0  0  0  0  0  0  0
    7.5729   -4.9391   28.6338 O   0  0  0  0  0  0  0  0  0  0  0  0
   14.6548   -2.0304   21.4961 Cl  0  0  0  0  0  0  0  0  0  0  0  0
   14.0022   -0.8302   26.1575 H   0  0  0  0  0  0  0  0  0  0  0  0
   11.8980    0.3934   25.7220 H   0  0  0  0  0  0  0  0  0  0  0  0
    9.5426   -4.5618   23.7797 H   0  0  0  0  0  0  0  0  0  0  0  0
    7.1914   -1.8824   26.1903 H   0  0  0  0  0  0  0  0  0  0  0  0
   10.2669   -2.6745   22.3854 H   0  0  0  0  0  0  0  0  0  0  0  0
    7.8690   -0.0020   24.7587 H   0  0  0  0  0  0  0  0  0  0  0  0
   15.2270   -1.9030   24.3017 H   0  0  0  0  0  0  0  0  0  0  0  0
   12.2263   -0.5242   21.5327 H   0  0  0  0  0  0  0  0  0  0  0  0
    5.6533    0.7494   22.0767 H   0  0  0  0  0  0  0  0  0  0  0  0
    3.6389    2.0586   21.6677 H   0  0  0  0  0  0  0  0  0  0  0  0
    2.9824    2.6968   19.3331 H   0  0  0  0  0  0  0  0  0  0  0  0
    4.4115    1.9887   17.4356 H   0  0  0  0  0  0  0  0  0  0  0  0
    9.9615   -5.0500   26.2711 H   0  0  0  0  0  0  0  0  0  0  0  0
    8.6935   -6.2597   26.5720 H   0  0  0  0  0  0  0  0  0  0  0  0
    6.2628   -5.5350   26.3330 H   0  0  0  0  0  0  0  0  0  0  0  0
    5.9347   -3.8423   25.9023 H   0  0  0  0  0  0  0  0  0  0  0  0
    9.5597   -5.4275   28.7166 H   0  0  0  0  0  0  0  0  0  0  0  0
    9.2344   -3.7511   28.2636 H   0  0  0  0  0  0  0  0  0  0  0  0
    6.8874   -3.0657   28.0553 H   0  0  0  0  0  0  0  0  0  0  0  0
    5.6495   -4.2893   28.3591 H   0  0  0  0  0  0  0  0  0  0  0  0
   10.2425    1.1625   24.2595 H   0  0  0  0  0  0  0  0  0  0  0  0
   10.8201    1.5933   22.6493 H   0  0  0  0  0  0  0  0  0  0  0  0
    7.4659   -1.2025   21.6292 H   0  0  0  0  0  0  0  0  0  0  0  0
    8.6969   -1.5747   20.4087 H   0  0  0  0  0  0  0  0  0  0  0  0
  1  2  2  0  0  0  0
  1  7  1  0  0  0  0
  2  9  1  0  0  0  0
  3  5  2  0  0  0  0
  3 10  1  0  0  0  0
  4  6  1  0  0  0  0
  4 10  2  0  0  0  0
  5 11  1  0  0  0  0
  6 11  2  0  0  0  0
  7 12  2  0  0  0  0
  8  9  2  0  0  0  0
  8 12  1  0  0  0  0
  9 24  1  0  0  0  0
 10 29  1  0  0  0  0
 11 30  1  0  0  0  0
 12 33  1  0  0  0  0
 13 14  2  0  0  0  0
 13 15  1  0  0  0  0
 13 28  1  0  0  0  0
 14 25  1  0  0  0  0
 14 26  1  0  0  0  0
 15 16  2  0  0  0  0
 16 17  1  0  0  0  0
 17 18  2  0  0  0  0
 18 28  1  0  0  0  0
 19 25  1  0  0  0  0
 19 30  1  0  0  0  0
 19 31  2  0  0  0  0
 20 22  1  0  0  0  0
 20 29  1  0  0  0  0
 21 23  1  0  0  0  0
 21 29  1  0  0  0  0
 22 32  1  0  0  0  0
 23 32  1  0  0  0  0
 24 30  1  0  0  0  0
 26 27  2  0  0  0  0
 27 28  1  0  0  0  0
  1 34  1  0  0  0  0
  2 35  1  0  0  0  0
  3 36  1  0  0  0  0
  4 37  1  0  0  0  0
  5 38  1  0  0  0  0
  6 39  1  0  0  0  0
  7 40  1  0  0  0  0
  8 41  1  0  0  0  0
 15 42  1  0  0  0  0
 16 43  1  0  0  0  0
 17 44  1  0  0  0  0
 18 45  1  0  0  0  0
 20 46  1  0  0  0  0
 20 47  1  0  0  0  0
 21 48  1  0  0  0  0
 21 49  1  0  0  0  0
 22 50  1  0  0  0  0
 22 51  1  0  0  0  0
 23 52  1  0  0  0  0
 23 53  1  0  0  0  0
 24 54  1  0  0  0  0
 24 55  1  0  0  0  0
 25 56  1  0  0  0  0
 25 57  1  0  0  0  0
M  END
> <clash_score>
0

> <docking_score>
-8.957829475402832

> <overlap_score>
0.992435872554779

$$$$
BENZO_449_1
  -OEChem-08232013553D

 54 57  0     0  0  0  0  0  0999 V2000
   14.2801   -1.6740   23.7490 C   0  0  0  0  0  0  0  0  0  0  0  0
    4.2460    1.7520   20.8250 C   0  0  0  0  0  0  0  0  0  0  0  0
   14.0336   -0.6087   24.6149 C   0  0  0  0  0  0  0  0  0  0  0  0
   13.3739   -1.9691   22.7304 C   0  0  0  0  0  0  0  0  0  0  0  0
    3.8860    2.1050   19.5250 C   0  0  0  0  0  0  0  0  0  0  0  0
    5.3890    1.0010   21.0690 C   0  0  0  0  0  0  0  0  0  0  0  0
   12.8807    0.1616   24.4624 C   0  0  0  0  0  0  0  0  0  0  0  0
   12.2211   -1.1988   22.5779 C   0  0  0  0  0  0  0  0  0  0  0  0
    4.6610    1.7170   18.4380 C   0  0  0  0  0  0  0  0  0  0  0  0
    9.5890   -2.4950   23.2210 C   0  0  0  0  0  0  0  0  0  0  0  0
    8.2550   -1.0010   24.5520 C   0  0  0  0  0  0  0  0  0  0  0  0
    9.1890   -3.5540   24.0140 C   0  0  0  0  0  0  0  0  0  0  0  0
    7.8700   -2.0610   25.3550 C   0  0  0  0  0  0  0  0  0  0  0  0
    7.5840   -0.2700   18.5160 C   0  0  0  0  0  0  0  0  0  0  0  0
    6.1460    0.6070   19.9750 C   0  0  0  0  0  0  0  0  0  0  0  0
   11.9744   -0.1335   23.4439 C   0  0  0  0  0  0  0  0  0  0  0  0
    7.2710   -0.1460   19.8310 C   0  0  0  0  0  0  0  0  0  0  0  0
    5.7970    0.9500   18.6730 C   0  0  0  0  0  0  0  0  0  0  0  0
    9.1280   -1.2090   23.4870 C   0  0  0  0  0  0  0  0  0  0  0  0
    8.3450   -3.3440   25.0980 C   0  0  0  0  0  0  0  0  0  0  0  0
    9.0430    0.2380   21.4940 C   0  0  0  0  0  0  0  0  0  0  0  0
    7.2639   -5.5574   25.3805 C   0  0  0  0  0  0  0  0  0  0  0  0
    8.3060   -4.4047   27.3385 C   0  0  0  0  0  0  0  0  0  0  0  0
    8.0950   -0.7700   20.8440 C   0  0  0  0  0  0  0  0  0  0  0  0
   10.7332    0.6950   23.2793 C   0  0  0  0  0  0  0  0  0  0  0  0
    6.7100    0.3850   17.8100 N   0  0  0  0  0  0  0  0  0  0  0  0
    9.5820   -0.1080   22.7000 N   0  0  0  0  0  0  0  0  0  0  0  0
    7.9731   -4.4180   25.9279 N   0  0  0  0  0  0  0  0  0  0  0  0
    9.2950    1.3000   20.9480 O   0  0  0  0  0  0  0  0  0  0  0  0
   15.1785   -2.2728   23.8671 H   0  0  0  0  0  0  0  0  0  0  0  0
    3.6210    2.0713   21.6574 H   0  0  0  0  0  0  0  0  0  0  0  0
   14.7396   -0.3781   25.4074 H   0  0  0  0  0  0  0  0  0  0  0  0
   13.5661   -2.7977   22.0554 H   0  0  0  0  0  0  0  0  0  0  0  0
    2.9855    2.6924   19.3616 H   0  0  0  0  0  0  0  0  0  0  0  0
    5.6668    0.7411   22.0808 H   0  0  0  0  0  0  0  0  0  0  0  0
   12.6967    0.9896   25.1419 H   0  0  0  0  0  0  0  0  0  0  0  0
   11.5206   -1.4362   21.7816 H   0  0  0  0  0  0  0  0  0  0  0  0
    4.3788    2.0100   17.4223 H   0  0  0  0  0  0  0  0  0  0  0  0
   10.2682   -2.6746   22.3864 H   0  0  0  0  0  0  0  0  0  0  0  0
    7.8692   -0.0022   24.7600 H   0  0  0  0  0  0  0  0  0  0  0  0
    9.5433   -4.5619   23.7809 H   0  0  0  0  0  0  0  0  0  0  0  0
    7.1923   -1.8829   26.1908 H   0  0  0  0  0  0  0  0  0  0  0  0
    8.4186   -0.8125   18.0399 H   0  0  0  0  0  0  0  0  0  0  0  0
    7.0639   -6.2847   26.1812 H   0  0  0  0  0  0  0  0  0  0  0  0
    6.3116   -5.2213   24.9443 H   0  0  0  0  0  0  0  0  0  0  0  0
    7.8778   -6.0308   24.6002 H   0  0  0  0  0  0  0  0  0  0  0  0
    7.9323   -5.3242   27.8127 H   0  0  0  0  0  0  0  0  0  0  0  0
    9.3983   -4.3492   27.4568 H   0  0  0  0  0  0  0  0  0  0  0  0
    7.8405   -3.5303   27.8168 H   0  0  0  0  0  0  0  0  0  0  0  0
    7.4761   -1.2062   21.6405 H   0  0  0  0  0  0  0  0  0  0  0  0
    8.7071   -1.5784   20.4200 H   0  0  0  0  0  0  0  0  0  0  0  0
   10.4108    1.1033   24.2434 H   0  0  0  0  0  0  0  0  0  0  0  0
   10.9128    1.5434   22.6105 H   0  0  0  0  0  0  0  0  0  0  0  0
    6.6719    0.4860   16.8043 H   0  0  0  0  0  0  0  0  0  0  0  0
  1  3  1  0  0  0  0
  1  4  2  0  0  0  0
  2  5  1  0  0  0  0
  2  6  2  0  0  0  0
  3  7  2  0  0  0  0
  4  8  1  0  0  0  0
  5  9  2  0  0  0  0
  6 15  1  0  0  0  0
  7 16  1  0  0  0  0
  8 16  2  0  0  0  0
  9 18  1  0  0  0  0
 10 12  2  0  0  0  0
 10 19  1  0  0  0  0
 11 13  1  0  0  0  0
 11 19  2  0  0  0  0
 12 20  1  0  0  0  0
 13 20  2  0  0  0  0
 14 17  2  0  0  0  0
 14 26  1  0  0  0  0
 15 17  1  0  0  0  0
 15 18  2  0  0  0  0
 16 25  1  0  0  0  0
 17 24  1  0  0  0  0
 18 26  1  0  0  0  0
 19 27  1  0  0  0  0
 20 28  1  0  0  0  0
 21 24  1  0  0  0  0
 21 27  1  0  0  0  0
 21 29  2  0  0  0  0
 22 28  1  0  0  0  0
 23 28  1  0  0  0  0
 25 27  1  0  0  0  0
  1 30  1  0  0  0  0
  2 31  1  0  0  0  0
  3 32  1  0  0  0  0
  4 33  1  0  0  0  0
  5 34  1  0  0  0  0
  6 35  1  0  0  0  0
  7 36  1  0  0  0  0
  8 37  1  0  0  0  0
  9 38  1  0  0  0  0
 10 39  1  0  0  0  0
 11 40  1  0  0  0  0
 12 41  1  0  0  0  0
 13 42  1  0  0  0  0
 14 43  1  0  0  0  0
 22 44  1  0  0  0  0
 22 45  1  0  0  0  0
 22 46  1  0  0  0  0
 23 47  1  0  0  0  0
 23 48  1  0  0  0  0
 23 49  1  0  0  0  0
 24 50  1  0  0  0  0
 24 51  1  0  0  0  0
 25 52  1  0  0  0  0
 25 53  1  0  0  0  0
 26 54  1  0  0  0  0
M  END
> <clash_score>
0

> <docking_score>
-9.392394065856934

> <overlap_score>
0.9426506757736206

$$$$
BENZO_447_1
  -OEChem-08232013553D

 57 61  0     0  0  0  0  0  0999 V2000
    9.1890   -3.5540   24.0140 C   0  0  0  0  0  0  0  0  0  0  0  0
    7.8700   -2.0610   25.3550 C   0  0  0  0  0  0  0  0  0  0  0  0
    9.5890   -2.4950   23.2210 C   0  0  0  0  0  0  0  0  0  0  0  0
    8.2550   -1.0010   24.5520 C   0  0  0  0  0  0  0  0  0  0  0  0
   13.2467    0.9035   23.0594 C   0  0  0  0  0  0  0  0  0  0  0  0
   12.4045   -1.1274   23.0912 C   0  0  0  0  0  0  0  0  0  0  0  0
   12.0359    0.1935   23.1667 C   0  0  0  0  0  0  0  0  0  0  0  0
    8.3450   -3.3440   25.0980 C   0  0  0  0  0  0  0  0  0  0  0  0
    9.1280   -1.2090   23.4870 C   0  0  0  0  0  0  0  0  0  0  0  0
    6.1460    0.6070   19.9750 C   0  0  0  0  0  0  0  0  0  0  0  0
    7.2710   -0.1460   19.8310 C   0  0  0  0  0  0  0  0  0  0  0  0
    5.3890    1.0010   21.0690 C   0  0  0  0  0  0  0  0  0  0  0  0
    4.2460    1.7520   20.8250 C   0  0  0  0  0  0  0  0  0  0  0  0
    3.8860    2.1050   19.5250 C   0  0  0  0  0  0  0  0  0  0  0  0
    4.6610    1.7170   18.4380 C   0  0  0  0  0  0  0  0  0  0  0  0
    9.0430    0.2380   21.4940 C   0  0  0  0  0  0  0  0  0  0  0  0
    8.9524   -5.2012   26.6600 C   0  0  0  0  0  0  0  0  0  0  0  0
    6.6112   -4.5068   26.4379 C   0  0  0  0  0  0  0  0  0  0  0  0
    8.9037   -4.7845   28.1261 C   0  0  0  0  0  0  0  0  0  0  0  0
    6.6374   -4.1243   27.9184 C   0  0  0  0  0  0  0  0  0  0  0  0
   14.6083   -2.2904   22.8282 C   0  0  0  0  0  0  0  0  0  0  0  0
   10.6518    0.7520   23.3299 C   0  0  0  0  0  0  0  0  0  0  0  0
    8.0950   -0.7700   20.8440 C   0  0  0  0  0  0  0  0  0  0  0  0
   14.3054    0.1001   22.9261 N   0  0  0  0  0  0  0  0  0  0  0  0
    7.5840   -0.2700   18.5160 N   0  0  0  0  0  0  0  0  0  0  0  0
    6.7100    0.3850   17.8100 N   0  0  0  0  0  0  0  0  0  0  0  0
   13.7609   -1.1284   22.9492 N   0  0  0  0  0  0  0  0  0  0  0  0
    5.7970    0.9500   18.6730 N   0  0  0  0  0  0  0  0  0  0  0  0
    7.9775   -4.4014   25.9151 N   0  0  0  0  0  0  0  0  0  0  0  0
    9.5820   -0.1080   22.7000 N   0  0  0  0  0  0  0  0  0  0  0  0
    9.2950    1.3000   20.9480 O   0  0  0  0  0  0  0  0  0  0  0  0
    7.5729   -4.9391   28.6338 O   0  0  0  0  0  0  0  0  0  0  0  0
    9.5426   -4.5618   23.7797 H   0  0  0  0  0  0  0  0  0  0  0  0
    7.1914   -1.8824   26.1903 H   0  0  0  0  0  0  0  0  0  0  0  0
   10.2669   -2.6745   22.3854 H   0  0  0  0  0  0  0  0  0  0  0  0
    7.8690   -0.0020   24.7587 H   0  0  0  0  0  0  0  0  0  0  0  0
   13.4045    1.9726   23.0734 H   0  0  0  0  0  0  0  0  0  0  0  0
   11.8315   -2.0441   23.1269 H   0  0  0  0  0  0  0  0  0  0  0  0
    5.6533    0.7494   22.0767 H   0  0  0  0  0  0  0  0  0  0  0  0
    3.6389    2.0586   21.6677 H   0  0  0  0  0  0  0  0  0  0  0  0
    2.9824    2.6968   19.3331 H   0  0  0  0  0  0  0  0  0  0  0  0
    4.4115    1.9887   17.4356 H   0  0  0  0  0  0  0  0  0  0  0  0
    9.9615   -5.0500   26.2711 H   0  0  0  0  0  0  0  0  0  0  0  0
    8.6935   -6.2597   26.5720 H   0  0  0  0  0  0  0  0  0  0  0  0
    6.2628   -5.5350   26.3330 H   0  0  0  0  0  0  0  0  0  0  0  0
    5.9347   -3.8423   25.9023 H   0  0  0  0  0  0  0  0  0  0  0  0
    9.5597   -5.4275   28.7166 H   0  0  0  0  0  0  0  0  0  0  0  0
    9.2344   -3.7511   28.2636 H   0  0  0  0  0  0  0  0  0  0  0  0
    6.8874   -3.0657   28.0553 H   0  0  0  0  0  0  0  0  0  0  0  0
    5.6495   -4.2893   28.3591 H   0  0  0  0  0  0  0  0  0  0  0  0
   14.6982   -2.5331   21.7661 H   0  0  0  0  0  0  0  0  0  0  0  0
   15.5910   -2.0704   23.2545 H   0  0  0  0  0  0  0  0  0  0  0  0
   14.1591   -3.1239   23.3753 H   0  0  0  0  0  0  0  0  0  0  0  0
   10.4039    0.8655   24.3909 H   0  0  0  0  0  0  0  0  0  0  0  0
   10.5708    1.7422   22.8693 H   0  0  0  0  0  0  0  0  0  0  0  0
    7.4659   -1.2025   21.6292 H   0  0  0  0  0  0  0  0  0  0  0  0
    8.6969   -1.5747   20.4087 H   0  0  0  0  0  0  0  0  0  0  0  0
  1  3  2  0  0  0  0
  1  8  1  0  0  0  0
  2  4  1  0  0  0  0
  2  8  2  0  0  0  0
  3  9  1  0  0  0  0
  4  9  2  0  0  0  0
  5  7  1  0  0  0  0
  5 24  2  0  0  0  0
  6  7  2  0  0  0  0
  6 27  1  0  0  0  0
  7 22  1  0  0  0  0
  8 29  1  0  0  0  0
  9 30  1  0  0  0  0
 10 11  2  0  0  0  0
 10 12  1  0  0  0  0
 10 28  1  0  0  0  0
 11 23  1  0  0  0  0
 11 25  1  0  0  0  0
 12 13  2  0  0  0  0
 13 14  1  0  0  0  0
 14 15  2  0  0  0  0
 15 28  1  0  0  0  0
 16 23  1  0  0  0  0
 16 30  1  0  0  0  0
 16 31  2  0  0  0  0
 17 19  1  0  0  0  0
 17 29  1  0  0  0  0
 18 20  1  0  0  0  0
 18 29  1  0  0  0  0
 19 32  1  0  0  0  0
 20 32  1  0  0  0  0
 21 27  1  0  0  0  0
 22 30  1  0  0  0  0
 24 27  1  0  0  0  0
 25 26  2  0  0  0  0
 26 28  1  0  0  0  0
  1 33  1  0  0  0  0
  2 34  1  0  0  0  0
  3 35  1  0  0  0  0
  4 36  1  0  0  0  0
  5 37  1  0  0  0  0
  6 38  1  0  0  0  0
 12 39  1  0  0  0  0
 13 40  1  0  0  0  0
 14 41  1  0  0  0  0
 15 42  1  0  0  0  0
 17 43  1  0  0  0  0
 17 44  1  0  0  0  0
 18 45  1  0  0  0  0
 18 46  1  0  0  0  0
 19 47  1  0  0  0  0
 19 48  1  0  0  0  0
 20 49  1  0  0  0  0
 20 50  1  0  0  0  0
 21 51  1  0  0  0  0
 21 52  1  0  0  0  0
 21 53  1  0  0  0  0
 22 54  1  0  0  0  0
 22 55  1  0  0  0  0
 23 56  1  0  0  0  0
 23 57  1  0  0  0  0
M  END
> <clash_score>
0

> <docking_score>
-10.636567115783691

> <overlap_score>
0.969912052154541

$$$$
BENZO_448_1
  -OEChem-08232013553D

 51 54  0     0  0  0  0  0  0999 V2000
    4.2460    1.7520   20.8250 C   0  0  0  0  0  0  0  0  0  0  0  0
    3.8860    2.1050   19.5250 C   0  0  0  0  0  0  0  0  0  0  0  0
    5.3890    1.0010   21.0690 C   0  0  0  0  0  0  0  0  0  0  0  0
    4.6610    1.7170   18.4380 C   0  0  0  0  0  0  0  0  0  0  0  0
    9.5890   -2.4950   23.2210 C   0  0  0  0  0  0  0  0  0  0  0  0
    8.2550   -1.0010   24.5520 C   0  0  0  0  0  0  0  0  0  0  0  0
    9.1890   -3.5540   24.0140 C   0  0  0  0  0  0  0  0  0  0  0  0
    7.8700   -2.0610   25.3550 C   0  0  0  0  0  0  0  0  0  0  0  0
   12.6277   -0.3467   24.6921 C   0  0  0  0  0  0  0  0  0  0  0  0
    7.5840   -0.2700   18.5160 C   0  0  0  0  0  0  0  0  0  0  0  0
   13.7436   -1.1439   24.5625 C   0  0  0  0  0  0  0  0  0  0  0  0
   12.6162   -0.7757   22.4077 C   0  0  0  0  0  0  0  0  0  0  0  0
    6.1460    0.6070   19.9750 C   0  0  0  0  0  0  0  0  0  0  0  0
   11.9744   -0.1335   23.4439 C   0  0  0  0  0  0  0  0  0  0  0  0
    7.2710   -0.1460   19.8310 C   0  0  0  0  0  0  0  0  0  0  0  0
    5.7970    0.9500   18.6730 C   0  0  0  0  0  0  0  0  0  0  0  0
    9.1280   -1.2090   23.4870 C   0  0  0  0  0  0  0  0  0  0  0  0
    8.3450   -3.3440   25.0980 C   0  0  0  0  0  0  0  0  0  0  0  0
    9.0430    0.2380   21.4940 C   0  0  0  0  0  0  0  0  0  0  0  0
    7.2639   -5.5574   25.3805 C   0  0  0  0  0  0  0  0  0  0  0  0
    8.3060   -4.4047   27.3385 C   0  0  0  0  0  0  0  0  0  0  0  0
    8.0950   -0.7700   20.8440 C   0  0  0  0  0  0  0  0  0  0  0  0
   10.7332    0.6950   23.2793 C   0  0  0  0  0  0  0  0  0  0  0  0
    6.7100    0.3850   17.8100 N   0  0  0  0  0  0  0  0  0  0  0  0
    9.5820   -0.1080   22.7000 N   0  0  0  0  0  0  0  0  0  0  0  0
    7.9731   -4.4180   25.9279 N   0  0  0  0  0  0  0  0  0  0  0  0
    9.2950    1.3000   20.9480 O   0  0  0  0  0  0  0  0  0  0  0  0
   14.0000   -1.6317   22.9412 S   0  0  0  0  0  0  0  0  0  0  0  0
    3.6210    2.0713   21.6574 H   0  0  0  0  0  0  0  0  0  0  0  0
    2.9855    2.6924   19.3616 H   0  0  0  0  0  0  0  0  0  0  0  0
    5.6668    0.7411   22.0808 H   0  0  0  0  0  0  0  0  0  0  0  0
    4.3788    2.0100   17.4223 H   0  0  0  0  0  0  0  0  0  0  0  0
   10.2682   -2.6746   22.3864 H   0  0  0  0  0  0  0  0  0  0  0  0
    7.8692   -0.0022   24.7600 H   0  0  0  0  0  0  0  0  0  0  0  0
    9.5433   -4.5619   23.7809 H   0  0  0  0  0  0  0  0  0  0  0  0
    7.1923   -1.8829   26.1908 H   0  0  0  0  0  0  0  0  0  0  0  0
   12.2993    0.0623   25.6393 H   0  0  0  0  0  0  0  0  0  0  0  0
    8.4186   -0.8125   18.0399 H   0  0  0  0  0  0  0  0  0  0  0  0
   14.4209   -1.4627   25.3422 H   0  0  0  0  0  0  0  0  0  0  0  0
   12.3427   -0.7849   21.3617 H   0  0  0  0  0  0  0  0  0  0  0  0
    7.0639   -6.2847   26.1812 H   0  0  0  0  0  0  0  0  0  0  0  0
    6.3116   -5.2213   24.9443 H   0  0  0  0  0  0  0  0  0  0  0  0
    7.8778   -6.0308   24.6002 H   0  0  0  0  0  0  0  0  0  0  0  0
    7.9323   -5.3242   27.8127 H   0  0  0  0  0  0  0  0  0  0  0  0
    9.3983   -4.3492   27.4568 H   0  0  0  0  0  0  0  0  0  0  0  0
    7.8405   -3.5303   27.8168 H   0  0  0  0  0  0  0  0  0  0  0  0
    7.4761   -1.2062   21.6405 H   0  0  0  0  0  0  0  0  0  0  0  0
    8.7071   -1.5784   20.4200 H   0  0  0  0  0  0  0  0  0  0  0  0
   10.4108    1.1033   24.2434 H   0  0  0  0  0  0  0  0  0  0  0  0
   10.9128    1.5434   22.6105 H   0  0  0  0  0  0  0  0  0  0  0  0
    6.6719    0.4860   16.8043 H   0  0  0  0  0  0  0  0  0  0  0  0
  1  2  1  0  0  0  0
  1  3  2  0  0  0  0
  2  4  2  0  0  0  0
  3 13  1  0  0  0  0
  4 16  1  0  0  0  0
  5  7  2  0  0  0  0
  5 17  1  0  0  0  0
  6  8  1  0  0  0  0
  6 17  2  0  0  0  0
  7 18  1  0  0  0  0
  8 18  2  0  0  0  0
  9 11  2  0  0  0  0
  9 14  1  0  0  0  0
 10 15  2  0  0  0  0
 10 24  1  0  0  0  0
 11 28  1  0  0  0  0
 12 14  2  0  0  0  0
 12 28  1  0  0  0  0
 13 15  1  0  0  0  0
 13 16  2  0  0  0  0
 14 23  1  0  0  0  0
 15 22  1  0  0  0  0
 16 24  1  0  0  0  0
 17 25  1  0  0  0  0
 18 26  1  0  0  0  0
 19 22  1  0  0  0  0
 19 25  1  0  0  0  0
 19 27  2  0  0  0  0
 20 26  1  0  0  0  0
 21 26  1  0  0  0  0
 23 25  1  0  0  0  0
  1 29  1  0  0  0  0
  2 30  1  0  0  0  0
  3 31  1  0  0  0  0
  4 32  1  0  0  0  0
  5 33  1  0  0  0  0
  6 34  1  0  0  0  0
  7 35  1  0  0  0  0
  8 36  1  0  0  0  0
  9 37  1  0  0  0  0
 10 38  1  0  0  0  0
 11 39  1  0  0  0  0
 12 40  1  0  0  0  0
 20 41  1  0  0  0  0
 20 42  1  0  0  0  0
 20 43  1  0  0  0  0
 21 44  1  0  0  0  0
 21 45  1  0  0  0  0
 21 46  1  0  0  0  0
 22 47  1  0  0  0  0
 22 48  1  0  0  0  0
 23 49  1  0  0  0  0
 23 50  1  0  0  0  0
 24 51  1  0  0  0  0
M  END
> <clash_score>
0

> <docking_score>
-8.948762893676758

> <overlap_score>
0.9281450510025024

$$$$
BENZO_451_1
  -OEChem-08232013553D

 54 57  0     0  0  0  0  0  0999 V2000
    4.2460    1.7520   20.8250 C   0  0  0  0  0  0  0  0  0  0  0  0
    3.8860    2.1050   19.5250 C   0  0  0  0  0  0  0  0  0  0  0  0
    5.3890    1.0010   21.0690 C   0  0  0  0  0  0  0  0  0  0  0  0
    4.6610    1.7170   18.4380 C   0  0  0  0  0  0  0  0  0  0  0  0
    9.5890   -2.4950   23.2210 C   0  0  0  0  0  0  0  0  0  0  0  0
    8.2550   -1.0010   24.5520 C   0  0  0  0  0  0  0  0  0  0  0  0
    9.1890   -3.5540   24.0140 C   0  0  0  0  0  0  0  0  0  0  0  0
    7.8700   -2.0610   25.3550 C   0  0  0  0  0  0  0  0  0  0  0  0
   13.3021    0.3461   23.6091 C   0  0  0  0  0  0  0  0  0  0  0  0
    7.5840   -0.2700   18.5160 C   0  0  0  0  0  0  0  0  0  0  0  0
   12.3433   -0.9532   22.1166 C   0  0  0  0  0  0  0  0  0  0  0  0
    6.1460    0.6070   19.9750 C   0  0  0  0  0  0  0  0  0  0  0  0
   12.0633    0.0538   23.0076 C   0  0  0  0  0  0  0  0  0  0  0  0
    7.2710   -0.1460   19.8310 C   0  0  0  0  0  0  0  0  0  0  0  0
    5.7970    0.9500   18.6730 C   0  0  0  0  0  0  0  0  0  0  0  0
    9.1280   -1.2090   23.4870 C   0  0  0  0  0  0  0  0  0  0  0  0
    8.3450   -3.3440   25.0980 C   0  0  0  0  0  0  0  0  0  0  0  0
    9.0430    0.2380   21.4940 C   0  0  0  0  0  0  0  0  0  0  0  0
   14.4428   -2.1721   21.4960 C   0  0  0  0  0  0  0  0  0  0  0  0
    7.2639   -5.5574   25.3805 C   0  0  0  0  0  0  0  0  0  0  0  0
    8.3060   -4.4047   27.3385 C   0  0  0  0  0  0  0  0  0  0  0  0
    8.0950   -0.7700   20.8440 C   0  0  0  0  0  0  0  0  0  0  0  0
   10.7332    0.6950   23.2793 C   0  0  0  0  0  0  0  0  0  0  0  0
   14.2952   -0.4139   23.1399 N   0  0  0  0  0  0  0  0  0  0  0  0
    6.7100    0.3850   17.8100 N   0  0  0  0  0  0  0  0  0  0  0  0
   13.6807   -1.1937   22.2342 N   0  0  0  0  0  0  0  0  0  0  0  0
    9.5820   -0.1080   22.7000 N   0  0  0  0  0  0  0  0  0  0  0  0
    7.9731   -4.4180   25.9279 N   0  0  0  0  0  0  0  0  0  0  0  0
    9.2950    1.3000   20.9480 O   0  0  0  0  0  0  0  0  0  0  0  0
    3.6210    2.0713   21.6574 H   0  0  0  0  0  0  0  0  0  0  0  0
    2.9855    2.6924   19.3616 H   0  0  0  0  0  0  0  0  0  0  0  0
    5.6668    0.7411   22.0808 H   0  0  0  0  0  0  0  0  0  0  0  0
    4.3788    2.0100   17.4223 H   0  0  0  0  0  0  0  0  0  0  0  0
   10.2682   -2.6746   22.3864 H   0  0  0  0  0  0  0  0  0  0  0  0
    7.8692   -0.0022   24.7600 H   0  0  0  0  0  0  0  0  0  0  0  0
    9.5433   -4.5619   23.7809 H   0  0  0  0  0  0  0  0  0  0  0  0
    7.1923   -1.8829   26.1908 H   0  0  0  0  0  0  0  0  0  0  0  0
   13.5249    1.0801   24.3706 H   0  0  0  0  0  0  0  0  0  0  0  0
    8.4186   -0.8125   18.0399 H   0  0  0  0  0  0  0  0  0  0  0  0
   11.7202   -1.5063   21.4269 H   0  0  0  0  0  0  0  0  0  0  0  0
   14.8130   -1.6942   20.5852 H   0  0  0  0  0  0  0  0  0  0  0  0
   15.2771   -2.5226   22.1100 H   0  0  0  0  0  0  0  0  0  0  0  0
   13.7987   -3.0207   21.2491 H   0  0  0  0  0  0  0  0  0  0  0  0
    7.0639   -6.2847   26.1812 H   0  0  0  0  0  0  0  0  0  0  0  0
    6.3116   -5.2213   24.9443 H   0  0  0  0  0  0  0  0  0  0  0  0
    7.8778   -6.0308   24.6002 H   0  0  0  0  0  0  0  0  0  0  0  0
    7.9323   -5.3242   27.8127 H   0  0  0  0  0  0  0  0  0  0  0  0
    9.3983   -4.3492   27.4568 H   0  0  0  0  0  0  0  0  0  0  0  0
    7.8405   -3.5303   27.8168 H   0  0  0  0  0  0  0  0  0  0  0  0
    7.4761   -1.2062   21.6405 H   0  0  0  0  0  0  0  0  0  0  0  0
    8.7071   -1.5784   20.4200 H   0  0  0  0  0  0  0  0  0  0  0  0
   10.5669    0.7974   24.3572 H   0  0  0  0  0  0  0  0  0  0  0  0
   10.6854    1.6996   22.8459 H   0  0  0  0  0  0  0  0  0  0  0  0
    6.6719    0.4860   16.8043 H   0  0  0  0  0  0  0  0  0  0  0  0
  1  2  1  0  0  0  0
  1  3  2  0  0  0  0
  2  4  2  0  0  0  0
  3 12  1  0  0  0  0
  4 15  1  0  0  0  0
  5  7  2  0  0  0  0
  5 16  1  0  0  0  0
  6  8  1  0  0  0  0
  6 16  2  0  0  0  0
  7 17  1  0  0  0  0
  8 17  2  0  0  0  0
  9 13  1  0  0  0  0
  9 24  2  0  0  0  0
 10 14  2  0  0  0  0
 10 25  1  0  0  0  0
 11 13  2  0  0  0  0
 11 26  1  0  0  0  0
 12 14  1  0  0  0  0
 12 15  2  0  0  0  0
 13 23  1  0  0  0  0
 14 22  1  0  0  0  0
 15 25  1  0  0  0  0
 16 27  1  0  0  0  0
 17 28  1  0  0  0  0
 18 22  1  0  0  0  0
 18 27  1  0  0  0  0
 18 29  2  0  0  0  0
 19 26  1  0  0  0  0
 20 28  1  0  0  0  0
 21 28  1  0  0  0  0
 23 27  1  0  0  0  0
 24 26  1  0  0  0  0
  1 30  1  0  0  0  0
  2 31  1  0  0  0  0
  3 32  1  0  0  0  0
  4 33  1  0  0  0  0
  5 34  1  0  0  0  0
  6 35  1  0  0  0  0
  7 36  1  0  0  0  0
  8 37  1  0  0  0  0
  9 38  1  0  0  0  0
 10 39  1  0  0  0  0
 11 40  1  0  0  0  0
 19 41  1  0  0  0  0
 19 42  1  0  0  0  0
 19 43  1  0  0  0  0
 20 44  1  0  0  0  0
 20 45  1  0  0  0  0
 20 46  1  0  0  0  0
 21 47  1  0  0  0  0
 21 48  1  0  0  0  0
 21 49  1  0  0  0  0
 22 50  1  0  0  0  0
 22 51  1  0  0  0  0
 23 52  1  0  0  0  0
 23 53  1  0  0  0  0
 25 54  1  0  0  0  0
M  END
> <clash_score>
0

> <docking_score>
-9.217452049255371

> <overlap_score>
0.9296985268592834

$$$$
BENZO_450_1
  -OEChem-08232013553D

 54 57  0     0  0  0  0  0  0999 V2000
    4.2460    1.7520   20.8250 C   0  0  0  0  0  0  0  0  0  0  0  0
    3.8860    2.1050   19.5250 C   0  0  0  0  0  0  0  0  0  0  0  0
   13.6992   -1.0584   24.8603 C   0  0  0  0  0  0  0  0  0  0  0  0
    5.3890    1.0010   21.0690 C   0  0  0  0  0  0  0  0  0  0  0  0
   12.5468   -0.2879   24.7065 C   0  0  0  0  0  0  0  0  0  0  0  0
    4.6610    1.7170   18.4380 C   0  0  0  0  0  0  0  0  0  0  0  0
    9.5890   -2.4950   23.2210 C   0  0  0  0  0  0  0  0  0  0  0  0
    8.2550   -1.0010   24.5520 C   0  0  0  0  0  0  0  0  0  0  0  0
    9.1890   -3.5540   24.0140 C   0  0  0  0  0  0  0  0  0  0  0  0
    7.8700   -2.0610   25.3550 C   0  0  0  0  0  0  0  0  0  0  0  0
   14.2795   -1.6744   23.7515 C   0  0  0  0  0  0  0  0  0  0  0  0
   12.5546   -0.7496   22.3350 C   0  0  0  0  0  0  0  0  0  0  0  0
    7.5840   -0.2700   18.5160 C   0  0  0  0  0  0  0  0  0  0  0  0
    6.1460    0.6070   19.9750 C   0  0  0  0  0  0  0  0  0  0  0  0
   11.9744   -0.1335   23.4439 C   0  0  0  0  0  0  0  0  0  0  0  0
    7.2710   -0.1460   19.8310 C   0  0  0  0  0  0  0  0  0  0  0  0
    5.7970    0.9500   18.6730 C   0  0  0  0  0  0  0  0  0  0  0  0
    9.1280   -1.2090   23.4870 C   0  0  0  0  0  0  0  0  0  0  0  0
    8.3450   -3.3440   25.0980 C   0  0  0  0  0  0  0  0  0  0  0  0
   13.7072   -1.5200   22.4888 C   0  0  0  0  0  0  0  0  0  0  0  0
    9.0430    0.2380   21.4940 C   0  0  0  0  0  0  0  0  0  0  0  0
    7.2639   -5.5574   25.3805 C   0  0  0  0  0  0  0  0  0  0  0  0
    8.3060   -4.4047   27.3385 C   0  0  0  0  0  0  0  0  0  0  0  0
    8.0950   -0.7700   20.8440 C   0  0  0  0  0  0  0  0  0  0  0  0
   10.7332    0.6950   23.2793 C   0  0  0  0  0  0  0  0  0  0  0  0
    6.7100    0.3850   17.8100 N   0  0  0  0  0  0  0  0  0  0  0  0
    9.5820   -0.1080   22.7000 N   0  0  0  0  0  0  0  0  0  0  0  0
    7.9731   -4.4180   25.9279 N   0  0  0  0  0  0  0  0  0  0  0  0
    9.2950    1.3000   20.9480 O   0  0  0  0  0  0  0  0  0  0  0  0
   14.4228   -2.2813   21.1213 Cl  0  0  0  0  0  0  0  0  0  0  0  0
    3.6210    2.0713   21.6574 H   0  0  0  0  0  0  0  0  0  0  0  0
    2.9855    2.6924   19.3616 H   0  0  0  0  0  0  0  0  0  0  0  0
   14.1445   -1.1785   25.8437 H   0  0  0  0  0  0  0  0  0  0  0  0
    5.6668    0.7411   22.0808 H   0  0  0  0  0  0  0  0  0  0  0  0
   12.1014    0.1884   25.5761 H   0  0  0  0  0  0  0  0  0  0  0  0
    4.3788    2.0100   17.4223 H   0  0  0  0  0  0  0  0  0  0  0  0
   10.2682   -2.6746   22.3864 H   0  0  0  0  0  0  0  0  0  0  0  0
    7.8692   -0.0022   24.7600 H   0  0  0  0  0  0  0  0  0  0  0  0
    9.5433   -4.5619   23.7809 H   0  0  0  0  0  0  0  0  0  0  0  0
    7.1923   -1.8829   26.1908 H   0  0  0  0  0  0  0  0  0  0  0  0
   15.1775   -2.2723   23.8863 H   0  0  0  0  0  0  0  0  0  0  0  0
   12.1048   -0.6257   21.3526 H   0  0  0  0  0  0  0  0  0  0  0  0
    8.4186   -0.8125   18.0399 H   0  0  0  0  0  0  0  0  0  0  0  0
    7.0639   -6.2847   26.1812 H   0  0  0  0  0  0  0  0  0  0  0  0
    6.3116   -5.2213   24.9443 H   0  0  0  0  0  0  0  0  0  0  0  0
    7.8778   -6.0308   24.6002 H   0  0  0  0  0  0  0  0  0  0  0  0
    7.9323   -5.3242   27.8127 H   0  0  0  0  0  0  0  0  0  0  0  0
    9.3983   -4.3492   27.4568 H   0  0  0  0  0  0  0  0  0  0  0  0
    7.8405   -3.5303   27.8168 H   0  0  0  0  0  0  0  0  0  0  0  0
    7.4761   -1.2062   21.6405 H   0  0  0  0  0  0  0  0  0  0  0  0
    8.7071   -1.5784   20.4200 H   0  0  0  0  0  0  0  0  0  0  0  0
   10.4108    1.1033   24.2434 H   0  0  0  0  0  0  0  0  0  0  0  0
   10.9128    1.5434   22.6105 H   0  0  0  0  0  0  0  0  0  0  0  0
    6.6719    0.4860   16.8043 H   0  0  0  0  0  0  0  0  0  0  0  0
  1  2  1  0  0  0  0
  1  4  2  0  0  0  0
  2  6  2  0  0  0  0
  3  5  2  0  0  0  0
  3 11  1  0  0  0  0
  4 14  1  0  0  0  0
  5 15  1  0  0  0  0
  6 17  1  0  0  0  0
  7  9  2  0  0  0  0
  7 18  1  0  0  0  0
  8 10  1  0  0  0  0
  8 18  2  0  0  0  0
  9 19  1  0  0  0  0
 10 19  2  0  0  0  0
 11 20  2  0  0  0  0
 12 15  2  0  0  0  0
 12 20  1  0  0  0  0
 13 16  2  0  0  0  0
 13 26  1  0  0  0  0
 14 16  1  0  0  0  0
 14 17  2  0  0  0  0
 15 25  1  0  0  0  0
 16 24  1  0  0  0  0
 17 26  1  0  0  0  0
 18 27  1  0  0  0  0
 19 28  1  0  0  0  0
 20 30  1  0  0  0  0
 21 24  1  0  0  0  0
 21 27  1  0  0  0  0
 21 29  2  0  0  0  0
 22 28  1  0  0  0  0
 23 28  1  0  0  0  0
 25 27  1  0  0  0  0
  1 31  1  0  0  0  0
  2 32  1  0  0  0  0
  3 33  1  0  0  0  0
  4 34  1  0  0  0  0
  5 35  1  0  0  0  0
  6 36  1  0  0  0  0
  7 37  1  0  0  0  0
  8 38  1  0  0  0  0
  9 39  1  0  0  0  0
 10 40  1  0  0  0  0
 11 41  1  0  0  0  0
 12 42  1  0  0  0  0
 13 43  1  0  0  0  0
 22 44  1  0  0  0  0
 22 45  1  0  0  0  0
 22 46  1  0  0  0  0
 23 47  1  0  0  0  0
 23 48  1  0  0  0  0
 23 49  1  0  0  0  0
 24 50  1  0  0  0  0
 24 51  1  0  0  0  0
 25 52  1  0  0  0  0
 25 53  1  0  0  0  0
 26 54  1  0  0  0  0
M  END
> <clash_score>
0

> <docking_score>
-8.421680450439453

> <overlap_score>
0.9510812759399414

$$$$
BENZO_453_1
  -OEChem-08232013553D

 56 59  0     0  0  0  0  0  0999 V2000
   14.2801   -1.6740   23.7490 C   0  0  0  0  0  0  0  0  0  0  0  0
    4.2460    1.7520   20.8250 C   0  0  0  0  0  0  0  0  0  0  0  0
   14.0336   -0.6087   24.6149 C   0  0  0  0  0  0  0  0  0  0  0  0
   13.3739   -1.9691   22.7304 C   0  0  0  0  0  0  0  0  0  0  0  0
    3.8860    2.1050   19.5250 C   0  0  0  0  0  0  0  0  0  0  0  0
    5.3890    1.0010   21.0690 C   0  0  0  0  0  0  0  0  0  0  0  0
   12.8807    0.1616   24.4624 C   0  0  0  0  0  0  0  0  0  0  0  0
   12.2211   -1.1988   22.5779 C   0  0  0  0  0  0  0  0  0  0  0  0
    4.6610    1.7170   18.4380 C   0  0  0  0  0  0  0  0  0  0  0  0
    9.1890   -3.5540   24.0140 C   0  0  0  0  0  0  0  0  0  0  0  0
    7.8700   -2.0610   25.3550 C   0  0  0  0  0  0  0  0  0  0  0  0
    9.5890   -2.4950   23.2210 C   0  0  0  0  0  0  0  0  0  0  0  0
    8.2550   -1.0010   24.5520 C   0  0  0  0  0  0  0  0  0  0  0  0
    7.5840   -0.2700   18.5160 C   0  0  0  0  0  0  0  0  0  0  0  0
    6.1460    0.6070   19.9750 C   0  0  0  0  0  0  0  0  0  0  0  0
   11.9744   -0.1335   23.4439 C   0  0  0  0  0  0  0  0  0  0  0  0
    7.2710   -0.1460   19.8310 C   0  0  0  0  0  0  0  0  0  0  0  0
    5.7970    0.9500   18.6730 C   0  0  0  0  0  0  0  0  0  0  0  0
    8.3450   -3.3440   25.0980 C   0  0  0  0  0  0  0  0  0  0  0  0
    9.1280   -1.2090   23.4870 C   0  0  0  0  0  0  0  0  0  0  0  0
    9.0430    0.2380   21.4940 C   0  0  0  0  0  0  0  0  0  0  0  0
    7.6596   -4.3770   27.2873 C   0  0  0  0  0  0  0  0  0  0  0  0
    8.4367   -6.7652   27.6015 C   0  0  0  0  0  0  0  0  0  0  0  0
    8.0950   -0.7700   20.8440 C   0  0  0  0  0  0  0  0  0  0  0  0
   10.7332    0.6950   23.2793 C   0  0  0  0  0  0  0  0  0  0  0  0
    7.3107   -5.7663   27.8000 C   0  0  0  0  0  0  0  0  0  0  0  0
    6.7100    0.3850   17.8100 N   0  0  0  0  0  0  0  0  0  0  0  0
    7.9771   -4.4058   25.9196 N   0  0  0  0  0  0  0  0  0  0  0  0
    9.5820   -0.1080   22.7000 N   0  0  0  0  0  0  0  0  0  0  0  0
    9.2950    1.3000   20.9480 O   0  0  0  0  0  0  0  0  0  0  0  0
    7.6487   -3.3921   28.0182 O   0  0  0  0  0  0  0  0  0  0  0  0
   15.1785   -2.2728   23.8671 H   0  0  0  0  0  0  0  0  0  0  0  0
    3.6210    2.0713   21.6574 H   0  0  0  0  0  0  0  0  0  0  0  0
   14.7396   -0.3781   25.4074 H   0  0  0  0  0  0  0  0  0  0  0  0
   13.5661   -2.7977   22.0554 H   0  0  0  0  0  0  0  0  0  0  0  0
    2.9855    2.6924   19.3616 H   0  0  0  0  0  0  0  0  0  0  0  0
    5.6668    0.7411   22.0808 H   0  0  0  0  0  0  0  0  0  0  0  0
   12.6967    0.9896   25.1419 H   0  0  0  0  0  0  0  0  0  0  0  0
   11.5206   -1.4362   21.7816 H   0  0  0  0  0  0  0  0  0  0  0  0
    4.3788    2.0100   17.4223 H   0  0  0  0  0  0  0  0  0  0  0  0
    9.5436   -4.5614   23.7799 H   0  0  0  0  0  0  0  0  0  0  0  0
    7.1918   -1.8823   26.1906 H   0  0  0  0  0  0  0  0  0  0  0  0
   10.2676   -2.6754   22.3861 H   0  0  0  0  0  0  0  0  0  0  0  0
    7.8686   -0.0026   24.7598 H   0  0  0  0  0  0  0  0  0  0  0  0
    8.4186   -0.8125   18.0399 H   0  0  0  0  0  0  0  0  0  0  0  0
    8.6970   -6.8588   26.5420 H   0  0  0  0  0  0  0  0  0  0  0  0
    8.1397   -7.7522   27.9692 H   0  0  0  0  0  0  0  0  0  0  0  0
    9.3370   -6.4553   28.1423 H   0  0  0  0  0  0  0  0  0  0  0  0
    7.4761   -1.2062   21.6405 H   0  0  0  0  0  0  0  0  0  0  0  0
    8.7071   -1.5784   20.4200 H   0  0  0  0  0  0  0  0  0  0  0  0
   10.4108    1.1033   24.2434 H   0  0  0  0  0  0  0  0  0  0  0  0
   10.9128    1.5434   22.6105 H   0  0  0  0  0  0  0  0  0  0  0  0
    7.0714   -5.6929   28.8672 H   0  0  0  0  0  0  0  0  0  0  0  0
    6.4148   -6.1160   27.2743 H   0  0  0  0  0  0  0  0  0  0  0  0
    6.6719    0.4860   16.8043 H   0  0  0  0  0  0  0  0  0  0  0  0
    7.9297   -5.3297   25.4745 H   0  0  0  0  0  0  0  0  0  0  0  0
  1  3  1  0  0  0  0
  1  4  2  0  0  0  0
  2  5  1  0  0  0  0
  2  6  2  0  0  0  0
  3  7  2  0  0  0  0
  4  8  1  0  0  0  0
  5  9  2  0  0  0  0
  6 15  1  0  0  0  0
  7 16  1  0  0  0  0
  8 16  2  0  0  0  0
  9 18  1  0  0  0  0
 10 12  2  0  0  0  0
 10 19  1  0  0  0  0
 11 13  1  0  0  0  0
 11 19  2  0  0  0  0
 12 20  1  0  0  0  0
 13 20  2  0  0  0  0
 14 17  2  0  0  0  0
 14 27  1  0  0  0  0
 15 17  1  0  0  0  0
 15 18  2  0  0  0  0
 16 25  1  0  0  0  0
 17 24  1  0  0  0  0
 18 27  1  0  0  0  0
 19 28  1  0  0  0  0
 20 29  1  0  0  0  0
 21 24  1  0  0  0  0
 21 29  1  0  0  0  0
 21 30  2  0  0  0  0
 22 26  1  0  0  0  0
 22 28  1  0  0  0  0
 22 31  2  0  0  0  0
 23 26  1  0  0  0  0
 25 29  1  0  0  0  0
  1 32  1  0  0  0  0
  2 33  1  0  0  0  0
  3 34  1  0  0  0  0
  4 35  1  0  0  0  0
  5 36  1  0  0  0  0
  6 37  1  0  0  0  0
  7 38  1  0  0  0  0
  8 39  1  0  0  0  0
  9 40  1  0  0  0  0
 10 41  1  0  0  0  0
 11 42  1  0  0  0  0
 12 43  1  0  0  0  0
 13 44  1  0  0  0  0
 14 45  1  0  0  0  0
 23 46  1  0  0  0  0
 23 47  1  0  0  0  0
 23 48  1  0  0  0  0
 24 49  1  0  0  0  0
 24 50  1  0  0  0  0
 25 51  1  0  0  0  0
 25 52  1  0  0  0  0
 26 53  1  0  0  0  0
 26 54  1  0  0  0  0
 27 55  1  0  0  0  0
 28 56  1  0  0  0  0
M  END
> <clash_score>
0

> <docking_score>
-9.159335136413574

> <overlap_score>
0.9817226529121399

$$$$
BENZO_452_1
  -OEChem-08232013553D

 53 56  0     0  0  0  0  0  0999 V2000
    4.2460    1.7520   20.8250 C   0  0  0  0  0  0  0  0  0  0  0  0
    3.8860    2.1050   19.5250 C   0  0  0  0  0  0  0  0  0  0  0  0
    5.3890    1.0010   21.0690 C   0  0  0  0  0  0  0  0  0  0  0  0
    4.6610    1.7170   18.4380 C   0  0  0  0  0  0  0  0  0  0  0  0
    9.1890   -3.5540   24.0140 C   0  0  0  0  0  0  0  0  0  0  0  0
    7.8700   -2.0610   25.3550 C   0  0  0  0  0  0  0  0  0  0  0  0
    9.5890   -2.4950   23.2210 C   0  0  0  0  0  0  0  0  0  0  0  0
    8.2550   -1.0010   24.5520 C   0  0  0  0  0  0  0  0  0  0  0  0
   12.6277   -0.3467   24.6921 C   0  0  0  0  0  0  0  0  0  0  0  0
    7.5840   -0.2700   18.5160 C   0  0  0  0  0  0  0  0  0  0  0  0
   13.7436   -1.1439   24.5625 C   0  0  0  0  0  0  0  0  0  0  0  0
   12.6162   -0.7757   22.4077 C   0  0  0  0  0  0  0  0  0  0  0  0
    6.1460    0.6070   19.9750 C   0  0  0  0  0  0  0  0  0  0  0  0
   11.9744   -0.1335   23.4439 C   0  0  0  0  0  0  0  0  0  0  0  0
    7.2710   -0.1460   19.8310 C   0  0  0  0  0  0  0  0  0  0  0  0
    5.7970    0.9500   18.6730 C   0  0  0  0  0  0  0  0  0  0  0  0
    8.3450   -3.3440   25.0980 C   0  0  0  0  0  0  0  0  0  0  0  0
    9.1280   -1.2090   23.4870 C   0  0  0  0  0  0  0  0  0  0  0  0
    9.0430    0.2380   21.4940 C   0  0  0  0  0  0  0  0  0  0  0  0
    8.2015   -4.5567   27.2977 C   0  0  0  0  0  0  0  0  0  0  0  0
    7.8867   -6.0887   29.2875 C   0  0  0  0  0  0  0  0  0  0  0  0
    8.0950   -0.7700   20.8440 C   0  0  0  0  0  0  0  0  0  0  0  0
   10.7332    0.6950   23.2793 C   0  0  0  0  0  0  0  0  0  0  0  0
    7.6334   -5.8733   27.8062 C   0  0  0  0  0  0  0  0  0  0  0  0
    6.7100    0.3850   17.8100 N   0  0  0  0  0  0  0  0  0  0  0  0
    7.9771   -4.4058   25.9196 N   0  0  0  0  0  0  0  0  0  0  0  0
    9.5820   -0.1080   22.7000 N   0  0  0  0  0  0  0  0  0  0  0  0
    9.2950    1.3000   20.9480 O   0  0  0  0  0  0  0  0  0  0  0  0
    8.7727   -3.7647   28.0399 O   0  0  0  0  0  0  0  0  0  0  0  0
   14.0000   -1.6317   22.9412 S   0  0  0  0  0  0  0  0  0  0  0  0
    3.6210    2.0713   21.6574 H   0  0  0  0  0  0  0  0  0  0  0  0
    2.9855    2.6924   19.3616 H   0  0  0  0  0  0  0  0  0  0  0  0
    5.6668    0.7411   22.0808 H   0  0  0  0  0  0  0  0  0  0  0  0
    4.3788    2.0100   17.4223 H   0  0  0  0  0  0  0  0  0  0  0  0
    9.5436   -4.5614   23.7799 H   0  0  0  0  0  0  0  0  0  0  0  0
    7.1918   -1.8823   26.1906 H   0  0  0  0  0  0  0  0  0  0  0  0
   10.2676   -2.6754   22.3861 H   0  0  0  0  0  0  0  0  0  0  0  0
    7.8686   -0.0026   24.7598 H   0  0  0  0  0  0  0  0  0  0  0  0
   12.2993    0.0623   25.6393 H   0  0  0  0  0  0  0  0  0  0  0  0
    8.4186   -0.8125   18.0399 H   0  0  0  0  0  0  0  0  0  0  0  0
   14.4209   -1.4627   25.3422 H   0  0  0  0  0  0  0  0  0  0  0  0
   12.3427   -0.7849   21.3617 H   0  0  0  0  0  0  0  0  0  0  0  0
    8.9593   -6.0836   29.5079 H   0  0  0  0  0  0  0  0  0  0  0  0
    7.4764   -7.0512   29.6083 H   0  0  0  0  0  0  0  0  0  0  0  0
    7.4175   -5.3004   29.8854 H   0  0  0  0  0  0  0  0  0  0  0  0
    7.4761   -1.2062   21.6405 H   0  0  0  0  0  0  0  0  0  0  0  0
    8.7071   -1.5784   20.4200 H   0  0  0  0  0  0  0  0  0  0  0  0
   10.4108    1.1033   24.2434 H   0  0  0  0  0  0  0  0  0  0  0  0
   10.9128    1.5434   22.6105 H   0  0  0  0  0  0  0  0  0  0  0  0
    6.5541   -5.8831   27.6149 H   0  0  0  0  0  0  0  0  0  0  0  0
    8.0869   -6.6914   27.2350 H   0  0  0  0  0  0  0  0  0  0  0  0
    6.6719    0.4860   16.8043 H   0  0  0  0  0  0  0  0  0  0  0  0
    7.4775   -5.1795   25.4660 H   0  0  0  0  0  0  0  0  0  0  0  0
  1  2  1  0  0  0  0
  1  3  2  0  0  0  0
  2  4  2  0  0  0  0
  3 13  1  0  0  0  0
  4 16  1  0  0  0  0
  5  7  2  0  0  0  0
  5 17  1  0  0  0  0
  6  8  1  0  0  0  0
  6 17  2  0  0  0  0
  7 18  1  0  0  0  0
  8 18  2  0  0  0  0
  9 11  2  0  0  0  0
  9 14  1  0  0  0  0
 10 15  2  0  0  0  0
 10 25  1  0  0  0  0
 11 30  1  0  0  0  0
 12 14  2  0  0  0  0
 12 30  1  0  0  0  0
 13 15  1  0  0  0  0
 13 16  2  0  0  0  0
 14 23  1  0  0  0  0
 15 22  1  0  0  0  0
 16 25  1  0  0  0  0
 17 26  1  0  0  0  0
 18 27  1  0  0  0  0
 19 22  1  0  0  0  0
 19 27  1  0  0  0  0
 19 28  2  0  0  0  0
 20 24  1  0  0  0  0
 20 26  1  0  0  0  0
 20 29  2  0  0  0  0
 21 24  1  0  0  0  0
 23 27  1  0  0  0  0
  1 31  1  0  0  0  0
  2 32  1  0  0  0  0
  3 33  1  0  0  0  0
  4 34  1  0  0  0  0
  5 35  1  0  0  0  0
  6 36  1  0  0  0  0
  7 37  1  0  0  0  0
  8 38  1  0  0  0  0
  9 39  1  0  0  0  0
 10 40  1  0  0  0  0
 11 41  1  0  0  0  0
 12 42  1  0  0  0  0
 21 43  1  0  0  0  0
 21 44  1  0  0  0  0
 21 45  1  0  0  0  0
 22 46  1  0  0  0  0
 22 47  1  0  0  0  0
 23 48  1  0  0  0  0
 23 49  1  0  0  0  0
 24 50  1  0  0  0  0
 24 51  1  0  0  0  0
 25 52  1  0  0  0  0
 26 53  1  0  0  0  0
M  END
> <clash_score>
0

> <docking_score>
-9.228708267211914

> <overlap_score>
0.9845653176307678

$$$$
BENZO_457_1
  -OEChem-08232013553D

 61 65  0     0  0  0  0  0  0999 V2000
   14.2996   -1.3839   24.0679 C   0  0  0  0  0  0  0  0  0  0  0  0
    4.2460    1.7520   20.8250 C   0  0  0  0  0  0  0  0  0  0  0  0
   13.9343   -0.3216   24.8947 C   0  0  0  0  0  0  0  0  0  0  0  0
   13.4794   -1.7518   23.0013 C   0  0  0  0  0  0  0  0  0  0  0  0
    3.8860    2.1050   19.5250 C   0  0  0  0  0  0  0  0  0  0  0  0
    5.3890    1.0010   21.0690 C   0  0  0  0  0  0  0  0  0  0  0  0
   12.7486    0.3729   24.6549 C   0  0  0  0  0  0  0  0  0  0  0  0
   12.2937   -1.0573   22.7616 C   0  0  0  0  0  0  0  0  0  0  0  0
    4.6610    1.7170   18.4380 C   0  0  0  0  0  0  0  0  0  0  0  0
    9.1890   -3.5540   24.0140 C   0  0  0  0  0  0  0  0  0  0  0  0
    7.8700   -2.0610   25.3550 C   0  0  0  0  0  0  0  0  0  0  0  0
    9.5890   -2.4950   23.2210 C   0  0  0  0  0  0  0  0  0  0  0  0
    8.2550   -1.0010   24.5520 C   0  0  0  0  0  0  0  0  0  0  0  0
    7.5840   -0.2700   18.5160 C   0  0  0  0  0  0  0  0  0  0  0  0
    6.1460    0.6070   19.9750 C   0  0  0  0  0  0  0  0  0  0  0  0
   11.9283    0.0051   23.5884 C   0  0  0  0  0  0  0  0  0  0  0  0
    7.2710   -0.1460   19.8310 C   0  0  0  0  0  0  0  0  0  0  0  0
    5.7970    0.9500   18.6730 C   0  0  0  0  0  0  0  0  0  0  0  0
    8.3450   -3.3440   25.0980 C   0  0  0  0  0  0  0  0  0  0  0  0
    9.1280   -1.2090   23.4870 C   0  0  0  0  0  0  0  0  0  0  0  0
    9.0430    0.2380   21.4940 C   0  0  0  0  0  0  0  0  0  0  0  0
    7.5748   -4.8280   28.7278 C   0  0  0  0  0  0  0  0  0  0  0  0
    8.9776   -4.7555   28.1204 C   0  0  0  0  0  0  0  0  0  0  0  0
    6.5554   -4.0713   27.8732 C   0  0  0  0  0  0  0  0  0  0  0  0
    8.9620   -5.1961   26.6568 C   0  0  0  0  0  0  0  0  0  0  0  0
    6.6009   -4.5253   26.4110 C   0  0  0  0  0  0  0  0  0  0  0  0
    8.0950   -0.7700   20.8440 C   0  0  0  0  0  0  0  0  0  0  0  0
   10.6518    0.7520   23.3299 C   0  0  0  0  0  0  0  0  0  0  0  0
    6.7100    0.3850   17.8100 N   0  0  0  0  0  0  0  0  0  0  0  0
    7.9770   -4.4029   25.9162 N   0  0  0  0  0  0  0  0  0  0  0  0
    9.5820   -0.1080   22.7000 N   0  0  0  0  0  0  0  0  0  0  0  0
    9.2950    1.3000   20.9480 O   0  0  0  0  0  0  0  0  0  0  0  0
   15.2236   -1.9237   24.2539 H   0  0  0  0  0  0  0  0  0  0  0  0
    3.6210    2.0713   21.6574 H   0  0  0  0  0  0  0  0  0  0  0  0
   14.5734   -0.0343   25.7245 H   0  0  0  0  0  0  0  0  0  0  0  0
   13.7641   -2.5781   22.3568 H   0  0  0  0  0  0  0  0  0  0  0  0
    2.9855    2.6924   19.3616 H   0  0  0  0  0  0  0  0  0  0  0  0
    5.6668    0.7411   22.0808 H   0  0  0  0  0  0  0  0  0  0  0  0
   12.4719    1.1992   25.3044 H   0  0  0  0  0  0  0  0  0  0  0  0
   11.6608   -1.3510   21.9284 H   0  0  0  0  0  0  0  0  0  0  0  0
    4.3788    2.0100   17.4223 H   0  0  0  0  0  0  0  0  0  0  0  0
    9.5426   -4.5618   23.7797 H   0  0  0  0  0  0  0  0  0  0  0  0
    7.1914   -1.8824   26.1903 H   0  0  0  0  0  0  0  0  0  0  0  0
   10.2669   -2.6745   22.3854 H   0  0  0  0  0  0  0  0  0  0  0  0
    7.8690   -0.0020   24.7587 H   0  0  0  0  0  0  0  0  0  0  0  0
    8.4186   -0.8125   18.0399 H   0  0  0  0  0  0  0  0  0  0  0  0
    7.2681   -5.8807   28.8239 H   0  0  0  0  0  0  0  0  0  0  0  0
    7.5891   -4.4101   29.7448 H   0  0  0  0  0  0  0  0  0  0  0  0
    9.3554   -3.7320   28.1920 H   0  0  0  0  0  0  0  0  0  0  0  0
    9.6558   -5.3943   28.6900 H   0  0  0  0  0  0  0  0  0  0  0  0
    5.5496   -4.2322   28.2751 H   0  0  0  0  0  0  0  0  0  0  0  0
    6.7545   -2.9948   27.9293 H   0  0  0  0  0  0  0  0  0  0  0  0
    9.9612   -5.0560   26.2363 H   0  0  0  0  0  0  0  0  0  0  0  0
    8.7097   -6.2583   26.5922 H   0  0  0  0  0  0  0  0  0  0  0  0
    6.2649   -5.5600   26.3335 H   0  0  0  0  0  0  0  0  0  0  0  0
    5.9271   -3.8964   25.8283 H   0  0  0  0  0  0  0  0  0  0  0  0
    7.4659   -1.2025   21.6292 H   0  0  0  0  0  0  0  0  0  0  0  0
    8.6969   -1.5747   20.4087 H   0  0  0  0  0  0  0  0  0  0  0  0
   10.2524    1.1679   24.2614 H   0  0  0  0  0  0  0  0  0  0  0  0
   10.8186    1.5899   22.6448 H   0  0  0  0  0  0  0  0  0  0  0  0
    6.6719    0.4860   16.8043 H   0  0  0  0  0  0  0  0  0  0  0  0
  1  3  1  0  0  0  0
  1  4  2  0  0  0  0
  2  5  1  0  0  0  0
  2  6  2  0  0  0  0
  3  7  2  0  0  0  0
  4  8  1  0  0  0  0
  5  9  2  0  0  0  0
  6 15  1  0  0  0  0
  7 16  1  0  0  0  0
  8 16  2  0  0  0  0
  9 18  1  0  0  0  0
 10 12  2  0  0  0  0
 10 19  1  0  0  0  0
 11 13  1  0  0  0  0
 11 19  2  0  0  0  0
 12 20  1  0  0  0  0
 13 20  2  0  0  0  0
 14 17  2  0  0  0  0
 14 29  1  0  0  0  0
 15 17  1  0  0  0  0
 15 18  2  0  0  0  0
 16 28  1  0  0  0  0
 17 27  1  0  0  0  0
 18 29  1  0  0  0  0
 19 30  1  0  0  0  0
 20 31  1  0  0  0  0
 21 27  1  0  0  0  0
 21 31  1  0  0  0  0
 21 32  2  0  0  0  0
 22 23  1  0  0  0  0
 22 24  1  0  0  0  0
 23 25  1  0  0  0  0
 24 26  1  0  0  0  0
 25 30  1  0  0  0  0
 26 30  1  0  0  0  0
 28 31  1  0  0  0  0
  1 33  1  0  0  0  0
  2 34  1  0  0  0  0
  3 35  1  0  0  0  0
  4 36  1  0  0  0  0
  5 37  1  0  0  0  0
  6 38  1  0  0  0  0
  7 39  1  0  0  0  0
  8 40  1  0  0  0  0
  9 41  1  0  0  0  0
 10 42  1  0  0  0  0
 11 43  1  0  0  0  0
 12 44  1  0  0  0  0
 13 45  1  0  0  0  0
 14 46  1  0  0  0  0
 22 47  1  0  0  0  0
 22 48  1  0  0  0  0
 23 49  1  0  0  0  0
 23 50  1  0  0  0  0
 24 51  1  0  0  0  0
 24 52  1  0  0  0  0
 25 53  1  0  0  0  0
 25 54  1  0  0  0  0
 26 55  1  0  0  0  0
 26 56  1  0  0  0  0
 27 57  1  0  0  0  0
 27 58  1  0  0  0  0
 28 59  1  0  0  0  0
 28 60  1  0  0  0  0
 29 61  1  0  0  0  0
M  END
> <clash_score>
0

> <docking_score>
-9.230467796325684

> <overlap_score>
0.9801599979400635

$$$$
BENZO_456_1
  -OEChem-08232013553D

 58 62  0     0  0  0  0  0  0999 V2000
    4.2460    1.7520   20.8250 C   0  0  0  0  0  0  0  0  0  0  0  0
    3.8860    2.1050   19.5250 C   0  0  0  0  0  0  0  0  0  0  0  0
    5.3890    1.0010   21.0690 C   0  0  0  0  0  0  0  0  0  0  0  0
    4.6610    1.7170   18.4380 C   0  0  0  0  0  0  0  0  0  0  0  0
    9.1890   -3.5540   24.0140 C   0  0  0  0  0  0  0  0  0  0  0  0
    7.8700   -2.0610   25.3550 C   0  0  0  0  0  0  0  0  0  0  0  0
    9.5890   -2.4950   23.2210 C   0  0  0  0  0  0  0  0  0  0  0  0
    8.2550   -1.0010   24.5520 C   0  0  0  0  0  0  0  0  0  0  0  0
   12.5218   -0.1320   24.8765 C   0  0  0  0  0  0  0  0  0  0  0  0
    7.5840   -0.2700   18.5160 C   0  0  0  0  0  0  0  0  0  0  0  0
   13.6880   -0.8639   24.8336 C   0  0  0  0  0  0  0  0  0  0  0  0
   12.6638   -0.6270   22.6099 C   0  0  0  0  0  0  0  0  0  0  0  0
    6.1460    0.6070   19.9750 C   0  0  0  0  0  0  0  0  0  0  0  0
   11.9283    0.0051   23.5884 C   0  0  0  0  0  0  0  0  0  0  0  0
    7.2710   -0.1460   19.8310 C   0  0  0  0  0  0  0  0  0  0  0  0
    5.7970    0.9500   18.6730 C   0  0  0  0  0  0  0  0  0  0  0  0
    8.3450   -3.3440   25.0980 C   0  0  0  0  0  0  0  0  0  0  0  0
    9.1280   -1.2090   23.4870 C   0  0  0  0  0  0  0  0  0  0  0  0
    9.0430    0.2380   21.4940 C   0  0  0  0  0  0  0  0  0  0  0  0
    7.5748   -4.8280   28.7278 C   0  0  0  0  0  0  0  0  0  0  0  0
    8.9776   -4.7555   28.1204 C   0  0  0  0  0  0  0  0  0  0  0  0
    6.5554   -4.0713   27.8732 C   0  0  0  0  0  0  0  0  0  0  0  0
    8.9620   -5.1961   26.6568 C   0  0  0  0  0  0  0  0  0  0  0  0
    6.6009   -4.5253   26.4110 C   0  0  0  0  0  0  0  0  0  0  0  0
    8.0950   -0.7700   20.8440 C   0  0  0  0  0  0  0  0  0  0  0  0
   10.6518    0.7520   23.3299 C   0  0  0  0  0  0  0  0  0  0  0  0
    6.7100    0.3850   17.8100 N   0  0  0  0  0  0  0  0  0  0  0  0
    7.9770   -4.4029   25.9162 N   0  0  0  0  0  0  0  0  0  0  0  0
    9.5820   -0.1080   22.7000 N   0  0  0  0  0  0  0  0  0  0  0  0
    9.2950    1.3000   20.9480 O   0  0  0  0  0  0  0  0  0  0  0  0
   14.0634   -1.3820   23.2452 S   0  0  0  0  0  0  0  0  0  0  0  0
    3.6210    2.0713   21.6574 H   0  0  0  0  0  0  0  0  0  0  0  0
    2.9855    2.6924   19.3616 H   0  0  0  0  0  0  0  0  0  0  0  0
    5.6668    0.7411   22.0808 H   0  0  0  0  0  0  0  0  0  0  0  0
    4.3788    2.0100   17.4223 H   0  0  0  0  0  0  0  0  0  0  0  0
    9.5426   -4.5618   23.7797 H   0  0  0  0  0  0  0  0  0  0  0  0
    7.1914   -1.8824   26.1903 H   0  0  0  0  0  0  0  0  0  0  0  0
   10.2669   -2.6745   22.3854 H   0  0  0  0  0  0  0  0  0  0  0  0
    7.8690   -0.0020   24.7587 H   0  0  0  0  0  0  0  0  0  0  0  0
   12.1173    0.2838   25.7907 H   0  0  0  0  0  0  0  0  0  0  0  0
    8.4186   -0.8125   18.0399 H   0  0  0  0  0  0  0  0  0  0  0  0
   14.3380   -1.1184   25.6588 H   0  0  0  0  0  0  0  0  0  0  0  0
   12.4505   -0.6831   21.5514 H   0  0  0  0  0  0  0  0  0  0  0  0
    7.2681   -5.8807   28.8239 H   0  0  0  0  0  0  0  0  0  0  0  0
    7.5891   -4.4101   29.7448 H   0  0  0  0  0  0  0  0  0  0  0  0
    9.3554   -3.7320   28.1920 H   0  0  0  0  0  0  0  0  0  0  0  0
    9.6558   -5.3943   28.6900 H   0  0  0  0  0  0  0  0  0  0  0  0
    5.5496   -4.2322   28.2751 H   0  0  0  0  0  0  0  0  0  0  0  0
    6.7545   -2.9948   27.9293 H   0  0  0  0  0  0  0  0  0  0  0  0
    9.9612   -5.0560   26.2363 H   0  0  0  0  0  0  0  0  0  0  0  0
    8.7097   -6.2583   26.5922 H   0  0  0  0  0  0  0  0  0  0  0  0
    6.2649   -5.5600   26.3335 H   0  0  0  0  0  0  0  0  0  0  0  0
    5.9271   -3.8964   25.8283 H   0  0  0  0  0  0  0  0  0  0  0  0
    7.4659   -1.2025   21.6292 H   0  0  0  0  0  0  0  0  0  0  0  0
    8.6969   -1.5747   20.4087 H   0  0  0  0  0  0  0  0  0  0  0  0
   10.2524    1.1679   24.2614 H   0  0  0  0  0  0  0  0  0  0  0  0
   10.8186    1.5899   22.6448 H   0  0  0  0  0  0  0  0  0  0  0  0
    6.6719    0.4860   16.8043 H   0  0  0  0  0  0  0  0  0  0  0  0
  1  2  1  0  0  0  0
  1  3  2  0  0  0  0
  2  4  2  0  0  0  0
  3 13  1  0  0  0  0
  4 16  1  0  0  0  0
  5  7  2  0  0  0  0
  5 17  1  0  0  0  0
  6  8  1  0  0  0  0
  6 17  2  0  0  0  0
  7 18  1  0  0  0  0
  8 18  2  0  0  0  0
  9 11  2  0  0  0  0
  9 14  1  0  0  0  0
 10 15  2  0  0  0  0
 10 27  1  0  0  0  0
 11 31  1  0  0  0  0
 12 14  2  0  0  0  0
 12 31  1  0  0  0  0
 13 15  1  0  0  0  0
 13 16  2  0  0  0  0
 14 26  1  0  0  0  0
 15 25  1  0  0  0  0
 16 27  1  0  0  0  0
 17 28  1  0  0  0  0
 18 29  1  0  0  0  0
 19 25  1  0  0  0  0
 19 29  1  0  0  0  0
 19 30  2  0  0  0  0
 20 21  1  0  0  0  0
 20 22  1  0  0  0  0
 21 23  1  0  0  0  0
 22 24  1  0  0  0  0
 23 28  1  0  0  0  0
 24 28  1  0  0  0  0
 26 29  1  0  0  0  0
  1 32  1  0  0  0  0
  2 33  1  0  0  0  0
  3 34  1  0  0  0  0
  4 35  1  0  0  0  0
  5 36  1  0  0  0  0
  6 37  1  0  0  0  0
  7 38  1  0  0  0  0
  8 39  1  0  0  0  0
  9 40  1  0  0  0  0
 10 41  1  0  0  0  0
 11 42  1  0  0  0  0
 12 43  1  0  0  0  0
 20 44  1  0  0  0  0
 20 45  1  0  0  0  0
 21 46  1  0  0  0  0
 21 47  1  0  0  0  0
 22 48  1  0  0  0  0
 22 49  1  0  0  0  0
 23 50  1  0  0  0  0
 23 51  1  0  0  0  0
 24 52  1  0  0  0  0
 24 53  1  0  0  0  0
 25 54  1  0  0  0  0
 25 55  1  0  0  0  0
 26 56  1  0  0  0  0
 26 57  1  0  0  0  0
 27 58  1  0  0  0  0
M  END
> <clash_score>
0

> <docking_score>
-9.113531112670898

> <overlap_score>
0.9644513726234436

$$$$
BENZO_454_1
  -OEChem-08232013553D

 56 59  0     0  0  0  0  0  0999 V2000
    4.2460    1.7520   20.8250 C   0  0  0  0  0  0  0  0  0  0  0  0
    3.8860    2.1050   19.5250 C   0  0  0  0  0  0  0  0  0  0  0  0
   13.6992   -1.0584   24.8603 C   0  0  0  0  0  0  0  0  0  0  0  0
    5.3890    1.0010   21.0690 C   0  0  0  0  0  0  0  0  0  0  0  0
   12.5468   -0.2879   24.7065 C   0  0  0  0  0  0  0  0  0  0  0  0
    4.6610    1.7170   18.4380 C   0  0  0  0  0  0  0  0  0  0  0  0
    9.1890   -3.5540   24.0140 C   0  0  0  0  0  0  0  0  0  0  0  0
    7.8700   -2.0610   25.3550 C   0  0  0  0  0  0  0  0  0  0  0  0
    9.5890   -2.4950   23.2210 C   0  0  0  0  0  0  0  0  0  0  0  0
    8.2550   -1.0010   24.5520 C   0  0  0  0  0  0  0  0  0  0  0  0
   14.2795   -1.6744   23.7515 C   0  0  0  0  0  0  0  0  0  0  0  0
   12.5546   -0.7496   22.3350 C   0  0  0  0  0  0  0  0  0  0  0  0
    7.5840   -0.2700   18.5160 C   0  0  0  0  0  0  0  0  0  0  0  0
    6.1460    0.6070   19.9750 C   0  0  0  0  0  0  0  0  0  0  0  0
   11.9744   -0.1335   23.4439 C   0  0  0  0  0  0  0  0  0  0  0  0
    7.2710   -0.1460   19.8310 C   0  0  0  0  0  0  0  0  0  0  0  0
    5.7970    0.9500   18.6730 C   0  0  0  0  0  0  0  0  0  0  0  0
    8.3450   -3.3440   25.0980 C   0  0  0  0  0  0  0  0  0  0  0  0
    9.1280   -1.2090   23.4870 C   0  0  0  0  0  0  0  0  0  0  0  0
   13.7072   -1.5200   22.4888 C   0  0  0  0  0  0  0  0  0  0  0  0
    9.0430    0.2380   21.4940 C   0  0  0  0  0  0  0  0  0  0  0  0
    8.2015   -4.5567   27.2977 C   0  0  0  0  0  0  0  0  0  0  0  0
    7.8867   -6.0887   29.2875 C   0  0  0  0  0  0  0  0  0  0  0  0
    8.0950   -0.7700   20.8440 C   0  0  0  0  0  0  0  0  0  0  0  0
   10.7332    0.6950   23.2793 C   0  0  0  0  0  0  0  0  0  0  0  0
    7.6334   -5.8733   27.8062 C   0  0  0  0  0  0  0  0  0  0  0  0
    6.7100    0.3850   17.8100 N   0  0  0  0  0  0  0  0  0  0  0  0
    7.9771   -4.4058   25.9196 N   0  0  0  0  0  0  0  0  0  0  0  0
    9.5820   -0.1080   22.7000 N   0  0  0  0  0  0  0  0  0  0  0  0
    9.2950    1.3000   20.9480 O   0  0  0  0  0  0  0  0  0  0  0  0
    8.7727   -3.7647   28.0399 O   0  0  0  0  0  0  0  0  0  0  0  0
   14.4228   -2.2813   21.1213 Cl  0  0  0  0  0  0  0  0  0  0  0  0
    3.6210    2.0713   21.6574 H   0  0  0  0  0  0  0  0  0  0  0  0
    2.9855    2.6924   19.3616 H   0  0  0  0  0  0  0  0  0  0  0  0
   14.1445   -1.1785   25.8437 H   0  0  0  0  0  0  0  0  0  0  0  0
    5.6668    0.7411   22.0808 H   0  0  0  0  0  0  0  0  0  0  0  0
   12.1014    0.1884   25.5761 H   0  0  0  0  0  0  0  0  0  0  0  0
    4.3788    2.0100   17.4223 H   0  0  0  0  0  0  0  0  0  0  0  0
    9.5436   -4.5614   23.7799 H   0  0  0  0  0  0  0  0  0  0  0  0
    7.1918   -1.8823   26.1906 H   0  0  0  0  0  0  0  0  0  0  0  0
   10.2676   -2.6754   22.3861 H   0  0  0  0  0  0  0  0  0  0  0  0
    7.8686   -0.0026   24.7598 H   0  0  0  0  0  0  0  0  0  0  0  0
   15.1775   -2.2723   23.8863 H   0  0  0  0  0  0  0  0  0  0  0  0
   12.1048   -0.6257   21.3526 H   0  0  0  0  0  0  0  0  0  0  0  0
    8.4186   -0.8125   18.0399 H   0  0  0  0  0  0  0  0  0  0  0  0
    8.9593   -6.0836   29.5079 H   0  0  0  0  0  0  0  0  0  0  0  0
    7.4764   -7.0512   29.6083 H   0  0  0  0  0  0  0  0  0  0  0  0
    7.4175   -5.3004   29.8854 H   0  0  0  0  0  0  0  0  0  0  0  0
    7.4761   -1.2062   21.6405 H   0  0  0  0  0  0  0  0  0  0  0  0
    8.7071   -1.5784   20.4200 H   0  0  0  0  0  0  0  0  0  0  0  0
   10.4108    1.1033   24.2434 H   0  0  0  0  0  0  0  0  0  0  0  0
   10.9128    1.5434   22.6105 H   0  0  0  0  0  0  0  0  0  0  0  0
    6.5541   -5.8831   27.6149 H   0  0  0  0  0  0  0  0  0  0  0  0
    8.0869   -6.6914   27.2350 H   0  0  0  0  0  0  0  0  0  0  0  0
    6.6719    0.4860   16.8043 H   0  0  0  0  0  0  0  0  0  0  0  0
    7.4775   -5.1795   25.4660 H   0  0  0  0  0  0  0  0  0  0  0  0
  1  2  1  0  0  0  0
  1  4  2  0  0  0  0
  2  6  2  0  0  0  0
  3  5  2  0  0  0  0
  3 11  1  0  0  0  0
  4 14  1  0  0  0  0
  5 15  1  0  0  0  0
  6 17  1  0  0  0  0
  7  9  2  0  0  0  0
  7 18  1  0  0  0  0
  8 10  1  0  0  0  0
  8 18  2  0  0  0  0
  9 19  1  0  0  0  0
 10 19  2  0  0  0  0
 11 20  2  0  0  0  0
 12 15  2  0  0  0  0
 12 20  1  0  0  0  0
 13 16  2  0  0  0  0
 13 27  1  0  0  0  0
 14 16  1  0  0  0  0
 14 17  2  0  0  0  0
 15 25  1  0  0  0  0
 16 24  1  0  0  0  0
 17 27  1  0  0  0  0
 18 28  1  0  0  0  0
 19 29  1  0  0  0  0
 20 32  1  0  0  0  0
 21 24  1  0  0  0  0
 21 29  1  0  0  0  0
 21 30  2  0  0  0  0
 22 26  1  0  0  0  0
 22 28  1  0  0  0  0
 22 31  2  0  0  0  0
 23 26  1  0  0  0  0
 25 29  1  0  0  0  0
  1 33  1  0  0  0  0
  2 34  1  0  0  0  0
  3 35  1  0  0  0  0
  4 36  1  0  0  0  0
  5 37  1  0  0  0  0
  6 38  1  0  0  0  0
  7 39  1  0  0  0  0
  8 40  1  0  0  0  0
  9 41  1  0  0  0  0
 10 42  1  0  0  0  0
 11 43  1  0  0  0  0
 12 44  1  0  0  0  0
 13 45  1  0  0  0  0
 23 46  1  0  0  0  0
 23 47  1  0  0  0  0
 23 48  1  0  0  0  0
 24 49  1  0  0  0  0
 24 50  1  0  0  0  0
 25 51  1  0  0  0  0
 25 52  1  0  0  0  0
 26 53  1  0  0  0  0
 26 54  1  0  0  0  0
 27 55  1  0  0  0  0
 28 56  1  0  0  0  0
M  END
> <clash_score>
0

> <docking_score>
-8.701628684997559

> <overlap_score>
1.0072338581085205

$$$$
BENZO_455_1
  -OEChem-08232013553D

 56 59  0     0  0  0  0  0  0999 V2000
    4.2460    1.7520   20.8250 C   0  0  0  0  0  0  0  0  0  0  0  0
    3.8860    2.1050   19.5250 C   0  0  0  0  0  0  0  0  0  0  0  0
    5.3890    1.0010   21.0690 C   0  0  0  0  0  0  0  0  0  0  0  0
    4.6610    1.7170   18.4380 C   0  0  0  0  0  0  0  0  0  0  0  0
    9.1890   -3.5540   24.0140 C   0  0  0  0  0  0  0  0  0  0  0  0
    7.8700   -2.0610   25.3550 C   0  0  0  0  0  0  0  0  0  0  0  0
    9.5890   -2.4950   23.2210 C   0  0  0  0  0  0  0  0  0  0  0  0
    8.2550   -1.0010   24.5520 C   0  0  0  0  0  0  0  0  0  0  0  0
   13.3021    0.3461   23.6091 C   0  0  0  0  0  0  0  0  0  0  0  0
    7.5840   -0.2700   18.5160 C   0  0  0  0  0  0  0  0  0  0  0  0
   12.3433   -0.9532   22.1166 C   0  0  0  0  0  0  0  0  0  0  0  0
    6.1460    0.6070   19.9750 C   0  0  0  0  0  0  0  0  0  0  0  0
   12.0633    0.0538   23.0076 C   0  0  0  0  0  0  0  0  0  0  0  0
    7.2710   -0.1460   19.8310 C   0  0  0  0  0  0  0  0  0  0  0  0
    5.7970    0.9500   18.6730 C   0  0  0  0  0  0  0  0  0  0  0  0
    8.3450   -3.3440   25.0980 C   0  0  0  0  0  0  0  0  0  0  0  0
    9.1280   -1.2090   23.4870 C   0  0  0  0  0  0  0  0  0  0  0  0
    9.0430    0.2380   21.4940 C   0  0  0  0  0  0  0  0  0  0  0  0
    7.6596   -4.3770   27.2873 C   0  0  0  0  0  0  0  0  0  0  0  0
    8.4367   -6.7652   27.6015 C   0  0  0  0  0  0  0  0  0  0  0  0
   14.4428   -2.1721   21.4960 C   0  0  0  0  0  0  0  0  0  0  0  0
    8.0950   -0.7700   20.8440 C   0  0  0  0  0  0  0  0  0  0  0  0
   10.7332    0.6950   23.2793 C   0  0  0  0  0  0  0  0  0  0  0  0
    7.3107   -5.7663   27.8000 C   0  0  0  0  0  0  0  0  0  0  0  0
   14.2952   -0.4139   23.1399 N   0  0  0  0  0  0  0  0  0  0  0  0
    6.7100    0.3850   17.8100 N   0  0  0  0  0  0  0  0  0  0  0  0
   13.6807   -1.1937   22.2342 N   0  0  0  0  0  0  0  0  0  0  0  0
    7.9771   -4.4058   25.9196 N   0  0  0  0  0  0  0  0  0  0  0  0
    9.5820   -0.1080   22.7000 N   0  0  0  0  0  0  0  0  0  0  0  0
    9.2950    1.3000   20.9480 O   0  0  0  0  0  0  0  0  0  0  0  0
    7.6487   -3.3921   28.0182 O   0  0  0  0  0  0  0  0  0  0  0  0
    3.6210    2.0713   21.6574 H   0  0  0  0  0  0  0  0  0  0  0  0
    2.9855    2.6924   19.3616 H   0  0  0  0  0  0  0  0  0  0  0  0
    5.6668    0.7411   22.0808 H   0  0  0  0  0  0  0  0  0  0  0  0
    4.3788    2.0100   17.4223 H   0  0  0  0  0  0  0  0  0  0  0  0
    9.5436   -4.5614   23.7799 H   0  0  0  0  0  0  0  0  0  0  0  0
    7.1918   -1.8823   26.1906 H   0  0  0  0  0  0  0  0  0  0  0  0
   10.2676   -2.6754   22.3861 H   0  0  0  0  0  0  0  0  0  0  0  0
    7.8686   -0.0026   24.7598 H   0  0  0  0  0  0  0  0  0  0  0  0
   13.5249    1.0801   24.3706 H   0  0  0  0  0  0  0  0  0  0  0  0
    8.4186   -0.8125   18.0399 H   0  0  0  0  0  0  0  0  0  0  0  0
   11.7202   -1.5063   21.4269 H   0  0  0  0  0  0  0  0  0  0  0  0
    8.6970   -6.8588   26.5420 H   0  0  0  0  0  0  0  0  0  0  0  0
    8.1397   -7.7522   27.9692 H   0  0  0  0  0  0  0  0  0  0  0  0
    9.3370   -6.4553   28.1423 H   0  0  0  0  0  0  0  0  0  0  0  0
   14.8130   -1.6942   20.5852 H   0  0  0  0  0  0  0  0  0  0  0  0
   15.2771   -2.5226   22.1100 H   0  0  0  0  0  0  0  0  0  0  0  0
   13.7987   -3.0207   21.2491 H   0  0  0  0  0  0  0  0  0  0  0  0
    7.4761   -1.2062   21.6405 H   0  0  0  0  0  0  0  0  0  0  0  0
    8.7071   -1.5784   20.4200 H   0  0  0  0  0  0  0  0  0  0  0  0
   10.5669    0.7974   24.3572 H   0  0  0  0  0  0  0  0  0  0  0  0
   10.6854    1.6996   22.8459 H   0  0  0  0  0  0  0  0  0  0  0  0
    7.0714   -5.6929   28.8672 H   0  0  0  0  0  0  0  0  0  0  0  0
    6.4148   -6.1160   27.2743 H   0  0  0  0  0  0  0  0  0  0  0  0
    6.6719    0.4860   16.8043 H   0  0  0  0  0  0  0  0  0  0  0  0
    7.9297   -5.3297   25.4745 H   0  0  0  0  0  0  0  0  0  0  0  0
  1  2  1  0  0  0  0
  1  3  2  0  0  0  0
  2  4  2  0  0  0  0
  3 12  1  0  0  0  0
  4 15  1  0  0  0  0
  5  7  2  0  0  0  0
  5 16  1  0  0  0  0
  6  8  1  0  0  0  0
  6 16  2  0  0  0  0
  7 17  1  0  0  0  0
  8 17  2  0  0  0  0
  9 13  1  0  0  0  0
  9 25  2  0  0  0  0
 10 14  2  0  0  0  0
 10 26  1  0  0  0  0
 11 13  2  0  0  0  0
 11 27  1  0  0  0  0
 12 14  1  0  0  0  0
 12 15  2  0  0  0  0
 13 23  1  0  0  0  0
 14 22  1  0  0  0  0
 15 26  1  0  0  0  0
 16 28  1  0  0  0  0
 17 29  1  0  0  0  0
 18 22  1  0  0  0  0
 18 29  1  0  0  0  0
 18 30  2  0  0  0  0
 19 24  1  0  0  0  0
 19 28  1  0  0  0  0
 19 31  2  0  0  0  0
 20 24  1  0  0  0  0
 21 27  1  0  0  0  0
 23 29  1  0  0  0  0
 25 27  1  0  0  0  0
  1 32  1  0  0  0  0
  2 33  1  0  0  0  0
  3 34  1  0  0  0  0
  4 35  1  0  0  0  0
  5 36  1  0  0  0  0
  6 37  1  0  0  0  0
  7 38  1  0  0  0  0
  8 39  1  0  0  0  0
  9 40  1  0  0  0  0
 10 41  1  0  0  0  0
 11 42  1  0  0  0  0
 20 43  1  0  0  0  0
 20 44  1  0  0  0  0
 20 45  1  0  0  0  0
 21 46  1  0  0  0  0
 21 47  1  0  0  0  0
 21 48  1  0  0  0  0
 22 49  1  0  0  0  0
 22 50  1  0  0  0  0
 23 51  1  0  0  0  0
 23 52  1  0  0  0  0
 24 53  1  0  0  0  0
 24 54  1  0  0  0  0
 26 55  1  0  0  0  0
 28 56  1  0  0  0  0
M  END
> <clash_score>
0

> <docking_score>
-8.984392166137695

> <overlap_score>
0.9688014388084412

$$$$
BENZO_461_1
  -OEChem-08232013553D

 49 52  0     0  0  0  0  0  0999 V2000
   14.2801   -1.6740   23.7490 C   0  0  0  0  0  0  0  0  0  0  0  0
    4.2460    1.7520   20.8250 C   0  0  0  0  0  0  0  0  0  0  0  0
   14.0336   -0.6087   24.6149 C   0  0  0  0  0  0  0  0  0  0  0  0
   13.3739   -1.9691   22.7304 C   0  0  0  0  0  0  0  0  0  0  0  0
    3.8860    2.1050   19.5250 C   0  0  0  0  0  0  0  0  0  0  0  0
    5.3890    1.0010   21.0690 C   0  0  0  0  0  0  0  0  0  0  0  0
   12.8807    0.1616   24.4624 C   0  0  0  0  0  0  0  0  0  0  0  0
   12.2211   -1.1988   22.5779 C   0  0  0  0  0  0  0  0  0  0  0  0
    9.1890   -3.5540   24.0140 C   0  0  0  0  0  0  0  0  0  0  0  0
    7.8700   -2.0610   25.3550 C   0  0  0  0  0  0  0  0  0  0  0  0
    4.6610    1.7170   18.4380 C   0  0  0  0  0  0  0  0  0  0  0  0
    9.5890   -2.4950   23.2210 C   0  0  0  0  0  0  0  0  0  0  0  0
    8.2550   -1.0010   24.5520 C   0  0  0  0  0  0  0  0  0  0  0  0
    7.5840   -0.2700   18.5160 C   0  0  0  0  0  0  0  0  0  0  0  0
    6.1460    0.6070   19.9750 C   0  0  0  0  0  0  0  0  0  0  0  0
    8.3450   -3.3440   25.0980 C   0  0  0  0  0  0  0  0  0  0  0  0
   11.9744   -0.1335   23.4439 C   0  0  0  0  0  0  0  0  0  0  0  0
    7.2710   -0.1460   19.8310 C   0  0  0  0  0  0  0  0  0  0  0  0
    5.7970    0.9500   18.6730 C   0  0  0  0  0  0  0  0  0  0  0  0
    9.1280   -1.2090   23.4870 C   0  0  0  0  0  0  0  0  0  0  0  0
    9.0430    0.2380   21.4940 C   0  0  0  0  0  0  0  0  0  0  0  0
    7.9522   -4.4794   25.9764 C   0  0  0  0  0  0  0  0  0  0  0  0
    8.0950   -0.7700   20.8440 C   0  0  0  0  0  0  0  0  0  0  0  0
   10.7332    0.6950   23.2793 C   0  0  0  0  0  0  0  0  0  0  0  0
    6.7100    0.3850   17.8100 N   0  0  0  0  0  0  0  0  0  0  0  0
    9.5820   -0.1080   22.7000 N   0  0  0  0  0  0  0  0  0  0  0  0
    9.2950    1.3000   20.9480 O   0  0  0  0  0  0  0  0  0  0  0  0
   15.1785   -2.2728   23.8671 H   0  0  0  0  0  0  0  0  0  0  0  0
    3.6210    2.0713   21.6574 H   0  0  0  0  0  0  0  0  0  0  0  0
   14.7396   -0.3781   25.4074 H   0  0  0  0  0  0  0  0  0  0  0  0
   13.5661   -2.7977   22.0554 H   0  0  0  0  0  0  0  0  0  0  0  0
    2.9855    2.6924   19.3616 H   0  0  0  0  0  0  0  0  0  0  0  0
    5.6668    0.7411   22.0808 H   0  0  0  0  0  0  0  0  0  0  0  0
   12.6967    0.9896   25.1419 H   0  0  0  0  0  0  0  0  0  0  0  0
   11.5206   -1.4362   21.7816 H   0  0  0  0  0  0  0  0  0  0  0  0
    9.5403   -4.5627   23.7809 H   0  0  0  0  0  0  0  0  0  0  0  0
    7.1911   -1.8848   26.1904 H   0  0  0  0  0  0  0  0  0  0  0  0
    4.3788    2.0100   17.4223 H   0  0  0  0  0  0  0  0  0  0  0  0
   10.2682   -2.6746   22.3865 H   0  0  0  0  0  0  0  0  0  0  0  0
    7.8684   -0.0022   24.7594 H   0  0  0  0  0  0  0  0  0  0  0  0
    8.4186   -0.8125   18.0399 H   0  0  0  0  0  0  0  0  0  0  0  0
    8.6668   -4.5891   26.8013 H   0  0  0  0  0  0  0  0  0  0  0  0
    6.9513   -4.3276   26.4010 H   0  0  0  0  0  0  0  0  0  0  0  0
    7.9196   -5.4231   25.4163 H   0  0  0  0  0  0  0  0  0  0  0  0
    7.4761   -1.2062   21.6405 H   0  0  0  0  0  0  0  0  0  0  0  0
    8.7071   -1.5784   20.4200 H   0  0  0  0  0  0  0  0  0  0  0  0
   10.4108    1.1033   24.2434 H   0  0  0  0  0  0  0  0  0  0  0  0
   10.9128    1.5434   22.6105 H   0  0  0  0  0  0  0  0  0  0  0  0
    6.6719    0.4860   16.8043 H   0  0  0  0  0  0  0  0  0  0  0  0
  1  3  1  0  0  0  0
  1  4  2  0  0  0  0
  2  5  1  0  0  0  0
  2  6  2  0  0  0  0
  3  7  2  0  0  0  0
  4  8  1  0  0  0  0
  5 11  2  0  0  0  0
  6 15  1  0  0  0  0
  7 17  1  0  0  0  0
  8 17  2  0  0  0  0
  9 12  2  0  0  0  0
  9 16  1  0  0  0  0
 10 13  1  0  0  0  0
 10 16  2  0  0  0  0
 11 19  1  0  0  0  0
 12 20  1  0  0  0  0
 13 20  2  0  0  0  0
 14 18  2  0  0  0  0
 14 25  1  0  0  0  0
 15 18  1  0  0  0  0
 15 19  2  0  0  0  0
 16 22  1  0  0  0  0
 17 24  1  0  0  0  0
 18 23  1  0  0  0  0
 19 25  1  0  0  0  0
 20 26  1  0  0  0  0
 21 23  1  0  0  0  0
 21 26  1  0  0  0  0
 21 27  2  0  0  0  0
 24 26  1  0  0  0  0
  1 28  1  0  0  0  0
  2 29  1  0  0  0  0
  3 30  1  0  0  0  0
  4 31  1  0  0  0  0
  5 32  1  0  0  0  0
  6 33  1  0  0  0  0
  7 34  1  0  0  0  0
  8 35  1  0  0  0  0
  9 36  1  0  0  0  0
 10 37  1  0  0  0  0
 11 38  1  0  0  0  0
 12 39  1  0  0  0  0
 13 40  1  0  0  0  0
 14 41  1  0  0  0  0
 22 42  1  0  0  0  0
 22 43  1  0  0  0  0
 22 44  1  0  0  0  0
 23 45  1  0  0  0  0
 23 46  1  0  0  0  0
 24 47  1  0  0  0  0
 24 48  1  0  0  0  0
 25 49  1  0  0  0  0
M  END
> <clash_score>
0

> <docking_score>
-9.13038158416748

> <overlap_score>
0.8980578184127808

$$$$
BENZO_460_1
  -OEChem-08232013553D

 46 49  0     0  0  0  0  0  0999 V2000
    4.2460    1.7520   20.8250 C   0  0  0  0  0  0  0  0  0  0  0  0
    3.8860    2.1050   19.5250 C   0  0  0  0  0  0  0  0  0  0  0  0
    5.3890    1.0010   21.0690 C   0  0  0  0  0  0  0  0  0  0  0  0
    9.1890   -3.5540   24.0140 C   0  0  0  0  0  0  0  0  0  0  0  0
    7.8700   -2.0610   25.3550 C   0  0  0  0  0  0  0  0  0  0  0  0
    4.6610    1.7170   18.4380 C   0  0  0  0  0  0  0  0  0  0  0  0
    9.5890   -2.4950   23.2210 C   0  0  0  0  0  0  0  0  0  0  0  0
    8.2550   -1.0010   24.5520 C   0  0  0  0  0  0  0  0  0  0  0  0
   12.6277   -0.3467   24.6921 C   0  0  0  0  0  0  0  0  0  0  0  0
    7.5840   -0.2700   18.5160 C   0  0  0  0  0  0  0  0  0  0  0  0
   13.7436   -1.1439   24.5625 C   0  0  0  0  0  0  0  0  0  0  0  0
   12.6162   -0.7757   22.4077 C   0  0  0  0  0  0  0  0  0  0  0  0
    6.1460    0.6070   19.9750 C   0  0  0  0  0  0  0  0  0  0  0  0
    8.3450   -3.3440   25.0980 C   0  0  0  0  0  0  0  0  0  0  0  0
   11.9744   -0.1335   23.4439 C   0  0  0  0  0  0  0  0  0  0  0  0
    7.2710   -0.1460   19.8310 C   0  0  0  0  0  0  0  0  0  0  0  0
    5.7970    0.9500   18.6730 C   0  0  0  0  0  0  0  0  0  0  0  0
    9.1280   -1.2090   23.4870 C   0  0  0  0  0  0  0  0  0  0  0  0
    9.0430    0.2380   21.4940 C   0  0  0  0  0  0  0  0  0  0  0  0
    7.9522   -4.4794   25.9764 C   0  0  0  0  0  0  0  0  0  0  0  0
    8.0950   -0.7700   20.8440 C   0  0  0  0  0  0  0  0  0  0  0  0
   10.7332    0.6950   23.2793 C   0  0  0  0  0  0  0  0  0  0  0  0
    6.7100    0.3850   17.8100 N   0  0  0  0  0  0  0  0  0  0  0  0
    9.5820   -0.1080   22.7000 N   0  0  0  0  0  0  0  0  0  0  0  0
    9.2950    1.3000   20.9480 O   0  0  0  0  0  0  0  0  0  0  0  0
   14.0000   -1.6317   22.9412 S   0  0  0  0  0  0  0  0  0  0  0  0
    3.6210    2.0713   21.6574 H   0  0  0  0  0  0  0  0  0  0  0  0
    2.9855    2.6924   19.3616 H   0  0  0  0  0  0  0  0  0  0  0  0
    5.6668    0.7411   22.0808 H   0  0  0  0  0  0  0  0  0  0  0  0
    9.5403   -4.5627   23.7809 H   0  0  0  0  0  0  0  0  0  0  0  0
    7.1911   -1.8848   26.1904 H   0  0  0  0  0  0  0  0  0  0  0  0
    4.3788    2.0100   17.4223 H   0  0  0  0  0  0  0  0  0  0  0  0
   10.2682   -2.6746   22.3865 H   0  0  0  0  0  0  0  0  0  0  0  0
    7.8684   -0.0022   24.7594 H   0  0  0  0  0  0  0  0  0  0  0  0
   12.2993    0.0623   25.6393 H   0  0  0  0  0  0  0  0  0  0  0  0
    8.4186   -0.8125   18.0399 H   0  0  0  0  0  0  0  0  0  0  0  0
   14.4209   -1.4627   25.3422 H   0  0  0  0  0  0  0  0  0  0  0  0
   12.3427   -0.7849   21.3617 H   0  0  0  0  0  0  0  0  0  0  0  0
    8.6668   -4.5891   26.8013 H   0  0  0  0  0  0  0  0  0  0  0  0
    6.9513   -4.3276   26.4010 H   0  0  0  0  0  0  0  0  0  0  0  0
    7.9196   -5.4231   25.4163 H   0  0  0  0  0  0  0  0  0  0  0  0
    7.4761   -1.2062   21.6405 H   0  0  0  0  0  0  0  0  0  0  0  0
    8.7071   -1.5784   20.4200 H   0  0  0  0  0  0  0  0  0  0  0  0
   10.4108    1.1033   24.2434 H   0  0  0  0  0  0  0  0  0  0  0  0
   10.9128    1.5434   22.6105 H   0  0  0  0  0  0  0  0  0  0  0  0
    6.6719    0.4860   16.8043 H   0  0  0  0  0  0  0  0  0  0  0  0
  1  2  1  0  0  0  0
  1  3  2  0  0  0  0
  2  6  2  0  0  0  0
  3 13  1  0  0  0  0
  4  7  2  0  0  0  0
  4 14  1  0  0  0  0
  5  8  1  0  0  0  0
  5 14  2  0  0  0  0
  6 17  1  0  0  0  0
  7 18  1  0  0  0  0
  8 18  2  0  0  0  0
  9 11  2  0  0  0  0
  9 15  1  0  0  0  0
 10 16  2  0  0  0  0
 10 23  1  0  0  0  0
 11 26  1  0  0  0  0
 12 15  2  0  0  0  0
 12 26  1  0  0  0  0
 13 16  1  0  0  0  0
 13 17  2  0  0  0  0
 14 20  1  0  0  0  0
 15 22  1  0  0  0  0
 16 21  1  0  0  0  0
 17 23  1  0  0  0  0
 18 24  1  0  0  0  0
 19 21  1  0  0  0  0
 19 24  1  0  0  0  0
 19 25  2  0  0  0  0
 22 24  1  0  0  0  0
  1 27  1  0  0  0  0
  2 28  1  0  0  0  0
  3 29  1  0  0  0  0
  4 30  1  0  0  0  0
  5 31  1  0  0  0  0
  6 32  1  0  0  0  0
  7 33  1  0  0  0  0
  8 34  1  0  0  0  0
  9 35  1  0  0  0  0
 10 36  1  0  0  0  0
 11 37  1  0  0  0  0
 12 38  1  0  0  0  0
 20 39  1  0  0  0  0
 20 40  1  0  0  0  0
 20 41  1  0  0  0  0
 21 42  1  0  0  0  0
 21 43  1  0  0  0  0
 22 44  1  0  0  0  0
 22 45  1  0  0  0  0
 23 46  1  0  0  0  0
M  END
> <clash_score>
0

> <docking_score>
-8.686748504638672

> <overlap_score>
0.8834050893783569

$$$$
BENZO_459_1
  -OEChem-08232013553D

 61 65  0     0  0  0  0  0  0999 V2000
    4.2460    1.7520   20.8250 C   0  0  0  0  0  0  0  0  0  0  0  0
    3.8860    2.1050   19.5250 C   0  0  0  0  0  0  0  0  0  0  0  0
    5.3890    1.0010   21.0690 C   0  0  0  0  0  0  0  0  0  0  0  0
    4.6610    1.7170   18.4380 C   0  0  0  0  0  0  0  0  0  0  0  0
    9.1890   -3.5540   24.0140 C   0  0  0  0  0  0  0  0  0  0  0  0
    7.8700   -2.0610   25.3550 C   0  0  0  0  0  0  0  0  0  0  0  0
    9.5890   -2.4950   23.2210 C   0  0  0  0  0  0  0  0  0  0  0  0
    8.2550   -1.0010   24.5520 C   0  0  0  0  0  0  0  0  0  0  0  0
   13.2446    0.8966   23.0363 C   0  0  0  0  0  0  0  0  0  0  0  0
    7.5840   -0.2700   18.5160 C   0  0  0  0  0  0  0  0  0  0  0  0
   12.3986   -1.1324   23.0868 C   0  0  0  0  0  0  0  0  0  0  0  0
    6.1460    0.6070   19.9750 C   0  0  0  0  0  0  0  0  0  0  0  0
   12.0333    0.1898   23.1580 C   0  0  0  0  0  0  0  0  0  0  0  0
    7.2710   -0.1460   19.8310 C   0  0  0  0  0  0  0  0  0  0  0  0
    5.7970    0.9500   18.6730 C   0  0  0  0  0  0  0  0  0  0  0  0
    8.3450   -3.3440   25.0980 C   0  0  0  0  0  0  0  0  0  0  0  0
    9.1280   -1.2090   23.4870 C   0  0  0  0  0  0  0  0  0  0  0  0
    9.0430    0.2380   21.4940 C   0  0  0  0  0  0  0  0  0  0  0  0
    7.5748   -4.8280   28.7278 C   0  0  0  0  0  0  0  0  0  0  0  0
    8.9776   -4.7555   28.1204 C   0  0  0  0  0  0  0  0  0  0  0  0
    6.5554   -4.0713   27.8732 C   0  0  0  0  0  0  0  0  0  0  0  0
    8.9620   -5.1961   26.6568 C   0  0  0  0  0  0  0  0  0  0  0  0
    6.6009   -4.5253   26.4110 C   0  0  0  0  0  0  0  0  0  0  0  0
   14.5977   -2.3013   22.8113 C   0  0  0  0  0  0  0  0  0  0  0  0
    8.0950   -0.7700   20.8440 C   0  0  0  0  0  0  0  0  0  0  0  0
   10.6518    0.7520   23.3299 C   0  0  0  0  0  0  0  0  0  0  0  0
   14.3005    0.0903   22.8984 N   0  0  0  0  0  0  0  0  0  0  0  0
    6.7100    0.3850   17.8100 N   0  0  0  0  0  0  0  0  0  0  0  0
   13.7537   -1.1369   22.9331 N   0  0  0  0  0  0  0  0  0  0  0  0
    7.9770   -4.4029   25.9162 N   0  0  0  0  0  0  0  0  0  0  0  0
    9.5820   -0.1080   22.7000 N   0  0  0  0  0  0  0  0  0  0  0  0
    9.2950    1.3000   20.9480 O   0  0  0  0  0  0  0  0  0  0  0  0
    3.6210    2.0713   21.6574 H   0  0  0  0  0  0  0  0  0  0  0  0
    2.9855    2.6924   19.3616 H   0  0  0  0  0  0  0  0  0  0  0  0
    5.6668    0.7411   22.0808 H   0  0  0  0  0  0  0  0  0  0  0  0
    4.3788    2.0100   17.4223 H   0  0  0  0  0  0  0  0  0  0  0  0
    9.5426   -4.5618   23.7797 H   0  0  0  0  0  0  0  0  0  0  0  0
    7.1914   -1.8824   26.1903 H   0  0  0  0  0  0  0  0  0  0  0  0
   10.2669   -2.6745   22.3854 H   0  0  0  0  0  0  0  0  0  0  0  0
    7.8690   -0.0020   24.7587 H   0  0  0  0  0  0  0  0  0  0  0  0
   13.4046    1.9655   23.0429 H   0  0  0  0  0  0  0  0  0  0  0  0
    8.4186   -0.8125   18.0399 H   0  0  0  0  0  0  0  0  0  0  0  0
   11.8240   -2.0476   23.1325 H   0  0  0  0  0  0  0  0  0  0  0  0
    7.2681   -5.8807   28.8239 H   0  0  0  0  0  0  0  0  0  0  0  0
    7.5891   -4.4101   29.7448 H   0  0  0  0  0  0  0  0  0  0  0  0
    9.3554   -3.7320   28.1920 H   0  0  0  0  0  0  0  0  0  0  0  0
    9.6558   -5.3943   28.6900 H   0  0  0  0  0  0  0  0  0  0  0  0
    5.5496   -4.2322   28.2751 H   0  0  0  0  0  0  0  0  0  0  0  0
    6.7545   -2.9948   27.9293 H   0  0  0  0  0  0  0  0  0  0  0  0
    9.9612   -5.0560   26.2363 H   0  0  0  0  0  0  0  0  0  0  0  0
    8.7097   -6.2583   26.5922 H   0  0  0  0  0  0  0  0  0  0  0  0
    6.2649   -5.5600   26.3335 H   0  0  0  0  0  0  0  0  0  0  0  0
    5.9271   -3.8964   25.8283 H   0  0  0  0  0  0  0  0  0  0  0  0
   14.6779   -2.5502   21.7499 H   0  0  0  0  0  0  0  0  0  0  0  0
   15.5845   -2.0810   23.2280 H   0  0  0  0  0  0  0  0  0  0  0  0
   14.1515   -3.1308   23.3670 H   0  0  0  0  0  0  0  0  0  0  0  0
    7.4659   -1.2025   21.6292 H   0  0  0  0  0  0  0  0  0  0  0  0
    8.6969   -1.5747   20.4087 H   0  0  0  0  0  0  0  0  0  0  0  0
   10.4132    0.8720   24.3923 H   0  0  0  0  0  0  0  0  0  0  0  0
   10.5688    1.7398   22.8644 H   0  0  0  0  0  0  0  0  0  0  0  0
    6.6719    0.4860   16.8043 H   0  0  0  0  0  0  0  0  0  0  0  0
  1  2  1  0  0  0  0
  1  3  2  0  0  0  0
  2  4  2  0  0  0  0
  3 12  1  0  0  0  0
  4 15  1  0  0  0  0
  5  7  2  0  0  0  0
  5 16  1  0  0  0  0
  6  8  1  0  0  0  0
  6 16  2  0  0  0  0
  7 17  1  0  0  0  0
  8 17  2  0  0  0  0
  9 13  1  0  0  0  0
  9 27  2  0  0  0  0
 10 14  2  0  0  0  0
 10 28  1  0  0  0  0
 11 13  2  0  0  0  0
 11 29  1  0  0  0  0
 12 14  1  0  0  0  0
 12 15  2  0  0  0  0
 13 26  1  0  0  0  0
 14 25  1  0  0  0  0
 15 28  1  0  0  0  0
 16 30  1  0  0  0  0
 17 31  1  0  0  0  0
 18 25  1  0  0  0  0
 18 31  1  0  0  0  0
 18 32  2  0  0  0  0
 19 20  1  0  0  0  0
 19 21  1  0  0  0  0
 20 22  1  0  0  0  0
 21 23  1  0  0  0  0
 22 30  1  0  0  0  0
 23 30  1  0  0  0  0
 24 29  1  0  0  0  0
 26 31  1  0  0  0  0
 27 29  1  0  0  0  0
  1 33  1  0  0  0  0
  2 34  1  0  0  0  0
  3 35  1  0  0  0  0
  4 36  1  0  0  0  0
  5 37  1  0  0  0  0
  6 38  1  0  0  0  0
  7 39  1  0  0  0  0
  8 40  1  0  0  0  0
  9 41  1  0  0  0  0
 10 42  1  0  0  0  0
 11 43  1  0  0  0  0
 19 44  1  0  0  0  0
 19 45  1  0  0  0  0
 20 46  1  0  0  0  0
 20 47  1  0  0  0  0
 21 48  1  0  0  0  0
 21 49  1  0  0  0  0
 22 50  1  0  0  0  0
 22 51  1  0  0  0  0
 23 52  1  0  0  0  0
 23 53  1  0  0  0  0
 24 54  1  0  0  0  0
 24 55  1  0  0  0  0
 24 56  1  0  0  0  0
 25 57  1  0  0  0  0
 25 58  1  0  0  0  0
 26 59  1  0  0  0  0
 26 60  1  0  0  0  0
 28 61  1  0  0  0  0
M  END
> <clash_score>
0

> <docking_score>
-10.1388578414917

> <overlap_score>
0.9660855531692505

$$$$
BENZO_458_1
  -OEChem-08232013553D

 61 65  0     0  0  0  0  0  0999 V2000
    4.2460    1.7520   20.8250 C   0  0  0  0  0  0  0  0  0  0  0  0
    3.8860    2.1050   19.5250 C   0  0  0  0  0  0  0  0  0  0  0  0
   13.6221   -0.7726   25.1256 C   0  0  0  0  0  0  0  0  0  0  0  0
    5.3890    1.0010   21.0690 C   0  0  0  0  0  0  0  0  0  0  0  0
   12.4369   -0.0778   24.8846 C   0  0  0  0  0  0  0  0  0  0  0  0
    4.6610    1.7170   18.4380 C   0  0  0  0  0  0  0  0  0  0  0  0
    9.1890   -3.5540   24.0140 C   0  0  0  0  0  0  0  0  0  0  0  0
    7.8700   -2.0610   25.3550 C   0  0  0  0  0  0  0  0  0  0  0  0
    9.5890   -2.4950   23.2210 C   0  0  0  0  0  0  0  0  0  0  0  0
    8.2550   -1.0010   24.5520 C   0  0  0  0  0  0  0  0  0  0  0  0
   14.2989   -1.3844   24.0704 C   0  0  0  0  0  0  0  0  0  0  0  0
   12.6050   -0.6067   22.5332 C   0  0  0  0  0  0  0  0  0  0  0  0
    7.5840   -0.2700   18.5160 C   0  0  0  0  0  0  0  0  0  0  0  0
    6.1460    0.6070   19.9750 C   0  0  0  0  0  0  0  0  0  0  0  0
   11.9283    0.0051   23.5884 C   0  0  0  0  0  0  0  0  0  0  0  0
    7.2710   -0.1460   19.8310 C   0  0  0  0  0  0  0  0  0  0  0  0
    5.7970    0.9500   18.6730 C   0  0  0  0  0  0  0  0  0  0  0  0
    8.3450   -3.3440   25.0980 C   0  0  0  0  0  0  0  0  0  0  0  0
    9.1280   -1.2090   23.4870 C   0  0  0  0  0  0  0  0  0  0  0  0
   13.7903   -1.3015   22.7742 C   0  0  0  0  0  0  0  0  0  0  0  0
    9.0430    0.2380   21.4940 C   0  0  0  0  0  0  0  0  0  0  0  0
    7.5748   -4.8280   28.7278 C   0  0  0  0  0  0  0  0  0  0  0  0
    8.9776   -4.7555   28.1204 C   0  0  0  0  0  0  0  0  0  0  0  0
    6.5554   -4.0713   27.8732 C   0  0  0  0  0  0  0  0  0  0  0  0
    8.9620   -5.1961   26.6568 C   0  0  0  0  0  0  0  0  0  0  0  0
    6.6009   -4.5253   26.4110 C   0  0  0  0  0  0  0  0  0  0  0  0
    8.0950   -0.7700   20.8440 C   0  0  0  0  0  0  0  0  0  0  0  0
   10.6518    0.7520   23.3299 C   0  0  0  0  0  0  0  0  0  0  0  0
    6.7100    0.3850   17.8100 N   0  0  0  0  0  0  0  0  0  0  0  0
    7.9770   -4.4029   25.9162 N   0  0  0  0  0  0  0  0  0  0  0  0
    9.5820   -0.1080   22.7000 N   0  0  0  0  0  0  0  0  0  0  0  0
    9.2950    1.3000   20.9480 O   0  0  0  0  0  0  0  0  0  0  0  0
   14.6251   -2.0575   21.4729 Cl  0  0  0  0  0  0  0  0  0  0  0  0
    3.6210    2.0713   21.6574 H   0  0  0  0  0  0  0  0  0  0  0  0
    2.9855    2.6924   19.3616 H   0  0  0  0  0  0  0  0  0  0  0  0
   14.0177   -0.8370   26.1351 H   0  0  0  0  0  0  0  0  0  0  0  0
    5.6668    0.7411   22.0808 H   0  0  0  0  0  0  0  0  0  0  0  0
   11.9162    0.3957   25.7128 H   0  0  0  0  0  0  0  0  0  0  0  0
    4.3788    2.0100   17.4223 H   0  0  0  0  0  0  0  0  0  0  0  0
    9.5426   -4.5618   23.7797 H   0  0  0  0  0  0  0  0  0  0  0  0
    7.1914   -1.8824   26.1903 H   0  0  0  0  0  0  0  0  0  0  0  0
   10.2669   -2.6745   22.3854 H   0  0  0  0  0  0  0  0  0  0  0  0
    7.8690   -0.0020   24.7587 H   0  0  0  0  0  0  0  0  0  0  0  0
   15.2214   -1.9227   24.2731 H   0  0  0  0  0  0  0  0  0  0  0  0
   12.2046   -0.5388   21.5243 H   0  0  0  0  0  0  0  0  0  0  0  0
    8.4186   -0.8125   18.0399 H   0  0  0  0  0  0  0  0  0  0  0  0
    7.2681   -5.8807   28.8239 H   0  0  0  0  0  0  0  0  0  0  0  0
    7.5891   -4.4101   29.7448 H   0  0  0  0  0  0  0  0  0  0  0  0
    9.3554   -3.7320   28.1920 H   0  0  0  0  0  0  0  0  0  0  0  0
    9.6558   -5.3943   28.6900 H   0  0  0  0  0  0  0  0  0  0  0  0
    5.5496   -4.2322   28.2751 H   0  0  0  0  0  0  0  0  0  0  0  0
    6.7545   -2.9948   27.9293 H   0  0  0  0  0  0  0  0  0  0  0  0
    9.9612   -5.0560   26.2363 H   0  0  0  0  0  0  0  0  0  0  0  0
    8.7097   -6.2583   26.5922 H   0  0  0  0  0  0  0  0  0  0  0  0
    6.2649   -5.5600   26.3335 H   0  0  0  0  0  0  0  0  0  0  0  0
    5.9271   -3.8964   25.8283 H   0  0  0  0  0  0  0  0  0  0  0  0
    7.4659   -1.2025   21.6292 H   0  0  0  0  0  0  0  0  0  0  0  0
    8.6969   -1.5747   20.4087 H   0  0  0  0  0  0  0  0  0  0  0  0
   10.2524    1.1679   24.2614 H   0  0  0  0  0  0  0  0  0  0  0  0
   10.8186    1.5899   22.6448 H   0  0  0  0  0  0  0  0  0  0  0  0
    6.6719    0.4860   16.8043 H   0  0  0  0  0  0  0  0  0  0  0  0
  1  2  1  0  0  0  0
  1  4  2  0  0  0  0
  2  6  2  0  0  0  0
  3  5  2  0  0  0  0
  3 11  1  0  0  0  0
  4 14  1  0  0  0  0
  5 15  1  0  0  0  0
  6 17  1  0  0  0  0
  7  9  2  0  0  0  0
  7 18  1  0  0  0  0
  8 10  1  0  0  0  0
  8 18  2  0  0  0  0
  9 19  1  0  0  0  0
 10 19  2  0  0  0  0
 11 20  2  0  0  0  0
 12 15  2  0  0  0  0
 12 20  1  0  0  0  0
 13 16  2  0  0  0  0
 13 29  1  0  0  0  0
 14 16  1  0  0  0  0
 14 17  2  0  0  0  0
 15 28  1  0  0  0  0
 16 27  1  0  0  0  0
 17 29  1  0  0  0  0
 18 30  1  0  0  0  0
 19 31  1  0  0  0  0
 20 33  1  0  0  0  0
 21 27  1  0  0  0  0
 21 31  1  0  0  0  0
 21 32  2  0  0  0  0
 22 23  1  0  0  0  0
 22 24  1  0  0  0  0
 23 25  1  0  0  0  0
 24 26  1  0  0  0  0
 25 30  1  0  0  0  0
 26 30  1  0  0  0  0
 28 31  1  0  0  0  0
  1 34  1  0  0  0  0
  2 35  1  0  0  0  0
  3 36  1  0  0  0  0
  4 37  1  0  0  0  0
  5 38  1  0  0  0  0
  6 39  1  0  0  0  0
  7 40  1  0  0  0  0
  8 41  1  0  0  0  0
  9 42  1  0  0  0  0
 10 43  1  0  0  0  0
 11 44  1  0  0  0  0
 12 45  1  0  0  0  0
 13 46  1  0  0  0  0
 22 47  1  0  0  0  0
 22 48  1  0  0  0  0
 23 49  1  0  0  0  0
 23 50  1  0  0  0  0
 24 51  1  0  0  0  0
 24 52  1  0  0  0  0
 25 53  1  0  0  0  0
 25 54  1  0  0  0  0
 26 55  1  0  0  0  0
 26 56  1  0  0  0  0
 27 57  1  0  0  0  0
 27 58  1  0  0  0  0
 28 59  1  0  0  0  0
 28 60  1  0  0  0  0
 29 61  1  0  0  0  0
M  END
> <clash_score>
0

> <docking_score>
-8.545072555541992

> <overlap_score>
0.989267110824585

$$$$
BENZO_462_1
  -OEChem-08232013563D

 49 52  0     0  0  0  0  0  0999 V2000
    4.2460    1.7520   20.8250 C   0  0  0  0  0  0  0  0  0  0  0  0
    3.8860    2.1050   19.5250 C   0  0  0  0  0  0  0  0  0  0  0  0
   13.6992   -1.0584   24.8603 C   0  0  0  0  0  0  0  0  0  0  0  0
    5.3890    1.0010   21.0690 C   0  0  0  0  0  0  0  0  0  0  0  0
   12.5468   -0.2879   24.7065 C   0  0  0  0  0  0  0  0  0  0  0  0
    9.1890   -3.5540   24.0140 C   0  0  0  0  0  0  0  0  0  0  0  0
    7.8700   -2.0610   25.3550 C   0  0  0  0  0  0  0  0  0  0  0  0
    4.6610    1.7170   18.4380 C   0  0  0  0  0  0  0  0  0  0  0  0
    9.5890   -2.4950   23.2210 C   0  0  0  0  0  0  0  0  0  0  0  0
    8.2550   -1.0010   24.5520 C   0  0  0  0  0  0  0  0  0  0  0  0
   14.2795   -1.6744   23.7515 C   0  0  0  0  0  0  0  0  0  0  0  0
   12.5546   -0.7496   22.3350 C   0  0  0  0  0  0  0  0  0  0  0  0
    7.5840   -0.2700   18.5160 C   0  0  0  0  0  0  0  0  0  0  0  0
    6.1460    0.6070   19.9750 C   0  0  0  0  0  0  0  0  0  0  0  0
    8.3450   -3.3440   25.0980 C   0  0  0  0  0  0  0  0  0  0  0  0
   11.9744   -0.1335   23.4439 C   0  0  0  0  0  0  0  0  0  0  0  0
    7.2710   -0.1460   19.8310 C   0  0  0  0  0  0  0  0  0  0  0  0
    5.7970    0.9500   18.6730 C   0  0  0  0  0  0  0  0  0  0  0  0
    9.1280   -1.2090   23.4870 C   0  0  0  0  0  0  0  0  0  0  0  0
   13.7072   -1.5200   22.4888 C   0  0  0  0  0  0  0  0  0  0  0  0
    9.0430    0.2380   21.4940 C   0  0  0  0  0  0  0  0  0  0  0  0
    7.9522   -4.4794   25.9764 C   0  0  0  0  0  0  0  0  0  0  0  0
    8.0950   -0.7700   20.8440 C   0  0  0  0  0  0  0  0  0  0  0  0
   10.7332    0.6950   23.2793 C   0  0  0  0  0  0  0  0  0  0  0  0
    6.7100    0.3850   17.8100 N   0  0  0  0  0  0  0  0  0  0  0  0
    9.5820   -0.1080   22.7000 N   0  0  0  0  0  0  0  0  0  0  0  0
    9.2950    1.3000   20.9480 O   0  0  0  0  0  0  0  0  0  0  0  0
   14.4228   -2.2813   21.1213 Cl  0  0  0  0  0  0  0  0  0  0  0  0
    3.6210    2.0713   21.6574 H   0  0  0  0  0  0  0  0  0  0  0  0
    2.9855    2.6924   19.3616 H   0  0  0  0  0  0  0  0  0  0  0  0
   14.1445   -1.1785   25.8437 H   0  0  0  0  0  0  0  0  0  0  0  0
    5.6668    0.7411   22.0808 H   0  0  0  0  0  0  0  0  0  0  0  0
   12.1014    0.1884   25.5761 H   0  0  0  0  0  0  0  0  0  0  0  0
    9.5403   -4.5627   23.7809 H   0  0  0  0  0  0  0  0  0  0  0  0
    7.1911   -1.8848   26.1904 H   0  0  0  0  0  0  0  0  0  0  0  0
    4.3788    2.0100   17.4223 H   0  0  0  0  0  0  0  0  0  0  0  0
   10.2682   -2.6746   22.3865 H   0  0  0  0  0  0  0  0  0  0  0  0
    7.8684   -0.0022   24.7594 H   0  0  0  0  0  0  0  0  0  0  0  0
   15.1775   -2.2723   23.8863 H   0  0  0  0  0  0  0  0  0  0  0  0
   12.1048   -0.6257   21.3526 H   0  0  0  0  0  0  0  0  0  0  0  0
    8.4186   -0.8125   18.0399 H   0  0  0  0  0  0  0  0  0  0  0  0
    8.6668   -4.5891   26.8013 H   0  0  0  0  0  0  0  0  0  0  0  0
    6.9513   -4.3276   26.4010 H   0  0  0  0  0  0  0  0  0  0  0  0
    7.9196   -5.4231   25.4163 H   0  0  0  0  0  0  0  0  0  0  0  0
    7.4761   -1.2062   21.6405 H   0  0  0  0  0  0  0  0  0  0  0  0
    8.7071   -1.5784   20.4200 H   0  0  0  0  0  0  0  0  0  0  0  0
   10.4108    1.1033   24.2434 H   0  0  0  0  0  0  0  0  0  0  0  0
   10.9128    1.5434   22.6105 H   0  0  0  0  0  0  0  0  0  0  0  0
    6.6719    0.4860   16.8043 H   0  0  0  0  0  0  0  0  0  0  0  0
  1  2  1  0  0  0  0
  1  4  2  0  0  0  0
  2  8  2  0  0  0  0
  3  5  2  0  0  0  0
  3 11  1  0  0  0  0
  4 14  1  0  0  0  0
  5 16  1  0  0  0  0
  6  9  2  0  0  0  0
  6 15  1  0  0  0  0
  7 10  1  0  0  0  0
  7 15  2  0  0  0  0
  8 18  1  0  0  0  0
  9 19  1  0  0  0  0
 10 19  2  0  0  0  0
 11 20  2  0  0  0  0
 12 16  2  0  0  0  0
 12 20  1  0  0  0  0
 13 17  2  0  0  0  0
 13 25  1  0  0  0  0
 14 17  1  0  0  0  0
 14 18  2  0  0  0  0
 15 22  1  0  0  0  0
 16 24  1  0  0  0  0
 17 23  1  0  0  0  0
 18 25  1  0  0  0  0
 19 26  1  0  0  0  0
 20 28  1  0  0  0  0
 21 23  1  0  0  0  0
 21 26  1  0  0  0  0
 21 27  2  0  0  0  0
 24 26  1  0  0  0  0
  1 29  1  0  0  0  0
  2 30  1  0  0  0  0
  3 31  1  0  0  0  0
  4 32  1  0  0  0  0
  5 33  1  0  0  0  0
  6 34  1  0  0  0  0
  7 35  1  0  0  0  0
  8 36  1  0  0  0  0
  9 37  1  0  0  0  0
 10 38  1  0  0  0  0
 11 39  1  0  0  0  0
 12 40  1  0  0  0  0
 13 41  1  0  0  0  0
 22 42  1  0  0  0  0
 22 43  1  0  0  0  0
 22 44  1  0  0  0  0
 23 45  1  0  0  0  0
 23 46  1  0  0  0  0
 24 47  1  0  0  0  0
 24 48  1  0  0  0  0
 25 49  1  0  0  0  0
M  END
> <clash_score>
0

> <docking_score>
-8.159667015075684

> <overlap_score>
0.9065707325935364

$$$$
BENZO_463_1
  -OEChem-08232013563D

 49 52  0     0  0  0  0  0  0999 V2000
    4.2460    1.7520   20.8250 C   0  0  0  0  0  0  0  0  0  0  0  0
    3.8860    2.1050   19.5250 C   0  0  0  0  0  0  0  0  0  0  0  0
    5.3890    1.0010   21.0690 C   0  0  0  0  0  0  0  0  0  0  0  0
    9.1890   -3.5540   24.0140 C   0  0  0  0  0  0  0  0  0  0  0  0
    7.8700   -2.0610   25.3550 C   0  0  0  0  0  0  0  0  0  0  0  0
    4.6610    1.7170   18.4380 C   0  0  0  0  0  0  0  0  0  0  0  0
    9.5890   -2.4950   23.2210 C   0  0  0  0  0  0  0  0  0  0  0  0
    8.2550   -1.0010   24.5520 C   0  0  0  0  0  0  0  0  0  0  0  0
   12.6851   -0.3985   24.6298 C   0  0  0  0  0  0  0  0  0  0  0  0
    7.5840   -0.2700   18.5160 C   0  0  0  0  0  0  0  0  0  0  0  0
   12.6702   -0.8059   22.4691 C   0  0  0  0  0  0  0  0  0  0  0  0
    6.1460    0.6070   19.9750 C   0  0  0  0  0  0  0  0  0  0  0  0
    8.3450   -3.3440   25.0980 C   0  0  0  0  0  0  0  0  0  0  0  0
   11.9744   -0.1335   23.4439 C   0  0  0  0  0  0  0  0  0  0  0  0
    7.2710   -0.1460   19.8310 C   0  0  0  0  0  0  0  0  0  0  0  0
    5.7970    0.9500   18.6730 C   0  0  0  0  0  0  0  0  0  0  0  0
    9.1280   -1.2090   23.4870 C   0  0  0  0  0  0  0  0  0  0  0  0
    9.0430    0.2380   21.4940 C   0  0  0  0  0  0  0  0  0  0  0  0
    7.9522   -4.4794   25.9764 C   0  0  0  0  0  0  0  0  0  0  0  0
   14.7291   -2.2338   22.4940 C   0  0  0  0  0  0  0  0  0  0  0  0
    8.0950   -0.7700   20.8440 C   0  0  0  0  0  0  0  0  0  0  0  0
   10.7332    0.6950   23.2793 C   0  0  0  0  0  0  0  0  0  0  0  0
   13.7506   -1.1786   24.4291 N   0  0  0  0  0  0  0  0  0  0  0  0
    6.7100    0.3850   17.8100 N   0  0  0  0  0  0  0  0  0  0  0  0
   13.7145   -1.4096   23.1057 N   0  0  0  0  0  0  0  0  0  0  0  0
    9.5820   -0.1080   22.7000 N   0  0  0  0  0  0  0  0  0  0  0  0
    9.2950    1.3000   20.9480 O   0  0  0  0  0  0  0  0  0  0  0  0
    3.6210    2.0713   21.6574 H   0  0  0  0  0  0  0  0  0  0  0  0
    2.9855    2.6924   19.3616 H   0  0  0  0  0  0  0  0  0  0  0  0
    5.6668    0.7411   22.0808 H   0  0  0  0  0  0  0  0  0  0  0  0
    9.5403   -4.5627   23.7809 H   0  0  0  0  0  0  0  0  0  0  0  0
    7.1911   -1.8848   26.1904 H   0  0  0  0  0  0  0  0  0  0  0  0
    4.3788    2.0100   17.4223 H   0  0  0  0  0  0  0  0  0  0  0  0
   10.2682   -2.6746   22.3865 H   0  0  0  0  0  0  0  0  0  0  0  0
    7.8684   -0.0022   24.7594 H   0  0  0  0  0  0  0  0  0  0  0  0
   12.4725   -0.0576   25.6332 H   0  0  0  0  0  0  0  0  0  0  0  0
    8.4186   -0.8125   18.0399 H   0  0  0  0  0  0  0  0  0  0  0  0
   12.5143   -0.9049   21.4034 H   0  0  0  0  0  0  0  0  0  0  0  0
    8.6668   -4.5891   26.8013 H   0  0  0  0  0  0  0  0  0  0  0  0
    6.9513   -4.3276   26.4010 H   0  0  0  0  0  0  0  0  0  0  0  0
    7.9196   -5.4231   25.4163 H   0  0  0  0  0  0  0  0  0  0  0  0
   15.5528   -1.5834   22.1882 H   0  0  0  0  0  0  0  0  0  0  0  0
   15.0773   -2.9782   23.2155 H   0  0  0  0  0  0  0  0  0  0  0  0
   14.3036   -2.7470   21.6271 H   0  0  0  0  0  0  0  0  0  0  0  0
    7.4761   -1.2062   21.6405 H   0  0  0  0  0  0  0  0  0  0  0  0
    8.7071   -1.5784   20.4200 H   0  0  0  0  0  0  0  0  0  0  0  0
   10.4108    1.1033   24.2434 H   0  0  0  0  0  0  0  0  0  0  0  0
   10.9128    1.5434   22.6105 H   0  0  0  0  0  0  0  0  0  0  0  0
    6.6719    0.4860   16.8043 H   0  0  0  0  0  0  0  0  0  0  0  0
  1  2  1  0  0  0  0
  1  3  2  0  0  0  0
  2  6  2  0  0  0  0
  3 12  1  0  0  0  0
  4  7  2  0  0  0  0
  4 13  1  0  0  0  0
  5  8  1  0  0  0  0
  5 13  2  0  0  0  0
  6 16  1  0  0  0  0
  7 17  1  0  0  0  0
  8 17  2  0  0  0  0
  9 14  1  0  0  0  0
  9 23  2  0  0  0  0
 10 15  2  0  0  0  0
 10 24  1  0  0  0  0
 11 14  2  0  0  0  0
 11 25  1  0  0  0  0
 12 15  1  0  0  0  0
 12 16  2  0  0  0  0
 13 19  1  0  0  0  0
 14 22  1  0  0  0  0
 15 21  1  0  0  0  0
 16 24  1  0  0  0  0
 17 26  1  0  0  0  0
 18 21  1  0  0  0  0
 18 26  1  0  0  0  0
 18 27  2  0  0  0  0
 20 25  1  0  0  0  0
 22 26  1  0  0  0  0
 23 25  1  0  0  0  0
  1 28  1  0  0  0  0
  2 29  1  0  0  0  0
  3 30  1  0  0  0  0
  4 31  1  0  0  0  0
  5 32  1  0  0  0  0
  6 33  1  0  0  0  0
  7 34  1  0  0  0  0
  8 35  1  0  0  0  0
  9 36  1  0  0  0  0
 10 37  1  0  0  0  0
 11 38  1  0  0  0  0
 19 39  1  0  0  0  0
 19 40  1  0  0  0  0
 19 41  1  0  0  0  0
 20 42  1  0  0  0  0
 20 43  1  0  0  0  0
 20 44  1  0  0  0  0
 21 45  1  0  0  0  0
 21 46  1  0  0  0  0
 22 47  1  0  0  0  0
 22 48  1  0  0  0  0
 24 49  1  0  0  0  0
M  END
> <clash_score>
0

> <docking_score>
-7.684930801391602

> <overlap_score>
0.901060163974762

$$$$
BENZO_465_1
  -OEChem-08232013563D

 50 53  0     0  0  0  0  0  0999 V2000
   14.2801   -1.6740   23.7490 C   0  0  0  0  0  0  0  0  0  0  0  0
    4.2460    1.7520   20.8250 C   0  0  0  0  0  0  0  0  0  0  0  0
   14.0336   -0.6087   24.6149 C   0  0  0  0  0  0  0  0  0  0  0  0
   13.3739   -1.9691   22.7304 C   0  0  0  0  0  0  0  0  0  0  0  0
    3.8860    2.1050   19.5250 C   0  0  0  0  0  0  0  0  0  0  0  0
    5.3890    1.0010   21.0690 C   0  0  0  0  0  0  0  0  0  0  0  0
   12.8807    0.1616   24.4624 C   0  0  0  0  0  0  0  0  0  0  0  0
   12.2211   -1.1988   22.5779 C   0  0  0  0  0  0  0  0  0  0  0  0
    4.6610    1.7170   18.4380 C   0  0  0  0  0  0  0  0  0  0  0  0
    9.5890   -2.4950   23.2210 C   0  0  0  0  0  0  0  0  0  0  0  0
    8.2550   -1.0010   24.5520 C   0  0  0  0  0  0  0  0  0  0  0  0
    9.1890   -3.5540   24.0140 C   0  0  0  0  0  0  0  0  0  0  0  0
    7.8700   -2.0610   25.3550 C   0  0  0  0  0  0  0  0  0  0  0  0
    7.5840   -0.2700   18.5160 C   0  0  0  0  0  0  0  0  0  0  0  0
    6.1460    0.6070   19.9750 C   0  0  0  0  0  0  0  0  0  0  0  0
   11.9744   -0.1335   23.4439 C   0  0  0  0  0  0  0  0  0  0  0  0
    7.2710   -0.1460   19.8310 C   0  0  0  0  0  0  0  0  0  0  0  0
    5.7970    0.9500   18.6730 C   0  0  0  0  0  0  0  0  0  0  0  0
    9.1280   -1.2090   23.4870 C   0  0  0  0  0  0  0  0  0  0  0  0
    8.3450   -3.3440   25.0980 C   0  0  0  0  0  0  0  0  0  0  0  0
    9.0430    0.2380   21.4940 C   0  0  0  0  0  0  0  0  0  0  0  0
    8.5124   -5.6657   25.5743 C   0  0  0  0  0  0  0  0  0  0  0  0
    8.0950   -0.7700   20.8440 C   0  0  0  0  0  0  0  0  0  0  0  0
   10.7332    0.6950   23.2793 C   0  0  0  0  0  0  0  0  0  0  0  0
    6.7100    0.3850   17.8100 N   0  0  0  0  0  0  0  0  0  0  0  0
    9.5820   -0.1080   22.7000 N   0  0  0  0  0  0  0  0  0  0  0  0
    9.2950    1.3000   20.9480 O   0  0  0  0  0  0  0  0  0  0  0  0
    7.9864   -4.3799   25.8996 O   0  0  0  0  0  0  0  0  0  0  0  0
   15.1785   -2.2728   23.8671 H   0  0  0  0  0  0  0  0  0  0  0  0
    3.6210    2.0713   21.6574 H   0  0  0  0  0  0  0  0  0  0  0  0
   14.7396   -0.3781   25.4074 H   0  0  0  0  0  0  0  0  0  0  0  0
   13.5661   -2.7977   22.0554 H   0  0  0  0  0  0  0  0  0  0  0  0
    2.9855    2.6924   19.3616 H   0  0  0  0  0  0  0  0  0  0  0  0
    5.6668    0.7411   22.0808 H   0  0  0  0  0  0  0  0  0  0  0  0
   12.6967    0.9896   25.1419 H   0  0  0  0  0  0  0  0  0  0  0  0
   11.5206   -1.4362   21.7816 H   0  0  0  0  0  0  0  0  0  0  0  0
    4.3788    2.0100   17.4223 H   0  0  0  0  0  0  0  0  0  0  0  0
   10.2678   -2.6746   22.3862 H   0  0  0  0  0  0  0  0  0  0  0  0
    7.8691   -0.0023   24.7606 H   0  0  0  0  0  0  0  0  0  0  0  0
    9.5404   -4.5633   23.7846 H   0  0  0  0  0  0  0  0  0  0  0  0
    7.1920   -1.8875   26.1914 H   0  0  0  0  0  0  0  0  0  0  0  0
    8.4186   -0.8125   18.0399 H   0  0  0  0  0  0  0  0  0  0  0  0
    8.1469   -6.4023   26.2939 H   0  0  0  0  0  0  0  0  0  0  0  0
    9.6045   -5.6298   25.5962 H   0  0  0  0  0  0  0  0  0  0  0  0
    8.1789   -5.9428   24.5715 H   0  0  0  0  0  0  0  0  0  0  0  0
    7.4761   -1.2062   21.6405 H   0  0  0  0  0  0  0  0  0  0  0  0
    8.7071   -1.5784   20.4200 H   0  0  0  0  0  0  0  0  0  0  0  0
   10.4108    1.1033   24.2434 H   0  0  0  0  0  0  0  0  0  0  0  0
   10.9128    1.5434   22.6105 H   0  0  0  0  0  0  0  0  0  0  0  0
    6.6719    0.4860   16.8043 H   0  0  0  0  0  0  0  0  0  0  0  0
  1  3  1  0  0  0  0
  1  4  2  0  0  0  0
  2  5  1  0  0  0  0
  2  6  2  0  0  0  0
  3  7  2  0  0  0  0
  4  8  1  0  0  0  0
  5  9  2  0  0  0  0
  6 15  1  0  0  0  0
  7 16  1  0  0  0  0
  8 16  2  0  0  0  0
  9 18  1  0  0  0  0
 10 12  2  0  0  0  0
 10 19  1  0  0  0  0
 11 13  1  0  0  0  0
 11 19  2  0  0  0  0
 12 20  1  0  0  0  0
 13 20  2  0  0  0  0
 14 17  2  0  0  0  0
 14 25  1  0  0  0  0
 15 17  1  0  0  0  0
 15 18  2  0  0  0  0
 16 24  1  0  0  0  0
 17 23  1  0  0  0  0
 18 25  1  0  0  0  0
 19 26  1  0  0  0  0
 20 28  1  0  0  0  0
 21 23  1  0  0  0  0
 21 26  1  0  0  0  0
 21 27  2  0  0  0  0
 22 28  1  0  0  0  0
 24 26  1  0  0  0  0
  1 29  1  0  0  0  0
  2 30  1  0  0  0  0
  3 31  1  0  0  0  0
  4 32  1  0  0  0  0
  5 33  1  0  0  0  0
  6 34  1  0  0  0  0
  7 35  1  0  0  0  0
  8 36  1  0  0  0  0
  9 37  1  0  0  0  0
 10 38  1  0  0  0  0
 11 39  1  0  0  0  0
 12 40  1  0  0  0  0
 13 41  1  0  0  0  0
 14 42  1  0  0  0  0
 22 43  1  0  0  0  0
 22 44  1  0  0  0  0
 22 45  1  0  0  0  0
 23 46  1  0  0  0  0
 23 47  1  0  0  0  0
 24 48  1  0  0  0  0
 24 49  1  0  0  0  0
 25 50  1  0  0  0  0
M  END
> <clash_score>
0

> <docking_score>
-9.25057601928711

> <overlap_score>
0.9113326072692871

$$$$
BENZO_464_1
  -OEChem-08232013563D

 47 50  0     0  0  0  0  0  0999 V2000
    4.2460    1.7520   20.8250 C   0  0  0  0  0  0  0  0  0  0  0  0
    3.8860    2.1050   19.5250 C   0  0  0  0  0  0  0  0  0  0  0  0
    5.3890    1.0010   21.0690 C   0  0  0  0  0  0  0  0  0  0  0  0
    4.6610    1.7170   18.4380 C   0  0  0  0  0  0  0  0  0  0  0  0
    9.5890   -2.4950   23.2210 C   0  0  0  0  0  0  0  0  0  0  0  0
    8.2550   -1.0010   24.5520 C   0  0  0  0  0  0  0  0  0  0  0  0
    9.1890   -3.5540   24.0140 C   0  0  0  0  0  0  0  0  0  0  0  0
    7.8700   -2.0610   25.3550 C   0  0  0  0  0  0  0  0  0  0  0  0
   12.6349   -0.7972   22.3699 C   0  0  0  0  0  0  0  0  0  0  0  0
    7.5840   -0.2700   18.5160 C   0  0  0  0  0  0  0  0  0  0  0  0
   13.7483   -1.4880   22.7950 C   0  0  0  0  0  0  0  0  0  0  0  0
   12.6081   -0.3426   24.6492 C   0  0  0  0  0  0  0  0  0  0  0  0
    6.1460    0.6070   19.9750 C   0  0  0  0  0  0  0  0  0  0  0  0
   11.9744   -0.1335   23.4439 C   0  0  0  0  0  0  0  0  0  0  0  0
    7.2710   -0.1460   19.8310 C   0  0  0  0  0  0  0  0  0  0  0  0
    5.7970    0.9500   18.6730 C   0  0  0  0  0  0  0  0  0  0  0  0
    9.1280   -1.2090   23.4870 C   0  0  0  0  0  0  0  0  0  0  0  0
    8.3450   -3.3440   25.0980 C   0  0  0  0  0  0  0  0  0  0  0  0
    9.0430    0.2380   21.4940 C   0  0  0  0  0  0  0  0  0  0  0  0
    8.5124   -5.6657   25.5743 C   0  0  0  0  0  0  0  0  0  0  0  0
    8.0950   -0.7700   20.8440 C   0  0  0  0  0  0  0  0  0  0  0  0
   10.7332    0.6950   23.2793 C   0  0  0  0  0  0  0  0  0  0  0  0
    6.7100    0.3850   17.8100 N   0  0  0  0  0  0  0  0  0  0  0  0
    9.5820   -0.1080   22.7000 N   0  0  0  0  0  0  0  0  0  0  0  0
    9.2950    1.3000   20.9480 O   0  0  0  0  0  0  0  0  0  0  0  0
    7.9864   -4.3799   25.8996 O   0  0  0  0  0  0  0  0  0  0  0  0
   13.9935   -1.3351   24.4829 S   0  0  0  0  0  0  0  0  0  0  0  0
    3.6210    2.0713   21.6574 H   0  0  0  0  0  0  0  0  0  0  0  0
    2.9855    2.6924   19.3616 H   0  0  0  0  0  0  0  0  0  0  0  0
    5.6668    0.7411   22.0808 H   0  0  0  0  0  0  0  0  0  0  0  0
    4.3788    2.0100   17.4223 H   0  0  0  0  0  0  0  0  0  0  0  0
   10.2678   -2.6746   22.3862 H   0  0  0  0  0  0  0  0  0  0  0  0
    7.8691   -0.0023   24.7606 H   0  0  0  0  0  0  0  0  0  0  0  0
    9.5404   -4.5633   23.7846 H   0  0  0  0  0  0  0  0  0  0  0  0
    7.1920   -1.8875   26.1914 H   0  0  0  0  0  0  0  0  0  0  0  0
   12.3129   -0.7721   21.3365 H   0  0  0  0  0  0  0  0  0  0  0  0
    8.4186   -0.8125   18.0399 H   0  0  0  0  0  0  0  0  0  0  0  0
   14.4290   -2.0756   22.1955 H   0  0  0  0  0  0  0  0  0  0  0  0
   12.3265    0.0371   25.6216 H   0  0  0  0  0  0  0  0  0  0  0  0
    8.1469   -6.4023   26.2939 H   0  0  0  0  0  0  0  0  0  0  0  0
    9.6045   -5.6298   25.5962 H   0  0  0  0  0  0  0  0  0  0  0  0
    8.1789   -5.9428   24.5715 H   0  0  0  0  0  0  0  0  0  0  0  0
    7.4761   -1.2062   21.6405 H   0  0  0  0  0  0  0  0  0  0  0  0
    8.7071   -1.5784   20.4200 H   0  0  0  0  0  0  0  0  0  0  0  0
   10.4108    1.1033   24.2434 H   0  0  0  0  0  0  0  0  0  0  0  0
   10.9128    1.5434   22.6105 H   0  0  0  0  0  0  0  0  0  0  0  0
    6.6719    0.4860   16.8043 H   0  0  0  0  0  0  0  0  0  0  0  0
  1  2  1  0  0  0  0
  1  3  2  0  0  0  0
  2  4  2  0  0  0  0
  3 13  1  0  0  0  0
  4 16  1  0  0  0  0
  5  7  2  0  0  0  0
  5 17  1  0  0  0  0
  6  8  1  0  0  0  0
  6 17  2  0  0  0  0
  7 18  1  0  0  0  0
  8 18  2  0  0  0  0
  9 11  2  0  0  0  0
  9 14  1  0  0  0  0
 10 15  2  0  0  0  0
 10 23  1  0  0  0  0
 11 27  1  0  0  0  0
 12 14  2  0  0  0  0
 12 27  1  0  0  0  0
 13 15  1  0  0  0  0
 13 16  2  0  0  0  0
 14 22  1  0  0  0  0
 15 21  1  0  0  0  0
 16 23  1  0  0  0  0
 17 24  1  0  0  0  0
 18 26  1  0  0  0  0
 19 21  1  0  0  0  0
 19 24  1  0  0  0  0
 19 25  2  0  0  0  0
 20 26  1  0  0  0  0
 22 24  1  0  0  0  0
  1 28  1  0  0  0  0
  2 29  1  0  0  0  0
  3 30  1  0  0  0  0
  4 31  1  0  0  0  0
  5 32  1  0  0  0  0
  6 33  1  0  0  0  0
  7 34  1  0  0  0  0
  8 35  1  0  0  0  0
  9 36  1  0  0  0  0
 10 37  1  0  0  0  0
 11 38  1  0  0  0  0
 12 39  1  0  0  0  0
 20 40  1  0  0  0  0
 20 41  1  0  0  0  0
 20 42  1  0  0  0  0
 21 43  1  0  0  0  0
 21 44  1  0  0  0  0
 22 45  1  0  0  0  0
 22 46  1  0  0  0  0
 23 47  1  0  0  0  0
M  END
> <clash_score>
0

> <docking_score>
-8.781307220458984

> <overlap_score>
0.899098813533783

$$$$
BENZO_467_1
  -OEChem-08232013563D

 50 53  0     0  0  0  0  0  0999 V2000
    4.2460    1.7520   20.8250 C   0  0  0  0  0  0  0  0  0  0  0  0
    3.8860    2.1050   19.5250 C   0  0  0  0  0  0  0  0  0  0  0  0
    5.3890    1.0010   21.0690 C   0  0  0  0  0  0  0  0  0  0  0  0
    4.6610    1.7170   18.4380 C   0  0  0  0  0  0  0  0  0  0  0  0
    9.5890   -2.4950   23.2210 C   0  0  0  0  0  0  0  0  0  0  0  0
    8.2550   -1.0010   24.5520 C   0  0  0  0  0  0  0  0  0  0  0  0
    9.1890   -3.5540   24.0140 C   0  0  0  0  0  0  0  0  0  0  0  0
    7.8700   -2.0610   25.3550 C   0  0  0  0  0  0  0  0  0  0  0  0
   13.3021    0.3461   23.6091 C   0  0  0  0  0  0  0  0  0  0  0  0
    7.5840   -0.2700   18.5160 C   0  0  0  0  0  0  0  0  0  0  0  0
   12.3433   -0.9532   22.1166 C   0  0  0  0  0  0  0  0  0  0  0  0
    6.1460    0.6070   19.9750 C   0  0  0  0  0  0  0  0  0  0  0  0
   12.0633    0.0538   23.0076 C   0  0  0  0  0  0  0  0  0  0  0  0
    7.2710   -0.1460   19.8310 C   0  0  0  0  0  0  0  0  0  0  0  0
    5.7970    0.9500   18.6730 C   0  0  0  0  0  0  0  0  0  0  0  0
    9.1280   -1.2090   23.4870 C   0  0  0  0  0  0  0  0  0  0  0  0
    8.3450   -3.3440   25.0980 C   0  0  0  0  0  0  0  0  0  0  0  0
    9.0430    0.2380   21.4940 C   0  0  0  0  0  0  0  0  0  0  0  0
   14.4428   -2.1721   21.4960 C   0  0  0  0  0  0  0  0  0  0  0  0
    7.1173   -4.0855   26.9922 C   0  0  0  0  0  0  0  0  0  0  0  0
    8.0950   -0.7700   20.8440 C   0  0  0  0  0  0  0  0  0  0  0  0
   10.7332    0.6950   23.2793 C   0  0  0  0  0  0  0  0  0  0  0  0
   14.2952   -0.4139   23.1399 N   0  0  0  0  0  0  0  0  0  0  0  0
    6.7100    0.3850   17.8100 N   0  0  0  0  0  0  0  0  0  0  0  0
   13.6807   -1.1937   22.2342 N   0  0  0  0  0  0  0  0  0  0  0  0
    9.5820   -0.1080   22.7000 N   0  0  0  0  0  0  0  0  0  0  0  0
    9.2950    1.3000   20.9480 O   0  0  0  0  0  0  0  0  0  0  0  0
    7.9864   -4.3799   25.8996 O   0  0  0  0  0  0  0  0  0  0  0  0
    3.6210    2.0713   21.6574 H   0  0  0  0  0  0  0  0  0  0  0  0
    2.9855    2.6924   19.3616 H   0  0  0  0  0  0  0  0  0  0  0  0
    5.6668    0.7411   22.0808 H   0  0  0  0  0  0  0  0  0  0  0  0
    4.3788    2.0100   17.4223 H   0  0  0  0  0  0  0  0  0  0  0  0
   10.2678   -2.6746   22.3862 H   0  0  0  0  0  0  0  0  0  0  0  0
    7.8691   -0.0023   24.7606 H   0  0  0  0  0  0  0  0  0  0  0  0
    9.5404   -4.5633   23.7846 H   0  0  0  0  0  0  0  0  0  0  0  0
    7.1920   -1.8875   26.1914 H   0  0  0  0  0  0  0  0  0  0  0  0
   13.5249    1.0801   24.3706 H   0  0  0  0  0  0  0  0  0  0  0  0
    8.4186   -0.8125   18.0399 H   0  0  0  0  0  0  0  0  0  0  0  0
   11.7202   -1.5063   21.4269 H   0  0  0  0  0  0  0  0  0  0  0  0
   14.8130   -1.6942   20.5852 H   0  0  0  0  0  0  0  0  0  0  0  0
   15.2771   -2.5226   22.1100 H   0  0  0  0  0  0  0  0  0  0  0  0
   13.7987   -3.0207   21.2491 H   0  0  0  0  0  0  0  0  0  0  0  0
    6.9108   -5.0013   27.5514 H   0  0  0  0  0  0  0  0  0  0  0  0
    6.1851   -3.6594   26.6128 H   0  0  0  0  0  0  0  0  0  0  0  0
    7.6053   -3.3620   27.6496 H   0  0  0  0  0  0  0  0  0  0  0  0
    7.4761   -1.2062   21.6405 H   0  0  0  0  0  0  0  0  0  0  0  0
    8.7071   -1.5784   20.4200 H   0  0  0  0  0  0  0  0  0  0  0  0
   10.5669    0.7974   24.3572 H   0  0  0  0  0  0  0  0  0  0  0  0
   10.6854    1.6996   22.8459 H   0  0  0  0  0  0  0  0  0  0  0  0
    6.6719    0.4860   16.8043 H   0  0  0  0  0  0  0  0  0  0  0  0
  1  2  1  0  0  0  0
  1  3  2  0  0  0  0
  2  4  2  0  0  0  0
  3 12  1  0  0  0  0
  4 15  1  0  0  0  0
  5  7  2  0  0  0  0
  5 16  1  0  0  0  0
  6  8  1  0  0  0  0
  6 16  2  0  0  0  0
  7 17  1  0  0  0  0
  8 17  2  0  0  0  0
  9 13  1  0  0  0  0
  9 23  2  0  0  0  0
 10 14  2  0  0  0  0
 10 24  1  0  0  0  0
 11 13  2  0  0  0  0
 11 25  1  0  0  0  0
 12 14  1  0  0  0  0
 12 15  2  0  0  0  0
 13 22  1  0  0  0  0
 14 21  1  0  0  0  0
 15 24  1  0  0  0  0
 16 26  1  0  0  0  0
 17 28  1  0  0  0  0
 18 21  1  0  0  0  0
 18 26  1  0  0  0  0
 18 27  2  0  0  0  0
 19 25  1  0  0  0  0
 20 28  1  0  0  0  0
 22 26  1  0  0  0  0
 23 25  1  0  0  0  0
  1 29  1  0  0  0  0
  2 30  1  0  0  0  0
  3 31  1  0  0  0  0
  4 32  1  0  0  0  0
  5 33  1  0  0  0  0
  6 34  1  0  0  0  0
  7 35  1  0  0  0  0
  8 36  1  0  0  0  0
  9 37  1  0  0  0  0
 10 38  1  0  0  0  0
 11 39  1  0  0  0  0
 19 40  1  0  0  0  0
 19 41  1  0  0  0  0
 19 42  1  0  0  0  0
 20 43  1  0  0  0  0
 20 44  1  0  0  0  0
 20 45  1  0  0  0  0
 21 46  1  0  0  0  0
 21 47  1  0  0  0  0
 22 48  1  0  0  0  0
 22 49  1  0  0  0  0
 24 50  1  0  0  0  0
M  END
> <clash_score>
0

> <docking_score>
-8.493145942687988

> <overlap_score>
0.9047098755836487

$$$$
BENZO_466_1
  -OEChem-08232013563D

 50 53  0     0  0  0  0  0  0999 V2000
    4.2460    1.7520   20.8250 C   0  0  0  0  0  0  0  0  0  0  0  0
    3.8860    2.1050   19.5250 C   0  0  0  0  0  0  0  0  0  0  0  0
   13.6992   -1.0584   24.8603 C   0  0  0  0  0  0  0  0  0  0  0  0
    5.3890    1.0010   21.0690 C   0  0  0  0  0  0  0  0  0  0  0  0
   12.5468   -0.2879   24.7065 C   0  0  0  0  0  0  0  0  0  0  0  0
    4.6610    1.7170   18.4380 C   0  0  0  0  0  0  0  0  0  0  0  0
    9.5890   -2.4950   23.2210 C   0  0  0  0  0  0  0  0  0  0  0  0
    8.2550   -1.0010   24.5520 C   0  0  0  0  0  0  0  0  0  0  0  0
    9.1890   -3.5540   24.0140 C   0  0  0  0  0  0  0  0  0  0  0  0
    7.8700   -2.0610   25.3550 C   0  0  0  0  0  0  0  0  0  0  0  0
   14.2795   -1.6744   23.7515 C   0  0  0  0  0  0  0  0  0  0  0  0
   12.5546   -0.7496   22.3350 C   0  0  0  0  0  0  0  0  0  0  0  0
    7.5840   -0.2700   18.5160 C   0  0  0  0  0  0  0  0  0  0  0  0
    6.1460    0.6070   19.9750 C   0  0  0  0  0  0  0  0  0  0  0  0
   11.9744   -0.1335   23.4439 C   0  0  0  0  0  0  0  0  0  0  0  0
    7.2710   -0.1460   19.8310 C   0  0  0  0  0  0  0  0  0  0  0  0
    5.7970    0.9500   18.6730 C   0  0  0  0  0  0  0  0  0  0  0  0
    9.1280   -1.2090   23.4870 C   0  0  0  0  0  0  0  0  0  0  0  0
    8.3450   -3.3440   25.0980 C   0  0  0  0  0  0  0  0  0  0  0  0
   13.7072   -1.5200   22.4888 C   0  0  0  0  0  0  0  0  0  0  0  0
    9.0430    0.2380   21.4940 C   0  0  0  0  0  0  0  0  0  0  0  0
    8.5124   -5.6657   25.5743 C   0  0  0  0  0  0  0  0  0  0  0  0
    8.0950   -0.7700   20.8440 C   0  0  0  0  0  0  0  0  0  0  0  0
   10.7332    0.6950   23.2793 C   0  0  0  0  0  0  0  0  0  0  0  0
    6.7100    0.3850   17.8100 N   0  0  0  0  0  0  0  0  0  0  0  0
    9.5820   -0.1080   22.7000 N   0  0  0  0  0  0  0  0  0  0  0  0
    9.2950    1.3000   20.9480 O   0  0  0  0  0  0  0  0  0  0  0  0
    7.9864   -4.3799   25.8996 O   0  0  0  0  0  0  0  0  0  0  0  0
   14.4228   -2.2813   21.1213 Cl  0  0  0  0  0  0  0  0  0  0  0  0
    3.6210    2.0713   21.6574 H   0  0  0  0  0  0  0  0  0  0  0  0
    2.9855    2.6924   19.3616 H   0  0  0  0  0  0  0  0  0  0  0  0
   14.1445   -1.1785   25.8437 H   0  0  0  0  0  0  0  0  0  0  0  0
    5.6668    0.7411   22.0808 H   0  0  0  0  0  0  0  0  0  0  0  0
   12.1014    0.1884   25.5761 H   0  0  0  0  0  0  0  0  0  0  0  0
    4.3788    2.0100   17.4223 H   0  0  0  0  0  0  0  0  0  0  0  0
   10.2678   -2.6746   22.3862 H   0  0  0  0  0  0  0  0  0  0  0  0
    7.8691   -0.0023   24.7606 H   0  0  0  0  0  0  0  0  0  0  0  0
    9.5404   -4.5633   23.7846 H   0  0  0  0  0  0  0  0  0  0  0  0
    7.1920   -1.8875   26.1914 H   0  0  0  0  0  0  0  0  0  0  0  0
   15.1775   -2.2723   23.8863 H   0  0  0  0  0  0  0  0  0  0  0  0
   12.1048   -0.6257   21.3526 H   0  0  0  0  0  0  0  0  0  0  0  0
    8.4186   -0.8125   18.0399 H   0  0  0  0  0  0  0  0  0  0  0  0
    8.1469   -6.4023   26.2939 H   0  0  0  0  0  0  0  0  0  0  0  0
    9.6045   -5.6298   25.5962 H   0  0  0  0  0  0  0  0  0  0  0  0
    8.1789   -5.9428   24.5715 H   0  0  0  0  0  0  0  0  0  0  0  0
    7.4761   -1.2062   21.6405 H   0  0  0  0  0  0  0  0  0  0  0  0
    8.7071   -1.5784   20.4200 H   0  0  0  0  0  0  0  0  0  0  0  0
   10.4108    1.1033   24.2434 H   0  0  0  0  0  0  0  0  0  0  0  0
   10.9128    1.5434   22.6105 H   0  0  0  0  0  0  0  0  0  0  0  0
    6.6719    0.4860   16.8043 H   0  0  0  0  0  0  0  0  0  0  0  0
  1  2  1  0  0  0  0
  1  4  2  0  0  0  0
  2  6  2  0  0  0  0
  3  5  2  0  0  0  0
  3 11  1  0  0  0  0
  4 14  1  0  0  0  0
  5 15  1  0  0  0  0
  6 17  1  0  0  0  0
  7  9  2  0  0  0  0
  7 18  1  0  0  0  0
  8 10  1  0  0  0  0
  8 18  2  0  0  0  0
  9 19  1  0  0  0  0
 10 19  2  0  0  0  0
 11 20  2  0  0  0  0
 12 15  2  0  0  0  0
 12 20  1  0  0  0  0
 13 16  2  0  0  0  0
 13 25  1  0  0  0  0
 14 16  1  0  0  0  0
 14 17  2  0  0  0  0
 15 24  1  0  0  0  0
 16 23  1  0  0  0  0
 17 25  1  0  0  0  0
 18 26  1  0  0  0  0
 19 28  1  0  0  0  0
 20 29  1  0  0  0  0
 21 23  1  0  0  0  0
 21 26  1  0  0  0  0
 21 27  2  0  0  0  0
 22 28  1  0  0  0  0
 24 26  1  0  0  0  0
  1 30  1  0  0  0  0
  2 31  1  0  0  0  0
  3 32  1  0  0  0  0
  4 33  1  0  0  0  0
  5 34  1  0  0  0  0
  6 35  1  0  0  0  0
  7 36  1  0  0  0  0
  8 37  1  0  0  0  0
  9 38  1  0  0  0  0
 10 39  1  0  0  0  0
 11 40  1  0  0  0  0
 12 41  1  0  0  0  0
 13 42  1  0  0  0  0
 22 43  1  0  0  0  0
 22 44  1  0  0  0  0
 22 45  1  0  0  0  0
 23 46  1  0  0  0  0
 23 47  1  0  0  0  0
 24 48  1  0  0  0  0
 24 49  1  0  0  0  0
 25 50  1  0  0  0  0
M  END
> <clash_score>
0

> <docking_score>
-8.279863357543945

> <overlap_score>
0.9198143482208252

$$$$
BENZO_469_1
  -OEChem-08232013563D

 60 64  0     0  0  0  0  0  0999 V2000
   14.2801   -1.6740   23.7490 C   0  0  0  0  0  0  0  0  0  0  0  0
    4.2460    1.7520   20.8250 C   0  0  0  0  0  0  0  0  0  0  0  0
   14.0336   -0.6087   24.6149 C   0  0  0  0  0  0  0  0  0  0  0  0
   13.3739   -1.9691   22.7305 C   0  0  0  0  0  0  0  0  0  0  0  0
    3.8860    2.1050   19.5250 C   0  0  0  0  0  0  0  0  0  0  0  0
    5.3890    1.0010   21.0690 C   0  0  0  0  0  0  0  0  0  0  0  0
   12.8807    0.1616   24.4624 C   0  0  0  0  0  0  0  0  0  0  0  0
   12.2211   -1.1988   22.5779 C   0  0  0  0  0  0  0  0  0  0  0  0
    4.6610    1.7170   18.4380 C   0  0  0  0  0  0  0  0  0  0  0  0
    9.1890   -3.5540   24.0140 C   0  0  0  0  0  0  0  0  0  0  0  0
    7.8700   -2.0610   25.3550 C   0  0  0  0  0  0  0  0  0  0  0  0
    9.5890   -2.4950   23.2210 C   0  0  0  0  0  0  0  0  0  0  0  0
    8.2550   -1.0010   24.5520 C   0  0  0  0  0  0  0  0  0  0  0  0
    7.5840   -0.2700   18.5160 C   0  0  0  0  0  0  0  0  0  0  0  0
    6.1460    0.6070   19.9750 C   0  0  0  0  0  0  0  0  0  0  0  0
   11.9744   -0.1335   23.4439 C   0  0  0  0  0  0  0  0  0  0  0  0
    7.2710   -0.1460   19.8310 C   0  0  0  0  0  0  0  0  0  0  0  0
    5.7970    0.9500   18.6730 C   0  0  0  0  0  0  0  0  0  0  0  0
    8.3450   -3.3440   25.0980 C   0  0  0  0  0  0  0  0  0  0  0  0
    9.1280   -1.2090   23.4870 C   0  0  0  0  0  0  0  0  0  0  0  0
    7.2752   -5.5551   25.4280 C   0  0  0  0  0  0  0  0  0  0  0  0
    9.0430    0.2380   21.4940 C   0  0  0  0  0  0  0  0  0  0  0  0
    7.1875   -6.7796   26.3225 C   0  0  0  0  0  0  0  0  0  0  0  0
    7.0906   -6.4736   27.8012 C   0  0  0  0  0  0  0  0  0  0  0  0
    8.2353   -5.5623   28.1851 C   0  0  0  0  0  0  0  0  0  0  0  0
    8.1236   -4.2644   27.4031 C   0  0  0  0  0  0  0  0  0  0  0  0
    8.0950   -0.7700   20.8440 C   0  0  0  0  0  0  0  0  0  0  0  0
   10.7332    0.6950   23.2793 C   0  0  0  0  0  0  0  0  0  0  0  0
    6.7100    0.3850   17.8100 N   0  0  0  0  0  0  0  0  0  0  0  0
    7.9635   -4.4452   25.9501 N   0  0  0  0  0  0  0  0  0  0  0  0
    9.5820   -0.1080   22.7000 N   0  0  0  0  0  0  0  0  0  0  0  0
    6.7951   -5.6310   24.2937 O   0  0  0  0  0  0  0  0  0  0  0  0
    9.2950    1.3000   20.9480 O   0  0  0  0  0  0  0  0  0  0  0  0
   15.1785   -2.2728   23.8671 H   0  0  0  0  0  0  0  0  0  0  0  0
    3.6210    2.0713   21.6574 H   0  0  0  0  0  0  0  0  0  0  0  0
   14.7396   -0.3781   25.4074 H   0  0  0  0  0  0  0  0  0  0  0  0
   13.5661   -2.7977   22.0554 H   0  0  0  0  0  0  0  0  0  0  0  0
    2.9855    2.6924   19.3616 H   0  0  0  0  0  0  0  0  0  0  0  0
    5.6668    0.7411   22.0808 H   0  0  0  0  0  0  0  0  0  0  0  0
   12.6967    0.9896   25.1419 H   0  0  0  0  0  0  0  0  0  0  0  0
   11.5206   -1.4362   21.7816 H   0  0  0  0  0  0  0  0  0  0  0  0
    4.3788    2.0100   17.4223 H   0  0  0  0  0  0  0  0  0  0  0  0
    9.5436   -4.5614   23.7799 H   0  0  0  0  0  0  0  0  0  0  0  0
    7.1918   -1.8823   26.1906 H   0  0  0  0  0  0  0  0  0  0  0  0
   10.2676   -2.6754   22.3861 H   0  0  0  0  0  0  0  0  0  0  0  0
    7.8686   -0.0026   24.7598 H   0  0  0  0  0  0  0  0  0  0  0  0
    8.4186   -0.8125   18.0399 H   0  0  0  0  0  0  0  0  0  0  0  0
    6.3096   -7.3610   26.0182 H   0  0  0  0  0  0  0  0  0  0  0  0
    8.0746   -7.3921   26.1207 H   0  0  0  0  0  0  0  0  0  0  0  0
    6.1318   -5.9918   28.0276 H   0  0  0  0  0  0  0  0  0  0  0  0
    7.1350   -7.4030   28.3793 H   0  0  0  0  0  0  0  0  0  0  0  0
    8.2022   -5.3494   29.2594 H   0  0  0  0  0  0  0  0  0  0  0  0
    9.1980   -6.0460   27.9804 H   0  0  0  0  0  0  0  0  0  0  0  0
    7.2509   -3.6987   27.7509 H   0  0  0  0  0  0  0  0  0  0  0  0
    9.0158   -3.6535   27.5803 H   0  0  0  0  0  0  0  0  0  0  0  0
    7.4761   -1.2062   21.6405 H   0  0  0  0  0  0  0  0  0  0  0  0
    8.7071   -1.5784   20.4200 H   0  0  0  0  0  0  0  0  0  0  0  0
   10.4108    1.1033   24.2434 H   0  0  0  0  0  0  0  0  0  0  0  0
   10.9128    1.5434   22.6105 H   0  0  0  0  0  0  0  0  0  0  0  0
    6.6719    0.4860   16.8043 H   0  0  0  0  0  0  0  0  0  0  0  0
  1  3  1  0  0  0  0
  1  4  2  0  0  0  0
  2  5  1  0  0  0  0
  2  6  2  0  0  0  0
  3  7  2  0  0  0  0
  4  8  1  0  0  0  0
  5  9  2  0  0  0  0
  6 15  1  0  0  0  0
  7 16  1  0  0  0  0
  8 16  2  0  0  0  0
  9 18  1  0  0  0  0
 10 12  2  0  0  0  0
 10 19  1  0  0  0  0
 11 13  1  0  0  0  0
 11 19  2  0  0  0  0
 12 20  1  0  0  0  0
 13 20  2  0  0  0  0
 14 17  2  0  0  0  0
 14 29  1  0  0  0  0
 15 17  1  0  0  0  0
 15 18  2  0  0  0  0
 16 28  1  0  0  0  0
 17 27  1  0  0  0  0
 18 29  1  0  0  0  0
 19 30  1  0  0  0  0
 20 31  1  0  0  0  0
 21 23  1  0  0  0  0
 21 30  1  0  0  0  0
 21 32  2  0  0  0  0
 22 27  1  0  0  0  0
 22 31  1  0  0  0  0
 22 33  2  0  0  0  0
 23 24  1  0  0  0  0
 24 25  1  0  0  0  0
 25 26  1  0  0  0  0
 26 30  1  0  0  0  0
 28 31  1  0  0  0  0
  1 34  1  0  0  0  0
  2 35  1  0  0  0  0
  3 36  1  0  0  0  0
  4 37  1  0  0  0  0
  5 38  1  0  0  0  0
  6 39  1  0  0  0  0
  7 40  1  0  0  0  0
  8 41  1  0  0  0  0
  9 42  1  0  0  0  0
 10 43  1  0  0  0  0
 11 44  1  0  0  0  0
 12 45  1  0  0  0  0
 13 46  1  0  0  0  0
 14 47  1  0  0  0  0
 23 48  1  0  0  0  0
 23 49  1  0  0  0  0
 24 50  1  0  0  0  0
 24 51  1  0  0  0  0
 25 52  1  0  0  0  0
 25 53  1  0  0  0  0
 26 54  1  0  0  0  0
 26 55  1  0  0  0  0
 27 56  1  0  0  0  0
 27 57  1  0  0  0  0
 28 58  1  0  0  0  0
 28 59  1  0  0  0  0
 29 60  1  0  0  0  0
M  END
> <clash_score>
0

> <docking_score>
-9.045662879943848

> <overlap_score>
0.9922378659248352

$$$$
BENZO_468_1
  -OEChem-08232013563D

 57 61  0     0  0  0  0  0  0999 V2000
    4.2460    1.7520   20.8250 C   0  0  0  0  0  0  0  0  0  0  0  0
    3.8860    2.1050   19.5250 C   0  0  0  0  0  0  0  0  0  0  0  0
    5.3890    1.0010   21.0690 C   0  0  0  0  0  0  0  0  0  0  0  0
    4.6610    1.7170   18.4380 C   0  0  0  0  0  0  0  0  0  0  0  0
    9.1890   -3.5540   24.0140 C   0  0  0  0  0  0  0  0  0  0  0  0
    7.8700   -2.0610   25.3550 C   0  0  0  0  0  0  0  0  0  0  0  0
    9.5890   -2.4950   23.2210 C   0  0  0  0  0  0  0  0  0  0  0  0
    8.2550   -1.0010   24.5520 C   0  0  0  0  0  0  0  0  0  0  0  0
   12.6277   -0.3467   24.6921 C   0  0  0  0  0  0  0  0  0  0  0  0
    7.5840   -0.2700   18.5160 C   0  0  0  0  0  0  0  0  0  0  0  0
   13.7436   -1.1439   24.5625 C   0  0  0  0  0  0  0  0  0  0  0  0
   12.6162   -0.7757   22.4077 C   0  0  0  0  0  0  0  0  0  0  0  0
    6.1460    0.6070   19.9750 C   0  0  0  0  0  0  0  0  0  0  0  0
   11.9744   -0.1335   23.4439 C   0  0  0  0  0  0  0  0  0  0  0  0
    7.2710   -0.1460   19.8310 C   0  0  0  0  0  0  0  0  0  0  0  0
    5.7970    0.9500   18.6730 C   0  0  0  0  0  0  0  0  0  0  0  0
    8.3450   -3.3440   25.0980 C   0  0  0  0  0  0  0  0  0  0  0  0
    9.1280   -1.2090   23.4870 C   0  0  0  0  0  0  0  0  0  0  0  0
    7.2752   -5.5551   25.4280 C   0  0  0  0  0  0  0  0  0  0  0  0
    9.0430    0.2380   21.4940 C   0  0  0  0  0  0  0  0  0  0  0  0
    7.1875   -6.7796   26.3225 C   0  0  0  0  0  0  0  0  0  0  0  0
    7.0906   -6.4736   27.8012 C   0  0  0  0  0  0  0  0  0  0  0  0
    8.2353   -5.5623   28.1851 C   0  0  0  0  0  0  0  0  0  0  0  0
    8.1236   -4.2644   27.4031 C   0  0  0  0  0  0  0  0  0  0  0  0
    8.0950   -0.7700   20.8440 C   0  0  0  0  0  0  0  0  0  0  0  0
   10.7332    0.6950   23.2793 C   0  0  0  0  0  0  0  0  0  0  0  0
    6.7100    0.3850   17.8100 N   0  0  0  0  0  0  0  0  0  0  0  0
    7.9635   -4.4452   25.9501 N   0  0  0  0  0  0  0  0  0  0  0  0
    9.5820   -0.1080   22.7000 N   0  0  0  0  0  0  0  0  0  0  0  0
    6.7951   -5.6310   24.2937 O   0  0  0  0  0  0  0  0  0  0  0  0
    9.2950    1.3000   20.9480 O   0  0  0  0  0  0  0  0  0  0  0  0
   14.0000   -1.6317   22.9412 S   0  0  0  0  0  0  0  0  0  0  0  0
    3.6210    2.0713   21.6574 H   0  0  0  0  0  0  0  0  0  0  0  0
    2.9855    2.6924   19.3616 H   0  0  0  0  0  0  0  0  0  0  0  0
    5.6668    0.7411   22.0808 H   0  0  0  0  0  0  0  0  0  0  0  0
    4.3788    2.0100   17.4223 H   0  0  0  0  0  0  0  0  0  0  0  0
    9.5436   -4.5614   23.7799 H   0  0  0  0  0  0  0  0  0  0  0  0
    7.1918   -1.8823   26.1906 H   0  0  0  0  0  0  0  0  0  0  0  0
   10.2676   -2.6754   22.3861 H   0  0  0  0  0  0  0  0  0  0  0  0
    7.8686   -0.0026   24.7598 H   0  0  0  0  0  0  0  0  0  0  0  0
   12.2993    0.0623   25.6393 H   0  0  0  0  0  0  0  0  0  0  0  0
    8.4186   -0.8125   18.0399 H   0  0  0  0  0  0  0  0  0  0  0  0
   14.4209   -1.4627   25.3422 H   0  0  0  0  0  0  0  0  0  0  0  0
   12.3427   -0.7849   21.3617 H   0  0  0  0  0  0  0  0  0  0  0  0
    6.3096   -7.3610   26.0182 H   0  0  0  0  0  0  0  0  0  0  0  0
    8.0746   -7.3921   26.1207 H   0  0  0  0  0  0  0  0  0  0  0  0
    6.1318   -5.9918   28.0276 H   0  0  0  0  0  0  0  0  0  0  0  0
    7.1350   -7.4030   28.3793 H   0  0  0  0  0  0  0  0  0  0  0  0
    8.2022   -5.3494   29.2594 H   0  0  0  0  0  0  0  0  0  0  0  0
    9.1980   -6.0460   27.9804 H   0  0  0  0  0  0  0  0  0  0  0  0
    7.2509   -3.6987   27.7509 H   0  0  0  0  0  0  0  0  0  0  0  0
    9.0158   -3.6535   27.5803 H   0  0  0  0  0  0  0  0  0  0  0  0
    7.4761   -1.2062   21.6405 H   0  0  0  0  0  0  0  0  0  0  0  0
    8.7071   -1.5784   20.4200 H   0  0  0  0  0  0  0  0  0  0  0  0
   10.4108    1.1033   24.2434 H   0  0  0  0  0  0  0  0  0  0  0  0
   10.9128    1.5434   22.6105 H   0  0  0  0  0  0  0  0  0  0  0  0
    6.6719    0.4860   16.8043 H   0  0  0  0  0  0  0  0  0  0  0  0
  1  2  1  0  0  0  0
  1  3  2  0  0  0  0
  2  4  2  0  0  0  0
  3 13  1  0  0  0  0
  4 16  1  0  0  0  0
  5  7  2  0  0  0  0
  5 17  1  0  0  0  0
  6  8  1  0  0  0  0
  6 17  2  0  0  0  0
  7 18  1  0  0  0  0
  8 18  2  0  0  0  0
  9 11  2  0  0  0  0
  9 14  1  0  0  0  0
 10 15  2  0  0  0  0
 10 27  1  0  0  0  0
 11 32  1  0  0  0  0
 12 14  2  0  0  0  0
 12 32  1  0  0  0  0
 13 15  1  0  0  0  0
 13 16  2  0  0  0  0
 14 26  1  0  0  0  0
 15 25  1  0  0  0  0
 16 27  1  0  0  0  0
 17 28  1  0  0  0  0
 18 29  1  0  0  0  0
 19 21  1  0  0  0  0
 19 28  1  0  0  0  0
 19 30  2  0  0  0  0
 20 25  1  0  0  0  0
 20 29  1  0  0  0  0
 20 31  2  0  0  0  0
 21 22  1  0  0  0  0
 22 23  1  0  0  0  0
 23 24  1  0  0  0  0
 24 28  1  0  0  0  0
 26 29  1  0  0  0  0
  1 33  1  0  0  0  0
  2 34  1  0  0  0  0
  3 35  1  0  0  0  0
  4 36  1  0  0  0  0
  5 37  1  0  0  0  0
  6 38  1  0  0  0  0
  7 39  1  0  0  0  0
  8 40  1  0  0  0  0
  9 41  1  0  0  0  0
 10 42  1  0  0  0  0
 11 43  1  0  0  0  0
 12 44  1  0  0  0  0
 21 45  1  0  0  0  0
 21 46  1  0  0  0  0
 22 47  1  0  0  0  0
 22 48  1  0  0  0  0
 23 49  1  0  0  0  0
 23 50  1  0  0  0  0
 24 51  1  0  0  0  0
 24 52  1  0  0  0  0
 25 53  1  0  0  0  0
 25 54  1  0  0  0  0
 26 55  1  0  0  0  0
 26 56  1  0  0  0  0
 27 57  1  0  0  0  0
M  END
> <clash_score>
0

> <docking_score>
-8.602035522460938

> <overlap_score>
0.977944016456604

$$$$
BENZO_473_1
  -OEChem-08232013563D

 59 63  0     0  0  0  0  0  0999 V2000
   14.2801   -1.6740   23.7490 C   0  0  0  0  0  0  0  0  0  0  0  0
    4.2460    1.7520   20.8250 C   0  0  0  0  0  0  0  0  0  0  0  0
   14.0336   -0.6087   24.6149 C   0  0  0  0  0  0  0  0  0  0  0  0
   13.3739   -1.9691   22.7305 C   0  0  0  0  0  0  0  0  0  0  0  0
    3.8860    2.1050   19.5250 C   0  0  0  0  0  0  0  0  0  0  0  0
    5.3890    1.0010   21.0690 C   0  0  0  0  0  0  0  0  0  0  0  0
   12.8807    0.1616   24.4624 C   0  0  0  0  0  0  0  0  0  0  0  0
   12.2211   -1.1988   22.5779 C   0  0  0  0  0  0  0  0  0  0  0  0
    4.6610    1.7170   18.4380 C   0  0  0  0  0  0  0  0  0  0  0  0
    9.1890   -3.5540   24.0140 C   0  0  0  0  0  0  0  0  0  0  0  0
    7.8700   -2.0610   25.3550 C   0  0  0  0  0  0  0  0  0  0  0  0
    9.5890   -2.4950   23.2210 C   0  0  0  0  0  0  0  0  0  0  0  0
    8.2550   -1.0010   24.5520 C   0  0  0  0  0  0  0  0  0  0  0  0
    7.5840   -0.2700   18.5160 C   0  0  0  0  0  0  0  0  0  0  0  0
    6.1460    0.6070   19.9750 C   0  0  0  0  0  0  0  0  0  0  0  0
   11.9744   -0.1335   23.4439 C   0  0  0  0  0  0  0  0  0  0  0  0
    7.2710   -0.1460   19.8310 C   0  0  0  0  0  0  0  0  0  0  0  0
    5.7970    0.9500   18.6730 C   0  0  0  0  0  0  0  0  0  0  0  0
    8.3450   -3.3440   25.0980 C   0  0  0  0  0  0  0  0  0  0  0  0
    9.1280   -1.2090   23.4870 C   0  0  0  0  0  0  0  0  0  0  0  0
    9.0430    0.2380   21.4940 C   0  0  0  0  0  0  0  0  0  0  0  0
    8.9529   -5.2008   26.6597 C   0  0  0  0  0  0  0  0  0  0  0  0
    6.6115   -4.5070   26.4386 C   0  0  0  0  0  0  0  0  0  0  0  0
    8.9048   -4.7837   28.1257 C   0  0  0  0  0  0  0  0  0  0  0  0
    6.6383   -4.1241   27.9190 C   0  0  0  0  0  0  0  0  0  0  0  0
    8.0950   -0.7700   20.8440 C   0  0  0  0  0  0  0  0  0  0  0  0
   10.7332    0.6950   23.2793 C   0  0  0  0  0  0  0  0  0  0  0  0
    6.7100    0.3850   17.8100 N   0  0  0  0  0  0  0  0  0  0  0  0
    7.9775   -4.4014   25.9151 N   0  0  0  0  0  0  0  0  0  0  0  0
    9.5820   -0.1080   22.7000 N   0  0  0  0  0  0  0  0  0  0  0  0
    9.2950    1.3000   20.9480 O   0  0  0  0  0  0  0  0  0  0  0  0
    7.5743   -4.9385   28.6342 O   0  0  0  0  0  0  0  0  0  0  0  0
   15.1785   -2.2728   23.8671 H   0  0  0  0  0  0  0  0  0  0  0  0
    3.6210    2.0713   21.6574 H   0  0  0  0  0  0  0  0  0  0  0  0
   14.7396   -0.3781   25.4074 H   0  0  0  0  0  0  0  0  0  0  0  0
   13.5661   -2.7977   22.0554 H   0  0  0  0  0  0  0  0  0  0  0  0
    2.9855    2.6924   19.3616 H   0  0  0  0  0  0  0  0  0  0  0  0
    5.6668    0.7411   22.0808 H   0  0  0  0  0  0  0  0  0  0  0  0
   12.6967    0.9896   25.1419 H   0  0  0  0  0  0  0  0  0  0  0  0
   11.5206   -1.4362   21.7816 H   0  0  0  0  0  0  0  0  0  0  0  0
    4.3788    2.0100   17.4223 H   0  0  0  0  0  0  0  0  0  0  0  0
    9.5426   -4.5618   23.7797 H   0  0  0  0  0  0  0  0  0  0  0  0
    7.1914   -1.8824   26.1903 H   0  0  0  0  0  0  0  0  0  0  0  0
   10.2669   -2.6745   22.3854 H   0  0  0  0  0  0  0  0  0  0  0  0
    7.8690   -0.0020   24.7587 H   0  0  0  0  0  0  0  0  0  0  0  0
    8.4186   -0.8125   18.0399 H   0  0  0  0  0  0  0  0  0  0  0  0
    9.9652   -5.0551   26.2694 H   0  0  0  0  0  0  0  0  0  0  0  0
    8.6947   -6.2622   26.5700 H   0  0  0  0  0  0  0  0  0  0  0  0
    6.2616   -5.5374   26.3317 H   0  0  0  0  0  0  0  0  0  0  0  0
    5.9289   -3.8456   25.9013 H   0  0  0  0  0  0  0  0  0  0  0  0
    9.5612   -5.4265   28.7161 H   0  0  0  0  0  0  0  0  0  0  0  0
    9.2354   -3.7503   28.2628 H   0  0  0  0  0  0  0  0  0  0  0  0
    6.8881   -3.0654   28.0554 H   0  0  0  0  0  0  0  0  0  0  0  0
    5.6506   -4.2892   28.3601 H   0  0  0  0  0  0  0  0  0  0  0  0
    7.4761   -1.2062   21.6405 H   0  0  0  0  0  0  0  0  0  0  0  0
    8.7071   -1.5784   20.4200 H   0  0  0  0  0  0  0  0  0  0  0  0
   10.4108    1.1033   24.2434 H   0  0  0  0  0  0  0  0  0  0  0  0
   10.9128    1.5434   22.6105 H   0  0  0  0  0  0  0  0  0  0  0  0
    6.6719    0.4860   16.8043 H   0  0  0  0  0  0  0  0  0  0  0  0
  1  3  1  0  0  0  0
  1  4  2  0  0  0  0
  2  5  1  0  0  0  0
  2  6  2  0  0  0  0
  3  7  2  0  0  0  0
  4  8  1  0  0  0  0
  5  9  2  0  0  0  0
  6 15  1  0  0  0  0
  7 16  1  0  0  0  0
  8 16  2  0  0  0  0
  9 18  1  0  0  0  0
 10 12  2  0  0  0  0
 10 19  1  0  0  0  0
 11 13  1  0  0  0  0
 11 19  2  0  0  0  0
 12 20  1  0  0  0  0
 13 20  2  0  0  0  0
 14 17  2  0  0  0  0
 14 28  1  0  0  0  0
 15 17  1  0  0  0  0
 15 18  2  0  0  0  0
 16 27  1  0  0  0  0
 17 26  1  0  0  0  0
 18 28  1  0  0  0  0
 19 29  1  0  0  0  0
 20 30  1  0  0  0  0
 21 26  1  0  0  0  0
 21 30  1  0  0  0  0
 21 31  2  0  0  0  0
 22 24  1  0  0  0  0
 22 29  1  0  0  0  0
 23 25  1  0  0  0  0
 23 29  1  0  0  0  0
 24 32  1  0  0  0  0
 25 32  1  0  0  0  0
 27 30  1  0  0  0  0
  1 33  1  0  0  0  0
  2 34  1  0  0  0  0
  3 35  1  0  0  0  0
  4 36  1  0  0  0  0
  5 37  1  0  0  0  0
  6 38  1  0  0  0  0
  7 39  1  0  0  0  0
  8 40  1  0  0  0  0
  9 41  1  0  0  0  0
 10 42  1  0  0  0  0
 11 43  1  0  0  0  0
 12 44  1  0  0  0  0
 13 45  1  0  0  0  0
 14 46  1  0  0  0  0
 22 47  1  0  0  0  0
 22 48  1  0  0  0  0
 23 49  1  0  0  0  0
 23 50  1  0  0  0  0
 24 51  1  0  0  0  0
 24 52  1  0  0  0  0
 25 53  1  0  0  0  0
 25 54  1  0  0  0  0
 26 55  1  0  0  0  0
 26 56  1  0  0  0  0
 27 57  1  0  0  0  0
 27 58  1  0  0  0  0
 28 59  1  0  0  0  0
M  END
> <clash_score>
0

> <docking_score>
-10.182107925415039

> <overlap_score>
0.9899258613586426

$$$$
BENZO_472_1
  -OEChem-08232013563D

 56 60  0     0  0  0  0  0  0999 V2000
    4.2460    1.7520   20.8250 C   0  0  0  0  0  0  0  0  0  0  0  0
    3.8860    2.1050   19.5250 C   0  0  0  0  0  0  0  0  0  0  0  0
    5.3890    1.0010   21.0690 C   0  0  0  0  0  0  0  0  0  0  0  0
    4.6610    1.7170   18.4380 C   0  0  0  0  0  0  0  0  0  0  0  0
    9.1890   -3.5540   24.0140 C   0  0  0  0  0  0  0  0  0  0  0  0
    7.8700   -2.0610   25.3550 C   0  0  0  0  0  0  0  0  0  0  0  0
    9.5890   -2.4950   23.2210 C   0  0  0  0  0  0  0  0  0  0  0  0
    8.2550   -1.0010   24.5520 C   0  0  0  0  0  0  0  0  0  0  0  0
   12.6277   -0.3467   24.6921 C   0  0  0  0  0  0  0  0  0  0  0  0
    7.5840   -0.2700   18.5160 C   0  0  0  0  0  0  0  0  0  0  0  0
   13.7436   -1.1439   24.5625 C   0  0  0  0  0  0  0  0  0  0  0  0
   12.6162   -0.7758   22.4077 C   0  0  0  0  0  0  0  0  0  0  0  0
    6.1460    0.6070   19.9750 C   0  0  0  0  0  0  0  0  0  0  0  0
   11.9744   -0.1335   23.4439 C   0  0  0  0  0  0  0  0  0  0  0  0
    7.2710   -0.1460   19.8310 C   0  0  0  0  0  0  0  0  0  0  0  0
    5.7970    0.9500   18.6730 C   0  0  0  0  0  0  0  0  0  0  0  0
    8.3450   -3.3440   25.0980 C   0  0  0  0  0  0  0  0  0  0  0  0
    9.1280   -1.2090   23.4870 C   0  0  0  0  0  0  0  0  0  0  0  0
    9.0430    0.2380   21.4940 C   0  0  0  0  0  0  0  0  0  0  0  0
    8.9529   -5.2008   26.6597 C   0  0  0  0  0  0  0  0  0  0  0  0
    6.6115   -4.5070   26.4386 C   0  0  0  0  0  0  0  0  0  0  0  0
    8.9048   -4.7837   28.1257 C   0  0  0  0  0  0  0  0  0  0  0  0
    6.6383   -4.1241   27.9190 C   0  0  0  0  0  0  0  0  0  0  0  0
    8.0950   -0.7700   20.8440 C   0  0  0  0  0  0  0  0  0  0  0  0
   10.7332    0.6950   23.2793 C   0  0  0  0  0  0  0  0  0  0  0  0
    6.7100    0.3850   17.8100 N   0  0  0  0  0  0  0  0  0  0  0  0
    7.9775   -4.4014   25.9151 N   0  0  0  0  0  0  0  0  0  0  0  0
    9.5820   -0.1080   22.7000 N   0  0  0  0  0  0  0  0  0  0  0  0
    9.2950    1.3000   20.9480 O   0  0  0  0  0  0  0  0  0  0  0  0
    7.5743   -4.9385   28.6342 O   0  0  0  0  0  0  0  0  0  0  0  0
   14.0000   -1.6317   22.9412 S   0  0  0  0  0  0  0  0  0  0  0  0
    3.6210    2.0713   21.6574 H   0  0  0  0  0  0  0  0  0  0  0  0
    2.9855    2.6924   19.3616 H   0  0  0  0  0  0  0  0  0  0  0  0
    5.6668    0.7411   22.0808 H   0  0  0  0  0  0  0  0  0  0  0  0
    4.3788    2.0100   17.4223 H   0  0  0  0  0  0  0  0  0  0  0  0
    9.5426   -4.5618   23.7797 H   0  0  0  0  0  0  0  0  0  0  0  0
    7.1914   -1.8824   26.1903 H   0  0  0  0  0  0  0  0  0  0  0  0
   10.2669   -2.6745   22.3854 H   0  0  0  0  0  0  0  0  0  0  0  0
    7.8690   -0.0020   24.7587 H   0  0  0  0  0  0  0  0  0  0  0  0
   12.2993    0.0623   25.6393 H   0  0  0  0  0  0  0  0  0  0  0  0
    8.4186   -0.8125   18.0399 H   0  0  0  0  0  0  0  0  0  0  0  0
   14.4209   -1.4627   25.3422 H   0  0  0  0  0  0  0  0  0  0  0  0
   12.3427   -0.7849   21.3617 H   0  0  0  0  0  0  0  0  0  0  0  0
    9.9652   -5.0551   26.2694 H   0  0  0  0  0  0  0  0  0  0  0  0
    8.6947   -6.2622   26.5700 H   0  0  0  0  0  0  0  0  0  0  0  0
    6.2616   -5.5374   26.3317 H   0  0  0  0  0  0  0  0  0  0  0  0
    5.9289   -3.8456   25.9013 H   0  0  0  0  0  0  0  0  0  0  0  0
    9.5612   -5.4265   28.7161 H   0  0  0  0  0  0  0  0  0  0  0  0
    9.2354   -3.7503   28.2628 H   0  0  0  0  0  0  0  0  0  0  0  0
    6.8881   -3.0654   28.0554 H   0  0  0  0  0  0  0  0  0  0  0  0
    5.6506   -4.2892   28.3601 H   0  0  0  0  0  0  0  0  0  0  0  0
    7.4761   -1.2062   21.6405 H   0  0  0  0  0  0  0  0  0  0  0  0
    8.7071   -1.5784   20.4200 H   0  0  0  0  0  0  0  0  0  0  0  0
   10.4108    1.1033   24.2434 H   0  0  0  0  0  0  0  0  0  0  0  0
   10.9128    1.5434   22.6105 H   0  0  0  0  0  0  0  0  0  0  0  0
    6.6719    0.4860   16.8043 H   0  0  0  0  0  0  0  0  0  0  0  0
  1  2  1  0  0  0  0
  1  3  2  0  0  0  0
  2  4  2  0  0  0  0
  3 13  1  0  0  0  0
  4 16  1  0  0  0  0
  5  7  2  0  0  0  0
  5 17  1  0  0  0  0
  6  8  1  0  0  0  0
  6 17  2  0  0  0  0
  7 18  1  0  0  0  0
  8 18  2  0  0  0  0
  9 11  2  0  0  0  0
  9 14  1  0  0  0  0
 10 15  2  0  0  0  0
 10 26  1  0  0  0  0
 11 31  1  0  0  0  0
 12 14  2  0  0  0  0
 12 31  1  0  0  0  0
 13 15  1  0  0  0  0
 13 16  2  0  0  0  0
 14 25  1  0  0  0  0
 15 24  1  0  0  0  0
 16 26  1  0  0  0  0
 17 27  1  0  0  0  0
 18 28  1  0  0  0  0
 19 24  1  0  0  0  0
 19 28  1  0  0  0  0
 19 29  2  0  0  0  0
 20 22  1  0  0  0  0
 20 27  1  0  0  0  0
 21 23  1  0  0  0  0
 21 27  1  0  0  0  0
 22 30  1  0  0  0  0
 23 30  1  0  0  0  0
 25 28  1  0  0  0  0
  1 32  1  0  0  0  0
  2 33  1  0  0  0  0
  3 34  1  0  0  0  0
  4 35  1  0  0  0  0
  5 36  1  0  0  0  0
  6 37  1  0  0  0  0
  7 38  1  0  0  0  0
  8 39  1  0  0  0  0
  9 40  1  0  0  0  0
 10 41  1  0  0  0  0
 11 42  1  0  0  0  0
 12 43  1  0  0  0  0
 20 44  1  0  0  0  0
 20 45  1  0  0  0  0
 21 46  1  0  0  0  0
 21 47  1  0  0  0  0
 22 48  1  0  0  0  0
 22 49  1  0  0  0  0
 23 50  1  0  0  0  0
 23 51  1  0  0  0  0
 24 52  1  0  0  0  0
 24 53  1  0  0  0  0
 25 54  1  0  0  0  0
 25 55  1  0  0  0  0
 26 56  1  0  0  0  0
M  END
> <clash_score>
0

> <docking_score>
-9.738489151000977

> <overlap_score>
0.9756043553352356

$$$$
BENZO_471_1
  -OEChem-08232013563D

 60 64  0     0  0  0  0  0  0999 V2000
    4.2460    1.7520   20.8250 C   0  0  0  0  0  0  0  0  0  0  0  0
    3.8860    2.1050   19.5250 C   0  0  0  0  0  0  0  0  0  0  0  0
    5.3890    1.0010   21.0690 C   0  0  0  0  0  0  0  0  0  0  0  0
    4.6610    1.7170   18.4380 C   0  0  0  0  0  0  0  0  0  0  0  0
    9.1890   -3.5540   24.0140 C   0  0  0  0  0  0  0  0  0  0  0  0
    7.8700   -2.0610   25.3550 C   0  0  0  0  0  0  0  0  0  0  0  0
    9.5890   -2.4950   23.2210 C   0  0  0  0  0  0  0  0  0  0  0  0
    8.2550   -1.0010   24.5520 C   0  0  0  0  0  0  0  0  0  0  0  0
   12.6851   -0.3985   24.6298 C   0  0  0  0  0  0  0  0  0  0  0  0
    7.5840   -0.2700   18.5160 C   0  0  0  0  0  0  0  0  0  0  0  0
   12.6702   -0.8059   22.4691 C   0  0  0  0  0  0  0  0  0  0  0  0
    6.1460    0.6070   19.9750 C   0  0  0  0  0  0  0  0  0  0  0  0
   11.9744   -0.1335   23.4439 C   0  0  0  0  0  0  0  0  0  0  0  0
    7.2710   -0.1460   19.8310 C   0  0  0  0  0  0  0  0  0  0  0  0
    5.7970    0.9500   18.6730 C   0  0  0  0  0  0  0  0  0  0  0  0
    8.3450   -3.3440   25.0980 C   0  0  0  0  0  0  0  0  0  0  0  0
    9.1280   -1.2090   23.4870 C   0  0  0  0  0  0  0  0  0  0  0  0
    7.2752   -5.5551   25.4280 C   0  0  0  0  0  0  0  0  0  0  0  0
    9.0430    0.2380   21.4940 C   0  0  0  0  0  0  0  0  0  0  0  0
    7.1875   -6.7796   26.3225 C   0  0  0  0  0  0  0  0  0  0  0  0
    7.0906   -6.4736   27.8012 C   0  0  0  0  0  0  0  0  0  0  0  0
    8.2353   -5.5623   28.1851 C   0  0  0  0  0  0  0  0  0  0  0  0
    8.1236   -4.2644   27.4031 C   0  0  0  0  0  0  0  0  0  0  0  0
   14.7291   -2.2338   22.4940 C   0  0  0  0  0  0  0  0  0  0  0  0
    8.0950   -0.7700   20.8440 C   0  0  0  0  0  0  0  0  0  0  0  0
   10.7332    0.6950   23.2793 C   0  0  0  0  0  0  0  0  0  0  0  0
   13.7506   -1.1786   24.4291 N   0  0  0  0  0  0  0  0  0  0  0  0
    6.7100    0.3850   17.8100 N   0  0  0  0  0  0  0  0  0  0  0  0
   13.7145   -1.4096   23.1057 N   0  0  0  0  0  0  0  0  0  0  0  0
    7.9635   -4.4452   25.9501 N   0  0  0  0  0  0  0  0  0  0  0  0
    9.5820   -0.1080   22.7000 N   0  0  0  0  0  0  0  0  0  0  0  0
    6.7951   -5.6310   24.2937 O   0  0  0  0  0  0  0  0  0  0  0  0
    9.2950    1.3000   20.9480 O   0  0  0  0  0  0  0  0  0  0  0  0
    3.6210    2.0713   21.6574 H   0  0  0  0  0  0  0  0  0  0  0  0
    2.9855    2.6924   19.3616 H   0  0  0  0  0  0  0  0  0  0  0  0
    5.6668    0.7411   22.0808 H   0  0  0  0  0  0  0  0  0  0  0  0
    4.3788    2.0100   17.4223 H   0  0  0  0  0  0  0  0  0  0  0  0
    9.5436   -4.5614   23.7799 H   0  0  0  0  0  0  0  0  0  0  0  0
    7.1918   -1.8823   26.1906 H   0  0  0  0  0  0  0  0  0  0  0  0
   10.2676   -2.6754   22.3861 H   0  0  0  0  0  0  0  0  0  0  0  0
    7.8686   -0.0026   24.7598 H   0  0  0  0  0  0  0  0  0  0  0  0
   12.4725   -0.0576   25.6332 H   0  0  0  0  0  0  0  0  0  0  0  0
    8.4186   -0.8125   18.0399 H   0  0  0  0  0  0  0  0  0  0  0  0
   12.5143   -0.9049   21.4034 H   0  0  0  0  0  0  0  0  0  0  0  0
    6.3096   -7.3610   26.0182 H   0  0  0  0  0  0  0  0  0  0  0  0
    8.0746   -7.3921   26.1207 H   0  0  0  0  0  0  0  0  0  0  0  0
    6.1318   -5.9918   28.0276 H   0  0  0  0  0  0  0  0  0  0  0  0
    7.1350   -7.4030   28.3793 H   0  0  0  0  0  0  0  0  0  0  0  0
    8.2022   -5.3494   29.2594 H   0  0  0  0  0  0  0  0  0  0  0  0
    9.1980   -6.0460   27.9804 H   0  0  0  0  0  0  0  0  0  0  0  0
    7.2509   -3.6987   27.7509 H   0  0  0  0  0  0  0  0  0  0  0  0
    9.0158   -3.6535   27.5803 H   0  0  0  0  0  0  0  0  0  0  0  0
   15.5528   -1.5834   22.1882 H   0  0  0  0  0  0  0  0  0  0  0  0
   15.0773   -2.9782   23.2155 H   0  0  0  0  0  0  0  0  0  0  0  0
   14.3036   -2.7470   21.6271 H   0  0  0  0  0  0  0  0  0  0  0  0
    7.4761   -1.2062   21.6405 H   0  0  0  0  0  0  0  0  0  0  0  0
    8.7071   -1.5784   20.4200 H   0  0  0  0  0  0  0  0  0  0  0  0
   10.4108    1.1033   24.2434 H   0  0  0  0  0  0  0  0  0  0  0  0
   10.9128    1.5434   22.6105 H   0  0  0  0  0  0  0  0  0  0  0  0
    6.6719    0.4860   16.8043 H   0  0  0  0  0  0  0  0  0  0  0  0
  1  2  1  0  0  0  0
  1  3  2  0  0  0  0
  2  4  2  0  0  0  0
  3 12  1  0  0  0  0
  4 15  1  0  0  0  0
  5  7  2  0  0  0  0
  5 16  1  0  0  0  0
  6  8  1  0  0  0  0
  6 16  2  0  0  0  0
  7 17  1  0  0  0  0
  8 17  2  0  0  0  0
  9 13  1  0  0  0  0
  9 27  2  0  0  0  0
 10 14  2  0  0  0  0
 10 28  1  0  0  0  0
 11 13  2  0  0  0  0
 11 29  1  0  0  0  0
 12 14  1  0  0  0  0
 12 15  2  0  0  0  0
 13 26  1  0  0  0  0
 14 25  1  0  0  0  0
 15 28  1  0  0  0  0
 16 30  1  0  0  0  0
 17 31  1  0  0  0  0
 18 20  1  0  0  0  0
 18 30  1  0  0  0  0
 18 32  2  0  0  0  0
 19 25  1  0  0  0  0
 19 31  1  0  0  0  0
 19 33  2  0  0  0  0
 20 21  1  0  0  0  0
 21 22  1  0  0  0  0
 22 23  1  0  0  0  0
 23 30  1  0  0  0  0
 24 29  1  0  0  0  0
 26 31  1  0  0  0  0
 27 29  1  0  0  0  0
  1 34  1  0  0  0  0
  2 35  1  0  0  0  0
  3 36  1  0  0  0  0
  4 37  1  0  0  0  0
  5 38  1  0  0  0  0
  6 39  1  0  0  0  0
  7 40  1  0  0  0  0
  8 41  1  0  0  0  0
  9 42  1  0  0  0  0
 10 43  1  0  0  0  0
 11 44  1  0  0  0  0
 20 45  1  0  0  0  0
 20 46  1  0  0  0  0
 21 47  1  0  0  0  0
 21 48  1  0  0  0  0
 22 49  1  0  0  0  0
 22 50  1  0  0  0  0
 23 51  1  0  0  0  0
 23 52  1  0  0  0  0
 24 53  1  0  0  0  0
 24 54  1  0  0  0  0
 24 55  1  0  0  0  0
 25 56  1  0  0  0  0
 25 57  1  0  0  0  0
 26 58  1  0  0  0  0
 26 59  1  0  0  0  0
 28 60  1  0  0  0  0
M  END
> <clash_score>
0

> <docking_score>
-7.6002197265625

> <overlap_score>
0.9951873421669006

$$$$
BENZO_470_1
  -OEChem-08232013563D

 60 64  0     0  0  0  0  0  0999 V2000
    4.2460    1.7520   20.8250 C   0  0  0  0  0  0  0  0  0  0  0  0
    3.8860    2.1050   19.5250 C   0  0  0  0  0  0  0  0  0  0  0  0
   13.6992   -1.0584   24.8603 C   0  0  0  0  0  0  0  0  0  0  0  0
    5.3890    1.0010   21.0690 C   0  0  0  0  0  0  0  0  0  0  0  0
   12.5468   -0.2879   24.7065 C   0  0  0  0  0  0  0  0  0  0  0  0
    4.6610    1.7170   18.4380 C   0  0  0  0  0  0  0  0  0  0  0  0
    9.1890   -3.5540   24.0140 C   0  0  0  0  0  0  0  0  0  0  0  0
    7.8700   -2.0610   25.3550 C   0  0  0  0  0  0  0  0  0  0  0  0
    9.5890   -2.4950   23.2210 C   0  0  0  0  0  0  0  0  0  0  0  0
    8.2550   -1.0010   24.5520 C   0  0  0  0  0  0  0  0  0  0  0  0
   14.2795   -1.6744   23.7515 C   0  0  0  0  0  0  0  0  0  0  0  0
   12.5546   -0.7496   22.3350 C   0  0  0  0  0  0  0  0  0  0  0  0
    7.5840   -0.2700   18.5160 C   0  0  0  0  0  0  0  0  0  0  0  0
    6.1460    0.6070   19.9750 C   0  0  0  0  0  0  0  0  0  0  0  0
   11.9744   -0.1335   23.4439 C   0  0  0  0  0  0  0  0  0  0  0  0
    7.2710   -0.1460   19.8310 C   0  0  0  0  0  0  0  0  0  0  0  0
    5.7970    0.9500   18.6730 C   0  0  0  0  0  0  0  0  0  0  0  0
    8.3450   -3.3440   25.0980 C   0  0  0  0  0  0  0  0  0  0  0  0
    9.1280   -1.2090   23.4870 C   0  0  0  0  0  0  0  0  0  0  0  0
   13.7072   -1.5200   22.4888 C   0  0  0  0  0  0  0  0  0  0  0  0
    7.2757   -5.5627   25.4482 C   0  0  0  0  0  0  0  0  0  0  0  0
    9.0430    0.2380   21.4940 C   0  0  0  0  0  0  0  0  0  0  0  0
    6.9618   -6.6001   26.5116 C   0  0  0  0  0  0  0  0  0  0  0  0
    6.3751   -5.9428   27.7484 C   0  0  0  0  0  0  0  0  0  0  0  0
    7.2646   -4.8269   28.2875 C   0  0  0  0  0  0  0  0  0  0  0  0
    8.4090   -4.4632   27.3429 C   0  0  0  0  0  0  0  0  0  0  0  0
    8.0950   -0.7700   20.8440 C   0  0  0  0  0  0  0  0  0  0  0  0
   10.7332    0.6950   23.2793 C   0  0  0  0  0  0  0  0  0  0  0  0
    6.7100    0.3850   17.8100 N   0  0  0  0  0  0  0  0  0  0  0  0
    7.9658   -4.4384   25.9449 N   0  0  0  0  0  0  0  0  0  0  0  0
    9.5820   -0.1080   22.7000 N   0  0  0  0  0  0  0  0  0  0  0  0
    6.9864   -5.7897   24.2740 O   0  0  0  0  0  0  0  0  0  0  0  0
    9.2950    1.3000   20.9480 O   0  0  0  0  0  0  0  0  0  0  0  0
   14.4228   -2.2813   21.1213 Cl  0  0  0  0  0  0  0  0  0  0  0  0
    3.6210    2.0713   21.6574 H   0  0  0  0  0  0  0  0  0  0  0  0
    2.9855    2.6924   19.3616 H   0  0  0  0  0  0  0  0  0  0  0  0
   14.1445   -1.1785   25.8437 H   0  0  0  0  0  0  0  0  0  0  0  0
    5.6668    0.7411   22.0808 H   0  0  0  0  0  0  0  0  0  0  0  0
   12.1014    0.1884   25.5761 H   0  0  0  0  0  0  0  0  0  0  0  0
    4.3788    2.0100   17.4223 H   0  0  0  0  0  0  0  0  0  0  0  0
    9.5436   -4.5614   23.7799 H   0  0  0  0  0  0  0  0  0  0  0  0
    7.1918   -1.8823   26.1906 H   0  0  0  0  0  0  0  0  0  0  0  0
   10.2676   -2.6754   22.3861 H   0  0  0  0  0  0  0  0  0  0  0  0
    7.8686   -0.0026   24.7598 H   0  0  0  0  0  0  0  0  0  0  0  0
   15.1775   -2.2723   23.8863 H   0  0  0  0  0  0  0  0  0  0  0  0
   12.1048   -0.6257   21.3526 H   0  0  0  0  0  0  0  0  0  0  0  0
    8.4186   -0.8125   18.0399 H   0  0  0  0  0  0  0  0  0  0  0  0
    6.2492   -7.3024   26.1072 H   0  0  0  0  0  0  0  0  0  0  0  0
    7.8827   -7.1082   26.7559 H   0  0  0  0  0  0  0  0  0  0  0  0
    5.3678   -5.5366   27.5194 H   0  0  0  0  0  0  0  0  0  0  0  0
    6.2158   -6.7064   28.5362 H   0  0  0  0  0  0  0  0  0  0  0  0
    6.6485   -3.9235   28.4802 H   0  0  0  0  0  0  0  0  0  0  0  0
    7.6744   -5.1155   29.2798 H   0  0  0  0  0  0  0  0  0  0  0  0
    8.7785   -3.4721   27.5842 H   0  0  0  0  0  0  0  0  0  0  0  0
    9.2081   -5.1876   27.4485 H   0  0  0  0  0  0  0  0  0  0  0  0
    7.4761   -1.2062   21.6405 H   0  0  0  0  0  0  0  0  0  0  0  0
    8.7071   -1.5784   20.4200 H   0  0  0  0  0  0  0  0  0  0  0  0
   10.4108    1.1033   24.2434 H   0  0  0  0  0  0  0  0  0  0  0  0
   10.9128    1.5434   22.6105 H   0  0  0  0  0  0  0  0  0  0  0  0
    6.6719    0.4860   16.8043 H   0  0  0  0  0  0  0  0  0  0  0  0
  1  2  1  0  0  0  0
  1  4  2  0  0  0  0
  2  6  2  0  0  0  0
  3  5  2  0  0  0  0
  3 11  1  0  0  0  0
  4 14  1  0  0  0  0
  5 15  1  0  0  0  0
  6 17  1  0  0  0  0
  7  9  2  0  0  0  0
  7 18  1  0  0  0  0
  8 10  1  0  0  0  0
  8 18  2  0  0  0  0
  9 19  1  0  0  0  0
 10 19  2  0  0  0  0
 11 20  2  0  0  0  0
 12 15  2  0  0  0  0
 12 20  1  0  0  0  0
 13 16  2  0  0  0  0
 13 29  1  0  0  0  0
 14 16  1  0  0  0  0
 14 17  2  0  0  0  0
 15 28  1  0  0  0  0
 16 27  1  0  0  0  0
 17 29  1  0  0  0  0
 18 30  1  0  0  0  0
 19 31  1  0  0  0  0
 20 34  1  0  0  0  0
 21 23  1  0  0  0  0
 21 30  1  0  0  0  0
 21 32  2  0  0  0  0
 22 27  1  0  0  0  0
 22 31  1  0  0  0  0
 22 33  2  0  0  0  0
 23 24  1  0  0  0  0
 24 25  1  0  0  0  0
 25 26  1  0  0  0  0
 26 30  1  0  0  0  0
 28 31  1  0  0  0  0
  1 35  1  0  0  0  0
  2 36  1  0  0  0  0
  3 37  1  0  0  0  0
  4 38  1  0  0  0  0
  5 39  1  0  0  0  0
  6 40  1  0  0  0  0
  7 41  1  0  0  0  0
  8 42  1  0  0  0  0
  9 43  1  0  0  0  0
 10 44  1  0  0  0  0
 11 45  1  0  0  0  0
 12 46  1  0  0  0  0
 13 47  1  0  0  0  0
 23 48  1  0  0  0  0
 23 49  1  0  0  0  0
 24 50  1  0  0  0  0
 24 51  1  0  0  0  0
 25 52  1  0  0  0  0
 25 53  1  0  0  0  0
 26 54  1  0  0  0  0
 26 55  1  0  0  0  0
 27 56  1  0  0  0  0
 27 57  1  0  0  0  0
 28 58  1  0  0  0  0
 28 59  1  0  0  0  0
 29 60  1  0  0  0  0
M  END
> <clash_score>
0

> <docking_score>
-8.151859283447266

> <overlap_score>
0.9949295520782471

$$$$
BENZO_477_1
  -OEChem-08232013563D

 52 55  0     0  0  0  0  0  0999 V2000
   14.2611   -1.7021   23.7496 C   0  0  0  0  0  0  0  0  0  0  0  0
   14.0231   -0.6345   24.6152 C   0  0  0  0  0  0  0  0  0  0  0  0
   13.3525   -1.9903   22.7313 C   0  0  0  0  0  0  0  0  0  0  0  0
   12.8764    0.1449   24.4624 C   0  0  0  0  0  0  0  0  0  0  0  0
   12.2058   -1.2109   22.5785 C   0  0  0  0  0  0  0  0  0  0  0  0
    9.5890   -2.4950   23.2210 C   0  0  0  0  0  0  0  0  0  0  0  0
    8.2550   -1.0010   24.5520 C   0  0  0  0  0  0  0  0  0  0  0  0
    9.1890   -3.5540   24.0140 C   0  0  0  0  0  0  0  0  0  0  0  0
    7.8700   -2.0610   25.3550 C   0  0  0  0  0  0  0  0  0  0  0  0
   11.9678   -0.1433   23.4441 C   0  0  0  0  0  0  0  0  0  0  0  0
    9.1280   -1.2090   23.4870 C   0  0  0  0  0  0  0  0  0  0  0  0
    8.3450   -3.3440   25.0980 C   0  0  0  0  0  0  0  0  0  0  0  0
    5.7970    0.9500   18.6730 C   0  0  0  0  0  0  0  0  0  0  0  0
    7.2710   -0.1460   19.8310 C   0  0  0  0  0  0  0  0  0  0  0  0
    4.6610    1.7170   18.4380 C   0  0  0  0  0  0  0  0  0  0  0  0
    3.8860    2.1050   19.5250 C   0  0  0  0  0  0  0  0  0  0  0  0
    4.2460    1.7520   20.8250 C   0  0  0  0  0  0  0  0  0  0  0  0
    5.3890    1.0010   21.0690 C   0  0  0  0  0  0  0  0  0  0  0  0
    9.0430    0.2380   21.4940 C   0  0  0  0  0  0  0  0  0  0  0  0
    8.4656   -5.7549   25.6620 C   0  0  0  0  0  0  0  0  0  0  0  0
    7.1039   -4.1993   27.0671 C   0  0  0  0  0  0  0  0  0  0  0  0
   10.7332    0.6950   23.2793 C   0  0  0  0  0  0  0  0  0  0  0  0
    8.0950   -0.7700   20.8440 C   0  0  0  0  0  0  0  0  0  0  0  0
    6.7100    0.3850   17.8100 N   0  0  0  0  0  0  0  0  0  0  0  0
    7.5840   -0.2700   18.5160 N   0  0  0  0  0  0  0  0  0  0  0  0
    6.1460    0.6070   19.9750 N   0  0  0  0  0  0  0  0  0  0  0  0
    9.5820   -0.1080   22.7000 N   0  0  0  0  0  0  0  0  0  0  0  0
    7.9731   -4.4180   25.9279 N   0  0  0  0  0  0  0  0  0  0  0  0
    9.2950    1.3000   20.9480 O   0  0  0  0  0  0  0  0  0  0  0  0
   15.1547   -2.3080   23.8679 H   0  0  0  0  0  0  0  0  0  0  0  0
   14.7311   -0.4092   25.4075 H   0  0  0  0  0  0  0  0  0  0  0  0
   13.5381   -2.8207   22.0565 H   0  0  0  0  0  0  0  0  0  0  0  0
   12.6991    0.9746   25.1416 H   0  0  0  0  0  0  0  0  0  0  0  0
   11.5034   -1.4430   21.7824 H   0  0  0  0  0  0  0  0  0  0  0  0
   10.2682   -2.6746   22.3864 H   0  0  0  0  0  0  0  0  0  0  0  0
    7.8692   -0.0022   24.7600 H   0  0  0  0  0  0  0  0  0  0  0  0
    9.5433   -4.5619   23.7809 H   0  0  0  0  0  0  0  0  0  0  0  0
    7.1923   -1.8829   26.1908 H   0  0  0  0  0  0  0  0  0  0  0  0
    4.3709    2.0154   17.4453 H   0  0  0  0  0  0  0  0  0  0  0  0
    2.9937    2.6903   19.3398 H   0  0  0  0  0  0  0  0  0  0  0  0
    3.6324    2.0591   21.6820 H   0  0  0  0  0  0  0  0  0  0  0  0
    5.6875    0.7279   22.0567 H   0  0  0  0  0  0  0  0  0  0  0  0
    8.0658   -6.4501   26.4149 H   0  0  0  0  0  0  0  0  0  0  0  0
    8.1404   -6.0728   24.6604 H   0  0  0  0  0  0  0  0  0  0  0  0
    9.5646   -5.7567   25.7084 H   0  0  0  0  0  0  0  0  0  0  0  0
    6.9312   -5.1538   27.5858 H   0  0  0  0  0  0  0  0  0  0  0  0
    7.5780   -3.4870   27.7584 H   0  0  0  0  0  0  0  0  0  0  0  0
    6.1428   -3.7906   26.7217 H   0  0  0  0  0  0  0  0  0  0  0  0
   10.4128    1.1042   24.2436 H   0  0  0  0  0  0  0  0  0  0  0  0
   10.9202    1.5430   22.6121 H   0  0  0  0  0  0  0  0  0  0  0  0
    7.4766   -1.2063   21.6410 H   0  0  0  0  0  0  0  0  0  0  0  0
    8.7076   -1.5785   20.4206 H   0  0  0  0  0  0  0  0  0  0  0  0
  1  2  1  0  0  0  0
  1  3  2  0  0  0  0
  2  4  2  0  0  0  0
  3  5  1  0  0  0  0
  4 10  1  0  0  0  0
  5 10  2  0  0  0  0
  6  8  2  0  0  0  0
  6 11  1  0  0  0  0
  7  9  1  0  0  0  0
  7 11  2  0  0  0  0
  8 12  1  0  0  0  0
  9 12  2  0  0  0  0
 10 22  1  0  0  0  0
 11 27  1  0  0  0  0
 12 28  1  0  0  0  0
 13 15  1  0  0  0  0
 13 24  2  0  0  0  0
 13 26  1  0  0  0  0
 14 23  1  0  0  0  0
 14 25  2  0  0  0  0
 14 26  1  0  0  0  0
 15 16  2  0  0  0  0
 16 17  1  0  0  0  0
 17 18  2  0  0  0  0
 18 26  1  0  0  0  0
 19 23  1  0  0  0  0
 19 27  1  0  0  0  0
 19 29  2  0  0  0  0
 20 28  1  0  0  0  0
 21 28  1  0  0  0  0
 22 27  1  0  0  0  0
 24 25  1  0  0  0  0
  1 30  1  0  0  0  0
  2 31  1  0  0  0  0
  3 32  1  0  0  0  0
  4 33  1  0  0  0  0
  5 34  1  0  0  0  0
  6 35  1  0  0  0  0
  7 36  1  0  0  0  0
  8 37  1  0  0  0  0
  9 38  1  0  0  0  0
 15 39  1  0  0  0  0
 16 40  1  0  0  0  0
 17 41  1  0  0  0  0
 18 42  1  0  0  0  0
 20 43  1  0  0  0  0
 20 44  1  0  0  0  0
 20 45  1  0  0  0  0
 21 46  1  0  0  0  0
 21 47  1  0  0  0  0
 21 48  1  0  0  0  0
 22 49  1  0  0  0  0
 22 50  1  0  0  0  0
 23 51  1  0  0  0  0
 23 52  1  0  0  0  0
M  END
> <clash_score>
0

> <docking_score>
-9.673087120056152

> <overlap_score>
0.9301849007606506

$$$$
BENZO_476_1
  -OEChem-08232013563D

 49 52  0     0  0  0  0  0  0999 V2000
    9.5890   -2.4950   23.2210 C   0  0  0  0  0  0  0  0  0  0  0  0
    8.2550   -1.0010   24.5520 C   0  0  0  0  0  0  0  0  0  0  0  0
    9.1890   -3.5540   24.0140 C   0  0  0  0  0  0  0  0  0  0  0  0
    7.8700   -2.0610   25.3550 C   0  0  0  0  0  0  0  0  0  0  0  0
   12.6178   -0.3636   24.6928 C   0  0  0  0  0  0  0  0  0  0  0  0
   13.7276   -1.1692   24.5634 C   0  0  0  0  0  0  0  0  0  0  0  0
   12.6059   -0.7889   22.4077 C   0  0  0  0  0  0  0  0  0  0  0  0
   11.9678   -0.1433   23.4441 C   0  0  0  0  0  0  0  0  0  0  0  0
    9.1280   -1.2090   23.4870 C   0  0  0  0  0  0  0  0  0  0  0  0
    8.3450   -3.3440   25.0980 C   0  0  0  0  0  0  0  0  0  0  0  0
    5.7970    0.9500   18.6730 C   0  0  0  0  0  0  0  0  0  0  0  0
    7.2710   -0.1460   19.8310 C   0  0  0  0  0  0  0  0  0  0  0  0
    4.6610    1.7170   18.4380 C   0  0  0  0  0  0  0  0  0  0  0  0
    3.8860    2.1050   19.5250 C   0  0  0  0  0  0  0  0  0  0  0  0
    4.2460    1.7520   20.8250 C   0  0  0  0  0  0  0  0  0  0  0  0
    5.3890    1.0010   21.0690 C   0  0  0  0  0  0  0  0  0  0  0  0
    9.0430    0.2380   21.4940 C   0  0  0  0  0  0  0  0  0  0  0  0
    7.2639   -5.5569   25.3796 C   0  0  0  0  0  0  0  0  0  0  0  0
    8.3060   -4.4058   27.3385 C   0  0  0  0  0  0  0  0  0  0  0  0
   10.7332    0.6950   23.2793 C   0  0  0  0  0  0  0  0  0  0  0  0
    8.0950   -0.7700   20.8440 C   0  0  0  0  0  0  0  0  0  0  0  0
    6.7100    0.3850   17.8100 N   0  0  0  0  0  0  0  0  0  0  0  0
    7.5840   -0.2700   18.5160 N   0  0  0  0  0  0  0  0  0  0  0  0
    6.1460    0.6070   19.9750 N   0  0  0  0  0  0  0  0  0  0  0  0
    9.5820   -0.1080   22.7000 N   0  0  0  0  0  0  0  0  0  0  0  0
    7.9731   -4.4180   25.9279 N   0  0  0  0  0  0  0  0  0  0  0  0
    9.2950    1.3000   20.9480 O   0  0  0  0  0  0  0  0  0  0  0  0
   13.9824   -1.6563   22.9416 S   0  0  0  0  0  0  0  0  0  0  0  0
   10.2682   -2.6746   22.3864 H   0  0  0  0  0  0  0  0  0  0  0  0
    7.8692   -0.0022   24.7600 H   0  0  0  0  0  0  0  0  0  0  0  0
    9.5433   -4.5619   23.7809 H   0  0  0  0  0  0  0  0  0  0  0  0
    7.1923   -1.8829   26.1908 H   0  0  0  0  0  0  0  0  0  0  0  0
   12.2914    0.0465   25.6402 H   0  0  0  0  0  0  0  0  0  0  0  0
   14.4015   -1.4944   25.3433 H   0  0  0  0  0  0  0  0  0  0  0  0
   12.3336   -0.7943   21.3614 H   0  0  0  0  0  0  0  0  0  0  0  0
    4.3709    2.0154   17.4453 H   0  0  0  0  0  0  0  0  0  0  0  0
    2.9937    2.6903   19.3398 H   0  0  0  0  0  0  0  0  0  0  0  0
    3.6324    2.0591   21.6820 H   0  0  0  0  0  0  0  0  0  0  0  0
    5.6875    0.7279   22.0567 H   0  0  0  0  0  0  0  0  0  0  0  0
    7.0639   -6.2849   26.1797 H   0  0  0  0  0  0  0  0  0  0  0  0
    6.3116   -5.2206   24.9437 H   0  0  0  0  0  0  0  0  0  0  0  0
    7.8778   -6.0298   24.5989 H   0  0  0  0  0  0  0  0  0  0  0  0
    7.9323   -5.3256   27.8120 H   0  0  0  0  0  0  0  0  0  0  0  0
    9.3983   -4.3503   27.4568 H   0  0  0  0  0  0  0  0  0  0  0  0
    7.8405   -3.5318   27.8175 H   0  0  0  0  0  0  0  0  0  0  0  0
   10.4128    1.1042   24.2436 H   0  0  0  0  0  0  0  0  0  0  0  0
   10.9202    1.5430   22.6121 H   0  0  0  0  0  0  0  0  0  0  0  0
    7.4766   -1.2063   21.6410 H   0  0  0  0  0  0  0  0  0  0  0  0
    8.7076   -1.5785   20.4206 H   0  0  0  0  0  0  0  0  0  0  0  0
  1  3  2  0  0  0  0
  1  9  1  0  0  0  0
  2  4  1  0  0  0  0
  2  9  2  0  0  0  0
  3 10  1  0  0  0  0
  4 10  2  0  0  0  0
  5  6  2  0  0  0  0
  5  8  1  0  0  0  0
  6 28  1  0  0  0  0
  7  8  2  0  0  0  0
  7 28  1  0  0  0  0
  8 20  1  0  0  0  0
  9 25  1  0  0  0  0
 10 26  1  0  0  0  0
 11 13  1  0  0  0  0
 11 22  2  0  0  0  0
 11 24  1  0  0  0  0
 12 21  1  0  0  0  0
 12 23  2  0  0  0  0
 12 24  1  0  0  0  0
 13 14  2  0  0  0  0
 14 15  1  0  0  0  0
 15 16  2  0  0  0  0
 16 24  1  0  0  0  0
 17 21  1  0  0  0  0
 17 25  1  0  0  0  0
 17 27  2  0  0  0  0
 18 26  1  0  0  0  0
 19 26  1  0  0  0  0
 20 25  1  0  0  0  0
 22 23  1  0  0  0  0
  1 29  1  0  0  0  0
  2 30  1  0  0  0  0
  3 31  1  0  0  0  0
  4 32  1  0  0  0  0
  5 33  1  0  0  0  0
  6 34  1  0  0  0  0
  7 35  1  0  0  0  0
 13 36  1  0  0  0  0
 14 37  1  0  0  0  0
 15 38  1  0  0  0  0
 16 39  1  0  0  0  0
 18 40  1  0  0  0  0
 18 41  1  0  0  0  0
 18 42  1  0  0  0  0
 19 43  1  0  0  0  0
 19 44  1  0  0  0  0
 19 45  1  0  0  0  0
 20 46  1  0  0  0  0
 20 47  1  0  0  0  0
 21 48  1  0  0  0  0
 21 49  1  0  0  0  0
M  END
> <clash_score>
0

> <docking_score>
-9.34922981262207

> <overlap_score>
0.9281200170516968

$$$$
BENZO_474_1
  -OEChem-08232013563D

 59 63  0     0  0  0  0  0  0999 V2000
    4.2460    1.7520   20.8250 C   0  0  0  0  0  0  0  0  0  0  0  0
    3.8860    2.1050   19.5250 C   0  0  0  0  0  0  0  0  0  0  0  0
   13.6992   -1.0584   24.8603 C   0  0  0  0  0  0  0  0  0  0  0  0
    5.3890    1.0010   21.0690 C   0  0  0  0  0  0  0  0  0  0  0  0
   12.5468   -0.2879   24.7065 C   0  0  0  0  0  0  0  0  0  0  0  0
    4.6610    1.7170   18.4380 C   0  0  0  0  0  0  0  0  0  0  0  0
    9.1890   -3.5540   24.0140 C   0  0  0  0  0  0  0  0  0  0  0  0
    7.8700   -2.0610   25.3550 C   0  0  0  0  0  0  0  0  0  0  0  0
    9.5890   -2.4950   23.2210 C   0  0  0  0  0  0  0  0  0  0  0  0
    8.2550   -1.0010   24.5520 C   0  0  0  0  0  0  0  0  0  0  0  0
   14.2795   -1.6744   23.7515 C   0  0  0  0  0  0  0  0  0  0  0  0
   12.5546   -0.7496   22.3350 C   0  0  0  0  0  0  0  0  0  0  0  0
    7.5840   -0.2700   18.5160 C   0  0  0  0  0  0  0  0  0  0  0  0
    6.1460    0.6070   19.9750 C   0  0  0  0  0  0  0  0  0  0  0  0
   11.9744   -0.1335   23.4439 C   0  0  0  0  0  0  0  0  0  0  0  0
    7.2710   -0.1460   19.8310 C   0  0  0  0  0  0  0  0  0  0  0  0
    5.7970    0.9500   18.6730 C   0  0  0  0  0  0  0  0  0  0  0  0
    8.3450   -3.3440   25.0980 C   0  0  0  0  0  0  0  0  0  0  0  0
    9.1280   -1.2090   23.4870 C   0  0  0  0  0  0  0  0  0  0  0  0
   13.7072   -1.5200   22.4888 C   0  0  0  0  0  0  0  0  0  0  0  0
    9.0430    0.2380   21.4940 C   0  0  0  0  0  0  0  0  0  0  0  0
    8.9529   -5.2008   26.6597 C   0  0  0  0  0  0  0  0  0  0  0  0
    6.6115   -4.5070   26.4386 C   0  0  0  0  0  0  0  0  0  0  0  0
    8.9048   -4.7837   28.1257 C   0  0  0  0  0  0  0  0  0  0  0  0
    6.6383   -4.1241   27.9190 C   0  0  0  0  0  0  0  0  0  0  0  0
    8.0950   -0.7700   20.8440 C   0  0  0  0  0  0  0  0  0  0  0  0
   10.7332    0.6950   23.2793 C   0  0  0  0  0  0  0  0  0  0  0  0
    6.7100    0.3850   17.8100 N   0  0  0  0  0  0  0  0  0  0  0  0
    7.9775   -4.4014   25.9151 N   0  0  0  0  0  0  0  0  0  0  0  0
    9.5820   -0.1080   22.7000 N   0  0  0  0  0  0  0  0  0  0  0  0
    9.2950    1.3000   20.9480 O   0  0  0  0  0  0  0  0  0  0  0  0
    7.5743   -4.9385   28.6342 O   0  0  0  0  0  0  0  0  0  0  0  0
   14.4228   -2.2813   21.1213 Cl  0  0  0  0  0  0  0  0  0  0  0  0
    3.6210    2.0713   21.6574 H   0  0  0  0  0  0  0  0  0  0  0  0
    2.9855    2.6924   19.3616 H   0  0  0  0  0  0  0  0  0  0  0  0
   14.1445   -1.1785   25.8437 H   0  0  0  0  0  0  0  0  0  0  0  0
    5.6668    0.7411   22.0808 H   0  0  0  0  0  0  0  0  0  0  0  0
   12.1014    0.1884   25.5761 H   0  0  0  0  0  0  0  0  0  0  0  0
    4.3788    2.0100   17.4223 H   0  0  0  0  0  0  0  0  0  0  0  0
    9.5426   -4.5618   23.7797 H   0  0  0  0  0  0  0  0  0  0  0  0
    7.1914   -1.8824   26.1903 H   0  0  0  0  0  0  0  0  0  0  0  0
   10.2669   -2.6745   22.3854 H   0  0  0  0  0  0  0  0  0  0  0  0
    7.8690   -0.0020   24.7587 H   0  0  0  0  0  0  0  0  0  0  0  0
   15.1775   -2.2723   23.8863 H   0  0  0  0  0  0  0  0  0  0  0  0
   12.1048   -0.6257   21.3526 H   0  0  0  0  0  0  0  0  0  0  0  0
    8.4186   -0.8125   18.0399 H   0  0  0  0  0  0  0  0  0  0  0  0
    9.9652   -5.0551   26.2694 H   0  0  0  0  0  0  0  0  0  0  0  0
    8.6947   -6.2622   26.5700 H   0  0  0  0  0  0  0  0  0  0  0  0
    6.2616   -5.5374   26.3317 H   0  0  0  0  0  0  0  0  0  0  0  0
    5.9289   -3.8456   25.9013 H   0  0  0  0  0  0  0  0  0  0  0  0
    9.5612   -5.4265   28.7161 H   0  0  0  0  0  0  0  0  0  0  0  0
    9.2354   -3.7503   28.2628 H   0  0  0  0  0  0  0  0  0  0  0  0
    6.8881   -3.0654   28.0554 H   0  0  0  0  0  0  0  0  0  0  0  0
    5.6506   -4.2892   28.3601 H   0  0  0  0  0  0  0  0  0  0  0  0
    7.4761   -1.2062   21.6405 H   0  0  0  0  0  0  0  0  0  0  0  0
    8.7071   -1.5784   20.4200 H   0  0  0  0  0  0  0  0  0  0  0  0
   10.4108    1.1033   24.2434 H   0  0  0  0  0  0  0  0  0  0  0  0
   10.9128    1.5434   22.6105 H   0  0  0  0  0  0  0  0  0  0  0  0
    6.6719    0.4860   16.8043 H   0  0  0  0  0  0  0  0  0  0  0  0
  1  2  1  0  0  0  0
  1  4  2  0  0  0  0
  2  6  2  0  0  0  0
  3  5  2  0  0  0  0
  3 11  1  0  0  0  0
  4 14  1  0  0  0  0
  5 15  1  0  0  0  0
  6 17  1  0  0  0  0
  7  9  2  0  0  0  0
  7 18  1  0  0  0  0
  8 10  1  0  0  0  0
  8 18  2  0  0  0  0
  9 19  1  0  0  0  0
 10 19  2  0  0  0  0
 11 20  2  0  0  0  0
 12 15  2  0  0  0  0
 12 20  1  0  0  0  0
 13 16  2  0  0  0  0
 13 28  1  0  0  0  0
 14 16  1  0  0  0  0
 14 17  2  0  0  0  0
 15 27  1  0  0  0  0
 16 26  1  0  0  0  0
 17 28  1  0  0  0  0
 18 29  1  0  0  0  0
 19 30  1  0  0  0  0
 20 33  1  0  0  0  0
 21 26  1  0  0  0  0
 21 30  1  0  0  0  0
 21 31  2  0  0  0  0
 22 24  1  0  0  0  0
 22 29  1  0  0  0  0
 23 25  1  0  0  0  0
 23 29  1  0  0  0  0
 24 32  1  0  0  0  0
 25 32  1  0  0  0  0
 27 30  1  0  0  0  0
  1 34  1  0  0  0  0
  2 35  1  0  0  0  0
  3 36  1  0  0  0  0
  4 37  1  0  0  0  0
  5 38  1  0  0  0  0
  6 39  1  0  0  0  0
  7 40  1  0  0  0  0
  8 41  1  0  0  0  0
  9 42  1  0  0  0  0
 10 43  1  0  0  0  0
 11 44  1  0  0  0  0
 12 45  1  0  0  0  0
 13 46  1  0  0  0  0
 22 47  1  0  0  0  0
 22 48  1  0  0  0  0
 23 49  1  0  0  0  0
 23 50  1  0  0  0  0
 24 51  1  0  0  0  0
 24 52  1  0  0  0  0
 25 53  1  0  0  0  0
 25 54  1  0  0  0  0
 26 55  1  0  0  0  0
 26 56  1  0  0  0  0
 27 57  1  0  0  0  0
 27 58  1  0  0  0  0
 28 59  1  0  0  0  0
M  END
> <clash_score>
0

> <docking_score>
-9.211413383483887

> <overlap_score>
0.9982529282569885

$$$$
BENZO_475_1
  -OEChem-08232013563D

 59 63  0     0  0  0  0  0  0999 V2000
    4.2460    1.7520   20.8250 C   0  0  0  0  0  0  0  0  0  0  0  0
    3.8860    2.1050   19.5250 C   0  0  0  0  0  0  0  0  0  0  0  0
    5.3890    1.0010   21.0690 C   0  0  0  0  0  0  0  0  0  0  0  0
    4.6610    1.7170   18.4380 C   0  0  0  0  0  0  0  0  0  0  0  0
    9.1890   -3.5540   24.0140 C   0  0  0  0  0  0  0  0  0  0  0  0
    7.8700   -2.0610   25.3550 C   0  0  0  0  0  0  0  0  0  0  0  0
    9.5890   -2.4950   23.2210 C   0  0  0  0  0  0  0  0  0  0  0  0
    8.2550   -1.0010   24.5520 C   0  0  0  0  0  0  0  0  0  0  0  0
   13.3021    0.3461   23.6091 C   0  0  0  0  0  0  0  0  0  0  0  0
    7.5840   -0.2700   18.5160 C   0  0  0  0  0  0  0  0  0  0  0  0
   12.3433   -0.9532   22.1166 C   0  0  0  0  0  0  0  0  0  0  0  0
    6.1460    0.6070   19.9750 C   0  0  0  0  0  0  0  0  0  0  0  0
   12.0633    0.0538   23.0076 C   0  0  0  0  0  0  0  0  0  0  0  0
    7.2710   -0.1460   19.8310 C   0  0  0  0  0  0  0  0  0  0  0  0
    5.7970    0.9500   18.6730 C   0  0  0  0  0  0  0  0  0  0  0  0
    8.3450   -3.3440   25.0980 C   0  0  0  0  0  0  0  0  0  0  0  0
    9.1280   -1.2090   23.4870 C   0  0  0  0  0  0  0  0  0  0  0  0
    9.0430    0.2380   21.4940 C   0  0  0  0  0  0  0  0  0  0  0  0
    8.9529   -5.2008   26.6597 C   0  0  0  0  0  0  0  0  0  0  0  0
    6.6115   -4.5070   26.4386 C   0  0  0  0  0  0  0  0  0  0  0  0
    8.9048   -4.7837   28.1257 C   0  0  0  0  0  0  0  0  0  0  0  0
    6.6383   -4.1241   27.9190 C   0  0  0  0  0  0  0  0  0  0  0  0
   14.4428   -2.1721   21.4960 C   0  0  0  0  0  0  0  0  0  0  0  0
    8.0950   -0.7700   20.8440 C   0  0  0  0  0  0  0  0  0  0  0  0
   10.7332    0.6950   23.2793 C   0  0  0  0  0  0  0  0  0  0  0  0
   14.2952   -0.4139   23.1399 N   0  0  0  0  0  0  0  0  0  0  0  0
    6.7100    0.3850   17.8100 N   0  0  0  0  0  0  0  0  0  0  0  0
   13.6807   -1.1937   22.2342 N   0  0  0  0  0  0  0  0  0  0  0  0
    7.9775   -4.4014   25.9151 N   0  0  0  0  0  0  0  0  0  0  0  0
    9.5820   -0.1080   22.7000 N   0  0  0  0  0  0  0  0  0  0  0  0
    9.2950    1.3000   20.9480 O   0  0  0  0  0  0  0  0  0  0  0  0
    7.5743   -4.9385   28.6342 O   0  0  0  0  0  0  0  0  0  0  0  0
    3.6210    2.0713   21.6574 H   0  0  0  0  0  0  0  0  0  0  0  0
    2.9855    2.6924   19.3616 H   0  0  0  0  0  0  0  0  0  0  0  0
    5.6668    0.7411   22.0808 H   0  0  0  0  0  0  0  0  0  0  0  0
    4.3788    2.0100   17.4223 H   0  0  0  0  0  0  0  0  0  0  0  0
    9.5426   -4.5618   23.7797 H   0  0  0  0  0  0  0  0  0  0  0  0
    7.1914   -1.8824   26.1903 H   0  0  0  0  0  0  0  0  0  0  0  0
   10.2669   -2.6745   22.3854 H   0  0  0  0  0  0  0  0  0  0  0  0
    7.8690   -0.0020   24.7587 H   0  0  0  0  0  0  0  0  0  0  0  0
   13.5249    1.0801   24.3706 H   0  0  0  0  0  0  0  0  0  0  0  0
    8.4186   -0.8125   18.0399 H   0  0  0  0  0  0  0  0  0  0  0  0
   11.7202   -1.5063   21.4269 H   0  0  0  0  0  0  0  0  0  0  0  0
    9.9652   -5.0551   26.2694 H   0  0  0  0  0  0  0  0  0  0  0  0
    8.6947   -6.2622   26.5700 H   0  0  0  0  0  0  0  0  0  0  0  0
    6.2616   -5.5374   26.3317 H   0  0  0  0  0  0  0  0  0  0  0  0
    5.9289   -3.8456   25.9013 H   0  0  0  0  0  0  0  0  0  0  0  0
    9.5612   -5.4265   28.7161 H   0  0  0  0  0  0  0  0  0  0  0  0
    9.2354   -3.7503   28.2628 H   0  0  0  0  0  0  0  0  0  0  0  0
    6.8881   -3.0654   28.0554 H   0  0  0  0  0  0  0  0  0  0  0  0
    5.6506   -4.2892   28.3601 H   0  0  0  0  0  0  0  0  0  0  0  0
   14.8130   -1.6942   20.5852 H   0  0  0  0  0  0  0  0  0  0  0  0
   15.2771   -2.5226   22.1100 H   0  0  0  0  0  0  0  0  0  0  0  0
   13.7987   -3.0207   21.2491 H   0  0  0  0  0  0  0  0  0  0  0  0
    7.4761   -1.2062   21.6405 H   0  0  0  0  0  0  0  0  0  0  0  0
    8.7071   -1.5784   20.4200 H   0  0  0  0  0  0  0  0  0  0  0  0
   10.5669    0.7974   24.3572 H   0  0  0  0  0  0  0  0  0  0  0  0
   10.6854    1.6996   22.8459 H   0  0  0  0  0  0  0  0  0  0  0  0
    6.6719    0.4860   16.8043 H   0  0  0  0  0  0  0  0  0  0  0  0
  1  2  1  0  0  0  0
  1  3  2  0  0  0  0
  2  4  2  0  0  0  0
  3 12  1  0  0  0  0
  4 15  1  0  0  0  0
  5  7  2  0  0  0  0
  5 16  1  0  0  0  0
  6  8  1  0  0  0  0
  6 16  2  0  0  0  0
  7 17  1  0  0  0  0
  8 17  2  0  0  0  0
  9 13  1  0  0  0  0
  9 26  2  0  0  0  0
 10 14  2  0  0  0  0
 10 27  1  0  0  0  0
 11 13  2  0  0  0  0
 11 28  1  0  0  0  0
 12 14  1  0  0  0  0
 12 15  2  0  0  0  0
 13 25  1  0  0  0  0
 14 24  1  0  0  0  0
 15 27  1  0  0  0  0
 16 29  1  0  0  0  0
 17 30  1  0  0  0  0
 18 24  1  0  0  0  0
 18 30  1  0  0  0  0
 18 31  2  0  0  0  0
 19 21  1  0  0  0  0
 19 29  1  0  0  0  0
 20 22  1  0  0  0  0
 20 29  1  0  0  0  0
 21 32  1  0  0  0  0
 22 32  1  0  0  0  0
 23 28  1  0  0  0  0
 25 30  1  0  0  0  0
 26 28  1  0  0  0  0
  1 33  1  0  0  0  0
  2 34  1  0  0  0  0
  3 35  1  0  0  0  0
  4 36  1  0  0  0  0
  5 37  1  0  0  0  0
  6 38  1  0  0  0  0
  7 39  1  0  0  0  0
  8 40  1  0  0  0  0
  9 41  1  0  0  0  0
 10 42  1  0  0  0  0
 11 43  1  0  0  0  0
 19 44  1  0  0  0  0
 19 45  1  0  0  0  0
 20 46  1  0  0  0  0
 20 47  1  0  0  0  0
 21 48  1  0  0  0  0
 21 49  1  0  0  0  0
 22 50  1  0  0  0  0
 22 51  1  0  0  0  0
 23 52  1  0  0  0  0
 23 53  1  0  0  0  0
 23 54  1  0  0  0  0
 24 55  1  0  0  0  0
 24 56  1  0  0  0  0
 25 57  1  0  0  0  0
 25 58  1  0  0  0  0
 27 59  1  0  0  0  0
M  END
> <clash_score>
0

> <docking_score>
-10.007176399230957

> <overlap_score>
0.9770315289497375

$$$$
BENZO_479_1
  -OEChem-08232013563D

 52 55  0     0  0  0  0  0  0999 V2000
    9.5890   -2.4950   23.2210 C   0  0  0  0  0  0  0  0  0  0  0  0
    8.2550   -1.0010   24.5520 C   0  0  0  0  0  0  0  0  0  0  0  0
    9.1890   -3.5540   24.0140 C   0  0  0  0  0  0  0  0  0  0  0  0
    7.8700   -2.0610   25.3550 C   0  0  0  0  0  0  0  0  0  0  0  0
   13.2995    0.3257   23.6066 C   0  0  0  0  0  0  0  0  0  0  0  0
   12.3291   -0.9657   22.1148 C   0  0  0  0  0  0  0  0  0  0  0  0
   12.0579    0.0433   23.0063 C   0  0  0  0  0  0  0  0  0  0  0  0
    9.1280   -1.2090   23.4870 C   0  0  0  0  0  0  0  0  0  0  0  0
    8.3450   -3.3440   25.0980 C   0  0  0  0  0  0  0  0  0  0  0  0
    5.7970    0.9500   18.6730 C   0  0  0  0  0  0  0  0  0  0  0  0
    7.2710   -0.1460   19.8310 C   0  0  0  0  0  0  0  0  0  0  0  0
    4.6610    1.7170   18.4380 C   0  0  0  0  0  0  0  0  0  0  0  0
    3.8860    2.1050   19.5250 C   0  0  0  0  0  0  0  0  0  0  0  0
    4.2460    1.7520   20.8250 C   0  0  0  0  0  0  0  0  0  0  0  0
    5.3890    1.0010   21.0690 C   0  0  0  0  0  0  0  0  0  0  0  0
    9.0430    0.2380   21.4940 C   0  0  0  0  0  0  0  0  0  0  0  0
   14.4183   -2.2012   21.4920 C   0  0  0  0  0  0  0  0  0  0  0  0
    7.2639   -5.5569   25.3796 C   0  0  0  0  0  0  0  0  0  0  0  0
    8.3060   -4.4058   27.3385 C   0  0  0  0  0  0  0  0  0  0  0  0
   10.7332    0.6950   23.2793 C   0  0  0  0  0  0  0  0  0  0  0  0
    8.0950   -0.7700   20.8440 C   0  0  0  0  0  0  0  0  0  0  0  0
   14.2861   -0.4421   23.1363 N   0  0  0  0  0  0  0  0  0  0  0  0
    6.7100    0.3850   17.8100 N   0  0  0  0  0  0  0  0  0  0  0  0
    7.5840   -0.2700   18.5160 N   0  0  0  0  0  0  0  0  0  0  0  0
   13.6646   -1.2169   22.2311 N   0  0  0  0  0  0  0  0  0  0  0  0
    6.1460    0.6070   19.9750 N   0  0  0  0  0  0  0  0  0  0  0  0
    9.5820   -0.1080   22.7000 N   0  0  0  0  0  0  0  0  0  0  0  0
    7.9731   -4.4180   25.9279 N   0  0  0  0  0  0  0  0  0  0  0  0
    9.2950    1.3000   20.9480 O   0  0  0  0  0  0  0  0  0  0  0  0
   10.2682   -2.6746   22.3864 H   0  0  0  0  0  0  0  0  0  0  0  0
    7.8692   -0.0022   24.7600 H   0  0  0  0  0  0  0  0  0  0  0  0
    9.5433   -4.5619   23.7809 H   0  0  0  0  0  0  0  0  0  0  0  0
    7.1923   -1.8829   26.1908 H   0  0  0  0  0  0  0  0  0  0  0  0
   13.5289    1.0578   24.3679 H   0  0  0  0  0  0  0  0  0  0  0  0
   11.7009   -1.5138   21.4257 H   0  0  0  0  0  0  0  0  0  0  0  0
    4.3709    2.0154   17.4453 H   0  0  0  0  0  0  0  0  0  0  0  0
    2.9937    2.6903   19.3398 H   0  0  0  0  0  0  0  0  0  0  0  0
    3.6324    2.0591   21.6820 H   0  0  0  0  0  0  0  0  0  0  0  0
    5.6875    0.7279   22.0567 H   0  0  0  0  0  0  0  0  0  0  0  0
   14.7913   -1.7260   20.5809 H   0  0  0  0  0  0  0  0  0  0  0  0
   15.2504   -2.5583   22.1051 H   0  0  0  0  0  0  0  0  0  0  0  0
   13.7672   -3.0446   21.2456 H   0  0  0  0  0  0  0  0  0  0  0  0
    7.0639   -6.2849   26.1797 H   0  0  0  0  0  0  0  0  0  0  0  0
    6.3116   -5.2206   24.9437 H   0  0  0  0  0  0  0  0  0  0  0  0
    7.8778   -6.0298   24.5989 H   0  0  0  0  0  0  0  0  0  0  0  0
    7.9323   -5.3256   27.8120 H   0  0  0  0  0  0  0  0  0  0  0  0
    9.3983   -4.3503   27.4568 H   0  0  0  0  0  0  0  0  0  0  0  0
    7.8405   -3.5318   27.8175 H   0  0  0  0  0  0  0  0  0  0  0  0
   10.5688    0.7986   24.3574 H   0  0  0  0  0  0  0  0  0  0  0  0
   10.6929    1.7000   22.8461 H   0  0  0  0  0  0  0  0  0  0  0  0
    7.4766   -1.2063   21.6410 H   0  0  0  0  0  0  0  0  0  0  0  0
    8.7076   -1.5785   20.4206 H   0  0  0  0  0  0  0  0  0  0  0  0
  1  3  2  0  0  0  0
  1  8  1  0  0  0  0
  2  4  1  0  0  0  0
  2  8  2  0  0  0  0
  3  9  1  0  0  0  0
  4  9  2  0  0  0  0
  5  7  1  0  0  0  0
  5 22  2  0  0  0  0
  6  7  2  0  0  0  0
  6 25  1  0  0  0  0
  7 20  1  0  0  0  0
  8 27  1  0  0  0  0
  9 28  1  0  0  0  0
 10 12  1  0  0  0  0
 10 23  2  0  0  0  0
 10 26  1  0  0  0  0
 11 21  1  0  0  0  0
 11 24  2  0  0  0  0
 11 26  1  0  0  0  0
 12 13  2  0  0  0  0
 13 14  1  0  0  0  0
 14 15  2  0  0  0  0
 15 26  1  0  0  0  0
 16 21  1  0  0  0  0
 16 27  1  0  0  0  0
 16 29  2  0  0  0  0
 17 25  1  0  0  0  0
 18 28  1  0  0  0  0
 19 28  1  0  0  0  0
 20 27  1  0  0  0  0
 22 25  1  0  0  0  0
 23 24  1  0  0  0  0
  1 30  1  0  0  0  0
  2 31  1  0  0  0  0
  3 32  1  0  0  0  0
  4 33  1  0  0  0  0
  5 34  1  0  0  0  0
  6 35  1  0  0  0  0
 12 36  1  0  0  0  0
 13 37  1  0  0  0  0
 14 38  1  0  0  0  0
 15 39  1  0  0  0  0
 17 40  1  0  0  0  0
 17 41  1  0  0  0  0
 17 42  1  0  0  0  0
 18 43  1  0  0  0  0
 18 44  1  0  0  0  0
 18 45  1  0  0  0  0
 19 46  1  0  0  0  0
 19 47  1  0  0  0  0
 19 48  1  0  0  0  0
 20 49  1  0  0  0  0
 20 50  1  0  0  0  0
 21 51  1  0  0  0  0
 21 52  1  0  0  0  0
M  END
> <clash_score>
0

> <docking_score>
-9.617159843444824

> <overlap_score>
0.9305906891822815

$$$$
BENZO_478_1
  -OEChem-08232013563D

 52 55  0     0  0  0  0  0  0999 V2000
   13.6836   -1.0838   24.8612 C   0  0  0  0  0  0  0  0  0  0  0  0
   12.5373   -0.3041   24.7072 C   0  0  0  0  0  0  0  0  0  0  0  0
    9.5890   -2.4950   23.2210 C   0  0  0  0  0  0  0  0  0  0  0  0
    8.2550   -1.0010   24.5520 C   0  0  0  0  0  0  0  0  0  0  0  0
    9.1890   -3.5540   24.0140 C   0  0  0  0  0  0  0  0  0  0  0  0
    7.8700   -2.0610   25.3550 C   0  0  0  0  0  0  0  0  0  0  0  0
   14.2605   -1.7025   23.7521 C   0  0  0  0  0  0  0  0  0  0  0  0
   12.5446   -0.7621   22.3350 C   0  0  0  0  0  0  0  0  0  0  0  0
   11.9678   -0.1433   23.4441 C   0  0  0  0  0  0  0  0  0  0  0  0
    9.1280   -1.2090   23.4870 C   0  0  0  0  0  0  0  0  0  0  0  0
    8.3450   -3.3440   25.0980 C   0  0  0  0  0  0  0  0  0  0  0  0
   13.6909   -1.5417   22.4890 C   0  0  0  0  0  0  0  0  0  0  0  0
    5.7970    0.9500   18.6730 C   0  0  0  0  0  0  0  0  0  0  0  0
    7.2710   -0.1460   19.8310 C   0  0  0  0  0  0  0  0  0  0  0  0
    4.6610    1.7170   18.4380 C   0  0  0  0  0  0  0  0  0  0  0  0
    3.8860    2.1050   19.5250 C   0  0  0  0  0  0  0  0  0  0  0  0
    4.2460    1.7520   20.8250 C   0  0  0  0  0  0  0  0  0  0  0  0
    5.3890    1.0010   21.0690 C   0  0  0  0  0  0  0  0  0  0  0  0
    9.0430    0.2380   21.4940 C   0  0  0  0  0  0  0  0  0  0  0  0
    7.2639   -5.5569   25.3796 C   0  0  0  0  0  0  0  0  0  0  0  0
    8.3060   -4.4058   27.3385 C   0  0  0  0  0  0  0  0  0  0  0  0
   10.7332    0.6950   23.2793 C   0  0  0  0  0  0  0  0  0  0  0  0
    8.0950   -0.7700   20.8440 C   0  0  0  0  0  0  0  0  0  0  0  0
    6.7100    0.3850   17.8100 N   0  0  0  0  0  0  0  0  0  0  0  0
    7.5840   -0.2700   18.5160 N   0  0  0  0  0  0  0  0  0  0  0  0
    6.1460    0.6070   19.9750 N   0  0  0  0  0  0  0  0  0  0  0  0
    9.5820   -0.1080   22.7000 N   0  0  0  0  0  0  0  0  0  0  0  0
    7.9731   -4.4180   25.9279 N   0  0  0  0  0  0  0  0  0  0  0  0
    9.2950    1.3000   20.9480 O   0  0  0  0  0  0  0  0  0  0  0  0
   14.4024   -2.3063   21.1212 Cl  0  0  0  0  0  0  0  0  0  0  0  0
   14.1267   -1.2089   25.8450 H   0  0  0  0  0  0  0  0  0  0  0  0
   12.0945    0.1742   25.5770 H   0  0  0  0  0  0  0  0  0  0  0  0
   10.2682   -2.6746   22.3864 H   0  0  0  0  0  0  0  0  0  0  0  0
    7.8692   -0.0022   24.7600 H   0  0  0  0  0  0  0  0  0  0  0  0
    9.5433   -4.5619   23.7809 H   0  0  0  0  0  0  0  0  0  0  0  0
    7.1923   -1.8829   26.1908 H   0  0  0  0  0  0  0  0  0  0  0  0
   15.1537   -2.3075   23.8871 H   0  0  0  0  0  0  0  0  0  0  0  0
   12.0970   -0.6332   21.3522 H   0  0  0  0  0  0  0  0  0  0  0  0
    4.3709    2.0154   17.4453 H   0  0  0  0  0  0  0  0  0  0  0  0
    2.9937    2.6903   19.3398 H   0  0  0  0  0  0  0  0  0  0  0  0
    3.6324    2.0591   21.6820 H   0  0  0  0  0  0  0  0  0  0  0  0
    5.6875    0.7279   22.0567 H   0  0  0  0  0  0  0  0  0  0  0  0
    7.0639   -6.2849   26.1797 H   0  0  0  0  0  0  0  0  0  0  0  0
    6.3116   -5.2206   24.9437 H   0  0  0  0  0  0  0  0  0  0  0  0
    7.8778   -6.0298   24.5989 H   0  0  0  0  0  0  0  0  0  0  0  0
    7.9323   -5.3256   27.8120 H   0  0  0  0  0  0  0  0  0  0  0  0
    9.3983   -4.3503   27.4568 H   0  0  0  0  0  0  0  0  0  0  0  0
    7.8405   -3.5318   27.8175 H   0  0  0  0  0  0  0  0  0  0  0  0
   10.4128    1.1042   24.2436 H   0  0  0  0  0  0  0  0  0  0  0  0
   10.9202    1.5430   22.6121 H   0  0  0  0  0  0  0  0  0  0  0  0
    7.4766   -1.2063   21.6410 H   0  0  0  0  0  0  0  0  0  0  0  0
    8.7076   -1.5785   20.4206 H   0  0  0  0  0  0  0  0  0  0  0  0
  1  2  2  0  0  0  0
  1  7  1  0  0  0  0
  2  9  1  0  0  0  0
  3  5  2  0  0  0  0
  3 10  1  0  0  0  0
  4  6  1  0  0  0  0
  4 10  2  0  0  0  0
  5 11  1  0  0  0  0
  6 11  2  0  0  0  0
  7 12  2  0  0  0  0
  8  9  2  0  0  0  0
  8 12  1  0  0  0  0
  9 22  1  0  0  0  0
 10 27  1  0  0  0  0
 11 28  1  0  0  0  0
 12 30  1  0  0  0  0
 13 15  1  0  0  0  0
 13 24  2  0  0  0  0
 13 26  1  0  0  0  0
 14 23  1  0  0  0  0
 14 25  2  0  0  0  0
 14 26  1  0  0  0  0
 15 16  2  0  0  0  0
 16 17  1  0  0  0  0
 17 18  2  0  0  0  0
 18 26  1  0  0  0  0
 19 23  1  0  0  0  0
 19 27  1  0  0  0  0
 19 29  2  0  0  0  0
 20 28  1  0  0  0  0
 21 28  1  0  0  0  0
 22 27  1  0  0  0  0
 24 25  1  0  0  0  0
  1 31  1  0  0  0  0
  2 32  1  0  0  0  0
  3 33  1  0  0  0  0
  4 34  1  0  0  0  0
  5 35  1  0  0  0  0
  6 36  1  0  0  0  0
  7 37  1  0  0  0  0
  8 38  1  0  0  0  0
 15 39  1  0  0  0  0
 16 40  1  0  0  0  0
 17 41  1  0  0  0  0
 18 42  1  0  0  0  0
 20 43  1  0  0  0  0
 20 44  1  0  0  0  0
 20 45  1  0  0  0  0
 21 46  1  0  0  0  0
 21 47  1  0  0  0  0
 21 48  1  0  0  0  0
 22 49  1  0  0  0  0
 22 50  1  0  0  0  0
 23 51  1  0  0  0  0
 23 52  1  0  0  0  0
M  END
> <clash_score>
0

> <docking_score>
-8.816132545471191

> <overlap_score>
0.9510447978973389

$$$$
BENZO_481_1
  -OEChem-08232013563D

 54 57  0     0  0  0  0  0  0999 V2000
   14.2611   -1.7021   23.7496 C   0  0  0  0  0  0  0  0  0  0  0  0
   14.0231   -0.6345   24.6152 C   0  0  0  0  0  0  0  0  0  0  0  0
   13.3525   -1.9903   22.7313 C   0  0  0  0  0  0  0  0  0  0  0  0
   12.8764    0.1449   24.4624 C   0  0  0  0  0  0  0  0  0  0  0  0
   12.2058   -1.2109   22.5785 C   0  0  0  0  0  0  0  0  0  0  0  0
    9.1890   -3.5540   24.0140 C   0  0  0  0  0  0  0  0  0  0  0  0
    7.8700   -2.0610   25.3550 C   0  0  0  0  0  0  0  0  0  0  0  0
    9.5890   -2.4950   23.2210 C   0  0  0  0  0  0  0  0  0  0  0  0
    8.2550   -1.0010   24.5520 C   0  0  0  0  0  0  0  0  0  0  0  0
   11.9678   -0.1433   23.4441 C   0  0  0  0  0  0  0  0  0  0  0  0
    8.3450   -3.3440   25.0980 C   0  0  0  0  0  0  0  0  0  0  0  0
    9.1280   -1.2090   23.4870 C   0  0  0  0  0  0  0  0  0  0  0  0
    5.7970    0.9500   18.6730 C   0  0  0  0  0  0  0  0  0  0  0  0
    7.2710   -0.1460   19.8310 C   0  0  0  0  0  0  0  0  0  0  0  0
    4.6610    1.7170   18.4380 C   0  0  0  0  0  0  0  0  0  0  0  0
    3.8860    2.1050   19.5250 C   0  0  0  0  0  0  0  0  0  0  0  0
    4.2460    1.7520   20.8250 C   0  0  0  0  0  0  0  0  0  0  0  0
    5.3890    1.0010   21.0690 C   0  0  0  0  0  0  0  0  0  0  0  0
    9.0430    0.2380   21.4940 C   0  0  0  0  0  0  0  0  0  0  0  0
    7.1418   -4.3825   27.0483 C   0  0  0  0  0  0  0  0  0  0  0  0
    8.0793   -6.0704   28.6847 C   0  0  0  0  0  0  0  0  0  0  0  0
   10.7332    0.6950   23.2793 C   0  0  0  0  0  0  0  0  0  0  0  0
    8.0950   -0.7700   20.8440 C   0  0  0  0  0  0  0  0  0  0  0  0
    7.0024   -5.7696   27.6577 C   0  0  0  0  0  0  0  0  0  0  0  0
    6.7100    0.3850   17.8100 N   0  0  0  0  0  0  0  0  0  0  0  0
    7.5840   -0.2700   18.5160 N   0  0  0  0  0  0  0  0  0  0  0  0
    6.1460    0.6070   19.9750 N   0  0  0  0  0  0  0  0  0  0  0  0
    7.9771   -4.4058   25.9196 N   0  0  0  0  0  0  0  0  0  0  0  0
    9.5820   -0.1080   22.7000 N   0  0  0  0  0  0  0  0  0  0  0  0
    9.2950    1.3000   20.9480 O   0  0  0  0  0  0  0  0  0  0  0  0
    6.5747   -3.4037   27.5223 O   0  0  0  0  0  0  0  0  0  0  0  0
   15.1547   -2.3080   23.8679 H   0  0  0  0  0  0  0  0  0  0  0  0
   14.7311   -0.4092   25.4075 H   0  0  0  0  0  0  0  0  0  0  0  0
   13.5381   -2.8207   22.0565 H   0  0  0  0  0  0  0  0  0  0  0  0
   12.6991    0.9746   25.1416 H   0  0  0  0  0  0  0  0  0  0  0  0
   11.5034   -1.4430   21.7824 H   0  0  0  0  0  0  0  0  0  0  0  0
    9.5436   -4.5614   23.7799 H   0  0  0  0  0  0  0  0  0  0  0  0
    7.1918   -1.8823   26.1906 H   0  0  0  0  0  0  0  0  0  0  0  0
   10.2676   -2.6754   22.3861 H   0  0  0  0  0  0  0  0  0  0  0  0
    7.8686   -0.0026   24.7598 H   0  0  0  0  0  0  0  0  0  0  0  0
    4.3709    2.0154   17.4453 H   0  0  0  0  0  0  0  0  0  0  0  0
    2.9937    2.6903   19.3398 H   0  0  0  0  0  0  0  0  0  0  0  0
    3.6324    2.0591   21.6820 H   0  0  0  0  0  0  0  0  0  0  0  0
    5.6875    0.7279   22.0567 H   0  0  0  0  0  0  0  0  0  0  0  0
    9.0773   -6.0031   28.2393 H   0  0  0  0  0  0  0  0  0  0  0  0
    7.9515   -7.0804   29.0862 H   0  0  0  0  0  0  0  0  0  0  0  0
    8.0356   -5.3626   29.5190 H   0  0  0  0  0  0  0  0  0  0  0  0
   10.4128    1.1042   24.2436 H   0  0  0  0  0  0  0  0  0  0  0  0
   10.9202    1.5430   22.6121 H   0  0  0  0  0  0  0  0  0  0  0  0
    7.4766   -1.2063   21.6410 H   0  0  0  0  0  0  0  0  0  0  0  0
    8.7076   -1.5785   20.4206 H   0  0  0  0  0  0  0  0  0  0  0  0
    6.0161   -5.8441   28.1300 H   0  0  0  0  0  0  0  0  0  0  0  0
    7.0494   -6.5101   26.8510 H   0  0  0  0  0  0  0  0  0  0  0  0
    8.3624   -5.3252   25.6741 H   0  0  0  0  0  0  0  0  0  0  0  0
  1  2  1  0  0  0  0
  1  3  2  0  0  0  0
  2  4  2  0  0  0  0
  3  5  1  0  0  0  0
  4 10  1  0  0  0  0
  5 10  2  0  0  0  0
  6  8  2  0  0  0  0
  6 11  1  0  0  0  0
  7  9  1  0  0  0  0
  7 11  2  0  0  0  0
  8 12  1  0  0  0  0
  9 12  2  0  0  0  0
 10 22  1  0  0  0  0
 11 28  1  0  0  0  0
 12 29  1  0  0  0  0
 13 15  1  0  0  0  0
 13 25  2  0  0  0  0
 13 27  1  0  0  0  0
 14 23  1  0  0  0  0
 14 26  2  0  0  0  0
 14 27  1  0  0  0  0
 15 16  2  0  0  0  0
 16 17  1  0  0  0  0
 17 18  2  0  0  0  0
 18 27  1  0  0  0  0
 19 23  1  0  0  0  0
 19 29  1  0  0  0  0
 19 30  2  0  0  0  0
 20 24  1  0  0  0  0
 20 28  1  0  0  0  0
 20 31  2  0  0  0  0
 21 24  1  0  0  0  0
 22 29  1  0  0  0  0
 25 26  1  0  0  0  0
  1 32  1  0  0  0  0
  2 33  1  0  0  0  0
  3 34  1  0  0  0  0
  4 35  1  0  0  0  0
  5 36  1  0  0  0  0
  6 37  1  0  0  0  0
  7 38  1  0  0  0  0
  8 39  1  0  0  0  0
  9 40  1  0  0  0  0
 15 41  1  0  0  0  0
 16 42  1  0  0  0  0
 17 43  1  0  0  0  0
 18 44  1  0  0  0  0
 21 45  1  0  0  0  0
 21 46  1  0  0  0  0
 21 47  1  0  0  0  0
 22 48  1  0  0  0  0
 22 49  1  0  0  0  0
 23 50  1  0  0  0  0
 23 51  1  0  0  0  0
 24 52  1  0  0  0  0
 24 53  1  0  0  0  0
 28 54  1  0  0  0  0
M  END
> <clash_score>
0

> <docking_score>
-9.233404159545898

> <overlap_score>
0.9670344591140747

$$$$
BENZO_480_1
  -OEChem-08232013563D

 51 54  0     0  0  0  0  0  0999 V2000
    9.1890   -3.5540   24.0140 C   0  0  0  0  0  0  0  0  0  0  0  0
    7.8700   -2.0610   25.3550 C   0  0  0  0  0  0  0  0  0  0  0  0
    9.5890   -2.4950   23.2210 C   0  0  0  0  0  0  0  0  0  0  0  0
    8.2550   -1.0010   24.5520 C   0  0  0  0  0  0  0  0  0  0  0  0
   12.6178   -0.3636   24.6928 C   0  0  0  0  0  0  0  0  0  0  0  0
   13.7276   -1.1692   24.5634 C   0  0  0  0  0  0  0  0  0  0  0  0
   12.6059   -0.7889   22.4077 C   0  0  0  0  0  0  0  0  0  0  0  0
   11.9678   -0.1433   23.4441 C   0  0  0  0  0  0  0  0  0  0  0  0
    8.3450   -3.3440   25.0980 C   0  0  0  0  0  0  0  0  0  0  0  0
    9.1280   -1.2090   23.4870 C   0  0  0  0  0  0  0  0  0  0  0  0
    5.7970    0.9500   18.6730 C   0  0  0  0  0  0  0  0  0  0  0  0
    7.2710   -0.1460   19.8310 C   0  0  0  0  0  0  0  0  0  0  0  0
    4.6610    1.7170   18.4380 C   0  0  0  0  0  0  0  0  0  0  0  0
    3.8860    2.1050   19.5250 C   0  0  0  0  0  0  0  0  0  0  0  0
    4.2460    1.7520   20.8250 C   0  0  0  0  0  0  0  0  0  0  0  0
    5.3890    1.0010   21.0690 C   0  0  0  0  0  0  0  0  0  0  0  0
    9.0430    0.2380   21.4940 C   0  0  0  0  0  0  0  0  0  0  0  0
    8.2020   -4.5570   27.2975 C   0  0  0  0  0  0  0  0  0  0  0  0
    7.8877   -6.0892   29.2873 C   0  0  0  0  0  0  0  0  0  0  0  0
   10.7332    0.6950   23.2793 C   0  0  0  0  0  0  0  0  0  0  0  0
    8.0950   -0.7700   20.8440 C   0  0  0  0  0  0  0  0  0  0  0  0
    7.6337   -5.8735   27.8062 C   0  0  0  0  0  0  0  0  0  0  0  0
    6.7100    0.3850   17.8100 N   0  0  0  0  0  0  0  0  0  0  0  0
    7.5840   -0.2700   18.5160 N   0  0  0  0  0  0  0  0  0  0  0  0
    6.1460    0.6070   19.9750 N   0  0  0  0  0  0  0  0  0  0  0  0
    7.9771   -4.4058   25.9196 N   0  0  0  0  0  0  0  0  0  0  0  0
    9.5820   -0.1080   22.7000 N   0  0  0  0  0  0  0  0  0  0  0  0
    9.2950    1.3000   20.9480 O   0  0  0  0  0  0  0  0  0  0  0  0
    8.7738   -3.7653   28.0397 O   0  0  0  0  0  0  0  0  0  0  0  0
   13.9824   -1.6563   22.9416 S   0  0  0  0  0  0  0  0  0  0  0  0
    9.5436   -4.5614   23.7799 H   0  0  0  0  0  0  0  0  0  0  0  0
    7.1918   -1.8823   26.1906 H   0  0  0  0  0  0  0  0  0  0  0  0
   10.2676   -2.6754   22.3861 H   0  0  0  0  0  0  0  0  0  0  0  0
    7.8686   -0.0026   24.7598 H   0  0  0  0  0  0  0  0  0  0  0  0
   12.2914    0.0465   25.6402 H   0  0  0  0  0  0  0  0  0  0  0  0
   14.4015   -1.4944   25.3433 H   0  0  0  0  0  0  0  0  0  0  0  0
   12.3336   -0.7943   21.3614 H   0  0  0  0  0  0  0  0  0  0  0  0
    4.3709    2.0154   17.4453 H   0  0  0  0  0  0  0  0  0  0  0  0
    2.9937    2.6903   19.3398 H   0  0  0  0  0  0  0  0  0  0  0  0
    3.6324    2.0591   21.6820 H   0  0  0  0  0  0  0  0  0  0  0  0
    5.6875    0.7279   22.0567 H   0  0  0  0  0  0  0  0  0  0  0  0
    8.9603   -6.0845   29.5072 H   0  0  0  0  0  0  0  0  0  0  0  0
    7.4771   -7.0515   29.6082 H   0  0  0  0  0  0  0  0  0  0  0  0
    7.4190   -5.3008   29.8855 H   0  0  0  0  0  0  0  0  0  0  0  0
   10.4128    1.1042   24.2436 H   0  0  0  0  0  0  0  0  0  0  0  0
   10.9202    1.5430   22.6121 H   0  0  0  0  0  0  0  0  0  0  0  0
    7.4766   -1.2063   21.6410 H   0  0  0  0  0  0  0  0  0  0  0  0
    8.7076   -1.5785   20.4206 H   0  0  0  0  0  0  0  0  0  0  0  0
    6.5544   -5.8829   27.6153 H   0  0  0  0  0  0  0  0  0  0  0  0
    8.0868   -6.6917   27.2346 H   0  0  0  0  0  0  0  0  0  0  0  0
    7.4775   -5.1796   25.4660 H   0  0  0  0  0  0  0  0  0  0  0  0
  1  3  2  0  0  0  0
  1  9  1  0  0  0  0
  2  4  1  0  0  0  0
  2  9  2  0  0  0  0
  3 10  1  0  0  0  0
  4 10  2  0  0  0  0
  5  6  2  0  0  0  0
  5  8  1  0  0  0  0
  6 30  1  0  0  0  0
  7  8  2  0  0  0  0
  7 30  1  0  0  0  0
  8 20  1  0  0  0  0
  9 26  1  0  0  0  0
 10 27  1  0  0  0  0
 11 13  1  0  0  0  0
 11 23  2  0  0  0  0
 11 25  1  0  0  0  0
 12 21  1  0  0  0  0
 12 24  2  0  0  0  0
 12 25  1  0  0  0  0
 13 14  2  0  0  0  0
 14 15  1  0  0  0  0
 15 16  2  0  0  0  0
 16 25  1  0  0  0  0
 17 21  1  0  0  0  0
 17 27  1  0  0  0  0
 17 28  2  0  0  0  0
 18 22  1  0  0  0  0
 18 26  1  0  0  0  0
 18 29  2  0  0  0  0
 19 22  1  0  0  0  0
 20 27  1  0  0  0  0
 23 24  1  0  0  0  0
  1 31  1  0  0  0  0
  2 32  1  0  0  0  0
  3 33  1  0  0  0  0
  4 34  1  0  0  0  0
  5 35  1  0  0  0  0
  6 36  1  0  0  0  0
  7 37  1  0  0  0  0
 13 38  1  0  0  0  0
 14 39  1  0  0  0  0
 15 40  1  0  0  0  0
 16 41  1  0  0  0  0
 19 42  1  0  0  0  0
 19 43  1  0  0  0  0
 19 44  1  0  0  0  0
 20 45  1  0  0  0  0
 20 46  1  0  0  0  0
 21 47  1  0  0  0  0
 21 48  1  0  0  0  0
 22 49  1  0  0  0  0
 22 50  1  0  0  0  0
 26 51  1  0  0  0  0
M  END
> <clash_score>
0

> <docking_score>
-9.627619743347168

> <overlap_score>
0.984541118144989

$$$$
BENZO_485_1
  -OEChem-08232013563D

 59 63  0     0  0  0  0  0  0999 V2000
   14.2996   -1.3839   24.0679 C   0  0  0  0  0  0  0  0  0  0  0  0
   13.9343   -0.3216   24.8947 C   0  0  0  0  0  0  0  0  0  0  0  0
   13.4794   -1.7518   23.0013 C   0  0  0  0  0  0  0  0  0  0  0  0
   12.7486    0.3729   24.6549 C   0  0  0  0  0  0  0  0  0  0  0  0
   12.2937   -1.0573   22.7616 C   0  0  0  0  0  0  0  0  0  0  0  0
    9.1890   -3.5540   24.0140 C   0  0  0  0  0  0  0  0  0  0  0  0
    7.8700   -2.0610   25.3550 C   0  0  0  0  0  0  0  0  0  0  0  0
    9.5890   -2.4950   23.2210 C   0  0  0  0  0  0  0  0  0  0  0  0
    8.2550   -1.0010   24.5520 C   0  0  0  0  0  0  0  0  0  0  0  0
   11.9283    0.0051   23.5884 C   0  0  0  0  0  0  0  0  0  0  0  0
    8.3450   -3.3440   25.0980 C   0  0  0  0  0  0  0  0  0  0  0  0
    9.1280   -1.2090   23.4870 C   0  0  0  0  0  0  0  0  0  0  0  0
    5.7970    0.9500   18.6730 C   0  0  0  0  0  0  0  0  0  0  0  0
    7.2710   -0.1460   19.8310 C   0  0  0  0  0  0  0  0  0  0  0  0
    4.6610    1.7170   18.4380 C   0  0  0  0  0  0  0  0  0  0  0  0
    3.8860    2.1050   19.5250 C   0  0  0  0  0  0  0  0  0  0  0  0
    4.2460    1.7520   20.8250 C   0  0  0  0  0  0  0  0  0  0  0  0
    5.3890    1.0010   21.0690 C   0  0  0  0  0  0  0  0  0  0  0  0
    9.0430    0.2380   21.4940 C   0  0  0  0  0  0  0  0  0  0  0  0
    7.5748   -4.8280   28.7278 C   0  0  0  0  0  0  0  0  0  0  0  0
    8.9776   -4.7555   28.1204 C   0  0  0  0  0  0  0  0  0  0  0  0
    6.5554   -4.0713   27.8732 C   0  0  0  0  0  0  0  0  0  0  0  0
    8.9620   -5.1961   26.6568 C   0  0  0  0  0  0  0  0  0  0  0  0
    6.6009   -4.5253   26.4110 C   0  0  0  0  0  0  0  0  0  0  0  0
   10.6518    0.7520   23.3299 C   0  0  0  0  0  0  0  0  0  0  0  0
    8.0950   -0.7700   20.8440 C   0  0  0  0  0  0  0  0  0  0  0  0
    6.7100    0.3850   17.8100 N   0  0  0  0  0  0  0  0  0  0  0  0
    7.5840   -0.2700   18.5160 N   0  0  0  0  0  0  0  0  0  0  0  0
    6.1460    0.6070   19.9750 N   0  0  0  0  0  0  0  0  0  0  0  0
    7.9770   -4.4029   25.9162 N   0  0  0  0  0  0  0  0  0  0  0  0
    9.5820   -0.1080   22.7000 N   0  0  0  0  0  0  0  0  0  0  0  0
    9.2950    1.3000   20.9480 O   0  0  0  0  0  0  0  0  0  0  0  0
   15.2236   -1.9237   24.2539 H   0  0  0  0  0  0  0  0  0  0  0  0
   14.5734   -0.0343   25.7245 H   0  0  0  0  0  0  0  0  0  0  0  0
   13.7641   -2.5781   22.3568 H   0  0  0  0  0  0  0  0  0  0  0  0
   12.4719    1.1992   25.3044 H   0  0  0  0  0  0  0  0  0  0  0  0
   11.6608   -1.3510   21.9284 H   0  0  0  0  0  0  0  0  0  0  0  0
    9.5426   -4.5618   23.7797 H   0  0  0  0  0  0  0  0  0  0  0  0
    7.1914   -1.8824   26.1903 H   0  0  0  0  0  0  0  0  0  0  0  0
   10.2669   -2.6745   22.3854 H   0  0  0  0  0  0  0  0  0  0  0  0
    7.8690   -0.0020   24.7587 H   0  0  0  0  0  0  0  0  0  0  0  0
    4.3709    2.0154   17.4453 H   0  0  0  0  0  0  0  0  0  0  0  0
    2.9937    2.6903   19.3398 H   0  0  0  0  0  0  0  0  0  0  0  0
    3.6324    2.0591   21.6820 H   0  0  0  0  0  0  0  0  0  0  0  0
    5.6875    0.7279   22.0567 H   0  0  0  0  0  0  0  0  0  0  0  0
    7.2681   -5.8807   28.8239 H   0  0  0  0  0  0  0  0  0  0  0  0
    7.5891   -4.4101   29.7448 H   0  0  0  0  0  0  0  0  0  0  0  0
    9.3554   -3.7320   28.1920 H   0  0  0  0  0  0  0  0  0  0  0  0
    9.6558   -5.3943   28.6900 H   0  0  0  0  0  0  0  0  0  0  0  0
    5.5496   -4.2322   28.2751 H   0  0  0  0  0  0  0  0  0  0  0  0
    6.7545   -2.9948   27.9293 H   0  0  0  0  0  0  0  0  0  0  0  0
    9.9612   -5.0560   26.2363 H   0  0  0  0  0  0  0  0  0  0  0  0
    8.7097   -6.2583   26.5922 H   0  0  0  0  0  0  0  0  0  0  0  0
    6.2649   -5.5600   26.3335 H   0  0  0  0  0  0  0  0  0  0  0  0
    5.9271   -3.8964   25.8283 H   0  0  0  0  0  0  0  0  0  0  0  0
   10.2524    1.1679   24.2614 H   0  0  0  0  0  0  0  0  0  0  0  0
   10.8186    1.5899   22.6448 H   0  0  0  0  0  0  0  0  0  0  0  0
    7.4659   -1.2025   21.6292 H   0  0  0  0  0  0  0  0  0  0  0  0
    8.6969   -1.5747   20.4087 H   0  0  0  0  0  0  0  0  0  0  0  0
  1  2  1  0  0  0  0
  1  3  2  0  0  0  0
  2  4  2  0  0  0  0
  3  5  1  0  0  0  0
  4 10  1  0  0  0  0
  5 10  2  0  0  0  0
  6  8  2  0  0  0  0
  6 11  1  0  0  0  0
  7  9  1  0  0  0  0
  7 11  2  0  0  0  0
  8 12  1  0  0  0  0
  9 12  2  0  0  0  0
 10 25  1  0  0  0  0
 11 30  1  0  0  0  0
 12 31  1  0  0  0  0
 13 15  1  0  0  0  0
 13 27  2  0  0  0  0
 13 29  1  0  0  0  0
 14 26  1  0  0  0  0
 14 28  2  0  0  0  0
 14 29  1  0  0  0  0
 15 16  2  0  0  0  0
 16 17  1  0  0  0  0
 17 18  2  0  0  0  0
 18 29  1  0  0  0  0
 19 26  1  0  0  0  0
 19 31  1  0  0  0  0
 19 32  2  0  0  0  0
 20 21  1  0  0  0  0
 20 22  1  0  0  0  0
 21 23  1  0  0  0  0
 22 24  1  0  0  0  0
 23 30  1  0  0  0  0
 24 30  1  0  0  0  0
 25 31  1  0  0  0  0
 27 28  1  0  0  0  0
  1 33  1  0  0  0  0
  2 34  1  0  0  0  0
  3 35  1  0  0  0  0
  4 36  1  0  0  0  0
  5 37  1  0  0  0  0
  6 38  1  0  0  0  0
  7 39  1  0  0  0  0
  8 40  1  0  0  0  0
  9 41  1  0  0  0  0
 15 42  1  0  0  0  0
 16 43  1  0  0  0  0
 17 44  1  0  0  0  0
 18 45  1  0  0  0  0
 20 46  1  0  0  0  0
 20 47  1  0  0  0  0
 21 48  1  0  0  0  0
 21 49  1  0  0  0  0
 22 50  1  0  0  0  0
 22 51  1  0  0  0  0
 23 52  1  0  0  0  0
 23 53  1  0  0  0  0
 24 54  1  0  0  0  0
 24 55  1  0  0  0  0
 25 56  1  0  0  0  0
 25 57  1  0  0  0  0
 26 58  1  0  0  0  0
 26 59  1  0  0  0  0
M  END
> <clash_score>
0

> <docking_score>
-9.646656036376953

> <overlap_score>
0.9801599979400635

$$$$
BENZO_484_1
  -OEChem-08232013563D

 56 60  0     0  0  0  0  0  0999 V2000
    9.1890   -3.5540   24.0140 C   0  0  0  0  0  0  0  0  0  0  0  0
    7.8700   -2.0610   25.3550 C   0  0  0  0  0  0  0  0  0  0  0  0
    9.5890   -2.4950   23.2210 C   0  0  0  0  0  0  0  0  0  0  0  0
    8.2550   -1.0010   24.5520 C   0  0  0  0  0  0  0  0  0  0  0  0
   12.5218   -0.1320   24.8765 C   0  0  0  0  0  0  0  0  0  0  0  0
   13.6880   -0.8639   24.8336 C   0  0  0  0  0  0  0  0  0  0  0  0
   12.6638   -0.6270   22.6099 C   0  0  0  0  0  0  0  0  0  0  0  0
   11.9283    0.0051   23.5884 C   0  0  0  0  0  0  0  0  0  0  0  0
    8.3450   -3.3440   25.0980 C   0  0  0  0  0  0  0  0  0  0  0  0
    9.1280   -1.2090   23.4870 C   0  0  0  0  0  0  0  0  0  0  0  0
    5.7970    0.9500   18.6730 C   0  0  0  0  0  0  0  0  0  0  0  0
    7.2710   -0.1460   19.8310 C   0  0  0  0  0  0  0  0  0  0  0  0
    4.6610    1.7170   18.4380 C   0  0  0  0  0  0  0  0  0  0  0  0
    3.8860    2.1050   19.5250 C   0  0  0  0  0  0  0  0  0  0  0  0
    4.2460    1.7520   20.8250 C   0  0  0  0  0  0  0  0  0  0  0  0
    5.3890    1.0010   21.0690 C   0  0  0  0  0  0  0  0  0  0  0  0
    9.0430    0.2380   21.4940 C   0  0  0  0  0  0  0  0  0  0  0  0
    7.5748   -4.8280   28.7278 C   0  0  0  0  0  0  0  0  0  0  0  0
    8.9776   -4.7555   28.1204 C   0  0  0  0  0  0  0  0  0  0  0  0
    6.5554   -4.0713   27.8732 C   0  0  0  0  0  0  0  0  0  0  0  0
    8.9620   -5.1961   26.6568 C   0  0  0  0  0  0  0  0  0  0  0  0
    6.6009   -4.5253   26.4110 C   0  0  0  0  0  0  0  0  0  0  0  0
   10.6518    0.7520   23.3299 C   0  0  0  0  0  0  0  0  0  0  0  0
    8.0950   -0.7700   20.8440 C   0  0  0  0  0  0  0  0  0  0  0  0
    6.7100    0.3850   17.8100 N   0  0  0  0  0  0  0  0  0  0  0  0
    7.5840   -0.2700   18.5160 N   0  0  0  0  0  0  0  0  0  0  0  0
    6.1460    0.6070   19.9750 N   0  0  0  0  0  0  0  0  0  0  0  0
    7.9770   -4.4029   25.9162 N   0  0  0  0  0  0  0  0  0  0  0  0
    9.5820   -0.1080   22.7000 N   0  0  0  0  0  0  0  0  0  0  0  0
    9.2950    1.3000   20.9480 O   0  0  0  0  0  0  0  0  0  0  0  0
   14.0634   -1.3820   23.2452 S   0  0  0  0  0  0  0  0  0  0  0  0
    9.5426   -4.5618   23.7797 H   0  0  0  0  0  0  0  0  0  0  0  0
    7.1914   -1.8824   26.1903 H   0  0  0  0  0  0  0  0  0  0  0  0
   10.2669   -2.6745   22.3854 H   0  0  0  0  0  0  0  0  0  0  0  0
    7.8690   -0.0020   24.7587 H   0  0  0  0  0  0  0  0  0  0  0  0
   12.1173    0.2838   25.7907 H   0  0  0  0  0  0  0  0  0  0  0  0
   14.3380   -1.1184   25.6588 H   0  0  0  0  0  0  0  0  0  0  0  0
   12.4505   -0.6831   21.5514 H   0  0  0  0  0  0  0  0  0  0  0  0
    4.3709    2.0154   17.4453 H   0  0  0  0  0  0  0  0  0  0  0  0
    2.9937    2.6903   19.3398 H   0  0  0  0  0  0  0  0  0  0  0  0
    3.6324    2.0591   21.6820 H   0  0  0  0  0  0  0  0  0  0  0  0
    5.6875    0.7279   22.0567 H   0  0  0  0  0  0  0  0  0  0  0  0
    7.2681   -5.8807   28.8239 H   0  0  0  0  0  0  0  0  0  0  0  0
    7.5891   -4.4101   29.7448 H   0  0  0  0  0  0  0  0  0  0  0  0
    9.3554   -3.7320   28.1920 H   0  0  0  0  0  0  0  0  0  0  0  0
    9.6558   -5.3943   28.6900 H   0  0  0  0  0  0  0  0  0  0  0  0
    5.5496   -4.2322   28.2751 H   0  0  0  0  0  0  0  0  0  0  0  0
    6.7545   -2.9948   27.9293 H   0  0  0  0  0  0  0  0  0  0  0  0
    9.9612   -5.0560   26.2363 H   0  0  0  0  0  0  0  0  0  0  0  0
    8.7097   -6.2583   26.5922 H   0  0  0  0  0  0  0  0  0  0  0  0
    6.2649   -5.5600   26.3335 H   0  0  0  0  0  0  0  0  0  0  0  0
    5.9271   -3.8964   25.8283 H   0  0  0  0  0  0  0  0  0  0  0  0
   10.2524    1.1679   24.2614 H   0  0  0  0  0  0  0  0  0  0  0  0
   10.8186    1.5899   22.6448 H   0  0  0  0  0  0  0  0  0  0  0  0
    7.4659   -1.2025   21.6292 H   0  0  0  0  0  0  0  0  0  0  0  0
    8.6969   -1.5747   20.4087 H   0  0  0  0  0  0  0  0  0  0  0  0
  1  3  2  0  0  0  0
  1  9  1  0  0  0  0
  2  4  1  0  0  0  0
  2  9  2  0  0  0  0
  3 10  1  0  0  0  0
  4 10  2  0  0  0  0
  5  6  2  0  0  0  0
  5  8  1  0  0  0  0
  6 31  1  0  0  0  0
  7  8  2  0  0  0  0
  7 31  1  0  0  0  0
  8 23  1  0  0  0  0
  9 28  1  0  0  0  0
 10 29  1  0  0  0  0
 11 13  1  0  0  0  0
 11 25  2  0  0  0  0
 11 27  1  0  0  0  0
 12 24  1  0  0  0  0
 12 26  2  0  0  0  0
 12 27  1  0  0  0  0
 13 14  2  0  0  0  0
 14 15  1  0  0  0  0
 15 16  2  0  0  0  0
 16 27  1  0  0  0  0
 17 24  1  0  0  0  0
 17 29  1  0  0  0  0
 17 30  2  0  0  0  0
 18 19  1  0  0  0  0
 18 20  1  0  0  0  0
 19 21  1  0  0  0  0
 20 22  1  0  0  0  0
 21 28  1  0  0  0  0
 22 28  1  0  0  0  0
 23 29  1  0  0  0  0
 25 26  1  0  0  0  0
  1 32  1  0  0  0  0
  2 33  1  0  0  0  0
  3 34  1  0  0  0  0
  4 35  1  0  0  0  0
  5 36  1  0  0  0  0
  6 37  1  0  0  0  0
  7 38  1  0  0  0  0
 13 39  1  0  0  0  0
 14 40  1  0  0  0  0
 15 41  1  0  0  0  0
 16 42  1  0  0  0  0
 18 43  1  0  0  0  0
 18 44  1  0  0  0  0
 19 45  1  0  0  0  0
 19 46  1  0  0  0  0
 20 47  1  0  0  0  0
 20 48  1  0  0  0  0
 21 49  1  0  0  0  0
 21 50  1  0  0  0  0
 22 51  1  0  0  0  0
 22 52  1  0  0  0  0
 23 53  1  0  0  0  0
 23 54  1  0  0  0  0
 24 55  1  0  0  0  0
 24 56  1  0  0  0  0
M  END
> <clash_score>
0

> <docking_score>
-9.529717445373535

> <overlap_score>
0.9644513726234436

$$$$
BENZO_483_1
  -OEChem-08232013563D

 54 57  0     0  0  0  0  0  0999 V2000
    9.1890   -3.5540   24.0140 C   0  0  0  0  0  0  0  0  0  0  0  0
    7.8700   -2.0610   25.3550 C   0  0  0  0  0  0  0  0  0  0  0  0
    9.5890   -2.4950   23.2210 C   0  0  0  0  0  0  0  0  0  0  0  0
    8.2550   -1.0010   24.5520 C   0  0  0  0  0  0  0  0  0  0  0  0
   13.2995    0.3257   23.6066 C   0  0  0  0  0  0  0  0  0  0  0  0
   12.3291   -0.9657   22.1148 C   0  0  0  0  0  0  0  0  0  0  0  0
   12.0579    0.0433   23.0063 C   0  0  0  0  0  0  0  0  0  0  0  0
    8.3450   -3.3440   25.0980 C   0  0  0  0  0  0  0  0  0  0  0  0
    9.1280   -1.2090   23.4870 C   0  0  0  0  0  0  0  0  0  0  0  0
    5.7970    0.9500   18.6730 C   0  0  0  0  0  0  0  0  0  0  0  0
    7.2710   -0.1460   19.8310 C   0  0  0  0  0  0  0  0  0  0  0  0
    4.6610    1.7170   18.4380 C   0  0  0  0  0  0  0  0  0  0  0  0
    3.8860    2.1050   19.5250 C   0  0  0  0  0  0  0  0  0  0  0  0
    4.2460    1.7520   20.8250 C   0  0  0  0  0  0  0  0  0  0  0  0
    5.3890    1.0010   21.0690 C   0  0  0  0  0  0  0  0  0  0  0  0
    9.0430    0.2380   21.4940 C   0  0  0  0  0  0  0  0  0  0  0  0
    7.6602   -4.3771   27.2874 C   0  0  0  0  0  0  0  0  0  0  0  0
    8.4366   -6.7656   27.6009 C   0  0  0  0  0  0  0  0  0  0  0  0
   14.4183   -2.2012   21.4920 C   0  0  0  0  0  0  0  0  0  0  0  0
   10.7332    0.6950   23.2793 C   0  0  0  0  0  0  0  0  0  0  0  0
    8.0950   -0.7700   20.8440 C   0  0  0  0  0  0  0  0  0  0  0  0
    7.3111   -5.7664   27.8001 C   0  0  0  0  0  0  0  0  0  0  0  0
   14.2861   -0.4421   23.1363 N   0  0  0  0  0  0  0  0  0  0  0  0
    6.7100    0.3850   17.8100 N   0  0  0  0  0  0  0  0  0  0  0  0
    7.5840   -0.2700   18.5160 N   0  0  0  0  0  0  0  0  0  0  0  0
   13.6646   -1.2169   22.2311 N   0  0  0  0  0  0  0  0  0  0  0  0
    6.1460    0.6070   19.9750 N   0  0  0  0  0  0  0  0  0  0  0  0
    7.9771   -4.4058   25.9196 N   0  0  0  0  0  0  0  0  0  0  0  0
    9.5820   -0.1080   22.7000 N   0  0  0  0  0  0  0  0  0  0  0  0
    9.2950    1.3000   20.9480 O   0  0  0  0  0  0  0  0  0  0  0  0
    7.6500   -3.3923   28.0185 O   0  0  0  0  0  0  0  0  0  0  0  0
    9.5436   -4.5614   23.7799 H   0  0  0  0  0  0  0  0  0  0  0  0
    7.1918   -1.8823   26.1906 H   0  0  0  0  0  0  0  0  0  0  0  0
   10.2676   -2.6754   22.3861 H   0  0  0  0  0  0  0  0  0  0  0  0
    7.8686   -0.0026   24.7598 H   0  0  0  0  0  0  0  0  0  0  0  0
   13.5289    1.0578   24.3679 H   0  0  0  0  0  0  0  0  0  0  0  0
   11.7009   -1.5138   21.4257 H   0  0  0  0  0  0  0  0  0  0  0  0
    4.3709    2.0154   17.4453 H   0  0  0  0  0  0  0  0  0  0  0  0
    2.9937    2.6903   19.3398 H   0  0  0  0  0  0  0  0  0  0  0  0
    3.6324    2.0591   21.6820 H   0  0  0  0  0  0  0  0  0  0  0  0
    5.6875    0.7279   22.0567 H   0  0  0  0  0  0  0  0  0  0  0  0
    8.6965   -6.8591   26.5414 H   0  0  0  0  0  0  0  0  0  0  0  0
    8.1395   -7.7526   27.9686 H   0  0  0  0  0  0  0  0  0  0  0  0
    9.3373   -6.4561   28.1414 H   0  0  0  0  0  0  0  0  0  0  0  0
   14.7913   -1.7260   20.5809 H   0  0  0  0  0  0  0  0  0  0  0  0
   15.2504   -2.5583   22.1051 H   0  0  0  0  0  0  0  0  0  0  0  0
   13.7672   -3.0446   21.2456 H   0  0  0  0  0  0  0  0  0  0  0  0
   10.5688    0.7986   24.3574 H   0  0  0  0  0  0  0  0  0  0  0  0
   10.6929    1.7000   22.8461 H   0  0  0  0  0  0  0  0  0  0  0  0
    7.4766   -1.2063   21.6410 H   0  0  0  0  0  0  0  0  0  0  0  0
    8.7076   -1.5785   20.4206 H   0  0  0  0  0  0  0  0  0  0  0  0
    7.0722   -5.6930   28.8674 H   0  0  0  0  0  0  0  0  0  0  0  0
    6.4148   -6.1157   27.2748 H   0  0  0  0  0  0  0  0  0  0  0  0
    7.9297   -5.3297   25.4745 H   0  0  0  0  0  0  0  0  0  0  0  0
  1  3  2  0  0  0  0
  1  8  1  0  0  0  0
  2  4  1  0  0  0  0
  2  8  2  0  0  0  0
  3  9  1  0  0  0  0
  4  9  2  0  0  0  0
  5  7  1  0  0  0  0
  5 23  2  0  0  0  0
  6  7  2  0  0  0  0
  6 26  1  0  0  0  0
  7 20  1  0  0  0  0
  8 28  1  0  0  0  0
  9 29  1  0  0  0  0
 10 12  1  0  0  0  0
 10 24  2  0  0  0  0
 10 27  1  0  0  0  0
 11 21  1  0  0  0  0
 11 25  2  0  0  0  0
 11 27  1  0  0  0  0
 12 13  2  0  0  0  0
 13 14  1  0  0  0  0
 14 15  2  0  0  0  0
 15 27  1  0  0  0  0
 16 21  1  0  0  0  0
 16 29  1  0  0  0  0
 16 30  2  0  0  0  0
 17 22  1  0  0  0  0
 17 28  1  0  0  0  0
 17 31  2  0  0  0  0
 18 22  1  0  0  0  0
 19 26  1  0  0  0  0
 20 29  1  0  0  0  0
 23 26  1  0  0  0  0
 24 25  1  0  0  0  0
  1 32  1  0  0  0  0
  2 33  1  0  0  0  0
  3 34  1  0  0  0  0
  4 35  1  0  0  0  0
  5 36  1  0  0  0  0
  6 37  1  0  0  0  0
 12 38  1  0  0  0  0
 13 39  1  0  0  0  0
 14 40  1  0  0  0  0
 15 41  1  0  0  0  0
 18 42  1  0  0  0  0
 18 43  1  0  0  0  0
 18 44  1  0  0  0  0
 19 45  1  0  0  0  0
 19 46  1  0  0  0  0
 19 47  1  0  0  0  0
 20 48  1  0  0  0  0
 20 49  1  0  0  0  0
 21 50  1  0  0  0  0
 21 51  1  0  0  0  0
 22 52  1  0  0  0  0
 22 53  1  0  0  0  0
 28 54  1  0  0  0  0
M  END
> <clash_score>
0

> <docking_score>
-9.385144233703613

> <overlap_score>
0.9697079062461853

$$$$
BENZO_482_1
  -OEChem-08232013563D

 54 57  0     0  0  0  0  0  0999 V2000
   13.6836   -1.0838   24.8612 C   0  0  0  0  0  0  0  0  0  0  0  0
   12.5373   -0.3041   24.7072 C   0  0  0  0  0  0  0  0  0  0  0  0
    9.1890   -3.5540   24.0140 C   0  0  0  0  0  0  0  0  0  0  0  0
    7.8700   -2.0610   25.3550 C   0  0  0  0  0  0  0  0  0  0  0  0
    9.5890   -2.4950   23.2210 C   0  0  0  0  0  0  0  0  0  0  0  0
    8.2550   -1.0010   24.5520 C   0  0  0  0  0  0  0  0  0  0  0  0
   14.2605   -1.7025   23.7521 C   0  0  0  0  0  0  0  0  0  0  0  0
   12.5446   -0.7621   22.3350 C   0  0  0  0  0  0  0  0  0  0  0  0
   11.9678   -0.1433   23.4441 C   0  0  0  0  0  0  0  0  0  0  0  0
    8.3450   -3.3440   25.0980 C   0  0  0  0  0  0  0  0  0  0  0  0
    9.1280   -1.2090   23.4870 C   0  0  0  0  0  0  0  0  0  0  0  0
   13.6909   -1.5417   22.4890 C   0  0  0  0  0  0  0  0  0  0  0  0
    5.7970    0.9500   18.6730 C   0  0  0  0  0  0  0  0  0  0  0  0
    7.2710   -0.1460   19.8310 C   0  0  0  0  0  0  0  0  0  0  0  0
    4.6610    1.7170   18.4380 C   0  0  0  0  0  0  0  0  0  0  0  0
    3.8860    2.1050   19.5250 C   0  0  0  0  0  0  0  0  0  0  0  0
    4.2460    1.7520   20.8250 C   0  0  0  0  0  0  0  0  0  0  0  0
    5.3890    1.0010   21.0690 C   0  0  0  0  0  0  0  0  0  0  0  0
    9.0430    0.2380   21.4940 C   0  0  0  0  0  0  0  0  0  0  0  0
    8.2020   -4.5570   27.2975 C   0  0  0  0  0  0  0  0  0  0  0  0
    7.8877   -6.0892   29.2873 C   0  0  0  0  0  0  0  0  0  0  0  0
   10.7332    0.6950   23.2793 C   0  0  0  0  0  0  0  0  0  0  0  0
    8.0950   -0.7700   20.8440 C   0  0  0  0  0  0  0  0  0  0  0  0
    7.6337   -5.8735   27.8062 C   0  0  0  0  0  0  0  0  0  0  0  0
    6.7100    0.3850   17.8100 N   0  0  0  0  0  0  0  0  0  0  0  0
    7.5840   -0.2700   18.5160 N   0  0  0  0  0  0  0  0  0  0  0  0
    6.1460    0.6070   19.9750 N   0  0  0  0  0  0  0  0  0  0  0  0
    7.9771   -4.4058   25.9196 N   0  0  0  0  0  0  0  0  0  0  0  0
    9.5820   -0.1080   22.7000 N   0  0  0  0  0  0  0  0  0  0  0  0
    9.2950    1.3000   20.9480 O   0  0  0  0  0  0  0  0  0  0  0  0
    8.7738   -3.7653   28.0397 O   0  0  0  0  0  0  0  0  0  0  0  0
   14.4024   -2.3063   21.1212 Cl  0  0  0  0  0  0  0  0  0  0  0  0
   14.1267   -1.2089   25.8450 H   0  0  0  0  0  0  0  0  0  0  0  0
   12.0945    0.1742   25.5770 H   0  0  0  0  0  0  0  0  0  0  0  0
    9.5436   -4.5614   23.7799 H   0  0  0  0  0  0  0  0  0  0  0  0
    7.1918   -1.8823   26.1906 H   0  0  0  0  0  0  0  0  0  0  0  0
   10.2676   -2.6754   22.3861 H   0  0  0  0  0  0  0  0  0  0  0  0
    7.8686   -0.0026   24.7598 H   0  0  0  0  0  0  0  0  0  0  0  0
   15.1537   -2.3075   23.8871 H   0  0  0  0  0  0  0  0  0  0  0  0
   12.0970   -0.6332   21.3522 H   0  0  0  0  0  0  0  0  0  0  0  0
    4.3709    2.0154   17.4453 H   0  0  0  0  0  0  0  0  0  0  0  0
    2.9937    2.6903   19.3398 H   0  0  0  0  0  0  0  0  0  0  0  0
    3.6324    2.0591   21.6820 H   0  0  0  0  0  0  0  0  0  0  0  0
    5.6875    0.7279   22.0567 H   0  0  0  0  0  0  0  0  0  0  0  0
    8.9603   -6.0845   29.5072 H   0  0  0  0  0  0  0  0  0  0  0  0
    7.4771   -7.0515   29.6082 H   0  0  0  0  0  0  0  0  0  0  0  0
    7.4190   -5.3008   29.8855 H   0  0  0  0  0  0  0  0  0  0  0  0
   10.4128    1.1042   24.2436 H   0  0  0  0  0  0  0  0  0  0  0  0
   10.9202    1.5430   22.6121 H   0  0  0  0  0  0  0  0  0  0  0  0
    7.4766   -1.2063   21.6410 H   0  0  0  0  0  0  0  0  0  0  0  0
    8.7076   -1.5785   20.4206 H   0  0  0  0  0  0  0  0  0  0  0  0
    6.5544   -5.8829   27.6153 H   0  0  0  0  0  0  0  0  0  0  0  0
    8.0868   -6.6917   27.2346 H   0  0  0  0  0  0  0  0  0  0  0  0
    7.4775   -5.1796   25.4660 H   0  0  0  0  0  0  0  0  0  0  0  0
  1  2  2  0  0  0  0
  1  7  1  0  0  0  0
  2  9  1  0  0  0  0
  3  5  2  0  0  0  0
  3 10  1  0  0  0  0
  4  6  1  0  0  0  0
  4 10  2  0  0  0  0
  5 11  1  0  0  0  0
  6 11  2  0  0  0  0
  7 12  2  0  0  0  0
  8  9  2  0  0  0  0
  8 12  1  0  0  0  0
  9 22  1  0  0  0  0
 10 28  1  0  0  0  0
 11 29  1  0  0  0  0
 12 32  1  0  0  0  0
 13 15  1  0  0  0  0
 13 25  2  0  0  0  0
 13 27  1  0  0  0  0
 14 23  1  0  0  0  0
 14 26  2  0  0  0  0
 14 27  1  0  0  0  0
 15 16  2  0  0  0  0
 16 17  1  0  0  0  0
 17 18  2  0  0  0  0
 18 27  1  0  0  0  0
 19 23  1  0  0  0  0
 19 29  1  0  0  0  0
 19 30  2  0  0  0  0
 20 24  1  0  0  0  0
 20 28  1  0  0  0  0
 20 31  2  0  0  0  0
 21 24  1  0  0  0  0
 22 29  1  0  0  0  0
 25 26  1  0  0  0  0
  1 33  1  0  0  0  0
  2 34  1  0  0  0  0
  3 35  1  0  0  0  0
  4 36  1  0  0  0  0
  5 37  1  0  0  0  0
  6 38  1  0  0  0  0
  7 39  1  0  0  0  0
  8 40  1  0  0  0  0
 15 41  1  0  0  0  0
 16 42  1  0  0  0  0
 17 43  1  0  0  0  0
 18 44  1  0  0  0  0
 21 45  1  0  0  0  0
 21 46  1  0  0  0  0
 21 47  1  0  0  0  0
 22 48  1  0  0  0  0
 22 49  1  0  0  0  0
 23 50  1  0  0  0  0
 23 51  1  0  0  0  0
 24 52  1  0  0  0  0
 24 53  1  0  0  0  0
 28 54  1  0  0  0  0
M  END
> <clash_score>
0

> <docking_score>
-9.094523429870605

> <overlap_score>
1.0071982145309448

$$$$
BENZO_489_1
  -OEChem-08232013563D

 47 50  0     0  0  0  0  0  0999 V2000
   14.2611   -1.7021   23.7496 C   0  0  0  0  0  0  0  0  0  0  0  0
   14.0231   -0.6345   24.6152 C   0  0  0  0  0  0  0  0  0  0  0  0
   13.3525   -1.9903   22.7313 C   0  0  0  0  0  0  0  0  0  0  0  0
   12.8764    0.1449   24.4624 C   0  0  0  0  0  0  0  0  0  0  0  0
   12.2058   -1.2109   22.5785 C   0  0  0  0  0  0  0  0  0  0  0  0
    9.1890   -3.5540   24.0140 C   0  0  0  0  0  0  0  0  0  0  0  0
    7.8700   -2.0610   25.3550 C   0  0  0  0  0  0  0  0  0  0  0  0
    9.5890   -2.4950   23.2210 C   0  0  0  0  0  0  0  0  0  0  0  0
    8.2550   -1.0010   24.5520 C   0  0  0  0  0  0  0  0  0  0  0  0
    8.3450   -3.3440   25.0980 C   0  0  0  0  0  0  0  0  0  0  0  0
   11.9678   -0.1433   23.4441 C   0  0  0  0  0  0  0  0  0  0  0  0
    9.1280   -1.2090   23.4870 C   0  0  0  0  0  0  0  0  0  0  0  0
    5.7970    0.9500   18.6730 C   0  0  0  0  0  0  0  0  0  0  0  0
    7.2710   -0.1460   19.8310 C   0  0  0  0  0  0  0  0  0  0  0  0
    4.6610    1.7170   18.4380 C   0  0  0  0  0  0  0  0  0  0  0  0
    3.8860    2.1050   19.5250 C   0  0  0  0  0  0  0  0  0  0  0  0
    4.2460    1.7520   20.8250 C   0  0  0  0  0  0  0  0  0  0  0  0
    5.3890    1.0010   21.0690 C   0  0  0  0  0  0  0  0  0  0  0  0
    9.0430    0.2380   21.4940 C   0  0  0  0  0  0  0  0  0  0  0  0
    7.9522   -4.4794   25.9764 C   0  0  0  0  0  0  0  0  0  0  0  0
   10.7332    0.6950   23.2793 C   0  0  0  0  0  0  0  0  0  0  0  0
    8.0950   -0.7700   20.8440 C   0  0  0  0  0  0  0  0  0  0  0  0
    6.7100    0.3850   17.8100 N   0  0  0  0  0  0  0  0  0  0  0  0
    7.5840   -0.2700   18.5160 N   0  0  0  0  0  0  0  0  0  0  0  0
    6.1460    0.6070   19.9750 N   0  0  0  0  0  0  0  0  0  0  0  0
    9.5820   -0.1080   22.7000 N   0  0  0  0  0  0  0  0  0  0  0  0
    9.2950    1.3000   20.9480 O   0  0  0  0  0  0  0  0  0  0  0  0
   15.1547   -2.3080   23.8679 H   0  0  0  0  0  0  0  0  0  0  0  0
   14.7311   -0.4092   25.4075 H   0  0  0  0  0  0  0  0  0  0  0  0
   13.5381   -2.8207   22.0565 H   0  0  0  0  0  0  0  0  0  0  0  0
   12.6991    0.9746   25.1416 H   0  0  0  0  0  0  0  0  0  0  0  0
   11.5034   -1.4430   21.7824 H   0  0  0  0  0  0  0  0  0  0  0  0
    9.5403   -4.5627   23.7809 H   0  0  0  0  0  0  0  0  0  0  0  0
    7.1911   -1.8848   26.1904 H   0  0  0  0  0  0  0  0  0  0  0  0
   10.2682   -2.6746   22.3865 H   0  0  0  0  0  0  0  0  0  0  0  0
    7.8684   -0.0022   24.7594 H   0  0  0  0  0  0  0  0  0  0  0  0
    4.3709    2.0154   17.4453 H   0  0  0  0  0  0  0  0  0  0  0  0
    2.9937    2.6903   19.3398 H   0  0  0  0  0  0  0  0  0  0  0  0
    3.6324    2.0591   21.6820 H   0  0  0  0  0  0  0  0  0  0  0  0
    5.6875    0.7279   22.0567 H   0  0  0  0  0  0  0  0  0  0  0  0
    8.6668   -4.5891   26.8013 H   0  0  0  0  0  0  0  0  0  0  0  0
    6.9513   -4.3276   26.4010 H   0  0  0  0  0  0  0  0  0  0  0  0
    7.9196   -5.4231   25.4163 H   0  0  0  0  0  0  0  0  0  0  0  0
   10.4128    1.1042   24.2436 H   0  0  0  0  0  0  0  0  0  0  0  0
   10.9202    1.5430   22.6121 H   0  0  0  0  0  0  0  0  0  0  0  0
    7.4766   -1.2063   21.6410 H   0  0  0  0  0  0  0  0  0  0  0  0
    8.7076   -1.5785   20.4206 H   0  0  0  0  0  0  0  0  0  0  0  0
  1  2  1  0  0  0  0
  1  3  2  0  0  0  0
  2  4  2  0  0  0  0
  3  5  1  0  0  0  0
  4 11  1  0  0  0  0
  5 11  2  0  0  0  0
  6  8  2  0  0  0  0
  6 10  1  0  0  0  0
  7  9  1  0  0  0  0
  7 10  2  0  0  0  0
  8 12  1  0  0  0  0
  9 12  2  0  0  0  0
 10 20  1  0  0  0  0
 11 21  1  0  0  0  0
 12 26  1  0  0  0  0
 13 15  1  0  0  0  0
 13 23  2  0  0  0  0
 13 25  1  0  0  0  0
 14 22  1  0  0  0  0
 14 24  2  0  0  0  0
 14 25  1  0  0  0  0
 15 16  2  0  0  0  0
 16 17  1  0  0  0  0
 17 18  2  0  0  0  0
 18 25  1  0  0  0  0
 19 22  1  0  0  0  0
 19 26  1  0  0  0  0
 19 27  2  0  0  0  0
 21 26  1  0  0  0  0
 23 24  1  0  0  0  0
  1 28  1  0  0  0  0
  2 29  1  0  0  0  0
  3 30  1  0  0  0  0
  4 31  1  0  0  0  0
  5 32  1  0  0  0  0
  6 33  1  0  0  0  0
  7 34  1  0  0  0  0
  8 35  1  0  0  0  0
  9 36  1  0  0  0  0
 15 37  1  0  0  0  0
 16 38  1  0  0  0  0
 17 39  1  0  0  0  0
 18 40  1  0  0  0  0
 20 41  1  0  0  0  0
 20 42  1  0  0  0  0
 20 43  1  0  0  0  0
 21 44  1  0  0  0  0
 21 45  1  0  0  0  0
 22 46  1  0  0  0  0
 22 47  1  0  0  0  0
M  END
> <clash_score>
0

> <docking_score>
-9.54283332824707

> <overlap_score>
0.8978695869445801

$$$$
BENZO_488_1
  -OEChem-08232013563D

 44 47  0     0  0  0  0  0  0999 V2000
    9.1890   -3.5540   24.0140 C   0  0  0  0  0  0  0  0  0  0  0  0
    7.8700   -2.0610   25.3550 C   0  0  0  0  0  0  0  0  0  0  0  0
    9.5890   -2.4950   23.2210 C   0  0  0  0  0  0  0  0  0  0  0  0
    8.2550   -1.0010   24.5520 C   0  0  0  0  0  0  0  0  0  0  0  0
   12.6178   -0.3636   24.6928 C   0  0  0  0  0  0  0  0  0  0  0  0
   13.7276   -1.1692   24.5634 C   0  0  0  0  0  0  0  0  0  0  0  0
   12.6059   -0.7889   22.4077 C   0  0  0  0  0  0  0  0  0  0  0  0
    8.3450   -3.3440   25.0980 C   0  0  0  0  0  0  0  0  0  0  0  0
   11.9678   -0.1433   23.4441 C   0  0  0  0  0  0  0  0  0  0  0  0
    9.1280   -1.2090   23.4870 C   0  0  0  0  0  0  0  0  0  0  0  0
    5.7970    0.9500   18.6730 C   0  0  0  0  0  0  0  0  0  0  0  0
    7.2710   -0.1460   19.8310 C   0  0  0  0  0  0  0  0  0  0  0  0
    4.6610    1.7170   18.4380 C   0  0  0  0  0  0  0  0  0  0  0  0
    3.8860    2.1050   19.5250 C   0  0  0  0  0  0  0  0  0  0  0  0
    4.2460    1.7520   20.8250 C   0  0  0  0  0  0  0  0  0  0  0  0
    5.3890    1.0010   21.0690 C   0  0  0  0  0  0  0  0  0  0  0  0
    9.0430    0.2380   21.4940 C   0  0  0  0  0  0  0  0  0  0  0  0
    7.9522   -4.4794   25.9764 C   0  0  0  0  0  0  0  0  0  0  0  0
   10.7332    0.6950   23.2793 C   0  0  0  0  0  0  0  0  0  0  0  0
    8.0950   -0.7700   20.8440 C   0  0  0  0  0  0  0  0  0  0  0  0
    6.7100    0.3850   17.8100 N   0  0  0  0  0  0  0  0  0  0  0  0
    7.5840   -0.2700   18.5160 N   0  0  0  0  0  0  0  0  0  0  0  0
    6.1460    0.6070   19.9750 N   0  0  0  0  0  0  0  0  0  0  0  0
    9.5820   -0.1080   22.7000 N   0  0  0  0  0  0  0  0  0  0  0  0
    9.2950    1.3000   20.9480 O   0  0  0  0  0  0  0  0  0  0  0  0
   13.9824   -1.6563   22.9416 S   0  0  0  0  0  0  0  0  0  0  0  0
    9.5403   -4.5627   23.7809 H   0  0  0  0  0  0  0  0  0  0  0  0
    7.1911   -1.8848   26.1904 H   0  0  0  0  0  0  0  0  0  0  0  0
   10.2682   -2.6746   22.3865 H   0  0  0  0  0  0  0  0  0  0  0  0
    7.8684   -0.0022   24.7594 H   0  0  0  0  0  0  0  0  0  0  0  0
   12.2914    0.0465   25.6402 H   0  0  0  0  0  0  0  0  0  0  0  0
   14.4015   -1.4944   25.3433 H   0  0  0  0  0  0  0  0  0  0  0  0
   12.3336   -0.7943   21.3614 H   0  0  0  0  0  0  0  0  0  0  0  0
    4.3709    2.0154   17.4453 H   0  0  0  0  0  0  0  0  0  0  0  0
    2.9937    2.6903   19.3398 H   0  0  0  0  0  0  0  0  0  0  0  0
    3.6324    2.0591   21.6820 H   0  0  0  0  0  0  0  0  0  0  0  0
    5.6875    0.7279   22.0567 H   0  0  0  0  0  0  0  0  0  0  0  0
    8.6668   -4.5891   26.8013 H   0  0  0  0  0  0  0  0  0  0  0  0
    6.9513   -4.3276   26.4010 H   0  0  0  0  0  0  0  0  0  0  0  0
    7.9196   -5.4231   25.4163 H   0  0  0  0  0  0  0  0  0  0  0  0
   10.4128    1.1042   24.2436 H   0  0  0  0  0  0  0  0  0  0  0  0
   10.9202    1.5430   22.6121 H   0  0  0  0  0  0  0  0  0  0  0  0
    7.4766   -1.2063   21.6410 H   0  0  0  0  0  0  0  0  0  0  0  0
    8.7076   -1.5785   20.4206 H   0  0  0  0  0  0  0  0  0  0  0  0
  1  3  2  0  0  0  0
  1  8  1  0  0  0  0
  2  4  1  0  0  0  0
  2  8  2  0  0  0  0
  3 10  1  0  0  0  0
  4 10  2  0  0  0  0
  5  6  2  0  0  0  0
  5  9  1  0  0  0  0
  6 26  1  0  0  0  0
  7  9  2  0  0  0  0
  7 26  1  0  0  0  0
  8 18  1  0  0  0  0
  9 19  1  0  0  0  0
 10 24  1  0  0  0  0
 11 13  1  0  0  0  0
 11 21  2  0  0  0  0
 11 23  1  0  0  0  0
 12 20  1  0  0  0  0
 12 22  2  0  0  0  0
 12 23  1  0  0  0  0
 13 14  2  0  0  0  0
 14 15  1  0  0  0  0
 15 16  2  0  0  0  0
 16 23  1  0  0  0  0
 17 20  1  0  0  0  0
 17 24  1  0  0  0  0
 17 25  2  0  0  0  0
 19 24  1  0  0  0  0
 21 22  1  0  0  0  0
  1 27  1  0  0  0  0
  2 28  1  0  0  0  0
  3 29  1  0  0  0  0
  4 30  1  0  0  0  0
  5 31  1  0  0  0  0
  6 32  1  0  0  0  0
  7 33  1  0  0  0  0
 13 34  1  0  0  0  0
 14 35  1  0  0  0  0
 15 36  1  0  0  0  0
 16 37  1  0  0  0  0
 18 38  1  0  0  0  0
 18 39  1  0  0  0  0
 18 40  1  0  0  0  0
 19 41  1  0  0  0  0
 19 42  1  0  0  0  0
 20 43  1  0  0  0  0
 20 44  1  0  0  0  0
M  END
> <clash_score>
0

> <docking_score>
-9.08715534210205

> <overlap_score>
0.8833784461021423

$$$$
BENZO_487_1
  -OEChem-08232013563D

 59 63  0     0  0  0  0  0  0999 V2000
    9.1890   -3.5540   24.0140 C   0  0  0  0  0  0  0  0  0  0  0  0
    7.8700   -2.0610   25.3550 C   0  0  0  0  0  0  0  0  0  0  0  0
    9.5890   -2.4950   23.2210 C   0  0  0  0  0  0  0  0  0  0  0  0
    8.2550   -1.0010   24.5520 C   0  0  0  0  0  0  0  0  0  0  0  0
   13.2446    0.8966   23.0363 C   0  0  0  0  0  0  0  0  0  0  0  0
   12.3986   -1.1324   23.0868 C   0  0  0  0  0  0  0  0  0  0  0  0
   12.0333    0.1898   23.1580 C   0  0  0  0  0  0  0  0  0  0  0  0
    8.3450   -3.3440   25.0980 C   0  0  0  0  0  0  0  0  0  0  0  0
    9.1280   -1.2090   23.4870 C   0  0  0  0  0  0  0  0  0  0  0  0
    5.7970    0.9500   18.6730 C   0  0  0  0  0  0  0  0  0  0  0  0
    7.2710   -0.1460   19.8310 C   0  0  0  0  0  0  0  0  0  0  0  0
    4.6610    1.7170   18.4380 C   0  0  0  0  0  0  0  0  0  0  0  0
    3.8860    2.1050   19.5250 C   0  0  0  0  0  0  0  0  0  0  0  0
    4.2460    1.7520   20.8250 C   0  0  0  0  0  0  0  0  0  0  0  0
    5.3890    1.0010   21.0690 C   0  0  0  0  0  0  0  0  0  0  0  0
    9.0430    0.2380   21.4940 C   0  0  0  0  0  0  0  0  0  0  0  0
    7.5748   -4.8280   28.7278 C   0  0  0  0  0  0  0  0  0  0  0  0
    8.9776   -4.7555   28.1204 C   0  0  0  0  0  0  0  0  0  0  0  0
    6.5554   -4.0713   27.8732 C   0  0  0  0  0  0  0  0  0  0  0  0
    8.9620   -5.1961   26.6568 C   0  0  0  0  0  0  0  0  0  0  0  0
    6.6009   -4.5253   26.4110 C   0  0  0  0  0  0  0  0  0  0  0  0
   14.5977   -2.3013   22.8113 C   0  0  0  0  0  0  0  0  0  0  0  0
   10.6518    0.7520   23.3299 C   0  0  0  0  0  0  0  0  0  0  0  0
    8.0950   -0.7700   20.8440 C   0  0  0  0  0  0  0  0  0  0  0  0
   14.3005    0.0903   22.8984 N   0  0  0  0  0  0  0  0  0  0  0  0
    6.7100    0.3850   17.8100 N   0  0  0  0  0  0  0  0  0  0  0  0
    7.5840   -0.2700   18.5160 N   0  0  0  0  0  0  0  0  0  0  0  0
   13.7537   -1.1369   22.9331 N   0  0  0  0  0  0  0  0  0  0  0  0
    6.1460    0.6070   19.9750 N   0  0  0  0  0  0  0  0  0  0  0  0
    7.9770   -4.4029   25.9162 N   0  0  0  0  0  0  0  0  0  0  0  0
    9.5820   -0.1080   22.7000 N   0  0  0  0  0  0  0  0  0  0  0  0
    9.2950    1.3000   20.9480 O   0  0  0  0  0  0  0  0  0  0  0  0
    9.5426   -4.5618   23.7797 H   0  0  0  0  0  0  0  0  0  0  0  0
    7.1914   -1.8824   26.1903 H   0  0  0  0  0  0  0  0  0  0  0  0
   10.2669   -2.6745   22.3854 H   0  0  0  0  0  0  0  0  0  0  0  0
    7.8690   -0.0020   24.7587 H   0  0  0  0  0  0  0  0  0  0  0  0
   13.4046    1.9655   23.0429 H   0  0  0  0  0  0  0  0  0  0  0  0
   11.8240   -2.0476   23.1325 H   0  0  0  0  0  0  0  0  0  0  0  0
    4.3709    2.0154   17.4453 H   0  0  0  0  0  0  0  0  0  0  0  0
    2.9937    2.6903   19.3398 H   0  0  0  0  0  0  0  0  0  0  0  0
    3.6324    2.0591   21.6820 H   0  0  0  0  0  0  0  0  0  0  0  0
    5.6875    0.7279   22.0567 H   0  0  0  0  0  0  0  0  0  0  0  0
    7.2681   -5.8807   28.8239 H   0  0  0  0  0  0  0  0  0  0  0  0
    7.5891   -4.4101   29.7448 H   0  0  0  0  0  0  0  0  0  0  0  0
    9.3554   -3.7320   28.1920 H   0  0  0  0  0  0  0  0  0  0  0  0
    9.6558   -5.3943   28.6900 H   0  0  0  0  0  0  0  0  0  0  0  0
    5.5496   -4.2322   28.2751 H   0  0  0  0  0  0  0  0  0  0  0  0
    6.7545   -2.9948   27.9293 H   0  0  0  0  0  0  0  0  0  0  0  0
    9.9612   -5.0560   26.2363 H   0  0  0  0  0  0  0  0  0  0  0  0
    8.7097   -6.2583   26.5922 H   0  0  0  0  0  0  0  0  0  0  0  0
    6.2649   -5.5600   26.3335 H   0  0  0  0  0  0  0  0  0  0  0  0
    5.9271   -3.8964   25.8283 H   0  0  0  0  0  0  0  0  0  0  0  0
   14.6779   -2.5502   21.7499 H   0  0  0  0  0  0  0  0  0  0  0  0
   15.5845   -2.0810   23.2280 H   0  0  0  0  0  0  0  0  0  0  0  0
   14.1515   -3.1308   23.3670 H   0  0  0  0  0  0  0  0  0  0  0  0
   10.4132    0.8720   24.3923 H   0  0  0  0  0  0  0  0  0  0  0  0
   10.5688    1.7398   22.8644 H   0  0  0  0  0  0  0  0  0  0  0  0
    7.4659   -1.2025   21.6292 H   0  0  0  0  0  0  0  0  0  0  0  0
    8.6969   -1.5747   20.4087 H   0  0  0  0  0  0  0  0  0  0  0  0
  1  3  2  0  0  0  0
  1  8  1  0  0  0  0
  2  4  1  0  0  0  0
  2  8  2  0  0  0  0
  3  9  1  0  0  0  0
  4  9  2  0  0  0  0
  5  7  1  0  0  0  0
  5 25  2  0  0  0  0
  6  7  2  0  0  0  0
  6 28  1  0  0  0  0
  7 23  1  0  0  0  0
  8 30  1  0  0  0  0
  9 31  1  0  0  0  0
 10 12  1  0  0  0  0
 10 26  2  0  0  0  0
 10 29  1  0  0  0  0
 11 24  1  0  0  0  0
 11 27  2  0  0  0  0
 11 29  1  0  0  0  0
 12 13  2  0  0  0  0
 13 14  1  0  0  0  0
 14 15  2  0  0  0  0
 15 29  1  0  0  0  0
 16 24  1  0  0  0  0
 16 31  1  0  0  0  0
 16 32  2  0  0  0  0
 17 18  1  0  0  0  0
 17 19  1  0  0  0  0
 18 20  1  0  0  0  0
 19 21  1  0  0  0  0
 20 30  1  0  0  0  0
 21 30  1  0  0  0  0
 22 28  1  0  0  0  0
 23 31  1  0  0  0  0
 25 28  1  0  0  0  0
 26 27  1  0  0  0  0
  1 33  1  0  0  0  0
  2 34  1  0  0  0  0
  3 35  1  0  0  0  0
  4 36  1  0  0  0  0
  5 37  1  0  0  0  0
  6 38  1  0  0  0  0
 12 39  1  0  0  0  0
 13 40  1  0  0  0  0
 14 41  1  0  0  0  0
 15 42  1  0  0  0  0
 17 43  1  0  0  0  0
 17 44  1  0  0  0  0
 18 45  1  0  0  0  0
 18 46  1  0  0  0  0
 19 47  1  0  0  0  0
 19 48  1  0  0  0  0
 20 49  1  0  0  0  0
 20 50  1  0  0  0  0
 21 51  1  0  0  0  0
 21 52  1  0  0  0  0
 22 53  1  0  0  0  0
 22 54  1  0  0  0  0
 22 55  1  0  0  0  0
 23 56  1  0  0  0  0
 23 57  1  0  0  0  0
 24 58  1  0  0  0  0
 24 59  1  0  0  0  0
M  END
> <clash_score>
0

> <docking_score>
-10.555046081542969

> <overlap_score>
0.9660855531692505

$$$$
BENZO_486_1
  -OEChem-08232013563D

 59 63  0     0  0  0  0  0  0999 V2000
   13.6221   -0.7726   25.1256 C   0  0  0  0  0  0  0  0  0  0  0  0
   12.4369   -0.0778   24.8846 C   0  0  0  0  0  0  0  0  0  0  0  0
    9.1890   -3.5540   24.0140 C   0  0  0  0  0  0  0  0  0  0  0  0
    7.8700   -2.0610   25.3550 C   0  0  0  0  0  0  0  0  0  0  0  0
    9.5890   -2.4950   23.2210 C   0  0  0  0  0  0  0  0  0  0  0  0
    8.2550   -1.0010   24.5520 C   0  0  0  0  0  0  0  0  0  0  0  0
   14.2989   -1.3844   24.0704 C   0  0  0  0  0  0  0  0  0  0  0  0
   12.6050   -0.6067   22.5332 C   0  0  0  0  0  0  0  0  0  0  0  0
   11.9283    0.0051   23.5884 C   0  0  0  0  0  0  0  0  0  0  0  0
    8.3450   -3.3440   25.0980 C   0  0  0  0  0  0  0  0  0  0  0  0
    9.1280   -1.2090   23.4870 C   0  0  0  0  0  0  0  0  0  0  0  0
   13.7903   -1.3015   22.7742 C   0  0  0  0  0  0  0  0  0  0  0  0
    5.7970    0.9500   18.6730 C   0  0  0  0  0  0  0  0  0  0  0  0
    7.2710   -0.1460   19.8310 C   0  0  0  0  0  0  0  0  0  0  0  0
    4.6610    1.7170   18.4380 C   0  0  0  0  0  0  0  0  0  0  0  0
    3.8860    2.1050   19.5250 C   0  0  0  0  0  0  0  0  0  0  0  0
    4.2460    1.7520   20.8250 C   0  0  0  0  0  0  0  0  0  0  0  0
    5.3890    1.0010   21.0690 C   0  0  0  0  0  0  0  0  0  0  0  0
    9.0430    0.2380   21.4940 C   0  0  0  0  0  0  0  0  0  0  0  0
    7.5748   -4.8280   28.7278 C   0  0  0  0  0  0  0  0  0  0  0  0
    8.9776   -4.7555   28.1204 C   0  0  0  0  0  0  0  0  0  0  0  0
    6.5554   -4.0713   27.8732 C   0  0  0  0  0  0  0  0  0  0  0  0
    8.9620   -5.1961   26.6568 C   0  0  0  0  0  0  0  0  0  0  0  0
    6.6009   -4.5253   26.4110 C   0  0  0  0  0  0  0  0  0  0  0  0
   10.6518    0.7520   23.3299 C   0  0  0  0  0  0  0  0  0  0  0  0
    8.0950   -0.7700   20.8440 C   0  0  0  0  0  0  0  0  0  0  0  0
    6.7100    0.3850   17.8100 N   0  0  0  0  0  0  0  0  0  0  0  0
    7.5840   -0.2700   18.5160 N   0  0  0  0  0  0  0  0  0  0  0  0
    6.1460    0.6070   19.9750 N   0  0  0  0  0  0  0  0  0  0  0  0
    7.9770   -4.4029   25.9162 N   0  0  0  0  0  0  0  0  0  0  0  0
    9.5820   -0.1080   22.7000 N   0  0  0  0  0  0  0  0  0  0  0  0
    9.2950    1.3000   20.9480 O   0  0  0  0  0  0  0  0  0  0  0  0
   14.6251   -2.0575   21.4729 Cl  0  0  0  0  0  0  0  0  0  0  0  0
   14.0177   -0.8370   26.1351 H   0  0  0  0  0  0  0  0  0  0  0  0
   11.9162    0.3957   25.7128 H   0  0  0  0  0  0  0  0  0  0  0  0
    9.5426   -4.5618   23.7797 H   0  0  0  0  0  0  0  0  0  0  0  0
    7.1914   -1.8824   26.1903 H   0  0  0  0  0  0  0  0  0  0  0  0
   10.2669   -2.6745   22.3854 H   0  0  0  0  0  0  0  0  0  0  0  0
    7.8690   -0.0020   24.7587 H   0  0  0  0  0  0  0  0  0  0  0  0
   15.2214   -1.9227   24.2731 H   0  0  0  0  0  0  0  0  0  0  0  0
   12.2046   -0.5388   21.5243 H   0  0  0  0  0  0  0  0  0  0  0  0
    4.3709    2.0154   17.4453 H   0  0  0  0  0  0  0  0  0  0  0  0
    2.9937    2.6903   19.3398 H   0  0  0  0  0  0  0  0  0  0  0  0
    3.6324    2.0591   21.6820 H   0  0  0  0  0  0  0  0  0  0  0  0
    5.6875    0.7279   22.0567 H   0  0  0  0  0  0  0  0  0  0  0  0
    7.2681   -5.8807   28.8239 H   0  0  0  0  0  0  0  0  0  0  0  0
    7.5891   -4.4101   29.7448 H   0  0  0  0  0  0  0  0  0  0  0  0
    9.3554   -3.7320   28.1920 H   0  0  0  0  0  0  0  0  0  0  0  0
    9.6558   -5.3943   28.6900 H   0  0  0  0  0  0  0  0  0  0  0  0
    5.5496   -4.2322   28.2751 H   0  0  0  0  0  0  0  0  0  0  0  0
    6.7545   -2.9948   27.9293 H   0  0  0  0  0  0  0  0  0  0  0  0
    9.9612   -5.0560   26.2363 H   0  0  0  0  0  0  0  0  0  0  0  0
    8.7097   -6.2583   26.5922 H   0  0  0  0  0  0  0  0  0  0  0  0
    6.2649   -5.5600   26.3335 H   0  0  0  0  0  0  0  0  0  0  0  0
    5.9271   -3.8964   25.8283 H   0  0  0  0  0  0  0  0  0  0  0  0
   10.2524    1.1679   24.2614 H   0  0  0  0  0  0  0  0  0  0  0  0
   10.8186    1.5899   22.6448 H   0  0  0  0  0  0  0  0  0  0  0  0
    7.4659   -1.2025   21.6292 H   0  0  0  0  0  0  0  0  0  0  0  0
    8.6969   -1.5747   20.4087 H   0  0  0  0  0  0  0  0  0  0  0  0
  1  2  2  0  0  0  0
  1  7  1  0  0  0  0
  2  9  1  0  0  0  0
  3  5  2  0  0  0  0
  3 10  1  0  0  0  0
  4  6  1  0  0  0  0
  4 10  2  0  0  0  0
  5 11  1  0  0  0  0
  6 11  2  0  0  0  0
  7 12  2  0  0  0  0
  8  9  2  0  0  0  0
  8 12  1  0  0  0  0
  9 25  1  0  0  0  0
 10 30  1  0  0  0  0
 11 31  1  0  0  0  0
 12 33  1  0  0  0  0
 13 15  1  0  0  0  0
 13 27  2  0  0  0  0
 13 29  1  0  0  0  0
 14 26  1  0  0  0  0
 14 28  2  0  0  0  0
 14 29  1  0  0  0  0
 15 16  2  0  0  0  0
 16 17  1  0  0  0  0
 17 18  2  0  0  0  0
 18 29  1  0  0  0  0
 19 26  1  0  0  0  0
 19 31  1  0  0  0  0
 19 32  2  0  0  0  0
 20 21  1  0  0  0  0
 20 22  1  0  0  0  0
 21 23  1  0  0  0  0
 22 24  1  0  0  0  0
 23 30  1  0  0  0  0
 24 30  1  0  0  0  0
 25 31  1  0  0  0  0
 27 28  1  0  0  0  0
  1 34  1  0  0  0  0
  2 35  1  0  0  0  0
  3 36  1  0  0  0  0
  4 37  1  0  0  0  0
  5 38  1  0  0  0  0
  6 39  1  0  0  0  0
  7 40  1  0  0  0  0
  8 41  1  0  0  0  0
 15 42  1  0  0  0  0
 16 43  1  0  0  0  0
 17 44  1  0  0  0  0
 18 45  1  0  0  0  0
 20 46  1  0  0  0  0
 20 47  1  0  0  0  0
 21 48  1  0  0  0  0
 21 49  1  0  0  0  0
 22 50  1  0  0  0  0
 22 51  1  0  0  0  0
 23 52  1  0  0  0  0
 23 53  1  0  0  0  0
 24 54  1  0  0  0  0
 24 55  1  0  0  0  0
 25 56  1  0  0  0  0
 25 57  1  0  0  0  0
 26 58  1  0  0  0  0
 26 59  1  0  0  0  0
M  END
> <clash_score>
0

> <docking_score>
-8.961260795593262

> <overlap_score>
0.989267110824585

$$$$
BENZO_491_1
  -OEChem-08232013563D

 47 50  0     0  0  0  0  0  0999 V2000
    9.1890   -3.5540   24.0140 C   0  0  0  0  0  0  0  0  0  0  0  0
    7.8700   -2.0610   25.3550 C   0  0  0  0  0  0  0  0  0  0  0  0
    9.5890   -2.4950   23.2210 C   0  0  0  0  0  0  0  0  0  0  0  0
    8.2550   -1.0010   24.5520 C   0  0  0  0  0  0  0  0  0  0  0  0
   12.6749   -0.4157   24.6305 C   0  0  0  0  0  0  0  0  0  0  0  0
   12.6595   -0.8195   22.4691 C   0  0  0  0  0  0  0  0  0  0  0  0
    8.3450   -3.3440   25.0980 C   0  0  0  0  0  0  0  0  0  0  0  0
   11.9678   -0.1433   23.4441 C   0  0  0  0  0  0  0  0  0  0  0  0
    9.1280   -1.2090   23.4870 C   0  0  0  0  0  0  0  0  0  0  0  0
    5.7970    0.9500   18.6730 C   0  0  0  0  0  0  0  0  0  0  0  0
    7.2710   -0.1460   19.8310 C   0  0  0  0  0  0  0  0  0  0  0  0
    4.6610    1.7170   18.4380 C   0  0  0  0  0  0  0  0  0  0  0  0
    3.8860    2.1050   19.5250 C   0  0  0  0  0  0  0  0  0  0  0  0
    4.2460    1.7520   20.8250 C   0  0  0  0  0  0  0  0  0  0  0  0
    5.3890    1.0010   21.0690 C   0  0  0  0  0  0  0  0  0  0  0  0
    9.0430    0.2380   21.4940 C   0  0  0  0  0  0  0  0  0  0  0  0
    7.9522   -4.4794   25.9764 C   0  0  0  0  0  0  0  0  0  0  0  0
   14.7073   -2.2634   22.4943 C   0  0  0  0  0  0  0  0  0  0  0  0
   10.7332    0.6950   23.2793 C   0  0  0  0  0  0  0  0  0  0  0  0
    8.0950   -0.7700   20.8440 C   0  0  0  0  0  0  0  0  0  0  0  0
   13.7346   -1.2036   24.4298 N   0  0  0  0  0  0  0  0  0  0  0  0
    6.7100    0.3850   17.8100 N   0  0  0  0  0  0  0  0  0  0  0  0
    7.5840   -0.2700   18.5160 N   0  0  0  0  0  0  0  0  0  0  0  0
   13.6983   -1.4323   23.1060 N   0  0  0  0  0  0  0  0  0  0  0  0
    6.1460    0.6070   19.9750 N   0  0  0  0  0  0  0  0  0  0  0  0
    9.5820   -0.1080   22.7000 N   0  0  0  0  0  0  0  0  0  0  0  0
    9.2950    1.3000   20.9480 O   0  0  0  0  0  0  0  0  0  0  0  0
    9.5403   -4.5627   23.7809 H   0  0  0  0  0  0  0  0  0  0  0  0
    7.1911   -1.8848   26.1904 H   0  0  0  0  0  0  0  0  0  0  0  0
   10.2682   -2.6746   22.3865 H   0  0  0  0  0  0  0  0  0  0  0  0
    7.8684   -0.0022   24.7594 H   0  0  0  0  0  0  0  0  0  0  0  0
   12.4637   -0.0747   25.6342 H   0  0  0  0  0  0  0  0  0  0  0  0
   12.5042   -0.9156   21.4030 H   0  0  0  0  0  0  0  0  0  0  0  0
    4.3709    2.0154   17.4453 H   0  0  0  0  0  0  0  0  0  0  0  0
    2.9937    2.6903   19.3398 H   0  0  0  0  0  0  0  0  0  0  0  0
    3.6324    2.0591   21.6820 H   0  0  0  0  0  0  0  0  0  0  0  0
    5.6875    0.7279   22.0567 H   0  0  0  0  0  0  0  0  0  0  0  0
    8.6668   -4.5891   26.8013 H   0  0  0  0  0  0  0  0  0  0  0  0
    6.9513   -4.3276   26.4010 H   0  0  0  0  0  0  0  0  0  0  0  0
    7.9196   -5.4231   25.4163 H   0  0  0  0  0  0  0  0  0  0  0  0
   15.5365   -1.6189   22.1905 H   0  0  0  0  0  0  0  0  0  0  0  0
   15.0489   -3.0115   23.2151 H   0  0  0  0  0  0  0  0  0  0  0  0
   14.2790   -2.7719   21.6261 H   0  0  0  0  0  0  0  0  0  0  0  0
   10.4128    1.1042   24.2436 H   0  0  0  0  0  0  0  0  0  0  0  0
   10.9202    1.5430   22.6121 H   0  0  0  0  0  0  0  0  0  0  0  0
    7.4766   -1.2063   21.6410 H   0  0  0  0  0  0  0  0  0  0  0  0
    8.7076   -1.5785   20.4206 H   0  0  0  0  0  0  0  0  0  0  0  0
  1  3  2  0  0  0  0
  1  7  1  0  0  0  0
  2  4  1  0  0  0  0
  2  7  2  0  0  0  0
  3  9  1  0  0  0  0
  4  9  2  0  0  0  0
  5  8  1  0  0  0  0
  5 21  2  0  0  0  0
  6  8  2  0  0  0  0
  6 24  1  0  0  0  0
  7 17  1  0  0  0  0
  8 19  1  0  0  0  0
  9 26  1  0  0  0  0
 10 12  1  0  0  0  0
 10 22  2  0  0  0  0
 10 25  1  0  0  0  0
 11 20  1  0  0  0  0
 11 23  2  0  0  0  0
 11 25  1  0  0  0  0
 12 13  2  0  0  0  0
 13 14  1  0  0  0  0
 14 15  2  0  0  0  0
 15 25  1  0  0  0  0
 16 20  1  0  0  0  0
 16 26  1  0  0  0  0
 16 27  2  0  0  0  0
 18 24  1  0  0  0  0
 19 26  1  0  0  0  0
 21 24  1  0  0  0  0
 22 23  1  0  0  0  0
  1 28  1  0  0  0  0
  2 29  1  0  0  0  0
  3 30  1  0  0  0  0
  4 31  1  0  0  0  0
  5 32  1  0  0  0  0
  6 33  1  0  0  0  0
 12 34  1  0  0  0  0
 13 35  1  0  0  0  0
 14 36  1  0  0  0  0
 15 37  1  0  0  0  0
 17 38  1  0  0  0  0
 17 39  1  0  0  0  0
 17 40  1  0  0  0  0
 18 41  1  0  0  0  0
 18 42  1  0  0  0  0
 18 43  1  0  0  0  0
 19 44  1  0  0  0  0
 19 45  1  0  0  0  0
 20 46  1  0  0  0  0
 20 47  1  0  0  0  0
M  END
> <clash_score>
0

> <docking_score>
-8.088345527648926

> <overlap_score>
0.9010187387466431

$$$$
BENZO_490_1
  -OEChem-08232013563D

 47 50  0     0  0  0  0  0  0999 V2000
   13.6836   -1.0838   24.8612 C   0  0  0  0  0  0  0  0  0  0  0  0
   12.5373   -0.3041   24.7072 C   0  0  0  0  0  0  0  0  0  0  0  0
    9.1890   -3.5540   24.0140 C   0  0  0  0  0  0  0  0  0  0  0  0
    7.8700   -2.0610   25.3550 C   0  0  0  0  0  0  0  0  0  0  0  0
    9.5890   -2.4950   23.2210 C   0  0  0  0  0  0  0  0  0  0  0  0
    8.2550   -1.0010   24.5520 C   0  0  0  0  0  0  0  0  0  0  0  0
   14.2605   -1.7025   23.7521 C   0  0  0  0  0  0  0  0  0  0  0  0
   12.5446   -0.7621   22.3350 C   0  0  0  0  0  0  0  0  0  0  0  0
    8.3450   -3.3440   25.0980 C   0  0  0  0  0  0  0  0  0  0  0  0
   11.9678   -0.1433   23.4441 C   0  0  0  0  0  0  0  0  0  0  0  0
    9.1280   -1.2090   23.4870 C   0  0  0  0  0  0  0  0  0  0  0  0
   13.6909   -1.5417   22.4890 C   0  0  0  0  0  0  0  0  0  0  0  0
    5.7970    0.9500   18.6730 C   0  0  0  0  0  0  0  0  0  0  0  0
    7.2710   -0.1460   19.8310 C   0  0  0  0  0  0  0  0  0  0  0  0
    4.6610    1.7170   18.4380 C   0  0  0  0  0  0  0  0  0  0  0  0
    3.8860    2.1050   19.5250 C   0  0  0  0  0  0  0  0  0  0  0  0
    4.2460    1.7520   20.8250 C   0  0  0  0  0  0  0  0  0  0  0  0
    5.3890    1.0010   21.0690 C   0  0  0  0  0  0  0  0  0  0  0  0
    9.0430    0.2380   21.4940 C   0  0  0  0  0  0  0  0  0  0  0  0
    7.9522   -4.4794   25.9764 C   0  0  0  0  0  0  0  0  0  0  0  0
   10.7332    0.6950   23.2793 C   0  0  0  0  0  0  0  0  0  0  0  0
    8.0950   -0.7700   20.8440 C   0  0  0  0  0  0  0  0  0  0  0  0
    6.7100    0.3850   17.8100 N   0  0  0  0  0  0  0  0  0  0  0  0
    7.5840   -0.2700   18.5160 N   0  0  0  0  0  0  0  0  0  0  0  0
    6.1460    0.6070   19.9750 N   0  0  0  0  0  0  0  0  0  0  0  0
    9.5820   -0.1080   22.7000 N   0  0  0  0  0  0  0  0  0  0  0  0
    9.2950    1.3000   20.9480 O   0  0  0  0  0  0  0  0  0  0  0  0
   14.4024   -2.3063   21.1212 Cl  0  0  0  0  0  0  0  0  0  0  0  0
   14.1267   -1.2089   25.8450 H   0  0  0  0  0  0  0  0  0  0  0  0
   12.0945    0.1742   25.5770 H   0  0  0  0  0  0  0  0  0  0  0  0
    9.5403   -4.5627   23.7809 H   0  0  0  0  0  0  0  0  0  0  0  0
    7.1911   -1.8848   26.1904 H   0  0  0  0  0  0  0  0  0  0  0  0
   10.2682   -2.6746   22.3865 H   0  0  0  0  0  0  0  0  0  0  0  0
    7.8684   -0.0022   24.7594 H   0  0  0  0  0  0  0  0  0  0  0  0
   15.1537   -2.3075   23.8871 H   0  0  0  0  0  0  0  0  0  0  0  0
   12.0970   -0.6332   21.3522 H   0  0  0  0  0  0  0  0  0  0  0  0
    4.3709    2.0154   17.4453 H   0  0  0  0  0  0  0  0  0  0  0  0
    2.9937    2.6903   19.3398 H   0  0  0  0  0  0  0  0  0  0  0  0
    3.6324    2.0591   21.6820 H   0  0  0  0  0  0  0  0  0  0  0  0
    5.6875    0.7279   22.0567 H   0  0  0  0  0  0  0  0  0  0  0  0
    8.6668   -4.5891   26.8013 H   0  0  0  0  0  0  0  0  0  0  0  0
    6.9513   -4.3276   26.4010 H   0  0  0  0  0  0  0  0  0  0  0  0
    7.9196   -5.4231   25.4163 H   0  0  0  0  0  0  0  0  0  0  0  0
   10.4128    1.1042   24.2436 H   0  0  0  0  0  0  0  0  0  0  0  0
   10.9202    1.5430   22.6121 H   0  0  0  0  0  0  0  0  0  0  0  0
    7.4766   -1.2063   21.6410 H   0  0  0  0  0  0  0  0  0  0  0  0
    8.7076   -1.5785   20.4206 H   0  0  0  0  0  0  0  0  0  0  0  0
  1  2  2  0  0  0  0
  1  7  1  0  0  0  0
  2 10  1  0  0  0  0
  3  5  2  0  0  0  0
  3  9  1  0  0  0  0
  4  6  1  0  0  0  0
  4  9  2  0  0  0  0
  5 11  1  0  0  0  0
  6 11  2  0  0  0  0
  7 12  2  0  0  0  0
  8 10  2  0  0  0  0
  8 12  1  0  0  0  0
  9 20  1  0  0  0  0
 10 21  1  0  0  0  0
 11 26  1  0  0  0  0
 12 28  1  0  0  0  0
 13 15  1  0  0  0  0
 13 23  2  0  0  0  0
 13 25  1  0  0  0  0
 14 22  1  0  0  0  0
 14 24  2  0  0  0  0
 14 25  1  0  0  0  0
 15 16  2  0  0  0  0
 16 17  1  0  0  0  0
 17 18  2  0  0  0  0
 18 25  1  0  0  0  0
 19 22  1  0  0  0  0
 19 26  1  0  0  0  0
 19 27  2  0  0  0  0
 21 26  1  0  0  0  0
 23 24  1  0  0  0  0
  1 29  1  0  0  0  0
  2 30  1  0  0  0  0
  3 31  1  0  0  0  0
  4 32  1  0  0  0  0
  5 33  1  0  0  0  0
  6 34  1  0  0  0  0
  7 35  1  0  0  0  0
  8 36  1  0  0  0  0
 15 37  1  0  0  0  0
 16 38  1  0  0  0  0
 17 39  1  0  0  0  0
 18 40  1  0  0  0  0
 20 41  1  0  0  0  0
 20 42  1  0  0  0  0
 20 43  1  0  0  0  0
 21 44  1  0  0  0  0
 21 45  1  0  0  0  0
 22 46  1  0  0  0  0
 22 47  1  0  0  0  0
M  END
> <clash_score>
0

> <docking_score>
-8.554059982299805

> <overlap_score>
0.9065325260162354

$$$$
BENZO_493_1
  -OEChem-08232013563D

 48 51  0     0  0  0  0  0  0999 V2000
   14.2611   -1.7021   23.7496 C   0  0  0  0  0  0  0  0  0  0  0  0
   14.0231   -0.6345   24.6152 C   0  0  0  0  0  0  0  0  0  0  0  0
   13.3525   -1.9903   22.7313 C   0  0  0  0  0  0  0  0  0  0  0  0
   12.8764    0.1449   24.4624 C   0  0  0  0  0  0  0  0  0  0  0  0
   12.2058   -1.2109   22.5785 C   0  0  0  0  0  0  0  0  0  0  0  0
    9.5890   -2.4950   23.2210 C   0  0  0  0  0  0  0  0  0  0  0  0
    8.2550   -1.0010   24.5520 C   0  0  0  0  0  0  0  0  0  0  0  0
    9.1890   -3.5540   24.0140 C   0  0  0  0  0  0  0  0  0  0  0  0
    7.8700   -2.0610   25.3550 C   0  0  0  0  0  0  0  0  0  0  0  0
   11.9678   -0.1433   23.4441 C   0  0  0  0  0  0  0  0  0  0  0  0
    9.1280   -1.2090   23.4870 C   0  0  0  0  0  0  0  0  0  0  0  0
    8.3450   -3.3440   25.0980 C   0  0  0  0  0  0  0  0  0  0  0  0
    5.7970    0.9500   18.6730 C   0  0  0  0  0  0  0  0  0  0  0  0
    7.2710   -0.1460   19.8310 C   0  0  0  0  0  0  0  0  0  0  0  0
    4.6610    1.7170   18.4380 C   0  0  0  0  0  0  0  0  0  0  0  0
    3.8860    2.1050   19.5250 C   0  0  0  0  0  0  0  0  0  0  0  0
    4.2460    1.7520   20.8250 C   0  0  0  0  0  0  0  0  0  0  0  0
    5.3890    1.0010   21.0690 C   0  0  0  0  0  0  0  0  0  0  0  0
    9.0430    0.2380   21.4940 C   0  0  0  0  0  0  0  0  0  0  0  0
    8.5126   -5.6655   25.5740 C   0  0  0  0  0  0  0  0  0  0  0  0
   10.7332    0.6950   23.2793 C   0  0  0  0  0  0  0  0  0  0  0  0
    8.0950   -0.7700   20.8440 C   0  0  0  0  0  0  0  0  0  0  0  0
    6.7100    0.3850   17.8100 N   0  0  0  0  0  0  0  0  0  0  0  0
    7.5840   -0.2700   18.5160 N   0  0  0  0  0  0  0  0  0  0  0  0
    6.1460    0.6070   19.9750 N   0  0  0  0  0  0  0  0  0  0  0  0
    9.5820   -0.1080   22.7000 N   0  0  0  0  0  0  0  0  0  0  0  0
    9.2950    1.3000   20.9480 O   0  0  0  0  0  0  0  0  0  0  0  0
    7.9864   -4.3799   25.8996 O   0  0  0  0  0  0  0  0  0  0  0  0
   15.1547   -2.3080   23.8679 H   0  0  0  0  0  0  0  0  0  0  0  0
   14.7311   -0.4092   25.4075 H   0  0  0  0  0  0  0  0  0  0  0  0
   13.5381   -2.8207   22.0565 H   0  0  0  0  0  0  0  0  0  0  0  0
   12.6991    0.9746   25.1416 H   0  0  0  0  0  0  0  0  0  0  0  0
   11.5034   -1.4430   21.7824 H   0  0  0  0  0  0  0  0  0  0  0  0
   10.2678   -2.6746   22.3862 H   0  0  0  0  0  0  0  0  0  0  0  0
    7.8691   -0.0023   24.7606 H   0  0  0  0  0  0  0  0  0  0  0  0
    9.5404   -4.5633   23.7846 H   0  0  0  0  0  0  0  0  0  0  0  0
    7.1920   -1.8875   26.1914 H   0  0  0  0  0  0  0  0  0  0  0  0
    4.3709    2.0154   17.4453 H   0  0  0  0  0  0  0  0  0  0  0  0
    2.9937    2.6903   19.3398 H   0  0  0  0  0  0  0  0  0  0  0  0
    3.6324    2.0591   21.6820 H   0  0  0  0  0  0  0  0  0  0  0  0
    5.6875    0.7279   22.0567 H   0  0  0  0  0  0  0  0  0  0  0  0
    8.1471   -6.4024   26.2934 H   0  0  0  0  0  0  0  0  0  0  0  0
    9.6047   -5.6295   25.5961 H   0  0  0  0  0  0  0  0  0  0  0  0
    8.1793   -5.9423   24.5710 H   0  0  0  0  0  0  0  0  0  0  0  0
   10.4128    1.1042   24.2436 H   0  0  0  0  0  0  0  0  0  0  0  0
   10.9202    1.5430   22.6121 H   0  0  0  0  0  0  0  0  0  0  0  0
    7.4766   -1.2063   21.6410 H   0  0  0  0  0  0  0  0  0  0  0  0
    8.7076   -1.5785   20.4206 H   0  0  0  0  0  0  0  0  0  0  0  0
  1  2  1  0  0  0  0
  1  3  2  0  0  0  0
  2  4  2  0  0  0  0
  3  5  1  0  0  0  0
  4 10  1  0  0  0  0
  5 10  2  0  0  0  0
  6  8  2  0  0  0  0
  6 11  1  0  0  0  0
  7  9  1  0  0  0  0
  7 11  2  0  0  0  0
  8 12  1  0  0  0  0
  9 12  2  0  0  0  0
 10 21  1  0  0  0  0
 11 26  1  0  0  0  0
 12 28  1  0  0  0  0
 13 15  1  0  0  0  0
 13 23  2  0  0  0  0
 13 25  1  0  0  0  0
 14 22  1  0  0  0  0
 14 24  2  0  0  0  0
 14 25  1  0  0  0  0
 15 16  2  0  0  0  0
 16 17  1  0  0  0  0
 17 18  2  0  0  0  0
 18 25  1  0  0  0  0
 19 22  1  0  0  0  0
 19 26  1  0  0  0  0
 19 27  2  0  0  0  0
 20 28  1  0  0  0  0
 21 26  1  0  0  0  0
 23 24  1  0  0  0  0
  1 29  1  0  0  0  0
  2 30  1  0  0  0  0
  3 31  1  0  0  0  0
  4 32  1  0  0  0  0
  5 33  1  0  0  0  0
  6 34  1  0  0  0  0
  7 35  1  0  0  0  0
  8 36  1  0  0  0  0
  9 37  1  0  0  0  0
 15 38  1  0  0  0  0
 16 39  1  0  0  0  0
 17 40  1  0  0  0  0
 18 41  1  0  0  0  0
 20 42  1  0  0  0  0
 20 43  1  0  0  0  0
 20 44  1  0  0  0  0
 21 45  1  0  0  0  0
 21 46  1  0  0  0  0
 22 47  1  0  0  0  0
 22 48  1  0  0  0  0
M  END
> <clash_score>
0

> <docking_score>
-9.663117408752441

> <overlap_score>
0.9111432433128357

$$$$
BENZO_492_1
  -OEChem-08232013563D

 45 48  0     0  0  0  0  0  0999 V2000
    9.5890   -2.4950   23.2210 C   0  0  0  0  0  0  0  0  0  0  0  0
    8.2550   -1.0010   24.5520 C   0  0  0  0  0  0  0  0  0  0  0  0
    9.1890   -3.5540   24.0140 C   0  0  0  0  0  0  0  0  0  0  0  0
    7.8700   -2.0610   25.3550 C   0  0  0  0  0  0  0  0  0  0  0  0
   12.6245   -0.8104   22.3699 C   0  0  0  0  0  0  0  0  0  0  0  0
   13.7320   -1.5104   22.7953 C   0  0  0  0  0  0  0  0  0  0  0  0
   12.5983   -0.3592   24.6498 C   0  0  0  0  0  0  0  0  0  0  0  0
   11.9678   -0.1433   23.4441 C   0  0  0  0  0  0  0  0  0  0  0  0
    9.1280   -1.2090   23.4870 C   0  0  0  0  0  0  0  0  0  0  0  0
    8.3450   -3.3440   25.0980 C   0  0  0  0  0  0  0  0  0  0  0  0
    5.7970    0.9500   18.6730 C   0  0  0  0  0  0  0  0  0  0  0  0
    7.2710   -0.1460   19.8310 C   0  0  0  0  0  0  0  0  0  0  0  0
    4.6610    1.7170   18.4380 C   0  0  0  0  0  0  0  0  0  0  0  0
    3.8860    2.1050   19.5250 C   0  0  0  0  0  0  0  0  0  0  0  0
    4.2460    1.7520   20.8250 C   0  0  0  0  0  0  0  0  0  0  0  0
    5.3890    1.0010   21.0690 C   0  0  0  0  0  0  0  0  0  0  0  0
    9.0430    0.2380   21.4940 C   0  0  0  0  0  0  0  0  0  0  0  0
    8.5126   -5.6655   25.5740 C   0  0  0  0  0  0  0  0  0  0  0  0
   10.7332    0.6950   23.2793 C   0  0  0  0  0  0  0  0  0  0  0  0
    8.0950   -0.7700   20.8440 C   0  0  0  0  0  0  0  0  0  0  0  0
    6.7100    0.3850   17.8100 N   0  0  0  0  0  0  0  0  0  0  0  0
    7.5840   -0.2700   18.5160 N   0  0  0  0  0  0  0  0  0  0  0  0
    6.1460    0.6070   19.9750 N   0  0  0  0  0  0  0  0  0  0  0  0
    9.5820   -0.1080   22.7000 N   0  0  0  0  0  0  0  0  0  0  0  0
    9.2950    1.3000   20.9480 O   0  0  0  0  0  0  0  0  0  0  0  0
    7.9864   -4.3799   25.8996 O   0  0  0  0  0  0  0  0  0  0  0  0
   13.9762   -1.3622   24.4837 S   0  0  0  0  0  0  0  0  0  0  0  0
   10.2678   -2.6746   22.3862 H   0  0  0  0  0  0  0  0  0  0  0  0
    7.8691   -0.0023   24.7606 H   0  0  0  0  0  0  0  0  0  0  0  0
    9.5404   -4.5633   23.7846 H   0  0  0  0  0  0  0  0  0  0  0  0
    7.1920   -1.8875   26.1914 H   0  0  0  0  0  0  0  0  0  0  0  0
   12.3040   -0.7812   21.3361 H   0  0  0  0  0  0  0  0  0  0  0  0
   14.4089   -2.1024   22.1957 H   0  0  0  0  0  0  0  0  0  0  0  0
   12.3184    0.0211   25.6225 H   0  0  0  0  0  0  0  0  0  0  0  0
    4.3709    2.0154   17.4453 H   0  0  0  0  0  0  0  0  0  0  0  0
    2.9937    2.6903   19.3398 H   0  0  0  0  0  0  0  0  0  0  0  0
    3.6324    2.0591   21.6820 H   0  0  0  0  0  0  0  0  0  0  0  0
    5.6875    0.7279   22.0567 H   0  0  0  0  0  0  0  0  0  0  0  0
    8.1471   -6.4024   26.2934 H   0  0  0  0  0  0  0  0  0  0  0  0
    9.6047   -5.6295   25.5961 H   0  0  0  0  0  0  0  0  0  0  0  0
    8.1793   -5.9423   24.5710 H   0  0  0  0  0  0  0  0  0  0  0  0
   10.4128    1.1042   24.2436 H   0  0  0  0  0  0  0  0  0  0  0  0
   10.9202    1.5430   22.6121 H   0  0  0  0  0  0  0  0  0  0  0  0
    7.4766   -1.2063   21.6410 H   0  0  0  0  0  0  0  0  0  0  0  0
    8.7076   -1.5785   20.4206 H   0  0  0  0  0  0  0  0  0  0  0  0
  1  3  2  0  0  0  0
  1  9  1  0  0  0  0
  2  4  1  0  0  0  0
  2  9  2  0  0  0  0
  3 10  1  0  0  0  0
  4 10  2  0  0  0  0
  5  6  2  0  0  0  0
  5  8  1  0  0  0  0
  6 27  1  0  0  0  0
  7  8  2  0  0  0  0
  7 27  1  0  0  0  0
  8 19  1  0  0  0  0
  9 24  1  0  0  0  0
 10 26  1  0  0  0  0
 11 13  1  0  0  0  0
 11 21  2  0  0  0  0
 11 23  1  0  0  0  0
 12 20  1  0  0  0  0
 12 22  2  0  0  0  0
 12 23  1  0  0  0  0
 13 14  2  0  0  0  0
 14 15  1  0  0  0  0
 15 16  2  0  0  0  0
 16 23  1  0  0  0  0
 17 20  1  0  0  0  0
 17 24  1  0  0  0  0
 17 25  2  0  0  0  0
 18 26  1  0  0  0  0
 19 24  1  0  0  0  0
 21 22  1  0  0  0  0
  1 28  1  0  0  0  0
  2 29  1  0  0  0  0
  3 30  1  0  0  0  0
  4 31  1  0  0  0  0
  5 32  1  0  0  0  0
  6 33  1  0  0  0  0
  7 34  1  0  0  0  0
 13 35  1  0  0  0  0
 14 36  1  0  0  0  0
 15 37  1  0  0  0  0
 16 38  1  0  0  0  0
 18 39  1  0  0  0  0
 18 40  1  0  0  0  0
 18 41  1  0  0  0  0
 19 42  1  0  0  0  0
 19 43  1  0  0  0  0
 20 44  1  0  0  0  0
 20 45  1  0  0  0  0
M  END
> <clash_score>
0

> <docking_score>
-9.195773124694824

> <overlap_score>
0.899075984954834

$$$$
BENZO_495_1
  -OEChem-08232013563D

 48 51  0     0  0  0  0  0  0999 V2000
    9.5890   -2.4950   23.2210 C   0  0  0  0  0  0  0  0  0  0  0  0
    8.2550   -1.0010   24.5520 C   0  0  0  0  0  0  0  0  0  0  0  0
    9.1890   -3.5540   24.0140 C   0  0  0  0  0  0  0  0  0  0  0  0
    7.8700   -2.0610   25.3550 C   0  0  0  0  0  0  0  0  0  0  0  0
   13.2995    0.3257   23.6066 C   0  0  0  0  0  0  0  0  0  0  0  0
   12.3291   -0.9657   22.1148 C   0  0  0  0  0  0  0  0  0  0  0  0
   12.0579    0.0433   23.0063 C   0  0  0  0  0  0  0  0  0  0  0  0
    9.1280   -1.2090   23.4870 C   0  0  0  0  0  0  0  0  0  0  0  0
    8.3450   -3.3440   25.0980 C   0  0  0  0  0  0  0  0  0  0  0  0
    5.7970    0.9500   18.6730 C   0  0  0  0  0  0  0  0  0  0  0  0
    7.2710   -0.1460   19.8310 C   0  0  0  0  0  0  0  0  0  0  0  0
    4.6610    1.7170   18.4380 C   0  0  0  0  0  0  0  0  0  0  0  0
    3.8860    2.1050   19.5250 C   0  0  0  0  0  0  0  0  0  0  0  0
    4.2460    1.7520   20.8250 C   0  0  0  0  0  0  0  0  0  0  0  0
    5.3890    1.0010   21.0690 C   0  0  0  0  0  0  0  0  0  0  0  0
    9.0430    0.2380   21.4940 C   0  0  0  0  0  0  0  0  0  0  0  0
   14.4183   -2.2012   21.4920 C   0  0  0  0  0  0  0  0  0  0  0  0
    7.1173   -4.0851   26.9921 C   0  0  0  0  0  0  0  0  0  0  0  0
   10.7332    0.6950   23.2793 C   0  0  0  0  0  0  0  0  0  0  0  0
    8.0950   -0.7700   20.8440 C   0  0  0  0  0  0  0  0  0  0  0  0
   14.2861   -0.4421   23.1363 N   0  0  0  0  0  0  0  0  0  0  0  0
    6.7100    0.3850   17.8100 N   0  0  0  0  0  0  0  0  0  0  0  0
    7.5840   -0.2700   18.5160 N   0  0  0  0  0  0  0  0  0  0  0  0
   13.6646   -1.2169   22.2311 N   0  0  0  0  0  0  0  0  0  0  0  0
    6.1460    0.6070   19.9750 N   0  0  0  0  0  0  0  0  0  0  0  0
    9.5820   -0.1080   22.7000 N   0  0  0  0  0  0  0  0  0  0  0  0
    9.2950    1.3000   20.9480 O   0  0  0  0  0  0  0  0  0  0  0  0
    7.9864   -4.3799   25.8996 O   0  0  0  0  0  0  0  0  0  0  0  0
   10.2678   -2.6746   22.3862 H   0  0  0  0  0  0  0  0  0  0  0  0
    7.8691   -0.0023   24.7606 H   0  0  0  0  0  0  0  0  0  0  0  0
    9.5404   -4.5633   23.7846 H   0  0  0  0  0  0  0  0  0  0  0  0
    7.1920   -1.8875   26.1914 H   0  0  0  0  0  0  0  0  0  0  0  0
   13.5289    1.0578   24.3679 H   0  0  0  0  0  0  0  0  0  0  0  0
   11.7009   -1.5138   21.4257 H   0  0  0  0  0  0  0  0  0  0  0  0
    4.3709    2.0154   17.4453 H   0  0  0  0  0  0  0  0  0  0  0  0
    2.9937    2.6903   19.3398 H   0  0  0  0  0  0  0  0  0  0  0  0
    3.6324    2.0591   21.6820 H   0  0  0  0  0  0  0  0  0  0  0  0
    5.6875    0.7279   22.0567 H   0  0  0  0  0  0  0  0  0  0  0  0
   14.7913   -1.7260   20.5809 H   0  0  0  0  0  0  0  0  0  0  0  0
   15.2504   -2.5583   22.1051 H   0  0  0  0  0  0  0  0  0  0  0  0
   13.7672   -3.0446   21.2456 H   0  0  0  0  0  0  0  0  0  0  0  0
    6.9108   -5.0007   27.5517 H   0  0  0  0  0  0  0  0  0  0  0  0
    6.1851   -3.6592   26.6126 H   0  0  0  0  0  0  0  0  0  0  0  0
    7.6053   -3.3614   27.6493 H   0  0  0  0  0  0  0  0  0  0  0  0
   10.5688    0.7986   24.3574 H   0  0  0  0  0  0  0  0  0  0  0  0
   10.6929    1.7000   22.8461 H   0  0  0  0  0  0  0  0  0  0  0  0
    7.4766   -1.2063   21.6410 H   0  0  0  0  0  0  0  0  0  0  0  0
    8.7076   -1.5785   20.4206 H   0  0  0  0  0  0  0  0  0  0  0  0
  1  3  2  0  0  0  0
  1  8  1  0  0  0  0
  2  4  1  0  0  0  0
  2  8  2  0  0  0  0
  3  9  1  0  0  0  0
  4  9  2  0  0  0  0
  5  7  1  0  0  0  0
  5 21  2  0  0  0  0
  6  7  2  0  0  0  0
  6 24  1  0  0  0  0
  7 19  1  0  0  0  0
  8 26  1  0  0  0  0
  9 28  1  0  0  0  0
 10 12  1  0  0  0  0
 10 22  2  0  0  0  0
 10 25  1  0  0  0  0
 11 20  1  0  0  0  0
 11 23  2  0  0  0  0
 11 25  1  0  0  0  0
 12 13  2  0  0  0  0
 13 14  1  0  0  0  0
 14 15  2  0  0  0  0
 15 25  1  0  0  0  0
 16 20  1  0  0  0  0
 16 26  1  0  0  0  0
 16 27  2  0  0  0  0
 17 24  1  0  0  0  0
 18 28  1  0  0  0  0
 19 26  1  0  0  0  0
 21 24  1  0  0  0  0
 22 23  1  0  0  0  0
  1 29  1  0  0  0  0
  2 30  1  0  0  0  0
  3 31  1  0  0  0  0
  4 32  1  0  0  0  0
  5 33  1  0  0  0  0
  6 34  1  0  0  0  0
 12 35  1  0  0  0  0
 13 36  1  0  0  0  0
 14 37  1  0  0  0  0
 15 38  1  0  0  0  0
 17 39  1  0  0  0  0
 17 40  1  0  0  0  0
 17 41  1  0  0  0  0
 18 42  1  0  0  0  0
 18 43  1  0  0  0  0
 18 44  1  0  0  0  0
 19 45  1  0  0  0  0
 19 46  1  0  0  0  0
 20 47  1  0  0  0  0
 20 48  1  0  0  0  0
M  END
> <clash_score>
0

> <docking_score>
-8.89282512664795

> <overlap_score>
0.9055991172790527

$$$$
BENZO_494_1
  -OEChem-08232013563D

 48 51  0     0  0  0  0  0  0999 V2000
   13.6836   -1.0838   24.8612 C   0  0  0  0  0  0  0  0  0  0  0  0
   12.5373   -0.3041   24.7072 C   0  0  0  0  0  0  0  0  0  0  0  0
    9.5890   -2.4950   23.2210 C   0  0  0  0  0  0  0  0  0  0  0  0
    8.2550   -1.0010   24.5520 C   0  0  0  0  0  0  0  0  0  0  0  0
    9.1890   -3.5540   24.0140 C   0  0  0  0  0  0  0  0  0  0  0  0
    7.8700   -2.0610   25.3550 C   0  0  0  0  0  0  0  0  0  0  0  0
   14.2605   -1.7025   23.7521 C   0  0  0  0  0  0  0  0  0  0  0  0
   12.5446   -0.7621   22.3350 C   0  0  0  0  0  0  0  0  0  0  0  0
   11.9678   -0.1433   23.4441 C   0  0  0  0  0  0  0  0  0  0  0  0
    9.1280   -1.2090   23.4870 C   0  0  0  0  0  0  0  0  0  0  0  0
    8.3450   -3.3440   25.0980 C   0  0  0  0  0  0  0  0  0  0  0  0
   13.6909   -1.5417   22.4890 C   0  0  0  0  0  0  0  0  0  0  0  0
    5.7970    0.9500   18.6730 C   0  0  0  0  0  0  0  0  0  0  0  0
    7.2710   -0.1460   19.8310 C   0  0  0  0  0  0  0  0  0  0  0  0
    4.6610    1.7170   18.4380 C   0  0  0  0  0  0  0  0  0  0  0  0
    3.8860    2.1050   19.5250 C   0  0  0  0  0  0  0  0  0  0  0  0
    4.2460    1.7520   20.8250 C   0  0  0  0  0  0  0  0  0  0  0  0
    5.3890    1.0010   21.0690 C   0  0  0  0  0  0  0  0  0  0  0  0
    9.0430    0.2380   21.4940 C   0  0  0  0  0  0  0  0  0  0  0  0
    8.5126   -5.6655   25.5740 C   0  0  0  0  0  0  0  0  0  0  0  0
   10.7332    0.6950   23.2793 C   0  0  0  0  0  0  0  0  0  0  0  0
    8.0950   -0.7700   20.8440 C   0  0  0  0  0  0  0  0  0  0  0  0
    6.7100    0.3850   17.8100 N   0  0  0  0  0  0  0  0  0  0  0  0
    7.5840   -0.2700   18.5160 N   0  0  0  0  0  0  0  0  0  0  0  0
    6.1460    0.6070   19.9750 N   0  0  0  0  0  0  0  0  0  0  0  0
    9.5820   -0.1080   22.7000 N   0  0  0  0  0  0  0  0  0  0  0  0
    9.2950    1.3000   20.9480 O   0  0  0  0  0  0  0  0  0  0  0  0
    7.9864   -4.3799   25.8996 O   0  0  0  0  0  0  0  0  0  0  0  0
   14.4024   -2.3063   21.1212 Cl  0  0  0  0  0  0  0  0  0  0  0  0
   14.1267   -1.2089   25.8450 H   0  0  0  0  0  0  0  0  0  0  0  0
   12.0945    0.1742   25.5770 H   0  0  0  0  0  0  0  0  0  0  0  0
   10.2678   -2.6746   22.3862 H   0  0  0  0  0  0  0  0  0  0  0  0
    7.8691   -0.0023   24.7606 H   0  0  0  0  0  0  0  0  0  0  0  0
    9.5404   -4.5633   23.7846 H   0  0  0  0  0  0  0  0  0  0  0  0
    7.1920   -1.8875   26.1914 H   0  0  0  0  0  0  0  0  0  0  0  0
   15.1537   -2.3075   23.8871 H   0  0  0  0  0  0  0  0  0  0  0  0
   12.0970   -0.6332   21.3522 H   0  0  0  0  0  0  0  0  0  0  0  0
    4.3709    2.0154   17.4453 H   0  0  0  0  0  0  0  0  0  0  0  0
    2.9937    2.6903   19.3398 H   0  0  0  0  0  0  0  0  0  0  0  0
    3.6324    2.0591   21.6820 H   0  0  0  0  0  0  0  0  0  0  0  0
    5.6875    0.7279   22.0567 H   0  0  0  0  0  0  0  0  0  0  0  0
    8.1471   -6.4024   26.2934 H   0  0  0  0  0  0  0  0  0  0  0  0
    9.6047   -5.6295   25.5961 H   0  0  0  0  0  0  0  0  0  0  0  0
    8.1793   -5.9423   24.5710 H   0  0  0  0  0  0  0  0  0  0  0  0
   10.4128    1.1042   24.2436 H   0  0  0  0  0  0  0  0  0  0  0  0
   10.9202    1.5430   22.6121 H   0  0  0  0  0  0  0  0  0  0  0  0
    7.4766   -1.2063   21.6410 H   0  0  0  0  0  0  0  0  0  0  0  0
    8.7076   -1.5785   20.4206 H   0  0  0  0  0  0  0  0  0  0  0  0
  1  2  2  0  0  0  0
  1  7  1  0  0  0  0
  2  9  1  0  0  0  0
  3  5  2  0  0  0  0
  3 10  1  0  0  0  0
  4  6  1  0  0  0  0
  4 10  2  0  0  0  0
  5 11  1  0  0  0  0
  6 11  2  0  0  0  0
  7 12  2  0  0  0  0
  8  9  2  0  0  0  0
  8 12  1  0  0  0  0
  9 21  1  0  0  0  0
 10 26  1  0  0  0  0
 11 28  1  0  0  0  0
 12 29  1  0  0  0  0
 13 15  1  0  0  0  0
 13 23  2  0  0  0  0
 13 25  1  0  0  0  0
 14 22  1  0  0  0  0
 14 24  2  0  0  0  0
 14 25  1  0  0  0  0
 15 16  2  0  0  0  0
 16 17  1  0  0  0  0
 17 18  2  0  0  0  0
 18 25  1  0  0  0  0
 19 22  1  0  0  0  0
 19 26  1  0  0  0  0
 19 27  2  0  0  0  0
 20 28  1  0  0  0  0
 21 26  1  0  0  0  0
 23 24  1  0  0  0  0
  1 30  1  0  0  0  0
  2 31  1  0  0  0  0
  3 32  1  0  0  0  0
  4 33  1  0  0  0  0
  5 34  1  0  0  0  0
  6 35  1  0  0  0  0
  7 36  1  0  0  0  0
  8 37  1  0  0  0  0
 15 38  1  0  0  0  0
 16 39  1  0  0  0  0
 17 40  1  0  0  0  0
 18 41  1  0  0  0  0
 20 42  1  0  0  0  0
 20 43  1  0  0  0  0
 20 44  1  0  0  0  0
 21 45  1  0  0  0  0
 21 46  1  0  0  0  0
 22 47  1  0  0  0  0
 22 48  1  0  0  0  0
M  END
> <clash_score>
0

> <docking_score>
-8.674345016479492

> <overlap_score>
0.9197748899459839

$$$$
BENZO_497_1
  -OEChem-08232013563D

 58 62  0     0  0  0  0  0  0999 V2000
   14.3042   -1.3694   24.0873 C   0  0  0  0  0  0  0  0  0  0  0  0
   13.9329   -0.3050   24.9087 C   0  0  0  0  0  0  0  0  0  0  0  0
   13.4883   -1.7440   23.0196 C   0  0  0  0  0  0  0  0  0  0  0  0
   12.7458    0.3848   24.6627 C   0  0  0  0  0  0  0  0  0  0  0  0
   12.3012   -1.0542   22.7736 C   0  0  0  0  0  0  0  0  0  0  0  0
    9.1890   -3.5540   24.0140 C   0  0  0  0  0  0  0  0  0  0  0  0
    7.8700   -2.0610   25.3550 C   0  0  0  0  0  0  0  0  0  0  0  0
    9.5890   -2.4950   23.2210 C   0  0  0  0  0  0  0  0  0  0  0  0
    8.2550   -1.0010   24.5520 C   0  0  0  0  0  0  0  0  0  0  0  0
   11.9299    0.0102   23.5951 C   0  0  0  0  0  0  0  0  0  0  0  0
    8.3450   -3.3440   25.0980 C   0  0  0  0  0  0  0  0  0  0  0  0
    9.1280   -1.2090   23.4870 C   0  0  0  0  0  0  0  0  0  0  0  0
    5.7970    0.9500   18.6730 C   0  0  0  0  0  0  0  0  0  0  0  0
    7.2710   -0.1460   19.8310 C   0  0  0  0  0  0  0  0  0  0  0  0
    4.6610    1.7170   18.4380 C   0  0  0  0  0  0  0  0  0  0  0  0
    3.8860    2.1050   19.5250 C   0  0  0  0  0  0  0  0  0  0  0  0
    4.2460    1.7520   20.8250 C   0  0  0  0  0  0  0  0  0  0  0  0
    5.3890    1.0010   21.0690 C   0  0  0  0  0  0  0  0  0  0  0  0
    7.2752   -5.5548   25.4273 C   0  0  0  0  0  0  0  0  0  0  0  0
    9.0430    0.2380   21.4940 C   0  0  0  0  0  0  0  0  0  0  0  0
    7.1880   -6.7800   26.3209 C   0  0  0  0  0  0  0  0  0  0  0  0
    7.0916   -6.4753   27.7999 C   0  0  0  0  0  0  0  0  0  0  0  0
    8.2362   -5.5641   28.1841 C   0  0  0  0  0  0  0  0  0  0  0  0
    8.1241   -4.2655   27.4032 C   0  0  0  0  0  0  0  0  0  0  0  0
   10.6518    0.7520   23.3299 C   0  0  0  0  0  0  0  0  0  0  0  0
    8.0950   -0.7700   20.8440 C   0  0  0  0  0  0  0  0  0  0  0  0
    6.7100    0.3850   17.8100 N   0  0  0  0  0  0  0  0  0  0  0  0
    7.5840   -0.2700   18.5160 N   0  0  0  0  0  0  0  0  0  0  0  0
    6.1460    0.6070   19.9750 N   0  0  0  0  0  0  0  0  0  0  0  0
    7.9635   -4.4452   25.9501 N   0  0  0  0  0  0  0  0  0  0  0  0
    9.5820   -0.1080   22.7000 N   0  0  0  0  0  0  0  0  0  0  0  0
    6.7947   -5.6299   24.2931 O   0  0  0  0  0  0  0  0  0  0  0  0
    9.2950    1.3000   20.9480 O   0  0  0  0  0  0  0  0  0  0  0  0
   15.2292   -1.9055   24.2781 H   0  0  0  0  0  0  0  0  0  0  0  0
   14.5686   -0.0125   25.7394 H   0  0  0  0  0  0  0  0  0  0  0  0
   13.7776   -2.5719   22.3792 H   0  0  0  0  0  0  0  0  0  0  0  0
   12.4644    1.2127   25.3082 H   0  0  0  0  0  0  0  0  0  0  0  0
   11.6717   -1.3531   21.9396 H   0  0  0  0  0  0  0  0  0  0  0  0
    9.5436   -4.5614   23.7799 H   0  0  0  0  0  0  0  0  0  0  0  0
    7.1918   -1.8823   26.1906 H   0  0  0  0  0  0  0  0  0  0  0  0
   10.2676   -2.6754   22.3861 H   0  0  0  0  0  0  0  0  0  0  0  0
    7.8686   -0.0026   24.7598 H   0  0  0  0  0  0  0  0  0  0  0  0
    4.3709    2.0154   17.4453 H   0  0  0  0  0  0  0  0  0  0  0  0
    2.9937    2.6903   19.3398 H   0  0  0  0  0  0  0  0  0  0  0  0
    3.6324    2.0591   21.6820 H   0  0  0  0  0  0  0  0  0  0  0  0
    5.6875    0.7279   22.0567 H   0  0  0  0  0  0  0  0  0  0  0  0
    6.3101   -7.3613   26.0164 H   0  0  0  0  0  0  0  0  0  0  0  0
    8.0752   -7.3922   26.1183 H   0  0  0  0  0  0  0  0  0  0  0  0
    6.1328   -5.9938   28.0269 H   0  0  0  0  0  0  0  0  0  0  0  0
    7.1363   -7.4051   28.3772 H   0  0  0  0  0  0  0  0  0  0  0  0
    8.2035   -5.3520   29.2586 H   0  0  0  0  0  0  0  0  0  0  0  0
    9.1990   -6.0474   27.9788 H   0  0  0  0  0  0  0  0  0  0  0  0
    7.2505   -3.6996   27.7511 H   0  0  0  0  0  0  0  0  0  0  0  0
    9.0155   -3.6525   27.5824 H   0  0  0  0  0  0  0  0  0  0  0  0
   10.2440    1.1632   24.2598 H   0  0  0  0  0  0  0  0  0  0  0  0
   10.8196    1.5928   22.6486 H   0  0  0  0  0  0  0  0  0  0  0  0
    7.4659   -1.2025   21.6292 H   0  0  0  0  0  0  0  0  0  0  0  0
    8.6969   -1.5747   20.4087 H   0  0  0  0  0  0  0  0  0  0  0  0
  1  2  1  0  0  0  0
  1  3  2  0  0  0  0
  2  4  2  0  0  0  0
  3  5  1  0  0  0  0
  4 10  1  0  0  0  0
  5 10  2  0  0  0  0
  6  8  2  0  0  0  0
  6 11  1  0  0  0  0
  7  9  1  0  0  0  0
  7 11  2  0  0  0  0
  8 12  1  0  0  0  0
  9 12  2  0  0  0  0
 10 25  1  0  0  0  0
 11 30  1  0  0  0  0
 12 31  1  0  0  0  0
 13 15  1  0  0  0  0
 13 27  2  0  0  0  0
 13 29  1  0  0  0  0
 14 26  1  0  0  0  0
 14 28  2  0  0  0  0
 14 29  1  0  0  0  0
 15 16  2  0  0  0  0
 16 17  1  0  0  0  0
 17 18  2  0  0  0  0
 18 29  1  0  0  0  0
 19 21  1  0  0  0  0
 19 30  1  0  0  0  0
 19 32  2  0  0  0  0
 20 26  1  0  0  0  0
 20 31  1  0  0  0  0
 20 33  2  0  0  0  0
 21 22  1  0  0  0  0
 22 23  1  0  0  0  0
 23 24  1  0  0  0  0
 24 30  1  0  0  0  0
 25 31  1  0  0  0  0
 27 28  1  0  0  0  0
  1 34  1  0  0  0  0
  2 35  1  0  0  0  0
  3 36  1  0  0  0  0
  4 37  1  0  0  0  0
  5 38  1  0  0  0  0
  6 39  1  0  0  0  0
  7 40  1  0  0  0  0
  8 41  1  0  0  0  0
  9 42  1  0  0  0  0
 15 43  1  0  0  0  0
 16 44  1  0  0  0  0
 17 45  1  0  0  0  0
 18 46  1  0  0  0  0
 21 47  1  0  0  0  0
 21 48  1  0  0  0  0
 22 49  1  0  0  0  0
 22 50  1  0  0  0  0
 23 51  1  0  0  0  0
 23 52  1  0  0  0  0
 24 53  1  0  0  0  0
 24 54  1  0  0  0  0
 25 55  1  0  0  0  0
 25 56  1  0  0  0  0
 26 57  1  0  0  0  0
 26 58  1  0  0  0  0
M  END
> <clash_score>
0

> <docking_score>
-8.608169555664062

> <overlap_score>
0.9858354330062866

$$$$
BENZO_496_1
  -OEChem-08232013563D

 55 59  0     0  0  0  0  0  0999 V2000
    9.1890   -3.5540   24.0140 C   0  0  0  0  0  0  0  0  0  0  0  0
    7.8700   -2.0610   25.3550 C   0  0  0  0  0  0  0  0  0  0  0  0
    9.5890   -2.4950   23.2210 C   0  0  0  0  0  0  0  0  0  0  0  0
    8.2550   -1.0010   24.5520 C   0  0  0  0  0  0  0  0  0  0  0  0
   12.5149   -0.1281   24.8869 C   0  0  0  0  0  0  0  0  0  0  0  0
   13.6848   -0.8545   24.8501 C   0  0  0  0  0  0  0  0  0  0  0  0
   12.6752   -0.6156   22.6200 C   0  0  0  0  0  0  0  0  0  0  0  0
   11.9299    0.0102   23.5951 C   0  0  0  0  0  0  0  0  0  0  0  0
    8.3450   -3.3440   25.0980 C   0  0  0  0  0  0  0  0  0  0  0  0
    9.1280   -1.2090   23.4870 C   0  0  0  0  0  0  0  0  0  0  0  0
    5.7970    0.9500   18.6730 C   0  0  0  0  0  0  0  0  0  0  0  0
    7.2710   -0.1460   19.8310 C   0  0  0  0  0  0  0  0  0  0  0  0
    4.6610    1.7170   18.4380 C   0  0  0  0  0  0  0  0  0  0  0  0
    3.8860    2.1050   19.5250 C   0  0  0  0  0  0  0  0  0  0  0  0
    4.2460    1.7520   20.8250 C   0  0  0  0  0  0  0  0  0  0  0  0
    5.3890    1.0010   21.0690 C   0  0  0  0  0  0  0  0  0  0  0  0
    7.2752   -5.5548   25.4273 C   0  0  0  0  0  0  0  0  0  0  0  0
    9.0430    0.2380   21.4940 C   0  0  0  0  0  0  0  0  0  0  0  0
    7.1880   -6.7800   26.3209 C   0  0  0  0  0  0  0  0  0  0  0  0
    7.0916   -6.4753   27.7999 C   0  0  0  0  0  0  0  0  0  0  0  0
    8.2362   -5.5641   28.1841 C   0  0  0  0  0  0  0  0  0  0  0  0
    8.1241   -4.2655   27.4032 C   0  0  0  0  0  0  0  0  0  0  0  0
   10.6518    0.7520   23.3299 C   0  0  0  0  0  0  0  0  0  0  0  0
    8.0950   -0.7700   20.8440 C   0  0  0  0  0  0  0  0  0  0  0  0
    6.7100    0.3850   17.8100 N   0  0  0  0  0  0  0  0  0  0  0  0
    7.5840   -0.2700   18.5160 N   0  0  0  0  0  0  0  0  0  0  0  0
    6.1460    0.6070   19.9750 N   0  0  0  0  0  0  0  0  0  0  0  0
    7.9635   -4.4452   25.9501 N   0  0  0  0  0  0  0  0  0  0  0  0
    9.5820   -0.1080   22.7000 N   0  0  0  0  0  0  0  0  0  0  0  0
    6.7947   -5.6299   24.2931 O   0  0  0  0  0  0  0  0  0  0  0  0
    9.2950    1.3000   20.9480 O   0  0  0  0  0  0  0  0  0  0  0  0
   14.0737   -1.3661   23.2629 S   0  0  0  0  0  0  0  0  0  0  0  0
    9.5436   -4.5614   23.7799 H   0  0  0  0  0  0  0  0  0  0  0  0
    7.1918   -1.8823   26.1906 H   0  0  0  0  0  0  0  0  0  0  0  0
   10.2676   -2.6754   22.3861 H   0  0  0  0  0  0  0  0  0  0  0  0
    7.8686   -0.0026   24.7598 H   0  0  0  0  0  0  0  0  0  0  0  0
   12.1021    0.2830   25.7996 H   0  0  0  0  0  0  0  0  0  0  0  0
   14.3301   -1.1085   25.6791 H   0  0  0  0  0  0  0  0  0  0  0  0
   12.4696   -0.6694   21.5599 H   0  0  0  0  0  0  0  0  0  0  0  0
    4.3709    2.0154   17.4453 H   0  0  0  0  0  0  0  0  0  0  0  0
    2.9937    2.6903   19.3398 H   0  0  0  0  0  0  0  0  0  0  0  0
    3.6324    2.0591   21.6820 H   0  0  0  0  0  0  0  0  0  0  0  0
    5.6875    0.7279   22.0567 H   0  0  0  0  0  0  0  0  0  0  0  0
    6.3101   -7.3613   26.0164 H   0  0  0  0  0  0  0  0  0  0  0  0
    8.0752   -7.3922   26.1183 H   0  0  0  0  0  0  0  0  0  0  0  0
    6.1328   -5.9938   28.0269 H   0  0  0  0  0  0  0  0  0  0  0  0
    7.1363   -7.4051   28.3772 H   0  0  0  0  0  0  0  0  0  0  0  0
    8.2035   -5.3520   29.2586 H   0  0  0  0  0  0  0  0  0  0  0  0
    9.1990   -6.0474   27.9788 H   0  0  0  0  0  0  0  0  0  0  0  0
    7.2505   -3.6996   27.7511 H   0  0  0  0  0  0  0  0  0  0  0  0
    9.0155   -3.6525   27.5824 H   0  0  0  0  0  0  0  0  0  0  0  0
   10.2440    1.1632   24.2598 H   0  0  0  0  0  0  0  0  0  0  0  0
   10.8196    1.5928   22.6486 H   0  0  0  0  0  0  0  0  0  0  0  0
    7.4659   -1.2025   21.6292 H   0  0  0  0  0  0  0  0  0  0  0  0
    8.6969   -1.5747   20.4087 H   0  0  0  0  0  0  0  0  0  0  0  0
  1  3  2  0  0  0  0
  1  9  1  0  0  0  0
  2  4  1  0  0  0  0
  2  9  2  0  0  0  0
  3 10  1  0  0  0  0
  4 10  2  0  0  0  0
  5  6  2  0  0  0  0
  5  8  1  0  0  0  0
  6 32  1  0  0  0  0
  7  8  2  0  0  0  0
  7 32  1  0  0  0  0
  8 23  1  0  0  0  0
  9 28  1  0  0  0  0
 10 29  1  0  0  0  0
 11 13  1  0  0  0  0
 11 25  2  0  0  0  0
 11 27  1  0  0  0  0
 12 24  1  0  0  0  0
 12 26  2  0  0  0  0
 12 27  1  0  0  0  0
 13 14  2  0  0  0  0
 14 15  1  0  0  0  0
 15 16  2  0  0  0  0
 16 27  1  0  0  0  0
 17 19  1  0  0  0  0
 17 28  1  0  0  0  0
 17 30  2  0  0  0  0
 18 24  1  0  0  0  0
 18 29  1  0  0  0  0
 18 31  2  0  0  0  0
 19 20  1  0  0  0  0
 20 21  1  0  0  0  0
 21 22  1  0  0  0  0
 22 28  1  0  0  0  0
 23 29  1  0  0  0  0
 25 26  1  0  0  0  0
  1 33  1  0  0  0  0
  2 34  1  0  0  0  0
  3 35  1  0  0  0  0
  4 36  1  0  0  0  0
  5 37  1  0  0  0  0
  6 38  1  0  0  0  0
  7 39  1  0  0  0  0
 13 40  1  0  0  0  0
 14 41  1  0  0  0  0
 15 42  1  0  0  0  0
 16 43  1  0  0  0  0
 19 44  1  0  0  0  0
 19 45  1  0  0  0  0
 20 46  1  0  0  0  0
 20 47  1  0  0  0  0
 21 48  1  0  0  0  0
 21 49  1  0  0  0  0
 22 50  1  0  0  0  0
 22 51  1  0  0  0  0
 23 52  1  0  0  0  0
 23 53  1  0  0  0  0
 24 54  1  0  0  0  0
 24 55  1  0  0  0  0
M  END
> <clash_score>
0

> <docking_score>
-8.491606712341309

> <overlap_score>
0.970133900642395

$$$$
BENZO_499_1
  -OEChem-08232013563D

 58 62  0     0  0  0  0  0  0999 V2000
    9.1890   -3.5540   24.0140 C   0  0  0  0  0  0  0  0  0  0  0  0
    7.8700   -2.0610   25.3550 C   0  0  0  0  0  0  0  0  0  0  0  0
    9.5890   -2.4950   23.2210 C   0  0  0  0  0  0  0  0  0  0  0  0
    8.2550   -1.0010   24.5520 C   0  0  0  0  0  0  0  0  0  0  0  0
   13.2088    0.5787   23.8415 C   0  0  0  0  0  0  0  0  0  0  0  0
   12.4401   -0.8120   22.3216 C   0  0  0  0  0  0  0  0  0  0  0  0
   12.0356    0.1934   23.1654 C   0  0  0  0  0  0  0  0  0  0  0  0
    8.3450   -3.3440   25.0980 C   0  0  0  0  0  0  0  0  0  0  0  0
    9.1280   -1.2090   23.4870 C   0  0  0  0  0  0  0  0  0  0  0  0
    5.7970    0.9500   18.6730 C   0  0  0  0  0  0  0  0  0  0  0  0
    7.2710   -0.1460   19.8310 C   0  0  0  0  0  0  0  0  0  0  0  0
    4.6610    1.7170   18.4380 C   0  0  0  0  0  0  0  0  0  0  0  0
    3.8860    2.1050   19.5250 C   0  0  0  0  0  0  0  0  0  0  0  0
    4.2460    1.7520   20.8250 C   0  0  0  0  0  0  0  0  0  0  0  0
    5.3890    1.0010   21.0690 C   0  0  0  0  0  0  0  0  0  0  0  0
    8.7161   -4.7975   27.0830 C   0  0  0  0  0  0  0  0  0  0  0  0
    9.0430    0.2380   21.4940 C   0  0  0  0  0  0  0  0  0  0  0  0
    8.1364   -5.9760   27.8449 C   0  0  0  0  0  0  0  0  0  0  0  0
    6.6423   -5.8008   28.0518 C   0  0  0  0  0  0  0  0  0  0  0  0
    5.9022   -5.5526   26.7413 C   0  0  0  0  0  0  0  0  0  0  0  0
    6.8397   -5.2970   25.5620 C   0  0  0  0  0  0  0  0  0  0  0  0
   14.6508   -1.9043   21.8760 C   0  0  0  0  0  0  0  0  0  0  0  0
   10.6518    0.7520   23.3299 C   0  0  0  0  0  0  0  0  0  0  0  0
    8.0950   -0.7700   20.8440 C   0  0  0  0  0  0  0  0  0  0  0  0
   14.2783   -0.1247   23.4602 N   0  0  0  0  0  0  0  0  0  0  0  0
    6.7100    0.3850   17.8100 N   0  0  0  0  0  0  0  0  0  0  0  0
    7.5840   -0.2700   18.5160 N   0  0  0  0  0  0  0  0  0  0  0  0
   13.7788   -0.9622   22.5355 N   0  0  0  0  0  0  0  0  0  0  0  0
    6.1460    0.6070   19.9750 N   0  0  0  0  0  0  0  0  0  0  0  0
    7.9658   -4.4385   25.9449 N   0  0  0  0  0  0  0  0  0  0  0  0
    9.5820   -0.1080   22.7000 N   0  0  0  0  0  0  0  0  0  0  0  0
    9.7829   -4.3044   27.4475 O   0  0  0  0  0  0  0  0  0  0  0  0
    9.2950    1.3000   20.9480 O   0  0  0  0  0  0  0  0  0  0  0  0
    9.5436   -4.5614   23.7799 H   0  0  0  0  0  0  0  0  0  0  0  0
    7.1918   -1.8823   26.1906 H   0  0  0  0  0  0  0  0  0  0  0  0
   10.2676   -2.6754   22.3861 H   0  0  0  0  0  0  0  0  0  0  0  0
    7.8686   -0.0026   24.7598 H   0  0  0  0  0  0  0  0  0  0  0  0
   13.3312    1.3418   24.5971 H   0  0  0  0  0  0  0  0  0  0  0  0
   11.9026   -1.4192   21.6059 H   0  0  0  0  0  0  0  0  0  0  0  0
    4.3709    2.0154   17.4453 H   0  0  0  0  0  0  0  0  0  0  0  0
    2.9937    2.6903   19.3398 H   0  0  0  0  0  0  0  0  0  0  0  0
    3.6324    2.0591   21.6820 H   0  0  0  0  0  0  0  0  0  0  0  0
    5.6875    0.7279   22.0567 H   0  0  0  0  0  0  0  0  0  0  0  0
    8.3160   -6.8753   27.2760 H   0  0  0  0  0  0  0  0  0  0  0  0
    8.6443   -6.0335   28.7960 H   0  0  0  0  0  0  0  0  0  0  0  0
    6.2215   -6.6983   28.5513 H   0  0  0  0  0  0  0  0  0  0  0  0
    6.4589   -4.9587   28.7491 H   0  0  0  0  0  0  0  0  0  0  0  0
    5.2548   -6.4248   26.5112 H   0  0  0  0  0  0  0  0  0  0  0  0
    5.2035   -4.6957   26.8575 H   0  0  0  0  0  0  0  0  0  0  0  0
    7.2534   -6.2390   25.2146 H   0  0  0  0  0  0  0  0  0  0  0  0
    6.2879   -4.8231   24.7574 H   0  0  0  0  0  0  0  0  0  0  0  0
   15.0518   -1.4228   20.9803 H   0  0  0  0  0  0  0  0  0  0  0  0
   15.4613   -2.1864   22.5538 H   0  0  0  0  0  0  0  0  0  0  0  0
   14.0806   -2.7982   21.6082 H   0  0  0  0  0  0  0  0  0  0  0  0
   10.4052    0.8664   24.3911 H   0  0  0  0  0  0  0  0  0  0  0  0
   10.5702    1.7418   22.8685 H   0  0  0  0  0  0  0  0  0  0  0  0
    7.4659   -1.2025   21.6292 H   0  0  0  0  0  0  0  0  0  0  0  0
    8.6969   -1.5747   20.4087 H   0  0  0  0  0  0  0  0  0  0  0  0
  1  3  2  0  0  0  0
  1  8  1  0  0  0  0
  2  4  1  0  0  0  0
  2  8  2  0  0  0  0
  3  9  1  0  0  0  0
  4  9  2  0  0  0  0
  5  7  1  0  0  0  0
  5 25  2  0  0  0  0
  6  7  2  0  0  0  0
  6 28  1  0  0  0  0
  7 23  1  0  0  0  0
  8 30  1  0  0  0  0
  9 31  1  0  0  0  0
 10 12  1  0  0  0  0
 10 26  2  0  0  0  0
 10 29  1  0  0  0  0
 11 24  1  0  0  0  0
 11 27  2  0  0  0  0
 11 29  1  0  0  0  0
 12 13  2  0  0  0  0
 13 14  1  0  0  0  0
 14 15  2  0  0  0  0
 15 29  1  0  0  0  0
 16 18  1  0  0  0  0
 16 30  1  0  0  0  0
 16 32  2  0  0  0  0
 17 24  1  0  0  0  0
 17 31  1  0  0  0  0
 17 33  2  0  0  0  0
 18 19  1  0  0  0  0
 19 20  1  0  0  0  0
 20 21  1  0  0  0  0
 21 30  1  0  0  0  0
 22 28  1  0  0  0  0
 23 31  1  0  0  0  0
 25 28  1  0  0  0  0
 26 27  1  0  0  0  0
  1 34  1  0  0  0  0
  2 35  1  0  0  0  0
  3 36  1  0  0  0  0
  4 37  1  0  0  0  0
  5 38  1  0  0  0  0
  6 39  1  0  0  0  0
 12 40  1  0  0  0  0
 13 41  1  0  0  0  0
 14 42  1  0  0  0  0
 15 43  1  0  0  0  0
 18 44  1  0  0  0  0
 18 45  1  0  0  0  0
 19 46  1  0  0  0  0
 19 47  1  0  0  0  0
 20 48  1  0  0  0  0
 20 49  1  0  0  0  0
 21 50  1  0  0  0  0
 21 51  1  0  0  0  0
 22 52  1  0  0  0  0
 22 53  1  0  0  0  0
 22 54  1  0  0  0  0
 23 55  1  0  0  0  0
 23 56  1  0  0  0  0
 24 57  1  0  0  0  0
 24 58  1  0  0  0  0
M  END
> <clash_score>
0

> <docking_score>
-8.87303352355957

> <overlap_score>
0.9913878440856934

$$$$
BENZO_498_1
  -OEChem-08232013563D

 58 62  0     0  0  0  0  0  0999 V2000
   13.6164   -0.7643   25.1419 C   0  0  0  0  0  0  0  0  0  0  0  0
   12.4297   -0.0743   24.8946 C   0  0  0  0  0  0  0  0  0  0  0  0
    9.1890   -3.5540   24.0140 C   0  0  0  0  0  0  0  0  0  0  0  0
    7.8700   -2.0610   25.3550 C   0  0  0  0  0  0  0  0  0  0  0  0
    9.5890   -2.4950   23.2210 C   0  0  0  0  0  0  0  0  0  0  0  0
    8.2550   -1.0010   24.5520 C   0  0  0  0  0  0  0  0  0  0  0  0
   14.3034   -1.3698   24.0897 C   0  0  0  0  0  0  0  0  0  0  0  0
   12.6168   -0.5953   22.5429 C   0  0  0  0  0  0  0  0  0  0  0  0
   11.9299    0.0102   23.5951 C   0  0  0  0  0  0  0  0  0  0  0  0
    8.3450   -3.3440   25.0980 C   0  0  0  0  0  0  0  0  0  0  0  0
    9.1280   -1.2090   23.4870 C   0  0  0  0  0  0  0  0  0  0  0  0
   13.8036   -1.2853   22.7902 C   0  0  0  0  0  0  0  0  0  0  0  0
    5.7970    0.9500   18.6730 C   0  0  0  0  0  0  0  0  0  0  0  0
    7.2710   -0.1460   19.8310 C   0  0  0  0  0  0  0  0  0  0  0  0
    4.6610    1.7170   18.4380 C   0  0  0  0  0  0  0  0  0  0  0  0
    3.8860    2.1050   19.5250 C   0  0  0  0  0  0  0  0  0  0  0  0
    4.2460    1.7520   20.8250 C   0  0  0  0  0  0  0  0  0  0  0  0
    5.3890    1.0010   21.0690 C   0  0  0  0  0  0  0  0  0  0  0  0
    7.2757   -5.5631   25.4492 C   0  0  0  0  0  0  0  0  0  0  0  0
    9.0430    0.2380   21.4940 C   0  0  0  0  0  0  0  0  0  0  0  0
    6.9626   -6.6001   26.5133 C   0  0  0  0  0  0  0  0  0  0  0  0
    6.3764   -5.9422   27.7501 C   0  0  0  0  0  0  0  0  0  0  0  0
    7.2660   -4.8258   28.2881 C   0  0  0  0  0  0  0  0  0  0  0  0
    8.4098   -4.4623   27.3426 C   0  0  0  0  0  0  0  0  0  0  0  0
   10.6518    0.7520   23.3299 C   0  0  0  0  0  0  0  0  0  0  0  0
    8.0950   -0.7700   20.8440 C   0  0  0  0  0  0  0  0  0  0  0  0
    6.7100    0.3850   17.8100 N   0  0  0  0  0  0  0  0  0  0  0  0
    7.5840   -0.2700   18.5160 N   0  0  0  0  0  0  0  0  0  0  0  0
    6.1460    0.6070   19.9750 N   0  0  0  0  0  0  0  0  0  0  0  0
    7.9658   -4.4384   25.9449 N   0  0  0  0  0  0  0  0  0  0  0  0
    9.5820   -0.1080   22.7000 N   0  0  0  0  0  0  0  0  0  0  0  0
    6.9858   -5.7908   24.2753 O   0  0  0  0  0  0  0  0  0  0  0  0
    9.2950    1.3000   20.9480 O   0  0  0  0  0  0  0  0  0  0  0  0
   14.6510   -2.0336   21.4926 Cl  0  0  0  0  0  0  0  0  0  0  0  0
   14.0052   -0.8300   26.1540 H   0  0  0  0  0  0  0  0  0  0  0  0
   11.9010    0.3943   25.7206 H   0  0  0  0  0  0  0  0  0  0  0  0
    9.5436   -4.5614   23.7799 H   0  0  0  0  0  0  0  0  0  0  0  0
    7.1918   -1.8823   26.1906 H   0  0  0  0  0  0  0  0  0  0  0  0
   10.2676   -2.6754   22.3861 H   0  0  0  0  0  0  0  0  0  0  0  0
    7.8686   -0.0026   24.7598 H   0  0  0  0  0  0  0  0  0  0  0  0
   15.2270   -1.9046   24.2973 H   0  0  0  0  0  0  0  0  0  0  0  0
   12.2232   -0.5262   21.5314 H   0  0  0  0  0  0  0  0  0  0  0  0
    4.3709    2.0154   17.4453 H   0  0  0  0  0  0  0  0  0  0  0  0
    2.9937    2.6903   19.3398 H   0  0  0  0  0  0  0  0  0  0  0  0
    3.6324    2.0591   21.6820 H   0  0  0  0  0  0  0  0  0  0  0  0
    5.6875    0.7279   22.0567 H   0  0  0  0  0  0  0  0  0  0  0  0
    6.2500   -7.3027   26.1097 H   0  0  0  0  0  0  0  0  0  0  0  0
    7.8838   -7.1078   26.7574 H   0  0  0  0  0  0  0  0  0  0  0  0
    5.3690   -5.5363   27.5214 H   0  0  0  0  0  0  0  0  0  0  0  0
    6.2178   -6.7054   28.5384 H   0  0  0  0  0  0  0  0  0  0  0  0
    6.6498   -3.9225   28.4807 H   0  0  0  0  0  0  0  0  0  0  0  0
    7.6764   -5.1138   29.2803 H   0  0  0  0  0  0  0  0  0  0  0  0
    8.7796   -3.4700   27.5826 H   0  0  0  0  0  0  0  0  0  0  0  0
    9.2112   -5.1853   27.4497 H   0  0  0  0  0  0  0  0  0  0  0  0
   10.2440    1.1632   24.2598 H   0  0  0  0  0  0  0  0  0  0  0  0
   10.8196    1.5928   22.6486 H   0  0  0  0  0  0  0  0  0  0  0  0
    7.4659   -1.2025   21.6292 H   0  0  0  0  0  0  0  0  0  0  0  0
    8.6969   -1.5747   20.4087 H   0  0  0  0  0  0  0  0  0  0  0  0
  1  2  2  0  0  0  0
  1  7  1  0  0  0  0
  2  9  1  0  0  0  0
  3  5  2  0  0  0  0
  3 10  1  0  0  0  0
  4  6  1  0  0  0  0
  4 10  2  0  0  0  0
  5 11  1  0  0  0  0
  6 11  2  0  0  0  0
  7 12  2  0  0  0  0
  8  9  2  0  0  0  0
  8 12  1  0  0  0  0
  9 25  1  0  0  0  0
 10 30  1  0  0  0  0
 11 31  1  0  0  0  0
 12 34  1  0  0  0  0
 13 15  1  0  0  0  0
 13 27  2  0  0  0  0
 13 29  1  0  0  0  0
 14 26  1  0  0  0  0
 14 28  2  0  0  0  0
 14 29  1  0  0  0  0
 15 16  2  0  0  0  0
 16 17  1  0  0  0  0
 17 18  2  0  0  0  0
 18 29  1  0  0  0  0
 19 21  1  0  0  0  0
 19 30  1  0  0  0  0
 19 32  2  0  0  0  0
 20 26  1  0  0  0  0
 20 31  1  0  0  0  0
 20 33  2  0  0  0  0
 21 22  1  0  0  0  0
 22 23  1  0  0  0  0
 23 24  1  0  0  0  0
 24 30  1  0  0  0  0
 25 31  1  0  0  0  0
 27 28  1  0  0  0  0
  1 35  1  0  0  0  0
  2 36  1  0  0  0  0
  3 37  1  0  0  0  0
  4 38  1  0  0  0  0
  5 39  1  0  0  0  0
  6 40  1  0  0  0  0
  7 41  1  0  0  0  0
  8 42  1  0  0  0  0
 15 43  1  0  0  0  0
 16 44  1  0  0  0  0
 17 45  1  0  0  0  0
 18 46  1  0  0  0  0
 21 47  1  0  0  0  0
 21 48  1  0  0  0  0
 22 49  1  0  0  0  0
 22 50  1  0  0  0  0
 23 51  1  0  0  0  0
 23 52  1  0  0  0  0
 24 53  1  0  0  0  0
 24 54  1  0  0  0  0
 25 55  1  0  0  0  0
 25 56  1  0  0  0  0
 26 57  1  0  0  0  0
 26 58  1  0  0  0  0
M  END
> <clash_score>
0

> <docking_score>
-7.999631881713867

> <overlap_score>
0.9892637133598328

$$$$
BENZO_501_1
  -OEChem-08232013563D

 57 61  0     0  0  0  0  0  0999 V2000
   14.3042   -1.3681   24.0908 C   0  0  0  0  0  0  0  0  0  0  0  0
   13.9323   -0.3032   24.9113 C   0  0  0  0  0  0  0  0  0  0  0  0
   13.4890   -1.7436   23.0229 C   0  0  0  0  0  0  0  0  0  0  0  0
   12.7451    0.3861   24.6641 C   0  0  0  0  0  0  0  0  0  0  0  0
   12.3019   -1.0542   22.7758 C   0  0  0  0  0  0  0  0  0  0  0  0
    9.1890   -3.5540   24.0140 C   0  0  0  0  0  0  0  0  0  0  0  0
    7.8700   -2.0610   25.3550 C   0  0  0  0  0  0  0  0  0  0  0  0
    9.5890   -2.4950   23.2210 C   0  0  0  0  0  0  0  0  0  0  0  0
    8.2550   -1.0010   24.5520 C   0  0  0  0  0  0  0  0  0  0  0  0
   11.9299    0.0106   23.5964 C   0  0  0  0  0  0  0  0  0  0  0  0
    8.3450   -3.3440   25.0980 C   0  0  0  0  0  0  0  0  0  0  0  0
    9.1280   -1.2090   23.4870 C   0  0  0  0  0  0  0  0  0  0  0  0
    5.7970    0.9500   18.6730 C   0  0  0  0  0  0  0  0  0  0  0  0
    7.2710   -0.1460   19.8310 C   0  0  0  0  0  0  0  0  0  0  0  0
    4.6610    1.7170   18.4380 C   0  0  0  0  0  0  0  0  0  0  0  0
    3.8860    2.1050   19.5250 C   0  0  0  0  0  0  0  0  0  0  0  0
    4.2460    1.7520   20.8250 C   0  0  0  0  0  0  0  0  0  0  0  0
    5.3890    1.0010   21.0690 C   0  0  0  0  0  0  0  0  0  0  0  0
    9.0430    0.2380   21.4940 C   0  0  0  0  0  0  0  0  0  0  0  0
    8.9524   -5.2012   26.6600 C   0  0  0  0  0  0  0  0  0  0  0  0
    6.6112   -4.5068   26.4379 C   0  0  0  0  0  0  0  0  0  0  0  0
    8.9037   -4.7845   28.1261 C   0  0  0  0  0  0  0  0  0  0  0  0
    6.6374   -4.1243   27.9184 C   0  0  0  0  0  0  0  0  0  0  0  0
   10.6518    0.7520   23.3299 C   0  0  0  0  0  0  0  0  0  0  0  0
    8.0950   -0.7700   20.8440 C   0  0  0  0  0  0  0  0  0  0  0  0
    6.7100    0.3850   17.8100 N   0  0  0  0  0  0  0  0  0  0  0  0
    7.5840   -0.2700   18.5160 N   0  0  0  0  0  0  0  0  0  0  0  0
    6.1460    0.6070   19.9750 N   0  0  0  0  0  0  0  0  0  0  0  0
    7.9775   -4.4014   25.9151 N   0  0  0  0  0  0  0  0  0  0  0  0
    9.5820   -0.1080   22.7000 N   0  0  0  0  0  0  0  0  0  0  0  0
    9.2950    1.3000   20.9480 O   0  0  0  0  0  0  0  0  0  0  0  0
    7.5729   -4.9391   28.6338 O   0  0  0  0  0  0  0  0  0  0  0  0
   15.2293   -1.9039   24.2825 H   0  0  0  0  0  0  0  0  0  0  0  0
   14.5674   -0.0100   25.7421 H   0  0  0  0  0  0  0  0  0  0  0  0
   13.7788   -2.5719   22.3832 H   0  0  0  0  0  0  0  0  0  0  0  0
   12.4632    1.2145   25.3089 H   0  0  0  0  0  0  0  0  0  0  0  0
   11.6729   -1.3539   21.9416 H   0  0  0  0  0  0  0  0  0  0  0  0
    9.5426   -4.5618   23.7797 H   0  0  0  0  0  0  0  0  0  0  0  0
    7.1914   -1.8824   26.1903 H   0  0  0  0  0  0  0  0  0  0  0  0
   10.2669   -2.6745   22.3854 H   0  0  0  0  0  0  0  0  0  0  0  0
    7.8690   -0.0020   24.7587 H   0  0  0  0  0  0  0  0  0  0  0  0
    4.3709    2.0154   17.4453 H   0  0  0  0  0  0  0  0  0  0  0  0
    2.9937    2.6903   19.3398 H   0  0  0  0  0  0  0  0  0  0  0  0
    3.6324    2.0591   21.6820 H   0  0  0  0  0  0  0  0  0  0  0  0
    5.6875    0.7279   22.0567 H   0  0  0  0  0  0  0  0  0  0  0  0
    9.9615   -5.0500   26.2711 H   0  0  0  0  0  0  0  0  0  0  0  0
    8.6935   -6.2597   26.5720 H   0  0  0  0  0  0  0  0  0  0  0  0
    6.2628   -5.5350   26.3330 H   0  0  0  0  0  0  0  0  0  0  0  0
    5.9347   -3.8423   25.9023 H   0  0  0  0  0  0  0  0  0  0  0  0
    9.5597   -5.4275   28.7166 H   0  0  0  0  0  0  0  0  0  0  0  0
    9.2344   -3.7511   28.2636 H   0  0  0  0  0  0  0  0  0  0  0  0
    6.8874   -3.0657   28.0553 H   0  0  0  0  0  0  0  0  0  0  0  0
    5.6495   -4.2893   28.3591 H   0  0  0  0  0  0  0  0  0  0  0  0
   10.2425    1.1625   24.2595 H   0  0  0  0  0  0  0  0  0  0  0  0
   10.8201    1.5933   22.6493 H   0  0  0  0  0  0  0  0  0  0  0  0
    7.4659   -1.2025   21.6292 H   0  0  0  0  0  0  0  0  0  0  0  0
    8.6969   -1.5747   20.4087 H   0  0  0  0  0  0  0  0  0  0  0  0
  1  2  1  0  0  0  0
  1  3  2  0  0  0  0
  2  4  2  0  0  0  0
  3  5  1  0  0  0  0
  4 10  1  0  0  0  0
  5 10  2  0  0  0  0
  6  8  2  0  0  0  0
  6 11  1  0  0  0  0
  7  9  1  0  0  0  0
  7 11  2  0  0  0  0
  8 12  1  0  0  0  0
  9 12  2  0  0  0  0
 10 24  1  0  0  0  0
 11 29  1  0  0  0  0
 12 30  1  0  0  0  0
 13 15  1  0  0  0  0
 13 26  2  0  0  0  0
 13 28  1  0  0  0  0
 14 25  1  0  0  0  0
 14 27  2  0  0  0  0
 14 28  1  0  0  0  0
 15 16  2  0  0  0  0
 16 17  1  0  0  0  0
 17 18  2  0  0  0  0
 18 28  1  0  0  0  0
 19 25  1  0  0  0  0
 19 30  1  0  0  0  0
 19 31  2  0  0  0  0
 20 22  1  0  0  0  0
 20 29  1  0  0  0  0
 21 23  1  0  0  0  0
 21 29  1  0  0  0  0
 22 32  1  0  0  0  0
 23 32  1  0  0  0  0
 24 30  1  0  0  0  0
 26 27  1  0  0  0  0
  1 33  1  0  0  0  0
  2 34  1  0  0  0  0
  3 35  1  0  0  0  0
  4 36  1  0  0  0  0
  5 37  1  0  0  0  0
  6 38  1  0  0  0  0
  7 39  1  0  0  0  0
  8 40  1  0  0  0  0
  9 41  1  0  0  0  0
 15 42  1  0  0  0  0
 16 43  1  0  0  0  0
 17 44  1  0  0  0  0
 18 45  1  0  0  0  0
 20 46  1  0  0  0  0
 20 47  1  0  0  0  0
 21 48  1  0  0  0  0
 21 49  1  0  0  0  0
 22 50  1  0  0  0  0
 22 51  1  0  0  0  0
 23 52  1  0  0  0  0
 23 53  1  0  0  0  0
 24 54  1  0  0  0  0
 24 55  1  0  0  0  0
 25 56  1  0  0  0  0
 25 57  1  0  0  0  0
M  END
> <clash_score>
0

> <docking_score>
-9.736306190490723

> <overlap_score>
0.9834479093551636

$$$$
BENZO_500_1
  -OEChem-08232013563D

 54 58  0     0  0  0  0  0  0999 V2000
    9.1890   -3.5540   24.0140 C   0  0  0  0  0  0  0  0  0  0  0  0
    7.8700   -2.0610   25.3550 C   0  0  0  0  0  0  0  0  0  0  0  0
    9.5890   -2.4950   23.2210 C   0  0  0  0  0  0  0  0  0  0  0  0
    8.2550   -1.0010   24.5520 C   0  0  0  0  0  0  0  0  0  0  0  0
   12.5132   -0.1282   24.8889 C   0  0  0  0  0  0  0  0  0  0  0  0
   13.6835   -0.8539   24.8531 C   0  0  0  0  0  0  0  0  0  0  0  0
   12.6768   -0.6142   22.6218 C   0  0  0  0  0  0  0  0  0  0  0  0
   11.9299    0.0106   23.5964 C   0  0  0  0  0  0  0  0  0  0  0  0
    8.3450   -3.3440   25.0980 C   0  0  0  0  0  0  0  0  0  0  0  0
    9.1280   -1.2090   23.4870 C   0  0  0  0  0  0  0  0  0  0  0  0
    5.7970    0.9500   18.6730 C   0  0  0  0  0  0  0  0  0  0  0  0
    7.2710   -0.1460   19.8310 C   0  0  0  0  0  0  0  0  0  0  0  0
    4.6610    1.7170   18.4380 C   0  0  0  0  0  0  0  0  0  0  0  0
    3.8860    2.1050   19.5250 C   0  0  0  0  0  0  0  0  0  0  0  0
    4.2460    1.7520   20.8250 C   0  0  0  0  0  0  0  0  0  0  0  0
    5.3890    1.0010   21.0690 C   0  0  0  0  0  0  0  0  0  0  0  0
    9.0430    0.2380   21.4940 C   0  0  0  0  0  0  0  0  0  0  0  0
    8.9524   -5.2012   26.6600 C   0  0  0  0  0  0  0  0  0  0  0  0
    6.6112   -4.5068   26.4379 C   0  0  0  0  0  0  0  0  0  0  0  0
    8.9037   -4.7845   28.1261 C   0  0  0  0  0  0  0  0  0  0  0  0
    6.6374   -4.1243   27.9184 C   0  0  0  0  0  0  0  0  0  0  0  0
   10.6518    0.7520   23.3299 C   0  0  0  0  0  0  0  0  0  0  0  0
    8.0950   -0.7700   20.8440 C   0  0  0  0  0  0  0  0  0  0  0  0
    6.7100    0.3850   17.8100 N   0  0  0  0  0  0  0  0  0  0  0  0
    7.5840   -0.2700   18.5160 N   0  0  0  0  0  0  0  0  0  0  0  0
    6.1460    0.6070   19.9750 N   0  0  0  0  0  0  0  0  0  0  0  0
    7.9775   -4.4014   25.9151 N   0  0  0  0  0  0  0  0  0  0  0  0
    9.5820   -0.1080   22.7000 N   0  0  0  0  0  0  0  0  0  0  0  0
    9.2950    1.3000   20.9480 O   0  0  0  0  0  0  0  0  0  0  0  0
    7.5729   -4.9391   28.6338 O   0  0  0  0  0  0  0  0  0  0  0  0
   14.0748   -1.3644   23.2661 S   0  0  0  0  0  0  0  0  0  0  0  0
    9.5426   -4.5618   23.7797 H   0  0  0  0  0  0  0  0  0  0  0  0
    7.1914   -1.8824   26.1903 H   0  0  0  0  0  0  0  0  0  0  0  0
   10.2669   -2.6745   22.3854 H   0  0  0  0  0  0  0  0  0  0  0  0
    7.8690   -0.0020   24.7587 H   0  0  0  0  0  0  0  0  0  0  0  0
   12.0991    0.2822   25.8012 H   0  0  0  0  0  0  0  0  0  0  0  0
   14.3279   -1.1082   25.6828 H   0  0  0  0  0  0  0  0  0  0  0  0
   12.4727   -0.6673   21.5614 H   0  0  0  0  0  0  0  0  0  0  0  0
    4.3709    2.0154   17.4453 H   0  0  0  0  0  0  0  0  0  0  0  0
    2.9937    2.6903   19.3398 H   0  0  0  0  0  0  0  0  0  0  0  0
    3.6324    2.0591   21.6820 H   0  0  0  0  0  0  0  0  0  0  0  0
    5.6875    0.7279   22.0567 H   0  0  0  0  0  0  0  0  0  0  0  0
    9.9615   -5.0500   26.2711 H   0  0  0  0  0  0  0  0  0  0  0  0
    8.6935   -6.2597   26.5720 H   0  0  0  0  0  0  0  0  0  0  0  0
    6.2628   -5.5350   26.3330 H   0  0  0  0  0  0  0  0  0  0  0  0
    5.9347   -3.8423   25.9023 H   0  0  0  0  0  0  0  0  0  0  0  0
    9.5597   -5.4275   28.7166 H   0  0  0  0  0  0  0  0  0  0  0  0
    9.2344   -3.7511   28.2636 H   0  0  0  0  0  0  0  0  0  0  0  0
    6.8874   -3.0657   28.0553 H   0  0  0  0  0  0  0  0  0  0  0  0
    5.6495   -4.2893   28.3591 H   0  0  0  0  0  0  0  0  0  0  0  0
   10.2425    1.1625   24.2595 H   0  0  0  0  0  0  0  0  0  0  0  0
   10.8201    1.5933   22.6493 H   0  0  0  0  0  0  0  0  0  0  0  0
    7.4659   -1.2025   21.6292 H   0  0  0  0  0  0  0  0  0  0  0  0
    8.6969   -1.5747   20.4087 H   0  0  0  0  0  0  0  0  0  0  0  0
  1  3  2  0  0  0  0
  1  9  1  0  0  0  0
  2  4  1  0  0  0  0
  2  9  2  0  0  0  0
  3 10  1  0  0  0  0
  4 10  2  0  0  0  0
  5  6  2  0  0  0  0
  5  8  1  0  0  0  0
  6 31  1  0  0  0  0
  7  8  2  0  0  0  0
  7 31  1  0  0  0  0
  8 22  1  0  0  0  0
  9 27  1  0  0  0  0
 10 28  1  0  0  0  0
 11 13  1  0  0  0  0
 11 24  2  0  0  0  0
 11 26  1  0  0  0  0
 12 23  1  0  0  0  0
 12 25  2  0  0  0  0
 12 26  1  0  0  0  0
 13 14  2  0  0  0  0
 14 15  1  0  0  0  0
 15 16  2  0  0  0  0
 16 26  1  0  0  0  0
 17 23  1  0  0  0  0
 17 28  1  0  0  0  0
 17 29  2  0  0  0  0
 18 20  1  0  0  0  0
 18 27  1  0  0  0  0
 19 21  1  0  0  0  0
 19 27  1  0  0  0  0
 20 30  1  0  0  0  0
 21 30  1  0  0  0  0
 22 28  1  0  0  0  0
 24 25  1  0  0  0  0
  1 32  1  0  0  0  0
  2 33  1  0  0  0  0
  3 34  1  0  0  0  0
  4 35  1  0  0  0  0
  5 36  1  0  0  0  0
  6 37  1  0  0  0  0
  7 38  1  0  0  0  0
 13 39  1  0  0  0  0
 14 40  1  0  0  0  0
 15 41  1  0  0  0  0
 16 42  1  0  0  0  0
 18 43  1  0  0  0  0
 18 44  1  0  0  0  0
 19 45  1  0  0  0  0
 19 46  1  0  0  0  0
 20 47  1  0  0  0  0
 20 48  1  0  0  0  0
 21 49  1  0  0  0  0
 21 50  1  0  0  0  0
 22 51  1  0  0  0  0
 22 52  1  0  0  0  0
 23 53  1  0  0  0  0
 23 54  1  0  0  0  0
M  END
> <clash_score>
0

> <docking_score>
-9.621872901916504

> <overlap_score>
0.9677200317382812

$$$$
BENZO_502_1
  -OEChem-08232013563D

 57 61  0     0  0  0  0  0  0999 V2000
   13.6147   -0.7640   25.1449 C   0  0  0  0  0  0  0  0  0  0  0  0
   12.4280   -0.0744   24.8965 C   0  0  0  0  0  0  0  0  0  0  0  0
    9.1890   -3.5540   24.0140 C   0  0  0  0  0  0  0  0  0  0  0  0
    7.8700   -2.0610   25.3550 C   0  0  0  0  0  0  0  0  0  0  0  0
    9.5890   -2.4950   23.2210 C   0  0  0  0  0  0  0  0  0  0  0  0
    8.2550   -1.0010   24.5520 C   0  0  0  0  0  0  0  0  0  0  0  0
   14.3034   -1.3685   24.0932 C   0  0  0  0  0  0  0  0  0  0  0  0
   12.6185   -0.5939   22.5446 C   0  0  0  0  0  0  0  0  0  0  0  0
   11.9299    0.0106   23.5964 C   0  0  0  0  0  0  0  0  0  0  0  0
    8.3450   -3.3440   25.0980 C   0  0  0  0  0  0  0  0  0  0  0  0
    9.1280   -1.2090   23.4870 C   0  0  0  0  0  0  0  0  0  0  0  0
   13.8053   -1.2834   22.7931 C   0  0  0  0  0  0  0  0  0  0  0  0
    5.7970    0.9500   18.6730 C   0  0  0  0  0  0  0  0  0  0  0  0
    7.2710   -0.1460   19.8310 C   0  0  0  0  0  0  0  0  0  0  0  0
    4.6610    1.7170   18.4380 C   0  0  0  0  0  0  0  0  0  0  0  0
    3.8860    2.1050   19.5250 C   0  0  0  0  0  0  0  0  0  0  0  0
    4.2460    1.7520   20.8250 C   0  0  0  0  0  0  0  0  0  0  0  0
    5.3890    1.0010   21.0690 C   0  0  0  0  0  0  0  0  0  0  0  0
    9.0430    0.2380   21.4940 C   0  0  0  0  0  0  0  0  0  0  0  0
    8.9524   -5.2012   26.6600 C   0  0  0  0  0  0  0  0  0  0  0  0
    6.6112   -4.5068   26.4379 C   0  0  0  0  0  0  0  0  0  0  0  0
    8.9037   -4.7845   28.1261 C   0  0  0  0  0  0  0  0  0  0  0  0
    6.6374   -4.1243   27.9184 C   0  0  0  0  0  0  0  0  0  0  0  0
   10.6518    0.7520   23.3299 C   0  0  0  0  0  0  0  0  0  0  0  0
    8.0950   -0.7700   20.8440 C   0  0  0  0  0  0  0  0  0  0  0  0
    6.7100    0.3850   17.8100 N   0  0  0  0  0  0  0  0  0  0  0  0
    7.5840   -0.2700   18.5160 N   0  0  0  0  0  0  0  0  0  0  0  0
    6.1460    0.6070   19.9750 N   0  0  0  0  0  0  0  0  0  0  0  0
    7.9775   -4.4014   25.9151 N   0  0  0  0  0  0  0  0  0  0  0  0
    9.5820   -0.1080   22.7000 N   0  0  0  0  0  0  0  0  0  0  0  0
    9.2950    1.3000   20.9480 O   0  0  0  0  0  0  0  0  0  0  0  0
    7.5729   -4.9391   28.6338 O   0  0  0  0  0  0  0  0  0  0  0  0
   14.6548   -2.0304   21.4961 Cl  0  0  0  0  0  0  0  0  0  0  0  0
   14.0022   -0.8302   26.1575 H   0  0  0  0  0  0  0  0  0  0  0  0
   11.8980    0.3934   25.7220 H   0  0  0  0  0  0  0  0  0  0  0  0
    9.5426   -4.5618   23.7797 H   0  0  0  0  0  0  0  0  0  0  0  0
    7.1914   -1.8824   26.1903 H   0  0  0  0  0  0  0  0  0  0  0  0
   10.2669   -2.6745   22.3854 H   0  0  0  0  0  0  0  0  0  0  0  0
    7.8690   -0.0020   24.7587 H   0  0  0  0  0  0  0  0  0  0  0  0
   15.2270   -1.9030   24.3017 H   0  0  0  0  0  0  0  0  0  0  0  0
   12.2263   -0.5242   21.5327 H   0  0  0  0  0  0  0  0  0  0  0  0
    4.3709    2.0154   17.4453 H   0  0  0  0  0  0  0  0  0  0  0  0
    2.9937    2.6903   19.3398 H   0  0  0  0  0  0  0  0  0  0  0  0
    3.6324    2.0591   21.6820 H   0  0  0  0  0  0  0  0  0  0  0  0
    5.6875    0.7279   22.0567 H   0  0  0  0  0  0  0  0  0  0  0  0
    9.9615   -5.0500   26.2711 H   0  0  0  0  0  0  0  0  0  0  0  0
    8.6935   -6.2597   26.5720 H   0  0  0  0  0  0  0  0  0  0  0  0
    6.2628   -5.5350   26.3330 H   0  0  0  0  0  0  0  0  0  0  0  0
    5.9347   -3.8423   25.9023 H   0  0  0  0  0  0  0  0  0  0  0  0
    9.5597   -5.4275   28.7166 H   0  0  0  0  0  0  0  0  0  0  0  0
    9.2344   -3.7511   28.2636 H   0  0  0  0  0  0  0  0  0  0  0  0
    6.8874   -3.0657   28.0553 H   0  0  0  0  0  0  0  0  0  0  0  0
    5.6495   -4.2893   28.3591 H   0  0  0  0  0  0  0  0  0  0  0  0
   10.2425    1.1625   24.2595 H   0  0  0  0  0  0  0  0  0  0  0  0
   10.8201    1.5933   22.6493 H   0  0  0  0  0  0  0  0  0  0  0  0
    7.4659   -1.2025   21.6292 H   0  0  0  0  0  0  0  0  0  0  0  0
    8.6969   -1.5747   20.4087 H   0  0  0  0  0  0  0  0  0  0  0  0
  1  2  2  0  0  0  0
  1  7  1  0  0  0  0
  2  9  1  0  0  0  0
  3  5  2  0  0  0  0
  3 10  1  0  0  0  0
  4  6  1  0  0  0  0
  4 10  2  0  0  0  0
  5 11  1  0  0  0  0
  6 11  2  0  0  0  0
  7 12  2  0  0  0  0
  8  9  2  0  0  0  0
  8 12  1  0  0  0  0
  9 24  1  0  0  0  0
 10 29  1  0  0  0  0
 11 30  1  0  0  0  0
 12 33  1  0  0  0  0
 13 15  1  0  0  0  0
 13 26  2  0  0  0  0
 13 28  1  0  0  0  0
 14 25  1  0  0  0  0
 14 27  2  0  0  0  0
 14 28  1  0  0  0  0
 15 16  2  0  0  0  0
 16 17  1  0  0  0  0
 17 18  2  0  0  0  0
 18 28  1  0  0  0  0
 19 25  1  0  0  0  0
 19 30  1  0  0  0  0
 19 31  2  0  0  0  0
 20 22  1  0  0  0  0
 20 29  1  0  0  0  0
 21 23  1  0  0  0  0
 21 29  1  0  0  0  0
 22 32  1  0  0  0  0
 23 32  1  0  0  0  0
 24 30  1  0  0  0  0
 26 27  1  0  0  0  0
  1 34  1  0  0  0  0
  2 35  1  0  0  0  0
  3 36  1  0  0  0  0
  4 37  1  0  0  0  0
  5 38  1  0  0  0  0
  6 39  1  0  0  0  0
  7 40  1  0  0  0  0
  8 41  1  0  0  0  0
 15 42  1  0  0  0  0
 16 43  1  0  0  0  0
 17 44  1  0  0  0  0
 18 45  1  0  0  0  0
 20 46  1  0  0  0  0
 20 47  1  0  0  0  0
 21 48  1  0  0  0  0
 21 49  1  0  0  0  0
 22 50  1  0  0  0  0
 22 51  1  0  0  0  0
 23 52  1  0  0  0  0
 23 53  1  0  0  0  0
 24 54  1  0  0  0  0
 24 55  1  0  0  0  0
 25 56  1  0  0  0  0
 25 57  1  0  0  0  0
M  END
> <clash_score>
0

> <docking_score>
-9.049214363098145

> <overlap_score>
0.992435872554779

$$$$
BENZO_503_1
  -OEChem-08232013563D

 57 61  0     0  0  0  0  0  0999 V2000
    9.1890   -3.5540   24.0140 C   0  0  0  0  0  0  0  0  0  0  0  0
    7.8700   -2.0610   25.3550 C   0  0  0  0  0  0  0  0  0  0  0  0
    9.5890   -2.4950   23.2210 C   0  0  0  0  0  0  0  0  0  0  0  0
    8.2550   -1.0010   24.5520 C   0  0  0  0  0  0  0  0  0  0  0  0
   13.2467    0.9035   23.0594 C   0  0  0  0  0  0  0  0  0  0  0  0
   12.4045   -1.1274   23.0912 C   0  0  0  0  0  0  0  0  0  0  0  0
   12.0359    0.1935   23.1667 C   0  0  0  0  0  0  0  0  0  0  0  0
    8.3450   -3.3440   25.0980 C   0  0  0  0  0  0  0  0  0  0  0  0
    9.1280   -1.2090   23.4870 C   0  0  0  0  0  0  0  0  0  0  0  0
    5.7970    0.9500   18.6730 C   0  0  0  0  0  0  0  0  0  0  0  0
    7.2710   -0.1460   19.8310 C   0  0  0  0  0  0  0  0  0  0  0  0
    4.6610    1.7170   18.4380 C   0  0  0  0  0  0  0  0  0  0  0  0
    3.8860    2.1050   19.5250 C   0  0  0  0  0  0  0  0  0  0  0  0
    4.2460    1.7520   20.8250 C   0  0  0  0  0  0  0  0  0  0  0  0
    5.3890    1.0010   21.0690 C   0  0  0  0  0  0  0  0  0  0  0  0
    9.0430    0.2380   21.4940 C   0  0  0  0  0  0  0  0  0  0  0  0
    8.9524   -5.2012   26.6600 C   0  0  0  0  0  0  0  0  0  0  0  0
    6.6112   -4.5068   26.4379 C   0  0  0  0  0  0  0  0  0  0  0  0
    8.9037   -4.7845   28.1261 C   0  0  0  0  0  0  0  0  0  0  0  0
    6.6374   -4.1243   27.9184 C   0  0  0  0  0  0  0  0  0  0  0  0
   14.6083   -2.2904   22.8282 C   0  0  0  0  0  0  0  0  0  0  0  0
   10.6518    0.7520   23.3299 C   0  0  0  0  0  0  0  0  0  0  0  0
    8.0950   -0.7700   20.8440 C   0  0  0  0  0  0  0  0  0  0  0  0
   14.3054    0.1001   22.9261 N   0  0  0  0  0  0  0  0  0  0  0  0
    6.7100    0.3850   17.8100 N   0  0  0  0  0  0  0  0  0  0  0  0
    7.5840   -0.2700   18.5160 N   0  0  0  0  0  0  0  0  0  0  0  0
   13.7609   -1.1284   22.9492 N   0  0  0  0  0  0  0  0  0  0  0  0
    6.1460    0.6070   19.9750 N   0  0  0  0  0  0  0  0  0  0  0  0
    7.9775   -4.4014   25.9151 N   0  0  0  0  0  0  0  0  0  0  0  0
    9.5820   -0.1080   22.7000 N   0  0  0  0  0  0  0  0  0  0  0  0
    9.2950    1.3000   20.9480 O   0  0  0  0  0  0  0  0  0  0  0  0
    7.5729   -4.9391   28.6338 O   0  0  0  0  0  0  0  0  0  0  0  0
    9.5426   -4.5618   23.7797 H   0  0  0  0  0  0  0  0  0  0  0  0
    7.1914   -1.8824   26.1903 H   0  0  0  0  0  0  0  0  0  0  0  0
   10.2669   -2.6745   22.3854 H   0  0  0  0  0  0  0  0  0  0  0  0
    7.8690   -0.0020   24.7587 H   0  0  0  0  0  0  0  0  0  0  0  0
   13.4045    1.9726   23.0734 H   0  0  0  0  0  0  0  0  0  0  0  0
   11.8315   -2.0441   23.1269 H   0  0  0  0  0  0  0  0  0  0  0  0
    4.3709    2.0154   17.4453 H   0  0  0  0  0  0  0  0  0  0  0  0
    2.9937    2.6903   19.3398 H   0  0  0  0  0  0  0  0  0  0  0  0
    3.6324    2.0591   21.6820 H   0  0  0  0  0  0  0  0  0  0  0  0
    5.6875    0.7279   22.0567 H   0  0  0  0  0  0  0  0  0  0  0  0
    9.9615   -5.0500   26.2711 H   0  0  0  0  0  0  0  0  0  0  0  0
    8.6935   -6.2597   26.5720 H   0  0  0  0  0  0  0  0  0  0  0  0
    6.2628   -5.5350   26.3330 H   0  0  0  0  0  0  0  0  0  0  0  0
    5.9347   -3.8423   25.9023 H   0  0  0  0  0  0  0  0  0  0  0  0
    9.5597   -5.4275   28.7166 H   0  0  0  0  0  0  0  0  0  0  0  0
    9.2344   -3.7511   28.2636 H   0  0  0  0  0  0  0  0  0  0  0  0
    6.8874   -3.0657   28.0553 H   0  0  0  0  0  0  0  0  0  0  0  0
    5.6495   -4.2893   28.3591 H   0  0  0  0  0  0  0  0  0  0  0  0
   14.6982   -2.5331   21.7661 H   0  0  0  0  0  0  0  0  0  0  0  0
   15.5910   -2.0704   23.2545 H   0  0  0  0  0  0  0  0  0  0  0  0
   14.1591   -3.1239   23.3753 H   0  0  0  0  0  0  0  0  0  0  0  0
   10.4039    0.8655   24.3909 H   0  0  0  0  0  0  0  0  0  0  0  0
   10.5708    1.7422   22.8693 H   0  0  0  0  0  0  0  0  0  0  0  0
    7.4659   -1.2025   21.6292 H   0  0  0  0  0  0  0  0  0  0  0  0
    8.6969   -1.5747   20.4087 H   0  0  0  0  0  0  0  0  0  0  0  0
  1  3  2  0  0  0  0
  1  8  1  0  0  0  0
  2  4  1  0  0  0  0
  2  8  2  0  0  0  0
  3  9  1  0  0  0  0
  4  9  2  0  0  0  0
  5  7  1  0  0  0  0
  5 24  2  0  0  0  0
  6  7  2  0  0  0  0
  6 27  1  0  0  0  0
  7 22  1  0  0  0  0
  8 29  1  0  0  0  0
  9 30  1  0  0  0  0
 10 12  1  0  0  0  0
 10 25  2  0  0  0  0
 10 28  1  0  0  0  0
 11 23  1  0  0  0  0
 11 26  2  0  0  0  0
 11 28  1  0  0  0  0
 12 13  2  0  0  0  0
 13 14  1  0  0  0  0
 14 15  2  0  0  0  0
 15 28  1  0  0  0  0
 16 23  1  0  0  0  0
 16 30  1  0  0  0  0
 16 31  2  0  0  0  0
 17 19  1  0  0  0  0
 17 29  1  0  0  0  0
 18 20  1  0  0  0  0
 18 29  1  0  0  0  0
 19 32  1  0  0  0  0
 20 32  1  0  0  0  0
 21 27  1  0  0  0  0
 22 30  1  0  0  0  0
 24 27  1  0  0  0  0
 25 26  1  0  0  0  0
  1 33  1  0  0  0  0
  2 34  1  0  0  0  0
  3 35  1  0  0  0  0
  4 36  1  0  0  0  0
  5 37  1  0  0  0  0
  6 38  1  0  0  0  0
 12 39  1  0  0  0  0
 13 40  1  0  0  0  0
 14 41  1  0  0  0  0
 15 42  1  0  0  0  0
 17 43  1  0  0  0  0
 17 44  1  0  0  0  0
 18 45  1  0  0  0  0
 18 46  1  0  0  0  0
 19 47  1  0  0  0  0
 19 48  1  0  0  0  0
 20 49  1  0  0  0  0
 20 50  1  0  0  0  0
 21 51  1  0  0  0  0
 21 52  1  0  0  0  0
 21 53  1  0  0  0  0
 22 54  1  0  0  0  0
 22 55  1  0  0  0  0
 23 56  1  0  0  0  0
 23 57  1  0  0  0  0
M  END
> <clash_score>
0

> <docking_score>
-10.727951049804688

> <overlap_score>
0.969912052154541

$$$$
