ALP-POS-c59291d4-4
  -OEChem-08222022373D

 46 49  0     0  0  0  0  0  0999 V2000
    9.2320   -4.9190   25.7740 N   0  0  0  0  0  0  0  0  0  0  0  0
    8.1760   -5.3000   26.6870 C   0  0  0  0  0  0  0  0  0  0  0  0
    9.1870    1.1500   21.0630 O   0  0  0  0  0  0  0  0  0  0  0  0
    9.2850   -3.7090   25.1090 C   0  0  0  0  0  0  0  0  0  0  0  0
    9.4200   -0.0840   22.9530 N   0  0  0  0  0  0  0  0  0  0  0  0
    8.3310   -2.7170   25.3430 C   0  0  0  0  0  0  0  0  0  0  0  0
    7.2210   -0.4620   20.0350 N   0  0  0  0  0  0  0  0  0  0  0  0
    8.3510   -1.5420   24.6110 C   0  0  0  0  0  0  0  0  0  0  0  0
    7.6830   -0.5170   18.7600 N   0  0  0  0  0  0  0  0  0  0  0  0
    9.3300   -1.3350   23.6390 C   0  0  0  0  0  0  0  0  0  0  0  0
    6.9440    0.2550   18.0100 N   0  0  0  0  0  0  0  0  0  0  0  0
   10.2760   -2.3270   23.4020 C   0  0  0  0  0  0  0  0  0  0  0  0
   10.2570   -3.5000   24.1350 C   0  0  0  0  0  0  0  0  0  0  0  0
   10.0220    1.0430   23.6570 C   0  0  0  0  0  0  0  0  0  0  0  0
   11.4770    1.2590   23.3320 C   0  0  0  0  0  0  0  0  0  0  0  0
   12.0480    2.4320   22.7530 C   0  0  0  0  0  0  0  0  0  0  0  0
   13.4100    2.3370   22.5750 C   0  0  0  0  0  0  0  0  0  0  0  0
   12.4210    0.3060   23.5780 C   0  0  0  0  0  0  0  0  0  0  0  0
    8.9510    0.1280   21.6880 C   0  0  0  0  0  0  0  0  0  0  0  0
    8.0810   -0.9750   21.0820 C   0  0  0  0  0  0  0  0  0  0  0  0
    5.9810    0.8330   18.8060 C   0  0  0  0  0  0  0  0  0  0  0  0
    4.9400    1.7060   18.5060 C   0  0  0  0  0  0  0  0  0  0  0  0
    4.0980    2.1130   19.5350 C   0  0  0  0  0  0  0  0  0  0  0  0
    4.2970    1.6690   20.8430 C   0  0  0  0  0  0  0  0  0  0  0  0
    5.3360    0.8000   21.1530 C   0  0  0  0  0  0  0  0  0  0  0  0
    6.1600    0.3870   20.1140 C   0  0  0  0  0  0  0  0  0  0  0  0
   13.9820    0.8020   23.1200 S   0  0  0  0  0  0  0  0  0  0  0  0
   10.1294   -5.2881   26.0158 H   0  0  0  0  0  0  0  0  0  0  0  0
    8.3744   -6.3091   27.0773 H   0  0  0  0  0  0  0  0  0  0  0  0
    8.1377   -4.5850   27.5220 H   0  0  0  0  0  0  0  0  0  0  0  0
    7.2128   -5.2953   26.1558 H   0  0  0  0  0  0  0  0  0  0  0  0
    7.5739   -2.8668   26.0985 H   0  0  0  0  0  0  0  0  0  0  0  0
    7.6053   -0.7823   24.7933 H   0  0  0  0  0  0  0  0  0  0  0  0
   11.0291   -2.1806   22.6419 H   0  0  0  0  0  0  0  0  0  0  0  0
   11.0022   -4.2595   23.9500 H   0  0  0  0  0  0  0  0  0  0  0  0
    9.4682    1.9547   23.3887 H   0  0  0  0  0  0  0  0  0  0  0  0
    9.9316    0.8640   24.7386 H   0  0  0  0  0  0  0  0  0  0  0  0
   11.4712    3.3041   22.4824 H   0  0  0  0  0  0  0  0  0  0  0  0
   14.0323    3.1128   22.1541 H   0  0  0  0  0  0  0  0  0  0  0  0
   12.2016   -0.6569   24.0152 H   0  0  0  0  0  0  0  0  0  0  0  0
    7.4562   -1.4126   21.8746 H   0  0  0  0  0  0  0  0  0  0  0  0
    8.7340   -1.7524   20.6586 H   0  0  0  0  0  0  0  0  0  0  0  0
    4.7893    2.0595   17.4967 H   0  0  0  0  0  0  0  0  0  0  0  0
    3.2784    2.7822   19.3189 H   0  0  0  0  0  0  0  0  0  0  0  0
    3.6336    2.0058   21.6259 H   0  0  0  0  0  0  0  0  0  0  0  0
    5.4969    0.4582   22.1648 H   0  0  0  0  0  0  0  0  0  0  0  0
  1  2  1  0  0  0  0
  1  4  1  0  0  0  0
  3 19  2  0  0  0  0
  4  6  2  0  0  0  0
  4 13  1  0  0  0  0
  5 10  1  0  0  0  0
  5 14  1  0  0  0  0
  5 19  1  0  0  0  0
  6  8  1  0  0  0  0
  7  9  1  0  0  0  0
  7 20  1  0  0  0  0
  7 26  1  0  0  0  0
  8 10  2  0  0  0  0
  9 11  2  0  0  0  0
 10 12  1  0  0  0  0
 11 21  1  0  0  0  0
 12 13  2  0  0  0  0
 14 15  1  0  0  0  0
 15 16  1  0  0  0  0
 15 18  2  0  0  0  0
 16 17  2  0  0  0  0
 17 27  1  0  0  0  0
 18 27  1  0  0  0  0
 19 20  1  0  0  0  0
 21 22  2  0  0  0  0
 21 26  1  0  0  0  0
 22 23  1  0  0  0  0
 23 24  2  0  0  0  0
 24 25  1  0  0  0  0
 25 26  2  0  0  0  0
  1 28  1  0  0  0  0
  2 29  1  0  0  0  0
  2 30  1  0  0  0  0
  2 31  1  0  0  0  0
  6 32  1  0  0  0  0
  8 33  1  0  0  0  0
 12 34  1  0  0  0  0
 13 35  1  0  0  0  0
 14 36  1  0  0  0  0
 14 37  1  0  0  0  0
 16 38  1  0  0  0  0
 17 39  1  0  0  0  0
 18 40  1  0  0  0  0
 20 41  1  0  0  0  0
 20 42  1  0  0  0  0
 22 43  1  0  0  0  0
 23 44  1  0  0  0  0
 24 45  1  0  0  0  0
 25 46  1  0  0  0  0
M  END
> <canonical_CID>
ALP-POS-c59291d4-4

> <r_inhibition_at_20_uM>

> <r_inhibition_at_50_uM>
70.4921969469493

> <r_avg_IC50>
18.6768767768832

> <f_inhibition_at_20_uM>
57.123395

> <f_inhibition_at_50_uM>
82.620135

> <f_avg_IC50>
4.32892722638383

> <f_avg_pIC50>
5.36361971505208

> <relative_solubility_at_20_uM>
0.99

> <relative_solubility_at_100_uM>
0.77

> <trypsin_IC50>
99.0

> <NMR_std_ratio>

> <acrylamide>
False

> <chloroacetamide>
False

> <series>
3-aminopyridine-like

> <clash_score>
0.0

$$$$
BENZO_1_1
  -OEChem-08222022373D

 51 54  0     0  0  0  0  0  0999 V2000
   14.3082    0.9431   23.4783 C   0  0  0  0  0  0  0  0  0  0  0  0
   13.6391    0.3091   24.5251 C   0  0  0  0  0  0  0  0  0  0  0  0
   13.5841    1.6096   22.4898 C   0  0  0  0  0  0  0  0  0  0  0  0
    4.0980    2.1130   19.5350 C   0  0  0  0  0  0  0  0  0  0  0  0
    4.2970    1.6690   20.8430 C   0  0  0  0  0  0  0  0  0  0  0  0
   12.2459    0.3415   24.5835 C   0  0  0  0  0  0  0  0  0  0  0  0
   12.1908    1.6420   22.5481 C   0  0  0  0  0  0  0  0  0  0  0  0
    4.9400    1.7060   18.5060 C   0  0  0  0  0  0  0  0  0  0  0  0
    5.3360    0.8000   21.1530 C   0  0  0  0  0  0  0  0  0  0  0  0
    8.3510   -1.5420   24.6110 C   0  0  0  0  0  0  0  0  0  0  0  0
   10.2760   -2.3270   23.4020 C   0  0  0  0  0  0  0  0  0  0  0  0
    8.3310   -2.7170   25.3430 C   0  0  0  0  0  0  0  0  0  0  0  0
   10.2570   -3.5000   24.1350 C   0  0  0  0  0  0  0  0  0  0  0  0
   11.5217    1.0079   23.5949 C   0  0  0  0  0  0  0  0  0  0  0  0
    5.9810    0.8330   18.8060 C   0  0  0  0  0  0  0  0  0  0  0  0
    6.1600    0.3870   20.1140 C   0  0  0  0  0  0  0  0  0  0  0  0
    9.3300   -1.3350   23.6390 C   0  0  0  0  0  0  0  0  0  0  0  0
    9.2850   -3.7090   25.1090 C   0  0  0  0  0  0  0  0  0  0  0  0
    8.9510    0.1280   21.6880 C   0  0  0  0  0  0  0  0  0  0  0  0
    8.2493   -5.1167   26.8639 C   0  0  0  0  0  0  0  0  0  0  0  0
   10.2428   -5.9410   25.6009 C   0  0  0  0  0  0  0  0  0  0  0  0
   10.0220    1.0430   23.6570 C   0  0  0  0  0  0  0  0  0  0  0  0
    6.9440    0.2550   18.0100 N   0  0  0  0  0  0  0  0  0  0  0  0
    7.6830   -0.5170   18.7600 N   0  0  0  0  0  0  0  0  0  0  0  0
    7.2210   -0.4620   20.0350 N   0  0  0  0  0  0  0  0  0  0  0  0
    8.0810   -0.9750   21.0820 N   0  0  0  0  0  0  0  0  0  0  0  0
    9.4200   -0.0840   22.9530 N   0  0  0  0  0  0  0  0  0  0  0  0
    9.2624   -4.9028   25.8498 N   0  0  0  0  0  0  0  0  0  0  0  0
    9.1870    1.1500   21.0630 O   0  0  0  0  0  0  0  0  0  0  0  0
   15.3932    0.9189   23.4337 H   0  0  0  0  0  0  0  0  0  0  0  0
   14.2029   -0.2090   25.2955 H   0  0  0  0  0  0  0  0  0  0  0  0
   14.1048    2.1043   21.6752 H   0  0  0  0  0  0  0  0  0  0  0  0
    3.2714    2.7876   19.3199 H   0  0  0  0  0  0  0  0  0  0  0  0
    3.6283    2.0091   21.6296 H   0  0  0  0  0  0  0  0  0  0  0  0
   11.7330   -0.1555   25.4027 H   0  0  0  0  0  0  0  0  0  0  0  0
   11.6349    2.1636   21.7735 H   0  0  0  0  0  0  0  0  0  0  0  0
    4.7824    2.0670   17.4883 H   0  0  0  0  0  0  0  0  0  0  0  0
    5.4937    0.4574   22.1805 H   0  0  0  0  0  0  0  0  0  0  0  0
    7.5947   -0.7787   24.7997 H   0  0  0  0  0  0  0  0  0  0  0  0
   11.0404   -2.1861   22.6352 H   0  0  0  0  0  0  0  0  0  0  0  0
    7.5641   -2.8632   26.1047 H   0  0  0  0  0  0  0  0  0  0  0  0
   11.0135   -4.2647   23.9425 H   0  0  0  0  0  0  0  0  0  0  0  0
    8.3982   -6.1020   27.3296 H   0  0  0  0  0  0  0  0  0  0  0  0
    8.3279   -4.3328   27.6316 H   0  0  0  0  0  0  0  0  0  0  0  0
    7.2526   -5.0773   26.4003 H   0  0  0  0  0  0  0  0  0  0  0  0
   10.0593   -6.7889   26.2772 H   0  0  0  0  0  0  0  0  0  0  0  0
   10.1609   -6.2799   24.5576 H   0  0  0  0  0  0  0  0  0  0  0  0
   11.2523   -5.5421   25.7787 H   0  0  0  0  0  0  0  0  0  0  0  0
    9.6778    1.0140   24.6966 H   0  0  0  0  0  0  0  0  0  0  0  0
    9.6316    1.9637   23.2107 H   0  0  0  0  0  0  0  0  0  0  0  0
    8.1044   -1.8183   21.3422 H   0  0  0  0  0  0  0  0  0  0  0  0
  1  2  1  0  0  0  0
  1  3  2  0  0  0  0
  2  6  2  0  0  0  0
  3  7  1  0  0  0  0
  4  5  1  0  0  0  0
  4  8  2  0  0  0  0
  5  9  2  0  0  0  0
  6 14  1  0  0  0  0
  7 14  2  0  0  0  0
  8 15  1  0  0  0  0
  9 16  1  0  0  0  0
 10 12  2  0  0  0  0
 10 17  1  0  0  0  0
 11 13  1  0  0  0  0
 11 17  2  0  0  0  0
 12 18  1  0  0  0  0
 13 18  2  0  0  0  0
 14 22  1  0  0  0  0
 15 16  2  0  0  0  0
 15 23  1  0  0  0  0
 16 25  1  0  0  0  0
 17 27  1  0  0  0  0
 18 28  1  0  0  0  0
 19 26  1  0  0  0  0
 19 27  1  0  0  0  0
 19 29  2  0  0  0  0
 20 28  1  0  0  0  0
 21 28  1  0  0  0  0
 22 27  1  0  0  0  0
 23 24  2  0  0  0  0
 24 25  1  0  0  0  0
 25 26  1  0  0  0  0
  1 30  1  0  0  0  0
  2 31  1  0  0  0  0
  3 32  1  0  0  0  0
  4 33  1  0  0  0  0
  5 34  1  0  0  0  0
  6 35  1  0  0  0  0
  7 36  1  0  0  0  0
  8 37  1  0  0  0  0
  9 38  1  0  0  0  0
 10 39  1  0  0  0  0
 11 40  1  0  0  0  0
 12 41  1  0  0  0  0
 13 42  1  0  0  0  0
 20 43  1  0  0  0  0
 20 44  1  0  0  0  0
 20 45  1  0  0  0  0
 21 46  1  0  0  0  0
 21 47  1  0  0  0  0
 21 48  1  0  0  0  0
 22 49  1  0  0  0  0
 22 50  1  0  0  0  0
 26 51  1  0  0  0  0
M  END
> <clash_score>
0

> <docking_score>
-9.451470375061035

> <overlap_score>
1.0030856132507324

$$$$
BENZO_3_1
  -OEChem-08222022373D

 51 54  0     0  0  0  0  0  0999 V2000
    4.0980    2.1130   19.5350 C   0  0  0  0  0  0  0  0  0  0  0  0
    4.2970    1.6690   20.8430 C   0  0  0  0  0  0  0  0  0  0  0  0
    4.9400    1.7060   18.5060 C   0  0  0  0  0  0  0  0  0  0  0  0
    5.3360    0.8000   21.1530 C   0  0  0  0  0  0  0  0  0  0  0  0
    8.3510   -1.5420   24.6110 C   0  0  0  0  0  0  0  0  0  0  0  0
   10.2760   -2.3270   23.4020 C   0  0  0  0  0  0  0  0  0  0  0  0
    8.3310   -2.7170   25.3430 C   0  0  0  0  0  0  0  0  0  0  0  0
   10.2570   -3.5000   24.1350 C   0  0  0  0  0  0  0  0  0  0  0  0
   12.4359    1.7439   24.3724 C   0  0  0  0  0  0  0  0  0  0  0  0
   12.3100    0.2469   22.7668 C   0  0  0  0  0  0  0  0  0  0  0  0
   11.5217    1.0079   23.5949 C   0  0  0  0  0  0  0  0  0  0  0  0
    5.9810    0.8330   18.8060 C   0  0  0  0  0  0  0  0  0  0  0  0
    6.1600    0.3870   20.1140 C   0  0  0  0  0  0  0  0  0  0  0  0
    9.3300   -1.3350   23.6390 C   0  0  0  0  0  0  0  0  0  0  0  0
    9.2850   -3.7090   25.1090 C   0  0  0  0  0  0  0  0  0  0  0  0
    8.9510    0.1280   21.6880 C   0  0  0  0  0  0  0  0  0  0  0  0
   14.7884    0.0124   22.4815 C   0  0  0  0  0  0  0  0  0  0  0  0
    8.2493   -5.1167   26.8639 C   0  0  0  0  0  0  0  0  0  0  0  0
   10.2428   -5.9410   25.6009 C   0  0  0  0  0  0  0  0  0  0  0  0
   10.0220    1.0430   23.6570 C   0  0  0  0  0  0  0  0  0  0  0  0
   13.7076    1.4745   24.0657 N   0  0  0  0  0  0  0  0  0  0  0  0
    6.9440    0.2550   18.0100 N   0  0  0  0  0  0  0  0  0  0  0  0
    7.6830   -0.5170   18.7600 N   0  0  0  0  0  0  0  0  0  0  0  0
   13.5982    0.5607   23.0864 N   0  0  0  0  0  0  0  0  0  0  0  0
    7.2210   -0.4620   20.0350 N   0  0  0  0  0  0  0  0  0  0  0  0
    8.0810   -0.9750   21.0820 N   0  0  0  0  0  0  0  0  0  0  0  0
    9.4200   -0.0840   22.9530 N   0  0  0  0  0  0  0  0  0  0  0  0
    9.2624   -4.9028   25.8498 N   0  0  0  0  0  0  0  0  0  0  0  0
    9.1870    1.1500   21.0630 O   0  0  0  0  0  0  0  0  0  0  0  0
    3.2714    2.7876   19.3199 H   0  0  0  0  0  0  0  0  0  0  0  0
    3.6283    2.0091   21.6296 H   0  0  0  0  0  0  0  0  0  0  0  0
    4.7824    2.0670   17.4883 H   0  0  0  0  0  0  0  0  0  0  0  0
    5.4937    0.4574   22.1805 H   0  0  0  0  0  0  0  0  0  0  0  0
    7.5947   -0.7787   24.7997 H   0  0  0  0  0  0  0  0  0  0  0  0
   11.0404   -2.1861   22.6352 H   0  0  0  0  0  0  0  0  0  0  0  0
    7.5641   -2.8632   26.1047 H   0  0  0  0  0  0  0  0  0  0  0  0
   11.0135   -4.2647   23.9425 H   0  0  0  0  0  0  0  0  0  0  0  0
   12.2308    2.4652   25.1508 H   0  0  0  0  0  0  0  0  0  0  0  0
   12.0700   -0.4744   21.9974 H   0  0  0  0  0  0  0  0  0  0  0  0
   15.0569    0.6453   21.6315 H   0  0  0  0  0  0  0  0  0  0  0  0
   15.5971   -0.0026   23.2174 H   0  0  0  0  0  0  0  0  0  0  0  0
   14.5870   -1.0100   22.1498 H   0  0  0  0  0  0  0  0  0  0  0  0
    8.3982   -6.1020   27.3296 H   0  0  0  0  0  0  0  0  0  0  0  0
    8.3279   -4.3328   27.6316 H   0  0  0  0  0  0  0  0  0  0  0  0
    7.2526   -5.0773   26.4003 H   0  0  0  0  0  0  0  0  0  0  0  0
   10.0593   -6.7889   26.2772 H   0  0  0  0  0  0  0  0  0  0  0  0
   10.1609   -6.2799   24.5576 H   0  0  0  0  0  0  0  0  0  0  0  0
   11.2523   -5.5421   25.7787 H   0  0  0  0  0  0  0  0  0  0  0  0
    9.6778    1.0140   24.6966 H   0  0  0  0  0  0  0  0  0  0  0  0
    9.6316    1.9637   23.2107 H   0  0  0  0  0  0  0  0  0  0  0  0
    8.1044   -1.8183   21.3422 H   0  0  0  0  0  0  0  0  0  0  0  0
  1  2  1  0  0  0  0
  1  3  2  0  0  0  0
  2  4  2  0  0  0  0
  3 12  1  0  0  0  0
  4 13  1  0  0  0  0
  5  7  2  0  0  0  0
  5 14  1  0  0  0  0
  6  8  1  0  0  0  0
  6 14  2  0  0  0  0
  7 15  1  0  0  0  0
  8 15  2  0  0  0  0
  9 11  1  0  0  0  0
  9 21  2  0  0  0  0
 10 11  2  0  0  0  0
 10 24  1  0  0  0  0
 11 20  1  0  0  0  0
 12 13  2  0  0  0  0
 12 22  1  0  0  0  0
 13 25  1  0  0  0  0
 14 27  1  0  0  0  0
 15 28  1  0  0  0  0
 16 26  1  0  0  0  0
 16 27  1  0  0  0  0
 16 29  2  0  0  0  0
 17 24  1  0  0  0  0
 18 28  1  0  0  0  0
 19 28  1  0  0  0  0
 20 27  1  0  0  0  0
 21 24  1  0  0  0  0
 22 23  2  0  0  0  0
 23 25  1  0  0  0  0
 25 26  1  0  0  0  0
  1 30  1  0  0  0  0
  2 31  1  0  0  0  0
  3 32  1  0  0  0  0
  4 33  1  0  0  0  0
  5 34  1  0  0  0  0
  6 35  1  0  0  0  0
  7 36  1  0  0  0  0
  8 37  1  0  0  0  0
  9 38  1  0  0  0  0
 10 39  1  0  0  0  0
 17 40  1  0  0  0  0
 17 41  1  0  0  0  0
 17 42  1  0  0  0  0
 18 43  1  0  0  0  0
 18 44  1  0  0  0  0
 18 45  1  0  0  0  0
 19 46  1  0  0  0  0
 19 47  1  0  0  0  0
 19 48  1  0  0  0  0
 20 49  1  0  0  0  0
 20 50  1  0  0  0  0
 26 51  1  0  0  0  0
M  END
> <clash_score>
0

> <docking_score>
-9.666082382202148

> <overlap_score>
0.9891861081123352

$$$$
BENZO_5_1
  -OEChem-08222022373D

 53 56  0     0  0  0  0  0  0999 V2000
   14.3082    0.9431   23.4783 C   0  0  0  0  0  0  0  0  0  0  0  0
   13.6391    0.3091   24.5251 C   0  0  0  0  0  0  0  0  0  0  0  0
   13.5841    1.6096   22.4898 C   0  0  0  0  0  0  0  0  0  0  0  0
    4.0980    2.1130   19.5350 C   0  0  0  0  0  0  0  0  0  0  0  0
    4.2970    1.6690   20.8430 C   0  0  0  0  0  0  0  0  0  0  0  0
   12.2459    0.3415   24.5835 C   0  0  0  0  0  0  0  0  0  0  0  0
   12.1908    1.6420   22.5481 C   0  0  0  0  0  0  0  0  0  0  0  0
    4.9400    1.7060   18.5060 C   0  0  0  0  0  0  0  0  0  0  0  0
    5.3360    0.8000   21.1530 C   0  0  0  0  0  0  0  0  0  0  0  0
    8.3310   -2.7170   25.3430 C   0  0  0  0  0  0  0  0  0  0  0  0
   10.2570   -3.5000   24.1350 C   0  0  0  0  0  0  0  0  0  0  0  0
    8.3510   -1.5420   24.6110 C   0  0  0  0  0  0  0  0  0  0  0  0
   10.2760   -2.3270   23.4020 C   0  0  0  0  0  0  0  0  0  0  0  0
   11.5217    1.0079   23.5949 C   0  0  0  0  0  0  0  0  0  0  0  0
    5.9810    0.8330   18.8060 C   0  0  0  0  0  0  0  0  0  0  0  0
    6.1600    0.3870   20.1140 C   0  0  0  0  0  0  0  0  0  0  0  0
    9.2850   -3.7090   25.1090 C   0  0  0  0  0  0  0  0  0  0  0  0
    9.3300   -1.3350   23.6390 C   0  0  0  0  0  0  0  0  0  0  0  0
    9.6847   -6.1679   25.4389 C   0  0  0  0  0  0  0  0  0  0  0  0
    8.9510    0.1280   21.6880 C   0  0  0  0  0  0  0  0  0  0  0  0
    8.0403   -7.2916   27.0007 C   0  0  0  0  0  0  0  0  0  0  0  0
   10.0220    1.0430   23.6570 C   0  0  0  0  0  0  0  0  0  0  0  0
    9.4865   -7.1875   26.5507 C   0  0  0  0  0  0  0  0  0  0  0  0
    6.9440    0.2550   18.0100 N   0  0  0  0  0  0  0  0  0  0  0  0
    7.6830   -0.5170   18.7600 N   0  0  0  0  0  0  0  0  0  0  0  0
    7.2210   -0.4620   20.0350 N   0  0  0  0  0  0  0  0  0  0  0  0
    9.2630   -4.8902   25.8410 N   0  0  0  0  0  0  0  0  0  0  0  0
    8.0810   -0.9750   21.0820 N   0  0  0  0  0  0  0  0  0  0  0  0
    9.4200   -0.0840   22.9530 N   0  0  0  0  0  0  0  0  0  0  0  0
   10.1571   -6.4766   24.3498 O   0  0  0  0  0  0  0  0  0  0  0  0
    9.1870    1.1500   21.0630 O   0  0  0  0  0  0  0  0  0  0  0  0
   15.3932    0.9189   23.4337 H   0  0  0  0  0  0  0  0  0  0  0  0
   14.2029   -0.2090   25.2955 H   0  0  0  0  0  0  0  0  0  0  0  0
   14.1048    2.1043   21.6752 H   0  0  0  0  0  0  0  0  0  0  0  0
    3.2714    2.7876   19.3199 H   0  0  0  0  0  0  0  0  0  0  0  0
    3.6283    2.0091   21.6296 H   0  0  0  0  0  0  0  0  0  0  0  0
   11.7330   -0.1555   25.4027 H   0  0  0  0  0  0  0  0  0  0  0  0
   11.6349    2.1636   21.7735 H   0  0  0  0  0  0  0  0  0  0  0  0
    4.7824    2.0670   17.4883 H   0  0  0  0  0  0  0  0  0  0  0  0
    5.4937    0.4574   22.1805 H   0  0  0  0  0  0  0  0  0  0  0  0
    7.5639   -2.8621   26.1045 H   0  0  0  0  0  0  0  0  0  0  0  0
   11.0141   -4.2644   23.9422 H   0  0  0  0  0  0  0  0  0  0  0  0
    7.5950   -0.7788   24.8007 H   0  0  0  0  0  0  0  0  0  0  0  0
   11.0408   -2.1861   22.6359 H   0  0  0  0  0  0  0  0  0  0  0  0
    7.6717   -6.3274   27.3659 H   0  0  0  0  0  0  0  0  0  0  0  0
    7.9445   -8.0228   27.8092 H   0  0  0  0  0  0  0  0  0  0  0  0
    7.3936   -7.6075   26.1754 H   0  0  0  0  0  0  0  0  0  0  0  0
    9.6778    1.0140   24.6966 H   0  0  0  0  0  0  0  0  0  0  0  0
    9.6316    1.9637   23.2107 H   0  0  0  0  0  0  0  0  0  0  0  0
    9.8285   -8.1648   26.1910 H   0  0  0  0  0  0  0  0  0  0  0  0
   10.1145   -6.9001   27.4018 H   0  0  0  0  0  0  0  0  0  0  0  0
    8.8930   -4.8275   26.7966 H   0  0  0  0  0  0  0  0  0  0  0  0
    8.1044   -1.8183   21.3422 H   0  0  0  0  0  0  0  0  0  0  0  0
  1  2  1  0  0  0  0
  1  3  2  0  0  0  0
  2  6  2  0  0  0  0
  3  7  1  0  0  0  0
  4  5  1  0  0  0  0
  4  8  2  0  0  0  0
  5  9  2  0  0  0  0
  6 14  1  0  0  0  0
  7 14  2  0  0  0  0
  8 15  1  0  0  0  0
  9 16  1  0  0  0  0
 10 12  2  0  0  0  0
 10 17  1  0  0  0  0
 11 13  1  0  0  0  0
 11 17  2  0  0  0  0
 12 18  1  0  0  0  0
 13 18  2  0  0  0  0
 14 22  1  0  0  0  0
 15 16  2  0  0  0  0
 15 24  1  0  0  0  0
 16 26  1  0  0  0  0
 17 27  1  0  0  0  0
 18 29  1  0  0  0  0
 19 23  1  0  0  0  0
 19 27  1  0  0  0  0
 19 30  2  0  0  0  0
 20 28  1  0  0  0  0
 20 29  1  0  0  0  0
 20 31  2  0  0  0  0
 21 23  1  0  0  0  0
 22 29  1  0  0  0  0
 24 25  2  0  0  0  0
 25 26  1  0  0  0  0
 26 28  1  0  0  0  0
  1 32  1  0  0  0  0
  2 33  1  0  0  0  0
  3 34  1  0  0  0  0
  4 35  1  0  0  0  0
  5 36  1  0  0  0  0
  6 37  1  0  0  0  0
  7 38  1  0  0  0  0
  8 39  1  0  0  0  0
  9 40  1  0  0  0  0
 10 41  1  0  0  0  0
 11 42  1  0  0  0  0
 12 43  1  0  0  0  0
 13 44  1  0  0  0  0
 21 45  1  0  0  0  0
 21 46  1  0  0  0  0
 21 47  1  0  0  0  0
 22 48  1  0  0  0  0
 22 49  1  0  0  0  0
 23 50  1  0  0  0  0
 23 51  1  0  0  0  0
 27 52  1  0  0  0  0
 28 53  1  0  0  0  0
M  END
> <clash_score>
1.3338359424528714

> <docking_score>
-5.931340217590332

> <overlap_score>
0.987139105796814

$$$$
BENZO_0_1
  -OEChem-08222022373D

 48 51  0     0  0  0  0  0  0999 V2000
    4.0980    2.1130   19.5350 C   0  0  0  0  0  0  0  0  0  0  0  0
    4.2970    1.6690   20.8430 C   0  0  0  0  0  0  0  0  0  0  0  0
    4.9400    1.7060   18.5060 C   0  0  0  0  0  0  0  0  0  0  0  0
    5.3360    0.8000   21.1530 C   0  0  0  0  0  0  0  0  0  0  0  0
    8.3510   -1.5420   24.6110 C   0  0  0  0  0  0  0  0  0  0  0  0
   10.2760   -2.3270   23.4020 C   0  0  0  0  0  0  0  0  0  0  0  0
    8.3310   -2.7170   25.3430 C   0  0  0  0  0  0  0  0  0  0  0  0
   10.2570   -3.5000   24.1350 C   0  0  0  0  0  0  0  0  0  0  0  0
   12.2675    1.0332   22.3812 C   0  0  0  0  0  0  0  0  0  0  0  0
   13.6257    0.9906   22.6074 C   0  0  0  0  0  0  0  0  0  0  0  0
   12.3384    0.9467   24.7028 C   0  0  0  0  0  0  0  0  0  0  0  0
   11.5217    1.0079   23.5949 C   0  0  0  0  0  0  0  0  0  0  0  0
    5.9810    0.8330   18.8060 C   0  0  0  0  0  0  0  0  0  0  0  0
    6.1600    0.3870   20.1140 C   0  0  0  0  0  0  0  0  0  0  0  0
    9.3300   -1.3350   23.6390 C   0  0  0  0  0  0  0  0  0  0  0  0
    9.2850   -3.7090   25.1090 C   0  0  0  0  0  0  0  0  0  0  0  0
    8.9510    0.1280   21.6880 C   0  0  0  0  0  0  0  0  0  0  0  0
    8.2493   -5.1167   26.8639 C   0  0  0  0  0  0  0  0  0  0  0  0
   10.2428   -5.9410   25.6009 C   0  0  0  0  0  0  0  0  0  0  0  0
   10.0220    1.0430   23.6570 C   0  0  0  0  0  0  0  0  0  0  0  0
    6.9440    0.2550   18.0100 N   0  0  0  0  0  0  0  0  0  0  0  0
    7.6830   -0.5170   18.7600 N   0  0  0  0  0  0  0  0  0  0  0  0
    7.2210   -0.4620   20.0350 N   0  0  0  0  0  0  0  0  0  0  0  0
    8.0810   -0.9750   21.0820 N   0  0  0  0  0  0  0  0  0  0  0  0
    9.4200   -0.0840   22.9530 N   0  0  0  0  0  0  0  0  0  0  0  0
    9.2624   -4.9028   25.8498 N   0  0  0  0  0  0  0  0  0  0  0  0
    9.1870    1.1500   21.0630 O   0  0  0  0  0  0  0  0  0  0  0  0
   13.9969    0.9203   24.2776 S   0  0  0  0  0  0  0  0  0  0  0  0
    3.2714    2.7876   19.3199 H   0  0  0  0  0  0  0  0  0  0  0  0
    3.6283    2.0091   21.6296 H   0  0  0  0  0  0  0  0  0  0  0  0
    4.7824    2.0670   17.4883 H   0  0  0  0  0  0  0  0  0  0  0  0
    5.4937    0.4574   22.1805 H   0  0  0  0  0  0  0  0  0  0  0  0
    7.5947   -0.7787   24.7997 H   0  0  0  0  0  0  0  0  0  0  0  0
   11.0404   -2.1861   22.6352 H   0  0  0  0  0  0  0  0  0  0  0  0
    7.5641   -2.8632   26.1047 H   0  0  0  0  0  0  0  0  0  0  0  0
   11.0135   -4.2647   23.9425 H   0  0  0  0  0  0  0  0  0  0  0  0
   11.8338    1.0798   21.3902 H   0  0  0  0  0  0  0  0  0  0  0  0
   14.4176    0.9966   21.8719 H   0  0  0  0  0  0  0  0  0  0  0  0
   12.0446    0.9149   25.7428 H   0  0  0  0  0  0  0  0  0  0  0  0
    8.3982   -6.1020   27.3296 H   0  0  0  0  0  0  0  0  0  0  0  0
    8.3279   -4.3328   27.6316 H   0  0  0  0  0  0  0  0  0  0  0  0
    7.2526   -5.0773   26.4003 H   0  0  0  0  0  0  0  0  0  0  0  0
   10.0593   -6.7889   26.2772 H   0  0  0  0  0  0  0  0  0  0  0  0
   10.1609   -6.2799   24.5576 H   0  0  0  0  0  0  0  0  0  0  0  0
   11.2523   -5.5421   25.7787 H   0  0  0  0  0  0  0  0  0  0  0  0
    9.6778    1.0140   24.6966 H   0  0  0  0  0  0  0  0  0  0  0  0
    9.6316    1.9637   23.2107 H   0  0  0  0  0  0  0  0  0  0  0  0
    8.1044   -1.8183   21.3422 H   0  0  0  0  0  0  0  0  0  0  0  0
  1  2  1  0  0  0  0
  1  3  2  0  0  0  0
  2  4  2  0  0  0  0
  3 13  1  0  0  0  0
  4 14  1  0  0  0  0
  5  7  2  0  0  0  0
  5 15  1  0  0  0  0
  6  8  1  0  0  0  0
  6 15  2  0  0  0  0
  7 16  1  0  0  0  0
  8 16  2  0  0  0  0
  9 10  2  0  0  0  0
  9 12  1  0  0  0  0
 10 28  1  0  0  0  0
 11 12  2  0  0  0  0
 11 28  1  0  0  0  0
 12 20  1  0  0  0  0
 13 14  2  0  0  0  0
 13 21  1  0  0  0  0
 14 23  1  0  0  0  0
 15 25  1  0  0  0  0
 16 26  1  0  0  0  0
 17 24  1  0  0  0  0
 17 25  1  0  0  0  0
 17 27  2  0  0  0  0
 18 26  1  0  0  0  0
 19 26  1  0  0  0  0
 20 25  1  0  0  0  0
 21 22  2  0  0  0  0
 22 23  1  0  0  0  0
 23 24  1  0  0  0  0
  1 29  1  0  0  0  0
  2 30  1  0  0  0  0
  3 31  1  0  0  0  0
  4 32  1  0  0  0  0
  5 33  1  0  0  0  0
  6 34  1  0  0  0  0
  7 35  1  0  0  0  0
  8 36  1  0  0  0  0
  9 37  1  0  0  0  0
 10 38  1  0  0  0  0
 11 39  1  0  0  0  0
 18 40  1  0  0  0  0
 18 41  1  0  0  0  0
 18 42  1  0  0  0  0
 19 43  1  0  0  0  0
 19 44  1  0  0  0  0
 19 45  1  0  0  0  0
 20 46  1  0  0  0  0
 20 47  1  0  0  0  0
 24 48  1  0  0  0  0
M  END
> <clash_score>
0

> <docking_score>
-9.697673797607422

> <overlap_score>
0.9772621989250183

$$$$
BENZO_2_1
  -OEChem-08222022373D

 51 54  0     0  0  0  0  0  0999 V2000
    4.0980    2.1130   19.5350 C   0  0  0  0  0  0  0  0  0  0  0  0
    4.2970    1.6690   20.8430 C   0  0  0  0  0  0  0  0  0  0  0  0
   13.5977    1.8457   22.6865 C   0  0  0  0  0  0  0  0  0  0  0  0
   12.2044    1.8769   22.7438 C   0  0  0  0  0  0  0  0  0  0  0  0
    4.9400    1.7060   18.5060 C   0  0  0  0  0  0  0  0  0  0  0  0
    5.3360    0.8000   21.1530 C   0  0  0  0  0  0  0  0  0  0  0  0
    8.3510   -1.5420   24.6110 C   0  0  0  0  0  0  0  0  0  0  0  0
   10.2760   -2.3270   23.4020 C   0  0  0  0  0  0  0  0  0  0  0  0
    8.3310   -2.7170   25.3430 C   0  0  0  0  0  0  0  0  0  0  0  0
   10.2570   -3.5000   24.1350 C   0  0  0  0  0  0  0  0  0  0  0  0
   14.3084    0.9454   23.4803 C   0  0  0  0  0  0  0  0  0  0  0  0
   12.2323    0.1076   24.3888 C   0  0  0  0  0  0  0  0  0  0  0  0
   11.5217    1.0079   23.5949 C   0  0  0  0  0  0  0  0  0  0  0  0
    5.9810    0.8330   18.8060 C   0  0  0  0  0  0  0  0  0  0  0  0
    6.1600    0.3870   20.1140 C   0  0  0  0  0  0  0  0  0  0  0  0
    9.3300   -1.3350   23.6390 C   0  0  0  0  0  0  0  0  0  0  0  0
    9.2850   -3.7090   25.1090 C   0  0  0  0  0  0  0  0  0  0  0  0
   13.6257    0.0764   24.3314 C   0  0  0  0  0  0  0  0  0  0  0  0
    8.9510    0.1280   21.6880 C   0  0  0  0  0  0  0  0  0  0  0  0
    8.2493   -5.1167   26.8639 C   0  0  0  0  0  0  0  0  0  0  0  0
   10.2428   -5.9410   25.6009 C   0  0  0  0  0  0  0  0  0  0  0  0
   10.0220    1.0430   23.6570 C   0  0  0  0  0  0  0  0  0  0  0  0
    6.9440    0.2550   18.0100 N   0  0  0  0  0  0  0  0  0  0  0  0
    7.6830   -0.5170   18.7600 N   0  0  0  0  0  0  0  0  0  0  0  0
    7.2210   -0.4620   20.0350 N   0  0  0  0  0  0  0  0  0  0  0  0
    8.0810   -0.9750   21.0820 N   0  0  0  0  0  0  0  0  0  0  0  0
    9.4200   -0.0840   22.9530 N   0  0  0  0  0  0  0  0  0  0  0  0
    9.2624   -4.9028   25.8498 N   0  0  0  0  0  0  0  0  0  0  0  0
    9.1870    1.1500   21.0630 O   0  0  0  0  0  0  0  0  0  0  0  0
   14.5031   -1.0334   25.3114 Cl  0  0  0  0  0  0  0  0  0  0  0  0
    3.2714    2.7876   19.3199 H   0  0  0  0  0  0  0  0  0  0  0  0
    3.6283    2.0091   21.6296 H   0  0  0  0  0  0  0  0  0  0  0  0
   14.1289    2.5227   22.0237 H   0  0  0  0  0  0  0  0  0  0  0  0
   11.6588    2.5818   22.1218 H   0  0  0  0  0  0  0  0  0  0  0  0
    4.7824    2.0670   17.4883 H   0  0  0  0  0  0  0  0  0  0  0  0
    5.4937    0.4574   22.1805 H   0  0  0  0  0  0  0  0  0  0  0  0
    7.5947   -0.7787   24.7997 H   0  0  0  0  0  0  0  0  0  0  0  0
   11.0404   -2.1861   22.6352 H   0  0  0  0  0  0  0  0  0  0  0  0
    7.5641   -2.8632   26.1047 H   0  0  0  0  0  0  0  0  0  0  0  0
   11.0135   -4.2647   23.9425 H   0  0  0  0  0  0  0  0  0  0  0  0
   15.3941    0.9323   23.4255 H   0  0  0  0  0  0  0  0  0  0  0  0
   11.6954   -0.5682   25.0504 H   0  0  0  0  0  0  0  0  0  0  0  0
    8.3982   -6.1020   27.3296 H   0  0  0  0  0  0  0  0  0  0  0  0
    8.3279   -4.3328   27.6316 H   0  0  0  0  0  0  0  0  0  0  0  0
    7.2526   -5.0773   26.4003 H   0  0  0  0  0  0  0  0  0  0  0  0
   10.0593   -6.7889   26.2772 H   0  0  0  0  0  0  0  0  0  0  0  0
   10.1609   -6.2799   24.5576 H   0  0  0  0  0  0  0  0  0  0  0  0
   11.2523   -5.5421   25.7787 H   0  0  0  0  0  0  0  0  0  0  0  0
    9.6778    1.0140   24.6966 H   0  0  0  0  0  0  0  0  0  0  0  0
    9.6316    1.9637   23.2107 H   0  0  0  0  0  0  0  0  0  0  0  0
    8.1044   -1.8183   21.3422 H   0  0  0  0  0  0  0  0  0  0  0  0
  1  2  1  0  0  0  0
  1  5  2  0  0  0  0
  2  6  2  0  0  0  0
  3  4  2  0  0  0  0
  3 11  1  0  0  0  0
  4 13  1  0  0  0  0
  5 14  1  0  0  0  0
  6 15  1  0  0  0  0
  7  9  2  0  0  0  0
  7 16  1  0  0  0  0
  8 10  1  0  0  0  0
  8 16  2  0  0  0  0
  9 17  1  0  0  0  0
 10 17  2  0  0  0  0
 11 18  2  0  0  0  0
 12 13  2  0  0  0  0
 12 18  1  0  0  0  0
 13 22  1  0  0  0  0
 14 15  2  0  0  0  0
 14 23  1  0  0  0  0
 15 25  1  0  0  0  0
 16 27  1  0  0  0  0
 17 28  1  0  0  0  0
 18 30  1  0  0  0  0
 19 26  1  0  0  0  0
 19 27  1  0  0  0  0
 19 29  2  0  0  0  0
 20 28  1  0  0  0  0
 21 28  1  0  0  0  0
 22 27  1  0  0  0  0
 23 24  2  0  0  0  0
 24 25  1  0  0  0  0
 25 26  1  0  0  0  0
  1 31  1  0  0  0  0
  2 32  1  0  0  0  0
  3 33  1  0  0  0  0
  4 34  1  0  0  0  0
  5 35  1  0  0  0  0
  6 36  1  0  0  0  0
  7 37  1  0  0  0  0
  8 38  1  0  0  0  0
  9 39  1  0  0  0  0
 10 40  1  0  0  0  0
 11 41  1  0  0  0  0
 12 42  1  0  0  0  0
 20 43  1  0  0  0  0
 20 44  1  0  0  0  0
 20 45  1  0  0  0  0
 21 46  1  0  0  0  0
 21 47  1  0  0  0  0
 21 48  1  0  0  0  0
 22 49  1  0  0  0  0
 22 50  1  0  0  0  0
 26 51  1  0  0  0  0
M  END
> <clash_score>
0.7662441439728657

> <docking_score>
-8.633374214172363

> <overlap_score>
1.0082905292510986

$$$$
BENZO_4_1
  -OEChem-08222022373D

 50 53  0     0  0  0  0  0  0999 V2000
    4.0980    2.1130   19.5350 C   0  0  0  0  0  0  0  0  0  0  0  0
    4.2970    1.6690   20.8430 C   0  0  0  0  0  0  0  0  0  0  0  0
    4.9400    1.7060   18.5060 C   0  0  0  0  0  0  0  0  0  0  0  0
    5.3360    0.8000   21.1530 C   0  0  0  0  0  0  0  0  0  0  0  0
    8.3310   -2.7170   25.3430 C   0  0  0  0  0  0  0  0  0  0  0  0
   10.2570   -3.5000   24.1350 C   0  0  0  0  0  0  0  0  0  0  0  0
    8.3510   -1.5420   24.6110 C   0  0  0  0  0  0  0  0  0  0  0  0
   10.2760   -2.3270   23.4020 C   0  0  0  0  0  0  0  0  0  0  0  0
   12.2675    1.0332   22.3812 C   0  0  0  0  0  0  0  0  0  0  0  0
   13.6257    0.9906   22.6074 C   0  0  0  0  0  0  0  0  0  0  0  0
   12.3384    0.9467   24.7028 C   0  0  0  0  0  0  0  0  0  0  0  0
   11.5217    1.0079   23.5949 C   0  0  0  0  0  0  0  0  0  0  0  0
    5.9810    0.8330   18.8060 C   0  0  0  0  0  0  0  0  0  0  0  0
    6.1600    0.3870   20.1140 C   0  0  0  0  0  0  0  0  0  0  0  0
    9.2850   -3.7090   25.1090 C   0  0  0  0  0  0  0  0  0  0  0  0
    9.3300   -1.3350   23.6390 C   0  0  0  0  0  0  0  0  0  0  0  0
    9.6847   -6.1679   25.4389 C   0  0  0  0  0  0  0  0  0  0  0  0
    8.9510    0.1280   21.6880 C   0  0  0  0  0  0  0  0  0  0  0  0
    8.0403   -7.2916   27.0007 C   0  0  0  0  0  0  0  0  0  0  0  0
   10.0220    1.0430   23.6570 C   0  0  0  0  0  0  0  0  0  0  0  0
    9.4865   -7.1875   26.5507 C   0  0  0  0  0  0  0  0  0  0  0  0
    6.9440    0.2550   18.0100 N   0  0  0  0  0  0  0  0  0  0  0  0
    7.6830   -0.5170   18.7600 N   0  0  0  0  0  0  0  0  0  0  0  0
    7.2210   -0.4620   20.0350 N   0  0  0  0  0  0  0  0  0  0  0  0
    9.2630   -4.8902   25.8410 N   0  0  0  0  0  0  0  0  0  0  0  0
    8.0810   -0.9750   21.0820 N   0  0  0  0  0  0  0  0  0  0  0  0
    9.4200   -0.0840   22.9530 N   0  0  0  0  0  0  0  0  0  0  0  0
   10.1571   -6.4766   24.3498 O   0  0  0  0  0  0  0  0  0  0  0  0
    9.1870    1.1500   21.0630 O   0  0  0  0  0  0  0  0  0  0  0  0
   13.9969    0.9203   24.2776 S   0  0  0  0  0  0  0  0  0  0  0  0
    3.2714    2.7876   19.3199 H   0  0  0  0  0  0  0  0  0  0  0  0
    3.6283    2.0091   21.6296 H   0  0  0  0  0  0  0  0  0  0  0  0
    4.7824    2.0670   17.4883 H   0  0  0  0  0  0  0  0  0  0  0  0
    5.4937    0.4574   22.1805 H   0  0  0  0  0  0  0  0  0  0  0  0
    7.5639   -2.8621   26.1045 H   0  0  0  0  0  0  0  0  0  0  0  0
   11.0141   -4.2644   23.9422 H   0  0  0  0  0  0  0  0  0  0  0  0
    7.5950   -0.7788   24.8007 H   0  0  0  0  0  0  0  0  0  0  0  0
   11.0408   -2.1861   22.6359 H   0  0  0  0  0  0  0  0  0  0  0  0
   11.8338    1.0798   21.3902 H   0  0  0  0  0  0  0  0  0  0  0  0
   14.4176    0.9966   21.8719 H   0  0  0  0  0  0  0  0  0  0  0  0
   12.0446    0.9149   25.7428 H   0  0  0  0  0  0  0  0  0  0  0  0
    7.6717   -6.3274   27.3659 H   0  0  0  0  0  0  0  0  0  0  0  0
    7.9445   -8.0228   27.8092 H   0  0  0  0  0  0  0  0  0  0  0  0
    7.3936   -7.6075   26.1754 H   0  0  0  0  0  0  0  0  0  0  0  0
    9.6778    1.0140   24.6966 H   0  0  0  0  0  0  0  0  0  0  0  0
    9.6316    1.9637   23.2107 H   0  0  0  0  0  0  0  0  0  0  0  0
    9.8285   -8.1648   26.1910 H   0  0  0  0  0  0  0  0  0  0  0  0
   10.1145   -6.9001   27.4018 H   0  0  0  0  0  0  0  0  0  0  0  0
    8.8930   -4.8275   26.7966 H   0  0  0  0  0  0  0  0  0  0  0  0
    8.1044   -1.8183   21.3422 H   0  0  0  0  0  0  0  0  0  0  0  0
  1  2  1  0  0  0  0
  1  3  2  0  0  0  0
  2  4  2  0  0  0  0
  3 13  1  0  0  0  0
  4 14  1  0  0  0  0
  5  7  2  0  0  0  0
  5 15  1  0  0  0  0
  6  8  1  0  0  0  0
  6 15  2  0  0  0  0
  7 16  1  0  0  0  0
  8 16  2  0  0  0  0
  9 10  2  0  0  0  0
  9 12  1  0  0  0  0
 10 30  1  0  0  0  0
 11 12  2  0  0  0  0
 11 30  1  0  0  0  0
 12 20  1  0  0  0  0
 13 14  2  0  0  0  0
 13 22  1  0  0  0  0
 14 24  1  0  0  0  0
 15 25  1  0  0  0  0
 16 27  1  0  0  0  0
 17 21  1  0  0  0  0
 17 25  1  0  0  0  0
 17 28  2  0  0  0  0
 18 26  1  0  0  0  0
 18 27  1  0  0  0  0
 18 29  2  0  0  0  0
 19 21  1  0  0  0  0
 20 27  1  0  0  0  0
 22 23  2  0  0  0  0
 23 24  1  0  0  0  0
 24 26  1  0  0  0  0
  1 31  1  0  0  0  0
  2 32  1  0  0  0  0
  3 33  1  0  0  0  0
  4 34  1  0  0  0  0
  5 35  1  0  0  0  0
  6 36  1  0  0  0  0
  7 37  1  0  0  0  0
  8 38  1  0  0  0  0
  9 39  1  0  0  0  0
 10 40  1  0  0  0  0
 11 41  1  0  0  0  0
 19 42  1  0  0  0  0
 19 43  1  0  0  0  0
 19 44  1  0  0  0  0
 20 45  1  0  0  0  0
 20 46  1  0  0  0  0
 21 47  1  0  0  0  0
 21 48  1  0  0  0  0
 25 49  1  0  0  0  0
 26 50  1  0  0  0  0
M  END
> <clash_score>
1.3338359424528714

> <docking_score>
-6.177541732788086

> <overlap_score>
0.9613664746284485

$$$$
BENZO_7_1
  -OEChem-08222022373D

 53 56  0     0  0  0  0  0  0999 V2000
    4.0980    2.1130   19.5350 C   0  0  0  0  0  0  0  0  0  0  0  0
    4.2970    1.6690   20.8430 C   0  0  0  0  0  0  0  0  0  0  0  0
    4.9400    1.7060   18.5060 C   0  0  0  0  0  0  0  0  0  0  0  0
    5.3360    0.8000   21.1530 C   0  0  0  0  0  0  0  0  0  0  0  0
    8.3310   -2.7170   25.3430 C   0  0  0  0  0  0  0  0  0  0  0  0
   10.2570   -3.5000   24.1350 C   0  0  0  0  0  0  0  0  0  0  0  0
    8.3510   -1.5420   24.6110 C   0  0  0  0  0  0  0  0  0  0  0  0
   10.2760   -2.3270   23.4020 C   0  0  0  0  0  0  0  0  0  0  0  0
   12.4295    0.9466   24.6692 C   0  0  0  0  0  0  0  0  0  0  0  0
   12.3161    1.0259   22.4747 C   0  0  0  0  0  0  0  0  0  0  0  0
   11.5217    1.0079   23.5949 C   0  0  0  0  0  0  0  0  0  0  0  0
    5.9810    0.8330   18.8060 C   0  0  0  0  0  0  0  0  0  0  0  0
    6.1600    0.3870   20.1140 C   0  0  0  0  0  0  0  0  0  0  0  0
    9.2850   -3.7090   25.1090 C   0  0  0  0  0  0  0  0  0  0  0  0
    9.3300   -1.3350   23.6390 C   0  0  0  0  0  0  0  0  0  0  0  0
    9.6847   -6.1679   25.4389 C   0  0  0  0  0  0  0  0  0  0  0  0
    8.9510    0.1280   21.6880 C   0  0  0  0  0  0  0  0  0  0  0  0
    8.0403   -7.2916   27.0007 C   0  0  0  0  0  0  0  0  0  0  0  0
   14.7958    0.9722   22.1181 C   0  0  0  0  0  0  0  0  0  0  0  0
   10.0220    1.0430   23.6570 C   0  0  0  0  0  0  0  0  0  0  0  0
    9.4865   -7.1875   26.5507 C   0  0  0  0  0  0  0  0  0  0  0  0
   13.7032    0.9267   24.2674 N   0  0  0  0  0  0  0  0  0  0  0  0
    6.9440    0.2550   18.0100 N   0  0  0  0  0  0  0  0  0  0  0  0
    7.6830   -0.5170   18.7600 N   0  0  0  0  0  0  0  0  0  0  0  0
   13.6014    0.9758   22.9283 N   0  0  0  0  0  0  0  0  0  0  0  0
    7.2210   -0.4620   20.0350 N   0  0  0  0  0  0  0  0  0  0  0  0
    9.2630   -4.8902   25.8410 N   0  0  0  0  0  0  0  0  0  0  0  0
    8.0810   -0.9750   21.0820 N   0  0  0  0  0  0  0  0  0  0  0  0
    9.4200   -0.0840   22.9530 N   0  0  0  0  0  0  0  0  0  0  0  0
   10.1571   -6.4766   24.3498 O   0  0  0  0  0  0  0  0  0  0  0  0
    9.1870    1.1500   21.0630 O   0  0  0  0  0  0  0  0  0  0  0  0
    3.2714    2.7876   19.3199 H   0  0  0  0  0  0  0  0  0  0  0  0
    3.6283    2.0091   21.6296 H   0  0  0  0  0  0  0  0  0  0  0  0
    4.7824    2.0670   17.4883 H   0  0  0  0  0  0  0  0  0  0  0  0
    5.4937    0.4574   22.1805 H   0  0  0  0  0  0  0  0  0  0  0  0
    7.5639   -2.8621   26.1045 H   0  0  0  0  0  0  0  0  0  0  0  0
   11.0141   -4.2644   23.9422 H   0  0  0  0  0  0  0  0  0  0  0  0
    7.5950   -0.7788   24.8007 H   0  0  0  0  0  0  0  0  0  0  0  0
   11.0408   -2.1861   22.6359 H   0  0  0  0  0  0  0  0  0  0  0  0
   12.2184    0.9145   25.7287 H   0  0  0  0  0  0  0  0  0  0  0  0
   12.0821    1.0677   21.4195 H   0  0  0  0  0  0  0  0  0  0  0  0
    7.6717   -6.3274   27.3659 H   0  0  0  0  0  0  0  0  0  0  0  0
    7.9445   -8.0228   27.8092 H   0  0  0  0  0  0  0  0  0  0  0  0
    7.3936   -7.6075   26.1754 H   0  0  0  0  0  0  0  0  0  0  0  0
   15.1026    2.0102   21.9649 H   0  0  0  0  0  0  0  0  0  0  0  0
   15.5826    0.4128   22.6318 H   0  0  0  0  0  0  0  0  0  0  0  0
   14.5811    0.4906   21.1600 H   0  0  0  0  0  0  0  0  0  0  0  0
    9.6778    1.0140   24.6966 H   0  0  0  0  0  0  0  0  0  0  0  0
    9.6316    1.9637   23.2107 H   0  0  0  0  0  0  0  0  0  0  0  0
    9.8285   -8.1648   26.1910 H   0  0  0  0  0  0  0  0  0  0  0  0
   10.1145   -6.9001   27.4018 H   0  0  0  0  0  0  0  0  0  0  0  0
    8.8930   -4.8275   26.7966 H   0  0  0  0  0  0  0  0  0  0  0  0
    8.1044   -1.8183   21.3422 H   0  0  0  0  0  0  0  0  0  0  0  0
  1  2  1  0  0  0  0
  1  3  2  0  0  0  0
  2  4  2  0  0  0  0
  3 12  1  0  0  0  0
  4 13  1  0  0  0  0
  5  7  2  0  0  0  0
  5 14  1  0  0  0  0
  6  8  1  0  0  0  0
  6 14  2  0  0  0  0
  7 15  1  0  0  0  0
  8 15  2  0  0  0  0
  9 11  1  0  0  0  0
  9 22  2  0  0  0  0
 10 11  2  0  0  0  0
 10 25  1  0  0  0  0
 11 20  1  0  0  0  0
 12 13  2  0  0  0  0
 12 23  1  0  0  0  0
 13 26  1  0  0  0  0
 14 27  1  0  0  0  0
 15 29  1  0  0  0  0
 16 21  1  0  0  0  0
 16 27  1  0  0  0  0
 16 30  2  0  0  0  0
 17 28  1  0  0  0  0
 17 29  1  0  0  0  0
 17 31  2  0  0  0  0
 18 21  1  0  0  0  0
 19 25  1  0  0  0  0
 20 29  1  0  0  0  0
 22 25  1  0  0  0  0
 23 24  2  0  0  0  0
 24 26  1  0  0  0  0
 26 28  1  0  0  0  0
  1 32  1  0  0  0  0
  2 33  1  0  0  0  0
  3 34  1  0  0  0  0
  4 35  1  0  0  0  0
  5 36  1  0  0  0  0
  6 37  1  0  0  0  0
  7 38  1  0  0  0  0
  8 39  1  0  0  0  0
  9 40  1  0  0  0  0
 10 41  1  0  0  0  0
 18 42  1  0  0  0  0
 18 43  1  0  0  0  0
 18 44  1  0  0  0  0
 19 45  1  0  0  0  0
 19 46  1  0  0  0  0
 19 47  1  0  0  0  0
 20 48  1  0  0  0  0
 20 49  1  0  0  0  0
 21 50  1  0  0  0  0
 21 51  1  0  0  0  0
 27 52  1  0  0  0  0
 28 53  1  0  0  0  0
M  END
> <clash_score>
1.3338359424528714

> <docking_score>
-5.873400688171387

> <overlap_score>
0.9779826998710632

$$$$
BENZO_6_1
  -OEChem-08222022373D

 53 56  0     0  0  0  0  0  0999 V2000
    4.0980    2.1130   19.5350 C   0  0  0  0  0  0  0  0  0  0  0  0
    4.2970    1.6690   20.8430 C   0  0  0  0  0  0  0  0  0  0  0  0
   13.5977    1.8457   22.6865 C   0  0  0  0  0  0  0  0  0  0  0  0
   12.2044    1.8769   22.7438 C   0  0  0  0  0  0  0  0  0  0  0  0
    4.9400    1.7060   18.5060 C   0  0  0  0  0  0  0  0  0  0  0  0
    5.3360    0.8000   21.1530 C   0  0  0  0  0  0  0  0  0  0  0  0
    8.3310   -2.7170   25.3430 C   0  0  0  0  0  0  0  0  0  0  0  0
   10.2570   -3.5000   24.1350 C   0  0  0  0  0  0  0  0  0  0  0  0
    8.3510   -1.5420   24.6110 C   0  0  0  0  0  0  0  0  0  0  0  0
   10.2760   -2.3270   23.4020 C   0  0  0  0  0  0  0  0  0  0  0  0
   14.3084    0.9454   23.4803 C   0  0  0  0  0  0  0  0  0  0  0  0
   12.2323    0.1076   24.3888 C   0  0  0  0  0  0  0  0  0  0  0  0
   11.5217    1.0079   23.5949 C   0  0  0  0  0  0  0  0  0  0  0  0
    5.9810    0.8330   18.8060 C   0  0  0  0  0  0  0  0  0  0  0  0
    6.1600    0.3870   20.1140 C   0  0  0  0  0  0  0  0  0  0  0  0
    9.2850   -3.7090   25.1090 C   0  0  0  0  0  0  0  0  0  0  0  0
    9.3300   -1.3350   23.6390 C   0  0  0  0  0  0  0  0  0  0  0  0
   13.6257    0.0764   24.3314 C   0  0  0  0  0  0  0  0  0  0  0  0
    9.6847   -6.1679   25.4389 C   0  0  0  0  0  0  0  0  0  0  0  0
    8.9510    0.1280   21.6880 C   0  0  0  0  0  0  0  0  0  0  0  0
    8.0403   -7.2916   27.0007 C   0  0  0  0  0  0  0  0  0  0  0  0
   10.0220    1.0430   23.6570 C   0  0  0  0  0  0  0  0  0  0  0  0
    9.4865   -7.1875   26.5507 C   0  0  0  0  0  0  0  0  0  0  0  0
    6.9440    0.2550   18.0100 N   0  0  0  0  0  0  0  0  0  0  0  0
    7.6830   -0.5170   18.7600 N   0  0  0  0  0  0  0  0  0  0  0  0
    7.2210   -0.4620   20.0350 N   0  0  0  0  0  0  0  0  0  0  0  0
    9.2630   -4.8902   25.8410 N   0  0  0  0  0  0  0  0  0  0  0  0
    8.0810   -0.9750   21.0820 N   0  0  0  0  0  0  0  0  0  0  0  0
    9.4200   -0.0840   22.9530 N   0  0  0  0  0  0  0  0  0  0  0  0
   10.1571   -6.4766   24.3498 O   0  0  0  0  0  0  0  0  0  0  0  0
    9.1870    1.1500   21.0630 O   0  0  0  0  0  0  0  0  0  0  0  0
   14.5031   -1.0334   25.3114 Cl  0  0  0  0  0  0  0  0  0  0  0  0
    3.2714    2.7876   19.3199 H   0  0  0  0  0  0  0  0  0  0  0  0
    3.6283    2.0091   21.6296 H   0  0  0  0  0  0  0  0  0  0  0  0
   14.1289    2.5227   22.0237 H   0  0  0  0  0  0  0  0  0  0  0  0
   11.6588    2.5818   22.1218 H   0  0  0  0  0  0  0  0  0  0  0  0
    4.7824    2.0670   17.4883 H   0  0  0  0  0  0  0  0  0  0  0  0
    5.4937    0.4574   22.1805 H   0  0  0  0  0  0  0  0  0  0  0  0
    7.5639   -2.8621   26.1045 H   0  0  0  0  0  0  0  0  0  0  0  0
   11.0141   -4.2644   23.9422 H   0  0  0  0  0  0  0  0  0  0  0  0
    7.5950   -0.7788   24.8007 H   0  0  0  0  0  0  0  0  0  0  0  0
   11.0408   -2.1861   22.6359 H   0  0  0  0  0  0  0  0  0  0  0  0
   15.3941    0.9323   23.4255 H   0  0  0  0  0  0  0  0  0  0  0  0
   11.6954   -0.5682   25.0504 H   0  0  0  0  0  0  0  0  0  0  0  0
    7.6717   -6.3274   27.3659 H   0  0  0  0  0  0  0  0  0  0  0  0
    7.9445   -8.0228   27.8092 H   0  0  0  0  0  0  0  0  0  0  0  0
    7.3936   -7.6075   26.1754 H   0  0  0  0  0  0  0  0  0  0  0  0
    9.6778    1.0140   24.6966 H   0  0  0  0  0  0  0  0  0  0  0  0
    9.6316    1.9637   23.2107 H   0  0  0  0  0  0  0  0  0  0  0  0
    9.8285   -8.1648   26.1910 H   0  0  0  0  0  0  0  0  0  0  0  0
   10.1145   -6.9001   27.4018 H   0  0  0  0  0  0  0  0  0  0  0  0
    8.8930   -4.8275   26.7966 H   0  0  0  0  0  0  0  0  0  0  0  0
    8.1044   -1.8183   21.3422 H   0  0  0  0  0  0  0  0  0  0  0  0
  1  2  1  0  0  0  0
  1  5  2  0  0  0  0
  2  6  2  0  0  0  0
  3  4  2  0  0  0  0
  3 11  1  0  0  0  0
  4 13  1  0  0  0  0
  5 14  1  0  0  0  0
  6 15  1  0  0  0  0
  7  9  2  0  0  0  0
  7 16  1  0  0  0  0
  8 10  1  0  0  0  0
  8 16  2  0  0  0  0
  9 17  1  0  0  0  0
 10 17  2  0  0  0  0
 11 18  2  0  0  0  0
 12 13  2  0  0  0  0
 12 18  1  0  0  0  0
 13 22  1  0  0  0  0
 14 15  2  0  0  0  0
 14 24  1  0  0  0  0
 15 26  1  0  0  0  0
 16 27  1  0  0  0  0
 17 29  1  0  0  0  0
 18 32  1  0  0  0  0
 19 23  1  0  0  0  0
 19 27  1  0  0  0  0
 19 30  2  0  0  0  0
 20 28  1  0  0  0  0
 20 29  1  0  0  0  0
 20 31  2  0  0  0  0
 21 23  1  0  0  0  0
 22 29  1  0  0  0  0
 24 25  2  0  0  0  0
 25 26  1  0  0  0  0
 26 28  1  0  0  0  0
  1 33  1  0  0  0  0
  2 34  1  0  0  0  0
  3 35  1  0  0  0  0
  4 36  1  0  0  0  0
  5 37  1  0  0  0  0
  6 38  1  0  0  0  0
  7 39  1  0  0  0  0
  8 40  1  0  0  0  0
  9 41  1  0  0  0  0
 10 42  1  0  0  0  0
 11 43  1  0  0  0  0
 12 44  1  0  0  0  0
 21 45  1  0  0  0  0
 21 46  1  0  0  0  0
 21 47  1  0  0  0  0
 22 48  1  0  0  0  0
 22 49  1  0  0  0  0
 23 50  1  0  0  0  0
 23 51  1  0  0  0  0
 27 52  1  0  0  0  0
 28 53  1  0  0  0  0
M  END
> <clash_score>
2.100080086425737

> <docking_score>
-5.113243579864502

> <overlap_score>
0.99234938621521

$$$$
BENZO_13_1
  -OEChem-08222022373D

 46 49  0     0  0  0  0  0  0999 V2000
   14.3082    0.9431   23.4783 C   0  0  0  0  0  0  0  0  0  0  0  0
   13.6391    0.3091   24.5251 C   0  0  0  0  0  0  0  0  0  0  0  0
   13.5841    1.6096   22.4898 C   0  0  0  0  0  0  0  0  0  0  0  0
    4.0980    2.1130   19.5350 C   0  0  0  0  0  0  0  0  0  0  0  0
    4.2970    1.6690   20.8430 C   0  0  0  0  0  0  0  0  0  0  0  0
   12.2459    0.3415   24.5835 C   0  0  0  0  0  0  0  0  0  0  0  0
   12.1908    1.6420   22.5481 C   0  0  0  0  0  0  0  0  0  0  0  0
    8.3310   -2.7170   25.3430 C   0  0  0  0  0  0  0  0  0  0  0  0
   10.2570   -3.5000   24.1350 C   0  0  0  0  0  0  0  0  0  0  0  0
    4.9400    1.7060   18.5060 C   0  0  0  0  0  0  0  0  0  0  0  0
    5.3360    0.8000   21.1530 C   0  0  0  0  0  0  0  0  0  0  0  0
    8.3510   -1.5420   24.6110 C   0  0  0  0  0  0  0  0  0  0  0  0
   10.2760   -2.3270   23.4020 C   0  0  0  0  0  0  0  0  0  0  0  0
    9.2850   -3.7090   25.1090 C   0  0  0  0  0  0  0  0  0  0  0  0
   11.5217    1.0079   23.5949 C   0  0  0  0  0  0  0  0  0  0  0  0
    5.9810    0.8330   18.8060 C   0  0  0  0  0  0  0  0  0  0  0  0
    6.1600    0.3870   20.1140 C   0  0  0  0  0  0  0  0  0  0  0  0
    9.3300   -1.3350   23.6390 C   0  0  0  0  0  0  0  0  0  0  0  0
    8.9510    0.1280   21.6880 C   0  0  0  0  0  0  0  0  0  0  0  0
    9.2610   -4.9721   25.8916 C   0  0  0  0  0  0  0  0  0  0  0  0
   10.0220    1.0430   23.6570 C   0  0  0  0  0  0  0  0  0  0  0  0
    6.9440    0.2550   18.0100 N   0  0  0  0  0  0  0  0  0  0  0  0
    7.6830   -0.5170   18.7600 N   0  0  0  0  0  0  0  0  0  0  0  0
    7.2210   -0.4620   20.0350 N   0  0  0  0  0  0  0  0  0  0  0  0
    8.0810   -0.9750   21.0820 N   0  0  0  0  0  0  0  0  0  0  0  0
    9.4200   -0.0840   22.9530 N   0  0  0  0  0  0  0  0  0  0  0  0
    9.1870    1.1500   21.0630 O   0  0  0  0  0  0  0  0  0  0  0  0
   15.3932    0.9189   23.4337 H   0  0  0  0  0  0  0  0  0  0  0  0
   14.2029   -0.2090   25.2955 H   0  0  0  0  0  0  0  0  0  0  0  0
   14.1048    2.1043   21.6752 H   0  0  0  0  0  0  0  0  0  0  0  0
    3.2714    2.7876   19.3199 H   0  0  0  0  0  0  0  0  0  0  0  0
    3.6283    2.0091   21.6296 H   0  0  0  0  0  0  0  0  0  0  0  0
   11.7330   -0.1555   25.4027 H   0  0  0  0  0  0  0  0  0  0  0  0
   11.6349    2.1636   21.7735 H   0  0  0  0  0  0  0  0  0  0  0  0
    7.5665   -2.8638   26.1066 H   0  0  0  0  0  0  0  0  0  0  0  0
   11.0137   -4.2652   23.9447 H   0  0  0  0  0  0  0  0  0  0  0  0
    4.7824    2.0670   17.4883 H   0  0  0  0  0  0  0  0  0  0  0  0
    5.4937    0.4574   22.1805 H   0  0  0  0  0  0  0  0  0  0  0  0
    7.5948   -0.7788   24.7997 H   0  0  0  0  0  0  0  0  0  0  0  0
   11.0411   -2.1856   22.6358 H   0  0  0  0  0  0  0  0  0  0  0  0
    8.6398   -5.7223   25.3871 H   0  0  0  0  0  0  0  0  0  0  0  0
   10.2715   -5.3829   26.0145 H   0  0  0  0  0  0  0  0  0  0  0  0
    8.8596   -4.8092   26.9004 H   0  0  0  0  0  0  0  0  0  0  0  0
    9.6778    1.0140   24.6966 H   0  0  0  0  0  0  0  0  0  0  0  0
    9.6316    1.9637   23.2107 H   0  0  0  0  0  0  0  0  0  0  0  0
    8.1044   -1.8183   21.3422 H   0  0  0  0  0  0  0  0  0  0  0  0
  1  2  1  0  0  0  0
  1  3  2  0  0  0  0
  2  6  2  0  0  0  0
  3  7  1  0  0  0  0
  4  5  1  0  0  0  0
  4 10  2  0  0  0  0
  5 11  2  0  0  0  0
  6 15  1  0  0  0  0
  7 15  2  0  0  0  0
  8 12  2  0  0  0  0
  8 14  1  0  0  0  0
  9 13  1  0  0  0  0
  9 14  2  0  0  0  0
 10 16  1  0  0  0  0
 11 17  1  0  0  0  0
 12 18  1  0  0  0  0
 13 18  2  0  0  0  0
 14 20  1  0  0  0  0
 15 21  1  0  0  0  0
 16 17  2  0  0  0  0
 16 22  1  0  0  0  0
 17 24  1  0  0  0  0
 18 26  1  0  0  0  0
 19 25  1  0  0  0  0
 19 26  1  0  0  0  0
 19 27  2  0  0  0  0
 21 26  1  0  0  0  0
 22 23  2  0  0  0  0
 23 24  1  0  0  0  0
 24 25  1  0  0  0  0
  1 28  1  0  0  0  0
  2 29  1  0  0  0  0
  3 30  1  0  0  0  0
  4 31  1  0  0  0  0
  5 32  1  0  0  0  0
  6 33  1  0  0  0  0
  7 34  1  0  0  0  0
  8 35  1  0  0  0  0
  9 36  1  0  0  0  0
 10 37  1  0  0  0  0
 11 38  1  0  0  0  0
 12 39  1  0  0  0  0
 13 40  1  0  0  0  0
 20 41  1  0  0  0  0
 20 42  1  0  0  0  0
 20 43  1  0  0  0  0
 21 44  1  0  0  0  0
 21 45  1  0  0  0  0
 25 46  1  0  0  0  0
M  END
> <clash_score>
0

> <docking_score>
-9.121308326721191

> <overlap_score>
0.9717718362808228

$$$$
BENZO_9_1
  -OEChem-08222022373D

 58 62  0     0  0  0  0  0  0999 V2000
   14.3082    0.9431   23.4783 C   0  0  0  0  0  0  0  0  0  0  0  0
   13.6391    0.3091   24.5251 C   0  0  0  0  0  0  0  0  0  0  0  0
   13.5841    1.6096   22.4898 C   0  0  0  0  0  0  0  0  0  0  0  0
    4.0980    2.1130   19.5350 C   0  0  0  0  0  0  0  0  0  0  0  0
    4.2970    1.6690   20.8430 C   0  0  0  0  0  0  0  0  0  0  0  0
   12.2459    0.3415   24.5835 C   0  0  0  0  0  0  0  0  0  0  0  0
   12.1908    1.6420   22.5481 C   0  0  0  0  0  0  0  0  0  0  0  0
    4.9400    1.7060   18.5060 C   0  0  0  0  0  0  0  0  0  0  0  0
    5.3360    0.8000   21.1530 C   0  0  0  0  0  0  0  0  0  0  0  0
    8.3310   -2.7170   25.3430 C   0  0  0  0  0  0  0  0  0  0  0  0
   10.2570   -3.5000   24.1350 C   0  0  0  0  0  0  0  0  0  0  0  0
    8.3510   -1.5420   24.6110 C   0  0  0  0  0  0  0  0  0  0  0  0
   10.2760   -2.3270   23.4020 C   0  0  0  0  0  0  0  0  0  0  0  0
   11.5217    1.0079   23.5949 C   0  0  0  0  0  0  0  0  0  0  0  0
    5.9810    0.8330   18.8060 C   0  0  0  0  0  0  0  0  0  0  0  0
    6.1600    0.3870   20.1140 C   0  0  0  0  0  0  0  0  0  0  0  0
    9.2850   -3.7090   25.1090 C   0  0  0  0  0  0  0  0  0  0  0  0
    9.3300   -1.3350   23.6390 C   0  0  0  0  0  0  0  0  0  0  0  0
    8.9510    0.1280   21.6880 C   0  0  0  0  0  0  0  0  0  0  0  0
    7.3162   -6.8834   26.5210 C   0  0  0  0  0  0  0  0  0  0  0  0
    7.3507   -5.5245   27.2240 C   0  0  0  0  0  0  0  0  0  0  0  0
    7.9375   -6.8069   25.1245 C   0  0  0  0  0  0  0  0  0  0  0  0
    8.7638   -4.9418   27.2163 C   0  0  0  0  0  0  0  0  0  0  0  0
    9.3378   -6.1874   25.1659 C   0  0  0  0  0  0  0  0  0  0  0  0
   10.0220    1.0430   23.6570 C   0  0  0  0  0  0  0  0  0  0  0  0
    6.9440    0.2550   18.0100 N   0  0  0  0  0  0  0  0  0  0  0  0
    7.6830   -0.5170   18.7600 N   0  0  0  0  0  0  0  0  0  0  0  0
    7.2210   -0.4620   20.0350 N   0  0  0  0  0  0  0  0  0  0  0  0
    9.2639   -4.8860   25.8399 N   0  0  0  0  0  0  0  0  0  0  0  0
    8.0810   -0.9750   21.0820 N   0  0  0  0  0  0  0  0  0  0  0  0
    9.4200   -0.0840   22.9530 N   0  0  0  0  0  0  0  0  0  0  0  0
    9.1870    1.1500   21.0630 O   0  0  0  0  0  0  0  0  0  0  0  0
   15.3932    0.9189   23.4337 H   0  0  0  0  0  0  0  0  0  0  0  0
   14.2028   -0.2090   25.2955 H   0  0  0  0  0  0  0  0  0  0  0  0
   14.1048    2.1043   21.6752 H   0  0  0  0  0  0  0  0  0  0  0  0
    3.2714    2.7876   19.3199 H   0  0  0  0  0  0  0  0  0  0  0  0
    3.6283    2.0091   21.6296 H   0  0  0  0  0  0  0  0  0  0  0  0
   11.7330   -0.1555   25.4027 H   0  0  0  0  0  0  0  0  0  0  0  0
   11.6349    2.1636   21.7735 H   0  0  0  0  0  0  0  0  0  0  0  0
    4.7824    2.0670   17.4883 H   0  0  0  0  0  0  0  0  0  0  0  0
    5.4937    0.4574   22.1805 H   0  0  0  0  0  0  0  0  0  0  0  0
    7.5647   -2.8621   26.1053 H   0  0  0  0  0  0  0  0  0  0  0  0
   11.0144   -4.2642   23.9425 H   0  0  0  0  0  0  0  0  0  0  0  0
    7.5958   -0.7779   24.8006 H   0  0  0  0  0  0  0  0  0  0  0  0
   11.0406   -2.1848   22.6356 H   0  0  0  0  0  0  0  0  0  0  0  0
    7.8578   -7.6261   27.1266 H   0  0  0  0  0  0  0  0  0  0  0  0
    6.2773   -7.2358   26.4459 H   0  0  0  0  0  0  0  0  0  0  0  0
    6.6663   -4.8351   26.7223 H   0  0  0  0  0  0  0  0  0  0  0  0
    7.0044   -5.6368   28.2534 H   0  0  0  0  0  0  0  0  0  0  0  0
    7.9946   -7.8119   24.6937 H   0  0  0  0  0  0  0  0  0  0  0  0
    7.2929   -6.2123   24.4668 H   0  0  0  0  0  0  0  0  0  0  0  0
    8.7343   -3.9408   27.6542 H   0  0  0  0  0  0  0  0  0  0  0  0
    9.4243   -5.5632   27.8278 H   0  0  0  0  0  0  0  0  0  0  0  0
   10.0200   -6.8490   25.7011 H   0  0  0  0  0  0  0  0  0  0  0  0
    9.6984   -6.0694   24.1436 H   0  0  0  0  0  0  0  0  0  0  0  0
    9.6778    1.0140   24.6966 H   0  0  0  0  0  0  0  0  0  0  0  0
    9.6316    1.9637   23.2107 H   0  0  0  0  0  0  0  0  0  0  0  0
    8.1334   -1.7991   21.3673 H   0  0  0  0  0  0  0  0  0  0  0  0
  1  2  1  0  0  0  0
  1  3  2  0  0  0  0
  2  6  2  0  0  0  0
  3  7  1  0  0  0  0
  4  5  1  0  0  0  0
  4  8  2  0  0  0  0
  5  9  2  0  0  0  0
  6 14  1  0  0  0  0
  7 14  2  0  0  0  0
  8 15  1  0  0  0  0
  9 16  1  0  0  0  0
 10 12  2  0  0  0  0
 10 17  1  0  0  0  0
 11 13  1  0  0  0  0
 11 17  2  0  0  0  0
 12 18  1  0  0  0  0
 13 18  2  0  0  0  0
 14 25  1  0  0  0  0
 15 16  2  0  0  0  0
 15 26  1  0  0  0  0
 16 28  1  0  0  0  0
 17 29  1  0  0  0  0
 18 31  1  0  0  0  0
 19 30  1  0  0  0  0
 19 31  1  0  0  0  0
 19 32  2  0  0  0  0
 20 21  1  0  0  0  0
 20 22  1  0  0  0  0
 21 23  1  0  0  0  0
 22 24  1  0  0  0  0
 23 29  1  0  0  0  0
 24 29  1  0  0  0  0
 25 31  1  0  0  0  0
 26 27  2  0  0  0  0
 27 28  1  0  0  0  0
 28 30  1  0  0  0  0
  1 33  1  0  0  0  0
  2 34  1  0  0  0  0
  3 35  1  0  0  0  0
  4 36  1  0  0  0  0
  5 37  1  0  0  0  0
  6 38  1  0  0  0  0
  7 39  1  0  0  0  0
  8 40  1  0  0  0  0
  9 41  1  0  0  0  0
 10 42  1  0  0  0  0
 11 43  1  0  0  0  0
 12 44  1  0  0  0  0
 13 45  1  0  0  0  0
 20 46  1  0  0  0  0
 20 47  1  0  0  0  0
 21 48  1  0  0  0  0
 21 49  1  0  0  0  0
 22 50  1  0  0  0  0
 22 51  1  0  0  0  0
 23 52  1  0  0  0  0
 23 53  1  0  0  0  0
 24 54  1  0  0  0  0
 24 55  1  0  0  0  0
 25 56  1  0  0  0  0
 25 57  1  0  0  0  0
 30 58  1  0  0  0  0
M  END
> <clash_score>
0

> <docking_score>
-8.163652420043945

> <overlap_score>
1.015582799911499

$$$$
BENZO_12_1
  -OEChem-08222022373D

 43 46  0     0  0  0  0  0  0999 V2000
    4.0980    2.1130   19.5350 C   0  0  0  0  0  0  0  0  0  0  0  0
    4.2970    1.6690   20.8430 C   0  0  0  0  0  0  0  0  0  0  0  0
    8.3310   -2.7170   25.3430 C   0  0  0  0  0  0  0  0  0  0  0  0
   10.2570   -3.5000   24.1350 C   0  0  0  0  0  0  0  0  0  0  0  0
    4.9400    1.7060   18.5060 C   0  0  0  0  0  0  0  0  0  0  0  0
    5.3360    0.8000   21.1530 C   0  0  0  0  0  0  0  0  0  0  0  0
    8.3510   -1.5420   24.6110 C   0  0  0  0  0  0  0  0  0  0  0  0
   10.2760   -2.3270   23.4020 C   0  0  0  0  0  0  0  0  0  0  0  0
   12.2675    1.0332   22.3812 C   0  0  0  0  0  0  0  0  0  0  0  0
   13.6257    0.9906   22.6074 C   0  0  0  0  0  0  0  0  0  0  0  0
   12.3384    0.9467   24.7028 C   0  0  0  0  0  0  0  0  0  0  0  0
    9.2850   -3.7090   25.1090 C   0  0  0  0  0  0  0  0  0  0  0  0
   11.5217    1.0079   23.5949 C   0  0  0  0  0  0  0  0  0  0  0  0
    5.9810    0.8330   18.8060 C   0  0  0  0  0  0  0  0  0  0  0  0
    6.1600    0.3870   20.1140 C   0  0  0  0  0  0  0  0  0  0  0  0
    9.3300   -1.3350   23.6390 C   0  0  0  0  0  0  0  0  0  0  0  0
    8.9510    0.1280   21.6880 C   0  0  0  0  0  0  0  0  0  0  0  0
    9.2610   -4.9721   25.8916 C   0  0  0  0  0  0  0  0  0  0  0  0
   10.0220    1.0430   23.6570 C   0  0  0  0  0  0  0  0  0  0  0  0
    6.9440    0.2550   18.0100 N   0  0  0  0  0  0  0  0  0  0  0  0
    7.6830   -0.5170   18.7600 N   0  0  0  0  0  0  0  0  0  0  0  0
    7.2210   -0.4620   20.0350 N   0  0  0  0  0  0  0  0  0  0  0  0
    8.0810   -0.9750   21.0820 N   0  0  0  0  0  0  0  0  0  0  0  0
    9.4200   -0.0840   22.9530 N   0  0  0  0  0  0  0  0  0  0  0  0
    9.1870    1.1500   21.0630 O   0  0  0  0  0  0  0  0  0  0  0  0
   13.9969    0.9203   24.2776 S   0  0  0  0  0  0  0  0  0  0  0  0
    3.2714    2.7876   19.3199 H   0  0  0  0  0  0  0  0  0  0  0  0
    3.6283    2.0091   21.6296 H   0  0  0  0  0  0  0  0  0  0  0  0
    7.5665   -2.8638   26.1066 H   0  0  0  0  0  0  0  0  0  0  0  0
   11.0137   -4.2652   23.9447 H   0  0  0  0  0  0  0  0  0  0  0  0
    4.7824    2.0670   17.4883 H   0  0  0  0  0  0  0  0  0  0  0  0
    5.4937    0.4574   22.1805 H   0  0  0  0  0  0  0  0  0  0  0  0
    7.5948   -0.7788   24.7997 H   0  0  0  0  0  0  0  0  0  0  0  0
   11.0411   -2.1856   22.6358 H   0  0  0  0  0  0  0  0  0  0  0  0
   11.8338    1.0798   21.3902 H   0  0  0  0  0  0  0  0  0  0  0  0
   14.4176    0.9966   21.8719 H   0  0  0  0  0  0  0  0  0  0  0  0
   12.0446    0.9149   25.7428 H   0  0  0  0  0  0  0  0  0  0  0  0
    8.6398   -5.7223   25.3871 H   0  0  0  0  0  0  0  0  0  0  0  0
   10.2715   -5.3829   26.0145 H   0  0  0  0  0  0  0  0  0  0  0  0
    8.8596   -4.8092   26.9004 H   0  0  0  0  0  0  0  0  0  0  0  0
    9.6778    1.0140   24.6966 H   0  0  0  0  0  0  0  0  0  0  0  0
    9.6316    1.9637   23.2107 H   0  0  0  0  0  0  0  0  0  0  0  0
    8.1044   -1.8183   21.3422 H   0  0  0  0  0  0  0  0  0  0  0  0
  1  2  1  0  0  0  0
  1  5  2  0  0  0  0
  2  6  2  0  0  0  0
  3  7  2  0  0  0  0
  3 12  1  0  0  0  0
  4  8  1  0  0  0  0
  4 12  2  0  0  0  0
  5 14  1  0  0  0  0
  6 15  1  0  0  0  0
  7 16  1  0  0  0  0
  8 16  2  0  0  0  0
  9 10  2  0  0  0  0
  9 13  1  0  0  0  0
 10 26  1  0  0  0  0
 11 13  2  0  0  0  0
 11 26  1  0  0  0  0
 12 18  1  0  0  0  0
 13 19  1  0  0  0  0
 14 15  2  0  0  0  0
 14 20  1  0  0  0  0
 15 22  1  0  0  0  0
 16 24  1  0  0  0  0
 17 23  1  0  0  0  0
 17 24  1  0  0  0  0
 17 25  2  0  0  0  0
 19 24  1  0  0  0  0
 20 21  2  0  0  0  0
 21 22  1  0  0  0  0
 22 23  1  0  0  0  0
  1 27  1  0  0  0  0
  2 28  1  0  0  0  0
  3 29  1  0  0  0  0
  4 30  1  0  0  0  0
  5 31  1  0  0  0  0
  6 32  1  0  0  0  0
  7 33  1  0  0  0  0
  8 34  1  0  0  0  0
  9 35  1  0  0  0  0
 10 36  1  0  0  0  0
 11 37  1  0  0  0  0
 18 38  1  0  0  0  0
 18 39  1  0  0  0  0
 18 40  1  0  0  0  0
 19 41  1  0  0  0  0
 19 42  1  0  0  0  0
 23 43  1  0  0  0  0
M  END
> <clash_score>
0

> <docking_score>
-9.367509841918945

> <overlap_score>
0.9457806348800659

$$$$
BENZO_8_1
  -OEChem-08222022373D

 55 59  0     0  0  0  0  0  0999 V2000
    4.0980    2.1130   19.5350 C   0  0  0  0  0  0  0  0  0  0  0  0
    4.2970    1.6690   20.8430 C   0  0  0  0  0  0  0  0  0  0  0  0
    4.9400    1.7060   18.5060 C   0  0  0  0  0  0  0  0  0  0  0  0
    5.3360    0.8000   21.1530 C   0  0  0  0  0  0  0  0  0  0  0  0
    8.3310   -2.7170   25.3430 C   0  0  0  0  0  0  0  0  0  0  0  0
   10.2570   -3.5000   24.1350 C   0  0  0  0  0  0  0  0  0  0  0  0
    8.3510   -1.5420   24.6110 C   0  0  0  0  0  0  0  0  0  0  0  0
   10.2760   -2.3270   23.4020 C   0  0  0  0  0  0  0  0  0  0  0  0
   12.2675    1.0332   22.3812 C   0  0  0  0  0  0  0  0  0  0  0  0
   13.6257    0.9906   22.6074 C   0  0  0  0  0  0  0  0  0  0  0  0
   12.3384    0.9467   24.7028 C   0  0  0  0  0  0  0  0  0  0  0  0
   11.5217    1.0079   23.5949 C   0  0  0  0  0  0  0  0  0  0  0  0
    5.9810    0.8330   18.8060 C   0  0  0  0  0  0  0  0  0  0  0  0
    6.1600    0.3870   20.1140 C   0  0  0  0  0  0  0  0  0  0  0  0
    9.2850   -3.7090   25.1090 C   0  0  0  0  0  0  0  0  0  0  0  0
    9.3300   -1.3350   23.6390 C   0  0  0  0  0  0  0  0  0  0  0  0
    8.9510    0.1280   21.6880 C   0  0  0  0  0  0  0  0  0  0  0  0
    7.3162   -6.8834   26.5210 C   0  0  0  0  0  0  0  0  0  0  0  0
    7.3507   -5.5245   27.2240 C   0  0  0  0  0  0  0  0  0  0  0  0
    7.9375   -6.8069   25.1245 C   0  0  0  0  0  0  0  0  0  0  0  0
    8.7638   -4.9418   27.2163 C   0  0  0  0  0  0  0  0  0  0  0  0
    9.3378   -6.1874   25.1659 C   0  0  0  0  0  0  0  0  0  0  0  0
   10.0220    1.0430   23.6570 C   0  0  0  0  0  0  0  0  0  0  0  0
    6.9440    0.2550   18.0100 N   0  0  0  0  0  0  0  0  0  0  0  0
    7.6830   -0.5170   18.7600 N   0  0  0  0  0  0  0  0  0  0  0  0
    7.2210   -0.4620   20.0350 N   0  0  0  0  0  0  0  0  0  0  0  0
    9.2639   -4.8860   25.8399 N   0  0  0  0  0  0  0  0  0  0  0  0
    8.0810   -0.9750   21.0820 N   0  0  0  0  0  0  0  0  0  0  0  0
    9.4200   -0.0840   22.9530 N   0  0  0  0  0  0  0  0  0  0  0  0
    9.1870    1.1500   21.0630 O   0  0  0  0  0  0  0  0  0  0  0  0
   13.9969    0.9202   24.2776 S   0  0  0  0  0  0  0  0  0  0  0  0
    3.2714    2.7876   19.3199 H   0  0  0  0  0  0  0  0  0  0  0  0
    3.6283    2.0091   21.6296 H   0  0  0  0  0  0  0  0  0  0  0  0
    4.7824    2.0670   17.4883 H   0  0  0  0  0  0  0  0  0  0  0  0
    5.4937    0.4574   22.1805 H   0  0  0  0  0  0  0  0  0  0  0  0
    7.5647   -2.8621   26.1053 H   0  0  0  0  0  0  0  0  0  0  0  0
   11.0144   -4.2642   23.9425 H   0  0  0  0  0  0  0  0  0  0  0  0
    7.5958   -0.7779   24.8006 H   0  0  0  0  0  0  0  0  0  0  0  0
   11.0406   -2.1848   22.6356 H   0  0  0  0  0  0  0  0  0  0  0  0
   11.8338    1.0798   21.3902 H   0  0  0  0  0  0  0  0  0  0  0  0
   14.4176    0.9966   21.8719 H   0  0  0  0  0  0  0  0  0  0  0  0
   12.0446    0.9149   25.7428 H   0  0  0  0  0  0  0  0  0  0  0  0
    7.8578   -7.6261   27.1266 H   0  0  0  0  0  0  0  0  0  0  0  0
    6.2773   -7.2358   26.4459 H   0  0  0  0  0  0  0  0  0  0  0  0
    6.6663   -4.8351   26.7223 H   0  0  0  0  0  0  0  0  0  0  0  0
    7.0044   -5.6368   28.2534 H   0  0  0  0  0  0  0  0  0  0  0  0
    7.9946   -7.8119   24.6937 H   0  0  0  0  0  0  0  0  0  0  0  0
    7.2929   -6.2123   24.4668 H   0  0  0  0  0  0  0  0  0  0  0  0
    8.7343   -3.9408   27.6542 H   0  0  0  0  0  0  0  0  0  0  0  0
    9.4243   -5.5632   27.8278 H   0  0  0  0  0  0  0  0  0  0  0  0
   10.0200   -6.8490   25.7011 H   0  0  0  0  0  0  0  0  0  0  0  0
    9.6984   -6.0694   24.1436 H   0  0  0  0  0  0  0  0  0  0  0  0
    9.6778    1.0140   24.6966 H   0  0  0  0  0  0  0  0  0  0  0  0
    9.6316    1.9637   23.2107 H   0  0  0  0  0  0  0  0  0  0  0  0
    8.1334   -1.7991   21.3673 H   0  0  0  0  0  0  0  0  0  0  0  0
  1  2  1  0  0  0  0
  1  3  2  0  0  0  0
  2  4  2  0  0  0  0
  3 13  1  0  0  0  0
  4 14  1  0  0  0  0
  5  7  2  0  0  0  0
  5 15  1  0  0  0  0
  6  8  1  0  0  0  0
  6 15  2  0  0  0  0
  7 16  1  0  0  0  0
  8 16  2  0  0  0  0
  9 10  2  0  0  0  0
  9 12  1  0  0  0  0
 10 31  1  0  0  0  0
 11 12  2  0  0  0  0
 11 31  1  0  0  0  0
 12 23  1  0  0  0  0
 13 14  2  0  0  0  0
 13 24  1  0  0  0  0
 14 26  1  0  0  0  0
 15 27  1  0  0  0  0
 16 29  1  0  0  0  0
 17 28  1  0  0  0  0
 17 29  1  0  0  0  0
 17 30  2  0  0  0  0
 18 19  1  0  0  0  0
 18 20  1  0  0  0  0
 19 21  1  0  0  0  0
 20 22  1  0  0  0  0
 21 27  1  0  0  0  0
 22 27  1  0  0  0  0
 23 29  1  0  0  0  0
 24 25  2  0  0  0  0
 25 26  1  0  0  0  0
 26 28  1  0  0  0  0
  1 32  1  0  0  0  0
  2 33  1  0  0  0  0
  3 34  1  0  0  0  0
  4 35  1  0  0  0  0
  5 36  1  0  0  0  0
  6 37  1  0  0  0  0
  7 38  1  0  0  0  0
  8 39  1  0  0  0  0
  9 40  1  0  0  0  0
 10 41  1  0  0  0  0
 11 42  1  0  0  0  0
 18 43  1  0  0  0  0
 18 44  1  0  0  0  0
 19 45  1  0  0  0  0
 19 46  1  0  0  0  0
 20 47  1  0  0  0  0
 20 48  1  0  0  0  0
 21 49  1  0  0  0  0
 21 50  1  0  0  0  0
 22 51  1  0  0  0  0
 22 52  1  0  0  0  0
 23 53  1  0  0  0  0
 23 54  1  0  0  0  0
 28 55  1  0  0  0  0
M  END
> <clash_score>
0

> <docking_score>
-8.409852981567383

> <overlap_score>
0.9899338483810425

$$$$
BENZO_15_1
  -OEChem-08222022373D

 46 49  0     0  0  0  0  0  0999 V2000
    4.0980    2.1130   19.5350 C   0  0  0  0  0  0  0  0  0  0  0  0
    4.2970    1.6690   20.8430 C   0  0  0  0  0  0  0  0  0  0  0  0
    8.3310   -2.7170   25.3430 C   0  0  0  0  0  0  0  0  0  0  0  0
   10.2570   -3.5000   24.1350 C   0  0  0  0  0  0  0  0  0  0  0  0
    4.9400    1.7060   18.5060 C   0  0  0  0  0  0  0  0  0  0  0  0
    5.3360    0.8000   21.1530 C   0  0  0  0  0  0  0  0  0  0  0  0
    8.3510   -1.5420   24.6110 C   0  0  0  0  0  0  0  0  0  0  0  0
   10.2760   -2.3270   23.4020 C   0  0  0  0  0  0  0  0  0  0  0  0
   12.4295    0.9466   24.6692 C   0  0  0  0  0  0  0  0  0  0  0  0
   12.3161    1.0259   22.4747 C   0  0  0  0  0  0  0  0  0  0  0  0
    9.2850   -3.7090   25.1090 C   0  0  0  0  0  0  0  0  0  0  0  0
   11.5217    1.0079   23.5949 C   0  0  0  0  0  0  0  0  0  0  0  0
    5.9810    0.8330   18.8060 C   0  0  0  0  0  0  0  0  0  0  0  0
    6.1600    0.3870   20.1140 C   0  0  0  0  0  0  0  0  0  0  0  0
    9.3300   -1.3350   23.6390 C   0  0  0  0  0  0  0  0  0  0  0  0
    8.9510    0.1280   21.6880 C   0  0  0  0  0  0  0  0  0  0  0  0
    9.2610   -4.9721   25.8916 C   0  0  0  0  0  0  0  0  0  0  0  0
   14.7958    0.9722   22.1181 C   0  0  0  0  0  0  0  0  0  0  0  0
   10.0220    1.0430   23.6570 C   0  0  0  0  0  0  0  0  0  0  0  0
   13.7032    0.9267   24.2674 N   0  0  0  0  0  0  0  0  0  0  0  0
    6.9440    0.2550   18.0100 N   0  0  0  0  0  0  0  0  0  0  0  0
    7.6830   -0.5170   18.7600 N   0  0  0  0  0  0  0  0  0  0  0  0
   13.6014    0.9758   22.9283 N   0  0  0  0  0  0  0  0  0  0  0  0
    7.2210   -0.4620   20.0350 N   0  0  0  0  0  0  0  0  0  0  0  0
    8.0810   -0.9750   21.0820 N   0  0  0  0  0  0  0  0  0  0  0  0
    9.4200   -0.0840   22.9530 N   0  0  0  0  0  0  0  0  0  0  0  0
    9.1870    1.1500   21.0630 O   0  0  0  0  0  0  0  0  0  0  0  0
    3.2714    2.7876   19.3199 H   0  0  0  0  0  0  0  0  0  0  0  0
    3.6283    2.0091   21.6296 H   0  0  0  0  0  0  0  0  0  0  0  0
    7.5665   -2.8638   26.1066 H   0  0  0  0  0  0  0  0  0  0  0  0
   11.0137   -4.2652   23.9447 H   0  0  0  0  0  0  0  0  0  0  0  0
    4.7824    2.0670   17.4883 H   0  0  0  0  0  0  0  0  0  0  0  0
    5.4937    0.4574   22.1805 H   0  0  0  0  0  0  0  0  0  0  0  0
    7.5948   -0.7788   24.7997 H   0  0  0  0  0  0  0  0  0  0  0  0
   11.0411   -2.1856   22.6358 H   0  0  0  0  0  0  0  0  0  0  0  0
   12.2184    0.9145   25.7287 H   0  0  0  0  0  0  0  0  0  0  0  0
   12.0821    1.0677   21.4195 H   0  0  0  0  0  0  0  0  0  0  0  0
    8.6398   -5.7223   25.3871 H   0  0  0  0  0  0  0  0  0  0  0  0
   10.2715   -5.3829   26.0145 H   0  0  0  0  0  0  0  0  0  0  0  0
    8.8596   -4.8092   26.9004 H   0  0  0  0  0  0  0  0  0  0  0  0
   15.1026    2.0102   21.9649 H   0  0  0  0  0  0  0  0  0  0  0  0
   15.5826    0.4128   22.6318 H   0  0  0  0  0  0  0  0  0  0  0  0
   14.5811    0.4906   21.1600 H   0  0  0  0  0  0  0  0  0  0  0  0
    9.6778    1.0140   24.6966 H   0  0  0  0  0  0  0  0  0  0  0  0
    9.6316    1.9637   23.2107 H   0  0  0  0  0  0  0  0  0  0  0  0
    8.1044   -1.8183   21.3422 H   0  0  0  0  0  0  0  0  0  0  0  0
  1  2  1  0  0  0  0
  1  5  2  0  0  0  0
  2  6  2  0  0  0  0
  3  7  2  0  0  0  0
  3 11  1  0  0  0  0
  4  8  1  0  0  0  0
  4 11  2  0  0  0  0
  5 13  1  0  0  0  0
  6 14  1  0  0  0  0
  7 15  1  0  0  0  0
  8 15  2  0  0  0  0
  9 12  1  0  0  0  0
  9 20  2  0  0  0  0
 10 12  2  0  0  0  0
 10 23  1  0  0  0  0
 11 17  1  0  0  0  0
 12 19  1  0  0  0  0
 13 14  2  0  0  0  0
 13 21  1  0  0  0  0
 14 24  1  0  0  0  0
 15 26  1  0  0  0  0
 16 25  1  0  0  0  0
 16 26  1  0  0  0  0
 16 27  2  0  0  0  0
 18 23  1  0  0  0  0
 19 26  1  0  0  0  0
 20 23  1  0  0  0  0
 21 22  2  0  0  0  0
 22 24  1  0  0  0  0
 24 25  1  0  0  0  0
  1 28  1  0  0  0  0
  2 29  1  0  0  0  0
  3 30  1  0  0  0  0
  4 31  1  0  0  0  0
  5 32  1  0  0  0  0
  6 33  1  0  0  0  0
  7 34  1  0  0  0  0
  8 35  1  0  0  0  0
  9 36  1  0  0  0  0
 10 37  1  0  0  0  0
 17 38  1  0  0  0  0
 17 39  1  0  0  0  0
 17 40  1  0  0  0  0
 18 41  1  0  0  0  0
 18 42  1  0  0  0  0
 18 43  1  0  0  0  0
 19 44  1  0  0  0  0
 19 45  1  0  0  0  0
 25 46  1  0  0  0  0
M  END
> <clash_score>
0

> <docking_score>
-9.063368797302246

> <overlap_score>
0.9625561237335205

$$$$
BENZO_14_1
  -OEChem-08222022373D

 46 49  0     0  0  0  0  0  0999 V2000
    4.0980    2.1130   19.5350 C   0  0  0  0  0  0  0  0  0  0  0  0
    4.2970    1.6690   20.8430 C   0  0  0  0  0  0  0  0  0  0  0  0
   13.5977    1.8457   22.6865 C   0  0  0  0  0  0  0  0  0  0  0  0
   12.2044    1.8769   22.7438 C   0  0  0  0  0  0  0  0  0  0  0  0
    8.3310   -2.7170   25.3430 C   0  0  0  0  0  0  0  0  0  0  0  0
   10.2570   -3.5000   24.1350 C   0  0  0  0  0  0  0  0  0  0  0  0
    4.9400    1.7060   18.5060 C   0  0  0  0  0  0  0  0  0  0  0  0
    5.3360    0.8000   21.1530 C   0  0  0  0  0  0  0  0  0  0  0  0
    8.3510   -1.5420   24.6110 C   0  0  0  0  0  0  0  0  0  0  0  0
   10.2760   -2.3270   23.4020 C   0  0  0  0  0  0  0  0  0  0  0  0
   14.3084    0.9454   23.4803 C   0  0  0  0  0  0  0  0  0  0  0  0
   12.2323    0.1076   24.3888 C   0  0  0  0  0  0  0  0  0  0  0  0
    9.2850   -3.7090   25.1090 C   0  0  0  0  0  0  0  0  0  0  0  0
   11.5217    1.0079   23.5949 C   0  0  0  0  0  0  0  0  0  0  0  0
    5.9810    0.8330   18.8060 C   0  0  0  0  0  0  0  0  0  0  0  0
    6.1600    0.3870   20.1140 C   0  0  0  0  0  0  0  0  0  0  0  0
    9.3300   -1.3350   23.6390 C   0  0  0  0  0  0  0  0  0  0  0  0
   13.6257    0.0764   24.3314 C   0  0  0  0  0  0  0  0  0  0  0  0
    8.9510    0.1280   21.6880 C   0  0  0  0  0  0  0  0  0  0  0  0
    9.2610   -4.9721   25.8916 C   0  0  0  0  0  0  0  0  0  0  0  0
   10.0220    1.0430   23.6570 C   0  0  0  0  0  0  0  0  0  0  0  0
    6.9440    0.2550   18.0100 N   0  0  0  0  0  0  0  0  0  0  0  0
    7.6830   -0.5170   18.7600 N   0  0  0  0  0  0  0  0  0  0  0  0
    7.2210   -0.4620   20.0350 N   0  0  0  0  0  0  0  0  0  0  0  0
    8.0810   -0.9750   21.0820 N   0  0  0  0  0  0  0  0  0  0  0  0
    9.4200   -0.0840   22.9530 N   0  0  0  0  0  0  0  0  0  0  0  0
    9.1870    1.1500   21.0630 O   0  0  0  0  0  0  0  0  0  0  0  0
   14.5031   -1.0334   25.3114 Cl  0  0  0  0  0  0  0  0  0  0  0  0
    3.2714    2.7876   19.3199 H   0  0  0  0  0  0  0  0  0  0  0  0
    3.6283    2.0091   21.6296 H   0  0  0  0  0  0  0  0  0  0  0  0
   14.1289    2.5227   22.0237 H   0  0  0  0  0  0  0  0  0  0  0  0
   11.6588    2.5818   22.1218 H   0  0  0  0  0  0  0  0  0  0  0  0
    7.5665   -2.8638   26.1066 H   0  0  0  0  0  0  0  0  0  0  0  0
   11.0137   -4.2652   23.9447 H   0  0  0  0  0  0  0  0  0  0  0  0
    4.7824    2.0670   17.4883 H   0  0  0  0  0  0  0  0  0  0  0  0
    5.4937    0.4574   22.1805 H   0  0  0  0  0  0  0  0  0  0  0  0
    7.5948   -0.7788   24.7997 H   0  0  0  0  0  0  0  0  0  0  0  0
   11.0411   -2.1856   22.6358 H   0  0  0  0  0  0  0  0  0  0  0  0
   15.3941    0.9323   23.4255 H   0  0  0  0  0  0  0  0  0  0  0  0
   11.6954   -0.5682   25.0504 H   0  0  0  0  0  0  0  0  0  0  0  0
    8.6398   -5.7223   25.3871 H   0  0  0  0  0  0  0  0  0  0  0  0
   10.2715   -5.3829   26.0145 H   0  0  0  0  0  0  0  0  0  0  0  0
    8.8596   -4.8092   26.9004 H   0  0  0  0  0  0  0  0  0  0  0  0
    9.6778    1.0140   24.6966 H   0  0  0  0  0  0  0  0  0  0  0  0
    9.6316    1.9637   23.2107 H   0  0  0  0  0  0  0  0  0  0  0  0
    8.1044   -1.8183   21.3422 H   0  0  0  0  0  0  0  0  0  0  0  0
  1  2  1  0  0  0  0
  1  7  2  0  0  0  0
  2  8  2  0  0  0  0
  3  4  2  0  0  0  0
  3 11  1  0  0  0  0
  4 14  1  0  0  0  0
  5  9  2  0  0  0  0
  5 13  1  0  0  0  0
  6 10  1  0  0  0  0
  6 13  2  0  0  0  0
  7 15  1  0  0  0  0
  8 16  1  0  0  0  0
  9 17  1  0  0  0  0
 10 17  2  0  0  0  0
 11 18  2  0  0  0  0
 12 14  2  0  0  0  0
 12 18  1  0  0  0  0
 13 20  1  0  0  0  0
 14 21  1  0  0  0  0
 15 16  2  0  0  0  0
 15 22  1  0  0  0  0
 16 24  1  0  0  0  0
 17 26  1  0  0  0  0
 18 28  1  0  0  0  0
 19 25  1  0  0  0  0
 19 26  1  0  0  0  0
 19 27  2  0  0  0  0
 21 26  1  0  0  0  0
 22 23  2  0  0  0  0
 23 24  1  0  0  0  0
 24 25  1  0  0  0  0
  1 29  1  0  0  0  0
  2 30  1  0  0  0  0
  3 31  1  0  0  0  0
  4 32  1  0  0  0  0
  5 33  1  0  0  0  0
  6 34  1  0  0  0  0
  7 35  1  0  0  0  0
  8 36  1  0  0  0  0
  9 37  1  0  0  0  0
 10 38  1  0  0  0  0
 11 39  1  0  0  0  0
 12 40  1  0  0  0  0
 20 41  1  0  0  0  0
 20 42  1  0  0  0  0
 20 43  1  0  0  0  0
 21 44  1  0  0  0  0
 21 45  1  0  0  0  0
 25 46  1  0  0  0  0
M  END
> <clash_score>
0.7662441439728657

> <docking_score>
-8.303211212158203

> <overlap_score>
0.9770406484603882

$$$$
BENZO_11_1
  -OEChem-08222022373D

 58 62  0     0  0  0  0  0  0999 V2000
    4.0980    2.1130   19.5350 C   0  0  0  0  0  0  0  0  0  0  0  0
    4.2970    1.6690   20.8430 C   0  0  0  0  0  0  0  0  0  0  0  0
    4.9400    1.7060   18.5060 C   0  0  0  0  0  0  0  0  0  0  0  0
    5.3360    0.8000   21.1530 C   0  0  0  0  0  0  0  0  0  0  0  0
    8.3310   -2.7170   25.3430 C   0  0  0  0  0  0  0  0  0  0  0  0
   10.2570   -3.5000   24.1350 C   0  0  0  0  0  0  0  0  0  0  0  0
    8.3510   -1.5420   24.6110 C   0  0  0  0  0  0  0  0  0  0  0  0
   10.2760   -2.3270   23.4020 C   0  0  0  0  0  0  0  0  0  0  0  0
   12.4359    1.7439   24.3724 C   0  0  0  0  0  0  0  0  0  0  0  0
   12.3100    0.2469   22.7668 C   0  0  0  0  0  0  0  0  0  0  0  0
   11.5217    1.0079   23.5949 C   0  0  0  0  0  0  0  0  0  0  0  0
    5.9810    0.8330   18.8060 C   0  0  0  0  0  0  0  0  0  0  0  0
    6.1600    0.3870   20.1140 C   0  0  0  0  0  0  0  0  0  0  0  0
    9.2850   -3.7090   25.1090 C   0  0  0  0  0  0  0  0  0  0  0  0
    9.3300   -1.3350   23.6390 C   0  0  0  0  0  0  0  0  0  0  0  0
    8.9510    0.1280   21.6880 C   0  0  0  0  0  0  0  0  0  0  0  0
    7.3162   -6.8834   26.5210 C   0  0  0  0  0  0  0  0  0  0  0  0
    7.3507   -5.5245   27.2240 C   0  0  0  0  0  0  0  0  0  0  0  0
    7.9375   -6.8069   25.1245 C   0  0  0  0  0  0  0  0  0  0  0  0
    8.7638   -4.9418   27.2163 C   0  0  0  0  0  0  0  0  0  0  0  0
    9.3378   -6.1874   25.1659 C   0  0  0  0  0  0  0  0  0  0  0  0
   14.7884    0.0124   22.4815 C   0  0  0  0  0  0  0  0  0  0  0  0
   10.0220    1.0430   23.6570 C   0  0  0  0  0  0  0  0  0  0  0  0
   13.7076    1.4745   24.0657 N   0  0  0  0  0  0  0  0  0  0  0  0
    6.9440    0.2550   18.0100 N   0  0  0  0  0  0  0  0  0  0  0  0
    7.6830   -0.5170   18.7600 N   0  0  0  0  0  0  0  0  0  0  0  0
   13.5982    0.5607   23.0864 N   0  0  0  0  0  0  0  0  0  0  0  0
    7.2210   -0.4620   20.0350 N   0  0  0  0  0  0  0  0  0  0  0  0
    9.2639   -4.8860   25.8399 N   0  0  0  0  0  0  0  0  0  0  0  0
    8.0810   -0.9750   21.0820 N   0  0  0  0  0  0  0  0  0  0  0  0
    9.4200   -0.0840   22.9530 N   0  0  0  0  0  0  0  0  0  0  0  0
    9.1870    1.1500   21.0630 O   0  0  0  0  0  0  0  0  0  0  0  0
    3.2714    2.7876   19.3199 H   0  0  0  0  0  0  0  0  0  0  0  0
    3.6283    2.0091   21.6296 H   0  0  0  0  0  0  0  0  0  0  0  0
    4.7824    2.0670   17.4883 H   0  0  0  0  0  0  0  0  0  0  0  0
    5.4937    0.4574   22.1805 H   0  0  0  0  0  0  0  0  0  0  0  0
    7.5647   -2.8621   26.1053 H   0  0  0  0  0  0  0  0  0  0  0  0
   11.0144   -4.2642   23.9425 H   0  0  0  0  0  0  0  0  0  0  0  0
    7.5958   -0.7779   24.8006 H   0  0  0  0  0  0  0  0  0  0  0  0
   11.0406   -2.1848   22.6356 H   0  0  0  0  0  0  0  0  0  0  0  0
   12.2308    2.4652   25.1508 H   0  0  0  0  0  0  0  0  0  0  0  0
   12.0700   -0.4744   21.9974 H   0  0  0  0  0  0  0  0  0  0  0  0
    7.8578   -7.6261   27.1266 H   0  0  0  0  0  0  0  0  0  0  0  0
    6.2773   -7.2358   26.4459 H   0  0  0  0  0  0  0  0  0  0  0  0
    6.6663   -4.8351   26.7223 H   0  0  0  0  0  0  0  0  0  0  0  0
    7.0044   -5.6368   28.2534 H   0  0  0  0  0  0  0  0  0  0  0  0
    7.9946   -7.8119   24.6937 H   0  0  0  0  0  0  0  0  0  0  0  0
    7.2929   -6.2123   24.4668 H   0  0  0  0  0  0  0  0  0  0  0  0
    8.7343   -3.9408   27.6542 H   0  0  0  0  0  0  0  0  0  0  0  0
    9.4243   -5.5632   27.8278 H   0  0  0  0  0  0  0  0  0  0  0  0
   10.0200   -6.8490   25.7011 H   0  0  0  0  0  0  0  0  0  0  0  0
    9.6984   -6.0694   24.1436 H   0  0  0  0  0  0  0  0  0  0  0  0
   15.0569    0.6453   21.6315 H   0  0  0  0  0  0  0  0  0  0  0  0
   15.5971   -0.0026   23.2174 H   0  0  0  0  0  0  0  0  0  0  0  0
   14.5870   -1.0100   22.1498 H   0  0  0  0  0  0  0  0  0  0  0  0
    9.6778    1.0140   24.6966 H   0  0  0  0  0  0  0  0  0  0  0  0
    9.6316    1.9637   23.2107 H   0  0  0  0  0  0  0  0  0  0  0  0
    8.1334   -1.7991   21.3673 H   0  0  0  0  0  0  0  0  0  0  0  0
  1  2  1  0  0  0  0
  1  3  2  0  0  0  0
  2  4  2  0  0  0  0
  3 12  1  0  0  0  0
  4 13  1  0  0  0  0
  5  7  2  0  0  0  0
  5 14  1  0  0  0  0
  6  8  1  0  0  0  0
  6 14  2  0  0  0  0
  7 15  1  0  0  0  0
  8 15  2  0  0  0  0
  9 11  1  0  0  0  0
  9 24  2  0  0  0  0
 10 11  2  0  0  0  0
 10 27  1  0  0  0  0
 11 23  1  0  0  0  0
 12 13  2  0  0  0  0
 12 25  1  0  0  0  0
 13 28  1  0  0  0  0
 14 29  1  0  0  0  0
 15 31  1  0  0  0  0
 16 30  1  0  0  0  0
 16 31  1  0  0  0  0
 16 32  2  0  0  0  0
 17 18  1  0  0  0  0
 17 19  1  0  0  0  0
 18 20  1  0  0  0  0
 19 21  1  0  0  0  0
 20 29  1  0  0  0  0
 21 29  1  0  0  0  0
 22 27  1  0  0  0  0
 23 31  1  0  0  0  0
 24 27  1  0  0  0  0
 25 26  2  0  0  0  0
 26 28  1  0  0  0  0
 28 30  1  0  0  0  0
  1 33  1  0  0  0  0
  2 34  1  0  0  0  0
  3 35  1  0  0  0  0
  4 36  1  0  0  0  0
  5 37  1  0  0  0  0
  6 38  1  0  0  0  0
  7 39  1  0  0  0  0
  8 40  1  0  0  0  0
  9 41  1  0  0  0  0
 10 42  1  0  0  0  0
 17 43  1  0  0  0  0
 17 44  1  0  0  0  0
 18 45  1  0  0  0  0
 18 46  1  0  0  0  0
 19 47  1  0  0  0  0
 19 48  1  0  0  0  0
 20 49  1  0  0  0  0
 20 50  1  0  0  0  0
 21 51  1  0  0  0  0
 21 52  1  0  0  0  0
 22 53  1  0  0  0  0
 22 54  1  0  0  0  0
 22 55  1  0  0  0  0
 23 56  1  0  0  0  0
 23 57  1  0  0  0  0
 30 58  1  0  0  0  0
M  END
> <clash_score>
0

> <docking_score>
-8.378257751464844

> <overlap_score>
1.0017565488815308

$$$$
BENZO_10_1
  -OEChem-08222022373D

 58 62  0     0  0  0  0  0  0999 V2000
    4.0980    2.1130   19.5350 C   0  0  0  0  0  0  0  0  0  0  0  0
    4.2970    1.6690   20.8430 C   0  0  0  0  0  0  0  0  0  0  0  0
   13.6668    1.7807   24.3938 C   0  0  0  0  0  0  0  0  0  0  0  0
   12.2735    1.8136   24.4501 C   0  0  0  0  0  0  0  0  0  0  0  0
    4.9400    1.7060   18.5060 C   0  0  0  0  0  0  0  0  0  0  0  0
    5.3360    0.8000   21.1530 C   0  0  0  0  0  0  0  0  0  0  0  0
    8.3310   -2.7170   25.3430 C   0  0  0  0  0  0  0  0  0  0  0  0
   10.2570   -3.5000   24.1350 C   0  0  0  0  0  0  0  0  0  0  0  0
    8.3510   -1.5420   24.6110 C   0  0  0  0  0  0  0  0  0  0  0  0
   10.2760   -2.3270   23.4020 C   0  0  0  0  0  0  0  0  0  0  0  0
   14.3084    0.9422   23.4822 C   0  0  0  0  0  0  0  0  0  0  0  0
   12.1632    0.1693   22.6834 C   0  0  0  0  0  0  0  0  0  0  0  0
   11.5217    1.0079   23.5949 C   0  0  0  0  0  0  0  0  0  0  0  0
    5.9810    0.8330   18.8060 C   0  0  0  0  0  0  0  0  0  0  0  0
    6.1600    0.3870   20.1140 C   0  0  0  0  0  0  0  0  0  0  0  0
    9.2850   -3.7090   25.1090 C   0  0  0  0  0  0  0  0  0  0  0  0
    9.3300   -1.3350   23.6390 C   0  0  0  0  0  0  0  0  0  0  0  0
   13.5566    0.1365   22.6270 C   0  0  0  0  0  0  0  0  0  0  0  0
    8.9510    0.1280   21.6880 C   0  0  0  0  0  0  0  0  0  0  0  0
    7.3162   -6.8834   26.5210 C   0  0  0  0  0  0  0  0  0  0  0  0
    7.3507   -5.5245   27.2240 C   0  0  0  0  0  0  0  0  0  0  0  0
    7.9375   -6.8069   25.1245 C   0  0  0  0  0  0  0  0  0  0  0  0
    8.7638   -4.9418   27.2163 C   0  0  0  0  0  0  0  0  0  0  0  0
    9.3378   -6.1874   25.1659 C   0  0  0  0  0  0  0  0  0  0  0  0
   10.0220    1.0430   23.6570 C   0  0  0  0  0  0  0  0  0  0  0  0
    6.9440    0.2550   18.0100 N   0  0  0  0  0  0  0  0  0  0  0  0
    7.6830   -0.5170   18.7600 N   0  0  0  0  0  0  0  0  0  0  0  0
    7.2210   -0.4620   20.0350 N   0  0  0  0  0  0  0  0  0  0  0  0
    9.2639   -4.8860   25.8399 N   0  0  0  0  0  0  0  0  0  0  0  0
    8.0810   -0.9750   21.0820 N   0  0  0  0  0  0  0  0  0  0  0  0
    9.4200   -0.0840   22.9530 N   0  0  0  0  0  0  0  0  0  0  0  0
    9.1870    1.1500   21.0630 O   0  0  0  0  0  0  0  0  0  0  0  0
   14.3487   -0.8988   21.5034 Cl  0  0  0  0  0  0  0  0  0  0  0  0
    3.2714    2.7876   19.3199 H   0  0  0  0  0  0  0  0  0  0  0  0
    3.6283    2.0091   21.6296 H   0  0  0  0  0  0  0  0  0  0  0  0
   14.2519    2.4082   25.0600 H   0  0  0  0  0  0  0  0  0  0  0  0
   11.7821    2.4700   25.1636 H   0  0  0  0  0  0  0  0  0  0  0  0
    4.7824    2.0670   17.4883 H   0  0  0  0  0  0  0  0  0  0  0  0
    5.4937    0.4574   22.1805 H   0  0  0  0  0  0  0  0  0  0  0  0
    7.5647   -2.8621   26.1053 H   0  0  0  0  0  0  0  0  0  0  0  0
   11.0144   -4.2642   23.9425 H   0  0  0  0  0  0  0  0  0  0  0  0
    7.5958   -0.7779   24.8006 H   0  0  0  0  0  0  0  0  0  0  0  0
   11.0406   -2.1848   22.6356 H   0  0  0  0  0  0  0  0  0  0  0  0
   15.3950    0.9267   23.4496 H   0  0  0  0  0  0  0  0  0  0  0  0
   11.5726   -0.4565   22.0184 H   0  0  0  0  0  0  0  0  0  0  0  0
    7.8578   -7.6261   27.1266 H   0  0  0  0  0  0  0  0  0  0  0  0
    6.2773   -7.2358   26.4459 H   0  0  0  0  0  0  0  0  0  0  0  0
    6.6663   -4.8351   26.7223 H   0  0  0  0  0  0  0  0  0  0  0  0
    7.0044   -5.6368   28.2534 H   0  0  0  0  0  0  0  0  0  0  0  0
    7.9946   -7.8119   24.6937 H   0  0  0  0  0  0  0  0  0  0  0  0
    7.2929   -6.2123   24.4668 H   0  0  0  0  0  0  0  0  0  0  0  0
    8.7343   -3.9408   27.6542 H   0  0  0  0  0  0  0  0  0  0  0  0
    9.4243   -5.5632   27.8278 H   0  0  0  0  0  0  0  0  0  0  0  0
   10.0200   -6.8490   25.7011 H   0  0  0  0  0  0  0  0  0  0  0  0
    9.6984   -6.0694   24.1436 H   0  0  0  0  0  0  0  0  0  0  0  0
    9.6778    1.0140   24.6966 H   0  0  0  0  0  0  0  0  0  0  0  0
    9.6316    1.9637   23.2107 H   0  0  0  0  0  0  0  0  0  0  0  0
    8.1334   -1.7991   21.3673 H   0  0  0  0  0  0  0  0  0  0  0  0
  1  2  1  0  0  0  0
  1  5  2  0  0  0  0
  2  6  2  0  0  0  0
  3  4  2  0  0  0  0
  3 11  1  0  0  0  0
  4 13  1  0  0  0  0
  5 14  1  0  0  0  0
  6 15  1  0  0  0  0
  7  9  2  0  0  0  0
  7 16  1  0  0  0  0
  8 10  1  0  0  0  0
  8 16  2  0  0  0  0
  9 17  1  0  0  0  0
 10 17  2  0  0  0  0
 11 18  2  0  0  0  0
 12 13  2  0  0  0  0
 12 18  1  0  0  0  0
 13 25  1  0  0  0  0
 14 15  2  0  0  0  0
 14 26  1  0  0  0  0
 15 28  1  0  0  0  0
 16 29  1  0  0  0  0
 17 31  1  0  0  0  0
 18 33  1  0  0  0  0
 19 30  1  0  0  0  0
 19 31  1  0  0  0  0
 19 32  2  0  0  0  0
 20 21  1  0  0  0  0
 20 22  1  0  0  0  0
 21 23  1  0  0  0  0
 22 24  1  0  0  0  0
 23 29  1  0  0  0  0
 24 29  1  0  0  0  0
 25 31  1  0  0  0  0
 26 27  2  0  0  0  0
 27 28  1  0  0  0  0
 28 30  1  0  0  0  0
  1 34  1  0  0  0  0
  2 35  1  0  0  0  0
  3 36  1  0  0  0  0
  4 37  1  0  0  0  0
  5 38  1  0  0  0  0
  6 39  1  0  0  0  0
  7 40  1  0  0  0  0
  8 41  1  0  0  0  0
  9 42  1  0  0  0  0
 10 43  1  0  0  0  0
 11 44  1  0  0  0  0
 12 45  1  0  0  0  0
 20 46  1  0  0  0  0
 20 47  1  0  0  0  0
 21 48  1  0  0  0  0
 21 49  1  0  0  0  0
 22 50  1  0  0  0  0
 22 51  1  0  0  0  0
 23 52  1  0  0  0  0
 23 53  1  0  0  0  0
 24 54  1  0  0  0  0
 24 55  1  0  0  0  0
 25 56  1  0  0  0  0
 25 57  1  0  0  0  0
 30 58  1  0  0  0  0
M  END
> <clash_score>
0

> <docking_score>
-7.4145660400390625

> <overlap_score>
0.9966533184051514

$$$$
BENZO_17_1
  -OEChem-08222022383D

 47 50  0     0  0  0  0  0  0999 V2000
   14.3082    0.9431   23.4783 C   0  0  0  0  0  0  0  0  0  0  0  0
   13.6391    0.3091   24.5251 C   0  0  0  0  0  0  0  0  0  0  0  0
   13.5841    1.6096   22.4898 C   0  0  0  0  0  0  0  0  0  0  0  0
    4.0980    2.1130   19.5350 C   0  0  0  0  0  0  0  0  0  0  0  0
    4.2970    1.6690   20.8430 C   0  0  0  0  0  0  0  0  0  0  0  0
   12.2459    0.3415   24.5835 C   0  0  0  0  0  0  0  0  0  0  0  0
   12.1908    1.6420   22.5481 C   0  0  0  0  0  0  0  0  0  0  0  0
    4.9400    1.7060   18.5060 C   0  0  0  0  0  0  0  0  0  0  0  0
    5.3360    0.8000   21.1530 C   0  0  0  0  0  0  0  0  0  0  0  0
    8.3510   -1.5420   24.6110 C   0  0  0  0  0  0  0  0  0  0  0  0
   10.2760   -2.3270   23.4020 C   0  0  0  0  0  0  0  0  0  0  0  0
    8.3310   -2.7170   25.3430 C   0  0  0  0  0  0  0  0  0  0  0  0
   10.2570   -3.5000   24.1350 C   0  0  0  0  0  0  0  0  0  0  0  0
   11.5217    1.0079   23.5949 C   0  0  0  0  0  0  0  0  0  0  0  0
    5.9810    0.8330   18.8060 C   0  0  0  0  0  0  0  0  0  0  0  0
    6.1600    0.3870   20.1140 C   0  0  0  0  0  0  0  0  0  0  0  0
    9.3300   -1.3350   23.6390 C   0  0  0  0  0  0  0  0  0  0  0  0
    9.2850   -3.7090   25.1090 C   0  0  0  0  0  0  0  0  0  0  0  0
    8.9510    0.1280   21.6880 C   0  0  0  0  0  0  0  0  0  0  0  0
    8.2346   -4.9976   26.8023 C   0  0  0  0  0  0  0  0  0  0  0  0
   10.0220    1.0430   23.6570 C   0  0  0  0  0  0  0  0  0  0  0  0
    6.9440    0.2550   18.0100 N   0  0  0  0  0  0  0  0  0  0  0  0
    7.6830   -0.5170   18.7600 N   0  0  0  0  0  0  0  0  0  0  0  0
    7.2210   -0.4620   20.0350 N   0  0  0  0  0  0  0  0  0  0  0  0
    8.0810   -0.9750   21.0820 N   0  0  0  0  0  0  0  0  0  0  0  0
    9.4200   -0.0840   22.9530 N   0  0  0  0  0  0  0  0  0  0  0  0
    9.1870    1.1500   21.0630 O   0  0  0  0  0  0  0  0  0  0  0  0
    9.2631   -4.8614   25.8229 O   0  0  0  0  0  0  0  0  0  0  0  0
   15.3932    0.9189   23.4337 H   0  0  0  0  0  0  0  0  0  0  0  0
   14.2029   -0.2090   25.2955 H   0  0  0  0  0  0  0  0  0  0  0  0
   14.1048    2.1043   21.6752 H   0  0  0  0  0  0  0  0  0  0  0  0
    3.2714    2.7876   19.3199 H   0  0  0  0  0  0  0  0  0  0  0  0
    3.6283    2.0091   21.6296 H   0  0  0  0  0  0  0  0  0  0  0  0
   11.7330   -0.1555   25.4027 H   0  0  0  0  0  0  0  0  0  0  0  0
   11.6349    2.1636   21.7735 H   0  0  0  0  0  0  0  0  0  0  0  0
    4.7824    2.0670   17.4883 H   0  0  0  0  0  0  0  0  0  0  0  0
    5.4937    0.4574   22.1805 H   0  0  0  0  0  0  0  0  0  0  0  0
    7.5951   -0.7786   24.8000 H   0  0  0  0  0  0  0  0  0  0  0  0
   11.0406   -2.1866   22.6351 H   0  0  0  0  0  0  0  0  0  0  0  0
    7.5664   -2.8674   26.1055 H   0  0  0  0  0  0  0  0  0  0  0  0
   11.0119   -4.2671   23.9461 H   0  0  0  0  0  0  0  0  0  0  0  0
    8.3309   -5.9652   27.3009 H   0  0  0  0  0  0  0  0  0  0  0  0
    7.2574   -4.9205   26.3189 H   0  0  0  0  0  0  0  0  0  0  0  0
    8.3380   -4.1983   27.5400 H   0  0  0  0  0  0  0  0  0  0  0  0
    9.6778    1.0140   24.6966 H   0  0  0  0  0  0  0  0  0  0  0  0
    9.6316    1.9637   23.2107 H   0  0  0  0  0  0  0  0  0  0  0  0
    8.1044   -1.8183   21.3422 H   0  0  0  0  0  0  0  0  0  0  0  0
  1  2  1  0  0  0  0
  1  3  2  0  0  0  0
  2  6  2  0  0  0  0
  3  7  1  0  0  0  0
  4  5  1  0  0  0  0
  4  8  2  0  0  0  0
  5  9  2  0  0  0  0
  6 14  1  0  0  0  0
  7 14  2  0  0  0  0
  8 15  1  0  0  0  0
  9 16  1  0  0  0  0
 10 12  2  0  0  0  0
 10 17  1  0  0  0  0
 11 13  1  0  0  0  0
 11 17  2  0  0  0  0
 12 18  1  0  0  0  0
 13 18  2  0  0  0  0
 14 21  1  0  0  0  0
 15 16  2  0  0  0  0
 15 22  1  0  0  0  0
 16 24  1  0  0  0  0
 17 26  1  0  0  0  0
 18 28  1  0  0  0  0
 19 25  1  0  0  0  0
 19 26  1  0  0  0  0
 19 27  2  0  0  0  0
 20 28  1  0  0  0  0
 21 26  1  0  0  0  0
 22 23  2  0  0  0  0
 23 24  1  0  0  0  0
 24 25  1  0  0  0  0
  1 29  1  0  0  0  0
  2 30  1  0  0  0  0
  3 31  1  0  0  0  0
  4 32  1  0  0  0  0
  5 33  1  0  0  0  0
  6 34  1  0  0  0  0
  7 35  1  0  0  0  0
  8 36  1  0  0  0  0
  9 37  1  0  0  0  0
 10 38  1  0  0  0  0
 11 39  1  0  0  0  0
 12 40  1  0  0  0  0
 13 41  1  0  0  0  0
 20 42  1  0  0  0  0
 20 43  1  0  0  0  0
 20 44  1  0  0  0  0
 21 45  1  0  0  0  0
 21 46  1  0  0  0  0
 25 47  1  0  0  0  0
M  END
> <clash_score>
0

> <docking_score>
-8.830334663391113

> <overlap_score>
0.9956544637680054

$$$$
BENZO_16_1
  -OEChem-08222022383D

 44 47  0     0  0  0  0  0  0999 V2000
    4.0980    2.1130   19.5350 C   0  0  0  0  0  0  0  0  0  0  0  0
    4.2970    1.6690   20.8430 C   0  0  0  0  0  0  0  0  0  0  0  0
    4.9400    1.7060   18.5060 C   0  0  0  0  0  0  0  0  0  0  0  0
    5.3360    0.8000   21.1530 C   0  0  0  0  0  0  0  0  0  0  0  0
    8.3510   -1.5420   24.6110 C   0  0  0  0  0  0  0  0  0  0  0  0
   10.2760   -2.3270   23.4020 C   0  0  0  0  0  0  0  0  0  0  0  0
    8.3310   -2.7170   25.3430 C   0  0  0  0  0  0  0  0  0  0  0  0
   10.2570   -3.5000   24.1350 C   0  0  0  0  0  0  0  0  0  0  0  0
   12.2675    1.0332   22.3812 C   0  0  0  0  0  0  0  0  0  0  0  0
   13.6257    0.9906   22.6074 C   0  0  0  0  0  0  0  0  0  0  0  0
   12.3384    0.9467   24.7028 C   0  0  0  0  0  0  0  0  0  0  0  0
   11.5217    1.0079   23.5949 C   0  0  0  0  0  0  0  0  0  0  0  0
    5.9810    0.8330   18.8060 C   0  0  0  0  0  0  0  0  0  0  0  0
    6.1600    0.3870   20.1140 C   0  0  0  0  0  0  0  0  0  0  0  0
    9.3300   -1.3350   23.6390 C   0  0  0  0  0  0  0  0  0  0  0  0
    9.2850   -3.7090   25.1090 C   0  0  0  0  0  0  0  0  0  0  0  0
    8.9510    0.1280   21.6880 C   0  0  0  0  0  0  0  0  0  0  0  0
    8.2346   -4.9976   26.8023 C   0  0  0  0  0  0  0  0  0  0  0  0
   10.0220    1.0430   23.6570 C   0  0  0  0  0  0  0  0  0  0  0  0
    6.9440    0.2550   18.0100 N   0  0  0  0  0  0  0  0  0  0  0  0
    7.6830   -0.5170   18.7600 N   0  0  0  0  0  0  0  0  0  0  0  0
    7.2210   -0.4620   20.0350 N   0  0  0  0  0  0  0  0  0  0  0  0
    8.0810   -0.9750   21.0820 N   0  0  0  0  0  0  0  0  0  0  0  0
    9.4200   -0.0840   22.9530 N   0  0  0  0  0  0  0  0  0  0  0  0
    9.1870    1.1500   21.0630 O   0  0  0  0  0  0  0  0  0  0  0  0
    9.2631   -4.8614   25.8229 O   0  0  0  0  0  0  0  0  0  0  0  0
   13.9969    0.9203   24.2776 S   0  0  0  0  0  0  0  0  0  0  0  0
    3.2714    2.7876   19.3199 H   0  0  0  0  0  0  0  0  0  0  0  0
    3.6283    2.0091   21.6296 H   0  0  0  0  0  0  0  0  0  0  0  0
    4.7824    2.0670   17.4883 H   0  0  0  0  0  0  0  0  0  0  0  0
    5.4937    0.4574   22.1805 H   0  0  0  0  0  0  0  0  0  0  0  0
    7.5951   -0.7786   24.8000 H   0  0  0  0  0  0  0  0  0  0  0  0
   11.0406   -2.1866   22.6351 H   0  0  0  0  0  0  0  0  0  0  0  0
    7.5664   -2.8674   26.1055 H   0  0  0  0  0  0  0  0  0  0  0  0
   11.0119   -4.2671   23.9461 H   0  0  0  0  0  0  0  0  0  0  0  0
   11.8338    1.0798   21.3902 H   0  0  0  0  0  0  0  0  0  0  0  0
   14.4176    0.9966   21.8719 H   0  0  0  0  0  0  0  0  0  0  0  0
   12.0446    0.9149   25.7428 H   0  0  0  0  0  0  0  0  0  0  0  0
    8.3309   -5.9652   27.3009 H   0  0  0  0  0  0  0  0  0  0  0  0
    7.2574   -4.9205   26.3189 H   0  0  0  0  0  0  0  0  0  0  0  0
    8.3380   -4.1983   27.5400 H   0  0  0  0  0  0  0  0  0  0  0  0
    9.6778    1.0140   24.6966 H   0  0  0  0  0  0  0  0  0  0  0  0
    9.6316    1.9637   23.2107 H   0  0  0  0  0  0  0  0  0  0  0  0
    8.1044   -1.8183   21.3422 H   0  0  0  0  0  0  0  0  0  0  0  0
  1  2  1  0  0  0  0
  1  3  2  0  0  0  0
  2  4  2  0  0  0  0
  3 13  1  0  0  0  0
  4 14  1  0  0  0  0
  5  7  2  0  0  0  0
  5 15  1  0  0  0  0
  6  8  1  0  0  0  0
  6 15  2  0  0  0  0
  7 16  1  0  0  0  0
  8 16  2  0  0  0  0
  9 10  2  0  0  0  0
  9 12  1  0  0  0  0
 10 27  1  0  0  0  0
 11 12  2  0  0  0  0
 11 27  1  0  0  0  0
 12 19  1  0  0  0  0
 13 14  2  0  0  0  0
 13 20  1  0  0  0  0
 14 22  1  0  0  0  0
 15 24  1  0  0  0  0
 16 26  1  0  0  0  0
 17 23  1  0  0  0  0
 17 24  1  0  0  0  0
 17 25  2  0  0  0  0
 18 26  1  0  0  0  0
 19 24  1  0  0  0  0
 20 21  2  0  0  0  0
 21 22  1  0  0  0  0
 22 23  1  0  0  0  0
  1 28  1  0  0  0  0
  2 29  1  0  0  0  0
  3 30  1  0  0  0  0
  4 31  1  0  0  0  0
  5 32  1  0  0  0  0
  6 33  1  0  0  0  0
  7 34  1  0  0  0  0
  8 35  1  0  0  0  0
  9 36  1  0  0  0  0
 10 37  1  0  0  0  0
 11 38  1  0  0  0  0
 18 39  1  0  0  0  0
 18 40  1  0  0  0  0
 18 41  1  0  0  0  0
 19 42  1  0  0  0  0
 19 43  1  0  0  0  0
 23 44  1  0  0  0  0
M  END
> <clash_score>
0

> <docking_score>
-9.0765380859375

> <overlap_score>
0.9697705507278442

$$$$
BENZO_19_1
  -OEChem-08222022383D

 47 50  0     0  0  0  0  0  0999 V2000
    4.0980    2.1130   19.5350 C   0  0  0  0  0  0  0  0  0  0  0  0
    4.2970    1.6690   20.8430 C   0  0  0  0  0  0  0  0  0  0  0  0
    4.9400    1.7060   18.5060 C   0  0  0  0  0  0  0  0  0  0  0  0
    5.3360    0.8000   21.1530 C   0  0  0  0  0  0  0  0  0  0  0  0
    8.3510   -1.5420   24.6110 C   0  0  0  0  0  0  0  0  0  0  0  0
   10.2760   -2.3270   23.4020 C   0  0  0  0  0  0  0  0  0  0  0  0
    8.3310   -2.7170   25.3430 C   0  0  0  0  0  0  0  0  0  0  0  0
   10.2570   -3.5000   24.1350 C   0  0  0  0  0  0  0  0  0  0  0  0
   12.4359    1.7439   24.3724 C   0  0  0  0  0  0  0  0  0  0  0  0
   12.3100    0.2469   22.7668 C   0  0  0  0  0  0  0  0  0  0  0  0
   11.5217    1.0079   23.5949 C   0  0  0  0  0  0  0  0  0  0  0  0
    5.9810    0.8330   18.8060 C   0  0  0  0  0  0  0  0  0  0  0  0
    6.1600    0.3870   20.1140 C   0  0  0  0  0  0  0  0  0  0  0  0
    9.3300   -1.3350   23.6390 C   0  0  0  0  0  0  0  0  0  0  0  0
    9.2850   -3.7090   25.1090 C   0  0  0  0  0  0  0  0  0  0  0  0
    8.9510    0.1280   21.6880 C   0  0  0  0  0  0  0  0  0  0  0  0
   14.7884    0.0124   22.4815 C   0  0  0  0  0  0  0  0  0  0  0  0
    8.2346   -4.9976   26.8023 C   0  0  0  0  0  0  0  0  0  0  0  0
   10.0220    1.0430   23.6570 C   0  0  0  0  0  0  0  0  0  0  0  0
   13.7076    1.4745   24.0657 N   0  0  0  0  0  0  0  0  0  0  0  0
    6.9440    0.2550   18.0100 N   0  0  0  0  0  0  0  0  0  0  0  0
    7.6830   -0.5170   18.7600 N   0  0  0  0  0  0  0  0  0  0  0  0
   13.5982    0.5607   23.0864 N   0  0  0  0  0  0  0  0  0  0  0  0
    7.2210   -0.4620   20.0350 N   0  0  0  0  0  0  0  0  0  0  0  0
    8.0810   -0.9750   21.0820 N   0  0  0  0  0  0  0  0  0  0  0  0
    9.4200   -0.0840   22.9530 N   0  0  0  0  0  0  0  0  0  0  0  0
    9.1870    1.1500   21.0630 O   0  0  0  0  0  0  0  0  0  0  0  0
    9.2631   -4.8614   25.8229 O   0  0  0  0  0  0  0  0  0  0  0  0
    3.2714    2.7876   19.3199 H   0  0  0  0  0  0  0  0  0  0  0  0
    3.6283    2.0091   21.6296 H   0  0  0  0  0  0  0  0  0  0  0  0
    4.7824    2.0670   17.4883 H   0  0  0  0  0  0  0  0  0  0  0  0
    5.4937    0.4574   22.1805 H   0  0  0  0  0  0  0  0  0  0  0  0
    7.5951   -0.7786   24.8000 H   0  0  0  0  0  0  0  0  0  0  0  0
   11.0406   -2.1866   22.6351 H   0  0  0  0  0  0  0  0  0  0  0  0
    7.5664   -2.8674   26.1055 H   0  0  0  0  0  0  0  0  0  0  0  0
   11.0119   -4.2671   23.9461 H   0  0  0  0  0  0  0  0  0  0  0  0
   12.2308    2.4652   25.1508 H   0  0  0  0  0  0  0  0  0  0  0  0
   12.0700   -0.4744   21.9974 H   0  0  0  0  0  0  0  0  0  0  0  0
   15.0569    0.6453   21.6315 H   0  0  0  0  0  0  0  0  0  0  0  0
   15.5971   -0.0026   23.2174 H   0  0  0  0  0  0  0  0  0  0  0  0
   14.5870   -1.0100   22.1498 H   0  0  0  0  0  0  0  0  0  0  0  0
    8.3309   -5.9652   27.3009 H   0  0  0  0  0  0  0  0  0  0  0  0
    7.2574   -4.9205   26.3189 H   0  0  0  0  0  0  0  0  0  0  0  0
    8.3380   -4.1983   27.5400 H   0  0  0  0  0  0  0  0  0  0  0  0
    9.6778    1.0140   24.6966 H   0  0  0  0  0  0  0  0  0  0  0  0
    9.6316    1.9637   23.2107 H   0  0  0  0  0  0  0  0  0  0  0  0
    8.1044   -1.8183   21.3422 H   0  0  0  0  0  0  0  0  0  0  0  0
  1  2  1  0  0  0  0
  1  3  2  0  0  0  0
  2  4  2  0  0  0  0
  3 12  1  0  0  0  0
  4 13  1  0  0  0  0
  5  7  2  0  0  0  0
  5 14  1  0  0  0  0
  6  8  1  0  0  0  0
  6 14  2  0  0  0  0
  7 15  1  0  0  0  0
  8 15  2  0  0  0  0
  9 11  1  0  0  0  0
  9 20  2  0  0  0  0
 10 11  2  0  0  0  0
 10 23  1  0  0  0  0
 11 19  1  0  0  0  0
 12 13  2  0  0  0  0
 12 21  1  0  0  0  0
 13 24  1  0  0  0  0
 14 26  1  0  0  0  0
 15 28  1  0  0  0  0
 16 25  1  0  0  0  0
 16 26  1  0  0  0  0
 16 27  2  0  0  0  0
 17 23  1  0  0  0  0
 18 28  1  0  0  0  0
 19 26  1  0  0  0  0
 20 23  1  0  0  0  0
 21 22  2  0  0  0  0
 22 24  1  0  0  0  0
 24 25  1  0  0  0  0
  1 29  1  0  0  0  0
  2 30  1  0  0  0  0
  3 31  1  0  0  0  0
  4 32  1  0  0  0  0
  5 33  1  0  0  0  0
  6 34  1  0  0  0  0
  7 35  1  0  0  0  0
  8 36  1  0  0  0  0
  9 37  1  0  0  0  0
 10 38  1  0  0  0  0
 17 39  1  0  0  0  0
 17 40  1  0  0  0  0
 17 41  1  0  0  0  0
 18 42  1  0  0  0  0
 18 43  1  0  0  0  0
 18 44  1  0  0  0  0
 19 45  1  0  0  0  0
 19 46  1  0  0  0  0
 25 47  1  0  0  0  0
M  END
> <clash_score>
0

> <docking_score>
-9.04494571685791

> <overlap_score>
0.9817348122596741

$$$$
BENZO_18_1
  -OEChem-08222022383D

 47 50  0     0  0  0  0  0  0999 V2000
    4.0980    2.1130   19.5350 C   0  0  0  0  0  0  0  0  0  0  0  0
    4.2970    1.6690   20.8430 C   0  0  0  0  0  0  0  0  0  0  0  0
   13.6668    1.7807   24.3938 C   0  0  0  0  0  0  0  0  0  0  0  0
   12.2735    1.8136   24.4501 C   0  0  0  0  0  0  0  0  0  0  0  0
    4.9400    1.7060   18.5060 C   0  0  0  0  0  0  0  0  0  0  0  0
    5.3360    0.8000   21.1530 C   0  0  0  0  0  0  0  0  0  0  0  0
    8.3510   -1.5420   24.6110 C   0  0  0  0  0  0  0  0  0  0  0  0
   10.2760   -2.3270   23.4020 C   0  0  0  0  0  0  0  0  0  0  0  0
    8.3310   -2.7170   25.3430 C   0  0  0  0  0  0  0  0  0  0  0  0
   10.2570   -3.5000   24.1350 C   0  0  0  0  0  0  0  0  0  0  0  0
   14.3084    0.9422   23.4822 C   0  0  0  0  0  0  0  0  0  0  0  0
   12.1632    0.1693   22.6834 C   0  0  0  0  0  0  0  0  0  0  0  0
   11.5217    1.0079   23.5949 C   0  0  0  0  0  0  0  0  0  0  0  0
    5.9810    0.8330   18.8060 C   0  0  0  0  0  0  0  0  0  0  0  0
    6.1600    0.3870   20.1140 C   0  0  0  0  0  0  0  0  0  0  0  0
    9.3300   -1.3350   23.6390 C   0  0  0  0  0  0  0  0  0  0  0  0
    9.2850   -3.7090   25.1090 C   0  0  0  0  0  0  0  0  0  0  0  0
   13.5566    0.1365   22.6270 C   0  0  0  0  0  0  0  0  0  0  0  0
    8.9510    0.1280   21.6880 C   0  0  0  0  0  0  0  0  0  0  0  0
    8.2346   -4.9976   26.8023 C   0  0  0  0  0  0  0  0  0  0  0  0
   10.0220    1.0430   23.6570 C   0  0  0  0  0  0  0  0  0  0  0  0
    6.9440    0.2550   18.0100 N   0  0  0  0  0  0  0  0  0  0  0  0
    7.6830   -0.5170   18.7600 N   0  0  0  0  0  0  0  0  0  0  0  0
    7.2210   -0.4620   20.0350 N   0  0  0  0  0  0  0  0  0  0  0  0
    8.0810   -0.9750   21.0820 N   0  0  0  0  0  0  0  0  0  0  0  0
    9.4200   -0.0840   22.9530 N   0  0  0  0  0  0  0  0  0  0  0  0
    9.1870    1.1500   21.0630 O   0  0  0  0  0  0  0  0  0  0  0  0
    9.2631   -4.8614   25.8229 O   0  0  0  0  0  0  0  0  0  0  0  0
   14.3487   -0.8988   21.5034 Cl  0  0  0  0  0  0  0  0  0  0  0  0
    3.2714    2.7876   19.3199 H   0  0  0  0  0  0  0  0  0  0  0  0
    3.6283    2.0091   21.6296 H   0  0  0  0  0  0  0  0  0  0  0  0
   14.2519    2.4082   25.0600 H   0  0  0  0  0  0  0  0  0  0  0  0
   11.7821    2.4700   25.1636 H   0  0  0  0  0  0  0  0  0  0  0  0
    4.7824    2.0670   17.4883 H   0  0  0  0  0  0  0  0  0  0  0  0
    5.4937    0.4574   22.1805 H   0  0  0  0  0  0  0  0  0  0  0  0
    7.5951   -0.7786   24.8000 H   0  0  0  0  0  0  0  0  0  0  0  0
   11.0406   -2.1866   22.6351 H   0  0  0  0  0  0  0  0  0  0  0  0
    7.5664   -2.8674   26.1055 H   0  0  0  0  0  0  0  0  0  0  0  0
   11.0119   -4.2671   23.9461 H   0  0  0  0  0  0  0  0  0  0  0  0
   15.3950    0.9267   23.4496 H   0  0  0  0  0  0  0  0  0  0  0  0
   11.5726   -0.4565   22.0184 H   0  0  0  0  0  0  0  0  0  0  0  0
    8.3309   -5.9652   27.3009 H   0  0  0  0  0  0  0  0  0  0  0  0
    7.2574   -4.9205   26.3189 H   0  0  0  0  0  0  0  0  0  0  0  0
    8.3380   -4.1983   27.5400 H   0  0  0  0  0  0  0  0  0  0  0  0
    9.6778    1.0140   24.6966 H   0  0  0  0  0  0  0  0  0  0  0  0
    9.6316    1.9637   23.2107 H   0  0  0  0  0  0  0  0  0  0  0  0
    8.1044   -1.8183   21.3422 H   0  0  0  0  0  0  0  0  0  0  0  0
  1  2  1  0  0  0  0
  1  5  2  0  0  0  0
  2  6  2  0  0  0  0
  3  4  2  0  0  0  0
  3 11  1  0  0  0  0
  4 13  1  0  0  0  0
  5 14  1  0  0  0  0
  6 15  1  0  0  0  0
  7  9  2  0  0  0  0
  7 16  1  0  0  0  0
  8 10  1  0  0  0  0
  8 16  2  0  0  0  0
  9 17  1  0  0  0  0
 10 17  2  0  0  0  0
 11 18  2  0  0  0  0
 12 13  2  0  0  0  0
 12 18  1  0  0  0  0
 13 21  1  0  0  0  0
 14 15  2  0  0  0  0
 14 22  1  0  0  0  0
 15 24  1  0  0  0  0
 16 26  1  0  0  0  0
 17 28  1  0  0  0  0
 18 29  1  0  0  0  0
 19 25  1  0  0  0  0
 19 26  1  0  0  0  0
 19 27  2  0  0  0  0
 20 28  1  0  0  0  0
 21 26  1  0  0  0  0
 22 23  2  0  0  0  0
 23 24  1  0  0  0  0
 24 25  1  0  0  0  0
  1 30  1  0  0  0  0
  2 31  1  0  0  0  0
  3 32  1  0  0  0  0
  4 33  1  0  0  0  0
  5 34  1  0  0  0  0
  6 35  1  0  0  0  0
  7 36  1  0  0  0  0
  8 37  1  0  0  0  0
  9 38  1  0  0  0  0
 10 39  1  0  0  0  0
 11 40  1  0  0  0  0
 12 41  1  0  0  0  0
 20 42  1  0  0  0  0
 20 43  1  0  0  0  0
 20 44  1  0  0  0  0
 21 45  1  0  0  0  0
 21 46  1  0  0  0  0
 25 47  1  0  0  0  0
M  END
> <clash_score>
0

> <docking_score>
-8.081265449523926

> <overlap_score>
0.976617157459259

$$$$
BENZO_20_1
  -OEChem-08222022383D

 54 58  0     0  0  0  0  0  0999 V2000
    4.0980    2.1130   19.5350 C   0  0  0  0  0  0  0  0  0  0  0  0
    4.2970    1.6690   20.8430 C   0  0  0  0  0  0  0  0  0  0  0  0
    4.9400    1.7060   18.5060 C   0  0  0  0  0  0  0  0  0  0  0  0
    5.3360    0.8000   21.1530 C   0  0  0  0  0  0  0  0  0  0  0  0
    8.3310   -2.7170   25.3430 C   0  0  0  0  0  0  0  0  0  0  0  0
   10.2570   -3.5000   24.1350 C   0  0  0  0  0  0  0  0  0  0  0  0
    8.3510   -1.5420   24.6110 C   0  0  0  0  0  0  0  0  0  0  0  0
   10.2760   -2.3270   23.4020 C   0  0  0  0  0  0  0  0  0  0  0  0
   12.2675    1.0332   22.3812 C   0  0  0  0  0  0  0  0  0  0  0  0
   13.6257    0.9906   22.6074 C   0  0  0  0  0  0  0  0  0  0  0  0
   12.3384    0.9467   24.7028 C   0  0  0  0  0  0  0  0  0  0  0  0
   11.5217    1.0079   23.5949 C   0  0  0  0  0  0  0  0  0  0  0  0
    5.9810    0.8330   18.8060 C   0  0  0  0  0  0  0  0  0  0  0  0
    6.1600    0.3870   20.1140 C   0  0  0  0  0  0  0  0  0  0  0  0
    9.2850   -3.7090   25.1090 C   0  0  0  0  0  0  0  0  0  0  0  0
    9.3300   -1.3350   23.6390 C   0  0  0  0  0  0  0  0  0  0  0  0
    8.0635   -5.4710   26.3667 C   0  0  0  0  0  0  0  0  0  0  0  0
    8.9510    0.1280   21.6880 C   0  0  0  0  0  0  0  0  0  0  0  0
    8.2626   -6.7580   27.1475 C   0  0  0  0  0  0  0  0  0  0  0  0
    9.4048   -6.6156   28.1380 C   0  0  0  0  0  0  0  0  0  0  0  0
   10.6949   -6.1500   27.4702 C   0  0  0  0  0  0  0  0  0  0  0  0
   10.4942   -5.7069   26.0219 C   0  0  0  0  0  0  0  0  0  0  0  0
   10.0220    1.0430   23.6570 C   0  0  0  0  0  0  0  0  0  0  0  0
    6.9440    0.2550   18.0100 N   0  0  0  0  0  0  0  0  0  0  0  0
    7.6830   -0.5170   18.7600 N   0  0  0  0  0  0  0  0  0  0  0  0
    7.2210   -0.4620   20.0350 N   0  0  0  0  0  0  0  0  0  0  0  0
    9.2623   -4.9266   25.8635 N   0  0  0  0  0  0  0  0  0  0  0  0
    8.0810   -0.9750   21.0820 N   0  0  0  0  0  0  0  0  0  0  0  0
    9.4200   -0.0840   22.9530 N   0  0  0  0  0  0  0  0  0  0  0  0
    6.9244   -5.0476   26.1739 O   0  0  0  0  0  0  0  0  0  0  0  0
    9.1870    1.1500   21.0630 O   0  0  0  0  0  0  0  0  0  0  0  0
   13.9969    0.9202   24.2776 S   0  0  0  0  0  0  0  0  0  0  0  0
    3.2714    2.7876   19.3199 H   0  0  0  0  0  0  0  0  0  0  0  0
    3.6283    2.0091   21.6296 H   0  0  0  0  0  0  0  0  0  0  0  0
    4.7824    2.0670   17.4883 H   0  0  0  0  0  0  0  0  0  0  0  0
    5.4937    0.4574   22.1805 H   0  0  0  0  0  0  0  0  0  0  0  0
    7.5639   -2.8621   26.1045 H   0  0  0  0  0  0  0  0  0  0  0  0
   11.0141   -4.2644   23.9422 H   0  0  0  0  0  0  0  0  0  0  0  0
    7.5950   -0.7788   24.8007 H   0  0  0  0  0  0  0  0  0  0  0  0
   11.0408   -2.1861   22.6359 H   0  0  0  0  0  0  0  0  0  0  0  0
   11.8338    1.0798   21.3902 H   0  0  0  0  0  0  0  0  0  0  0  0
   14.4176    0.9966   21.8719 H   0  0  0  0  0  0  0  0  0  0  0  0
   12.0446    0.9149   25.7428 H   0  0  0  0  0  0  0  0  0  0  0  0
    7.3516   -6.9810   27.6812 H   0  0  0  0  0  0  0  0  0  0  0  0
    8.4757   -7.5428   26.4371 H   0  0  0  0  0  0  0  0  0  0  0  0
    9.1234   -5.9016   28.9400 H   0  0  0  0  0  0  0  0  0  0  0  0
    9.5778   -7.5840   28.6491 H   0  0  0  0  0  0  0  0  0  0  0  0
   11.1305   -5.3108   28.0523 H   0  0  0  0  0  0  0  0  0  0  0  0
   11.4565   -6.9587   27.5131 H   0  0  0  0  0  0  0  0  0  0  0  0
   11.3212   -5.0729   25.7168 H   0  0  0  0  0  0  0  0  0  0  0  0
   10.4483   -6.5796   25.3796 H   0  0  0  0  0  0  0  0  0  0  0  0
    9.6778    1.0140   24.6966 H   0  0  0  0  0  0  0  0  0  0  0  0
    9.6316    1.9637   23.2107 H   0  0  0  0  0  0  0  0  0  0  0  0
    8.1334   -1.7991   21.3673 H   0  0  0  0  0  0  0  0  0  0  0  0
  1  2  1  0  0  0  0
  1  3  2  0  0  0  0
  2  4  2  0  0  0  0
  3 13  1  0  0  0  0
  4 14  1  0  0  0  0
  5  7  2  0  0  0  0
  5 15  1  0  0  0  0
  6  8  1  0  0  0  0
  6 15  2  0  0  0  0
  7 16  1  0  0  0  0
  8 16  2  0  0  0  0
  9 10  2  0  0  0  0
  9 12  1  0  0  0  0
 10 32  1  0  0  0  0
 11 12  2  0  0  0  0
 11 32  1  0  0  0  0
 12 23  1  0  0  0  0
 13 14  2  0  0  0  0
 13 24  1  0  0  0  0
 14 26  1  0  0  0  0
 15 27  1  0  0  0  0
 16 29  1  0  0  0  0
 17 19  1  0  0  0  0
 17 27  1  0  0  0  0
 17 30  2  0  0  0  0
 18 28  1  0  0  0  0
 18 29  1  0  0  0  0
 18 31  2  0  0  0  0
 19 20  1  0  0  0  0
 20 21  1  0  0  0  0
 21 22  1  0  0  0  0
 22 27  1  0  0  0  0
 23 29  1  0  0  0  0
 24 25  2  0  0  0  0
 25 26  1  0  0  0  0
 26 28  1  0  0  0  0
  1 33  1  0  0  0  0
  2 34  1  0  0  0  0
  3 35  1  0  0  0  0
  4 36  1  0  0  0  0
  5 37  1  0  0  0  0
  6 38  1  0  0  0  0
  7 39  1  0  0  0  0
  8 40  1  0  0  0  0
  9 41  1  0  0  0  0
 10 42  1  0  0  0  0
 11 43  1  0  0  0  0
 19 44  1  0  0  0  0
 19 45  1  0  0  0  0
 20 46  1  0  0  0  0
 20 47  1  0  0  0  0
 21 48  1  0  0  0  0
 21 49  1  0  0  0  0
 22 50  1  0  0  0  0
 22 51  1  0  0  0  0
 23 52  1  0  0  0  0
 23 53  1  0  0  0  0
 28 54  1  0  0  0  0
M  END
> <clash_score>
1.2727800107838716

> <docking_score>
-7.563051223754883

> <overlap_score>
0.9903323650360107

$$$$
BENZO_21_1
  -OEChem-08222022383D

 57 61  0     0  0  0  0  0  0999 V2000
   14.3082    0.9431   23.4783 C   0  0  0  0  0  0  0  0  0  0  0  0
   13.6391    0.3091   24.5251 C   0  0  0  0  0  0  0  0  0  0  0  0
   13.5841    1.6096   22.4898 C   0  0  0  0  0  0  0  0  0  0  0  0
    4.0980    2.1130   19.5350 C   0  0  0  0  0  0  0  0  0  0  0  0
    4.2970    1.6690   20.8430 C   0  0  0  0  0  0  0  0  0  0  0  0
   12.2459    0.3415   24.5835 C   0  0  0  0  0  0  0  0  0  0  0  0
   12.1908    1.6420   22.5481 C   0  0  0  0  0  0  0  0  0  0  0  0
    4.9400    1.7060   18.5060 C   0  0  0  0  0  0  0  0  0  0  0  0
    5.3360    0.8000   21.1530 C   0  0  0  0  0  0  0  0  0  0  0  0
    8.3310   -2.7170   25.3430 C   0  0  0  0  0  0  0  0  0  0  0  0
   10.2570   -3.5000   24.1350 C   0  0  0  0  0  0  0  0  0  0  0  0
    8.3510   -1.5420   24.6110 C   0  0  0  0  0  0  0  0  0  0  0  0
   10.2760   -2.3270   23.4020 C   0  0  0  0  0  0  0  0  0  0  0  0
   11.5217    1.0079   23.5949 C   0  0  0  0  0  0  0  0  0  0  0  0
    5.9810    0.8330   18.8060 C   0  0  0  0  0  0  0  0  0  0  0  0
    6.1600    0.3870   20.1140 C   0  0  0  0  0  0  0  0  0  0  0  0
    9.2850   -3.7090   25.1090 C   0  0  0  0  0  0  0  0  0  0  0  0
    9.3300   -1.3350   23.6390 C   0  0  0  0  0  0  0  0  0  0  0  0
    8.0635   -5.4710   26.3667 C   0  0  0  0  0  0  0  0  0  0  0  0
    8.9510    0.1280   21.6880 C   0  0  0  0  0  0  0  0  0  0  0  0
    8.2626   -6.7580   27.1475 C   0  0  0  0  0  0  0  0  0  0  0  0
    9.4048   -6.6156   28.1380 C   0  0  0  0  0  0  0  0  0  0  0  0
   10.6949   -6.1500   27.4702 C   0  0  0  0  0  0  0  0  0  0  0  0
   10.4942   -5.7069   26.0219 C   0  0  0  0  0  0  0  0  0  0  0  0
   10.0220    1.0430   23.6570 C   0  0  0  0  0  0  0  0  0  0  0  0
    6.9440    0.2550   18.0100 N   0  0  0  0  0  0  0  0  0  0  0  0
    7.6830   -0.5170   18.7600 N   0  0  0  0  0  0  0  0  0  0  0  0
    7.2210   -0.4620   20.0350 N   0  0  0  0  0  0  0  0  0  0  0  0
    9.2623   -4.9266   25.8635 N   0  0  0  0  0  0  0  0  0  0  0  0
    8.0810   -0.9750   21.0820 N   0  0  0  0  0  0  0  0  0  0  0  0
    9.4200   -0.0840   22.9530 N   0  0  0  0  0  0  0  0  0  0  0  0
    6.9244   -5.0476   26.1739 O   0  0  0  0  0  0  0  0  0  0  0  0
    9.1870    1.1500   21.0630 O   0  0  0  0  0  0  0  0  0  0  0  0
   15.3932    0.9189   23.4337 H   0  0  0  0  0  0  0  0  0  0  0  0
   14.2028   -0.2090   25.2955 H   0  0  0  0  0  0  0  0  0  0  0  0
   14.1048    2.1043   21.6752 H   0  0  0  0  0  0  0  0  0  0  0  0
    3.2714    2.7876   19.3199 H   0  0  0  0  0  0  0  0  0  0  0  0
    3.6283    2.0091   21.6296 H   0  0  0  0  0  0  0  0  0  0  0  0
   11.7330   -0.1555   25.4027 H   0  0  0  0  0  0  0  0  0  0  0  0
   11.6349    2.1636   21.7735 H   0  0  0  0  0  0  0  0  0  0  0  0
    4.7824    2.0670   17.4883 H   0  0  0  0  0  0  0  0  0  0  0  0
    5.4937    0.4574   22.1805 H   0  0  0  0  0  0  0  0  0  0  0  0
    7.5639   -2.8621   26.1045 H   0  0  0  0  0  0  0  0  0  0  0  0
   11.0141   -4.2644   23.9422 H   0  0  0  0  0  0  0  0  0  0  0  0
    7.5950   -0.7788   24.8007 H   0  0  0  0  0  0  0  0  0  0  0  0
   11.0408   -2.1861   22.6359 H   0  0  0  0  0  0  0  0  0  0  0  0
    7.3516   -6.9810   27.6812 H   0  0  0  0  0  0  0  0  0  0  0  0
    8.4757   -7.5428   26.4371 H   0  0  0  0  0  0  0  0  0  0  0  0
    9.1234   -5.9016   28.9400 H   0  0  0  0  0  0  0  0  0  0  0  0
    9.5778   -7.5840   28.6491 H   0  0  0  0  0  0  0  0  0  0  0  0
   11.1305   -5.3108   28.0523 H   0  0  0  0  0  0  0  0  0  0  0  0
   11.4565   -6.9587   27.5131 H   0  0  0  0  0  0  0  0  0  0  0  0
   11.3212   -5.0729   25.7168 H   0  0  0  0  0  0  0  0  0  0  0  0
   10.4483   -6.5796   25.3796 H   0  0  0  0  0  0  0  0  0  0  0  0
    9.6778    1.0140   24.6966 H   0  0  0  0  0  0  0  0  0  0  0  0
    9.6316    1.9637   23.2107 H   0  0  0  0  0  0  0  0  0  0  0  0
    8.1334   -1.7991   21.3673 H   0  0  0  0  0  0  0  0  0  0  0  0
  1  2  1  0  0  0  0
  1  3  2  0  0  0  0
  2  6  2  0  0  0  0
  3  7  1  0  0  0  0
  4  5  1  0  0  0  0
  4  8  2  0  0  0  0
  5  9  2  0  0  0  0
  6 14  1  0  0  0  0
  7 14  2  0  0  0  0
  8 15  1  0  0  0  0
  9 16  1  0  0  0  0
 10 12  2  0  0  0  0
 10 17  1  0  0  0  0
 11 13  1  0  0  0  0
 11 17  2  0  0  0  0
 12 18  1  0  0  0  0
 13 18  2  0  0  0  0
 14 25  1  0  0  0  0
 15 16  2  0  0  0  0
 15 26  1  0  0  0  0
 16 28  1  0  0  0  0
 17 29  1  0  0  0  0
 18 31  1  0  0  0  0
 19 21  1  0  0  0  0
 19 29  1  0  0  0  0
 19 32  2  0  0  0  0
 20 30  1  0  0  0  0
 20 31  1  0  0  0  0
 20 33  2  0  0  0  0
 21 22  1  0  0  0  0
 22 23  1  0  0  0  0
 23 24  1  0  0  0  0
 24 29  1  0  0  0  0
 25 31  1  0  0  0  0
 26 27  2  0  0  0  0
 27 28  1  0  0  0  0
 28 30  1  0  0  0  0
  1 34  1  0  0  0  0
  2 35  1  0  0  0  0
  3 36  1  0  0  0  0
  4 37  1  0  0  0  0
  5 38  1  0  0  0  0
  6 39  1  0  0  0  0
  7 40  1  0  0  0  0
  8 41  1  0  0  0  0
  9 42  1  0  0  0  0
 10 43  1  0  0  0  0
 11 44  1  0  0  0  0
 12 45  1  0  0  0  0
 13 46  1  0  0  0  0
 21 47  1  0  0  0  0
 21 48  1  0  0  0  0
 22 49  1  0  0  0  0
 22 50  1  0  0  0  0
 23 51  1  0  0  0  0
 23 52  1  0  0  0  0
 24 53  1  0  0  0  0
 24 54  1  0  0  0  0
 25 55  1  0  0  0  0
 25 56  1  0  0  0  0
 30 57  1  0  0  0  0
M  END
> <clash_score>
1.2727800107838716

> <docking_score>
-7.3168487548828125

> <overlap_score>
1.0159265995025635

$$$$
BENZO_23_1
  -OEChem-08222022383D

 57 61  0     0  0  0  0  0  0999 V2000
    4.0980    2.1130   19.5350 C   0  0  0  0  0  0  0  0  0  0  0  0
    4.2970    1.6690   20.8430 C   0  0  0  0  0  0  0  0  0  0  0  0
    4.9400    1.7060   18.5060 C   0  0  0  0  0  0  0  0  0  0  0  0
    5.3360    0.8000   21.1530 C   0  0  0  0  0  0  0  0  0  0  0  0
    8.3310   -2.7170   25.3430 C   0  0  0  0  0  0  0  0  0  0  0  0
   10.2570   -3.5000   24.1350 C   0  0  0  0  0  0  0  0  0  0  0  0
    8.3510   -1.5420   24.6110 C   0  0  0  0  0  0  0  0  0  0  0  0
   10.2760   -2.3270   23.4020 C   0  0  0  0  0  0  0  0  0  0  0  0
   12.4359    1.7439   24.3724 C   0  0  0  0  0  0  0  0  0  0  0  0
   12.3100    0.2469   22.7668 C   0  0  0  0  0  0  0  0  0  0  0  0
   11.5217    1.0079   23.5949 C   0  0  0  0  0  0  0  0  0  0  0  0
    5.9810    0.8330   18.8060 C   0  0  0  0  0  0  0  0  0  0  0  0
    6.1600    0.3870   20.1140 C   0  0  0  0  0  0  0  0  0  0  0  0
    9.2850   -3.7090   25.1090 C   0  0  0  0  0  0  0  0  0  0  0  0
    9.3300   -1.3350   23.6390 C   0  0  0  0  0  0  0  0  0  0  0  0
    8.2934   -5.1724   26.8574 C   0  0  0  0  0  0  0  0  0  0  0  0
    8.9510    0.1280   21.6880 C   0  0  0  0  0  0  0  0  0  0  0  0
    8.4443   -6.5251   27.5306 C   0  0  0  0  0  0  0  0  0  0  0  0
    8.6421   -7.6210   26.4982 C   0  0  0  0  0  0  0  0  0  0  0  0
    9.8032   -7.3237   25.5546 C   0  0  0  0  0  0  0  0  0  0  0  0
   10.3452   -5.9024   25.6995 C   0  0  0  0  0  0  0  0  0  0  0  0
   14.7884    0.0124   22.4815 C   0  0  0  0  0  0  0  0  0  0  0  0
   10.0220    1.0430   23.6570 C   0  0  0  0  0  0  0  0  0  0  0  0
   13.7076    1.4745   24.0657 N   0  0  0  0  0  0  0  0  0  0  0  0
    6.9440    0.2550   18.0100 N   0  0  0  0  0  0  0  0  0  0  0  0
    7.6830   -0.5170   18.7600 N   0  0  0  0  0  0  0  0  0  0  0  0
   13.5982    0.5607   23.0864 N   0  0  0  0  0  0  0  0  0  0  0  0
    7.2210   -0.4620   20.0350 N   0  0  0  0  0  0  0  0  0  0  0  0
    9.2623   -4.9267   25.8636 N   0  0  0  0  0  0  0  0  0  0  0  0
    8.0810   -0.9750   21.0820 N   0  0  0  0  0  0  0  0  0  0  0  0
    9.4200   -0.0840   22.9530 N   0  0  0  0  0  0  0  0  0  0  0  0
    7.4269   -4.3921   27.2503 O   0  0  0  0  0  0  0  0  0  0  0  0
    9.1870    1.1500   21.0630 O   0  0  0  0  0  0  0  0  0  0  0  0
    3.2714    2.7876   19.3199 H   0  0  0  0  0  0  0  0  0  0  0  0
    3.6283    2.0091   21.6296 H   0  0  0  0  0  0  0  0  0  0  0  0
    4.7824    2.0670   17.4883 H   0  0  0  0  0  0  0  0  0  0  0  0
    5.4937    0.4574   22.1805 H   0  0  0  0  0  0  0  0  0  0  0  0
    7.5639   -2.8621   26.1045 H   0  0  0  0  0  0  0  0  0  0  0  0
   11.0141   -4.2644   23.9422 H   0  0  0  0  0  0  0  0  0  0  0  0
    7.5950   -0.7788   24.8007 H   0  0  0  0  0  0  0  0  0  0  0  0
   11.0408   -2.1861   22.6359 H   0  0  0  0  0  0  0  0  0  0  0  0
   12.2308    2.4652   25.1508 H   0  0  0  0  0  0  0  0  0  0  0  0
   12.0700   -0.4744   21.9974 H   0  0  0  0  0  0  0  0  0  0  0  0
    9.3022   -6.4901   28.1844 H   0  0  0  0  0  0  0  0  0  0  0  0
    7.5489   -6.7068   28.1060 H   0  0  0  0  0  0  0  0  0  0  0  0
    8.8161   -8.5925   27.0060 H   0  0  0  0  0  0  0  0  0  0  0  0
    7.7102   -7.7540   25.9127 H   0  0  0  0  0  0  0  0  0  0  0  0
   10.6240   -8.0484   25.7384 H   0  0  0  0  0  0  0  0  0  0  0  0
    9.4907   -7.5005   24.5024 H   0  0  0  0  0  0  0  0  0  0  0  0
   10.9741   -5.8406   26.5826 H   0  0  0  0  0  0  0  0  0  0  0  0
   10.9262   -5.6455   24.8203 H   0  0  0  0  0  0  0  0  0  0  0  0
   15.0569    0.6453   21.6315 H   0  0  0  0  0  0  0  0  0  0  0  0
   15.5971   -0.0026   23.2174 H   0  0  0  0  0  0  0  0  0  0  0  0
   14.5870   -1.0100   22.1498 H   0  0  0  0  0  0  0  0  0  0  0  0
    9.6778    1.0140   24.6966 H   0  0  0  0  0  0  0  0  0  0  0  0
    9.6316    1.9637   23.2107 H   0  0  0  0  0  0  0  0  0  0  0  0
    8.1334   -1.7991   21.3673 H   0  0  0  0  0  0  0  0  0  0  0  0
  1  2  1  0  0  0  0
  1  3  2  0  0  0  0
  2  4  2  0  0  0  0
  3 12  1  0  0  0  0
  4 13  1  0  0  0  0
  5  7  2  0  0  0  0
  5 14  1  0  0  0  0
  6  8  1  0  0  0  0
  6 14  2  0  0  0  0
  7 15  1  0  0  0  0
  8 15  2  0  0  0  0
  9 11  1  0  0  0  0
  9 24  2  0  0  0  0
 10 11  2  0  0  0  0
 10 27  1  0  0  0  0
 11 23  1  0  0  0  0
 12 13  2  0  0  0  0
 12 25  1  0  0  0  0
 13 28  1  0  0  0  0
 14 29  1  0  0  0  0
 15 31  1  0  0  0  0
 16 18  1  0  0  0  0
 16 29  1  0  0  0  0
 16 32  2  0  0  0  0
 17 30  1  0  0  0  0
 17 31  1  0  0  0  0
 17 33  2  0  0  0  0
 18 19  1  0  0  0  0
 19 20  1  0  0  0  0
 20 21  1  0  0  0  0
 21 29  1  0  0  0  0
 22 27  1  0  0  0  0
 23 31  1  0  0  0  0
 24 27  1  0  0  0  0
 25 26  2  0  0  0  0
 26 28  1  0  0  0  0
 28 30  1  0  0  0  0
  1 34  1  0  0  0  0
  2 35  1  0  0  0  0
  3 36  1  0  0  0  0
  4 37  1  0  0  0  0
  5 38  1  0  0  0  0
  6 39  1  0  0  0  0
  7 40  1  0  0  0  0
  8 41  1  0  0  0  0
  9 42  1  0  0  0  0
 10 43  1  0  0  0  0
 18 44  1  0  0  0  0
 18 45  1  0  0  0  0
 19 46  1  0  0  0  0
 19 47  1  0  0  0  0
 20 48  1  0  0  0  0
 20 49  1  0  0  0  0
 21 50  1  0  0  0  0
 21 51  1  0  0  0  0
 22 52  1  0  0  0  0
 22 53  1  0  0  0  0
 22 54  1  0  0  0  0
 23 55  1  0  0  0  0
 23 56  1  0  0  0  0
 30 57  1  0  0  0  0
M  END
> <clash_score>
0.6927838152815973

> <docking_score>
-7.307143211364746

> <overlap_score>
1.0033575296401978

$$$$
BENZO_22_1
  -OEChem-08222022383D

 57 61  0     0  0  0  0  0  0999 V2000
    4.0980    2.1130   19.5350 C   0  0  0  0  0  0  0  0  0  0  0  0
    4.2970    1.6690   20.8430 C   0  0  0  0  0  0  0  0  0  0  0  0
   13.5977    1.8457   22.6865 C   0  0  0  0  0  0  0  0  0  0  0  0
   12.2044    1.8769   22.7438 C   0  0  0  0  0  0  0  0  0  0  0  0
    4.9400    1.7060   18.5060 C   0  0  0  0  0  0  0  0  0  0  0  0
    5.3360    0.8000   21.1530 C   0  0  0  0  0  0  0  0  0  0  0  0
    8.3310   -2.7170   25.3430 C   0  0  0  0  0  0  0  0  0  0  0  0
   10.2570   -3.5000   24.1350 C   0  0  0  0  0  0  0  0  0  0  0  0
    8.3510   -1.5420   24.6110 C   0  0  0  0  0  0  0  0  0  0  0  0
   10.2760   -2.3270   23.4020 C   0  0  0  0  0  0  0  0  0  0  0  0
   14.3084    0.9454   23.4803 C   0  0  0  0  0  0  0  0  0  0  0  0
   12.2323    0.1076   24.3888 C   0  0  0  0  0  0  0  0  0  0  0  0
   11.5217    1.0079   23.5949 C   0  0  0  0  0  0  0  0  0  0  0  0
    5.9810    0.8330   18.8060 C   0  0  0  0  0  0  0  0  0  0  0  0
    6.1600    0.3870   20.1140 C   0  0  0  0  0  0  0  0  0  0  0  0
    9.2850   -3.7090   25.1090 C   0  0  0  0  0  0  0  0  0  0  0  0
    9.3300   -1.3350   23.6390 C   0  0  0  0  0  0  0  0  0  0  0  0
   13.6257    0.0764   24.3314 C   0  0  0  0  0  0  0  0  0  0  0  0
    8.2930   -5.1714   26.8572 C   0  0  0  0  0  0  0  0  0  0  0  0
    8.9510    0.1280   21.6880 C   0  0  0  0  0  0  0  0  0  0  0  0
    8.4552   -6.5156   27.5444 C   0  0  0  0  0  0  0  0  0  0  0  0
    9.9019   -6.7444   27.9450 C   0  0  0  0  0  0  0  0  0  0  0  0
   10.8597   -6.5882   26.7680 C   0  0  0  0  0  0  0  0  0  0  0  0
   10.1895   -6.0108   25.5223 C   0  0  0  0  0  0  0  0  0  0  0  0
   10.0220    1.0430   23.6570 C   0  0  0  0  0  0  0  0  0  0  0  0
    6.9440    0.2550   18.0100 N   0  0  0  0  0  0  0  0  0  0  0  0
    7.6830   -0.5170   18.7600 N   0  0  0  0  0  0  0  0  0  0  0  0
    7.2210   -0.4620   20.0350 N   0  0  0  0  0  0  0  0  0  0  0  0
    9.2623   -4.9266   25.8635 N   0  0  0  0  0  0  0  0  0  0  0  0
    8.0810   -0.9750   21.0820 N   0  0  0  0  0  0  0  0  0  0  0  0
    9.4200   -0.0840   22.9530 N   0  0  0  0  0  0  0  0  0  0  0  0
    7.3370   -4.4528   27.1463 O   0  0  0  0  0  0  0  0  0  0  0  0
    9.1870    1.1500   21.0630 O   0  0  0  0  0  0  0  0  0  0  0  0
   14.5031   -1.0334   25.3114 Cl  0  0  0  0  0  0  0  0  0  0  0  0
    3.2714    2.7876   19.3199 H   0  0  0  0  0  0  0  0  0  0  0  0
    3.6283    2.0091   21.6296 H   0  0  0  0  0  0  0  0  0  0  0  0
   14.1289    2.5226   22.0237 H   0  0  0  0  0  0  0  0  0  0  0  0
   11.6588    2.5818   22.1218 H   0  0  0  0  0  0  0  0  0  0  0  0
    4.7824    2.0670   17.4883 H   0  0  0  0  0  0  0  0  0  0  0  0
    5.4937    0.4574   22.1805 H   0  0  0  0  0  0  0  0  0  0  0  0
    7.5639   -2.8621   26.1045 H   0  0  0  0  0  0  0  0  0  0  0  0
   11.0141   -4.2644   23.9422 H   0  0  0  0  0  0  0  0  0  0  0  0
    7.5950   -0.7788   24.8007 H   0  0  0  0  0  0  0  0  0  0  0  0
   11.0408   -2.1861   22.6359 H   0  0  0  0  0  0  0  0  0  0  0  0
   15.3941    0.9323   23.4255 H   0  0  0  0  0  0  0  0  0  0  0  0
   11.6954   -0.5682   25.0504 H   0  0  0  0  0  0  0  0  0  0  0  0
    7.8332   -6.5283   28.4263 H   0  0  0  0  0  0  0  0  0  0  0  0
    8.1305   -7.2788   26.8530 H   0  0  0  0  0  0  0  0  0  0  0  0
   10.1875   -6.0379   28.7521 H   0  0  0  0  0  0  0  0  0  0  0  0
   10.0116   -7.7568   28.3834 H   0  0  0  0  0  0  0  0  0  0  0  0
   11.7061   -5.9337   27.0644 H   0  0  0  0  0  0  0  0  0  0  0  0
   11.3230   -7.5689   26.5243 H   0  0  0  0  0  0  0  0  0  0  0  0
   10.9445   -5.5959   24.8614 H   0  0  0  0  0  0  0  0  0  0  0  0
    9.6461   -6.7954   25.0072 H   0  0  0  0  0  0  0  0  0  0  0  0
    9.6778    1.0140   24.6966 H   0  0  0  0  0  0  0  0  0  0  0  0
    9.6316    1.9637   23.2107 H   0  0  0  0  0  0  0  0  0  0  0  0
    8.1334   -1.7991   21.3673 H   0  0  0  0  0  0  0  0  0  0  0  0
  1  2  1  0  0  0  0
  1  5  2  0  0  0  0
  2  6  2  0  0  0  0
  3  4  2  0  0  0  0
  3 11  1  0  0  0  0
  4 13  1  0  0  0  0
  5 14  1  0  0  0  0
  6 15  1  0  0  0  0
  7  9  2  0  0  0  0
  7 16  1  0  0  0  0
  8 10  1  0  0  0  0
  8 16  2  0  0  0  0
  9 17  1  0  0  0  0
 10 17  2  0  0  0  0
 11 18  2  0  0  0  0
 12 13  2  0  0  0  0
 12 18  1  0  0  0  0
 13 25  1  0  0  0  0
 14 15  2  0  0  0  0
 14 26  1  0  0  0  0
 15 28  1  0  0  0  0
 16 29  1  0  0  0  0
 17 31  1  0  0  0  0
 18 34  1  0  0  0  0
 19 21  1  0  0  0  0
 19 29  1  0  0  0  0
 19 32  2  0  0  0  0
 20 30  1  0  0  0  0
 20 31  1  0  0  0  0
 20 33  2  0  0  0  0
 21 22  1  0  0  0  0
 22 23  1  0  0  0  0
 23 24  1  0  0  0  0
 24 29  1  0  0  0  0
 25 31  1  0  0  0  0
 26 27  2  0  0  0  0
 27 28  1  0  0  0  0
 28 30  1  0  0  0  0
  1 35  1  0  0  0  0
  2 36  1  0  0  0  0
  3 37  1  0  0  0  0
  4 38  1  0  0  0  0
  5 39  1  0  0  0  0
  6 40  1  0  0  0  0
  7 41  1  0  0  0  0
  8 42  1  0  0  0  0
  9 43  1  0  0  0  0
 10 44  1  0  0  0  0
 11 45  1  0  0  0  0
 12 46  1  0  0  0  0
 21 47  1  0  0  0  0
 21 48  1  0  0  0  0
 22 49  1  0  0  0  0
 22 50  1  0  0  0  0
 23 51  1  0  0  0  0
 23 52  1  0  0  0  0
 24 53  1  0  0  0  0
 24 54  1  0  0  0  0
 25 55  1  0  0  0  0
 25 56  1  0  0  0  0
 30 57  1  0  0  0  0
M  END
> <clash_score>
2.825941314181884

> <docking_score>
-6.509581089019775

> <overlap_score>
1.0217955112457275

$$$$
BENZO_25_1
  -OEChem-08222022383D

 56 60  0     0  0  0  0  0  0999 V2000
   14.3082    0.9431   23.4783 C   0  0  0  0  0  0  0  0  0  0  0  0
   13.6391    0.3091   24.5251 C   0  0  0  0  0  0  0  0  0  0  0  0
   13.5841    1.6096   22.4898 C   0  0  0  0  0  0  0  0  0  0  0  0
    4.0980    2.1130   19.5350 C   0  0  0  0  0  0  0  0  0  0  0  0
    4.2970    1.6690   20.8430 C   0  0  0  0  0  0  0  0  0  0  0  0
   12.2459    0.3415   24.5835 C   0  0  0  0  0  0  0  0  0  0  0  0
   12.1908    1.6420   22.5481 C   0  0  0  0  0  0  0  0  0  0  0  0
    4.9400    1.7060   18.5060 C   0  0  0  0  0  0  0  0  0  0  0  0
    5.3360    0.8000   21.1530 C   0  0  0  0  0  0  0  0  0  0  0  0
    8.3310   -2.7170   25.3430 C   0  0  0  0  0  0  0  0  0  0  0  0
   10.2570   -3.5000   24.1350 C   0  0  0  0  0  0  0  0  0  0  0  0
    8.3510   -1.5420   24.6110 C   0  0  0  0  0  0  0  0  0  0  0  0
   10.2760   -2.3270   23.4020 C   0  0  0  0  0  0  0  0  0  0  0  0
   11.5217    1.0079   23.5949 C   0  0  0  0  0  0  0  0  0  0  0  0
    5.9810    0.8330   18.8060 C   0  0  0  0  0  0  0  0  0  0  0  0
    6.1600    0.3870   20.1140 C   0  0  0  0  0  0  0  0  0  0  0  0
    9.2850   -3.7090   25.1090 C   0  0  0  0  0  0  0  0  0  0  0  0
    9.3300   -1.3350   23.6390 C   0  0  0  0  0  0  0  0  0  0  0  0
    8.9510    0.1280   21.6880 C   0  0  0  0  0  0  0  0  0  0  0  0
    8.7666   -4.9523   27.2147 C   0  0  0  0  0  0  0  0  0  0  0  0
    9.3034   -6.1866   25.1651 C   0  0  0  0  0  0  0  0  0  0  0  0
    7.3827   -5.5925   27.1999 C   0  0  0  0  0  0  0  0  0  0  0  0
    7.9024   -6.7967   25.2263 C   0  0  0  0  0  0  0  0  0  0  0  0
   10.0220    1.0430   23.6570 C   0  0  0  0  0  0  0  0  0  0  0  0
    6.9440    0.2550   18.0100 N   0  0  0  0  0  0  0  0  0  0  0  0
    7.6830   -0.5170   18.7600 N   0  0  0  0  0  0  0  0  0  0  0  0
    7.2210   -0.4620   20.0350 N   0  0  0  0  0  0  0  0  0  0  0  0
    9.2640   -4.8844   25.8389 N   0  0  0  0  0  0  0  0  0  0  0  0
    8.0810   -0.9750   21.0820 N   0  0  0  0  0  0  0  0  0  0  0  0
    9.4200   -0.0840   22.9530 N   0  0  0  0  0  0  0  0  0  0  0  0
    9.1870    1.1500   21.0630 O   0  0  0  0  0  0  0  0  0  0  0  0
    7.4483   -6.8833   26.5817 O   0  0  0  0  0  0  0  0  0  0  0  0
   15.3932    0.9189   23.4337 H   0  0  0  0  0  0  0  0  0  0  0  0
   14.2029   -0.2090   25.2955 H   0  0  0  0  0  0  0  0  0  0  0  0
   14.1048    2.1043   21.6752 H   0  0  0  0  0  0  0  0  0  0  0  0
    3.2714    2.7876   19.3199 H   0  0  0  0  0  0  0  0  0  0  0  0
    3.6283    2.0091   21.6296 H   0  0  0  0  0  0  0  0  0  0  0  0
   11.7330   -0.1555   25.4027 H   0  0  0  0  0  0  0  0  0  0  0  0
   11.6349    2.1636   21.7735 H   0  0  0  0  0  0  0  0  0  0  0  0
    4.7824    2.0670   17.4883 H   0  0  0  0  0  0  0  0  0  0  0  0
    5.4937    0.4574   22.1805 H   0  0  0  0  0  0  0  0  0  0  0  0
    7.5647   -2.8621   26.1053 H   0  0  0  0  0  0  0  0  0  0  0  0
   11.0144   -4.2642   23.9425 H   0  0  0  0  0  0  0  0  0  0  0  0
    7.5958   -0.7779   24.8006 H   0  0  0  0  0  0  0  0  0  0  0  0
   11.0406   -2.1848   22.6356 H   0  0  0  0  0  0  0  0  0  0  0  0
    8.7030   -3.9561   27.6574 H   0  0  0  0  0  0  0  0  0  0  0  0
    9.4460   -5.5639   27.8143 H   0  0  0  0  0  0  0  0  0  0  0  0
   10.0083   -6.8392   25.6817 H   0  0  0  0  0  0  0  0  0  0  0  0
    9.6089   -6.0802   24.1251 H   0  0  0  0  0  0  0  0  0  0  0  0
    7.0281   -5.7334   28.2231 H   0  0  0  0  0  0  0  0  0  0  0  0
    6.6541   -4.9678   26.6754 H   0  0  0  0  0  0  0  0  0  0  0  0
    7.1860   -6.2177   24.6318 H   0  0  0  0  0  0  0  0  0  0  0  0
    7.9246   -7.8119   24.8187 H   0  0  0  0  0  0  0  0  0  0  0  0
    9.6778    1.0140   24.6966 H   0  0  0  0  0  0  0  0  0  0  0  0
    9.6316    1.9637   23.2107 H   0  0  0  0  0  0  0  0  0  0  0  0
    8.1334   -1.7991   21.3673 H   0  0  0  0  0  0  0  0  0  0  0  0
  1  2  1  0  0  0  0
  1  3  2  0  0  0  0
  2  6  2  0  0  0  0
  3  7  1  0  0  0  0
  4  5  1  0  0  0  0
  4  8  2  0  0  0  0
  5  9  2  0  0  0  0
  6 14  1  0  0  0  0
  7 14  2  0  0  0  0
  8 15  1  0  0  0  0
  9 16  1  0  0  0  0
 10 12  2  0  0  0  0
 10 17  1  0  0  0  0
 11 13  1  0  0  0  0
 11 17  2  0  0  0  0
 12 18  1  0  0  0  0
 13 18  2  0  0  0  0
 14 24  1  0  0  0  0
 15 16  2  0  0  0  0
 15 25  1  0  0  0  0
 16 27  1  0  0  0  0
 17 28  1  0  0  0  0
 18 30  1  0  0  0  0
 19 29  1  0  0  0  0
 19 30  1  0  0  0  0
 19 31  2  0  0  0  0
 20 22  1  0  0  0  0
 20 28  1  0  0  0  0
 21 23  1  0  0  0  0
 21 28  1  0  0  0  0
 22 32  1  0  0  0  0
 23 32  1  0  0  0  0
 24 30  1  0  0  0  0
 25 26  2  0  0  0  0
 26 27  1  0  0  0  0
 27 29  1  0  0  0  0
  1 33  1  0  0  0  0
  2 34  1  0  0  0  0
  3 35  1  0  0  0  0
  4 36  1  0  0  0  0
  5 37  1  0  0  0  0
  6 38  1  0  0  0  0
  7 39  1  0  0  0  0
  8 40  1  0  0  0  0
  9 41  1  0  0  0  0
 10 42  1  0  0  0  0
 11 43  1  0  0  0  0
 12 44  1  0  0  0  0
 13 45  1  0  0  0  0
 20 46  1  0  0  0  0
 20 47  1  0  0  0  0
 21 48  1  0  0  0  0
 21 49  1  0  0  0  0
 22 50  1  0  0  0  0
 22 51  1  0  0  0  0
 23 52  1  0  0  0  0
 23 53  1  0  0  0  0
 24 54  1  0  0  0  0
 24 55  1  0  0  0  0
 29 56  1  0  0  0  0
M  END
> <clash_score>
0

> <docking_score>
-8.561985969543457

> <overlap_score>
1.0165159702301025

$$$$
BENZO_29_1
  -OEChem-08222022383D

 52 55  0     0  0  0  0  0  0999 V2000
   14.3082    0.9431   23.4783 C   0  0  0  0  0  0  0  0  0  0  0  0
   13.6391    0.3091   24.5251 C   0  0  0  0  0  0  0  0  0  0  0  0
   13.5841    1.6096   22.4898 C   0  0  0  0  0  0  0  0  0  0  0  0
    4.0980    2.1130   19.5350 C   0  0  0  0  0  0  0  0  0  0  0  0
    4.2970    1.6690   20.8430 C   0  0  0  0  0  0  0  0  0  0  0  0
   12.2459    0.3415   24.5835 C   0  0  0  0  0  0  0  0  0  0  0  0
   12.1908    1.6420   22.5481 C   0  0  0  0  0  0  0  0  0  0  0  0
    4.9400    1.7060   18.5060 C   0  0  0  0  0  0  0  0  0  0  0  0
    5.3360    0.8000   21.1530 C   0  0  0  0  0  0  0  0  0  0  0  0
    8.3510   -1.5420   24.6110 C   0  0  0  0  0  0  0  0  0  0  0  0
   10.2760   -2.3270   23.4020 C   0  0  0  0  0  0  0  0  0  0  0  0
    8.3310   -2.7170   25.3430 C   0  0  0  0  0  0  0  0  0  0  0  0
   10.2570   -3.5000   24.1350 C   0  0  0  0  0  0  0  0  0  0  0  0
    7.6830   -0.5170   18.7600 C   0  0  0  0  0  0  0  0  0  0  0  0
   11.5217    1.0079   23.5949 C   0  0  0  0  0  0  0  0  0  0  0  0
    5.9810    0.8330   18.8060 C   0  0  0  0  0  0  0  0  0  0  0  0
    6.1600    0.3870   20.1140 C   0  0  0  0  0  0  0  0  0  0  0  0
    9.3300   -1.3350   23.6390 C   0  0  0  0  0  0  0  0  0  0  0  0
    9.2850   -3.7090   25.1090 C   0  0  0  0  0  0  0  0  0  0  0  0
    8.9510    0.1280   21.6880 C   0  0  0  0  0  0  0  0  0  0  0  0
    8.2498   -5.1179   26.8642 C   0  0  0  0  0  0  0  0  0  0  0  0
   10.2421   -5.9411   25.5986 C   0  0  0  0  0  0  0  0  0  0  0  0
   10.0220    1.0430   23.6570 C   0  0  0  0  0  0  0  0  0  0  0  0
    6.9440    0.2550   18.0100 N   0  0  0  0  0  0  0  0  0  0  0  0
    7.2210   -0.4620   20.0350 N   0  0  0  0  0  0  0  0  0  0  0  0
    8.0810   -0.9750   21.0820 N   0  0  0  0  0  0  0  0  0  0  0  0
    9.4200   -0.0840   22.9530 N   0  0  0  0  0  0  0  0  0  0  0  0
    9.2624   -4.9028   25.8498 N   0  0  0  0  0  0  0  0  0  0  0  0
    9.1870    1.1500   21.0630 O   0  0  0  0  0  0  0  0  0  0  0  0
   15.3932    0.9189   23.4337 H   0  0  0  0  0  0  0  0  0  0  0  0
   14.2029   -0.2090   25.2955 H   0  0  0  0  0  0  0  0  0  0  0  0
   14.1048    2.1043   21.6752 H   0  0  0  0  0  0  0  0  0  0  0  0
    3.2711    2.7870   19.3201 H   0  0  0  0  0  0  0  0  0  0  0  0
    3.6262    2.0082   21.6284 H   0  0  0  0  0  0  0  0  0  0  0  0
   11.7330   -0.1555   25.4027 H   0  0  0  0  0  0  0  0  0  0  0  0
   11.6349    2.1636   21.7735 H   0  0  0  0  0  0  0  0  0  0  0  0
    4.7816    2.0660   17.4901 H   0  0  0  0  0  0  0  0  0  0  0  0
    5.4934    0.4579   22.1787 H   0  0  0  0  0  0  0  0  0  0  0  0
    7.5947   -0.7787   24.7997 H   0  0  0  0  0  0  0  0  0  0  0  0
   11.0404   -2.1861   22.6352 H   0  0  0  0  0  0  0  0  0  0  0  0
    7.5641   -2.8632   26.1047 H   0  0  0  0  0  0  0  0  0  0  0  0
   11.0135   -4.2647   23.9425 H   0  0  0  0  0  0  0  0  0  0  0  0
    8.5166   -1.1054   18.4533 H   0  0  0  0  0  0  0  0  0  0  0  0
    8.3986   -6.1041   27.3281 H   0  0  0  0  0  0  0  0  0  0  0  0
    8.3293   -4.3353   27.6331 H   0  0  0  0  0  0  0  0  0  0  0  0
    7.2528   -5.0772   26.4012 H   0  0  0  0  0  0  0  0  0  0  0  0
   10.0587   -6.7900   26.2736 H   0  0  0  0  0  0  0  0  0  0  0  0
   10.1594   -6.2782   24.5548 H   0  0  0  0  0  0  0  0  0  0  0  0
   11.2520   -5.5429   25.7764 H   0  0  0  0  0  0  0  0  0  0  0  0
    9.6778    1.0140   24.6966 H   0  0  0  0  0  0  0  0  0  0  0  0
    9.6316    1.9637   23.2107 H   0  0  0  0  0  0  0  0  0  0  0  0
    8.0998   -1.8216   21.3383 H   0  0  0  0  0  0  0  0  0  0  0  0
  1  2  1  0  0  0  0
  1  3  2  0  0  0  0
  2  6  2  0  0  0  0
  3  7  1  0  0  0  0
  4  5  1  0  0  0  0
  4  8  2  0  0  0  0
  5  9  2  0  0  0  0
  6 15  1  0  0  0  0
  7 15  2  0  0  0  0
  8 16  1  0  0  0  0
  9 17  1  0  0  0  0
 10 12  2  0  0  0  0
 10 18  1  0  0  0  0
 11 13  1  0  0  0  0
 11 18  2  0  0  0  0
 12 19  1  0  0  0  0
 13 19  2  0  0  0  0
 14 24  2  0  0  0  0
 14 25  1  0  0  0  0
 15 23  1  0  0  0  0
 16 17  2  0  0  0  0
 16 24  1  0  0  0  0
 17 25  1  0  0  0  0
 18 27  1  0  0  0  0
 19 28  1  0  0  0  0
 20 26  1  0  0  0  0
 20 27  1  0  0  0  0
 20 29  2  0  0  0  0
 21 28  1  0  0  0  0
 22 28  1  0  0  0  0
 23 27  1  0  0  0  0
 25 26  1  0  0  0  0
  1 30  1  0  0  0  0
  2 31  1  0  0  0  0
  3 32  1  0  0  0  0
  4 33  1  0  0  0  0
  5 34  1  0  0  0  0
  6 35  1  0  0  0  0
  7 36  1  0  0  0  0
  8 37  1  0  0  0  0
  9 38  1  0  0  0  0
 10 39  1  0  0  0  0
 11 40  1  0  0  0  0
 12 41  1  0  0  0  0
 13 42  1  0  0  0  0
 14 43  1  0  0  0  0
 21 44  1  0  0  0  0
 21 45  1  0  0  0  0
 21 46  1  0  0  0  0
 22 47  1  0  0  0  0
 22 48  1  0  0  0  0
 22 49  1  0  0  0  0
 23 50  1  0  0  0  0
 23 51  1  0  0  0  0
 26 52  1  0  0  0  0
M  END
> <clash_score>
0

> <docking_score>
-9.897562980651855

> <overlap_score>
1.0030866861343384

$$$$
BENZO_24_1
  -OEChem-08222022383D

 53 57  0     0  0  0  0  0  0999 V2000
    4.0980    2.1130   19.5350 C   0  0  0  0  0  0  0  0  0  0  0  0
    4.2970    1.6690   20.8430 C   0  0  0  0  0  0  0  0  0  0  0  0
    4.9400    1.7060   18.5060 C   0  0  0  0  0  0  0  0  0  0  0  0
    5.3360    0.8000   21.1530 C   0  0  0  0  0  0  0  0  0  0  0  0
    8.3310   -2.7170   25.3430 C   0  0  0  0  0  0  0  0  0  0  0  0
   10.2570   -3.5000   24.1350 C   0  0  0  0  0  0  0  0  0  0  0  0
    8.3510   -1.5420   24.6110 C   0  0  0  0  0  0  0  0  0  0  0  0
   10.2760   -2.3270   23.4020 C   0  0  0  0  0  0  0  0  0  0  0  0
   12.2675    1.0332   22.3812 C   0  0  0  0  0  0  0  0  0  0  0  0
   13.6257    0.9906   22.6074 C   0  0  0  0  0  0  0  0  0  0  0  0
   12.3384    0.9467   24.7028 C   0  0  0  0  0  0  0  0  0  0  0  0
   11.5217    1.0079   23.5949 C   0  0  0  0  0  0  0  0  0  0  0  0
    5.9810    0.8330   18.8060 C   0  0  0  0  0  0  0  0  0  0  0  0
    6.1600    0.3870   20.1140 C   0  0  0  0  0  0  0  0  0  0  0  0
    9.2850   -3.7090   25.1090 C   0  0  0  0  0  0  0  0  0  0  0  0
    9.3300   -1.3350   23.6390 C   0  0  0  0  0  0  0  0  0  0  0  0
    8.9510    0.1280   21.6880 C   0  0  0  0  0  0  0  0  0  0  0  0
    8.7666   -4.9523   27.2147 C   0  0  0  0  0  0  0  0  0  0  0  0
    9.3034   -6.1866   25.1651 C   0  0  0  0  0  0  0  0  0  0  0  0
    7.3827   -5.5925   27.1999 C   0  0  0  0  0  0  0  0  0  0  0  0
    7.9024   -6.7967   25.2263 C   0  0  0  0  0  0  0  0  0  0  0  0
   10.0220    1.0430   23.6570 C   0  0  0  0  0  0  0  0  0  0  0  0
    6.9440    0.2550   18.0100 N   0  0  0  0  0  0  0  0  0  0  0  0
    7.6830   -0.5170   18.7600 N   0  0  0  0  0  0  0  0  0  0  0  0
    7.2210   -0.4620   20.0350 N   0  0  0  0  0  0  0  0  0  0  0  0
    9.2640   -4.8844   25.8389 N   0  0  0  0  0  0  0  0  0  0  0  0
    8.0810   -0.9750   21.0820 N   0  0  0  0  0  0  0  0  0  0  0  0
    9.4200   -0.0840   22.9530 N   0  0  0  0  0  0  0  0  0  0  0  0
    9.1870    1.1500   21.0630 O   0  0  0  0  0  0  0  0  0  0  0  0
    7.4483   -6.8833   26.5817 O   0  0  0  0  0  0  0  0  0  0  0  0
   13.9969    0.9202   24.2776 S   0  0  0  0  0  0  0  0  0  0  0  0
    3.2714    2.7876   19.3199 H   0  0  0  0  0  0  0  0  0  0  0  0
    3.6283    2.0091   21.6296 H   0  0  0  0  0  0  0  0  0  0  0  0
    4.7824    2.0670   17.4883 H   0  0  0  0  0  0  0  0  0  0  0  0
    5.4937    0.4574   22.1805 H   0  0  0  0  0  0  0  0  0  0  0  0
    7.5647   -2.8621   26.1053 H   0  0  0  0  0  0  0  0  0  0  0  0
   11.0144   -4.2642   23.9425 H   0  0  0  0  0  0  0  0  0  0  0  0
    7.5958   -0.7779   24.8006 H   0  0  0  0  0  0  0  0  0  0  0  0
   11.0406   -2.1848   22.6356 H   0  0  0  0  0  0  0  0  0  0  0  0
   11.8338    1.0798   21.3902 H   0  0  0  0  0  0  0  0  0  0  0  0
   14.4176    0.9966   21.8719 H   0  0  0  0  0  0  0  0  0  0  0  0
   12.0446    0.9149   25.7428 H   0  0  0  0  0  0  0  0  0  0  0  0
    8.7030   -3.9561   27.6574 H   0  0  0  0  0  0  0  0  0  0  0  0
    9.4460   -5.5639   27.8143 H   0  0  0  0  0  0  0  0  0  0  0  0
   10.0083   -6.8392   25.6817 H   0  0  0  0  0  0  0  0  0  0  0  0
    9.6089   -6.0802   24.1251 H   0  0  0  0  0  0  0  0  0  0  0  0
    7.0281   -5.7334   28.2231 H   0  0  0  0  0  0  0  0  0  0  0  0
    6.6541   -4.9678   26.6754 H   0  0  0  0  0  0  0  0  0  0  0  0
    7.1860   -6.2177   24.6318 H   0  0  0  0  0  0  0  0  0  0  0  0
    7.9246   -7.8119   24.8187 H   0  0  0  0  0  0  0  0  0  0  0  0
    9.6778    1.0140   24.6966 H   0  0  0  0  0  0  0  0  0  0  0  0
    9.6316    1.9637   23.2107 H   0  0  0  0  0  0  0  0  0  0  0  0
    8.1334   -1.7991   21.3673 H   0  0  0  0  0  0  0  0  0  0  0  0
  1  2  1  0  0  0  0
  1  3  2  0  0  0  0
  2  4  2  0  0  0  0
  3 13  1  0  0  0  0
  4 14  1  0  0  0  0
  5  7  2  0  0  0  0
  5 15  1  0  0  0  0
  6  8  1  0  0  0  0
  6 15  2  0  0  0  0
  7 16  1  0  0  0  0
  8 16  2  0  0  0  0
  9 10  2  0  0  0  0
  9 12  1  0  0  0  0
 10 31  1  0  0  0  0
 11 12  2  0  0  0  0
 11 31  1  0  0  0  0
 12 22  1  0  0  0  0
 13 14  2  0  0  0  0
 13 23  1  0  0  0  0
 14 25  1  0  0  0  0
 15 26  1  0  0  0  0
 16 28  1  0  0  0  0
 17 27  1  0  0  0  0
 17 28  1  0  0  0  0
 17 29  2  0  0  0  0
 18 20  1  0  0  0  0
 18 26  1  0  0  0  0
 19 21  1  0  0  0  0
 19 26  1  0  0  0  0
 20 30  1  0  0  0  0
 21 30  1  0  0  0  0
 22 28  1  0  0  0  0
 23 24  2  0  0  0  0
 24 25  1  0  0  0  0
 25 27  1  0  0  0  0
  1 32  1  0  0  0  0
  2 33  1  0  0  0  0
  3 34  1  0  0  0  0
  4 35  1  0  0  0  0
  5 36  1  0  0  0  0
  6 37  1  0  0  0  0
  7 38  1  0  0  0  0
  8 39  1  0  0  0  0
  9 40  1  0  0  0  0
 10 41  1  0  0  0  0
 11 42  1  0  0  0  0
 18 43  1  0  0  0  0
 18 44  1  0  0  0  0
 19 45  1  0  0  0  0
 19 46  1  0  0  0  0
 20 47  1  0  0  0  0
 20 48  1  0  0  0  0
 21 49  1  0  0  0  0
 21 50  1  0  0  0  0
 22 51  1  0  0  0  0
 22 52  1  0  0  0  0
 27 53  1  0  0  0  0
M  END
> <clash_score>
0

> <docking_score>
-8.808181762695312

> <overlap_score>
0.9908769130706787

$$$$
BENZO_28_1
  -OEChem-08222022383D

 49 52  0     0  0  0  0  0  0999 V2000
    4.0980    2.1130   19.5350 C   0  0  0  0  0  0  0  0  0  0  0  0
    4.2970    1.6690   20.8430 C   0  0  0  0  0  0  0  0  0  0  0  0
    4.9400    1.7060   18.5060 C   0  0  0  0  0  0  0  0  0  0  0  0
    5.3360    0.8000   21.1530 C   0  0  0  0  0  0  0  0  0  0  0  0
    8.3510   -1.5420   24.6110 C   0  0  0  0  0  0  0  0  0  0  0  0
   10.2760   -2.3270   23.4020 C   0  0  0  0  0  0  0  0  0  0  0  0
    8.3310   -2.7170   25.3430 C   0  0  0  0  0  0  0  0  0  0  0  0
   10.2570   -3.5000   24.1350 C   0  0  0  0  0  0  0  0  0  0  0  0
   12.2675    1.0332   22.3812 C   0  0  0  0  0  0  0  0  0  0  0  0
   13.6257    0.9906   22.6074 C   0  0  0  0  0  0  0  0  0  0  0  0
   12.3384    0.9467   24.7028 C   0  0  0  0  0  0  0  0  0  0  0  0
    7.6830   -0.5170   18.7600 C   0  0  0  0  0  0  0  0  0  0  0  0
   11.5217    1.0079   23.5949 C   0  0  0  0  0  0  0  0  0  0  0  0
    5.9810    0.8330   18.8060 C   0  0  0  0  0  0  0  0  0  0  0  0
    6.1600    0.3870   20.1140 C   0  0  0  0  0  0  0  0  0  0  0  0
    9.3300   -1.3350   23.6390 C   0  0  0  0  0  0  0  0  0  0  0  0
    9.2850   -3.7090   25.1090 C   0  0  0  0  0  0  0  0  0  0  0  0
    8.9510    0.1280   21.6880 C   0  0  0  0  0  0  0  0  0  0  0  0
    8.2498   -5.1179   26.8642 C   0  0  0  0  0  0  0  0  0  0  0  0
   10.2421   -5.9411   25.5986 C   0  0  0  0  0  0  0  0  0  0  0  0
   10.0220    1.0430   23.6570 C   0  0  0  0  0  0  0  0  0  0  0  0
    6.9440    0.2550   18.0100 N   0  0  0  0  0  0  0  0  0  0  0  0
    7.2210   -0.4620   20.0350 N   0  0  0  0  0  0  0  0  0  0  0  0
    8.0810   -0.9750   21.0820 N   0  0  0  0  0  0  0  0  0  0  0  0
    9.4200   -0.0840   22.9530 N   0  0  0  0  0  0  0  0  0  0  0  0
    9.2624   -4.9028   25.8498 N   0  0  0  0  0  0  0  0  0  0  0  0
    9.1870    1.1500   21.0630 O   0  0  0  0  0  0  0  0  0  0  0  0
   13.9969    0.9203   24.2776 S   0  0  0  0  0  0  0  0  0  0  0  0
    3.2711    2.7870   19.3201 H   0  0  0  0  0  0  0  0  0  0  0  0
    3.6262    2.0082   21.6284 H   0  0  0  0  0  0  0  0  0  0  0  0
    4.7816    2.0660   17.4901 H   0  0  0  0  0  0  0  0  0  0  0  0
    5.4934    0.4579   22.1787 H   0  0  0  0  0  0  0  0  0  0  0  0
    7.5947   -0.7787   24.7997 H   0  0  0  0  0  0  0  0  0  0  0  0
   11.0404   -2.1861   22.6352 H   0  0  0  0  0  0  0  0  0  0  0  0
    7.5641   -2.8632   26.1047 H   0  0  0  0  0  0  0  0  0  0  0  0
   11.0135   -4.2647   23.9425 H   0  0  0  0  0  0  0  0  0  0  0  0
   11.8338    1.0798   21.3902 H   0  0  0  0  0  0  0  0  0  0  0  0
   14.4176    0.9966   21.8719 H   0  0  0  0  0  0  0  0  0  0  0  0
   12.0446    0.9149   25.7428 H   0  0  0  0  0  0  0  0  0  0  0  0
    8.5166   -1.1054   18.4533 H   0  0  0  0  0  0  0  0  0  0  0  0
    8.3986   -6.1041   27.3281 H   0  0  0  0  0  0  0  0  0  0  0  0
    8.3293   -4.3353   27.6331 H   0  0  0  0  0  0  0  0  0  0  0  0
    7.2528   -5.0772   26.4012 H   0  0  0  0  0  0  0  0  0  0  0  0
   10.0587   -6.7900   26.2736 H   0  0  0  0  0  0  0  0  0  0  0  0
   10.1594   -6.2782   24.5548 H   0  0  0  0  0  0  0  0  0  0  0  0
   11.2520   -5.5429   25.7764 H   0  0  0  0  0  0  0  0  0  0  0  0
    9.6778    1.0140   24.6966 H   0  0  0  0  0  0  0  0  0  0  0  0
    9.6316    1.9637   23.2107 H   0  0  0  0  0  0  0  0  0  0  0  0
    8.0998   -1.8216   21.3383 H   0  0  0  0  0  0  0  0  0  0  0  0
  1  2  1  0  0  0  0
  1  3  2  0  0  0  0
  2  4  2  0  0  0  0
  3 14  1  0  0  0  0
  4 15  1  0  0  0  0
  5  7  2  0  0  0  0
  5 16  1  0  0  0  0
  6  8  1  0  0  0  0
  6 16  2  0  0  0  0
  7 17  1  0  0  0  0
  8 17  2  0  0  0  0
  9 10  2  0  0  0  0
  9 13  1  0  0  0  0
 10 28  1  0  0  0  0
 11 13  2  0  0  0  0
 11 28  1  0  0  0  0
 12 22  2  0  0  0  0
 12 23  1  0  0  0  0
 13 21  1  0  0  0  0
 14 15  2  0  0  0  0
 14 22  1  0  0  0  0
 15 23  1  0  0  0  0
 16 25  1  0  0  0  0
 17 26  1  0  0  0  0
 18 24  1  0  0  0  0
 18 25  1  0  0  0  0
 18 27  2  0  0  0  0
 19 26  1  0  0  0  0
 20 26  1  0  0  0  0
 21 25  1  0  0  0  0
 23 24  1  0  0  0  0
  1 29  1  0  0  0  0
  2 30  1  0  0  0  0
  3 31  1  0  0  0  0
  4 32  1  0  0  0  0
  5 33  1  0  0  0  0
  6 34  1  0  0  0  0
  7 35  1  0  0  0  0
  8 36  1  0  0  0  0
  9 37  1  0  0  0  0
 10 38  1  0  0  0  0
 11 39  1  0  0  0  0
 12 40  1  0  0  0  0
 19 41  1  0  0  0  0
 19 42  1  0  0  0  0
 19 43  1  0  0  0  0
 20 44  1  0  0  0  0
 20 45  1  0  0  0  0
 20 46  1  0  0  0  0
 21 47  1  0  0  0  0
 21 48  1  0  0  0  0
 24 49  1  0  0  0  0
M  END
> <clash_score>
0

> <docking_score>
-10.143765449523926

> <overlap_score>
0.9772632718086243

$$$$
BENZO_26_1
  -OEChem-08222022383D

 56 60  0     0  0  0  0  0  0999 V2000
    4.0980    2.1130   19.5350 C   0  0  0  0  0  0  0  0  0  0  0  0
    4.2970    1.6690   20.8430 C   0  0  0  0  0  0  0  0  0  0  0  0
   13.5977    1.8457   22.6865 C   0  0  0  0  0  0  0  0  0  0  0  0
   12.2044    1.8769   22.7438 C   0  0  0  0  0  0  0  0  0  0  0  0
    4.9400    1.7060   18.5060 C   0  0  0  0  0  0  0  0  0  0  0  0
    5.3360    0.8000   21.1530 C   0  0  0  0  0  0  0  0  0  0  0  0
    8.3310   -2.7170   25.3430 C   0  0  0  0  0  0  0  0  0  0  0  0
   10.2570   -3.5000   24.1350 C   0  0  0  0  0  0  0  0  0  0  0  0
    8.3510   -1.5420   24.6110 C   0  0  0  0  0  0  0  0  0  0  0  0
   10.2760   -2.3270   23.4020 C   0  0  0  0  0  0  0  0  0  0  0  0
   14.3084    0.9454   23.4803 C   0  0  0  0  0  0  0  0  0  0  0  0
   12.2323    0.1076   24.3888 C   0  0  0  0  0  0  0  0  0  0  0  0
   11.5217    1.0079   23.5949 C   0  0  0  0  0  0  0  0  0  0  0  0
    5.9810    0.8330   18.8060 C   0  0  0  0  0  0  0  0  0  0  0  0
    6.1600    0.3870   20.1140 C   0  0  0  0  0  0  0  0  0  0  0  0
    9.2850   -3.7090   25.1090 C   0  0  0  0  0  0  0  0  0  0  0  0
    9.3300   -1.3350   23.6390 C   0  0  0  0  0  0  0  0  0  0  0  0
   13.6257    0.0764   24.3314 C   0  0  0  0  0  0  0  0  0  0  0  0
    8.9510    0.1280   21.6880 C   0  0  0  0  0  0  0  0  0  0  0  0
    8.7666   -4.9523   27.2147 C   0  0  0  0  0  0  0  0  0  0  0  0
    9.3034   -6.1866   25.1651 C   0  0  0  0  0  0  0  0  0  0  0  0
    7.3827   -5.5925   27.1999 C   0  0  0  0  0  0  0  0  0  0  0  0
    7.9024   -6.7967   25.2263 C   0  0  0  0  0  0  0  0  0  0  0  0
   10.0220    1.0430   23.6570 C   0  0  0  0  0  0  0  0  0  0  0  0
    6.9440    0.2550   18.0100 N   0  0  0  0  0  0  0  0  0  0  0  0
    7.6830   -0.5170   18.7600 N   0  0  0  0  0  0  0  0  0  0  0  0
    7.2210   -0.4620   20.0350 N   0  0  0  0  0  0  0  0  0  0  0  0
    9.2640   -4.8844   25.8389 N   0  0  0  0  0  0  0  0  0  0  0  0
    8.0810   -0.9750   21.0820 N   0  0  0  0  0  0  0  0  0  0  0  0
    9.4200   -0.0840   22.9530 N   0  0  0  0  0  0  0  0  0  0  0  0
    9.1870    1.1500   21.0630 O   0  0  0  0  0  0  0  0  0  0  0  0
    7.4483   -6.8833   26.5817 O   0  0  0  0  0  0  0  0  0  0  0  0
   14.5031   -1.0334   25.3114 Cl  0  0  0  0  0  0  0  0  0  0  0  0
    3.2714    2.7876   19.3199 H   0  0  0  0  0  0  0  0  0  0  0  0
    3.6283    2.0091   21.6296 H   0  0  0  0  0  0  0  0  0  0  0  0
   14.1289    2.5226   22.0237 H   0  0  0  0  0  0  0  0  0  0  0  0
   11.6588    2.5818   22.1218 H   0  0  0  0  0  0  0  0  0  0  0  0
    4.7824    2.0670   17.4883 H   0  0  0  0  0  0  0  0  0  0  0  0
    5.4937    0.4574   22.1805 H   0  0  0  0  0  0  0  0  0  0  0  0
    7.5647   -2.8621   26.1053 H   0  0  0  0  0  0  0  0  0  0  0  0
   11.0144   -4.2642   23.9425 H   0  0  0  0  0  0  0  0  0  0  0  0
    7.5958   -0.7779   24.8006 H   0  0  0  0  0  0  0  0  0  0  0  0
   11.0406   -2.1848   22.6356 H   0  0  0  0  0  0  0  0  0  0  0  0
   15.3941    0.9323   23.4255 H   0  0  0  0  0  0  0  0  0  0  0  0
   11.6954   -0.5682   25.0504 H   0  0  0  0  0  0  0  0  0  0  0  0
    8.7030   -3.9561   27.6574 H   0  0  0  0  0  0  0  0  0  0  0  0
    9.4460   -5.5639   27.8143 H   0  0  0  0  0  0  0  0  0  0  0  0
   10.0083   -6.8392   25.6817 H   0  0  0  0  0  0  0  0  0  0  0  0
    9.6089   -6.0802   24.1251 H   0  0  0  0  0  0  0  0  0  0  0  0
    7.0281   -5.7334   28.2231 H   0  0  0  0  0  0  0  0  0  0  0  0
    6.6541   -4.9678   26.6754 H   0  0  0  0  0  0  0  0  0  0  0  0
    7.1860   -6.2177   24.6318 H   0  0  0  0  0  0  0  0  0  0  0  0
    7.9246   -7.8119   24.8187 H   0  0  0  0  0  0  0  0  0  0  0  0
    9.6778    1.0140   24.6966 H   0  0  0  0  0  0  0  0  0  0  0  0
    9.6316    1.9637   23.2107 H   0  0  0  0  0  0  0  0  0  0  0  0
    8.1334   -1.7991   21.3673 H   0  0  0  0  0  0  0  0  0  0  0  0
  1  2  1  0  0  0  0
  1  5  2  0  0  0  0
  2  6  2  0  0  0  0
  3  4  2  0  0  0  0
  3 11  1  0  0  0  0
  4 13  1  0  0  0  0
  5 14  1  0  0  0  0
  6 15  1  0  0  0  0
  7  9  2  0  0  0  0
  7 16  1  0  0  0  0
  8 10  1  0  0  0  0
  8 16  2  0  0  0  0
  9 17  1  0  0  0  0
 10 17  2  0  0  0  0
 11 18  2  0  0  0  0
 12 13  2  0  0  0  0
 12 18  1  0  0  0  0
 13 24  1  0  0  0  0
 14 15  2  0  0  0  0
 14 25  1  0  0  0  0
 15 27  1  0  0  0  0
 16 28  1  0  0  0  0
 17 30  1  0  0  0  0
 18 33  1  0  0  0  0
 19 29  1  0  0  0  0
 19 30  1  0  0  0  0
 19 31  2  0  0  0  0
 20 22  1  0  0  0  0
 20 28  1  0  0  0  0
 21 23  1  0  0  0  0
 21 28  1  0  0  0  0
 22 32  1  0  0  0  0
 23 32  1  0  0  0  0
 24 30  1  0  0  0  0
 25 26  2  0  0  0  0
 26 27  1  0  0  0  0
 27 29  1  0  0  0  0
  1 34  1  0  0  0  0
  2 35  1  0  0  0  0
  3 36  1  0  0  0  0
  4 37  1  0  0  0  0
  5 38  1  0  0  0  0
  6 39  1  0  0  0  0
  7 40  1  0  0  0  0
  8 41  1  0  0  0  0
  9 42  1  0  0  0  0
 10 43  1  0  0  0  0
 11 44  1  0  0  0  0
 12 45  1  0  0  0  0
 20 46  1  0  0  0  0
 20 47  1  0  0  0  0
 21 48  1  0  0  0  0
 21 49  1  0  0  0  0
 22 50  1  0  0  0  0
 22 51  1  0  0  0  0
 23 52  1  0  0  0  0
 23 53  1  0  0  0  0
 24 54  1  0  0  0  0
 24 55  1  0  0  0  0
 29 56  1  0  0  0  0
M  END
> <clash_score>
0.7662460431845144

> <docking_score>
-7.743889808654785

> <overlap_score>
1.0216712951660156

$$$$
BENZO_27_1
  -OEChem-08222022383D

 56 60  0     0  0  0  0  0  0999 V2000
    4.0980    2.1130   19.5350 C   0  0  0  0  0  0  0  0  0  0  0  0
    4.2970    1.6690   20.8430 C   0  0  0  0  0  0  0  0  0  0  0  0
    4.9400    1.7060   18.5060 C   0  0  0  0  0  0  0  0  0  0  0  0
    5.3360    0.8000   21.1530 C   0  0  0  0  0  0  0  0  0  0  0  0
    8.3310   -2.7170   25.3430 C   0  0  0  0  0  0  0  0  0  0  0  0
   10.2570   -3.5000   24.1350 C   0  0  0  0  0  0  0  0  0  0  0  0
    8.3510   -1.5420   24.6110 C   0  0  0  0  0  0  0  0  0  0  0  0
   10.2760   -2.3270   23.4020 C   0  0  0  0  0  0  0  0  0  0  0  0
   12.4359    1.7439   24.3724 C   0  0  0  0  0  0  0  0  0  0  0  0
   12.3100    0.2469   22.7668 C   0  0  0  0  0  0  0  0  0  0  0  0
   11.5217    1.0079   23.5949 C   0  0  0  0  0  0  0  0  0  0  0  0
    5.9810    0.8330   18.8060 C   0  0  0  0  0  0  0  0  0  0  0  0
    6.1600    0.3870   20.1140 C   0  0  0  0  0  0  0  0  0  0  0  0
    9.2850   -3.7090   25.1090 C   0  0  0  0  0  0  0  0  0  0  0  0
    9.3300   -1.3350   23.6390 C   0  0  0  0  0  0  0  0  0  0  0  0
    8.9510    0.1280   21.6880 C   0  0  0  0  0  0  0  0  0  0  0  0
    8.7666   -4.9523   27.2147 C   0  0  0  0  0  0  0  0  0  0  0  0
    9.3034   -6.1866   25.1651 C   0  0  0  0  0  0  0  0  0  0  0  0
    7.3827   -5.5925   27.1999 C   0  0  0  0  0  0  0  0  0  0  0  0
    7.9024   -6.7967   25.2263 C   0  0  0  0  0  0  0  0  0  0  0  0
   14.7884    0.0124   22.4815 C   0  0  0  0  0  0  0  0  0  0  0  0
   10.0220    1.0430   23.6570 C   0  0  0  0  0  0  0  0  0  0  0  0
   13.7076    1.4745   24.0657 N   0  0  0  0  0  0  0  0  0  0  0  0
    6.9440    0.2550   18.0100 N   0  0  0  0  0  0  0  0  0  0  0  0
    7.6830   -0.5170   18.7600 N   0  0  0  0  0  0  0  0  0  0  0  0
   13.5982    0.5607   23.0864 N   0  0  0  0  0  0  0  0  0  0  0  0
    7.2210   -0.4620   20.0350 N   0  0  0  0  0  0  0  0  0  0  0  0
    9.2640   -4.8844   25.8389 N   0  0  0  0  0  0  0  0  0  0  0  0
    8.0810   -0.9750   21.0820 N   0  0  0  0  0  0  0  0  0  0  0  0
    9.4200   -0.0840   22.9530 N   0  0  0  0  0  0  0  0  0  0  0  0
    9.1870    1.1500   21.0630 O   0  0  0  0  0  0  0  0  0  0  0  0
    7.4483   -6.8833   26.5817 O   0  0  0  0  0  0  0  0  0  0  0  0
    3.2714    2.7876   19.3199 H   0  0  0  0  0  0  0  0  0  0  0  0
    3.6283    2.0091   21.6296 H   0  0  0  0  0  0  0  0  0  0  0  0
    4.7824    2.0670   17.4883 H   0  0  0  0  0  0  0  0  0  0  0  0
    5.4937    0.4574   22.1805 H   0  0  0  0  0  0  0  0  0  0  0  0
    7.5647   -2.8621   26.1053 H   0  0  0  0  0  0  0  0  0  0  0  0
   11.0144   -4.2642   23.9425 H   0  0  0  0  0  0  0  0  0  0  0  0
    7.5958   -0.7779   24.8006 H   0  0  0  0  0  0  0  0  0  0  0  0
   11.0406   -2.1848   22.6356 H   0  0  0  0  0  0  0  0  0  0  0  0
   12.2308    2.4652   25.1508 H   0  0  0  0  0  0  0  0  0  0  0  0
   12.0700   -0.4744   21.9974 H   0  0  0  0  0  0  0  0  0  0  0  0
    8.7030   -3.9561   27.6574 H   0  0  0  0  0  0  0  0  0  0  0  0
    9.4460   -5.5639   27.8143 H   0  0  0  0  0  0  0  0  0  0  0  0
   10.0083   -6.8392   25.6817 H   0  0  0  0  0  0  0  0  0  0  0  0
    9.6089   -6.0802   24.1251 H   0  0  0  0  0  0  0  0  0  0  0  0
    7.0281   -5.7334   28.2231 H   0  0  0  0  0  0  0  0  0  0  0  0
    6.6541   -4.9678   26.6754 H   0  0  0  0  0  0  0  0  0  0  0  0
    7.1860   -6.2177   24.6318 H   0  0  0  0  0  0  0  0  0  0  0  0
    7.9246   -7.8119   24.8187 H   0  0  0  0  0  0  0  0  0  0  0  0
   15.0569    0.6453   21.6315 H   0  0  0  0  0  0  0  0  0  0  0  0
   15.5971   -0.0026   23.2174 H   0  0  0  0  0  0  0  0  0  0  0  0
   14.5870   -1.0100   22.1498 H   0  0  0  0  0  0  0  0  0  0  0  0
    9.6778    1.0140   24.6966 H   0  0  0  0  0  0  0  0  0  0  0  0
    9.6316    1.9637   23.2107 H   0  0  0  0  0  0  0  0  0  0  0  0
    8.1334   -1.7991   21.3673 H   0  0  0  0  0  0  0  0  0  0  0  0
  1  2  1  0  0  0  0
  1  3  2  0  0  0  0
  2  4  2  0  0  0  0
  3 12  1  0  0  0  0
  4 13  1  0  0  0  0
  5  7  2  0  0  0  0
  5 14  1  0  0  0  0
  6  8  1  0  0  0  0
  6 14  2  0  0  0  0
  7 15  1  0  0  0  0
  8 15  2  0  0  0  0
  9 11  1  0  0  0  0
  9 23  2  0  0  0  0
 10 11  2  0  0  0  0
 10 26  1  0  0  0  0
 11 22  1  0  0  0  0
 12 13  2  0  0  0  0
 12 24  1  0  0  0  0
 13 27  1  0  0  0  0
 14 28  1  0  0  0  0
 15 30  1  0  0  0  0
 16 29  1  0  0  0  0
 16 30  1  0  0  0  0
 16 31  2  0  0  0  0
 17 19  1  0  0  0  0
 17 28  1  0  0  0  0
 18 20  1  0  0  0  0
 18 28  1  0  0  0  0
 19 32  1  0  0  0  0
 20 32  1  0  0  0  0
 21 26  1  0  0  0  0
 22 30  1  0  0  0  0
 23 26  1  0  0  0  0
 24 25  2  0  0  0  0
 25 27  1  0  0  0  0
 27 29  1  0  0  0  0
  1 33  1  0  0  0  0
  2 34  1  0  0  0  0
  3 35  1  0  0  0  0
  4 36  1  0  0  0  0
  5 37  1  0  0  0  0
  6 38  1  0  0  0  0
  7 39  1  0  0  0  0
  8 40  1  0  0  0  0
  9 41  1  0  0  0  0
 10 42  1  0  0  0  0
 17 43  1  0  0  0  0
 17 44  1  0  0  0  0
 18 45  1  0  0  0  0
 18 46  1  0  0  0  0
 19 47  1  0  0  0  0
 19 48  1  0  0  0  0
 20 49  1  0  0  0  0
 20 50  1  0  0  0  0
 21 51  1  0  0  0  0
 21 52  1  0  0  0  0
 21 53  1  0  0  0  0
 22 54  1  0  0  0  0
 22 55  1  0  0  0  0
 29 56  1  0  0  0  0
M  END
> <clash_score>
0

> <docking_score>
-8.776590347290039

> <overlap_score>
1.0026934146881104

$$$$
BENZO_31_1
  -OEChem-08222022383D

 52 55  0     0  0  0  0  0  0999 V2000
    4.0980    2.1130   19.5350 C   0  0  0  0  0  0  0  0  0  0  0  0
    4.2970    1.6690   20.8430 C   0  0  0  0  0  0  0  0  0  0  0  0
    4.9400    1.7060   18.5060 C   0  0  0  0  0  0  0  0  0  0  0  0
    5.3360    0.8000   21.1530 C   0  0  0  0  0  0  0  0  0  0  0  0
    8.3510   -1.5420   24.6110 C   0  0  0  0  0  0  0  0  0  0  0  0
   10.2760   -2.3270   23.4020 C   0  0  0  0  0  0  0  0  0  0  0  0
    8.3310   -2.7170   25.3430 C   0  0  0  0  0  0  0  0  0  0  0  0
   10.2570   -3.5000   24.1350 C   0  0  0  0  0  0  0  0  0  0  0  0
   12.4359    1.7439   24.3724 C   0  0  0  0  0  0  0  0  0  0  0  0
   12.3100    0.2469   22.7668 C   0  0  0  0  0  0  0  0  0  0  0  0
    7.6830   -0.5170   18.7600 C   0  0  0  0  0  0  0  0  0  0  0  0
   11.5217    1.0079   23.5949 C   0  0  0  0  0  0  0  0  0  0  0  0
    5.9810    0.8330   18.8060 C   0  0  0  0  0  0  0  0  0  0  0  0
    6.1600    0.3870   20.1140 C   0  0  0  0  0  0  0  0  0  0  0  0
    9.3300   -1.3350   23.6390 C   0  0  0  0  0  0  0  0  0  0  0  0
    9.2850   -3.7090   25.1090 C   0  0  0  0  0  0  0  0  0  0  0  0
    8.9510    0.1280   21.6880 C   0  0  0  0  0  0  0  0  0  0  0  0
   14.7884    0.0124   22.4815 C   0  0  0  0  0  0  0  0  0  0  0  0
    8.2498   -5.1179   26.8642 C   0  0  0  0  0  0  0  0  0  0  0  0
   10.2421   -5.9411   25.5986 C   0  0  0  0  0  0  0  0  0  0  0  0
   10.0220    1.0430   23.6570 C   0  0  0  0  0  0  0  0  0  0  0  0
   13.7076    1.4745   24.0657 N   0  0  0  0  0  0  0  0  0  0  0  0
    6.9440    0.2550   18.0100 N   0  0  0  0  0  0  0  0  0  0  0  0
   13.5982    0.5607   23.0864 N   0  0  0  0  0  0  0  0  0  0  0  0
    7.2210   -0.4620   20.0350 N   0  0  0  0  0  0  0  0  0  0  0  0
    8.0810   -0.9750   21.0820 N   0  0  0  0  0  0  0  0  0  0  0  0
    9.4200   -0.0840   22.9530 N   0  0  0  0  0  0  0  0  0  0  0  0
    9.2624   -4.9028   25.8498 N   0  0  0  0  0  0  0  0  0  0  0  0
    9.1870    1.1500   21.0630 O   0  0  0  0  0  0  0  0  0  0  0  0
    3.2711    2.7870   19.3201 H   0  0  0  0  0  0  0  0  0  0  0  0
    3.6262    2.0082   21.6284 H   0  0  0  0  0  0  0  0  0  0  0  0
    4.7816    2.0660   17.4901 H   0  0  0  0  0  0  0  0  0  0  0  0
    5.4934    0.4579   22.1787 H   0  0  0  0  0  0  0  0  0  0  0  0
    7.5947   -0.7787   24.7997 H   0  0  0  0  0  0  0  0  0  0  0  0
   11.0404   -2.1861   22.6352 H   0  0  0  0  0  0  0  0  0  0  0  0
    7.5641   -2.8632   26.1047 H   0  0  0  0  0  0  0  0  0  0  0  0
   11.0135   -4.2647   23.9425 H   0  0  0  0  0  0  0  0  0  0  0  0
   12.2308    2.4652   25.1508 H   0  0  0  0  0  0  0  0  0  0  0  0
   12.0700   -0.4744   21.9974 H   0  0  0  0  0  0  0  0  0  0  0  0
    8.5166   -1.1054   18.4533 H   0  0  0  0  0  0  0  0  0  0  0  0
   15.0569    0.6453   21.6315 H   0  0  0  0  0  0  0  0  0  0  0  0
   15.5971   -0.0026   23.2174 H   0  0  0  0  0  0  0  0  0  0  0  0
   14.5870   -1.0100   22.1498 H   0  0  0  0  0  0  0  0  0  0  0  0
    8.3986   -6.1041   27.3281 H   0  0  0  0  0  0  0  0  0  0  0  0
    8.3293   -4.3353   27.6331 H   0  0  0  0  0  0  0  0  0  0  0  0
    7.2528   -5.0772   26.4012 H   0  0  0  0  0  0  0  0  0  0  0  0
   10.0587   -6.7900   26.2736 H   0  0  0  0  0  0  0  0  0  0  0  0
   10.1594   -6.2782   24.5548 H   0  0  0  0  0  0  0  0  0  0  0  0
   11.2520   -5.5429   25.7764 H   0  0  0  0  0  0  0  0  0  0  0  0
    9.6778    1.0140   24.6966 H   0  0  0  0  0  0  0  0  0  0  0  0
    9.6316    1.9637   23.2107 H   0  0  0  0  0  0  0  0  0  0  0  0
    8.0998   -1.8216   21.3383 H   0  0  0  0  0  0  0  0  0  0  0  0
  1  2  1  0  0  0  0
  1  3  2  0  0  0  0
  2  4  2  0  0  0  0
  3 13  1  0  0  0  0
  4 14  1  0  0  0  0
  5  7  2  0  0  0  0
  5 15  1  0  0  0  0
  6  8  1  0  0  0  0
  6 15  2  0  0  0  0
  7 16  1  0  0  0  0
  8 16  2  0  0  0  0
  9 12  1  0  0  0  0
  9 22  2  0  0  0  0
 10 12  2  0  0  0  0
 10 24  1  0  0  0  0
 11 23  2  0  0  0  0
 11 25  1  0  0  0  0
 12 21  1  0  0  0  0
 13 14  2  0  0  0  0
 13 23  1  0  0  0  0
 14 25  1  0  0  0  0
 15 27  1  0  0  0  0
 16 28  1  0  0  0  0
 17 26  1  0  0  0  0
 17 27  1  0  0  0  0
 17 29  2  0  0  0  0
 18 24  1  0  0  0  0
 19 28  1  0  0  0  0
 20 28  1  0  0  0  0
 21 27  1  0  0  0  0
 22 24  1  0  0  0  0
 25 26  1  0  0  0  0
  1 30  1  0  0  0  0
  2 31  1  0  0  0  0
  3 32  1  0  0  0  0
  4 33  1  0  0  0  0
  5 34  1  0  0  0  0
  6 35  1  0  0  0  0
  7 36  1  0  0  0  0
  8 37  1  0  0  0  0
  9 38  1  0  0  0  0
 10 39  1  0  0  0  0
 11 40  1  0  0  0  0
 18 41  1  0  0  0  0
 18 42  1  0  0  0  0
 18 43  1  0  0  0  0
 19 44  1  0  0  0  0
 19 45  1  0  0  0  0
 19 46  1  0  0  0  0
 20 47  1  0  0  0  0
 20 48  1  0  0  0  0
 20 49  1  0  0  0  0
 21 50  1  0  0  0  0
 21 51  1  0  0  0  0
 26 52  1  0  0  0  0
M  END
> <clash_score>
0

> <docking_score>
-10.112166404724121

> <overlap_score>
0.9891872406005859

$$$$
BENZO_30_1
  -OEChem-08222022383D

 52 55  0     0  0  0  0  0  0999 V2000
    4.0980    2.1130   19.5350 C   0  0  0  0  0  0  0  0  0  0  0  0
    4.2970    1.6690   20.8430 C   0  0  0  0  0  0  0  0  0  0  0  0
   13.5977    1.8457   22.6865 C   0  0  0  0  0  0  0  0  0  0  0  0
   12.2044    1.8769   22.7438 C   0  0  0  0  0  0  0  0  0  0  0  0
    4.9400    1.7060   18.5060 C   0  0  0  0  0  0  0  0  0  0  0  0
    5.3360    0.8000   21.1530 C   0  0  0  0  0  0  0  0  0  0  0  0
    8.3510   -1.5420   24.6110 C   0  0  0  0  0  0  0  0  0  0  0  0
   10.2760   -2.3270   23.4020 C   0  0  0  0  0  0  0  0  0  0  0  0
    8.3310   -2.7170   25.3430 C   0  0  0  0  0  0  0  0  0  0  0  0
   10.2570   -3.5000   24.1350 C   0  0  0  0  0  0  0  0  0  0  0  0
   14.3084    0.9454   23.4803 C   0  0  0  0  0  0  0  0  0  0  0  0
   12.2323    0.1076   24.3888 C   0  0  0  0  0  0  0  0  0  0  0  0
    7.6830   -0.5170   18.7600 C   0  0  0  0  0  0  0  0  0  0  0  0
   11.5217    1.0079   23.5949 C   0  0  0  0  0  0  0  0  0  0  0  0
    5.9810    0.8330   18.8060 C   0  0  0  0  0  0  0  0  0  0  0  0
    6.1600    0.3870   20.1140 C   0  0  0  0  0  0  0  0  0  0  0  0
    9.3300   -1.3350   23.6390 C   0  0  0  0  0  0  0  0  0  0  0  0
    9.2850   -3.7090   25.1090 C   0  0  0  0  0  0  0  0  0  0  0  0
   13.6257    0.0764   24.3314 C   0  0  0  0  0  0  0  0  0  0  0  0
    8.9510    0.1280   21.6880 C   0  0  0  0  0  0  0  0  0  0  0  0
    8.2498   -5.1179   26.8642 C   0  0  0  0  0  0  0  0  0  0  0  0
   10.2421   -5.9411   25.5986 C   0  0  0  0  0  0  0  0  0  0  0  0
   10.0220    1.0430   23.6570 C   0  0  0  0  0  0  0  0  0  0  0  0
    6.9440    0.2550   18.0100 N   0  0  0  0  0  0  0  0  0  0  0  0
    7.2210   -0.4620   20.0350 N   0  0  0  0  0  0  0  0  0  0  0  0
    8.0810   -0.9750   21.0820 N   0  0  0  0  0  0  0  0  0  0  0  0
    9.4200   -0.0840   22.9530 N   0  0  0  0  0  0  0  0  0  0  0  0
    9.2624   -4.9028   25.8498 N   0  0  0  0  0  0  0  0  0  0  0  0
    9.1870    1.1500   21.0630 O   0  0  0  0  0  0  0  0  0  0  0  0
   14.5031   -1.0334   25.3114 Cl  0  0  0  0  0  0  0  0  0  0  0  0
    3.2711    2.7870   19.3201 H   0  0  0  0  0  0  0  0  0  0  0  0
    3.6262    2.0082   21.6284 H   0  0  0  0  0  0  0  0  0  0  0  0
   14.1289    2.5227   22.0237 H   0  0  0  0  0  0  0  0  0  0  0  0
   11.6588    2.5818   22.1218 H   0  0  0  0  0  0  0  0  0  0  0  0
    4.7816    2.0660   17.4901 H   0  0  0  0  0  0  0  0  0  0  0  0
    5.4934    0.4579   22.1787 H   0  0  0  0  0  0  0  0  0  0  0  0
    7.5947   -0.7787   24.7997 H   0  0  0  0  0  0  0  0  0  0  0  0
   11.0404   -2.1861   22.6352 H   0  0  0  0  0  0  0  0  0  0  0  0
    7.5641   -2.8632   26.1047 H   0  0  0  0  0  0  0  0  0  0  0  0
   11.0135   -4.2647   23.9425 H   0  0  0  0  0  0  0  0  0  0  0  0
   15.3941    0.9323   23.4255 H   0  0  0  0  0  0  0  0  0  0  0  0
   11.6954   -0.5682   25.0504 H   0  0  0  0  0  0  0  0  0  0  0  0
    8.5166   -1.1054   18.4533 H   0  0  0  0  0  0  0  0  0  0  0  0
    8.3986   -6.1041   27.3281 H   0  0  0  0  0  0  0  0  0  0  0  0
    8.3293   -4.3353   27.6331 H   0  0  0  0  0  0  0  0  0  0  0  0
    7.2528   -5.0772   26.4012 H   0  0  0  0  0  0  0  0  0  0  0  0
   10.0587   -6.7900   26.2736 H   0  0  0  0  0  0  0  0  0  0  0  0
   10.1594   -6.2782   24.5548 H   0  0  0  0  0  0  0  0  0  0  0  0
   11.2520   -5.5429   25.7764 H   0  0  0  0  0  0  0  0  0  0  0  0
    9.6778    1.0140   24.6966 H   0  0  0  0  0  0  0  0  0  0  0  0
    9.6316    1.9637   23.2107 H   0  0  0  0  0  0  0  0  0  0  0  0
    8.0998   -1.8216   21.3383 H   0  0  0  0  0  0  0  0  0  0  0  0
  1  2  1  0  0  0  0
  1  5  2  0  0  0  0
  2  6  2  0  0  0  0
  3  4  2  0  0  0  0
  3 11  1  0  0  0  0
  4 14  1  0  0  0  0
  5 15  1  0  0  0  0
  6 16  1  0  0  0  0
  7  9  2  0  0  0  0
  7 17  1  0  0  0  0
  8 10  1  0  0  0  0
  8 17  2  0  0  0  0
  9 18  1  0  0  0  0
 10 18  2  0  0  0  0
 11 19  2  0  0  0  0
 12 14  2  0  0  0  0
 12 19  1  0  0  0  0
 13 24  2  0  0  0  0
 13 25  1  0  0  0  0
 14 23  1  0  0  0  0
 15 16  2  0  0  0  0
 15 24  1  0  0  0  0
 16 25  1  0  0  0  0
 17 27  1  0  0  0  0
 18 28  1  0  0  0  0
 19 30  1  0  0  0  0
 20 26  1  0  0  0  0
 20 27  1  0  0  0  0
 20 29  2  0  0  0  0
 21 28  1  0  0  0  0
 22 28  1  0  0  0  0
 23 27  1  0  0  0  0
 25 26  1  0  0  0  0
  1 31  1  0  0  0  0
  2 32  1  0  0  0  0
  3 33  1  0  0  0  0
  4 34  1  0  0  0  0
  5 35  1  0  0  0  0
  6 36  1  0  0  0  0
  7 37  1  0  0  0  0
  8 38  1  0  0  0  0
  9 39  1  0  0  0  0
 10 40  1  0  0  0  0
 11 41  1  0  0  0  0
 12 42  1  0  0  0  0
 13 43  1  0  0  0  0
 21 44  1  0  0  0  0
 21 45  1  0  0  0  0
 21 46  1  0  0  0  0
 22 47  1  0  0  0  0
 22 48  1  0  0  0  0
 22 49  1  0  0  0  0
 23 50  1  0  0  0  0
 23 51  1  0  0  0  0
 26 52  1  0  0  0  0
M  END
> <clash_score>
0.7662446160513033

> <docking_score>
-9.07946491241455

> <overlap_score>
1.0082919597625732

$$$$
BENZO_33_1
  -OEChem-08222022383D

 54 57  0     0  0  0  0  0  0999 V2000
   14.3082    0.9431   23.4783 C   0  0  0  0  0  0  0  0  0  0  0  0
   13.6391    0.3091   24.5251 C   0  0  0  0  0  0  0  0  0  0  0  0
   13.5841    1.6096   22.4898 C   0  0  0  0  0  0  0  0  0  0  0  0
    4.0980    2.1130   19.5350 C   0  0  0  0  0  0  0  0  0  0  0  0
    4.2970    1.6690   20.8430 C   0  0  0  0  0  0  0  0  0  0  0  0
   12.2459    0.3415   24.5835 C   0  0  0  0  0  0  0  0  0  0  0  0
   12.1908    1.6420   22.5481 C   0  0  0  0  0  0  0  0  0  0  0  0
    4.9400    1.7060   18.5060 C   0  0  0  0  0  0  0  0  0  0  0  0
    5.3360    0.8000   21.1530 C   0  0  0  0  0  0  0  0  0  0  0  0
    8.3310   -2.7170   25.3430 C   0  0  0  0  0  0  0  0  0  0  0  0
   10.2570   -3.5000   24.1350 C   0  0  0  0  0  0  0  0  0  0  0  0
    8.3510   -1.5420   24.6110 C   0  0  0  0  0  0  0  0  0  0  0  0
   10.2760   -2.3270   23.4020 C   0  0  0  0  0  0  0  0  0  0  0  0
    7.6830   -0.5170   18.7600 C   0  0  0  0  0  0  0  0  0  0  0  0
   11.5217    1.0079   23.5949 C   0  0  0  0  0  0  0  0  0  0  0  0
    5.9810    0.8330   18.8060 C   0  0  0  0  0  0  0  0  0  0  0  0
    6.1600    0.3870   20.1140 C   0  0  0  0  0  0  0  0  0  0  0  0
    9.2850   -3.7090   25.1090 C   0  0  0  0  0  0  0  0  0  0  0  0
    9.3300   -1.3350   23.6390 C   0  0  0  0  0  0  0  0  0  0  0  0
    9.6839   -6.1690   25.4414 C   0  0  0  0  0  0  0  0  0  0  0  0
    8.9510    0.1280   21.6880 C   0  0  0  0  0  0  0  0  0  0  0  0
    8.0382   -7.2886   27.0047 C   0  0  0  0  0  0  0  0  0  0  0  0
   10.0220    1.0430   23.6570 C   0  0  0  0  0  0  0  0  0  0  0  0
    9.4846   -7.1863   26.5550 C   0  0  0  0  0  0  0  0  0  0  0  0
    6.9440    0.2550   18.0100 N   0  0  0  0  0  0  0  0  0  0  0  0
    7.2210   -0.4620   20.0350 N   0  0  0  0  0  0  0  0  0  0  0  0
    9.2630   -4.8902   25.8410 N   0  0  0  0  0  0  0  0  0  0  0  0
    8.0810   -0.9750   21.0820 N   0  0  0  0  0  0  0  0  0  0  0  0
    9.4200   -0.0840   22.9530 N   0  0  0  0  0  0  0  0  0  0  0  0
   10.1566   -6.4800   24.3532 O   0  0  0  0  0  0  0  0  0  0  0  0
    9.1870    1.1500   21.0630 O   0  0  0  0  0  0  0  0  0  0  0  0
   15.3932    0.9189   23.4337 H   0  0  0  0  0  0  0  0  0  0  0  0
   14.2029   -0.2090   25.2955 H   0  0  0  0  0  0  0  0  0  0  0  0
   14.1048    2.1043   21.6752 H   0  0  0  0  0  0  0  0  0  0  0  0
    3.2711    2.7870   19.3201 H   0  0  0  0  0  0  0  0  0  0  0  0
    3.6262    2.0082   21.6284 H   0  0  0  0  0  0  0  0  0  0  0  0
   11.7330   -0.1555   25.4027 H   0  0  0  0  0  0  0  0  0  0  0  0
   11.6349    2.1636   21.7735 H   0  0  0  0  0  0  0  0  0  0  0  0
    4.7816    2.0660   17.4901 H   0  0  0  0  0  0  0  0  0  0  0  0
    5.4934    0.4579   22.1787 H   0  0  0  0  0  0  0  0  0  0  0  0
    7.5639   -2.8621   26.1045 H   0  0  0  0  0  0  0  0  0  0  0  0
   11.0141   -4.2644   23.9422 H   0  0  0  0  0  0  0  0  0  0  0  0
    7.5950   -0.7788   24.8007 H   0  0  0  0  0  0  0  0  0  0  0  0
   11.0408   -2.1861   22.6359 H   0  0  0  0  0  0  0  0  0  0  0  0
    8.5166   -1.1054   18.4533 H   0  0  0  0  0  0  0  0  0  0  0  0
    7.6701   -6.3234   27.3679 H   0  0  0  0  0  0  0  0  0  0  0  0
    7.9415   -8.0182   27.8146 H   0  0  0  0  0  0  0  0  0  0  0  0
    7.3916   -7.6056   26.1798 H   0  0  0  0  0  0  0  0  0  0  0  0
    9.6778    1.0140   24.6966 H   0  0  0  0  0  0  0  0  0  0  0  0
    9.6316    1.9637   23.2107 H   0  0  0  0  0  0  0  0  0  0  0  0
    9.8261   -8.1645   26.1973 H   0  0  0  0  0  0  0  0  0  0  0  0
   10.1125   -6.8978   27.4059 H   0  0  0  0  0  0  0  0  0  0  0  0
    8.8927   -4.8255   26.7964 H   0  0  0  0  0  0  0  0  0  0  0  0
    8.0998   -1.8216   21.3383 H   0  0  0  0  0  0  0  0  0  0  0  0
  1  2  1  0  0  0  0
  1  3  2  0  0  0  0
  2  6  2  0  0  0  0
  3  7  1  0  0  0  0
  4  5  1  0  0  0  0
  4  8  2  0  0  0  0
  5  9  2  0  0  0  0
  6 15  1  0  0  0  0
  7 15  2  0  0  0  0
  8 16  1  0  0  0  0
  9 17  1  0  0  0  0
 10 12  2  0  0  0  0
 10 18  1  0  0  0  0
 11 13  1  0  0  0  0
 11 18  2  0  0  0  0
 12 19  1  0  0  0  0
 13 19  2  0  0  0  0
 14 25  2  0  0  0  0
 14 26  1  0  0  0  0
 15 23  1  0  0  0  0
 16 17  2  0  0  0  0
 16 25  1  0  0  0  0
 17 26  1  0  0  0  0
 18 27  1  0  0  0  0
 19 29  1  0  0  0  0
 20 24  1  0  0  0  0
 20 27  1  0  0  0  0
 20 30  2  0  0  0  0
 21 28  1  0  0  0  0
 21 29  1  0  0  0  0
 21 31  2  0  0  0  0
 22 24  1  0  0  0  0
 23 29  1  0  0  0  0
 26 28  1  0  0  0  0
  1 32  1  0  0  0  0
  2 33  1  0  0  0  0
  3 34  1  0  0  0  0
  4 35  1  0  0  0  0
  5 36  1  0  0  0  0
  6 37  1  0  0  0  0
  7 38  1  0  0  0  0
  8 39  1  0  0  0  0
  9 40  1  0  0  0  0
 10 41  1  0  0  0  0
 11 42  1  0  0  0  0
 12 43  1  0  0  0  0
 13 44  1  0  0  0  0
 14 45  1  0  0  0  0
 22 46  1  0  0  0  0
 22 47  1  0  0  0  0
 22 48  1  0  0  0  0
 23 49  1  0  0  0  0
 23 50  1  0  0  0  0
 24 51  1  0  0  0  0
 24 52  1  0  0  0  0
 27 53  1  0  0  0  0
 28 54  1  0  0  0  0
M  END
> <clash_score>
1.3333632944556628

> <docking_score>
-6.375155925750732

> <overlap_score>
0.9871538877487183

$$$$
BENZO_32_1
  -OEChem-08222022383D

 51 54  0     0  0  0  0  0  0999 V2000
    4.0980    2.1130   19.5350 C   0  0  0  0  0  0  0  0  0  0  0  0
    4.2970    1.6690   20.8430 C   0  0  0  0  0  0  0  0  0  0  0  0
    4.9400    1.7060   18.5060 C   0  0  0  0  0  0  0  0  0  0  0  0
    5.3360    0.8000   21.1530 C   0  0  0  0  0  0  0  0  0  0  0  0
    8.3310   -2.7170   25.3430 C   0  0  0  0  0  0  0  0  0  0  0  0
   10.2570   -3.5000   24.1350 C   0  0  0  0  0  0  0  0  0  0  0  0
    8.3510   -1.5420   24.6110 C   0  0  0  0  0  0  0  0  0  0  0  0
   10.2760   -2.3270   23.4020 C   0  0  0  0  0  0  0  0  0  0  0  0
   12.2675    1.0332   22.3812 C   0  0  0  0  0  0  0  0  0  0  0  0
   13.6257    0.9906   22.6074 C   0  0  0  0  0  0  0  0  0  0  0  0
   12.3384    0.9467   24.7028 C   0  0  0  0  0  0  0  0  0  0  0  0
    7.6830   -0.5170   18.7600 C   0  0  0  0  0  0  0  0  0  0  0  0
   11.5217    1.0079   23.5949 C   0  0  0  0  0  0  0  0  0  0  0  0
    5.9810    0.8330   18.8060 C   0  0  0  0  0  0  0  0  0  0  0  0
    6.1600    0.3870   20.1140 C   0  0  0  0  0  0  0  0  0  0  0  0
    9.2850   -3.7090   25.1090 C   0  0  0  0  0  0  0  0  0  0  0  0
    9.3300   -1.3350   23.6390 C   0  0  0  0  0  0  0  0  0  0  0  0
    9.6839   -6.1690   25.4414 C   0  0  0  0  0  0  0  0  0  0  0  0
    8.9510    0.1280   21.6880 C   0  0  0  0  0  0  0  0  0  0  0  0
    8.0382   -7.2886   27.0047 C   0  0  0  0  0  0  0  0  0  0  0  0
   10.0220    1.0430   23.6570 C   0  0  0  0  0  0  0  0  0  0  0  0
    9.4846   -7.1863   26.5550 C   0  0  0  0  0  0  0  0  0  0  0  0
    6.9440    0.2550   18.0100 N   0  0  0  0  0  0  0  0  0  0  0  0
    7.2210   -0.4620   20.0350 N   0  0  0  0  0  0  0  0  0  0  0  0
    9.2630   -4.8902   25.8410 N   0  0  0  0  0  0  0  0  0  0  0  0
    8.0810   -0.9750   21.0820 N   0  0  0  0  0  0  0  0  0  0  0  0
    9.4200   -0.0840   22.9530 N   0  0  0  0  0  0  0  0  0  0  0  0
   10.1566   -6.4800   24.3532 O   0  0  0  0  0  0  0  0  0  0  0  0
    9.1870    1.1500   21.0630 O   0  0  0  0  0  0  0  0  0  0  0  0
   13.9969    0.9203   24.2776 S   0  0  0  0  0  0  0  0  0  0  0  0
    3.2711    2.7870   19.3201 H   0  0  0  0  0  0  0  0  0  0  0  0
    3.6262    2.0082   21.6284 H   0  0  0  0  0  0  0  0  0  0  0  0
    4.7816    2.0660   17.4901 H   0  0  0  0  0  0  0  0  0  0  0  0
    5.4934    0.4579   22.1787 H   0  0  0  0  0  0  0  0  0  0  0  0
    7.5639   -2.8621   26.1045 H   0  0  0  0  0  0  0  0  0  0  0  0
   11.0141   -4.2644   23.9422 H   0  0  0  0  0  0  0  0  0  0  0  0
    7.5950   -0.7788   24.8007 H   0  0  0  0  0  0  0  0  0  0  0  0
   11.0408   -2.1861   22.6359 H   0  0  0  0  0  0  0  0  0  0  0  0
   11.8338    1.0798   21.3902 H   0  0  0  0  0  0  0  0  0  0  0  0
   14.4176    0.9966   21.8719 H   0  0  0  0  0  0  0  0  0  0  0  0
   12.0446    0.9149   25.7428 H   0  0  0  0  0  0  0  0  0  0  0  0
    8.5166   -1.1054   18.4533 H   0  0  0  0  0  0  0  0  0  0  0  0
    7.6701   -6.3234   27.3679 H   0  0  0  0  0  0  0  0  0  0  0  0
    7.9415   -8.0182   27.8146 H   0  0  0  0  0  0  0  0  0  0  0  0
    7.3916   -7.6056   26.1798 H   0  0  0  0  0  0  0  0  0  0  0  0
    9.6778    1.0140   24.6966 H   0  0  0  0  0  0  0  0  0  0  0  0
    9.6316    1.9637   23.2107 H   0  0  0  0  0  0  0  0  0  0  0  0
    9.8261   -8.1645   26.1973 H   0  0  0  0  0  0  0  0  0  0  0  0
   10.1125   -6.8978   27.4059 H   0  0  0  0  0  0  0  0  0  0  0  0
    8.8927   -4.8255   26.7964 H   0  0  0  0  0  0  0  0  0  0  0  0
    8.0998   -1.8216   21.3383 H   0  0  0  0  0  0  0  0  0  0  0  0
  1  2  1  0  0  0  0
  1  3  2  0  0  0  0
  2  4  2  0  0  0  0
  3 14  1  0  0  0  0
  4 15  1  0  0  0  0
  5  7  2  0  0  0  0
  5 16  1  0  0  0  0
  6  8  1  0  0  0  0
  6 16  2  0  0  0  0
  7 17  1  0  0  0  0
  8 17  2  0  0  0  0
  9 10  2  0  0  0  0
  9 13  1  0  0  0  0
 10 30  1  0  0  0  0
 11 13  2  0  0  0  0
 11 30  1  0  0  0  0
 12 23  2  0  0  0  0
 12 24  1  0  0  0  0
 13 21  1  0  0  0  0
 14 15  2  0  0  0  0
 14 23  1  0  0  0  0
 15 24  1  0  0  0  0
 16 25  1  0  0  0  0
 17 27  1  0  0  0  0
 18 22  1  0  0  0  0
 18 25  1  0  0  0  0
 18 28  2  0  0  0  0
 19 26  1  0  0  0  0
 19 27  1  0  0  0  0
 19 29  2  0  0  0  0
 20 22  1  0  0  0  0
 21 27  1  0  0  0  0
 24 26  1  0  0  0  0
  1 31  1  0  0  0  0
  2 32  1  0  0  0  0
  3 33  1  0  0  0  0
  4 34  1  0  0  0  0
  5 35  1  0  0  0  0
  6 36  1  0  0  0  0
  7 37  1  0  0  0  0
  8 38  1  0  0  0  0
  9 39  1  0  0  0  0
 10 40  1  0  0  0  0
 11 41  1  0  0  0  0
 12 42  1  0  0  0  0
 20 43  1  0  0  0  0
 20 44  1  0  0  0  0
 20 45  1  0  0  0  0
 21 46  1  0  0  0  0
 21 47  1  0  0  0  0
 22 48  1  0  0  0  0
 22 49  1  0  0  0  0
 25 50  1  0  0  0  0
 26 51  1  0  0  0  0
M  END
> <clash_score>
1.3333632944556628

> <docking_score>
-6.6213603019714355

> <overlap_score>
0.9613810181617737

$$$$
BENZO_34_1
  -OEChem-08222022383D

 54 57  0     0  0  0  0  0  0999 V2000
    4.0980    2.1130   19.5350 C   0  0  0  0  0  0  0  0  0  0  0  0
    4.2970    1.6690   20.8430 C   0  0  0  0  0  0  0  0  0  0  0  0
   13.5977    1.8457   22.6865 C   0  0  0  0  0  0  0  0  0  0  0  0
   12.2044    1.8769   22.7438 C   0  0  0  0  0  0  0  0  0  0  0  0
    4.9400    1.7060   18.5060 C   0  0  0  0  0  0  0  0  0  0  0  0
    5.3360    0.8000   21.1530 C   0  0  0  0  0  0  0  0  0  0  0  0
    8.3310   -2.7170   25.3430 C   0  0  0  0  0  0  0  0  0  0  0  0
   10.2570   -3.5000   24.1350 C   0  0  0  0  0  0  0  0  0  0  0  0
    8.3510   -1.5420   24.6110 C   0  0  0  0  0  0  0  0  0  0  0  0
   10.2760   -2.3270   23.4020 C   0  0  0  0  0  0  0  0  0  0  0  0
   14.3084    0.9454   23.4803 C   0  0  0  0  0  0  0  0  0  0  0  0
   12.2323    0.1076   24.3888 C   0  0  0  0  0  0  0  0  0  0  0  0
    7.6830   -0.5170   18.7600 C   0  0  0  0  0  0  0  0  0  0  0  0
   11.5217    1.0079   23.5949 C   0  0  0  0  0  0  0  0  0  0  0  0
    5.9810    0.8330   18.8060 C   0  0  0  0  0  0  0  0  0  0  0  0
    6.1600    0.3870   20.1140 C   0  0  0  0  0  0  0  0  0  0  0  0
    9.2850   -3.7090   25.1090 C   0  0  0  0  0  0  0  0  0  0  0  0
    9.3300   -1.3350   23.6390 C   0  0  0  0  0  0  0  0  0  0  0  0
   13.6257    0.0764   24.3314 C   0  0  0  0  0  0  0  0  0  0  0  0
    9.6839   -6.1690   25.4414 C   0  0  0  0  0  0  0  0  0  0  0  0
    8.9510    0.1280   21.6880 C   0  0  0  0  0  0  0  0  0  0  0  0
    8.0382   -7.2886   27.0047 C   0  0  0  0  0  0  0  0  0  0  0  0
   10.0220    1.0430   23.6570 C   0  0  0  0  0  0  0  0  0  0  0  0
    9.4846   -7.1863   26.5550 C   0  0  0  0  0  0  0  0  0  0  0  0
    6.9440    0.2550   18.0100 N   0  0  0  0  0  0  0  0  0  0  0  0
    7.2210   -0.4620   20.0350 N   0  0  0  0  0  0  0  0  0  0  0  0
    9.2630   -4.8902   25.8410 N   0  0  0  0  0  0  0  0  0  0  0  0
    8.0810   -0.9750   21.0820 N   0  0  0  0  0  0  0  0  0  0  0  0
    9.4200   -0.0840   22.9530 N   0  0  0  0  0  0  0  0  0  0  0  0
   10.1566   -6.4800   24.3532 O   0  0  0  0  0  0  0  0  0  0  0  0
    9.1870    1.1500   21.0630 O   0  0  0  0  0  0  0  0  0  0  0  0
   14.5031   -1.0334   25.3114 Cl  0  0  0  0  0  0  0  0  0  0  0  0
    3.2711    2.7870   19.3201 H   0  0  0  0  0  0  0  0  0  0  0  0
    3.6262    2.0082   21.6284 H   0  0  0  0  0  0  0  0  0  0  0  0
   14.1289    2.5227   22.0237 H   0  0  0  0  0  0  0  0  0  0  0  0
   11.6588    2.5818   22.1218 H   0  0  0  0  0  0  0  0  0  0  0  0
    4.7816    2.0660   17.4901 H   0  0  0  0  0  0  0  0  0  0  0  0
    5.4934    0.4579   22.1787 H   0  0  0  0  0  0  0  0  0  0  0  0
    7.5639   -2.8621   26.1045 H   0  0  0  0  0  0  0  0  0  0  0  0
   11.0141   -4.2644   23.9422 H   0  0  0  0  0  0  0  0  0  0  0  0
    7.5950   -0.7788   24.8007 H   0  0  0  0  0  0  0  0  0  0  0  0
   11.0408   -2.1861   22.6359 H   0  0  0  0  0  0  0  0  0  0  0  0
   15.3941    0.9323   23.4255 H   0  0  0  0  0  0  0  0  0  0  0  0
   11.6954   -0.5682   25.0504 H   0  0  0  0  0  0  0  0  0  0  0  0
    8.5166   -1.1054   18.4533 H   0  0  0  0  0  0  0  0  0  0  0  0
    7.6701   -6.3234   27.3679 H   0  0  0  0  0  0  0  0  0  0  0  0
    7.9415   -8.0182   27.8146 H   0  0  0  0  0  0  0  0  0  0  0  0
    7.3916   -7.6056   26.1798 H   0  0  0  0  0  0  0  0  0  0  0  0
    9.6778    1.0140   24.6966 H   0  0  0  0  0  0  0  0  0  0  0  0
    9.6316    1.9637   23.2107 H   0  0  0  0  0  0  0  0  0  0  0  0
    9.8261   -8.1645   26.1973 H   0  0  0  0  0  0  0  0  0  0  0  0
   10.1125   -6.8978   27.4059 H   0  0  0  0  0  0  0  0  0  0  0  0
    8.8927   -4.8255   26.7964 H   0  0  0  0  0  0  0  0  0  0  0  0
    8.0998   -1.8216   21.3383 H   0  0  0  0  0  0  0  0  0  0  0  0
  1  2  1  0  0  0  0
  1  5  2  0  0  0  0
  2  6  2  0  0  0  0
  3  4  2  0  0  0  0
  3 11  1  0  0  0  0
  4 14  1  0  0  0  0
  5 15  1  0  0  0  0
  6 16  1  0  0  0  0
  7  9  2  0  0  0  0
  7 17  1  0  0  0  0
  8 10  1  0  0  0  0
  8 17  2  0  0  0  0
  9 18  1  0  0  0  0
 10 18  2  0  0  0  0
 11 19  2  0  0  0  0
 12 14  2  0  0  0  0
 12 19  1  0  0  0  0
 13 25  2  0  0  0  0
 13 26  1  0  0  0  0
 14 23  1  0  0  0  0
 15 16  2  0  0  0  0
 15 25  1  0  0  0  0
 16 26  1  0  0  0  0
 17 27  1  0  0  0  0
 18 29  1  0  0  0  0
 19 32  1  0  0  0  0
 20 24  1  0  0  0  0
 20 27  1  0  0  0  0
 20 30  2  0  0  0  0
 21 28  1  0  0  0  0
 21 29  1  0  0  0  0
 21 31  2  0  0  0  0
 22 24  1  0  0  0  0
 23 29  1  0  0  0  0
 26 28  1  0  0  0  0
  1 33  1  0  0  0  0
  2 34  1  0  0  0  0
  3 35  1  0  0  0  0
  4 36  1  0  0  0  0
  5 37  1  0  0  0  0
  6 38  1  0  0  0  0
  7 39  1  0  0  0  0
  8 40  1  0  0  0  0
  9 41  1  0  0  0  0
 10 42  1  0  0  0  0
 11 43  1  0  0  0  0
 12 44  1  0  0  0  0
 13 45  1  0  0  0  0
 22 46  1  0  0  0  0
 22 47  1  0  0  0  0
 22 48  1  0  0  0  0
 23 49  1  0  0  0  0
 23 50  1  0  0  0  0
 24 51  1  0  0  0  0
 24 52  1  0  0  0  0
 27 53  1  0  0  0  0
 28 54  1  0  0  0  0
M  END
> <clash_score>
2.099607910506966

> <docking_score>
-5.557058334350586

> <overlap_score>
0.9923641085624695

$$$$
BENZO_35_1
  -OEChem-08222022383D

 54 57  0     0  0  0  0  0  0999 V2000
    4.0980    2.1130   19.5350 C   0  0  0  0  0  0  0  0  0  0  0  0
    4.2970    1.6690   20.8430 C   0  0  0  0  0  0  0  0  0  0  0  0
    4.9400    1.7060   18.5060 C   0  0  0  0  0  0  0  0  0  0  0  0
    5.3360    0.8000   21.1530 C   0  0  0  0  0  0  0  0  0  0  0  0
    8.3310   -2.7170   25.3430 C   0  0  0  0  0  0  0  0  0  0  0  0
   10.2570   -3.5000   24.1350 C   0  0  0  0  0  0  0  0  0  0  0  0
    8.3510   -1.5420   24.6110 C   0  0  0  0  0  0  0  0  0  0  0  0
   10.2760   -2.3270   23.4020 C   0  0  0  0  0  0  0  0  0  0  0  0
   12.4295    0.9466   24.6692 C   0  0  0  0  0  0  0  0  0  0  0  0
   12.3161    1.0259   22.4747 C   0  0  0  0  0  0  0  0  0  0  0  0
    7.6830   -0.5170   18.7600 C   0  0  0  0  0  0  0  0  0  0  0  0
   11.5217    1.0079   23.5949 C   0  0  0  0  0  0  0  0  0  0  0  0
    5.9810    0.8330   18.8060 C   0  0  0  0  0  0  0  0  0  0  0  0
    6.1600    0.3870   20.1140 C   0  0  0  0  0  0  0  0  0  0  0  0
    9.2850   -3.7090   25.1090 C   0  0  0  0  0  0  0  0  0  0  0  0
    9.3300   -1.3350   23.6390 C   0  0  0  0  0  0  0  0  0  0  0  0
    9.6839   -6.1690   25.4414 C   0  0  0  0  0  0  0  0  0  0  0  0
    8.9510    0.1280   21.6880 C   0  0  0  0  0  0  0  0  0  0  0  0
    8.0382   -7.2886   27.0047 C   0  0  0  0  0  0  0  0  0  0  0  0
   14.7958    0.9722   22.1181 C   0  0  0  0  0  0  0  0  0  0  0  0
   10.0220    1.0430   23.6570 C   0  0  0  0  0  0  0  0  0  0  0  0
    9.4846   -7.1863   26.5550 C   0  0  0  0  0  0  0  0  0  0  0  0
   13.7032    0.9267   24.2674 N   0  0  0  0  0  0  0  0  0  0  0  0
    6.9440    0.2550   18.0100 N   0  0  0  0  0  0  0  0  0  0  0  0
   13.6014    0.9758   22.9283 N   0  0  0  0  0  0  0  0  0  0  0  0
    7.2210   -0.4620   20.0350 N   0  0  0  0  0  0  0  0  0  0  0  0
    9.2630   -4.8902   25.8410 N   0  0  0  0  0  0  0  0  0  0  0  0
    8.0810   -0.9750   21.0820 N   0  0  0  0  0  0  0  0  0  0  0  0
    9.4200   -0.0840   22.9530 N   0  0  0  0  0  0  0  0  0  0  0  0
   10.1566   -6.4800   24.3532 O   0  0  0  0  0  0  0  0  0  0  0  0
    9.1870    1.1500   21.0630 O   0  0  0  0  0  0  0  0  0  0  0  0
    3.2711    2.7870   19.3201 H   0  0  0  0  0  0  0  0  0  0  0  0
    3.6262    2.0082   21.6284 H   0  0  0  0  0  0  0  0  0  0  0  0
    4.7816    2.0660   17.4901 H   0  0  0  0  0  0  0  0  0  0  0  0
    5.4934    0.4579   22.1787 H   0  0  0  0  0  0  0  0  0  0  0  0
    7.5639   -2.8621   26.1045 H   0  0  0  0  0  0  0  0  0  0  0  0
   11.0141   -4.2644   23.9422 H   0  0  0  0  0  0  0  0  0  0  0  0
    7.5950   -0.7788   24.8007 H   0  0  0  0  0  0  0  0  0  0  0  0
   11.0408   -2.1861   22.6359 H   0  0  0  0  0  0  0  0  0  0  0  0
   12.2184    0.9145   25.7287 H   0  0  0  0  0  0  0  0  0  0  0  0
   12.0821    1.0677   21.4195 H   0  0  0  0  0  0  0  0  0  0  0  0
    8.5166   -1.1054   18.4533 H   0  0  0  0  0  0  0  0  0  0  0  0
    7.6701   -6.3234   27.3679 H   0  0  0  0  0  0  0  0  0  0  0  0
    7.9415   -8.0182   27.8146 H   0  0  0  0  0  0  0  0  0  0  0  0
    7.3916   -7.6056   26.1798 H   0  0  0  0  0  0  0  0  0  0  0  0
   15.1026    2.0102   21.9649 H   0  0  0  0  0  0  0  0  0  0  0  0
   15.5825    0.4128   22.6318 H   0  0  0  0  0  0  0  0  0  0  0  0
   14.5811    0.4906   21.1600 H   0  0  0  0  0  0  0  0  0  0  0  0
    9.6778    1.0140   24.6966 H   0  0  0  0  0  0  0  0  0  0  0  0
    9.6316    1.9637   23.2107 H   0  0  0  0  0  0  0  0  0  0  0  0
    9.8261   -8.1645   26.1973 H   0  0  0  0  0  0  0  0  0  0  0  0
   10.1125   -6.8978   27.4059 H   0  0  0  0  0  0  0  0  0  0  0  0
    8.8927   -4.8255   26.7964 H   0  0  0  0  0  0  0  0  0  0  0  0
    8.0998   -1.8216   21.3383 H   0  0  0  0  0  0  0  0  0  0  0  0
  1  2  1  0  0  0  0
  1  3  2  0  0  0  0
  2  4  2  0  0  0  0
  3 13  1  0  0  0  0
  4 14  1  0  0  0  0
  5  7  2  0  0  0  0
  5 15  1  0  0  0  0
  6  8  1  0  0  0  0
  6 15  2  0  0  0  0
  7 16  1  0  0  0  0
  8 16  2  0  0  0  0
  9 12  1  0  0  0  0
  9 23  2  0  0  0  0
 10 12  2  0  0  0  0
 10 25  1  0  0  0  0
 11 24  2  0  0  0  0
 11 26  1  0  0  0  0
 12 21  1  0  0  0  0
 13 14  2  0  0  0  0
 13 24  1  0  0  0  0
 14 26  1  0  0  0  0
 15 27  1  0  0  0  0
 16 29  1  0  0  0  0
 17 22  1  0  0  0  0
 17 27  1  0  0  0  0
 17 30  2  0  0  0  0
 18 28  1  0  0  0  0
 18 29  1  0  0  0  0
 18 31  2  0  0  0  0
 19 22  1  0  0  0  0
 20 25  1  0  0  0  0
 21 29  1  0  0  0  0
 23 25  1  0  0  0  0
 26 28  1  0  0  0  0
  1 32  1  0  0  0  0
  2 33  1  0  0  0  0
  3 34  1  0  0  0  0
  4 35  1  0  0  0  0
  5 36  1  0  0  0  0
  6 37  1  0  0  0  0
  7 38  1  0  0  0  0
  8 39  1  0  0  0  0
  9 40  1  0  0  0  0
 10 41  1  0  0  0  0
 11 42  1  0  0  0  0
 19 43  1  0  0  0  0
 19 44  1  0  0  0  0
 19 45  1  0  0  0  0
 20 46  1  0  0  0  0
 20 47  1  0  0  0  0
 20 48  1  0  0  0  0
 21 49  1  0  0  0  0
 21 50  1  0  0  0  0
 22 51  1  0  0  0  0
 22 52  1  0  0  0  0
 27 53  1  0  0  0  0
 28 54  1  0  0  0  0
M  END
> <clash_score>
1.3333632944556628

> <docking_score>
-6.317217826843262

> <overlap_score>
0.977997362613678

$$$$
BENZO_37_1
  -OEChem-08222022383D

 59 63  0     0  0  0  0  0  0999 V2000
   14.3082    0.9431   23.4783 C   0  0  0  0  0  0  0  0  0  0  0  0
   13.6391    0.3091   24.5251 C   0  0  0  0  0  0  0  0  0  0  0  0
   13.5841    1.6096   22.4898 C   0  0  0  0  0  0  0  0  0  0  0  0
    4.0980    2.1130   19.5350 C   0  0  0  0  0  0  0  0  0  0  0  0
    4.2970    1.6690   20.8430 C   0  0  0  0  0  0  0  0  0  0  0  0
   12.2459    0.3415   24.5835 C   0  0  0  0  0  0  0  0  0  0  0  0
   12.1908    1.6420   22.5481 C   0  0  0  0  0  0  0  0  0  0  0  0
    4.9400    1.7060   18.5060 C   0  0  0  0  0  0  0  0  0  0  0  0
    5.3360    0.8000   21.1530 C   0  0  0  0  0  0  0  0  0  0  0  0
    8.3310   -2.7170   25.3430 C   0  0  0  0  0  0  0  0  0  0  0  0
   10.2570   -3.5000   24.1350 C   0  0  0  0  0  0  0  0  0  0  0  0
    8.3510   -1.5420   24.6110 C   0  0  0  0  0  0  0  0  0  0  0  0
   10.2760   -2.3270   23.4020 C   0  0  0  0  0  0  0  0  0  0  0  0
    7.6830   -0.5170   18.7600 C   0  0  0  0  0  0  0  0  0  0  0  0
   11.5217    1.0079   23.5949 C   0  0  0  0  0  0  0  0  0  0  0  0
    5.9810    0.8330   18.8060 C   0  0  0  0  0  0  0  0  0  0  0  0
    6.1600    0.3870   20.1140 C   0  0  0  0  0  0  0  0  0  0  0  0
    9.2850   -3.7090   25.1090 C   0  0  0  0  0  0  0  0  0  0  0  0
    9.3300   -1.3350   23.6390 C   0  0  0  0  0  0  0  0  0  0  0  0
    8.9510    0.1280   21.6880 C   0  0  0  0  0  0  0  0  0  0  0  0
    7.3162   -6.8834   26.5210 C   0  0  0  0  0  0  0  0  0  0  0  0
    7.3507   -5.5245   27.2240 C   0  0  0  0  0  0  0  0  0  0  0  0
    7.9375   -6.8069   25.1245 C   0  0  0  0  0  0  0  0  0  0  0  0
    8.7638   -4.9418   27.2163 C   0  0  0  0  0  0  0  0  0  0  0  0
    9.3378   -6.1874   25.1659 C   0  0  0  0  0  0  0  0  0  0  0  0
   10.0220    1.0430   23.6570 C   0  0  0  0  0  0  0  0  0  0  0  0
    6.9440    0.2550   18.0100 N   0  0  0  0  0  0  0  0  0  0  0  0
    7.2210   -0.4620   20.0350 N   0  0  0  0  0  0  0  0  0  0  0  0
    9.2639   -4.8860   25.8399 N   0  0  0  0  0  0  0  0  0  0  0  0
    8.0810   -0.9750   21.0820 N   0  0  0  0  0  0  0  0  0  0  0  0
    9.4200   -0.0840   22.9530 N   0  0  0  0  0  0  0  0  0  0  0  0
    9.1870    1.1500   21.0630 O   0  0  0  0  0  0  0  0  0  0  0  0
   15.3932    0.9189   23.4337 H   0  0  0  0  0  0  0  0  0  0  0  0
   14.2028   -0.2090   25.2955 H   0  0  0  0  0  0  0  0  0  0  0  0
   14.1048    2.1043   21.6752 H   0  0  0  0  0  0  0  0  0  0  0  0
    3.2711    2.7870   19.3201 H   0  0  0  0  0  0  0  0  0  0  0  0
    3.6262    2.0082   21.6284 H   0  0  0  0  0  0  0  0  0  0  0  0
   11.7330   -0.1555   25.4027 H   0  0  0  0  0  0  0  0  0  0  0  0
   11.6349    2.1636   21.7735 H   0  0  0  0  0  0  0  0  0  0  0  0
    4.7816    2.0660   17.4901 H   0  0  0  0  0  0  0  0  0  0  0  0
    5.4934    0.4579   22.1787 H   0  0  0  0  0  0  0  0  0  0  0  0
    7.5647   -2.8621   26.1053 H   0  0  0  0  0  0  0  0  0  0  0  0
   11.0144   -4.2642   23.9425 H   0  0  0  0  0  0  0  0  0  0  0  0
    7.5958   -0.7779   24.8006 H   0  0  0  0  0  0  0  0  0  0  0  0
   11.0406   -2.1848   22.6356 H   0  0  0  0  0  0  0  0  0  0  0  0
    8.5166   -1.1054   18.4533 H   0  0  0  0  0  0  0  0  0  0  0  0
    7.8578   -7.6261   27.1266 H   0  0  0  0  0  0  0  0  0  0  0  0
    6.2773   -7.2358   26.4459 H   0  0  0  0  0  0  0  0  0  0  0  0
    6.6663   -4.8351   26.7223 H   0  0  0  0  0  0  0  0  0  0  0  0
    7.0044   -5.6368   28.2534 H   0  0  0  0  0  0  0  0  0  0  0  0
    7.9946   -7.8119   24.6937 H   0  0  0  0  0  0  0  0  0  0  0  0
    7.2929   -6.2123   24.4668 H   0  0  0  0  0  0  0  0  0  0  0  0
    8.7343   -3.9408   27.6542 H   0  0  0  0  0  0  0  0  0  0  0  0
    9.4243   -5.5632   27.8278 H   0  0  0  0  0  0  0  0  0  0  0  0
   10.0200   -6.8490   25.7011 H   0  0  0  0  0  0  0  0  0  0  0  0
    9.6984   -6.0694   24.1436 H   0  0  0  0  0  0  0  0  0  0  0  0
    9.6778    1.0140   24.6966 H   0  0  0  0  0  0  0  0  0  0  0  0
    9.6316    1.9637   23.2107 H   0  0  0  0  0  0  0  0  0  0  0  0
    8.1334   -1.7991   21.3673 H   0  0  0  0  0  0  0  0  0  0  0  0
  1  2  1  0  0  0  0
  1  3  2  0  0  0  0
  2  6  2  0  0  0  0
  3  7  1  0  0  0  0
  4  5  1  0  0  0  0
  4  8  2  0  0  0  0
  5  9  2  0  0  0  0
  6 15  1  0  0  0  0
  7 15  2  0  0  0  0
  8 16  1  0  0  0  0
  9 17  1  0  0  0  0
 10 12  2  0  0  0  0
 10 18  1  0  0  0  0
 11 13  1  0  0  0  0
 11 18  2  0  0  0  0
 12 19  1  0  0  0  0
 13 19  2  0  0  0  0
 14 27  2  0  0  0  0
 14 28  1  0  0  0  0
 15 26  1  0  0  0  0
 16 17  2  0  0  0  0
 16 27  1  0  0  0  0
 17 28  1  0  0  0  0
 18 29  1  0  0  0  0
 19 31  1  0  0  0  0
 20 30  1  0  0  0  0
 20 31  1  0  0  0  0
 20 32  2  0  0  0  0
 21 22  1  0  0  0  0
 21 23  1  0  0  0  0
 22 24  1  0  0  0  0
 23 25  1  0  0  0  0
 24 29  1  0  0  0  0
 25 29  1  0  0  0  0
 26 31  1  0  0  0  0
 28 30  1  0  0  0  0
  1 33  1  0  0  0  0
  2 34  1  0  0  0  0
  3 35  1  0  0  0  0
  4 36  1  0  0  0  0
  5 37  1  0  0  0  0
  6 38  1  0  0  0  0
  7 39  1  0  0  0  0
  8 40  1  0  0  0  0
  9 41  1  0  0  0  0
 10 42  1  0  0  0  0
 11 43  1  0  0  0  0
 12 44  1  0  0  0  0
 13 45  1  0  0  0  0
 14 46  1  0  0  0  0
 21 47  1  0  0  0  0
 21 48  1  0  0  0  0
 22 49  1  0  0  0  0
 22 50  1  0  0  0  0
 23 51  1  0  0  0  0
 23 52  1  0  0  0  0
 24 53  1  0  0  0  0
 24 54  1  0  0  0  0
 25 55  1  0  0  0  0
 25 56  1  0  0  0  0
 26 57  1  0  0  0  0
 26 58  1  0  0  0  0
 30 59  1  0  0  0  0
M  END
> <clash_score>
0

> <docking_score>
-8.6091890335083

> <overlap_score>
1.015582799911499

$$$$
BENZO_36_1
  -OEChem-08222022383D

 56 60  0     0  0  0  0  0  0999 V2000
    4.0980    2.1130   19.5350 C   0  0  0  0  0  0  0  0  0  0  0  0
    4.2970    1.6690   20.8430 C   0  0  0  0  0  0  0  0  0  0  0  0
    4.9400    1.7060   18.5060 C   0  0  0  0  0  0  0  0  0  0  0  0
    5.3360    0.8000   21.1530 C   0  0  0  0  0  0  0  0  0  0  0  0
    8.3310   -2.7170   25.3430 C   0  0  0  0  0  0  0  0  0  0  0  0
   10.2570   -3.5000   24.1350 C   0  0  0  0  0  0  0  0  0  0  0  0
    8.3510   -1.5420   24.6110 C   0  0  0  0  0  0  0  0  0  0  0  0
   10.2760   -2.3270   23.4020 C   0  0  0  0  0  0  0  0  0  0  0  0
   12.2675    1.0332   22.3812 C   0  0  0  0  0  0  0  0  0  0  0  0
   13.6257    0.9906   22.6074 C   0  0  0  0  0  0  0  0  0  0  0  0
   12.3384    0.9467   24.7028 C   0  0  0  0  0  0  0  0  0  0  0  0
    7.6830   -0.5170   18.7600 C   0  0  0  0  0  0  0  0  0  0  0  0
   11.5217    1.0079   23.5949 C   0  0  0  0  0  0  0  0  0  0  0  0
    5.9810    0.8330   18.8060 C   0  0  0  0  0  0  0  0  0  0  0  0
    6.1600    0.3870   20.1140 C   0  0  0  0  0  0  0  0  0  0  0  0
    9.2850   -3.7090   25.1090 C   0  0  0  0  0  0  0  0  0  0  0  0
    9.3300   -1.3350   23.6390 C   0  0  0  0  0  0  0  0  0  0  0  0
    8.9510    0.1280   21.6880 C   0  0  0  0  0  0  0  0  0  0  0  0
    7.3162   -6.8834   26.5210 C   0  0  0  0  0  0  0  0  0  0  0  0
    7.3507   -5.5245   27.2240 C   0  0  0  0  0  0  0  0  0  0  0  0
    7.9375   -6.8069   25.1245 C   0  0  0  0  0  0  0  0  0  0  0  0
    8.7638   -4.9418   27.2163 C   0  0  0  0  0  0  0  0  0  0  0  0
    9.3378   -6.1874   25.1659 C   0  0  0  0  0  0  0  0  0  0  0  0
   10.0220    1.0430   23.6570 C   0  0  0  0  0  0  0  0  0  0  0  0
    6.9440    0.2550   18.0100 N   0  0  0  0  0  0  0  0  0  0  0  0
    7.2210   -0.4620   20.0350 N   0  0  0  0  0  0  0  0  0  0  0  0
    9.2639   -4.8860   25.8399 N   0  0  0  0  0  0  0  0  0  0  0  0
    8.0810   -0.9750   21.0820 N   0  0  0  0  0  0  0  0  0  0  0  0
    9.4200   -0.0840   22.9530 N   0  0  0  0  0  0  0  0  0  0  0  0
    9.1870    1.1500   21.0630 O   0  0  0  0  0  0  0  0  0  0  0  0
   13.9969    0.9202   24.2776 S   0  0  0  0  0  0  0  0  0  0  0  0
    3.2711    2.7870   19.3201 H   0  0  0  0  0  0  0  0  0  0  0  0
    3.6262    2.0082   21.6284 H   0  0  0  0  0  0  0  0  0  0  0  0
    4.7816    2.0660   17.4901 H   0  0  0  0  0  0  0  0  0  0  0  0
    5.4934    0.4579   22.1787 H   0  0  0  0  0  0  0  0  0  0  0  0
    7.5647   -2.8621   26.1053 H   0  0  0  0  0  0  0  0  0  0  0  0
   11.0144   -4.2642   23.9425 H   0  0  0  0  0  0  0  0  0  0  0  0
    7.5958   -0.7779   24.8006 H   0  0  0  0  0  0  0  0  0  0  0  0
   11.0406   -2.1848   22.6356 H   0  0  0  0  0  0  0  0  0  0  0  0
   11.8338    1.0798   21.3902 H   0  0  0  0  0  0  0  0  0  0  0  0
   14.4176    0.9966   21.8719 H   0  0  0  0  0  0  0  0  0  0  0  0
   12.0446    0.9149   25.7428 H   0  0  0  0  0  0  0  0  0  0  0  0
    8.5166   -1.1054   18.4533 H   0  0  0  0  0  0  0  0  0  0  0  0
    7.8578   -7.6261   27.1266 H   0  0  0  0  0  0  0  0  0  0  0  0
    6.2773   -7.2358   26.4459 H   0  0  0  0  0  0  0  0  0  0  0  0
    6.6663   -4.8351   26.7223 H   0  0  0  0  0  0  0  0  0  0  0  0
    7.0044   -5.6368   28.2534 H   0  0  0  0  0  0  0  0  0  0  0  0
    7.9946   -7.8119   24.6937 H   0  0  0  0  0  0  0  0  0  0  0  0
    7.2929   -6.2123   24.4668 H   0  0  0  0  0  0  0  0  0  0  0  0
    8.7343   -3.9408   27.6542 H   0  0  0  0  0  0  0  0  0  0  0  0
    9.4243   -5.5632   27.8278 H   0  0  0  0  0  0  0  0  0  0  0  0
   10.0200   -6.8490   25.7011 H   0  0  0  0  0  0  0  0  0  0  0  0
    9.6984   -6.0694   24.1436 H   0  0  0  0  0  0  0  0  0  0  0  0
    9.6778    1.0140   24.6966 H   0  0  0  0  0  0  0  0  0  0  0  0
    9.6316    1.9637   23.2107 H   0  0  0  0  0  0  0  0  0  0  0  0
    8.1334   -1.7991   21.3673 H   0  0  0  0  0  0  0  0  0  0  0  0
  1  2  1  0  0  0  0
  1  3  2  0  0  0  0
  2  4  2  0  0  0  0
  3 14  1  0  0  0  0
  4 15  1  0  0  0  0
  5  7  2  0  0  0  0
  5 16  1  0  0  0  0
  6  8  1  0  0  0  0
  6 16  2  0  0  0  0
  7 17  1  0  0  0  0
  8 17  2  0  0  0  0
  9 10  2  0  0  0  0
  9 13  1  0  0  0  0
 10 31  1  0  0  0  0
 11 13  2  0  0  0  0
 11 31  1  0  0  0  0
 12 25  2  0  0  0  0
 12 26  1  0  0  0  0
 13 24  1  0  0  0  0
 14 15  2  0  0  0  0
 14 25  1  0  0  0  0
 15 26  1  0  0  0  0
 16 27  1  0  0  0  0
 17 29  1  0  0  0  0
 18 28  1  0  0  0  0
 18 29  1  0  0  0  0
 18 30  2  0  0  0  0
 19 20  1  0  0  0  0
 19 21  1  0  0  0  0
 20 22  1  0  0  0  0
 21 23  1  0  0  0  0
 22 27  1  0  0  0  0
 23 27  1  0  0  0  0
 24 29  1  0  0  0  0
 26 28  1  0  0  0  0
  1 32  1  0  0  0  0
  2 33  1  0  0  0  0
  3 34  1  0  0  0  0
  4 35  1  0  0  0  0
  5 36  1  0  0  0  0
  6 37  1  0  0  0  0
  7 38  1  0  0  0  0
  8 39  1  0  0  0  0
  9 40  1  0  0  0  0
 10 41  1  0  0  0  0
 11 42  1  0  0  0  0
 12 43  1  0  0  0  0
 19 44  1  0  0  0  0
 19 45  1  0  0  0  0
 20 46  1  0  0  0  0
 20 47  1  0  0  0  0
 21 48  1  0  0  0  0
 21 49  1  0  0  0  0
 22 50  1  0  0  0  0
 22 51  1  0  0  0  0
 23 52  1  0  0  0  0
 23 53  1  0  0  0  0
 24 54  1  0  0  0  0
 24 55  1  0  0  0  0
 28 56  1  0  0  0  0
M  END
> <clash_score>
0

> <docking_score>
-8.855391502380371

> <overlap_score>
0.9899338483810425

$$$$
BENZO_41_1
  -OEChem-08222022383D

 47 50  0     0  0  0  0  0  0999 V2000
   14.3082    0.9431   23.4783 C   0  0  0  0  0  0  0  0  0  0  0  0
   13.6391    0.3091   24.5251 C   0  0  0  0  0  0  0  0  0  0  0  0
   13.5841    1.6096   22.4898 C   0  0  0  0  0  0  0  0  0  0  0  0
    4.0980    2.1130   19.5350 C   0  0  0  0  0  0  0  0  0  0  0  0
    4.2970    1.6690   20.8430 C   0  0  0  0  0  0  0  0  0  0  0  0
   12.2459    0.3415   24.5835 C   0  0  0  0  0  0  0  0  0  0  0  0
   12.1908    1.6420   22.5481 C   0  0  0  0  0  0  0  0  0  0  0  0
    8.3310   -2.7170   25.3430 C   0  0  0  0  0  0  0  0  0  0  0  0
   10.2570   -3.5000   24.1350 C   0  0  0  0  0  0  0  0  0  0  0  0
    4.9400    1.7060   18.5060 C   0  0  0  0  0  0  0  0  0  0  0  0
    5.3360    0.8000   21.1530 C   0  0  0  0  0  0  0  0  0  0  0  0
    8.3510   -1.5420   24.6110 C   0  0  0  0  0  0  0  0  0  0  0  0
   10.2760   -2.3270   23.4020 C   0  0  0  0  0  0  0  0  0  0  0  0
    7.6830   -0.5170   18.7600 C   0  0  0  0  0  0  0  0  0  0  0  0
    9.2850   -3.7090   25.1090 C   0  0  0  0  0  0  0  0  0  0  0  0
   11.5217    1.0079   23.5949 C   0  0  0  0  0  0  0  0  0  0  0  0
    5.9810    0.8330   18.8060 C   0  0  0  0  0  0  0  0  0  0  0  0
    6.1600    0.3870   20.1140 C   0  0  0  0  0  0  0  0  0  0  0  0
    9.3300   -1.3350   23.6390 C   0  0  0  0  0  0  0  0  0  0  0  0
    8.9510    0.1280   21.6880 C   0  0  0  0  0  0  0  0  0  0  0  0
    9.2610   -4.9721   25.8916 C   0  0  0  0  0  0  0  0  0  0  0  0
   10.0220    1.0430   23.6570 C   0  0  0  0  0  0  0  0  0  0  0  0
    6.9440    0.2550   18.0100 N   0  0  0  0  0  0  0  0  0  0  0  0
    7.2210   -0.4620   20.0350 N   0  0  0  0  0  0  0  0  0  0  0  0
    8.0810   -0.9750   21.0820 N   0  0  0  0  0  0  0  0  0  0  0  0
    9.4200   -0.0840   22.9530 N   0  0  0  0  0  0  0  0  0  0  0  0
    9.1870    1.1500   21.0630 O   0  0  0  0  0  0  0  0  0  0  0  0
   15.3932    0.9189   23.4337 H   0  0  0  0  0  0  0  0  0  0  0  0
   14.2029   -0.2090   25.2955 H   0  0  0  0  0  0  0  0  0  0  0  0
   14.1048    2.1043   21.6752 H   0  0  0  0  0  0  0  0  0  0  0  0
    3.2711    2.7870   19.3201 H   0  0  0  0  0  0  0  0  0  0  0  0
    3.6262    2.0082   21.6284 H   0  0  0  0  0  0  0  0  0  0  0  0
   11.7330   -0.1555   25.4027 H   0  0  0  0  0  0  0  0  0  0  0  0
   11.6349    2.1636   21.7735 H   0  0  0  0  0  0  0  0  0  0  0  0
    7.5665   -2.8638   26.1066 H   0  0  0  0  0  0  0  0  0  0  0  0
   11.0137   -4.2652   23.9447 H   0  0  0  0  0  0  0  0  0  0  0  0
    4.7816    2.0660   17.4901 H   0  0  0  0  0  0  0  0  0  0  0  0
    5.4934    0.4579   22.1787 H   0  0  0  0  0  0  0  0  0  0  0  0
    7.5948   -0.7788   24.7997 H   0  0  0  0  0  0  0  0  0  0  0  0
   11.0411   -2.1856   22.6358 H   0  0  0  0  0  0  0  0  0  0  0  0
    8.5166   -1.1054   18.4533 H   0  0  0  0  0  0  0  0  0  0  0  0
    8.6398   -5.7223   25.3871 H   0  0  0  0  0  0  0  0  0  0  0  0
   10.2715   -5.3829   26.0145 H   0  0  0  0  0  0  0  0  0  0  0  0
    8.8596   -4.8092   26.9004 H   0  0  0  0  0  0  0  0  0  0  0  0
    9.6778    1.0140   24.6966 H   0  0  0  0  0  0  0  0  0  0  0  0
    9.6316    1.9637   23.2107 H   0  0  0  0  0  0  0  0  0  0  0  0
    8.0998   -1.8216   21.3383 H   0  0  0  0  0  0  0  0  0  0  0  0
  1  2  1  0  0  0  0
  1  3  2  0  0  0  0
  2  6  2  0  0  0  0
  3  7  1  0  0  0  0
  4  5  1  0  0  0  0
  4 10  2  0  0  0  0
  5 11  2  0  0  0  0
  6 16  1  0  0  0  0
  7 16  2  0  0  0  0
  8 12  2  0  0  0  0
  8 15  1  0  0  0  0
  9 13  1  0  0  0  0
  9 15  2  0  0  0  0
 10 17  1  0  0  0  0
 11 18  1  0  0  0  0
 12 19  1  0  0  0  0
 13 19  2  0  0  0  0
 14 23  2  0  0  0  0
 14 24  1  0  0  0  0
 15 21  1  0  0  0  0
 16 22  1  0  0  0  0
 17 18  2  0  0  0  0
 17 23  1  0  0  0  0
 18 24  1  0  0  0  0
 19 26  1  0  0  0  0
 20 25  1  0  0  0  0
 20 26  1  0  0  0  0
 20 27  2  0  0  0  0
 22 26  1  0  0  0  0
 24 25  1  0  0  0  0
  1 28  1  0  0  0  0
  2 29  1  0  0  0  0
  3 30  1  0  0  0  0
  4 31  1  0  0  0  0
  5 32  1  0  0  0  0
  6 33  1  0  0  0  0
  7 34  1  0  0  0  0
  8 35  1  0  0  0  0
  9 36  1  0  0  0  0
 10 37  1  0  0  0  0
 11 38  1  0  0  0  0
 12 39  1  0  0  0  0
 13 40  1  0  0  0  0
 14 41  1  0  0  0  0
 21 42  1  0  0  0  0
 21 43  1  0  0  0  0
 21 44  1  0  0  0  0
 22 45  1  0  0  0  0
 22 46  1  0  0  0  0
 25 47  1  0  0  0  0
M  END
> <clash_score>
0

> <docking_score>
-9.566847801208496

> <overlap_score>
0.9717718362808228

$$$$
BENZO_40_1
  -OEChem-08222022383D

 44 47  0     0  0  0  0  0  0999 V2000
    4.0980    2.1130   19.5350 C   0  0  0  0  0  0  0  0  0  0  0  0
    4.2970    1.6690   20.8430 C   0  0  0  0  0  0  0  0  0  0  0  0
    8.3310   -2.7170   25.3430 C   0  0  0  0  0  0  0  0  0  0  0  0
   10.2570   -3.5000   24.1350 C   0  0  0  0  0  0  0  0  0  0  0  0
    4.9400    1.7060   18.5060 C   0  0  0  0  0  0  0  0  0  0  0  0
    5.3360    0.8000   21.1530 C   0  0  0  0  0  0  0  0  0  0  0  0
    8.3510   -1.5420   24.6110 C   0  0  0  0  0  0  0  0  0  0  0  0
   10.2760   -2.3270   23.4020 C   0  0  0  0  0  0  0  0  0  0  0  0
   12.2675    1.0332   22.3812 C   0  0  0  0  0  0  0  0  0  0  0  0
   13.6257    0.9906   22.6074 C   0  0  0  0  0  0  0  0  0  0  0  0
   12.3384    0.9467   24.7028 C   0  0  0  0  0  0  0  0  0  0  0  0
    7.6830   -0.5170   18.7600 C   0  0  0  0  0  0  0  0  0  0  0  0
    9.2850   -3.7090   25.1090 C   0  0  0  0  0  0  0  0  0  0  0  0
   11.5217    1.0079   23.5949 C   0  0  0  0  0  0  0  0  0  0  0  0
    5.9810    0.8330   18.8060 C   0  0  0  0  0  0  0  0  0  0  0  0
    6.1600    0.3870   20.1140 C   0  0  0  0  0  0  0  0  0  0  0  0
    9.3300   -1.3350   23.6390 C   0  0  0  0  0  0  0  0  0  0  0  0
    8.9510    0.1280   21.6880 C   0  0  0  0  0  0  0  0  0  0  0  0
    9.2610   -4.9721   25.8916 C   0  0  0  0  0  0  0  0  0  0  0  0
   10.0220    1.0430   23.6570 C   0  0  0  0  0  0  0  0  0  0  0  0
    6.9440    0.2550   18.0100 N   0  0  0  0  0  0  0  0  0  0  0  0
    7.2210   -0.4620   20.0350 N   0  0  0  0  0  0  0  0  0  0  0  0
    8.0810   -0.9750   21.0820 N   0  0  0  0  0  0  0  0  0  0  0  0
    9.4200   -0.0840   22.9530 N   0  0  0  0  0  0  0  0  0  0  0  0
    9.1870    1.1500   21.0630 O   0  0  0  0  0  0  0  0  0  0  0  0
   13.9969    0.9203   24.2776 S   0  0  0  0  0  0  0  0  0  0  0  0
    3.2711    2.7870   19.3201 H   0  0  0  0  0  0  0  0  0  0  0  0
    3.6262    2.0082   21.6284 H   0  0  0  0  0  0  0  0  0  0  0  0
    7.5665   -2.8638   26.1066 H   0  0  0  0  0  0  0  0  0  0  0  0
   11.0137   -4.2652   23.9447 H   0  0  0  0  0  0  0  0  0  0  0  0
    4.7816    2.0660   17.4901 H   0  0  0  0  0  0  0  0  0  0  0  0
    5.4934    0.4579   22.1787 H   0  0  0  0  0  0  0  0  0  0  0  0
    7.5948   -0.7788   24.7997 H   0  0  0  0  0  0  0  0  0  0  0  0
   11.0411   -2.1856   22.6358 H   0  0  0  0  0  0  0  0  0  0  0  0
   11.8338    1.0798   21.3902 H   0  0  0  0  0  0  0  0  0  0  0  0
   14.4176    0.9966   21.8719 H   0  0  0  0  0  0  0  0  0  0  0  0
   12.0446    0.9149   25.7428 H   0  0  0  0  0  0  0  0  0  0  0  0
    8.5166   -1.1054   18.4533 H   0  0  0  0  0  0  0  0  0  0  0  0
    8.6398   -5.7223   25.3871 H   0  0  0  0  0  0  0  0  0  0  0  0
   10.2715   -5.3829   26.0145 H   0  0  0  0  0  0  0  0  0  0  0  0
    8.8596   -4.8092   26.9004 H   0  0  0  0  0  0  0  0  0  0  0  0
    9.6778    1.0140   24.6966 H   0  0  0  0  0  0  0  0  0  0  0  0
    9.6316    1.9637   23.2107 H   0  0  0  0  0  0  0  0  0  0  0  0
    8.0998   -1.8216   21.3383 H   0  0  0  0  0  0  0  0  0  0  0  0
  1  2  1  0  0  0  0
  1  5  2  0  0  0  0
  2  6  2  0  0  0  0
  3  7  2  0  0  0  0
  3 13  1  0  0  0  0
  4  8  1  0  0  0  0
  4 13  2  0  0  0  0
  5 15  1  0  0  0  0
  6 16  1  0  0  0  0
  7 17  1  0  0  0  0
  8 17  2  0  0  0  0
  9 10  2  0  0  0  0
  9 14  1  0  0  0  0
 10 26  1  0  0  0  0
 11 14  2  0  0  0  0
 11 26  1  0  0  0  0
 12 21  2  0  0  0  0
 12 22  1  0  0  0  0
 13 19  1  0  0  0  0
 14 20  1  0  0  0  0
 15 16  2  0  0  0  0
 15 21  1  0  0  0  0
 16 22  1  0  0  0  0
 17 24  1  0  0  0  0
 18 23  1  0  0  0  0
 18 24  1  0  0  0  0
 18 25  2  0  0  0  0
 20 24  1  0  0  0  0
 22 23  1  0  0  0  0
  1 27  1  0  0  0  0
  2 28  1  0  0  0  0
  3 29  1  0  0  0  0
  4 30  1  0  0  0  0
  5 31  1  0  0  0  0
  6 32  1  0  0  0  0
  7 33  1  0  0  0  0
  8 34  1  0  0  0  0
  9 35  1  0  0  0  0
 10 36  1  0  0  0  0
 11 37  1  0  0  0  0
 12 38  1  0  0  0  0
 19 39  1  0  0  0  0
 19 40  1  0  0  0  0
 19 41  1  0  0  0  0
 20 42  1  0  0  0  0
 20 43  1  0  0  0  0
 23 44  1  0  0  0  0
M  END
> <clash_score>
0

> <docking_score>
-9.8130521774292

> <overlap_score>
0.9457805752754211

$$$$
BENZO_38_1
  -OEChem-08222022383D

 59 63  0     0  0  0  0  0  0999 V2000
    4.0980    2.1130   19.5350 C   0  0  0  0  0  0  0  0  0  0  0  0
    4.2970    1.6690   20.8430 C   0  0  0  0  0  0  0  0  0  0  0  0
   13.6668    1.7807   24.3938 C   0  0  0  0  0  0  0  0  0  0  0  0
   12.2735    1.8136   24.4501 C   0  0  0  0  0  0  0  0  0  0  0  0
    4.9400    1.7060   18.5060 C   0  0  0  0  0  0  0  0  0  0  0  0
    5.3360    0.8000   21.1530 C   0  0  0  0  0  0  0  0  0  0  0  0
    8.3310   -2.7170   25.3430 C   0  0  0  0  0  0  0  0  0  0  0  0
   10.2570   -3.5000   24.1350 C   0  0  0  0  0  0  0  0  0  0  0  0
    8.3510   -1.5420   24.6110 C   0  0  0  0  0  0  0  0  0  0  0  0
   10.2760   -2.3270   23.4020 C   0  0  0  0  0  0  0  0  0  0  0  0
   14.3084    0.9422   23.4822 C   0  0  0  0  0  0  0  0  0  0  0  0
   12.1632    0.1693   22.6834 C   0  0  0  0  0  0  0  0  0  0  0  0
    7.6830   -0.5170   18.7600 C   0  0  0  0  0  0  0  0  0  0  0  0
   11.5217    1.0079   23.5949 C   0  0  0  0  0  0  0  0  0  0  0  0
    5.9810    0.8330   18.8060 C   0  0  0  0  0  0  0  0  0  0  0  0
    6.1600    0.3870   20.1140 C   0  0  0  0  0  0  0  0  0  0  0  0
    9.2850   -3.7090   25.1090 C   0  0  0  0  0  0  0  0  0  0  0  0
    9.3300   -1.3350   23.6390 C   0  0  0  0  0  0  0  0  0  0  0  0
   13.5566    0.1365   22.6270 C   0  0  0  0  0  0  0  0  0  0  0  0
    8.9510    0.1280   21.6880 C   0  0  0  0  0  0  0  0  0  0  0  0
    7.3162   -6.8834   26.5210 C   0  0  0  0  0  0  0  0  0  0  0  0
    7.3507   -5.5245   27.2240 C   0  0  0  0  0  0  0  0  0  0  0  0
    7.9375   -6.8069   25.1245 C   0  0  0  0  0  0  0  0  0  0  0  0
    8.7638   -4.9418   27.2163 C   0  0  0  0  0  0  0  0  0  0  0  0
    9.3378   -6.1874   25.1659 C   0  0  0  0  0  0  0  0  0  0  0  0
   10.0220    1.0430   23.6570 C   0  0  0  0  0  0  0  0  0  0  0  0
    6.9440    0.2550   18.0100 N   0  0  0  0  0  0  0  0  0  0  0  0
    7.2210   -0.4620   20.0350 N   0  0  0  0  0  0  0  0  0  0  0  0
    9.2639   -4.8860   25.8399 N   0  0  0  0  0  0  0  0  0  0  0  0
    8.0810   -0.9750   21.0820 N   0  0  0  0  0  0  0  0  0  0  0  0
    9.4200   -0.0840   22.9530 N   0  0  0  0  0  0  0  0  0  0  0  0
    9.1870    1.1500   21.0630 O   0  0  0  0  0  0  0  0  0  0  0  0
   14.3487   -0.8988   21.5034 Cl  0  0  0  0  0  0  0  0  0  0  0  0
    3.2711    2.7870   19.3201 H   0  0  0  0  0  0  0  0  0  0  0  0
    3.6262    2.0082   21.6284 H   0  0  0  0  0  0  0  0  0  0  0  0
   14.2519    2.4082   25.0600 H   0  0  0  0  0  0  0  0  0  0  0  0
   11.7821    2.4700   25.1636 H   0  0  0  0  0  0  0  0  0  0  0  0
    4.7816    2.0660   17.4901 H   0  0  0  0  0  0  0  0  0  0  0  0
    5.4934    0.4579   22.1787 H   0  0  0  0  0  0  0  0  0  0  0  0
    7.5647   -2.8621   26.1053 H   0  0  0  0  0  0  0  0  0  0  0  0
   11.0144   -4.2642   23.9425 H   0  0  0  0  0  0  0  0  0  0  0  0
    7.5958   -0.7779   24.8006 H   0  0  0  0  0  0  0  0  0  0  0  0
   11.0406   -2.1848   22.6356 H   0  0  0  0  0  0  0  0  0  0  0  0
   15.3950    0.9267   23.4496 H   0  0  0  0  0  0  0  0  0  0  0  0
   11.5726   -0.4565   22.0184 H   0  0  0  0  0  0  0  0  0  0  0  0
    8.5166   -1.1054   18.4533 H   0  0  0  0  0  0  0  0  0  0  0  0
    7.8578   -7.6261   27.1266 H   0  0  0  0  0  0  0  0  0  0  0  0
    6.2773   -7.2358   26.4459 H   0  0  0  0  0  0  0  0  0  0  0  0
    6.6663   -4.8351   26.7223 H   0  0  0  0  0  0  0  0  0  0  0  0
    7.0044   -5.6368   28.2534 H   0  0  0  0  0  0  0  0  0  0  0  0
    7.9946   -7.8119   24.6937 H   0  0  0  0  0  0  0  0  0  0  0  0
    7.2929   -6.2123   24.4668 H   0  0  0  0  0  0  0  0  0  0  0  0
    8.7343   -3.9408   27.6542 H   0  0  0  0  0  0  0  0  0  0  0  0
    9.4243   -5.5632   27.8278 H   0  0  0  0  0  0  0  0  0  0  0  0
   10.0200   -6.8490   25.7011 H   0  0  0  0  0  0  0  0  0  0  0  0
    9.6984   -6.0694   24.1436 H   0  0  0  0  0  0  0  0  0  0  0  0
    9.6778    1.0140   24.6966 H   0  0  0  0  0  0  0  0  0  0  0  0
    9.6316    1.9637   23.2107 H   0  0  0  0  0  0  0  0  0  0  0  0
    8.1334   -1.7991   21.3673 H   0  0  0  0  0  0  0  0  0  0  0  0
  1  2  1  0  0  0  0
  1  5  2  0  0  0  0
  2  6  2  0  0  0  0
  3  4  2  0  0  0  0
  3 11  1  0  0  0  0
  4 14  1  0  0  0  0
  5 15  1  0  0  0  0
  6 16  1  0  0  0  0
  7  9  2  0  0  0  0
  7 17  1  0  0  0  0
  8 10  1  0  0  0  0
  8 17  2  0  0  0  0
  9 18  1  0  0  0  0
 10 18  2  0  0  0  0
 11 19  2  0  0  0  0
 12 14  2  0  0  0  0
 12 19  1  0  0  0  0
 13 27  2  0  0  0  0
 13 28  1  0  0  0  0
 14 26  1  0  0  0  0
 15 16  2  0  0  0  0
 15 27  1  0  0  0  0
 16 28  1  0  0  0  0
 17 29  1  0  0  0  0
 18 31  1  0  0  0  0
 19 33  1  0  0  0  0
 20 30  1  0  0  0  0
 20 31  1  0  0  0  0
 20 32  2  0  0  0  0
 21 22  1  0  0  0  0
 21 23  1  0  0  0  0
 22 24  1  0  0  0  0
 23 25  1  0  0  0  0
 24 29  1  0  0  0  0
 25 29  1  0  0  0  0
 26 31  1  0  0  0  0
 28 30  1  0  0  0  0
  1 34  1  0  0  0  0
  2 35  1  0  0  0  0
  3 36  1  0  0  0  0
  4 37  1  0  0  0  0
  5 38  1  0  0  0  0
  6 39  1  0  0  0  0
  7 40  1  0  0  0  0
  8 41  1  0  0  0  0
  9 42  1  0  0  0  0
 10 43  1  0  0  0  0
 11 44  1  0  0  0  0
 12 45  1  0  0  0  0
 13 46  1  0  0  0  0
 21 47  1  0  0  0  0
 21 48  1  0  0  0  0
 22 49  1  0  0  0  0
 22 50  1  0  0  0  0
 23 51  1  0  0  0  0
 23 52  1  0  0  0  0
 24 53  1  0  0  0  0
 24 54  1  0  0  0  0
 25 55  1  0  0  0  0
 25 56  1  0  0  0  0
 26 57  1  0  0  0  0
 26 58  1  0  0  0  0
 30 59  1  0  0  0  0
M  END
> <clash_score>
0

> <docking_score>
-7.860104084014893

> <overlap_score>
0.9966533184051514

$$$$
BENZO_39_1
  -OEChem-08222022383D

 59 63  0     0  0  0  0  0  0999 V2000
    4.0980    2.1130   19.5350 C   0  0  0  0  0  0  0  0  0  0  0  0
    4.2970    1.6690   20.8430 C   0  0  0  0  0  0  0  0  0  0  0  0
    4.9400    1.7060   18.5060 C   0  0  0  0  0  0  0  0  0  0  0  0
    5.3360    0.8000   21.1530 C   0  0  0  0  0  0  0  0  0  0  0  0
    8.3310   -2.7170   25.3430 C   0  0  0  0  0  0  0  0  0  0  0  0
   10.2570   -3.5000   24.1350 C   0  0  0  0  0  0  0  0  0  0  0  0
    8.3510   -1.5420   24.6110 C   0  0  0  0  0  0  0  0  0  0  0  0
   10.2760   -2.3270   23.4020 C   0  0  0  0  0  0  0  0  0  0  0  0
   12.4359    1.7439   24.3724 C   0  0  0  0  0  0  0  0  0  0  0  0
   12.3100    0.2469   22.7668 C   0  0  0  0  0  0  0  0  0  0  0  0
    7.6830   -0.5170   18.7600 C   0  0  0  0  0  0  0  0  0  0  0  0
   11.5217    1.0079   23.5949 C   0  0  0  0  0  0  0  0  0  0  0  0
    5.9810    0.8330   18.8060 C   0  0  0  0  0  0  0  0  0  0  0  0
    6.1600    0.3870   20.1140 C   0  0  0  0  0  0  0  0  0  0  0  0
    9.2850   -3.7090   25.1090 C   0  0  0  0  0  0  0  0  0  0  0  0
    9.3300   -1.3350   23.6390 C   0  0  0  0  0  0  0  0  0  0  0  0
    8.9510    0.1280   21.6880 C   0  0  0  0  0  0  0  0  0  0  0  0
    7.3162   -6.8834   26.5210 C   0  0  0  0  0  0  0  0  0  0  0  0
    7.3507   -5.5245   27.2240 C   0  0  0  0  0  0  0  0  0  0  0  0
    7.9375   -6.8069   25.1245 C   0  0  0  0  0  0  0  0  0  0  0  0
    8.7638   -4.9418   27.2163 C   0  0  0  0  0  0  0  0  0  0  0  0
    9.3378   -6.1874   25.1659 C   0  0  0  0  0  0  0  0  0  0  0  0
   14.7884    0.0124   22.4815 C   0  0  0  0  0  0  0  0  0  0  0  0
   10.0220    1.0430   23.6570 C   0  0  0  0  0  0  0  0  0  0  0  0
   13.7076    1.4745   24.0657 N   0  0  0  0  0  0  0  0  0  0  0  0
    6.9440    0.2550   18.0100 N   0  0  0  0  0  0  0  0  0  0  0  0
   13.5982    0.5607   23.0864 N   0  0  0  0  0  0  0  0  0  0  0  0
    7.2210   -0.4620   20.0350 N   0  0  0  0  0  0  0  0  0  0  0  0
    9.2639   -4.8860   25.8399 N   0  0  0  0  0  0  0  0  0  0  0  0
    8.0810   -0.9750   21.0820 N   0  0  0  0  0  0  0  0  0  0  0  0
    9.4200   -0.0840   22.9530 N   0  0  0  0  0  0  0  0  0  0  0  0
    9.1870    1.1500   21.0630 O   0  0  0  0  0  0  0  0  0  0  0  0
    3.2711    2.7870   19.3201 H   0  0  0  0  0  0  0  0  0  0  0  0
    3.6262    2.0082   21.6284 H   0  0  0  0  0  0  0  0  0  0  0  0
    4.7816    2.0660   17.4901 H   0  0  0  0  0  0  0  0  0  0  0  0
    5.4934    0.4579   22.1787 H   0  0  0  0  0  0  0  0  0  0  0  0
    7.5647   -2.8621   26.1053 H   0  0  0  0  0  0  0  0  0  0  0  0
   11.0144   -4.2642   23.9425 H   0  0  0  0  0  0  0  0  0  0  0  0
    7.5958   -0.7779   24.8006 H   0  0  0  0  0  0  0  0  0  0  0  0
   11.0406   -2.1848   22.6356 H   0  0  0  0  0  0  0  0  0  0  0  0
   12.2308    2.4652   25.1508 H   0  0  0  0  0  0  0  0  0  0  0  0
   12.0700   -0.4744   21.9974 H   0  0  0  0  0  0  0  0  0  0  0  0
    8.5166   -1.1054   18.4533 H   0  0  0  0  0  0  0  0  0  0  0  0
    7.8578   -7.6261   27.1266 H   0  0  0  0  0  0  0  0  0  0  0  0
    6.2773   -7.2358   26.4459 H   0  0  0  0  0  0  0  0  0  0  0  0
    6.6663   -4.8351   26.7223 H   0  0  0  0  0  0  0  0  0  0  0  0
    7.0044   -5.6368   28.2534 H   0  0  0  0  0  0  0  0  0  0  0  0
    7.9946   -7.8119   24.6937 H   0  0  0  0  0  0  0  0  0  0  0  0
    7.2929   -6.2123   24.4668 H   0  0  0  0  0  0  0  0  0  0  0  0
    8.7343   -3.9408   27.6542 H   0  0  0  0  0  0  0  0  0  0  0  0
    9.4243   -5.5632   27.8278 H   0  0  0  0  0  0  0  0  0  0  0  0
   10.0200   -6.8490   25.7011 H   0  0  0  0  0  0  0  0  0  0  0  0
    9.6984   -6.0694   24.1436 H   0  0  0  0  0  0  0  0  0  0  0  0
   15.0569    0.6453   21.6315 H   0  0  0  0  0  0  0  0  0  0  0  0
   15.5971   -0.0026   23.2174 H   0  0  0  0  0  0  0  0  0  0  0  0
   14.5870   -1.0100   22.1498 H   0  0  0  0  0  0  0  0  0  0  0  0
    9.6778    1.0140   24.6966 H   0  0  0  0  0  0  0  0  0  0  0  0
    9.6316    1.9637   23.2107 H   0  0  0  0  0  0  0  0  0  0  0  0
    8.1334   -1.7991   21.3673 H   0  0  0  0  0  0  0  0  0  0  0  0
  1  2  1  0  0  0  0
  1  3  2  0  0  0  0
  2  4  2  0  0  0  0
  3 13  1  0  0  0  0
  4 14  1  0  0  0  0
  5  7  2  0  0  0  0
  5 15  1  0  0  0  0
  6  8  1  0  0  0  0
  6 15  2  0  0  0  0
  7 16  1  0  0  0  0
  8 16  2  0  0  0  0
  9 12  1  0  0  0  0
  9 25  2  0  0  0  0
 10 12  2  0  0  0  0
 10 27  1  0  0  0  0
 11 26  2  0  0  0  0
 11 28  1  0  0  0  0
 12 24  1  0  0  0  0
 13 14  2  0  0  0  0
 13 26  1  0  0  0  0
 14 28  1  0  0  0  0
 15 29  1  0  0  0  0
 16 31  1  0  0  0  0
 17 30  1  0  0  0  0
 17 31  1  0  0  0  0
 17 32  2  0  0  0  0
 18 19  1  0  0  0  0
 18 20  1  0  0  0  0
 19 21  1  0  0  0  0
 20 22  1  0  0  0  0
 21 29  1  0  0  0  0
 22 29  1  0  0  0  0
 23 27  1  0  0  0  0
 24 31  1  0  0  0  0
 25 27  1  0  0  0  0
 28 30  1  0  0  0  0
  1 33  1  0  0  0  0
  2 34  1  0  0  0  0
  3 35  1  0  0  0  0
  4 36  1  0  0  0  0
  5 37  1  0  0  0  0
  6 38  1  0  0  0  0
  7 39  1  0  0  0  0
  8 40  1  0  0  0  0
  9 41  1  0  0  0  0
 10 42  1  0  0  0  0
 11 43  1  0  0  0  0
 18 44  1  0  0  0  0
 18 45  1  0  0  0  0
 19 46  1  0  0  0  0
 19 47  1  0  0  0  0
 20 48  1  0  0  0  0
 20 49  1  0  0  0  0
 21 50  1  0  0  0  0
 21 51  1  0  0  0  0
 22 52  1  0  0  0  0
 22 53  1  0  0  0  0
 23 54  1  0  0  0  0
 23 55  1  0  0  0  0
 23 56  1  0  0  0  0
 24 57  1  0  0  0  0
 24 58  1  0  0  0  0
 30 59  1  0  0  0  0
M  END
> <clash_score>
0

> <docking_score>
-8.823797225952148

> <overlap_score>
1.0017565488815308

$$$$
BENZO_43_1
  -OEChem-08222022383D

 47 50  0     0  0  0  0  0  0999 V2000
    4.0980    2.1130   19.5350 C   0  0  0  0  0  0  0  0  0  0  0  0
    4.2970    1.6690   20.8430 C   0  0  0  0  0  0  0  0  0  0  0  0
    8.3310   -2.7170   25.3430 C   0  0  0  0  0  0  0  0  0  0  0  0
   10.2570   -3.5000   24.1350 C   0  0  0  0  0  0  0  0  0  0  0  0
    4.9400    1.7060   18.5060 C   0  0  0  0  0  0  0  0  0  0  0  0
    5.3360    0.8000   21.1530 C   0  0  0  0  0  0  0  0  0  0  0  0
    8.3510   -1.5420   24.6110 C   0  0  0  0  0  0  0  0  0  0  0  0
   10.2760   -2.3270   23.4020 C   0  0  0  0  0  0  0  0  0  0  0  0
   12.4295    0.9466   24.6692 C   0  0  0  0  0  0  0  0  0  0  0  0
   12.3161    1.0259   22.4747 C   0  0  0  0  0  0  0  0  0  0  0  0
    7.6830   -0.5170   18.7600 C   0  0  0  0  0  0  0  0  0  0  0  0
    9.2850   -3.7090   25.1090 C   0  0  0  0  0  0  0  0  0  0  0  0
   11.5217    1.0079   23.5949 C   0  0  0  0  0  0  0  0  0  0  0  0
    5.9810    0.8330   18.8060 C   0  0  0  0  0  0  0  0  0  0  0  0
    6.1600    0.3870   20.1140 C   0  0  0  0  0  0  0  0  0  0  0  0
    9.3300   -1.3350   23.6390 C   0  0  0  0  0  0  0  0  0  0  0  0
    8.9510    0.1280   21.6880 C   0  0  0  0  0  0  0  0  0  0  0  0
    9.2610   -4.9721   25.8916 C   0  0  0  0  0  0  0  0  0  0  0  0
   14.7958    0.9722   22.1181 C   0  0  0  0  0  0  0  0  0  0  0  0
   10.0220    1.0430   23.6570 C   0  0  0  0  0  0  0  0  0  0  0  0
   13.7032    0.9267   24.2674 N   0  0  0  0  0  0  0  0  0  0  0  0
    6.9440    0.2550   18.0100 N   0  0  0  0  0  0  0  0  0  0  0  0
   13.6014    0.9758   22.9283 N   0  0  0  0  0  0  0  0  0  0  0  0
    7.2210   -0.4620   20.0350 N   0  0  0  0  0  0  0  0  0  0  0  0
    8.0810   -0.9750   21.0820 N   0  0  0  0  0  0  0  0  0  0  0  0
    9.4200   -0.0840   22.9530 N   0  0  0  0  0  0  0  0  0  0  0  0
    9.1870    1.1500   21.0630 O   0  0  0  0  0  0  0  0  0  0  0  0
    3.2711    2.7870   19.3201 H   0  0  0  0  0  0  0  0  0  0  0  0
    3.6262    2.0082   21.6284 H   0  0  0  0  0  0  0  0  0  0  0  0
    7.5665   -2.8638   26.1066 H   0  0  0  0  0  0  0  0  0  0  0  0
   11.0137   -4.2652   23.9447 H   0  0  0  0  0  0  0  0  0  0  0  0
    4.7816    2.0660   17.4901 H   0  0  0  0  0  0  0  0  0  0  0  0
    5.4934    0.4579   22.1787 H   0  0  0  0  0  0  0  0  0  0  0  0
    7.5948   -0.7788   24.7997 H   0  0  0  0  0  0  0  0  0  0  0  0
   11.0411   -2.1856   22.6358 H   0  0  0  0  0  0  0  0  0  0  0  0
   12.2184    0.9145   25.7287 H   0  0  0  0  0  0  0  0  0  0  0  0
   12.0821    1.0677   21.4195 H   0  0  0  0  0  0  0  0  0  0  0  0
    8.5166   -1.1054   18.4533 H   0  0  0  0  0  0  0  0  0  0  0  0
    8.6398   -5.7223   25.3871 H   0  0  0  0  0  0  0  0  0  0  0  0
   10.2715   -5.3829   26.0145 H   0  0  0  0  0  0  0  0  0  0  0  0
    8.8596   -4.8092   26.9004 H   0  0  0  0  0  0  0  0  0  0  0  0
   15.1026    2.0102   21.9649 H   0  0  0  0  0  0  0  0  0  0  0  0
   15.5825    0.4128   22.6318 H   0  0  0  0  0  0  0  0  0  0  0  0
   14.5811    0.4906   21.1600 H   0  0  0  0  0  0  0  0  0  0  0  0
    9.6778    1.0140   24.6966 H   0  0  0  0  0  0  0  0  0  0  0  0
    9.6316    1.9637   23.2107 H   0  0  0  0  0  0  0  0  0  0  0  0
    8.0998   -1.8216   21.3383 H   0  0  0  0  0  0  0  0  0  0  0  0
  1  2  1  0  0  0  0
  1  5  2  0  0  0  0
  2  6  2  0  0  0  0
  3  7  2  0  0  0  0
  3 12  1  0  0  0  0
  4  8  1  0  0  0  0
  4 12  2  0  0  0  0
  5 14  1  0  0  0  0
  6 15  1  0  0  0  0
  7 16  1  0  0  0  0
  8 16  2  0  0  0  0
  9 13  1  0  0  0  0
  9 21  2  0  0  0  0
 10 13  2  0  0  0  0
 10 23  1  0  0  0  0
 11 22  2  0  0  0  0
 11 24  1  0  0  0  0
 12 18  1  0  0  0  0
 13 20  1  0  0  0  0
 14 15  2  0  0  0  0
 14 22  1  0  0  0  0
 15 24  1  0  0  0  0
 16 26  1  0  0  0  0
 17 25  1  0  0  0  0
 17 26  1  0  0  0  0
 17 27  2  0  0  0  0
 19 23  1  0  0  0  0
 20 26  1  0  0  0  0
 21 23  1  0  0  0  0
 24 25  1  0  0  0  0
  1 28  1  0  0  0  0
  2 29  1  0  0  0  0
  3 30  1  0  0  0  0
  4 31  1  0  0  0  0
  5 32  1  0  0  0  0
  6 33  1  0  0  0  0
  7 34  1  0  0  0  0
  8 35  1  0  0  0  0
  9 36  1  0  0  0  0
 10 37  1  0  0  0  0
 11 38  1  0  0  0  0
 18 39  1  0  0  0  0
 18 40  1  0  0  0  0
 18 41  1  0  0  0  0
 19 42  1  0  0  0  0
 19 43  1  0  0  0  0
 19 44  1  0  0  0  0
 20 45  1  0  0  0  0
 20 46  1  0  0  0  0
 25 47  1  0  0  0  0
M  END
> <clash_score>
0

> <docking_score>
-9.508910179138184

> <overlap_score>
0.9625561237335205

$$$$
BENZO_42_1
  -OEChem-08222022383D

 47 50  0     0  0  0  0  0  0999 V2000
    4.0980    2.1130   19.5350 C   0  0  0  0  0  0  0  0  0  0  0  0
    4.2970    1.6690   20.8430 C   0  0  0  0  0  0  0  0  0  0  0  0
   13.5977    1.8457   22.6865 C   0  0  0  0  0  0  0  0  0  0  0  0
   12.2044    1.8769   22.7438 C   0  0  0  0  0  0  0  0  0  0  0  0
    8.3310   -2.7170   25.3430 C   0  0  0  0  0  0  0  0  0  0  0  0
   10.2570   -3.5000   24.1350 C   0  0  0  0  0  0  0  0  0  0  0  0
    4.9400    1.7060   18.5060 C   0  0  0  0  0  0  0  0  0  0  0  0
    5.3360    0.8000   21.1530 C   0  0  0  0  0  0  0  0  0  0  0  0
    8.3510   -1.5420   24.6110 C   0  0  0  0  0  0  0  0  0  0  0  0
   10.2760   -2.3270   23.4020 C   0  0  0  0  0  0  0  0  0  0  0  0
   14.3084    0.9454   23.4803 C   0  0  0  0  0  0  0  0  0  0  0  0
   12.2323    0.1076   24.3888 C   0  0  0  0  0  0  0  0  0  0  0  0
    7.6830   -0.5170   18.7600 C   0  0  0  0  0  0  0  0  0  0  0  0
    9.2850   -3.7090   25.1090 C   0  0  0  0  0  0  0  0  0  0  0  0
   11.5217    1.0079   23.5949 C   0  0  0  0  0  0  0  0  0  0  0  0
    5.9810    0.8330   18.8060 C   0  0  0  0  0  0  0  0  0  0  0  0
    6.1600    0.3870   20.1140 C   0  0  0  0  0  0  0  0  0  0  0  0
    9.3300   -1.3350   23.6390 C   0  0  0  0  0  0  0  0  0  0  0  0
   13.6257    0.0764   24.3314 C   0  0  0  0  0  0  0  0  0  0  0  0
    8.9510    0.1280   21.6880 C   0  0  0  0  0  0  0  0  0  0  0  0
    9.2610   -4.9721   25.8916 C   0  0  0  0  0  0  0  0  0  0  0  0
   10.0220    1.0430   23.6570 C   0  0  0  0  0  0  0  0  0  0  0  0
    6.9440    0.2550   18.0100 N   0  0  0  0  0  0  0  0  0  0  0  0
    7.2210   -0.4620   20.0350 N   0  0  0  0  0  0  0  0  0  0  0  0
    8.0810   -0.9750   21.0820 N   0  0  0  0  0  0  0  0  0  0  0  0
    9.4200   -0.0840   22.9530 N   0  0  0  0  0  0  0  0  0  0  0  0
    9.1870    1.1500   21.0630 O   0  0  0  0  0  0  0  0  0  0  0  0
   14.5031   -1.0334   25.3114 Cl  0  0  0  0  0  0  0  0  0  0  0  0
    3.2711    2.7870   19.3201 H   0  0  0  0  0  0  0  0  0  0  0  0
    3.6262    2.0082   21.6284 H   0  0  0  0  0  0  0  0  0  0  0  0
   14.1289    2.5227   22.0237 H   0  0  0  0  0  0  0  0  0  0  0  0
   11.6588    2.5818   22.1218 H   0  0  0  0  0  0  0  0  0  0  0  0
    7.5665   -2.8638   26.1066 H   0  0  0  0  0  0  0  0  0  0  0  0
   11.0137   -4.2652   23.9447 H   0  0  0  0  0  0  0  0  0  0  0  0
    4.7816    2.0660   17.4901 H   0  0  0  0  0  0  0  0  0  0  0  0
    5.4934    0.4579   22.1787 H   0  0  0  0  0  0  0  0  0  0  0  0
    7.5948   -0.7788   24.7997 H   0  0  0  0  0  0  0  0  0  0  0  0
   11.0411   -2.1856   22.6358 H   0  0  0  0  0  0  0  0  0  0  0  0
   15.3941    0.9323   23.4255 H   0  0  0  0  0  0  0  0  0  0  0  0
   11.6954   -0.5682   25.0504 H   0  0  0  0  0  0  0  0  0  0  0  0
    8.5166   -1.1054   18.4533 H   0  0  0  0  0  0  0  0  0  0  0  0
    8.6398   -5.7223   25.3871 H   0  0  0  0  0  0  0  0  0  0  0  0
   10.2715   -5.3829   26.0145 H   0  0  0  0  0  0  0  0  0  0  0  0
    8.8596   -4.8092   26.9004 H   0  0  0  0  0  0  0  0  0  0  0  0
    9.6778    1.0140   24.6966 H   0  0  0  0  0  0  0  0  0  0  0  0
    9.6316    1.9637   23.2107 H   0  0  0  0  0  0  0  0  0  0  0  0
    8.0998   -1.8216   21.3383 H   0  0  0  0  0  0  0  0  0  0  0  0
  1  2  1  0  0  0  0
  1  7  2  0  0  0  0
  2  8  2  0  0  0  0
  3  4  2  0  0  0  0
  3 11  1  0  0  0  0
  4 15  1  0  0  0  0
  5  9  2  0  0  0  0
  5 14  1  0  0  0  0
  6 10  1  0  0  0  0
  6 14  2  0  0  0  0
  7 16  1  0  0  0  0
  8 17  1  0  0  0  0
  9 18  1  0  0  0  0
 10 18  2  0  0  0  0
 11 19  2  0  0  0  0
 12 15  2  0  0  0  0
 12 19  1  0  0  0  0
 13 23  2  0  0  0  0
 13 24  1  0  0  0  0
 14 21  1  0  0  0  0
 15 22  1  0  0  0  0
 16 17  2  0  0  0  0
 16 23  1  0  0  0  0
 17 24  1  0  0  0  0
 18 26  1  0  0  0  0
 19 28  1  0  0  0  0
 20 25  1  0  0  0  0
 20 26  1  0  0  0  0
 20 27  2  0  0  0  0
 22 26  1  0  0  0  0
 24 25  1  0  0  0  0
  1 29  1  0  0  0  0
  2 30  1  0  0  0  0
  3 31  1  0  0  0  0
  4 32  1  0  0  0  0
  5 33  1  0  0  0  0
  6 34  1  0  0  0  0
  7 35  1  0  0  0  0
  8 36  1  0  0  0  0
  9 37  1  0  0  0  0
 10 38  1  0  0  0  0
 11 39  1  0  0  0  0
 12 40  1  0  0  0  0
 13 41  1  0  0  0  0
 21 42  1  0  0  0  0
 21 43  1  0  0  0  0
 21 44  1  0  0  0  0
 22 45  1  0  0  0  0
 22 46  1  0  0  0  0
 25 47  1  0  0  0  0
M  END
> <clash_score>
0.7662446160513033

> <docking_score>
-8.748749732971191

> <overlap_score>
0.9770407676696777

$$$$
BENZO_45_1
  -OEChem-08222022383D

 48 51  0     0  0  0  0  0  0999 V2000
   14.3082    0.9431   23.4783 C   0  0  0  0  0  0  0  0  0  0  0  0
   13.6391    0.3091   24.5251 C   0  0  0  0  0  0  0  0  0  0  0  0
   13.5841    1.6096   22.4898 C   0  0  0  0  0  0  0  0  0  0  0  0
    4.0980    2.1130   19.5350 C   0  0  0  0  0  0  0  0  0  0  0  0
    4.2970    1.6690   20.8430 C   0  0  0  0  0  0  0  0  0  0  0  0
   12.2459    0.3415   24.5835 C   0  0  0  0  0  0  0  0  0  0  0  0
   12.1908    1.6420   22.5481 C   0  0  0  0  0  0  0  0  0  0  0  0
    4.9400    1.7060   18.5060 C   0  0  0  0  0  0  0  0  0  0  0  0
    5.3360    0.8000   21.1530 C   0  0  0  0  0  0  0  0  0  0  0  0
    8.3510   -1.5420   24.6110 C   0  0  0  0  0  0  0  0  0  0  0  0
   10.2760   -2.3270   23.4020 C   0  0  0  0  0  0  0  0  0  0  0  0
    8.3310   -2.7170   25.3430 C   0  0  0  0  0  0  0  0  0  0  0  0
   10.2570   -3.5000   24.1350 C   0  0  0  0  0  0  0  0  0  0  0  0
    7.6830   -0.5170   18.7600 C   0  0  0  0  0  0  0  0  0  0  0  0
   11.5217    1.0079   23.5949 C   0  0  0  0  0  0  0  0  0  0  0  0
    5.9810    0.8330   18.8060 C   0  0  0  0  0  0  0  0  0  0  0  0
    6.1600    0.3870   20.1140 C   0  0  0  0  0  0  0  0  0  0  0  0
    9.3300   -1.3350   23.6390 C   0  0  0  0  0  0  0  0  0  0  0  0
    9.2850   -3.7090   25.1090 C   0  0  0  0  0  0  0  0  0  0  0  0
    8.9510    0.1280   21.6880 C   0  0  0  0  0  0  0  0  0  0  0  0
    8.2347   -4.9978   26.8024 C   0  0  0  0  0  0  0  0  0  0  0  0
   10.0220    1.0430   23.6570 C   0  0  0  0  0  0  0  0  0  0  0  0
    6.9440    0.2550   18.0100 N   0  0  0  0  0  0  0  0  0  0  0  0
    7.2210   -0.4620   20.0350 N   0  0  0  0  0  0  0  0  0  0  0  0
    8.0810   -0.9750   21.0820 N   0  0  0  0  0  0  0  0  0  0  0  0
    9.4200   -0.0840   22.9530 N   0  0  0  0  0  0  0  0  0  0  0  0
    9.1870    1.1500   21.0630 O   0  0  0  0  0  0  0  0  0  0  0  0
    9.2631   -4.8614   25.8229 O   0  0  0  0  0  0  0  0  0  0  0  0
   15.3932    0.9189   23.4337 H   0  0  0  0  0  0  0  0  0  0  0  0
   14.2029   -0.2090   25.2955 H   0  0  0  0  0  0  0  0  0  0  0  0
   14.1048    2.1043   21.6752 H   0  0  0  0  0  0  0  0  0  0  0  0
    3.2711    2.7870   19.3201 H   0  0  0  0  0  0  0  0  0  0  0  0
    3.6262    2.0082   21.6284 H   0  0  0  0  0  0  0  0  0  0  0  0
   11.7330   -0.1555   25.4027 H   0  0  0  0  0  0  0  0  0  0  0  0
   11.6349    2.1636   21.7735 H   0  0  0  0  0  0  0  0  0  0  0  0
    4.7816    2.0660   17.4901 H   0  0  0  0  0  0  0  0  0  0  0  0
    5.4934    0.4579   22.1787 H   0  0  0  0  0  0  0  0  0  0  0  0
    7.5951   -0.7786   24.8000 H   0  0  0  0  0  0  0  0  0  0  0  0
   11.0406   -2.1866   22.6351 H   0  0  0  0  0  0  0  0  0  0  0  0
    7.5664   -2.8674   26.1055 H   0  0  0  0  0  0  0  0  0  0  0  0
   11.0119   -4.2671   23.9461 H   0  0  0  0  0  0  0  0  0  0  0  0
    8.5166   -1.1054   18.4533 H   0  0  0  0  0  0  0  0  0  0  0  0
    8.3310   -5.9656   27.3006 H   0  0  0  0  0  0  0  0  0  0  0  0
    7.2575   -4.9205   26.3191 H   0  0  0  0  0  0  0  0  0  0  0  0
    8.3382   -4.1987   27.5403 H   0  0  0  0  0  0  0  0  0  0  0  0
    9.6778    1.0140   24.6966 H   0  0  0  0  0  0  0  0  0  0  0  0
    9.6316    1.9637   23.2107 H   0  0  0  0  0  0  0  0  0  0  0  0
    8.0998   -1.8216   21.3383 H   0  0  0  0  0  0  0  0  0  0  0  0
  1  2  1  0  0  0  0
  1  3  2  0  0  0  0
  2  6  2  0  0  0  0
  3  7  1  0  0  0  0
  4  5  1  0  0  0  0
  4  8  2  0  0  0  0
  5  9  2  0  0  0  0
  6 15  1  0  0  0  0
  7 15  2  0  0  0  0
  8 16  1  0  0  0  0
  9 17  1  0  0  0  0
 10 12  2  0  0  0  0
 10 18  1  0  0  0  0
 11 13  1  0  0  0  0
 11 18  2  0  0  0  0
 12 19  1  0  0  0  0
 13 19  2  0  0  0  0
 14 23  2  0  0  0  0
 14 24  1  0  0  0  0
 15 22  1  0  0  0  0
 16 17  2  0  0  0  0
 16 23  1  0  0  0  0
 17 24  1  0  0  0  0
 18 26  1  0  0  0  0
 19 28  1  0  0  0  0
 20 25  1  0  0  0  0
 20 26  1  0  0  0  0
 20 27  2  0  0  0  0
 21 28  1  0  0  0  0
 22 26  1  0  0  0  0
 24 25  1  0  0  0  0
  1 29  1  0  0  0  0
  2 30  1  0  0  0  0
  3 31  1  0  0  0  0
  4 32  1  0  0  0  0
  5 33  1  0  0  0  0
  6 34  1  0  0  0  0
  7 35  1  0  0  0  0
  8 36  1  0  0  0  0
  9 37  1  0  0  0  0
 10 38  1  0  0  0  0
 11 39  1  0  0  0  0
 12 40  1  0  0  0  0
 13 41  1  0  0  0  0
 14 42  1  0  0  0  0
 21 43  1  0  0  0  0
 21 44  1  0  0  0  0
 21 45  1  0  0  0  0
 22 46  1  0  0  0  0
 22 47  1  0  0  0  0
 25 48  1  0  0  0  0
M  END
> <clash_score>
0

> <docking_score>
-9.27592945098877

> <overlap_score>
0.9956544637680054

$$$$
BENZO_44_1
  -OEChem-08222022383D

 45 48  0     0  0  0  0  0  0999 V2000
    4.0980    2.1130   19.5350 C   0  0  0  0  0  0  0  0  0  0  0  0
    4.2970    1.6690   20.8430 C   0  0  0  0  0  0  0  0  0  0  0  0
    4.9400    1.7060   18.5060 C   0  0  0  0  0  0  0  0  0  0  0  0
    5.3360    0.8000   21.1530 C   0  0  0  0  0  0  0  0  0  0  0  0
    8.3510   -1.5420   24.6110 C   0  0  0  0  0  0  0  0  0  0  0  0
   10.2760   -2.3270   23.4020 C   0  0  0  0  0  0  0  0  0  0  0  0
    8.3310   -2.7170   25.3430 C   0  0  0  0  0  0  0  0  0  0  0  0
   10.2570   -3.5000   24.1350 C   0  0  0  0  0  0  0  0  0  0  0  0
   12.2675    1.0332   22.3812 C   0  0  0  0  0  0  0  0  0  0  0  0
   13.6257    0.9906   22.6074 C   0  0  0  0  0  0  0  0  0  0  0  0
   12.3384    0.9467   24.7028 C   0  0  0  0  0  0  0  0  0  0  0  0
    7.6830   -0.5170   18.7600 C   0  0  0  0  0  0  0  0  0  0  0  0
   11.5217    1.0079   23.5949 C   0  0  0  0  0  0  0  0  0  0  0  0
    5.9810    0.8330   18.8060 C   0  0  0  0  0  0  0  0  0  0  0  0
    6.1600    0.3870   20.1140 C   0  0  0  0  0  0  0  0  0  0  0  0
    9.3300   -1.3350   23.6390 C   0  0  0  0  0  0  0  0  0  0  0  0
    9.2850   -3.7090   25.1090 C   0  0  0  0  0  0  0  0  0  0  0  0
    8.9510    0.1280   21.6880 C   0  0  0  0  0  0  0  0  0  0  0  0
    8.2347   -4.9978   26.8024 C   0  0  0  0  0  0  0  0  0  0  0  0
   10.0220    1.0430   23.6570 C   0  0  0  0  0  0  0  0  0  0  0  0
    6.9440    0.2550   18.0100 N   0  0  0  0  0  0  0  0  0  0  0  0
    7.2210   -0.4620   20.0350 N   0  0  0  0  0  0  0  0  0  0  0  0
    8.0810   -0.9750   21.0820 N   0  0  0  0  0  0  0  0  0  0  0  0
    9.4200   -0.0840   22.9530 N   0  0  0  0  0  0  0  0  0  0  0  0
    9.1870    1.1500   21.0630 O   0  0  0  0  0  0  0  0  0  0  0  0
    9.2631   -4.8614   25.8229 O   0  0  0  0  0  0  0  0  0  0  0  0
   13.9969    0.9203   24.2776 S   0  0  0  0  0  0  0  0  0  0  0  0
    3.2711    2.7870   19.3201 H   0  0  0  0  0  0  0  0  0  0  0  0
    3.6262    2.0082   21.6284 H   0  0  0  0  0  0  0  0  0  0  0  0
    4.7816    2.0660   17.4901 H   0  0  0  0  0  0  0  0  0  0  0  0
    5.4934    0.4579   22.1787 H   0  0  0  0  0  0  0  0  0  0  0  0
    7.5951   -0.7786   24.8000 H   0  0  0  0  0  0  0  0  0  0  0  0
   11.0406   -2.1866   22.6351 H   0  0  0  0  0  0  0  0  0  0  0  0
    7.5664   -2.8674   26.1055 H   0  0  0  0  0  0  0  0  0  0  0  0
   11.0119   -4.2671   23.9461 H   0  0  0  0  0  0  0  0  0  0  0  0
   11.8338    1.0798   21.3902 H   0  0  0  0  0  0  0  0  0  0  0  0
   14.4176    0.9966   21.8719 H   0  0  0  0  0  0  0  0  0  0  0  0
   12.0446    0.9149   25.7428 H   0  0  0  0  0  0  0  0  0  0  0  0
    8.5166   -1.1054   18.4533 H   0  0  0  0  0  0  0  0  0  0  0  0
    8.3310   -5.9656   27.3006 H   0  0  0  0  0  0  0  0  0  0  0  0
    7.2575   -4.9205   26.3191 H   0  0  0  0  0  0  0  0  0  0  0  0
    8.3382   -4.1987   27.5403 H   0  0  0  0  0  0  0  0  0  0  0  0
    9.6778    1.0140   24.6966 H   0  0  0  0  0  0  0  0  0  0  0  0
    9.6316    1.9637   23.2107 H   0  0  0  0  0  0  0  0  0  0  0  0
    8.0998   -1.8216   21.3383 H   0  0  0  0  0  0  0  0  0  0  0  0
  1  2  1  0  0  0  0
  1  3  2  0  0  0  0
  2  4  2  0  0  0  0
  3 14  1  0  0  0  0
  4 15  1  0  0  0  0
  5  7  2  0  0  0  0
  5 16  1  0  0  0  0
  6  8  1  0  0  0  0
  6 16  2  0  0  0  0
  7 17  1  0  0  0  0
  8 17  2  0  0  0  0
  9 10  2  0  0  0  0
  9 13  1  0  0  0  0
 10 27  1  0  0  0  0
 11 13  2  0  0  0  0
 11 27  1  0  0  0  0
 12 21  2  0  0  0  0
 12 22  1  0  0  0  0
 13 20  1  0  0  0  0
 14 15  2  0  0  0  0
 14 21  1  0  0  0  0
 15 22  1  0  0  0  0
 16 24  1  0  0  0  0
 17 26  1  0  0  0  0
 18 23  1  0  0  0  0
 18 24  1  0  0  0  0
 18 25  2  0  0  0  0
 19 26  1  0  0  0  0
 20 24  1  0  0  0  0
 22 23  1  0  0  0  0
  1 28  1  0  0  0  0
  2 29  1  0  0  0  0
  3 30  1  0  0  0  0
  4 31  1  0  0  0  0
  5 32  1  0  0  0  0
  6 33  1  0  0  0  0
  7 34  1  0  0  0  0
  8 35  1  0  0  0  0
  9 36  1  0  0  0  0
 10 37  1  0  0  0  0
 11 38  1  0  0  0  0
 12 39  1  0  0  0  0
 19 40  1  0  0  0  0
 19 41  1  0  0  0  0
 19 42  1  0  0  0  0
 20 43  1  0  0  0  0
 20 44  1  0  0  0  0
 23 45  1  0  0  0  0
M  END
> <clash_score>
0

> <docking_score>
-9.52213191986084

> <overlap_score>
0.9697703123092651

$$$$
BENZO_47_1
  -OEChem-08222022383D

 48 51  0     0  0  0  0  0  0999 V2000
    4.0980    2.1130   19.5350 C   0  0  0  0  0  0  0  0  0  0  0  0
    4.2970    1.6690   20.8430 C   0  0  0  0  0  0  0  0  0  0  0  0
    4.9400    1.7060   18.5060 C   0  0  0  0  0  0  0  0  0  0  0  0
    5.3360    0.8000   21.1530 C   0  0  0  0  0  0  0  0  0  0  0  0
    8.3510   -1.5420   24.6110 C   0  0  0  0  0  0  0  0  0  0  0  0
   10.2760   -2.3270   23.4020 C   0  0  0  0  0  0  0  0  0  0  0  0
    8.3310   -2.7170   25.3430 C   0  0  0  0  0  0  0  0  0  0  0  0
   10.2570   -3.5000   24.1350 C   0  0  0  0  0  0  0  0  0  0  0  0
   12.4359    1.7439   24.3724 C   0  0  0  0  0  0  0  0  0  0  0  0
   12.3100    0.2469   22.7668 C   0  0  0  0  0  0  0  0  0  0  0  0
    7.6830   -0.5170   18.7600 C   0  0  0  0  0  0  0  0  0  0  0  0
   11.5217    1.0079   23.5949 C   0  0  0  0  0  0  0  0  0  0  0  0
    5.9810    0.8330   18.8060 C   0  0  0  0  0  0  0  0  0  0  0  0
    6.1600    0.3870   20.1140 C   0  0  0  0  0  0  0  0  0  0  0  0
    9.3300   -1.3350   23.6390 C   0  0  0  0  0  0  0  0  0  0  0  0
    9.2850   -3.7090   25.1090 C   0  0  0  0  0  0  0  0  0  0  0  0
    8.9510    0.1280   21.6880 C   0  0  0  0  0  0  0  0  0  0  0  0
   14.7884    0.0124   22.4815 C   0  0  0  0  0  0  0  0  0  0  0  0
    8.2347   -4.9978   26.8024 C   0  0  0  0  0  0  0  0  0  0  0  0
   10.0220    1.0430   23.6570 C   0  0  0  0  0  0  0  0  0  0  0  0
   13.7076    1.4745   24.0657 N   0  0  0  0  0  0  0  0  0  0  0  0
    6.9440    0.2550   18.0100 N   0  0  0  0  0  0  0  0  0  0  0  0
   13.5982    0.5607   23.0864 N   0  0  0  0  0  0  0  0  0  0  0  0
    7.2210   -0.4620   20.0350 N   0  0  0  0  0  0  0  0  0  0  0  0
    8.0810   -0.9750   21.0820 N   0  0  0  0  0  0  0  0  0  0  0  0
    9.4200   -0.0840   22.9530 N   0  0  0  0  0  0  0  0  0  0  0  0
    9.1870    1.1500   21.0630 O   0  0  0  0  0  0  0  0  0  0  0  0
    9.2631   -4.8614   25.8229 O   0  0  0  0  0  0  0  0  0  0  0  0
    3.2711    2.7870   19.3201 H   0  0  0  0  0  0  0  0  0  0  0  0
    3.6262    2.0082   21.6284 H   0  0  0  0  0  0  0  0  0  0  0  0
    4.7816    2.0660   17.4901 H   0  0  0  0  0  0  0  0  0  0  0  0
    5.4934    0.4579   22.1787 H   0  0  0  0  0  0  0  0  0  0  0  0
    7.5951   -0.7786   24.8000 H   0  0  0  0  0  0  0  0  0  0  0  0
   11.0406   -2.1866   22.6351 H   0  0  0  0  0  0  0  0  0  0  0  0
    7.5664   -2.8674   26.1055 H   0  0  0  0  0  0  0  0  0  0  0  0
   11.0119   -4.2671   23.9461 H   0  0  0  0  0  0  0  0  0  0  0  0
   12.2308    2.4652   25.1508 H   0  0  0  0  0  0  0  0  0  0  0  0
   12.0700   -0.4744   21.9974 H   0  0  0  0  0  0  0  0  0  0  0  0
    8.5166   -1.1054   18.4533 H   0  0  0  0  0  0  0  0  0  0  0  0
   15.0569    0.6453   21.6315 H   0  0  0  0  0  0  0  0  0  0  0  0
   15.5971   -0.0026   23.2174 H   0  0  0  0  0  0  0  0  0  0  0  0
   14.5870   -1.0100   22.1498 H   0  0  0  0  0  0  0  0  0  0  0  0
    8.3310   -5.9656   27.3006 H   0  0  0  0  0  0  0  0  0  0  0  0
    7.2575   -4.9205   26.3191 H   0  0  0  0  0  0  0  0  0  0  0  0
    8.3382   -4.1987   27.5403 H   0  0  0  0  0  0  0  0  0  0  0  0
    9.6778    1.0140   24.6966 H   0  0  0  0  0  0  0  0  0  0  0  0
    9.6316    1.9637   23.2107 H   0  0  0  0  0  0  0  0  0  0  0  0
    8.0998   -1.8216   21.3383 H   0  0  0  0  0  0  0  0  0  0  0  0
  1  2  1  0  0  0  0
  1  3  2  0  0  0  0
  2  4  2  0  0  0  0
  3 13  1  0  0  0  0
  4 14  1  0  0  0  0
  5  7  2  0  0  0  0
  5 15  1  0  0  0  0
  6  8  1  0  0  0  0
  6 15  2  0  0  0  0
  7 16  1  0  0  0  0
  8 16  2  0  0  0  0
  9 12  1  0  0  0  0
  9 21  2  0  0  0  0
 10 12  2  0  0  0  0
 10 23  1  0  0  0  0
 11 22  2  0  0  0  0
 11 24  1  0  0  0  0
 12 20  1  0  0  0  0
 13 14  2  0  0  0  0
 13 22  1  0  0  0  0
 14 24  1  0  0  0  0
 15 26  1  0  0  0  0
 16 28  1  0  0  0  0
 17 25  1  0  0  0  0
 17 26  1  0  0  0  0
 17 27  2  0  0  0  0
 18 23  1  0  0  0  0
 19 28  1  0  0  0  0
 20 26  1  0  0  0  0
 21 23  1  0  0  0  0
 24 25  1  0  0  0  0
  1 29  1  0  0  0  0
  2 30  1  0  0  0  0
  3 31  1  0  0  0  0
  4 32  1  0  0  0  0
  5 33  1  0  0  0  0
  6 34  1  0  0  0  0
  7 35  1  0  0  0  0
  8 36  1  0  0  0  0
  9 37  1  0  0  0  0
 10 38  1  0  0  0  0
 11 39  1  0  0  0  0
 18 40  1  0  0  0  0
 18 41  1  0  0  0  0
 18 42  1  0  0  0  0
 19 43  1  0  0  0  0
 19 44  1  0  0  0  0
 19 45  1  0  0  0  0
 20 46  1  0  0  0  0
 20 47  1  0  0  0  0
 25 48  1  0  0  0  0
M  END
> <clash_score>
0

> <docking_score>
-9.490532875061035

> <overlap_score>
0.9817346930503845

$$$$
BENZO_46_1
  -OEChem-08222022383D

 48 51  0     0  0  0  0  0  0999 V2000
    4.0980    2.1130   19.5350 C   0  0  0  0  0  0  0  0  0  0  0  0
    4.2970    1.6690   20.8430 C   0  0  0  0  0  0  0  0  0  0  0  0
   13.6668    1.7807   24.3938 C   0  0  0  0  0  0  0  0  0  0  0  0
   12.2735    1.8136   24.4501 C   0  0  0  0  0  0  0  0  0  0  0  0
    4.9400    1.7060   18.5060 C   0  0  0  0  0  0  0  0  0  0  0  0
    5.3360    0.8000   21.1530 C   0  0  0  0  0  0  0  0  0  0  0  0
    8.3510   -1.5420   24.6110 C   0  0  0  0  0  0  0  0  0  0  0  0
   10.2760   -2.3270   23.4020 C   0  0  0  0  0  0  0  0  0  0  0  0
    8.3310   -2.7170   25.3430 C   0  0  0  0  0  0  0  0  0  0  0  0
   10.2570   -3.5000   24.1350 C   0  0  0  0  0  0  0  0  0  0  0  0
   14.3084    0.9422   23.4822 C   0  0  0  0  0  0  0  0  0  0  0  0
   12.1632    0.1693   22.6834 C   0  0  0  0  0  0  0  0  0  0  0  0
    7.6830   -0.5170   18.7600 C   0  0  0  0  0  0  0  0  0  0  0  0
   11.5217    1.0079   23.5949 C   0  0  0  0  0  0  0  0  0  0  0  0
    5.9810    0.8330   18.8060 C   0  0  0  0  0  0  0  0  0  0  0  0
    6.1600    0.3870   20.1140 C   0  0  0  0  0  0  0  0  0  0  0  0
    9.3300   -1.3350   23.6390 C   0  0  0  0  0  0  0  0  0  0  0  0
    9.2850   -3.7090   25.1090 C   0  0  0  0  0  0  0  0  0  0  0  0
   13.5566    0.1365   22.6270 C   0  0  0  0  0  0  0  0  0  0  0  0
    8.9510    0.1280   21.6880 C   0  0  0  0  0  0  0  0  0  0  0  0
    8.2347   -4.9978   26.8024 C   0  0  0  0  0  0  0  0  0  0  0  0
   10.0220    1.0430   23.6570 C   0  0  0  0  0  0  0  0  0  0  0  0
    6.9440    0.2550   18.0100 N   0  0  0  0  0  0  0  0  0  0  0  0
    7.2210   -0.4620   20.0350 N   0  0  0  0  0  0  0  0  0  0  0  0
    8.0810   -0.9750   21.0820 N   0  0  0  0  0  0  0  0  0  0  0  0
    9.4200   -0.0840   22.9530 N   0  0  0  0  0  0  0  0  0  0  0  0
    9.1870    1.1500   21.0630 O   0  0  0  0  0  0  0  0  0  0  0  0
    9.2631   -4.8614   25.8229 O   0  0  0  0  0  0  0  0  0  0  0  0
   14.3487   -0.8988   21.5034 Cl  0  0  0  0  0  0  0  0  0  0  0  0
    3.2711    2.7870   19.3201 H   0  0  0  0  0  0  0  0  0  0  0  0
    3.6262    2.0082   21.6284 H   0  0  0  0  0  0  0  0  0  0  0  0
   14.2519    2.4082   25.0600 H   0  0  0  0  0  0  0  0  0  0  0  0
   11.7820    2.4700   25.1636 H   0  0  0  0  0  0  0  0  0  0  0  0
    4.7816    2.0660   17.4901 H   0  0  0  0  0  0  0  0  0  0  0  0
    5.4934    0.4579   22.1787 H   0  0  0  0  0  0  0  0  0  0  0  0
    7.5951   -0.7786   24.8000 H   0  0  0  0  0  0  0  0  0  0  0  0
   11.0406   -2.1866   22.6351 H   0  0  0  0  0  0  0  0  0  0  0  0
    7.5664   -2.8674   26.1055 H   0  0  0  0  0  0  0  0  0  0  0  0
   11.0119   -4.2671   23.9461 H   0  0  0  0  0  0  0  0  0  0  0  0
   15.3950    0.9267   23.4496 H   0  0  0  0  0  0  0  0  0  0  0  0
   11.5726   -0.4565   22.0184 H   0  0  0  0  0  0  0  0  0  0  0  0
    8.5166   -1.1054   18.4533 H   0  0  0  0  0  0  0  0  0  0  0  0
    8.3310   -5.9656   27.3006 H   0  0  0  0  0  0  0  0  0  0  0  0
    7.2575   -4.9205   26.3191 H   0  0  0  0  0  0  0  0  0  0  0  0
    8.3382   -4.1987   27.5403 H   0  0  0  0  0  0  0  0  0  0  0  0
    9.6778    1.0140   24.6966 H   0  0  0  0  0  0  0  0  0  0  0  0
    9.6316    1.9637   23.2107 H   0  0  0  0  0  0  0  0  0  0  0  0
    8.0998   -1.8216   21.3383 H   0  0  0  0  0  0  0  0  0  0  0  0
  1  2  1  0  0  0  0
  1  5  2  0  0  0  0
  2  6  2  0  0  0  0
  3  4  2  0  0  0  0
  3 11  1  0  0  0  0
  4 14  1  0  0  0  0
  5 15  1  0  0  0  0
  6 16  1  0  0  0  0
  7  9  2  0  0  0  0
  7 17  1  0  0  0  0
  8 10  1  0  0  0  0
  8 17  2  0  0  0  0
  9 18  1  0  0  0  0
 10 18  2  0  0  0  0
 11 19  2  0  0  0  0
 12 14  2  0  0  0  0
 12 19  1  0  0  0  0
 13 23  2  0  0  0  0
 13 24  1  0  0  0  0
 14 22  1  0  0  0  0
 15 16  2  0  0  0  0
 15 23  1  0  0  0  0
 16 24  1  0  0  0  0
 17 26  1  0  0  0  0
 18 28  1  0  0  0  0
 19 29  1  0  0  0  0
 20 25  1  0  0  0  0
 20 26  1  0  0  0  0
 20 27  2  0  0  0  0
 21 28  1  0  0  0  0
 22 26  1  0  0  0  0
 24 25  1  0  0  0  0
  1 30  1  0  0  0  0
  2 31  1  0  0  0  0
  3 32  1  0  0  0  0
  4 33  1  0  0  0  0
  5 34  1  0  0  0  0
  6 35  1  0  0  0  0
  7 36  1  0  0  0  0
  8 37  1  0  0  0  0
  9 38  1  0  0  0  0
 10 39  1  0  0  0  0
 11 40  1  0  0  0  0
 12 41  1  0  0  0  0
 13 42  1  0  0  0  0
 21 43  1  0  0  0  0
 21 44  1  0  0  0  0
 21 45  1  0  0  0  0
 22 46  1  0  0  0  0
 22 47  1  0  0  0  0
 25 48  1  0  0  0  0
M  END
> <clash_score>
0

> <docking_score>
-8.526850700378418

> <overlap_score>
0.9766172766685486

$$$$
BENZO_49_1
  -OEChem-08222022383D

 58 62  0     0  0  0  0  0  0999 V2000
   14.3082    0.9431   23.4783 C   0  0  0  0  0  0  0  0  0  0  0  0
   13.6391    0.3091   24.5251 C   0  0  0  0  0  0  0  0  0  0  0  0
   13.5841    1.6096   22.4898 C   0  0  0  0  0  0  0  0  0  0  0  0
    4.0980    2.1130   19.5350 C   0  0  0  0  0  0  0  0  0  0  0  0
    4.2970    1.6690   20.8430 C   0  0  0  0  0  0  0  0  0  0  0  0
   12.2459    0.3415   24.5835 C   0  0  0  0  0  0  0  0  0  0  0  0
   12.1908    1.6420   22.5481 C   0  0  0  0  0  0  0  0  0  0  0  0
    4.9400    1.7060   18.5060 C   0  0  0  0  0  0  0  0  0  0  0  0
    5.3360    0.8000   21.1530 C   0  0  0  0  0  0  0  0  0  0  0  0
    8.3310   -2.7170   25.3430 C   0  0  0  0  0  0  0  0  0  0  0  0
   10.2570   -3.5000   24.1350 C   0  0  0  0  0  0  0  0  0  0  0  0
    8.3510   -1.5420   24.6110 C   0  0  0  0  0  0  0  0  0  0  0  0
   10.2760   -2.3270   23.4020 C   0  0  0  0  0  0  0  0  0  0  0  0
    7.6830   -0.5170   18.7600 C   0  0  0  0  0  0  0  0  0  0  0  0
   11.5217    1.0079   23.5949 C   0  0  0  0  0  0  0  0  0  0  0  0
    5.9810    0.8330   18.8060 C   0  0  0  0  0  0  0  0  0  0  0  0
    6.1600    0.3870   20.1140 C   0  0  0  0  0  0  0  0  0  0  0  0
    9.2850   -3.7090   25.1090 C   0  0  0  0  0  0  0  0  0  0  0  0
    9.3300   -1.3350   23.6390 C   0  0  0  0  0  0  0  0  0  0  0  0
    8.0635   -5.4710   26.3667 C   0  0  0  0  0  0  0  0  0  0  0  0
    8.9510    0.1280   21.6880 C   0  0  0  0  0  0  0  0  0  0  0  0
    8.2626   -6.7580   27.1475 C   0  0  0  0  0  0  0  0  0  0  0  0
    9.4048   -6.6156   28.1380 C   0  0  0  0  0  0  0  0  0  0  0  0
   10.6949   -6.1500   27.4702 C   0  0  0  0  0  0  0  0  0  0  0  0
   10.4942   -5.7069   26.0219 C   0  0  0  0  0  0  0  0  0  0  0  0
   10.0220    1.0430   23.6570 C   0  0  0  0  0  0  0  0  0  0  0  0
    6.9440    0.2550   18.0100 N   0  0  0  0  0  0  0  0  0  0  0  0
    7.2210   -0.4620   20.0350 N   0  0  0  0  0  0  0  0  0  0  0  0
    9.2623   -4.9266   25.8635 N   0  0  0  0  0  0  0  0  0  0  0  0
    8.0810   -0.9750   21.0820 N   0  0  0  0  0  0  0  0  0  0  0  0
    9.4200   -0.0840   22.9530 N   0  0  0  0  0  0  0  0  0  0  0  0
    6.9244   -5.0476   26.1739 O   0  0  0  0  0  0  0  0  0  0  0  0
    9.1870    1.1500   21.0630 O   0  0  0  0  0  0  0  0  0  0  0  0
   15.3932    0.9189   23.4337 H   0  0  0  0  0  0  0  0  0  0  0  0
   14.2028   -0.2090   25.2955 H   0  0  0  0  0  0  0  0  0  0  0  0
   14.1048    2.1043   21.6752 H   0  0  0  0  0  0  0  0  0  0  0  0
    3.2711    2.7870   19.3201 H   0  0  0  0  0  0  0  0  0  0  0  0
    3.6262    2.0082   21.6284 H   0  0  0  0  0  0  0  0  0  0  0  0
   11.7330   -0.1555   25.4027 H   0  0  0  0  0  0  0  0  0  0  0  0
   11.6349    2.1636   21.7735 H   0  0  0  0  0  0  0  0  0  0  0  0
    4.7816    2.0660   17.4901 H   0  0  0  0  0  0  0  0  0  0  0  0
    5.4934    0.4579   22.1787 H   0  0  0  0  0  0  0  0  0  0  0  0
    7.5639   -2.8621   26.1045 H   0  0  0  0  0  0  0  0  0  0  0  0
   11.0141   -4.2644   23.9422 H   0  0  0  0  0  0  0  0  0  0  0  0
    7.5950   -0.7788   24.8007 H   0  0  0  0  0  0  0  0  0  0  0  0
   11.0408   -2.1861   22.6359 H   0  0  0  0  0  0  0  0  0  0  0  0
    8.5166   -1.1054   18.4533 H   0  0  0  0  0  0  0  0  0  0  0  0
    7.3516   -6.9810   27.6812 H   0  0  0  0  0  0  0  0  0  0  0  0
    8.4757   -7.5428   26.4371 H   0  0  0  0  0  0  0  0  0  0  0  0
    9.1234   -5.9016   28.9400 H   0  0  0  0  0  0  0  0  0  0  0  0
    9.5778   -7.5840   28.6491 H   0  0  0  0  0  0  0  0  0  0  0  0
   11.1305   -5.3108   28.0523 H   0  0  0  0  0  0  0  0  0  0  0  0
   11.4565   -6.9587   27.5131 H   0  0  0  0  0  0  0  0  0  0  0  0
   11.3212   -5.0729   25.7168 H   0  0  0  0  0  0  0  0  0  0  0  0
   10.4483   -6.5796   25.3796 H   0  0  0  0  0  0  0  0  0  0  0  0
    9.6778    1.0140   24.6966 H   0  0  0  0  0  0  0  0  0  0  0  0
    9.6316    1.9637   23.2107 H   0  0  0  0  0  0  0  0  0  0  0  0
    8.1334   -1.7991   21.3673 H   0  0  0  0  0  0  0  0  0  0  0  0
  1  2  1  0  0  0  0
  1  3  2  0  0  0  0
  2  6  2  0  0  0  0
  3  7  1  0  0  0  0
  4  5  1  0  0  0  0
  4  8  2  0  0  0  0
  5  9  2  0  0  0  0
  6 15  1  0  0  0  0
  7 15  2  0  0  0  0
  8 16  1  0  0  0  0
  9 17  1  0  0  0  0
 10 12  2  0  0  0  0
 10 18  1  0  0  0  0
 11 13  1  0  0  0  0
 11 18  2  0  0  0  0
 12 19  1  0  0  0  0
 13 19  2  0  0  0  0
 14 27  2  0  0  0  0
 14 28  1  0  0  0  0
 15 26  1  0  0  0  0
 16 17  2  0  0  0  0
 16 27  1  0  0  0  0
 17 28  1  0  0  0  0
 18 29  1  0  0  0  0
 19 31  1  0  0  0  0
 20 22  1  0  0  0  0
 20 29  1  0  0  0  0
 20 32  2  0  0  0  0
 21 30  1  0  0  0  0
 21 31  1  0  0  0  0
 21 33  2  0  0  0  0
 22 23  1  0  0  0  0
 23 24  1  0  0  0  0
 24 25  1  0  0  0  0
 25 29  1  0  0  0  0
 26 31  1  0  0  0  0
 28 30  1  0  0  0  0
  1 34  1  0  0  0  0
  2 35  1  0  0  0  0
  3 36  1  0  0  0  0
  4 37  1  0  0  0  0
  5 38  1  0  0  0  0
  6 39  1  0  0  0  0
  7 40  1  0  0  0  0
  8 41  1  0  0  0  0
  9 42  1  0  0  0  0
 10 43  1  0  0  0  0
 11 44  1  0  0  0  0
 12 45  1  0  0  0  0
 13 46  1  0  0  0  0
 14 47  1  0  0  0  0
 22 48  1  0  0  0  0
 22 49  1  0  0  0  0
 23 50  1  0  0  0  0
 23 51  1  0  0  0  0
 24 52  1  0  0  0  0
 24 53  1  0  0  0  0
 25 54  1  0  0  0  0
 25 55  1  0  0  0  0
 26 56  1  0  0  0  0
 26 57  1  0  0  0  0
 30 58  1  0  0  0  0
M  END
> <clash_score>
1.2727800107838716

> <docking_score>
-7.762386322021484

> <overlap_score>
1.0159265995025635

$$$$
BENZO_48_1
  -OEChem-08222022383D

 55 59  0     0  0  0  0  0  0999 V2000
    4.0980    2.1130   19.5350 C   0  0  0  0  0  0  0  0  0  0  0  0
    4.2970    1.6690   20.8430 C   0  0  0  0  0  0  0  0  0  0  0  0
    4.9400    1.7060   18.5060 C   0  0  0  0  0  0  0  0  0  0  0  0
    5.3360    0.8000   21.1530 C   0  0  0  0  0  0  0  0  0  0  0  0
    8.3310   -2.7170   25.3430 C   0  0  0  0  0  0  0  0  0  0  0  0
   10.2570   -3.5000   24.1350 C   0  0  0  0  0  0  0  0  0  0  0  0
    8.3510   -1.5420   24.6110 C   0  0  0  0  0  0  0  0  0  0  0  0
   10.2760   -2.3270   23.4020 C   0  0  0  0  0  0  0  0  0  0  0  0
   12.2675    1.0332   22.3812 C   0  0  0  0  0  0  0  0  0  0  0  0
   13.6257    0.9906   22.6074 C   0  0  0  0  0  0  0  0  0  0  0  0
   12.3384    0.9467   24.7028 C   0  0  0  0  0  0  0  0  0  0  0  0
    7.6830   -0.5170   18.7600 C   0  0  0  0  0  0  0  0  0  0  0  0
   11.5217    1.0079   23.5949 C   0  0  0  0  0  0  0  0  0  0  0  0
    5.9810    0.8330   18.8060 C   0  0  0  0  0  0  0  0  0  0  0  0
    6.1600    0.3870   20.1140 C   0  0  0  0  0  0  0  0  0  0  0  0
    9.2850   -3.7090   25.1090 C   0  0  0  0  0  0  0  0  0  0  0  0
    9.3300   -1.3350   23.6390 C   0  0  0  0  0  0  0  0  0  0  0  0
    8.0635   -5.4710   26.3667 C   0  0  0  0  0  0  0  0  0  0  0  0
    8.9510    0.1280   21.6880 C   0  0  0  0  0  0  0  0  0  0  0  0
    8.2626   -6.7580   27.1475 C   0  0  0  0  0  0  0  0  0  0  0  0
    9.4048   -6.6156   28.1380 C   0  0  0  0  0  0  0  0  0  0  0  0
   10.6949   -6.1500   27.4702 C   0  0  0  0  0  0  0  0  0  0  0  0
   10.4942   -5.7069   26.0219 C   0  0  0  0  0  0  0  0  0  0  0  0
   10.0220    1.0430   23.6570 C   0  0  0  0  0  0  0  0  0  0  0  0
    6.9440    0.2550   18.0100 N   0  0  0  0  0  0  0  0  0  0  0  0
    7.2210   -0.4620   20.0350 N   0  0  0  0  0  0  0  0  0  0  0  0
    9.2623   -4.9266   25.8635 N   0  0  0  0  0  0  0  0  0  0  0  0
    8.0810   -0.9750   21.0820 N   0  0  0  0  0  0  0  0  0  0  0  0
    9.4200   -0.0840   22.9530 N   0  0  0  0  0  0  0  0  0  0  0  0
    6.9244   -5.0476   26.1739 O   0  0  0  0  0  0  0  0  0  0  0  0
    9.1870    1.1500   21.0630 O   0  0  0  0  0  0  0  0  0  0  0  0
   13.9969    0.9202   24.2776 S   0  0  0  0  0  0  0  0  0  0  0  0
    3.2711    2.7870   19.3201 H   0  0  0  0  0  0  0  0  0  0  0  0
    3.6262    2.0082   21.6284 H   0  0  0  0  0  0  0  0  0  0  0  0
    4.7816    2.0660   17.4901 H   0  0  0  0  0  0  0  0  0  0  0  0
    5.4934    0.4579   22.1787 H   0  0  0  0  0  0  0  0  0  0  0  0
    7.5639   -2.8621   26.1045 H   0  0  0  0  0  0  0  0  0  0  0  0
   11.0141   -4.2644   23.9422 H   0  0  0  0  0  0  0  0  0  0  0  0
    7.5950   -0.7788   24.8007 H   0  0  0  0  0  0  0  0  0  0  0  0
   11.0408   -2.1861   22.6359 H   0  0  0  0  0  0  0  0  0  0  0  0
   11.8338    1.0798   21.3902 H   0  0  0  0  0  0  0  0  0  0  0  0
   14.4176    0.9966   21.8719 H   0  0  0  0  0  0  0  0  0  0  0  0
   12.0446    0.9149   25.7428 H   0  0  0  0  0  0  0  0  0  0  0  0
    8.5166   -1.1054   18.4533 H   0  0  0  0  0  0  0  0  0  0  0  0
    7.3516   -6.9810   27.6812 H   0  0  0  0  0  0  0  0  0  0  0  0
    8.4757   -7.5428   26.4371 H   0  0  0  0  0  0  0  0  0  0  0  0
    9.1234   -5.9016   28.9400 H   0  0  0  0  0  0  0  0  0  0  0  0
    9.5778   -7.5840   28.6491 H   0  0  0  0  0  0  0  0  0  0  0  0
   11.1305   -5.3108   28.0523 H   0  0  0  0  0  0  0  0  0  0  0  0
   11.4565   -6.9587   27.5131 H   0  0  0  0  0  0  0  0  0  0  0  0
   11.3212   -5.0729   25.7168 H   0  0  0  0  0  0  0  0  0  0  0  0
   10.4483   -6.5796   25.3796 H   0  0  0  0  0  0  0  0  0  0  0  0
    9.6778    1.0140   24.6966 H   0  0  0  0  0  0  0  0  0  0  0  0
    9.6316    1.9637   23.2107 H   0  0  0  0  0  0  0  0  0  0  0  0
    8.1334   -1.7991   21.3673 H   0  0  0  0  0  0  0  0  0  0  0  0
  1  2  1  0  0  0  0
  1  3  2  0  0  0  0
  2  4  2  0  0  0  0
  3 14  1  0  0  0  0
  4 15  1  0  0  0  0
  5  7  2  0  0  0  0
  5 16  1  0  0  0  0
  6  8  1  0  0  0  0
  6 16  2  0  0  0  0
  7 17  1  0  0  0  0
  8 17  2  0  0  0  0
  9 10  2  0  0  0  0
  9 13  1  0  0  0  0
 10 32  1  0  0  0  0
 11 13  2  0  0  0  0
 11 32  1  0  0  0  0
 12 25  2  0  0  0  0
 12 26  1  0  0  0  0
 13 24  1  0  0  0  0
 14 15  2  0  0  0  0
 14 25  1  0  0  0  0
 15 26  1  0  0  0  0
 16 27  1  0  0  0  0
 17 29  1  0  0  0  0
 18 20  1  0  0  0  0
 18 27  1  0  0  0  0
 18 30  2  0  0  0  0
 19 28  1  0  0  0  0
 19 29  1  0  0  0  0
 19 31  2  0  0  0  0
 20 21  1  0  0  0  0
 21 22  1  0  0  0  0
 22 23  1  0  0  0  0
 23 27  1  0  0  0  0
 24 29  1  0  0  0  0
 26 28  1  0  0  0  0
  1 33  1  0  0  0  0
  2 34  1  0  0  0  0
  3 35  1  0  0  0  0
  4 36  1  0  0  0  0
  5 37  1  0  0  0  0
  6 38  1  0  0  0  0
  7 39  1  0  0  0  0
  8 40  1  0  0  0  0
  9 41  1  0  0  0  0
 10 42  1  0  0  0  0
 11 43  1  0  0  0  0
 12 44  1  0  0  0  0
 20 45  1  0  0  0  0
 20 46  1  0  0  0  0
 21 47  1  0  0  0  0
 21 48  1  0  0  0  0
 22 49  1  0  0  0  0
 22 50  1  0  0  0  0
 23 51  1  0  0  0  0
 23 52  1  0  0  0  0
 24 53  1  0  0  0  0
 24 54  1  0  0  0  0
 28 55  1  0  0  0  0
M  END
> <clash_score>
1.2727800107838716

> <docking_score>
-8.008591651916504

> <overlap_score>
0.9903323650360107

$$$$
BENZO_50_1
  -OEChem-08222022383D

 58 62  0     0  0  0  0  0  0999 V2000
    4.0980    2.1130   19.5350 C   0  0  0  0  0  0  0  0  0  0  0  0
    4.2970    1.6690   20.8430 C   0  0  0  0  0  0  0  0  0  0  0  0
   13.5977    1.8457   22.6865 C   0  0  0  0  0  0  0  0  0  0  0  0
   12.2044    1.8769   22.7438 C   0  0  0  0  0  0  0  0  0  0  0  0
    4.9400    1.7060   18.5060 C   0  0  0  0  0  0  0  0  0  0  0  0
    5.3360    0.8000   21.1530 C   0  0  0  0  0  0  0  0  0  0  0  0
    8.3310   -2.7170   25.3430 C   0  0  0  0  0  0  0  0  0  0  0  0
   10.2570   -3.5000   24.1350 C   0  0  0  0  0  0  0  0  0  0  0  0
    8.3510   -1.5420   24.6110 C   0  0  0  0  0  0  0  0  0  0  0  0
   10.2760   -2.3270   23.4020 C   0  0  0  0  0  0  0  0  0  0  0  0
   14.3084    0.9454   23.4803 C   0  0  0  0  0  0  0  0  0  0  0  0
   12.2323    0.1076   24.3888 C   0  0  0  0  0  0  0  0  0  0  0  0
    7.6830   -0.5170   18.7600 C   0  0  0  0  0  0  0  0  0  0  0  0
   11.5217    1.0079   23.5949 C   0  0  0  0  0  0  0  0  0  0  0  0
    5.9810    0.8330   18.8060 C   0  0  0  0  0  0  0  0  0  0  0  0
    6.1600    0.3870   20.1140 C   0  0  0  0  0  0  0  0  0  0  0  0
    9.2850   -3.7090   25.1090 C   0  0  0  0  0  0  0  0  0  0  0  0
    9.3300   -1.3350   23.6390 C   0  0  0  0  0  0  0  0  0  0  0  0
   13.6257    0.0764   24.3314 C   0  0  0  0  0  0  0  0  0  0  0  0
    8.2930   -5.1714   26.8572 C   0  0  0  0  0  0  0  0  0  0  0  0
    8.9510    0.1280   21.6880 C   0  0  0  0  0  0  0  0  0  0  0  0
    8.4552   -6.5156   27.5444 C   0  0  0  0  0  0  0  0  0  0  0  0
    9.9019   -6.7444   27.9450 C   0  0  0  0  0  0  0  0  0  0  0  0
   10.8597   -6.5882   26.7680 C   0  0  0  0  0  0  0  0  0  0  0  0
   10.1895   -6.0108   25.5223 C   0  0  0  0  0  0  0  0  0  0  0  0
   10.0220    1.0430   23.6570 C   0  0  0  0  0  0  0  0  0  0  0  0
    6.9440    0.2550   18.0100 N   0  0  0  0  0  0  0  0  0  0  0  0
    7.2210   -0.4620   20.0350 N   0  0  0  0  0  0  0  0  0  0  0  0
    9.2623   -4.9266   25.8635 N   0  0  0  0  0  0  0  0  0  0  0  0
    8.0810   -0.9750   21.0820 N   0  0  0  0  0  0  0  0  0  0  0  0
    9.4200   -0.0840   22.9530 N   0  0  0  0  0  0  0  0  0  0  0  0
    7.3370   -4.4528   27.1463 O   0  0  0  0  0  0  0  0  0  0  0  0
    9.1870    1.1500   21.0630 O   0  0  0  0  0  0  0  0  0  0  0  0
   14.5031   -1.0334   25.3114 Cl  0  0  0  0  0  0  0  0  0  0  0  0
    3.2711    2.7870   19.3201 H   0  0  0  0  0  0  0  0  0  0  0  0
    3.6262    2.0082   21.6284 H   0  0  0  0  0  0  0  0  0  0  0  0
   14.1289    2.5226   22.0237 H   0  0  0  0  0  0  0  0  0  0  0  0
   11.6588    2.5818   22.1218 H   0  0  0  0  0  0  0  0  0  0  0  0
    4.7816    2.0660   17.4901 H   0  0  0  0  0  0  0  0  0  0  0  0
    5.4934    0.4579   22.1787 H   0  0  0  0  0  0  0  0  0  0  0  0
    7.5639   -2.8621   26.1045 H   0  0  0  0  0  0  0  0  0  0  0  0
   11.0141   -4.2644   23.9422 H   0  0  0  0  0  0  0  0  0  0  0  0
    7.5950   -0.7788   24.8007 H   0  0  0  0  0  0  0  0  0  0  0  0
   11.0408   -2.1861   22.6359 H   0  0  0  0  0  0  0  0  0  0  0  0
   15.3941    0.9323   23.4255 H   0  0  0  0  0  0  0  0  0  0  0  0
   11.6954   -0.5682   25.0504 H   0  0  0  0  0  0  0  0  0  0  0  0
    8.5166   -1.1054   18.4533 H   0  0  0  0  0  0  0  0  0  0  0  0
    7.8332   -6.5283   28.4263 H   0  0  0  0  0  0  0  0  0  0  0  0
    8.1305   -7.2788   26.8530 H   0  0  0  0  0  0  0  0  0  0  0  0
   10.1875   -6.0379   28.7521 H   0  0  0  0  0  0  0  0  0  0  0  0
   10.0116   -7.7568   28.3834 H   0  0  0  0  0  0  0  0  0  0  0  0
   11.7061   -5.9337   27.0644 H   0  0  0  0  0  0  0  0  0  0  0  0
   11.3230   -7.5689   26.5243 H   0  0  0  0  0  0  0  0  0  0  0  0
   10.9445   -5.5959   24.8614 H   0  0  0  0  0  0  0  0  0  0  0  0
    9.6461   -6.7954   25.0072 H   0  0  0  0  0  0  0  0  0  0  0  0
    9.6778    1.0140   24.6966 H   0  0  0  0  0  0  0  0  0  0  0  0
    9.6316    1.9637   23.2107 H   0  0  0  0  0  0  0  0  0  0  0  0
    8.1334   -1.7991   21.3673 H   0  0  0  0  0  0  0  0  0  0  0  0
  1  2  1  0  0  0  0
  1  5  2  0  0  0  0
  2  6  2  0  0  0  0
  3  4  2  0  0  0  0
  3 11  1  0  0  0  0
  4 14  1  0  0  0  0
  5 15  1  0  0  0  0
  6 16  1  0  0  0  0
  7  9  2  0  0  0  0
  7 17  1  0  0  0  0
  8 10  1  0  0  0  0
  8 17  2  0  0  0  0
  9 18  1  0  0  0  0
 10 18  2  0  0  0  0
 11 19  2  0  0  0  0
 12 14  2  0  0  0  0
 12 19  1  0  0  0  0
 13 27  2  0  0  0  0
 13 28  1  0  0  0  0
 14 26  1  0  0  0  0
 15 16  2  0  0  0  0
 15 27  1  0  0  0  0
 16 28  1  0  0  0  0
 17 29  1  0  0  0  0
 18 31  1  0  0  0  0
 19 34  1  0  0  0  0
 20 22  1  0  0  0  0
 20 29  1  0  0  0  0
 20 32  2  0  0  0  0
 21 30  1  0  0  0  0
 21 31  1  0  0  0  0
 21 33  2  0  0  0  0
 22 23  1  0  0  0  0
 23 24  1  0  0  0  0
 24 25  1  0  0  0  0
 25 29  1  0  0  0  0
 26 31  1  0  0  0  0
 28 30  1  0  0  0  0
  1 35  1  0  0  0  0
  2 36  1  0  0  0  0
  3 37  1  0  0  0  0
  4 38  1  0  0  0  0
  5 39  1  0  0  0  0
  6 40  1  0  0  0  0
  7 41  1  0  0  0  0
  8 42  1  0  0  0  0
  9 43  1  0  0  0  0
 10 44  1  0  0  0  0
 11 45  1  0  0  0  0
 12 46  1  0  0  0  0
 13 47  1  0  0  0  0
 22 48  1  0  0  0  0
 22 49  1  0  0  0  0
 23 50  1  0  0  0  0
 23 51  1  0  0  0  0
 24 52  1  0  0  0  0
 24 53  1  0  0  0  0
 25 54  1  0  0  0  0
 25 55  1  0  0  0  0
 26 56  1  0  0  0  0
 26 57  1  0  0  0  0
 30 58  1  0  0  0  0
M  END
> <clash_score>
2.825941314181884

> <docking_score>
-6.955121040344238

> <overlap_score>
1.0217955112457275

$$$$
BENZO_53_1
  -OEChem-08222022383D

 57 61  0     0  0  0  0  0  0999 V2000
   14.3082    0.9431   23.4783 C   0  0  0  0  0  0  0  0  0  0  0  0
   13.6391    0.3091   24.5251 C   0  0  0  0  0  0  0  0  0  0  0  0
   13.5841    1.6096   22.4898 C   0  0  0  0  0  0  0  0  0  0  0  0
    4.0980    2.1130   19.5350 C   0  0  0  0  0  0  0  0  0  0  0  0
    4.2970    1.6690   20.8430 C   0  0  0  0  0  0  0  0  0  0  0  0
   12.2459    0.3415   24.5835 C   0  0  0  0  0  0  0  0  0  0  0  0
   12.1908    1.6420   22.5481 C   0  0  0  0  0  0  0  0  0  0  0  0
    4.9400    1.7060   18.5060 C   0  0  0  0  0  0  0  0  0  0  0  0
    5.3360    0.8000   21.1530 C   0  0  0  0  0  0  0  0  0  0  0  0
    8.3310   -2.7170   25.3430 C   0  0  0  0  0  0  0  0  0  0  0  0
   10.2570   -3.5000   24.1350 C   0  0  0  0  0  0  0  0  0  0  0  0
    8.3510   -1.5420   24.6110 C   0  0  0  0  0  0  0  0  0  0  0  0
   10.2760   -2.3270   23.4020 C   0  0  0  0  0  0  0  0  0  0  0  0
    7.6830   -0.5170   18.7600 C   0  0  0  0  0  0  0  0  0  0  0  0
   11.5217    1.0079   23.5949 C   0  0  0  0  0  0  0  0  0  0  0  0
    5.9810    0.8330   18.8060 C   0  0  0  0  0  0  0  0  0  0  0  0
    6.1600    0.3870   20.1140 C   0  0  0  0  0  0  0  0  0  0  0  0
    9.2850   -3.7090   25.1090 C   0  0  0  0  0  0  0  0  0  0  0  0
    9.3300   -1.3350   23.6390 C   0  0  0  0  0  0  0  0  0  0  0  0
    8.9510    0.1280   21.6880 C   0  0  0  0  0  0  0  0  0  0  0  0
    8.7666   -4.9523   27.2147 C   0  0  0  0  0  0  0  0  0  0  0  0
    9.3034   -6.1866   25.1651 C   0  0  0  0  0  0  0  0  0  0  0  0
    7.3827   -5.5925   27.1999 C   0  0  0  0  0  0  0  0  0  0  0  0
    7.9024   -6.7967   25.2263 C   0  0  0  0  0  0  0  0  0  0  0  0
   10.0220    1.0430   23.6570 C   0  0  0  0  0  0  0  0  0  0  0  0
    6.9440    0.2550   18.0100 N   0  0  0  0  0  0  0  0  0  0  0  0
    7.2210   -0.4620   20.0350 N   0  0  0  0  0  0  0  0  0  0  0  0
    9.2640   -4.8844   25.8389 N   0  0  0  0  0  0  0  0  0  0  0  0
    8.0810   -0.9750   21.0820 N   0  0  0  0  0  0  0  0  0  0  0  0
    9.4200   -0.0840   22.9530 N   0  0  0  0  0  0  0  0  0  0  0  0
    9.1870    1.1500   21.0630 O   0  0  0  0  0  0  0  0  0  0  0  0
    7.4483   -6.8833   26.5817 O   0  0  0  0  0  0  0  0  0  0  0  0
   15.3932    0.9189   23.4337 H   0  0  0  0  0  0  0  0  0  0  0  0
   14.2029   -0.2090   25.2955 H   0  0  0  0  0  0  0  0  0  0  0  0
   14.1048    2.1043   21.6752 H   0  0  0  0  0  0  0  0  0  0  0  0
    3.2711    2.7870   19.3201 H   0  0  0  0  0  0  0  0  0  0  0  0
    3.6262    2.0082   21.6285 H   0  0  0  0  0  0  0  0  0  0  0  0
   11.7330   -0.1555   25.4027 H   0  0  0  0  0  0  0  0  0  0  0  0
   11.6349    2.1636   21.7735 H   0  0  0  0  0  0  0  0  0  0  0  0
    4.7816    2.0660   17.4901 H   0  0  0  0  0  0  0  0  0  0  0  0
    5.4934    0.4579   22.1787 H   0  0  0  0  0  0  0  0  0  0  0  0
    7.5647   -2.8621   26.1053 H   0  0  0  0  0  0  0  0  0  0  0  0
   11.0144   -4.2642   23.9425 H   0  0  0  0  0  0  0  0  0  0  0  0
    7.5958   -0.7779   24.8006 H   0  0  0  0  0  0  0  0  0  0  0  0
   11.0406   -2.1848   22.6356 H   0  0  0  0  0  0  0  0  0  0  0  0
    8.5166   -1.1054   18.4533 H   0  0  0  0  0  0  0  0  0  0  0  0
    8.7030   -3.9561   27.6574 H   0  0  0  0  0  0  0  0  0  0  0  0
    9.4460   -5.5639   27.8143 H   0  0  0  0  0  0  0  0  0  0  0  0
   10.0083   -6.8392   25.6817 H   0  0  0  0  0  0  0  0  0  0  0  0
    9.6089   -6.0802   24.1251 H   0  0  0  0  0  0  0  0  0  0  0  0
    7.0281   -5.7334   28.2231 H   0  0  0  0  0  0  0  0  0  0  0  0
    6.6541   -4.9678   26.6754 H   0  0  0  0  0  0  0  0  0  0  0  0
    7.1860   -6.2177   24.6318 H   0  0  0  0  0  0  0  0  0  0  0  0
    7.9246   -7.8119   24.8187 H   0  0  0  0  0  0  0  0  0  0  0  0
    9.6778    1.0140   24.6966 H   0  0  0  0  0  0  0  0  0  0  0  0
    9.6316    1.9637   23.2107 H   0  0  0  0  0  0  0  0  0  0  0  0
    8.1334   -1.7991   21.3673 H   0  0  0  0  0  0  0  0  0  0  0  0
  1  2  1  0  0  0  0
  1  3  2  0  0  0  0
  2  6  2  0  0  0  0
  3  7  1  0  0  0  0
  4  5  1  0  0  0  0
  4  8  2  0  0  0  0
  5  9  2  0  0  0  0
  6 15  1  0  0  0  0
  7 15  2  0  0  0  0
  8 16  1  0  0  0  0
  9 17  1  0  0  0  0
 10 12  2  0  0  0  0
 10 18  1  0  0  0  0
 11 13  1  0  0  0  0
 11 18  2  0  0  0  0
 12 19  1  0  0  0  0
 13 19  2  0  0  0  0
 14 26  2  0  0  0  0
 14 27  1  0  0  0  0
 15 25  1  0  0  0  0
 16 17  2  0  0  0  0
 16 26  1  0  0  0  0
 17 27  1  0  0  0  0
 18 28  1  0  0  0  0
 19 30  1  0  0  0  0
 20 29  1  0  0  0  0
 20 30  1  0  0  0  0
 20 31  2  0  0  0  0
 21 23  1  0  0  0  0
 21 28  1  0  0  0  0
 22 24  1  0  0  0  0
 22 28  1  0  0  0  0
 23 32  1  0  0  0  0
 24 32  1  0  0  0  0
 25 30  1  0  0  0  0
 27 29  1  0  0  0  0
  1 33  1  0  0  0  0
  2 34  1  0  0  0  0
  3 35  1  0  0  0  0
  4 36  1  0  0  0  0
  5 37  1  0  0  0  0
  6 38  1  0  0  0  0
  7 39  1  0  0  0  0
  8 40  1  0  0  0  0
  9 41  1  0  0  0  0
 10 42  1  0  0  0  0
 11 43  1  0  0  0  0
 12 44  1  0  0  0  0
 13 45  1  0  0  0  0
 14 46  1  0  0  0  0
 21 47  1  0  0  0  0
 21 48  1  0  0  0  0
 22 49  1  0  0  0  0
 22 50  1  0  0  0  0
 23 51  1  0  0  0  0
 23 52  1  0  0  0  0
 24 53  1  0  0  0  0
 24 54  1  0  0  0  0
 25 55  1  0  0  0  0
 25 56  1  0  0  0  0
 29 57  1  0  0  0  0
M  END
> <clash_score>
0

> <docking_score>
-9.007524490356445

> <overlap_score>
1.0165159702301025

$$$$
BENZO_51_1
  -OEChem-08222022383D

 58 62  0     0  0  0  0  0  0999 V2000
    4.0980    2.1130   19.5350 C   0  0  0  0  0  0  0  0  0  0  0  0
    4.2970    1.6690   20.8430 C   0  0  0  0  0  0  0  0  0  0  0  0
    4.9400    1.7060   18.5060 C   0  0  0  0  0  0  0  0  0  0  0  0
    5.3360    0.8000   21.1530 C   0  0  0  0  0  0  0  0  0  0  0  0
    8.3310   -2.7170   25.3430 C   0  0  0  0  0  0  0  0  0  0  0  0
   10.2570   -3.5000   24.1350 C   0  0  0  0  0  0  0  0  0  0  0  0
    8.3510   -1.5420   24.6110 C   0  0  0  0  0  0  0  0  0  0  0  0
   10.2760   -2.3270   23.4020 C   0  0  0  0  0  0  0  0  0  0  0  0
   12.4359    1.7439   24.3724 C   0  0  0  0  0  0  0  0  0  0  0  0
   12.3100    0.2469   22.7668 C   0  0  0  0  0  0  0  0  0  0  0  0
    7.6830   -0.5170   18.7600 C   0  0  0  0  0  0  0  0  0  0  0  0
   11.5217    1.0079   23.5949 C   0  0  0  0  0  0  0  0  0  0  0  0
    5.9810    0.8330   18.8060 C   0  0  0  0  0  0  0  0  0  0  0  0
    6.1600    0.3870   20.1140 C   0  0  0  0  0  0  0  0  0  0  0  0
    9.2850   -3.7090   25.1090 C   0  0  0  0  0  0  0  0  0  0  0  0
    9.3300   -1.3350   23.6390 C   0  0  0  0  0  0  0  0  0  0  0  0
    8.2934   -5.1724   26.8574 C   0  0  0  0  0  0  0  0  0  0  0  0
    8.9510    0.1280   21.6880 C   0  0  0  0  0  0  0  0  0  0  0  0
    8.4443   -6.5251   27.5306 C   0  0  0  0  0  0  0  0  0  0  0  0
    8.6421   -7.6210   26.4982 C   0  0  0  0  0  0  0  0  0  0  0  0
    9.8032   -7.3237   25.5546 C   0  0  0  0  0  0  0  0  0  0  0  0
   10.3452   -5.9024   25.6995 C   0  0  0  0  0  0  0  0  0  0  0  0
   14.7884    0.0124   22.4815 C   0  0  0  0  0  0  0  0  0  0  0  0
   10.0220    1.0430   23.6570 C   0  0  0  0  0  0  0  0  0  0  0  0
   13.7076    1.4745   24.0657 N   0  0  0  0  0  0  0  0  0  0  0  0
    6.9440    0.2550   18.0100 N   0  0  0  0  0  0  0  0  0  0  0  0
   13.5982    0.5607   23.0864 N   0  0  0  0  0  0  0  0  0  0  0  0
    7.2210   -0.4620   20.0350 N   0  0  0  0  0  0  0  0  0  0  0  0
    9.2623   -4.9267   25.8636 N   0  0  0  0  0  0  0  0  0  0  0  0
    8.0810   -0.9750   21.0820 N   0  0  0  0  0  0  0  0  0  0  0  0
    9.4200   -0.0840   22.9530 N   0  0  0  0  0  0  0  0  0  0  0  0
    7.4269   -4.3921   27.2503 O   0  0  0  0  0  0  0  0  0  0  0  0
    9.1870    1.1500   21.0630 O   0  0  0  0  0  0  0  0  0  0  0  0
    3.2711    2.7870   19.3201 H   0  0  0  0  0  0  0  0  0  0  0  0
    3.6262    2.0082   21.6284 H   0  0  0  0  0  0  0  0  0  0  0  0
    4.7816    2.0660   17.4901 H   0  0  0  0  0  0  0  0  0  0  0  0
    5.4934    0.4579   22.1787 H   0  0  0  0  0  0  0  0  0  0  0  0
    7.5639   -2.8621   26.1045 H   0  0  0  0  0  0  0  0  0  0  0  0
   11.0141   -4.2644   23.9422 H   0  0  0  0  0  0  0  0  0  0  0  0
    7.5950   -0.7788   24.8007 H   0  0  0  0  0  0  0  0  0  0  0  0
   11.0408   -2.1861   22.6359 H   0  0  0  0  0  0  0  0  0  0  0  0
   12.2308    2.4652   25.1508 H   0  0  0  0  0  0  0  0  0  0  0  0
   12.0700   -0.4744   21.9974 H   0  0  0  0  0  0  0  0  0  0  0  0
    8.5166   -1.1054   18.4533 H   0  0  0  0  0  0  0  0  0  0  0  0
    9.3022   -6.4901   28.1844 H   0  0  0  0  0  0  0  0  0  0  0  0
    7.5489   -6.7068   28.1060 H   0  0  0  0  0  0  0  0  0  0  0  0
    8.8161   -8.5925   27.0060 H   0  0  0  0  0  0  0  0  0  0  0  0
    7.7102   -7.7540   25.9127 H   0  0  0  0  0  0  0  0  0  0  0  0
   10.6240   -8.0484   25.7384 H   0  0  0  0  0  0  0  0  0  0  0  0
    9.4907   -7.5005   24.5024 H   0  0  0  0  0  0  0  0  0  0  0  0
   10.9741   -5.8406   26.5826 H   0  0  0  0  0  0  0  0  0  0  0  0
   10.9262   -5.6455   24.8203 H   0  0  0  0  0  0  0  0  0  0  0  0
   15.0569    0.6453   21.6315 H   0  0  0  0  0  0  0  0  0  0  0  0
   15.5971   -0.0026   23.2174 H   0  0  0  0  0  0  0  0  0  0  0  0
   14.5870   -1.0100   22.1498 H   0  0  0  0  0  0  0  0  0  0  0  0
    9.6778    1.0140   24.6966 H   0  0  0  0  0  0  0  0  0  0  0  0
    9.6316    1.9637   23.2107 H   0  0  0  0  0  0  0  0  0  0  0  0
    8.1334   -1.7991   21.3673 H   0  0  0  0  0  0  0  0  0  0  0  0
  1  2  1  0  0  0  0
  1  3  2  0  0  0  0
  2  4  2  0  0  0  0
  3 13  1  0  0  0  0
  4 14  1  0  0  0  0
  5  7  2  0  0  0  0
  5 15  1  0  0  0  0
  6  8  1  0  0  0  0
  6 15  2  0  0  0  0
  7 16  1  0  0  0  0
  8 16  2  0  0  0  0
  9 12  1  0  0  0  0
  9 25  2  0  0  0  0
 10 12  2  0  0  0  0
 10 27  1  0  0  0  0
 11 26  2  0  0  0  0
 11 28  1  0  0  0  0
 12 24  1  0  0  0  0
 13 14  2  0  0  0  0
 13 26  1  0  0  0  0
 14 28  1  0  0  0  0
 15 29  1  0  0  0  0
 16 31  1  0  0  0  0
 17 19  1  0  0  0  0
 17 29  1  0  0  0  0
 17 32  2  0  0  0  0
 18 30  1  0  0  0  0
 18 31  1  0  0  0  0
 18 33  2  0  0  0  0
 19 20  1  0  0  0  0
 20 21  1  0  0  0  0
 21 22  1  0  0  0  0
 22 29  1  0  0  0  0
 23 27  1  0  0  0  0
 24 31  1  0  0  0  0
 25 27  1  0  0  0  0
 28 30  1  0  0  0  0
  1 34  1  0  0  0  0
  2 35  1  0  0  0  0
  3 36  1  0  0  0  0
  4 37  1  0  0  0  0
  5 38  1  0  0  0  0
  6 39  1  0  0  0  0
  7 40  1  0  0  0  0
  8 41  1  0  0  0  0
  9 42  1  0  0  0  0
 10 43  1  0  0  0  0
 11 44  1  0  0  0  0
 19 45  1  0  0  0  0
 19 46  1  0  0  0  0
 20 47  1  0  0  0  0
 20 48  1  0  0  0  0
 21 49  1  0  0  0  0
 21 50  1  0  0  0  0
 22 51  1  0  0  0  0
 22 52  1  0  0  0  0
 23 53  1  0  0  0  0
 23 54  1  0  0  0  0
 23 55  1  0  0  0  0
 24 56  1  0  0  0  0
 24 57  1  0  0  0  0
 30 58  1  0  0  0  0
M  END
> <clash_score>
0.6927838152815973

> <docking_score>
-7.752679824829102

> <overlap_score>
1.0033575296401978

$$$$
BENZO_52_1
  -OEChem-08222022383D

 54 58  0     0  0  0  0  0  0999 V2000
    4.0980    2.1130   19.5350 C   0  0  0  0  0  0  0  0  0  0  0  0
    4.2970    1.6690   20.8430 C   0  0  0  0  0  0  0  0  0  0  0  0
    4.9400    1.7060   18.5060 C   0  0  0  0  0  0  0  0  0  0  0  0
    5.3360    0.8000   21.1530 C   0  0  0  0  0  0  0  0  0  0  0  0
    8.3310   -2.7170   25.3430 C   0  0  0  0  0  0  0  0  0  0  0  0
   10.2570   -3.5000   24.1350 C   0  0  0  0  0  0  0  0  0  0  0  0
    8.3510   -1.5420   24.6110 C   0  0  0  0  0  0  0  0  0  0  0  0
   10.2760   -2.3270   23.4020 C   0  0  0  0  0  0  0  0  0  0  0  0
   12.2675    1.0332   22.3812 C   0  0  0  0  0  0  0  0  0  0  0  0
   13.6257    0.9906   22.6074 C   0  0  0  0  0  0  0  0  0  0  0  0
   12.3384    0.9467   24.7028 C   0  0  0  0  0  0  0  0  0  0  0  0
    7.6830   -0.5170   18.7600 C   0  0  0  0  0  0  0  0  0  0  0  0
   11.5217    1.0079   23.5949 C   0  0  0  0  0  0  0  0  0  0  0  0
    5.9810    0.8330   18.8060 C   0  0  0  0  0  0  0  0  0  0  0  0
    6.1600    0.3870   20.1140 C   0  0  0  0  0  0  0  0  0  0  0  0
    9.2850   -3.7090   25.1090 C   0  0  0  0  0  0  0  0  0  0  0  0
    9.3300   -1.3350   23.6390 C   0  0  0  0  0  0  0  0  0  0  0  0
    8.9510    0.1280   21.6880 C   0  0  0  0  0  0  0  0  0  0  0  0
    8.7666   -4.9523   27.2147 C   0  0  0  0  0  0  0  0  0  0  0  0
    9.3034   -6.1866   25.1651 C   0  0  0  0  0  0  0  0  0  0  0  0
    7.3827   -5.5925   27.1999 C   0  0  0  0  0  0  0  0  0  0  0  0
    7.9024   -6.7967   25.2263 C   0  0  0  0  0  0  0  0  0  0  0  0
   10.0220    1.0430   23.6570 C   0  0  0  0  0  0  0  0  0  0  0  0
    6.9440    0.2550   18.0100 N   0  0  0  0  0  0  0  0  0  0  0  0
    7.2210   -0.4620   20.0350 N   0  0  0  0  0  0  0  0  0  0  0  0
    9.2640   -4.8844   25.8389 N   0  0  0  0  0  0  0  0  0  0  0  0
    8.0810   -0.9750   21.0820 N   0  0  0  0  0  0  0  0  0  0  0  0
    9.4200   -0.0840   22.9530 N   0  0  0  0  0  0  0  0  0  0  0  0
    9.1870    1.1500   21.0630 O   0  0  0  0  0  0  0  0  0  0  0  0
    7.4483   -6.8833   26.5817 O   0  0  0  0  0  0  0  0  0  0  0  0
   13.9969    0.9202   24.2776 S   0  0  0  0  0  0  0  0  0  0  0  0
    3.2711    2.7870   19.3201 H   0  0  0  0  0  0  0  0  0  0  0  0
    3.6262    2.0082   21.6285 H   0  0  0  0  0  0  0  0  0  0  0  0
    4.7816    2.0660   17.4901 H   0  0  0  0  0  0  0  0  0  0  0  0
    5.4934    0.4579   22.1787 H   0  0  0  0  0  0  0  0  0  0  0  0
    7.5647   -2.8621   26.1053 H   0  0  0  0  0  0  0  0  0  0  0  0
   11.0144   -4.2642   23.9425 H   0  0  0  0  0  0  0  0  0  0  0  0
    7.5958   -0.7779   24.8006 H   0  0  0  0  0  0  0  0  0  0  0  0
   11.0406   -2.1848   22.6356 H   0  0  0  0  0  0  0  0  0  0  0  0
   11.8338    1.0798   21.3902 H   0  0  0  0  0  0  0  0  0  0  0  0
   14.4176    0.9966   21.8719 H   0  0  0  0  0  0  0  0  0  0  0  0
   12.0446    0.9149   25.7428 H   0  0  0  0  0  0  0  0  0  0  0  0
    8.5166   -1.1054   18.4533 H   0  0  0  0  0  0  0  0  0  0  0  0
    8.7030   -3.9561   27.6574 H   0  0  0  0  0  0  0  0  0  0  0  0
    9.4460   -5.5639   27.8143 H   0  0  0  0  0  0  0  0  0  0  0  0
   10.0083   -6.8392   25.6817 H   0  0  0  0  0  0  0  0  0  0  0  0
    9.6089   -6.0802   24.1251 H   0  0  0  0  0  0  0  0  0  0  0  0
    7.0281   -5.7334   28.2231 H   0  0  0  0  0  0  0  0  0  0  0  0
    6.6541   -4.9678   26.6754 H   0  0  0  0  0  0  0  0  0  0  0  0
    7.1860   -6.2177   24.6318 H   0  0  0  0  0  0  0  0  0  0  0  0
    7.9246   -7.8119   24.8187 H   0  0  0  0  0  0  0  0  0  0  0  0
    9.6778    1.0140   24.6966 H   0  0  0  0  0  0  0  0  0  0  0  0
    9.6316    1.9637   23.2107 H   0  0  0  0  0  0  0  0  0  0  0  0
    8.1334   -1.7991   21.3673 H   0  0  0  0  0  0  0  0  0  0  0  0
  1  2  1  0  0  0  0
  1  3  2  0  0  0  0
  2  4  2  0  0  0  0
  3 14  1  0  0  0  0
  4 15  1  0  0  0  0
  5  7  2  0  0  0  0
  5 16  1  0  0  0  0
  6  8  1  0  0  0  0
  6 16  2  0  0  0  0
  7 17  1  0  0  0  0
  8 17  2  0  0  0  0
  9 10  2  0  0  0  0
  9 13  1  0  0  0  0
 10 31  1  0  0  0  0
 11 13  2  0  0  0  0
 11 31  1  0  0  0  0
 12 24  2  0  0  0  0
 12 25  1  0  0  0  0
 13 23  1  0  0  0  0
 14 15  2  0  0  0  0
 14 24  1  0  0  0  0
 15 25  1  0  0  0  0
 16 26  1  0  0  0  0
 17 28  1  0  0  0  0
 18 27  1  0  0  0  0
 18 28  1  0  0  0  0
 18 29  2  0  0  0  0
 19 21  1  0  0  0  0
 19 26  1  0  0  0  0
 20 22  1  0  0  0  0
 20 26  1  0  0  0  0
 21 30  1  0  0  0  0
 22 30  1  0  0  0  0
 23 28  1  0  0  0  0
 25 27  1  0  0  0  0
  1 32  1  0  0  0  0
  2 33  1  0  0  0  0
  3 34  1  0  0  0  0
  4 35  1  0  0  0  0
  5 36  1  0  0  0  0
  6 37  1  0  0  0  0
  7 38  1  0  0  0  0
  8 39  1  0  0  0  0
  9 40  1  0  0  0  0
 10 41  1  0  0  0  0
 11 42  1  0  0  0  0
 12 43  1  0  0  0  0
 19 44  1  0  0  0  0
 19 45  1  0  0  0  0
 20 46  1  0  0  0  0
 20 47  1  0  0  0  0
 21 48  1  0  0  0  0
 21 49  1  0  0  0  0
 22 50  1  0  0  0  0
 22 51  1  0  0  0  0
 23 52  1  0  0  0  0
 23 53  1  0  0  0  0
 27 54  1  0  0  0  0
M  END
> <clash_score>
0

> <docking_score>
-9.25372314453125

> <overlap_score>
0.9908769130706787

$$$$
BENZO_57_1
  -OEChem-08222022383D

 52 55  0     0  0  0  0  0  0999 V2000
   14.3082    0.9431   23.4783 C   0  0  0  0  0  0  0  0  0  0  0  0
    4.2970    1.6690   20.8430 C   0  0  0  0  0  0  0  0  0  0  0  0
   13.6391    0.3091   24.5251 C   0  0  0  0  0  0  0  0  0  0  0  0
   13.5841    1.6096   22.4898 C   0  0  0  0  0  0  0  0  0  0  0  0
    4.0980    2.1130   19.5350 C   0  0  0  0  0  0  0  0  0  0  0  0
    5.3360    0.8000   21.1530 C   0  0  0  0  0  0  0  0  0  0  0  0
   12.2459    0.3415   24.5835 C   0  0  0  0  0  0  0  0  0  0  0  0
   12.1908    1.6420   22.5481 C   0  0  0  0  0  0  0  0  0  0  0  0
    4.9400    1.7060   18.5060 C   0  0  0  0  0  0  0  0  0  0  0  0
    8.3510   -1.5420   24.6110 C   0  0  0  0  0  0  0  0  0  0  0  0
   10.2760   -2.3270   23.4020 C   0  0  0  0  0  0  0  0  0  0  0  0
    8.3310   -2.7170   25.3430 C   0  0  0  0  0  0  0  0  0  0  0  0
   10.2570   -3.5000   24.1350 C   0  0  0  0  0  0  0  0  0  0  0  0
    6.1600    0.3870   20.1140 C   0  0  0  0  0  0  0  0  0  0  0  0
   11.5217    1.0079   23.5949 C   0  0  0  0  0  0  0  0  0  0  0  0
    5.9810    0.8330   18.8060 C   0  0  0  0  0  0  0  0  0  0  0  0
    9.3300   -1.3350   23.6390 C   0  0  0  0  0  0  0  0  0  0  0  0
    9.2850   -3.7090   25.1090 C   0  0  0  0  0  0  0  0  0  0  0  0
    7.2210   -0.4620   20.0350 C   0  0  0  0  0  0  0  0  0  0  0  0
    8.9510    0.1280   21.6880 C   0  0  0  0  0  0  0  0  0  0  0  0
    8.2493   -5.1166   26.8639 C   0  0  0  0  0  0  0  0  0  0  0  0
   10.2426   -5.9411   25.6008 C   0  0  0  0  0  0  0  0  0  0  0  0
   10.0220    1.0430   23.6570 C   0  0  0  0  0  0  0  0  0  0  0  0
    7.6830   -0.5170   18.7600 N   0  0  0  0  0  0  0  0  0  0  0  0
    6.9440    0.2550   18.0100 N   0  0  0  0  0  0  0  0  0  0  0  0
    8.0810   -0.9750   21.0820 N   0  0  0  0  0  0  0  0  0  0  0  0
    9.4200   -0.0840   22.9530 N   0  0  0  0  0  0  0  0  0  0  0  0
    9.2624   -4.9028   25.8498 N   0  0  0  0  0  0  0  0  0  0  0  0
    9.1870    1.1500   21.0630 O   0  0  0  0  0  0  0  0  0  0  0  0
   15.3932    0.9189   23.4337 H   0  0  0  0  0  0  0  0  0  0  0  0
    3.6274    2.0126   21.6300 H   0  0  0  0  0  0  0  0  0  0  0  0
   14.2029   -0.2090   25.2955 H   0  0  0  0  0  0  0  0  0  0  0  0
   14.1048    2.1043   21.6752 H   0  0  0  0  0  0  0  0  0  0  0  0
    3.2732    2.7875   19.3199 H   0  0  0  0  0  0  0  0  0  0  0  0
    5.4878    0.4645   22.1722 H   0  0  0  0  0  0  0  0  0  0  0  0
   11.7330   -0.1555   25.4027 H   0  0  0  0  0  0  0  0  0  0  0  0
   11.6349    2.1636   21.7735 H   0  0  0  0  0  0  0  0  0  0  0  0
    4.7853    2.0674   17.4815 H   0  0  0  0  0  0  0  0  0  0  0  0
    7.5947   -0.7787   24.7997 H   0  0  0  0  0  0  0  0  0  0  0  0
   11.0404   -2.1861   22.6352 H   0  0  0  0  0  0  0  0  0  0  0  0
    7.5641   -2.8632   26.1047 H   0  0  0  0  0  0  0  0  0  0  0  0
   11.0135   -4.2647   23.9425 H   0  0  0  0  0  0  0  0  0  0  0  0
    8.3981   -6.1021   27.3295 H   0  0  0  0  0  0  0  0  0  0  0  0
    8.3280   -4.3328   27.6317 H   0  0  0  0  0  0  0  0  0  0  0  0
    7.2526   -5.0770   26.4003 H   0  0  0  0  0  0  0  0  0  0  0  0
   10.0591   -6.7891   26.2770 H   0  0  0  0  0  0  0  0  0  0  0  0
   10.1607   -6.2799   24.5575 H   0  0  0  0  0  0  0  0  0  0  0  0
   11.2522   -5.5424   25.7786 H   0  0  0  0  0  0  0  0  0  0  0  0
    9.6778    1.0140   24.6966 H   0  0  0  0  0  0  0  0  0  0  0  0
    9.6316    1.9637   23.2107 H   0  0  0  0  0  0  0  0  0  0  0  0
    7.1015    0.3608   17.0505 H   0  0  0  0  0  0  0  0  0  0  0  0
    8.1177   -1.8091   21.3536 H   0  0  0  0  0  0  0  0  0  0  0  0
  1  3  1  0  0  0  0
  1  4  2  0  0  0  0
  2  5  1  0  0  0  0
  2  6  2  0  0  0  0
  3  7  2  0  0  0  0
  4  8  1  0  0  0  0
  5  9  2  0  0  0  0
  6 14  1  0  0  0  0
  7 15  1  0  0  0  0
  8 15  2  0  0  0  0
  9 16  1  0  0  0  0
 10 12  2  0  0  0  0
 10 17  1  0  0  0  0
 11 13  1  0  0  0  0
 11 17  2  0  0  0  0
 12 18  1  0  0  0  0
 13 18  2  0  0  0  0
 14 16  2  0  0  0  0
 14 19  1  0  0  0  0
 15 23  1  0  0  0  0
 16 25  1  0  0  0  0
 17 27  1  0  0  0  0
 18 28  1  0  0  0  0
 19 24  2  0  0  0  0
 19 26  1  0  0  0  0
 20 26  1  0  0  0  0
 20 27  1  0  0  0  0
 20 29  2  0  0  0  0
 21 28  1  0  0  0  0
 22 28  1  0  0  0  0
 23 27  1  0  0  0  0
 24 25  1  0  0  0  0
  1 30  1  0  0  0  0
  2 31  1  0  0  0  0
  3 32  1  0  0  0  0
  4 33  1  0  0  0  0
  5 34  1  0  0  0  0
  6 35  1  0  0  0  0
  7 36  1  0  0  0  0
  8 37  1  0  0  0  0
  9 38  1  0  0  0  0
 10 39  1  0  0  0  0
 11 40  1  0  0  0  0
 12 41  1  0  0  0  0
 13 42  1  0  0  0  0
 21 43  1  0  0  0  0
 21 44  1  0  0  0  0
 21 45  1  0  0  0  0
 22 46  1  0  0  0  0
 22 47  1  0  0  0  0
 22 48  1  0  0  0  0
 23 49  1  0  0  0  0
 23 50  1  0  0  0  0
 25 51  1  0  0  0  0
 26 52  1  0  0  0  0
M  END
> <clash_score>
0

> <docking_score>
-8.045666694641113

> <overlap_score>
1.0030856132507324

$$$$
BENZO_56_1
  -OEChem-08222022383D

 49 52  0     0  0  0  0  0  0999 V2000
    4.2970    1.6690   20.8430 C   0  0  0  0  0  0  0  0  0  0  0  0
    4.0980    2.1130   19.5350 C   0  0  0  0  0  0  0  0  0  0  0  0
    5.3360    0.8000   21.1530 C   0  0  0  0  0  0  0  0  0  0  0  0
    4.9400    1.7060   18.5060 C   0  0  0  0  0  0  0  0  0  0  0  0
    8.3510   -1.5420   24.6110 C   0  0  0  0  0  0  0  0  0  0  0  0
   10.2760   -2.3270   23.4020 C   0  0  0  0  0  0  0  0  0  0  0  0
    8.3310   -2.7170   25.3430 C   0  0  0  0  0  0  0  0  0  0  0  0
   10.2570   -3.5000   24.1350 C   0  0  0  0  0  0  0  0  0  0  0  0
   12.2675    1.0332   22.3812 C   0  0  0  0  0  0  0  0  0  0  0  0
   13.6257    0.9906   22.6074 C   0  0  0  0  0  0  0  0  0  0  0  0
   12.3384    0.9467   24.7028 C   0  0  0  0  0  0  0  0  0  0  0  0
    6.1600    0.3870   20.1140 C   0  0  0  0  0  0  0  0  0  0  0  0
   11.5217    1.0079   23.5949 C   0  0  0  0  0  0  0  0  0  0  0  0
    5.9810    0.8330   18.8060 C   0  0  0  0  0  0  0  0  0  0  0  0
    9.3300   -1.3350   23.6390 C   0  0  0  0  0  0  0  0  0  0  0  0
    9.2850   -3.7090   25.1090 C   0  0  0  0  0  0  0  0  0  0  0  0
    7.2210   -0.4620   20.0350 C   0  0  0  0  0  0  0  0  0  0  0  0
    8.9510    0.1280   21.6880 C   0  0  0  0  0  0  0  0  0  0  0  0
    8.2493   -5.1166   26.8639 C   0  0  0  0  0  0  0  0  0  0  0  0
   10.2426   -5.9411   25.6008 C   0  0  0  0  0  0  0  0  0  0  0  0
   10.0220    1.0430   23.6570 C   0  0  0  0  0  0  0  0  0  0  0  0
    7.6830   -0.5170   18.7600 N   0  0  0  0  0  0  0  0  0  0  0  0
    6.9440    0.2550   18.0100 N   0  0  0  0  0  0  0  0  0  0  0  0
    8.0810   -0.9750   21.0820 N   0  0  0  0  0  0  0  0  0  0  0  0
    9.4200   -0.0840   22.9530 N   0  0  0  0  0  0  0  0  0  0  0  0
    9.2624   -4.9028   25.8498 N   0  0  0  0  0  0  0  0  0  0  0  0
    9.1870    1.1500   21.0630 O   0  0  0  0  0  0  0  0  0  0  0  0
   13.9969    0.9203   24.2776 S   0  0  0  0  0  0  0  0  0  0  0  0
    3.6274    2.0126   21.6300 H   0  0  0  0  0  0  0  0  0  0  0  0
    3.2732    2.7875   19.3199 H   0  0  0  0  0  0  0  0  0  0  0  0
    5.4878    0.4645   22.1722 H   0  0  0  0  0  0  0  0  0  0  0  0
    4.7853    2.0674   17.4815 H   0  0  0  0  0  0  0  0  0  0  0  0
    7.5947   -0.7787   24.7997 H   0  0  0  0  0  0  0  0  0  0  0  0
   11.0404   -2.1861   22.6352 H   0  0  0  0  0  0  0  0  0  0  0  0
    7.5641   -2.8632   26.1047 H   0  0  0  0  0  0  0  0  0  0  0  0
   11.0135   -4.2647   23.9425 H   0  0  0  0  0  0  0  0  0  0  0  0
   11.8338    1.0798   21.3902 H   0  0  0  0  0  0  0  0  0  0  0  0
   14.4176    0.9966   21.8719 H   0  0  0  0  0  0  0  0  0  0  0  0
   12.0446    0.9149   25.7428 H   0  0  0  0  0  0  0  0  0  0  0  0
    8.3981   -6.1021   27.3295 H   0  0  0  0  0  0  0  0  0  0  0  0
    8.3280   -4.3328   27.6317 H   0  0  0  0  0  0  0  0  0  0  0  0
    7.2526   -5.0770   26.4003 H   0  0  0  0  0  0  0  0  0  0  0  0
   10.0591   -6.7891   26.2770 H   0  0  0  0  0  0  0  0  0  0  0  0
   10.1607   -6.2799   24.5575 H   0  0  0  0  0  0  0  0  0  0  0  0
   11.2522   -5.5424   25.7786 H   0  0  0  0  0  0  0  0  0  0  0  0
    9.6778    1.0140   24.6966 H   0  0  0  0  0  0  0  0  0  0  0  0
    9.6316    1.9637   23.2107 H   0  0  0  0  0  0  0  0  0  0  0  0
    7.1015    0.3608   17.0505 H   0  0  0  0  0  0  0  0  0  0  0  0
    8.1177   -1.8091   21.3536 H   0  0  0  0  0  0  0  0  0  0  0  0
  1  2  1  0  0  0  0
  1  3  2  0  0  0  0
  2  4  2  0  0  0  0
  3 12  1  0  0  0  0
  4 14  1  0  0  0  0
  5  7  2  0  0  0  0
  5 15  1  0  0  0  0
  6  8  1  0  0  0  0
  6 15  2  0  0  0  0
  7 16  1  0  0  0  0
  8 16  2  0  0  0  0
  9 10  2  0  0  0  0
  9 13  1  0  0  0  0
 10 28  1  0  0  0  0
 11 13  2  0  0  0  0
 11 28  1  0  0  0  0
 12 14  2  0  0  0  0
 12 17  1  0  0  0  0
 13 21  1  0  0  0  0
 14 23  1  0  0  0  0
 15 25  1  0  0  0  0
 16 26  1  0  0  0  0
 17 22  2  0  0  0  0
 17 24  1  0  0  0  0
 18 24  1  0  0  0  0
 18 25  1  0  0  0  0
 18 27  2  0  0  0  0
 19 26  1  0  0  0  0
 20 26  1  0  0  0  0
 21 25  1  0  0  0  0
 22 23  1  0  0  0  0
  1 29  1  0  0  0  0
  2 30  1  0  0  0  0
  3 31  1  0  0  0  0
  4 32  1  0  0  0  0
  5 33  1  0  0  0  0
  6 34  1  0  0  0  0
  7 35  1  0  0  0  0
  8 36  1  0  0  0  0
  9 37  1  0  0  0  0
 10 38  1  0  0  0  0
 11 39  1  0  0  0  0
 19 40  1  0  0  0  0
 19 41  1  0  0  0  0
 19 42  1  0  0  0  0
 20 43  1  0  0  0  0
 20 44  1  0  0  0  0
 20 45  1  0  0  0  0
 21 46  1  0  0  0  0
 21 47  1  0  0  0  0
 23 48  1  0  0  0  0
 24 49  1  0  0  0  0
M  END
> <clash_score>
0

> <docking_score>
-8.291873931884766

> <overlap_score>
0.9772621989250183

$$$$
BENZO_54_1
  -OEChem-08222022383D

 57 61  0     0  0  0  0  0  0999 V2000
    4.0980    2.1130   19.5350 C   0  0  0  0  0  0  0  0  0  0  0  0
    4.2970    1.6690   20.8430 C   0  0  0  0  0  0  0  0  0  0  0  0
   13.5977    1.8457   22.6865 C   0  0  0  0  0  0  0  0  0  0  0  0
   12.2044    1.8769   22.7438 C   0  0  0  0  0  0  0  0  0  0  0  0
    4.9400    1.7060   18.5060 C   0  0  0  0  0  0  0  0  0  0  0  0
    5.3360    0.8000   21.1530 C   0  0  0  0  0  0  0  0  0  0  0  0
    8.3310   -2.7170   25.3430 C   0  0  0  0  0  0  0  0  0  0  0  0
   10.2570   -3.5000   24.1350 C   0  0  0  0  0  0  0  0  0  0  0  0
    8.3510   -1.5420   24.6110 C   0  0  0  0  0  0  0  0  0  0  0  0
   10.2760   -2.3270   23.4020 C   0  0  0  0  0  0  0  0  0  0  0  0
   14.3084    0.9454   23.4803 C   0  0  0  0  0  0  0  0  0  0  0  0
   12.2323    0.1076   24.3888 C   0  0  0  0  0  0  0  0  0  0  0  0
    7.6830   -0.5170   18.7600 C   0  0  0  0  0  0  0  0  0  0  0  0
   11.5217    1.0079   23.5949 C   0  0  0  0  0  0  0  0  0  0  0  0
    5.9810    0.8330   18.8060 C   0  0  0  0  0  0  0  0  0  0  0  0
    6.1600    0.3870   20.1140 C   0  0  0  0  0  0  0  0  0  0  0  0
    9.2850   -3.7090   25.1090 C   0  0  0  0  0  0  0  0  0  0  0  0
    9.3300   -1.3350   23.6390 C   0  0  0  0  0  0  0  0  0  0  0  0
   13.6257    0.0764   24.3314 C   0  0  0  0  0  0  0  0  0  0  0  0
    8.9510    0.1280   21.6880 C   0  0  0  0  0  0  0  0  0  0  0  0
    8.7666   -4.9523   27.2147 C   0  0  0  0  0  0  0  0  0  0  0  0
    9.3034   -6.1866   25.1651 C   0  0  0  0  0  0  0  0  0  0  0  0
    7.3827   -5.5925   27.1999 C   0  0  0  0  0  0  0  0  0  0  0  0
    7.9024   -6.7967   25.2263 C   0  0  0  0  0  0  0  0  0  0  0  0
   10.0220    1.0430   23.6570 C   0  0  0  0  0  0  0  0  0  0  0  0
    6.9440    0.2550   18.0100 N   0  0  0  0  0  0  0  0  0  0  0  0
    7.2210   -0.4620   20.0350 N   0  0  0  0  0  0  0  0  0  0  0  0
    9.2640   -4.8844   25.8389 N   0  0  0  0  0  0  0  0  0  0  0  0
    8.0810   -0.9750   21.0820 N   0  0  0  0  0  0  0  0  0  0  0  0
    9.4200   -0.0840   22.9530 N   0  0  0  0  0  0  0  0  0  0  0  0
    9.1870    1.1500   21.0630 O   0  0  0  0  0  0  0  0  0  0  0  0
    7.4483   -6.8833   26.5817 O   0  0  0  0  0  0  0  0  0  0  0  0
   14.5031   -1.0334   25.3114 Cl  0  0  0  0  0  0  0  0  0  0  0  0
    3.2711    2.7870   19.3201 H   0  0  0  0  0  0  0  0  0  0  0  0
    3.6262    2.0082   21.6285 H   0  0  0  0  0  0  0  0  0  0  0  0
   14.1289    2.5226   22.0237 H   0  0  0  0  0  0  0  0  0  0  0  0
   11.6588    2.5818   22.1218 H   0  0  0  0  0  0  0  0  0  0  0  0
    4.7816    2.0660   17.4901 H   0  0  0  0  0  0  0  0  0  0  0  0
    5.4934    0.4579   22.1787 H   0  0  0  0  0  0  0  0  0  0  0  0
    7.5647   -2.8621   26.1053 H   0  0  0  0  0  0  0  0  0  0  0  0
   11.0144   -4.2642   23.9425 H   0  0  0  0  0  0  0  0  0  0  0  0
    7.5958   -0.7779   24.8006 H   0  0  0  0  0  0  0  0  0  0  0  0
   11.0406   -2.1848   22.6356 H   0  0  0  0  0  0  0  0  0  0  0  0
   15.3941    0.9323   23.4255 H   0  0  0  0  0  0  0  0  0  0  0  0
   11.6954   -0.5682   25.0504 H   0  0  0  0  0  0  0  0  0  0  0  0
    8.5166   -1.1054   18.4533 H   0  0  0  0  0  0  0  0  0  0  0  0
    8.7030   -3.9561   27.6574 H   0  0  0  0  0  0  0  0  0  0  0  0
    9.4460   -5.5639   27.8143 H   0  0  0  0  0  0  0  0  0  0  0  0
   10.0083   -6.8392   25.6817 H   0  0  0  0  0  0  0  0  0  0  0  0
    9.6089   -6.0802   24.1251 H   0  0  0  0  0  0  0  0  0  0  0  0
    7.0281   -5.7334   28.2231 H   0  0  0  0  0  0  0  0  0  0  0  0
    6.6541   -4.9678   26.6754 H   0  0  0  0  0  0  0  0  0  0  0  0
    7.1860   -6.2177   24.6318 H   0  0  0  0  0  0  0  0  0  0  0  0
    7.9246   -7.8119   24.8187 H   0  0  0  0  0  0  0  0  0  0  0  0
    9.6778    1.0140   24.6966 H   0  0  0  0  0  0  0  0  0  0  0  0
    9.6316    1.9637   23.2107 H   0  0  0  0  0  0  0  0  0  0  0  0
    8.1334   -1.7991   21.3673 H   0  0  0  0  0  0  0  0  0  0  0  0
  1  2  1  0  0  0  0
  1  5  2  0  0  0  0
  2  6  2  0  0  0  0
  3  4  2  0  0  0  0
  3 11  1  0  0  0  0
  4 14  1  0  0  0  0
  5 15  1  0  0  0  0
  6 16  1  0  0  0  0
  7  9  2  0  0  0  0
  7 17  1  0  0  0  0
  8 10  1  0  0  0  0
  8 17  2  0  0  0  0
  9 18  1  0  0  0  0
 10 18  2  0  0  0  0
 11 19  2  0  0  0  0
 12 14  2  0  0  0  0
 12 19  1  0  0  0  0
 13 26  2  0  0  0  0
 13 27  1  0  0  0  0
 14 25  1  0  0  0  0
 15 16  2  0  0  0  0
 15 26  1  0  0  0  0
 16 27  1  0  0  0  0
 17 28  1  0  0  0  0
 18 30  1  0  0  0  0
 19 33  1  0  0  0  0
 20 29  1  0  0  0  0
 20 30  1  0  0  0  0
 20 31  2  0  0  0  0
 21 23  1  0  0  0  0
 21 28  1  0  0  0  0
 22 24  1  0  0  0  0
 22 28  1  0  0  0  0
 23 32  1  0  0  0  0
 24 32  1  0  0  0  0
 25 30  1  0  0  0  0
 27 29  1  0  0  0  0
  1 34  1  0  0  0  0
  2 35  1  0  0  0  0
  3 36  1  0  0  0  0
  4 37  1  0  0  0  0
  5 38  1  0  0  0  0
  6 39  1  0  0  0  0
  7 40  1  0  0  0  0
  8 41  1  0  0  0  0
  9 42  1  0  0  0  0
 10 43  1  0  0  0  0
 11 44  1  0  0  0  0
 12 45  1  0  0  0  0
 13 46  1  0  0  0  0
 21 47  1  0  0  0  0
 21 48  1  0  0  0  0
 22 49  1  0  0  0  0
 22 50  1  0  0  0  0
 23 51  1  0  0  0  0
 23 52  1  0  0  0  0
 24 53  1  0  0  0  0
 24 54  1  0  0  0  0
 25 55  1  0  0  0  0
 25 56  1  0  0  0  0
 29 57  1  0  0  0  0
M  END
> <clash_score>
0.7662460431845144

> <docking_score>
-8.189432144165039

> <overlap_score>
1.0216712951660156

$$$$
BENZO_55_1
  -OEChem-08222022383D

 57 61  0     0  0  0  0  0  0999 V2000
    4.0980    2.1130   19.5350 C   0  0  0  0  0  0  0  0  0  0  0  0
    4.2970    1.6690   20.8430 C   0  0  0  0  0  0  0  0  0  0  0  0
    4.9400    1.7060   18.5060 C   0  0  0  0  0  0  0  0  0  0  0  0
    5.3360    0.8000   21.1530 C   0  0  0  0  0  0  0  0  0  0  0  0
    8.3310   -2.7170   25.3430 C   0  0  0  0  0  0  0  0  0  0  0  0
   10.2570   -3.5000   24.1350 C   0  0  0  0  0  0  0  0  0  0  0  0
    8.3510   -1.5420   24.6110 C   0  0  0  0  0  0  0  0  0  0  0  0
   10.2760   -2.3270   23.4020 C   0  0  0  0  0  0  0  0  0  0  0  0
   12.4359    1.7439   24.3724 C   0  0  0  0  0  0  0  0  0  0  0  0
   12.3100    0.2469   22.7668 C   0  0  0  0  0  0  0  0  0  0  0  0
    7.6830   -0.5170   18.7600 C   0  0  0  0  0  0  0  0  0  0  0  0
   11.5217    1.0079   23.5949 C   0  0  0  0  0  0  0  0  0  0  0  0
    5.9810    0.8330   18.8060 C   0  0  0  0  0  0  0  0  0  0  0  0
    6.1600    0.3870   20.1140 C   0  0  0  0  0  0  0  0  0  0  0  0
    9.2850   -3.7090   25.1090 C   0  0  0  0  0  0  0  0  0  0  0  0
    9.3300   -1.3350   23.6390 C   0  0  0  0  0  0  0  0  0  0  0  0
    8.9510    0.1280   21.6880 C   0  0  0  0  0  0  0  0  0  0  0  0
    8.7666   -4.9523   27.2147 C   0  0  0  0  0  0  0  0  0  0  0  0
    9.3034   -6.1866   25.1651 C   0  0  0  0  0  0  0  0  0  0  0  0
    7.3827   -5.5925   27.1999 C   0  0  0  0  0  0  0  0  0  0  0  0
    7.9024   -6.7967   25.2263 C   0  0  0  0  0  0  0  0  0  0  0  0
   14.7884    0.0124   22.4815 C   0  0  0  0  0  0  0  0  0  0  0  0
   10.0220    1.0430   23.6570 C   0  0  0  0  0  0  0  0  0  0  0  0
   13.7076    1.4745   24.0657 N   0  0  0  0  0  0  0  0  0  0  0  0
    6.9440    0.2550   18.0100 N   0  0  0  0  0  0  0  0  0  0  0  0
   13.5982    0.5607   23.0864 N   0  0  0  0  0  0  0  0  0  0  0  0
    7.2210   -0.4620   20.0350 N   0  0  0  0  0  0  0  0  0  0  0  0
    9.2640   -4.8844   25.8389 N   0  0  0  0  0  0  0  0  0  0  0  0
    8.0810   -0.9750   21.0820 N   0  0  0  0  0  0  0  0  0  0  0  0
    9.4200   -0.0840   22.9530 N   0  0  0  0  0  0  0  0  0  0  0  0
    9.1870    1.1500   21.0630 O   0  0  0  0  0  0  0  0  0  0  0  0
    7.4483   -6.8833   26.5817 O   0  0  0  0  0  0  0  0  0  0  0  0
    3.2711    2.7870   19.3201 H   0  0  0  0  0  0  0  0  0  0  0  0
    3.6262    2.0082   21.6285 H   0  0  0  0  0  0  0  0  0  0  0  0
    4.7816    2.0660   17.4901 H   0  0  0  0  0  0  0  0  0  0  0  0
    5.4934    0.4579   22.1787 H   0  0  0  0  0  0  0  0  0  0  0  0
    7.5647   -2.8621   26.1053 H   0  0  0  0  0  0  0  0  0  0  0  0
   11.0144   -4.2642   23.9425 H   0  0  0  0  0  0  0  0  0  0  0  0
    7.5958   -0.7779   24.8006 H   0  0  0  0  0  0  0  0  0  0  0  0
   11.0406   -2.1848   22.6356 H   0  0  0  0  0  0  0  0  0  0  0  0
   12.2308    2.4652   25.1508 H   0  0  0  0  0  0  0  0  0  0  0  0
   12.0700   -0.4744   21.9974 H   0  0  0  0  0  0  0  0  0  0  0  0
    8.5166   -1.1054   18.4533 H   0  0  0  0  0  0  0  0  0  0  0  0
    8.7030   -3.9561   27.6574 H   0  0  0  0  0  0  0  0  0  0  0  0
    9.4460   -5.5639   27.8143 H   0  0  0  0  0  0  0  0  0  0  0  0
   10.0083   -6.8392   25.6817 H   0  0  0  0  0  0  0  0  0  0  0  0
    9.6089   -6.0802   24.1251 H   0  0  0  0  0  0  0  0  0  0  0  0
    7.0281   -5.7334   28.2231 H   0  0  0  0  0  0  0  0  0  0  0  0
    6.6541   -4.9678   26.6754 H   0  0  0  0  0  0  0  0  0  0  0  0
    7.1860   -6.2177   24.6318 H   0  0  0  0  0  0  0  0  0  0  0  0
    7.9246   -7.8119   24.8187 H   0  0  0  0  0  0  0  0  0  0  0  0
   15.0569    0.6453   21.6315 H   0  0  0  0  0  0  0  0  0  0  0  0
   15.5971   -0.0026   23.2174 H   0  0  0  0  0  0  0  0  0  0  0  0
   14.5870   -1.0100   22.1498 H   0  0  0  0  0  0  0  0  0  0  0  0
    9.6778    1.0140   24.6966 H   0  0  0  0  0  0  0  0  0  0  0  0
    9.6316    1.9637   23.2107 H   0  0  0  0  0  0  0  0  0  0  0  0
    8.1334   -1.7991   21.3673 H   0  0  0  0  0  0  0  0  0  0  0  0
  1  2  1  0  0  0  0
  1  3  2  0  0  0  0
  2  4  2  0  0  0  0
  3 13  1  0  0  0  0
  4 14  1  0  0  0  0
  5  7  2  0  0  0  0
  5 15  1  0  0  0  0
  6  8  1  0  0  0  0
  6 15  2  0  0  0  0
  7 16  1  0  0  0  0
  8 16  2  0  0  0  0
  9 12  1  0  0  0  0
  9 24  2  0  0  0  0
 10 12  2  0  0  0  0
 10 26  1  0  0  0  0
 11 25  2  0  0  0  0
 11 27  1  0  0  0  0
 12 23  1  0  0  0  0
 13 14  2  0  0  0  0
 13 25  1  0  0  0  0
 14 27  1  0  0  0  0
 15 28  1  0  0  0  0
 16 30  1  0  0  0  0
 17 29  1  0  0  0  0
 17 30  1  0  0  0  0
 17 31  2  0  0  0  0
 18 20  1  0  0  0  0
 18 28  1  0  0  0  0
 19 21  1  0  0  0  0
 19 28  1  0  0  0  0
 20 32  1  0  0  0  0
 21 32  1  0  0  0  0
 22 26  1  0  0  0  0
 23 30  1  0  0  0  0
 24 26  1  0  0  0  0
 27 29  1  0  0  0  0
  1 33  1  0  0  0  0
  2 34  1  0  0  0  0
  3 35  1  0  0  0  0
  4 36  1  0  0  0  0
  5 37  1  0  0  0  0
  6 38  1  0  0  0  0
  7 39  1  0  0  0  0
  8 40  1  0  0  0  0
  9 41  1  0  0  0  0
 10 42  1  0  0  0  0
 11 43  1  0  0  0  0
 18 44  1  0  0  0  0
 18 45  1  0  0  0  0
 19 46  1  0  0  0  0
 19 47  1  0  0  0  0
 20 48  1  0  0  0  0
 20 49  1  0  0  0  0
 21 50  1  0  0  0  0
 21 51  1  0  0  0  0
 22 52  1  0  0  0  0
 22 53  1  0  0  0  0
 22 54  1  0  0  0  0
 23 55  1  0  0  0  0
 23 56  1  0  0  0  0
 29 57  1  0  0  0  0
M  END
> <clash_score>
0

> <docking_score>
-9.222131729125977

> <overlap_score>
1.0026934146881104

$$$$
BENZO_59_1
  -OEChem-08222022383D

 52 55  0     0  0  0  0  0  0999 V2000
    4.2970    1.6690   20.8430 C   0  0  0  0  0  0  0  0  0  0  0  0
    4.0980    2.1130   19.5350 C   0  0  0  0  0  0  0  0  0  0  0  0
    5.3360    0.8000   21.1530 C   0  0  0  0  0  0  0  0  0  0  0  0
    4.9400    1.7060   18.5060 C   0  0  0  0  0  0  0  0  0  0  0  0
    8.3510   -1.5420   24.6110 C   0  0  0  0  0  0  0  0  0  0  0  0
   10.2760   -2.3270   23.4020 C   0  0  0  0  0  0  0  0  0  0  0  0
    8.3310   -2.7170   25.3430 C   0  0  0  0  0  0  0  0  0  0  0  0
   10.2570   -3.5000   24.1350 C   0  0  0  0  0  0  0  0  0  0  0  0
   12.4359    1.7439   24.3724 C   0  0  0  0  0  0  0  0  0  0  0  0
   12.3100    0.2468   22.7668 C   0  0  0  0  0  0  0  0  0  0  0  0
    6.1600    0.3870   20.1140 C   0  0  0  0  0  0  0  0  0  0  0  0
   11.5217    1.0079   23.5949 C   0  0  0  0  0  0  0  0  0  0  0  0
    5.9810    0.8330   18.8060 C   0  0  0  0  0  0  0  0  0  0  0  0
    9.3300   -1.3350   23.6390 C   0  0  0  0  0  0  0  0  0  0  0  0
    9.2850   -3.7090   25.1090 C   0  0  0  0  0  0  0  0  0  0  0  0
    7.2210   -0.4620   20.0350 C   0  0  0  0  0  0  0  0  0  0  0  0
    8.9510    0.1280   21.6880 C   0  0  0  0  0  0  0  0  0  0  0  0
   14.7884    0.0124   22.4815 C   0  0  0  0  0  0  0  0  0  0  0  0
    8.2493   -5.1166   26.8639 C   0  0  0  0  0  0  0  0  0  0  0  0
   10.2426   -5.9411   25.6008 C   0  0  0  0  0  0  0  0  0  0  0  0
   10.0220    1.0430   23.6570 C   0  0  0  0  0  0  0  0  0  0  0  0
   13.7076    1.4745   24.0657 N   0  0  0  0  0  0  0  0  0  0  0  0
    7.6830   -0.5170   18.7600 N   0  0  0  0  0  0  0  0  0  0  0  0
    6.9440    0.2550   18.0100 N   0  0  0  0  0  0  0  0  0  0  0  0
   13.5982    0.5607   23.0864 N   0  0  0  0  0  0  0  0  0  0  0  0
    8.0810   -0.9750   21.0820 N   0  0  0  0  0  0  0  0  0  0  0  0
    9.4200   -0.0840   22.9530 N   0  0  0  0  0  0  0  0  0  0  0  0
    9.2624   -4.9028   25.8498 N   0  0  0  0  0  0  0  0  0  0  0  0
    9.1870    1.1500   21.0630 O   0  0  0  0  0  0  0  0  0  0  0  0
    3.6274    2.0126   21.6300 H   0  0  0  0  0  0  0  0  0  0  0  0
    3.2732    2.7875   19.3199 H   0  0  0  0  0  0  0  0  0  0  0  0
    5.4878    0.4645   22.1722 H   0  0  0  0  0  0  0  0  0  0  0  0
    4.7853    2.0674   17.4815 H   0  0  0  0  0  0  0  0  0  0  0  0
    7.5947   -0.7787   24.7997 H   0  0  0  0  0  0  0  0  0  0  0  0
   11.0404   -2.1861   22.6352 H   0  0  0  0  0  0  0  0  0  0  0  0
    7.5641   -2.8632   26.1047 H   0  0  0  0  0  0  0  0  0  0  0  0
   11.0135   -4.2647   23.9425 H   0  0  0  0  0  0  0  0  0  0  0  0
   12.2308    2.4652   25.1508 H   0  0  0  0  0  0  0  0  0  0  0  0
   12.0700   -0.4744   21.9974 H   0  0  0  0  0  0  0  0  0  0  0  0
   15.0569    0.6453   21.6315 H   0  0  0  0  0  0  0  0  0  0  0  0
   15.5971   -0.0026   23.2174 H   0  0  0  0  0  0  0  0  0  0  0  0
   14.5870   -1.0100   22.1498 H   0  0  0  0  0  0  0  0  0  0  0  0
    8.3981   -6.1021   27.3295 H   0  0  0  0  0  0  0  0  0  0  0  0
    8.3280   -4.3328   27.6317 H   0  0  0  0  0  0  0  0  0  0  0  0
    7.2526   -5.0770   26.4003 H   0  0  0  0  0  0  0  0  0  0  0  0
   10.0591   -6.7891   26.2770 H   0  0  0  0  0  0  0  0  0  0  0  0
   10.1607   -6.2799   24.5575 H   0  0  0  0  0  0  0  0  0  0  0  0
   11.2522   -5.5424   25.7786 H   0  0  0  0  0  0  0  0  0  0  0  0
    9.6778    1.0140   24.6966 H   0  0  0  0  0  0  0  0  0  0  0  0
    9.6316    1.9637   23.2107 H   0  0  0  0  0  0  0  0  0  0  0  0
    7.1015    0.3608   17.0505 H   0  0  0  0  0  0  0  0  0  0  0  0
    8.1177   -1.8091   21.3536 H   0  0  0  0  0  0  0  0  0  0  0  0
  1  2  1  0  0  0  0
  1  3  2  0  0  0  0
  2  4  2  0  0  0  0
  3 11  1  0  0  0  0
  4 13  1  0  0  0  0
  5  7  2  0  0  0  0
  5 14  1  0  0  0  0
  6  8  1  0  0  0  0
  6 14  2  0  0  0  0
  7 15  1  0  0  0  0
  8 15  2  0  0  0  0
  9 12  1  0  0  0  0
  9 22  2  0  0  0  0
 10 12  2  0  0  0  0
 10 25  1  0  0  0  0
 11 13  2  0  0  0  0
 11 16  1  0  0  0  0
 12 21  1  0  0  0  0
 13 24  1  0  0  0  0
 14 27  1  0  0  0  0
 15 28  1  0  0  0  0
 16 23  2  0  0  0  0
 16 26  1  0  0  0  0
 17 26  1  0  0  0  0
 17 27  1  0  0  0  0
 17 29  2  0  0  0  0
 18 25  1  0  0  0  0
 19 28  1  0  0  0  0
 20 28  1  0  0  0  0
 21 27  1  0  0  0  0
 22 25  1  0  0  0  0
 23 24  1  0  0  0  0
  1 30  1  0  0  0  0
  2 31  1  0  0  0  0
  3 32  1  0  0  0  0
  4 33  1  0  0  0  0
  5 34  1  0  0  0  0
  6 35  1  0  0  0  0
  7 36  1  0  0  0  0
  8 37  1  0  0  0  0
  9 38  1  0  0  0  0
 10 39  1  0  0  0  0
 18 40  1  0  0  0  0
 18 41  1  0  0  0  0
 18 42  1  0  0  0  0
 19 43  1  0  0  0  0
 19 44  1  0  0  0  0
 19 45  1  0  0  0  0
 20 46  1  0  0  0  0
 20 47  1  0  0  0  0
 20 48  1  0  0  0  0
 21 49  1  0  0  0  0
 21 50  1  0  0  0  0
 24 51  1  0  0  0  0
 26 52  1  0  0  0  0
M  END
> <clash_score>
0

> <docking_score>
-8.260272979736328

> <overlap_score>
0.9891859889030457

$$$$
BENZO_58_1
  -OEChem-08222022383D

 52 55  0     0  0  0  0  0  0999 V2000
    4.2970    1.6690   20.8430 C   0  0  0  0  0  0  0  0  0  0  0  0
    4.0980    2.1130   19.5350 C   0  0  0  0  0  0  0  0  0  0  0  0
   13.5977    1.8457   22.6865 C   0  0  0  0  0  0  0  0  0  0  0  0
    5.3360    0.8000   21.1530 C   0  0  0  0  0  0  0  0  0  0  0  0
   12.2044    1.8769   22.7438 C   0  0  0  0  0  0  0  0  0  0  0  0
    4.9400    1.7060   18.5060 C   0  0  0  0  0  0  0  0  0  0  0  0
    8.3510   -1.5420   24.6110 C   0  0  0  0  0  0  0  0  0  0  0  0
   10.2760   -2.3270   23.4020 C   0  0  0  0  0  0  0  0  0  0  0  0
    8.3310   -2.7170   25.3430 C   0  0  0  0  0  0  0  0  0  0  0  0
   10.2570   -3.5000   24.1350 C   0  0  0  0  0  0  0  0  0  0  0  0
   14.3084    0.9453   23.4803 C   0  0  0  0  0  0  0  0  0  0  0  0
   12.2323    0.1076   24.3888 C   0  0  0  0  0  0  0  0  0  0  0  0
    6.1600    0.3870   20.1140 C   0  0  0  0  0  0  0  0  0  0  0  0
   11.5217    1.0079   23.5949 C   0  0  0  0  0  0  0  0  0  0  0  0
    5.9810    0.8330   18.8060 C   0  0  0  0  0  0  0  0  0  0  0  0
    9.3300   -1.3350   23.6390 C   0  0  0  0  0  0  0  0  0  0  0  0
    9.2850   -3.7090   25.1090 C   0  0  0  0  0  0  0  0  0  0  0  0
   13.6257    0.0764   24.3314 C   0  0  0  0  0  0  0  0  0  0  0  0
    7.2210   -0.4620   20.0350 C   0  0  0  0  0  0  0  0  0  0  0  0
    8.9510    0.1280   21.6880 C   0  0  0  0  0  0  0  0  0  0  0  0
    8.2493   -5.1166   26.8639 C   0  0  0  0  0  0  0  0  0  0  0  0
   10.2426   -5.9411   25.6008 C   0  0  0  0  0  0  0  0  0  0  0  0
   10.0220    1.0430   23.6570 C   0  0  0  0  0  0  0  0  0  0  0  0
    7.6830   -0.5170   18.7600 N   0  0  0  0  0  0  0  0  0  0  0  0
    6.9440    0.2550   18.0100 N   0  0  0  0  0  0  0  0  0  0  0  0
    8.0810   -0.9750   21.0820 N   0  0  0  0  0  0  0  0  0  0  0  0
    9.4200   -0.0840   22.9530 N   0  0  0  0  0  0  0  0  0  0  0  0
    9.2624   -4.9028   25.8498 N   0  0  0  0  0  0  0  0  0  0  0  0
    9.1870    1.1500   21.0630 O   0  0  0  0  0  0  0  0  0  0  0  0
   14.5031   -1.0334   25.3114 Cl  0  0  0  0  0  0  0  0  0  0  0  0
    3.6274    2.0126   21.6300 H   0  0  0  0  0  0  0  0  0  0  0  0
    3.2732    2.7875   19.3199 H   0  0  0  0  0  0  0  0  0  0  0  0
   14.1289    2.5226   22.0237 H   0  0  0  0  0  0  0  0  0  0  0  0
    5.4878    0.4645   22.1722 H   0  0  0  0  0  0  0  0  0  0  0  0
   11.6588    2.5818   22.1218 H   0  0  0  0  0  0  0  0  0  0  0  0
    4.7853    2.0674   17.4815 H   0  0  0  0  0  0  0  0  0  0  0  0
    7.5947   -0.7787   24.7997 H   0  0  0  0  0  0  0  0  0  0  0  0
   11.0404   -2.1861   22.6352 H   0  0  0  0  0  0  0  0  0  0  0  0
    7.5641   -2.8632   26.1047 H   0  0  0  0  0  0  0  0  0  0  0  0
   11.0135   -4.2647   23.9425 H   0  0  0  0  0  0  0  0  0  0  0  0
   15.3941    0.9323   23.4255 H   0  0  0  0  0  0  0  0  0  0  0  0
   11.6954   -0.5682   25.0504 H   0  0  0  0  0  0  0  0  0  0  0  0
    8.3981   -6.1021   27.3295 H   0  0  0  0  0  0  0  0  0  0  0  0
    8.3280   -4.3328   27.6317 H   0  0  0  0  0  0  0  0  0  0  0  0
    7.2526   -5.0770   26.4003 H   0  0  0  0  0  0  0  0  0  0  0  0
   10.0591   -6.7891   26.2770 H   0  0  0  0  0  0  0  0  0  0  0  0
   10.1607   -6.2799   24.5575 H   0  0  0  0  0  0  0  0  0  0  0  0
   11.2522   -5.5424   25.7786 H   0  0  0  0  0  0  0  0  0  0  0  0
    9.6778    1.0140   24.6966 H   0  0  0  0  0  0  0  0  0  0  0  0
    9.6316    1.9637   23.2107 H   0  0  0  0  0  0  0  0  0  0  0  0
    7.1015    0.3608   17.0505 H   0  0  0  0  0  0  0  0  0  0  0  0
    8.1177   -1.8091   21.3536 H   0  0  0  0  0  0  0  0  0  0  0  0
  1  2  1  0  0  0  0
  1  4  2  0  0  0  0
  2  6  2  0  0  0  0
  3  5  2  0  0  0  0
  3 11  1  0  0  0  0
  4 13  1  0  0  0  0
  5 14  1  0  0  0  0
  6 15  1  0  0  0  0
  7  9  2  0  0  0  0
  7 16  1  0  0  0  0
  8 10  1  0  0  0  0
  8 16  2  0  0  0  0
  9 17  1  0  0  0  0
 10 17  2  0  0  0  0
 11 18  2  0  0  0  0
 12 14  2  0  0  0  0
 12 18  1  0  0  0  0
 13 15  2  0  0  0  0
 13 19  1  0  0  0  0
 14 23  1  0  0  0  0
 15 25  1  0  0  0  0
 16 27  1  0  0  0  0
 17 28  1  0  0  0  0
 18 30  1  0  0  0  0
 19 24  2  0  0  0  0
 19 26  1  0  0  0  0
 20 26  1  0  0  0  0
 20 27  1  0  0  0  0
 20 29  2  0  0  0  0
 21 28  1  0  0  0  0
 22 28  1  0  0  0  0
 23 27  1  0  0  0  0
 24 25  1  0  0  0  0
  1 31  1  0  0  0  0
  2 32  1  0  0  0  0
  3 33  1  0  0  0  0
  4 34  1  0  0  0  0
  5 35  1  0  0  0  0
  6 36  1  0  0  0  0
  7 37  1  0  0  0  0
  8 38  1  0  0  0  0
  9 39  1  0  0  0  0
 10 40  1  0  0  0  0
 11 41  1  0  0  0  0
 12 42  1  0  0  0  0
 21 43  1  0  0  0  0
 21 44  1  0  0  0  0
 21 45  1  0  0  0  0
 22 46  1  0  0  0  0
 22 47  1  0  0  0  0
 22 48  1  0  0  0  0
 23 49  1  0  0  0  0
 23 50  1  0  0  0  0
 25 51  1  0  0  0  0
 26 52  1  0  0  0  0
M  END
> <clash_score>
0.7662466891130594

> <docking_score>
-7.227560997009277

> <overlap_score>
1.0082905292510986

$$$$
BENZO_61_1
  -OEChem-08222022383D

 54 57  0     0  0  0  0  0  0999 V2000
   14.3082    0.9431   23.4783 C   0  0  0  0  0  0  0  0  0  0  0  0
    4.2970    1.6690   20.8430 C   0  0  0  0  0  0  0  0  0  0  0  0
   13.6391    0.3091   24.5251 C   0  0  0  0  0  0  0  0  0  0  0  0
   13.5841    1.6096   22.4898 C   0  0  0  0  0  0  0  0  0  0  0  0
    4.0980    2.1130   19.5350 C   0  0  0  0  0  0  0  0  0  0  0  0
    5.3360    0.8000   21.1530 C   0  0  0  0  0  0  0  0  0  0  0  0
   12.2459    0.3415   24.5835 C   0  0  0  0  0  0  0  0  0  0  0  0
   12.1908    1.6420   22.5481 C   0  0  0  0  0  0  0  0  0  0  0  0
    4.9400    1.7060   18.5060 C   0  0  0  0  0  0  0  0  0  0  0  0
    8.3310   -2.7170   25.3430 C   0  0  0  0  0  0  0  0  0  0  0  0
   10.2570   -3.5000   24.1350 C   0  0  0  0  0  0  0  0  0  0  0  0
    8.3510   -1.5420   24.6110 C   0  0  0  0  0  0  0  0  0  0  0  0
   10.2760   -2.3270   23.4020 C   0  0  0  0  0  0  0  0  0  0  0  0
    6.1600    0.3870   20.1140 C   0  0  0  0  0  0  0  0  0  0  0  0
   11.5217    1.0079   23.5949 C   0  0  0  0  0  0  0  0  0  0  0  0
    5.9810    0.8330   18.8060 C   0  0  0  0  0  0  0  0  0  0  0  0
    9.2850   -3.7090   25.1090 C   0  0  0  0  0  0  0  0  0  0  0  0
    9.3300   -1.3350   23.6390 C   0  0  0  0  0  0  0  0  0  0  0  0
    7.2210   -0.4620   20.0350 C   0  0  0  0  0  0  0  0  0  0  0  0
    9.6836   -6.1684   25.4392 C   0  0  0  0  0  0  0  0  0  0  0  0
    8.9510    0.1280   21.6880 C   0  0  0  0  0  0  0  0  0  0  0  0
    8.0396   -7.2904   27.0025 C   0  0  0  0  0  0  0  0  0  0  0  0
   10.0220    1.0430   23.6570 C   0  0  0  0  0  0  0  0  0  0  0  0
    9.4856   -7.1873   26.5515 C   0  0  0  0  0  0  0  0  0  0  0  0
    7.6830   -0.5170   18.7600 N   0  0  0  0  0  0  0  0  0  0  0  0
    6.9440    0.2550   18.0100 N   0  0  0  0  0  0  0  0  0  0  0  0
    9.2630   -4.8902   25.8410 N   0  0  0  0  0  0  0  0  0  0  0  0
    8.0810   -0.9750   21.0820 N   0  0  0  0  0  0  0  0  0  0  0  0
    9.4200   -0.0840   22.9530 N   0  0  0  0  0  0  0  0  0  0  0  0
   10.1552   -6.4778   24.3500 O   0  0  0  0  0  0  0  0  0  0  0  0
    9.1870    1.1500   21.0630 O   0  0  0  0  0  0  0  0  0  0  0  0
   15.3932    0.9189   23.4337 H   0  0  0  0  0  0  0  0  0  0  0  0
    3.6274    2.0126   21.6300 H   0  0  0  0  0  0  0  0  0  0  0  0
   14.2029   -0.2090   25.2955 H   0  0  0  0  0  0  0  0  0  0  0  0
   14.1048    2.1043   21.6752 H   0  0  0  0  0  0  0  0  0  0  0  0
    3.2732    2.7875   19.3199 H   0  0  0  0  0  0  0  0  0  0  0  0
    5.4878    0.4645   22.1722 H   0  0  0  0  0  0  0  0  0  0  0  0
   11.7330   -0.1555   25.4027 H   0  0  0  0  0  0  0  0  0  0  0  0
   11.6349    2.1636   21.7735 H   0  0  0  0  0  0  0  0  0  0  0  0
    4.7853    2.0674   17.4815 H   0  0  0  0  0  0  0  0  0  0  0  0
    7.5639   -2.8621   26.1045 H   0  0  0  0  0  0  0  0  0  0  0  0
   11.0141   -4.2644   23.9422 H   0  0  0  0  0  0  0  0  0  0  0  0
    7.5950   -0.7788   24.8007 H   0  0  0  0  0  0  0  0  0  0  0  0
   11.0408   -2.1861   22.6359 H   0  0  0  0  0  0  0  0  0  0  0  0
    7.6717   -6.3257   27.3675 H   0  0  0  0  0  0  0  0  0  0  0  0
    7.9438   -8.0211   27.8114 H   0  0  0  0  0  0  0  0  0  0  0  0
    7.3921   -7.6062   26.1778 H   0  0  0  0  0  0  0  0  0  0  0  0
    9.6778    1.0140   24.6966 H   0  0  0  0  0  0  0  0  0  0  0  0
    9.6316    1.9637   23.2107 H   0  0  0  0  0  0  0  0  0  0  0  0
    9.8267   -8.1650   26.1921 H   0  0  0  0  0  0  0  0  0  0  0  0
   10.1142   -6.9000   27.4022 H   0  0  0  0  0  0  0  0  0  0  0  0
    7.1015    0.3608   17.0505 H   0  0  0  0  0  0  0  0  0  0  0  0
    8.8929   -4.8270   26.7966 H   0  0  0  0  0  0  0  0  0  0  0  0
    8.1177   -1.8091   21.3536 H   0  0  0  0  0  0  0  0  0  0  0  0
  1  3  1  0  0  0  0
  1  4  2  0  0  0  0
  2  5  1  0  0  0  0
  2  6  2  0  0  0  0
  3  7  2  0  0  0  0
  4  8  1  0  0  0  0
  5  9  2  0  0  0  0
  6 14  1  0  0  0  0
  7 15  1  0  0  0  0
  8 15  2  0  0  0  0
  9 16  1  0  0  0  0
 10 12  2  0  0  0  0
 10 17  1  0  0  0  0
 11 13  1  0  0  0  0
 11 17  2  0  0  0  0
 12 18  1  0  0  0  0
 13 18  2  0  0  0  0
 14 16  2  0  0  0  0
 14 19  1  0  0  0  0
 15 23  1  0  0  0  0
 16 26  1  0  0  0  0
 17 27  1  0  0  0  0
 18 29  1  0  0  0  0
 19 25  2  0  0  0  0
 19 28  1  0  0  0  0
 20 24  1  0  0  0  0
 20 27  1  0  0  0  0
 20 30  2  0  0  0  0
 21 28  1  0  0  0  0
 21 29  1  0  0  0  0
 21 31  2  0  0  0  0
 22 24  1  0  0  0  0
 23 29  1  0  0  0  0
 25 26  1  0  0  0  0
  1 32  1  0  0  0  0
  2 33  1  0  0  0  0
  3 34  1  0  0  0  0
  4 35  1  0  0  0  0
  5 36  1  0  0  0  0
  6 37  1  0  0  0  0
  7 38  1  0  0  0  0
  8 39  1  0  0  0  0
  9 40  1  0  0  0  0
 10 41  1  0  0  0  0
 11 42  1  0  0  0  0
 12 43  1  0  0  0  0
 13 44  1  0  0  0  0
 22 45  1  0  0  0  0
 22 46  1  0  0  0  0
 22 47  1  0  0  0  0
 23 48  1  0  0  0  0
 23 49  1  0  0  0  0
 24 50  1  0  0  0  0
 24 51  1  0  0  0  0
 26 52  1  0  0  0  0
 27 53  1  0  0  0  0
 28 54  1  0  0  0  0
M  END
> <clash_score>
1.33346355995364

> <docking_score>
-4.52539587020874

> <overlap_score>
0.9871468544006348

$$$$
BENZO_60_1
  -OEChem-08222022383D

 51 54  0     0  0  0  0  0  0999 V2000
    4.2970    1.6690   20.8430 C   0  0  0  0  0  0  0  0  0  0  0  0
    4.0980    2.1130   19.5350 C   0  0  0  0  0  0  0  0  0  0  0  0
    5.3360    0.8000   21.1530 C   0  0  0  0  0  0  0  0  0  0  0  0
    4.9400    1.7060   18.5060 C   0  0  0  0  0  0  0  0  0  0  0  0
    8.3310   -2.7170   25.3430 C   0  0  0  0  0  0  0  0  0  0  0  0
   10.2570   -3.5000   24.1350 C   0  0  0  0  0  0  0  0  0  0  0  0
    8.3510   -1.5420   24.6110 C   0  0  0  0  0  0  0  0  0  0  0  0
   10.2760   -2.3270   23.4020 C   0  0  0  0  0  0  0  0  0  0  0  0
   12.2675    1.0332   22.3812 C   0  0  0  0  0  0  0  0  0  0  0  0
   13.6257    0.9906   22.6074 C   0  0  0  0  0  0  0  0  0  0  0  0
   12.3384    0.9467   24.7028 C   0  0  0  0  0  0  0  0  0  0  0  0
    6.1600    0.3870   20.1140 C   0  0  0  0  0  0  0  0  0  0  0  0
   11.5217    1.0079   23.5949 C   0  0  0  0  0  0  0  0  0  0  0  0
    5.9810    0.8330   18.8060 C   0  0  0  0  0  0  0  0  0  0  0  0
    9.2850   -3.7090   25.1090 C   0  0  0  0  0  0  0  0  0  0  0  0
    9.3300   -1.3350   23.6390 C   0  0  0  0  0  0  0  0  0  0  0  0
    7.2210   -0.4620   20.0350 C   0  0  0  0  0  0  0  0  0  0  0  0
    9.6836   -6.1684   25.4392 C   0  0  0  0  0  0  0  0  0  0  0  0
    8.9510    0.1280   21.6880 C   0  0  0  0  0  0  0  0  0  0  0  0
    8.0396   -7.2904   27.0025 C   0  0  0  0  0  0  0  0  0  0  0  0
   10.0220    1.0430   23.6570 C   0  0  0  0  0  0  0  0  0  0  0  0
    9.4856   -7.1873   26.5515 C   0  0  0  0  0  0  0  0  0  0  0  0
    7.6830   -0.5170   18.7600 N   0  0  0  0  0  0  0  0  0  0  0  0
    6.9440    0.2550   18.0100 N   0  0  0  0  0  0  0  0  0  0  0  0
    9.2630   -4.8902   25.8410 N   0  0  0  0  0  0  0  0  0  0  0  0
    8.0810   -0.9750   21.0820 N   0  0  0  0  0  0  0  0  0  0  0  0
    9.4200   -0.0840   22.9530 N   0  0  0  0  0  0  0  0  0  0  0  0
   10.1552   -6.4778   24.3500 O   0  0  0  0  0  0  0  0  0  0  0  0
    9.1870    1.1500   21.0630 O   0  0  0  0  0  0  0  0  0  0  0  0
   13.9969    0.9203   24.2776 S   0  0  0  0  0  0  0  0  0  0  0  0
    3.6274    2.0126   21.6300 H   0  0  0  0  0  0  0  0  0  0  0  0
    3.2732    2.7875   19.3199 H   0  0  0  0  0  0  0  0  0  0  0  0
    5.4878    0.4645   22.1722 H   0  0  0  0  0  0  0  0  0  0  0  0
    4.7853    2.0674   17.4815 H   0  0  0  0  0  0  0  0  0  0  0  0
    7.5639   -2.8621   26.1045 H   0  0  0  0  0  0  0  0  0  0  0  0
   11.0141   -4.2644   23.9422 H   0  0  0  0  0  0  0  0  0  0  0  0
    7.5950   -0.7788   24.8007 H   0  0  0  0  0  0  0  0  0  0  0  0
   11.0408   -2.1861   22.6359 H   0  0  0  0  0  0  0  0  0  0  0  0
   11.8338    1.0798   21.3902 H   0  0  0  0  0  0  0  0  0  0  0  0
   14.4176    0.9966   21.8719 H   0  0  0  0  0  0  0  0  0  0  0  0
   12.0446    0.9149   25.7428 H   0  0  0  0  0  0  0  0  0  0  0  0
    7.6717   -6.3257   27.3675 H   0  0  0  0  0  0  0  0  0  0  0  0
    7.9438   -8.0211   27.8114 H   0  0  0  0  0  0  0  0  0  0  0  0
    7.3921   -7.6062   26.1778 H   0  0  0  0  0  0  0  0  0  0  0  0
    9.6778    1.0140   24.6966 H   0  0  0  0  0  0  0  0  0  0  0  0
    9.6316    1.9637   23.2107 H   0  0  0  0  0  0  0  0  0  0  0  0
    9.8267   -8.1650   26.1921 H   0  0  0  0  0  0  0  0  0  0  0  0
   10.1142   -6.9000   27.4022 H   0  0  0  0  0  0  0  0  0  0  0  0
    7.1015    0.3608   17.0505 H   0  0  0  0  0  0  0  0  0  0  0  0
    8.8929   -4.8270   26.7966 H   0  0  0  0  0  0  0  0  0  0  0  0
    8.1177   -1.8091   21.3536 H   0  0  0  0  0  0  0  0  0  0  0  0
  1  2  1  0  0  0  0
  1  3  2  0  0  0  0
  2  4  2  0  0  0  0
  3 12  1  0  0  0  0
  4 14  1  0  0  0  0
  5  7  2  0  0  0  0
  5 15  1  0  0  0  0
  6  8  1  0  0  0  0
  6 15  2  0  0  0  0
  7 16  1  0  0  0  0
  8 16  2  0  0  0  0
  9 10  2  0  0  0  0
  9 13  1  0  0  0  0
 10 30  1  0  0  0  0
 11 13  2  0  0  0  0
 11 30  1  0  0  0  0
 12 14  2  0  0  0  0
 12 17  1  0  0  0  0
 13 21  1  0  0  0  0
 14 24  1  0  0  0  0
 15 25  1  0  0  0  0
 16 27  1  0  0  0  0
 17 23  2  0  0  0  0
 17 26  1  0  0  0  0
 18 22  1  0  0  0  0
 18 25  1  0  0  0  0
 18 28  2  0  0  0  0
 19 26  1  0  0  0  0
 19 27  1  0  0  0  0
 19 29  2  0  0  0  0
 20 22  1  0  0  0  0
 21 27  1  0  0  0  0
 23 24  1  0  0  0  0
  1 31  1  0  0  0  0
  2 32  1  0  0  0  0
  3 33  1  0  0  0  0
  4 34  1  0  0  0  0
  5 35  1  0  0  0  0
  6 36  1  0  0  0  0
  7 37  1  0  0  0  0
  8 38  1  0  0  0  0
  9 39  1  0  0  0  0
 10 40  1  0  0  0  0
 11 41  1  0  0  0  0
 20 42  1  0  0  0  0
 20 43  1  0  0  0  0
 20 44  1  0  0  0  0
 21 45  1  0  0  0  0
 21 46  1  0  0  0  0
 22 47  1  0  0  0  0
 22 48  1  0  0  0  0
 24 49  1  0  0  0  0
 25 50  1  0  0  0  0
 26 51  1  0  0  0  0
M  END
> <clash_score>
1.33346355995364

> <docking_score>
-4.771603107452393

> <overlap_score>
0.9613741040229797

$$$$
BENZO_63_1
  -OEChem-08222022383D

 54 57  0     0  0  0  0  0  0999 V2000
    4.2970    1.6690   20.8430 C   0  0  0  0  0  0  0  0  0  0  0  0
    4.0980    2.1130   19.5350 C   0  0  0  0  0  0  0  0  0  0  0  0
    5.3360    0.8000   21.1530 C   0  0  0  0  0  0  0  0  0  0  0  0
    4.9400    1.7060   18.5060 C   0  0  0  0  0  0  0  0  0  0  0  0
    8.3310   -2.7170   25.3430 C   0  0  0  0  0  0  0  0  0  0  0  0
   10.2570   -3.5000   24.1350 C   0  0  0  0  0  0  0  0  0  0  0  0
    8.3510   -1.5420   24.6110 C   0  0  0  0  0  0  0  0  0  0  0  0
   10.2760   -2.3270   23.4020 C   0  0  0  0  0  0  0  0  0  0  0  0
   12.4295    0.9466   24.6692 C   0  0  0  0  0  0  0  0  0  0  0  0
   12.3161    1.0259   22.4747 C   0  0  0  0  0  0  0  0  0  0  0  0
    6.1600    0.3870   20.1140 C   0  0  0  0  0  0  0  0  0  0  0  0
   11.5217    1.0079   23.5949 C   0  0  0  0  0  0  0  0  0  0  0  0
    5.9810    0.8330   18.8060 C   0  0  0  0  0  0  0  0  0  0  0  0
    9.2850   -3.7090   25.1090 C   0  0  0  0  0  0  0  0  0  0  0  0
    9.3300   -1.3350   23.6390 C   0  0  0  0  0  0  0  0  0  0  0  0
    7.2210   -0.4620   20.0350 C   0  0  0  0  0  0  0  0  0  0  0  0
    9.6836   -6.1684   25.4392 C   0  0  0  0  0  0  0  0  0  0  0  0
    8.9510    0.1280   21.6880 C   0  0  0  0  0  0  0  0  0  0  0  0
    8.0396   -7.2904   27.0025 C   0  0  0  0  0  0  0  0  0  0  0  0
   14.7958    0.9722   22.1181 C   0  0  0  0  0  0  0  0  0  0  0  0
   10.0220    1.0430   23.6570 C   0  0  0  0  0  0  0  0  0  0  0  0
    9.4856   -7.1873   26.5515 C   0  0  0  0  0  0  0  0  0  0  0  0
   13.7032    0.9267   24.2674 N   0  0  0  0  0  0  0  0  0  0  0  0
    7.6830   -0.5170   18.7600 N   0  0  0  0  0  0  0  0  0  0  0  0
    6.9440    0.2550   18.0100 N   0  0  0  0  0  0  0  0  0  0  0  0
   13.6014    0.9758   22.9283 N   0  0  0  0  0  0  0  0  0  0  0  0
    9.2630   -4.8902   25.8410 N   0  0  0  0  0  0  0  0  0  0  0  0
    8.0810   -0.9750   21.0820 N   0  0  0  0  0  0  0  0  0  0  0  0
    9.4200   -0.0840   22.9530 N   0  0  0  0  0  0  0  0  0  0  0  0
   10.1552   -6.4778   24.3500 O   0  0  0  0  0  0  0  0  0  0  0  0
    9.1870    1.1500   21.0630 O   0  0  0  0  0  0  0  0  0  0  0  0
    3.6274    2.0126   21.6300 H   0  0  0  0  0  0  0  0  0  0  0  0
    3.2732    2.7875   19.3199 H   0  0  0  0  0  0  0  0  0  0  0  0
    5.4878    0.4645   22.1722 H   0  0  0  0  0  0  0  0  0  0  0  0
    4.7853    2.0674   17.4815 H   0  0  0  0  0  0  0  0  0  0  0  0
    7.5639   -2.8621   26.1045 H   0  0  0  0  0  0  0  0  0  0  0  0
   11.0141   -4.2644   23.9422 H   0  0  0  0  0  0  0  0  0  0  0  0
    7.5950   -0.7788   24.8007 H   0  0  0  0  0  0  0  0  0  0  0  0
   11.0408   -2.1861   22.6359 H   0  0  0  0  0  0  0  0  0  0  0  0
   12.2184    0.9145   25.7287 H   0  0  0  0  0  0  0  0  0  0  0  0
   12.0821    1.0677   21.4195 H   0  0  0  0  0  0  0  0  0  0  0  0
    7.6717   -6.3257   27.3675 H   0  0  0  0  0  0  0  0  0  0  0  0
    7.9438   -8.0211   27.8114 H   0  0  0  0  0  0  0  0  0  0  0  0
    7.3921   -7.6062   26.1778 H   0  0  0  0  0  0  0  0  0  0  0  0
   15.1026    2.0102   21.9649 H   0  0  0  0  0  0  0  0  0  0  0  0
   15.5826    0.4128   22.6318 H   0  0  0  0  0  0  0  0  0  0  0  0
   14.5811    0.4905   21.1600 H   0  0  0  0  0  0  0  0  0  0  0  0
    9.6778    1.0140   24.6966 H   0  0  0  0  0  0  0  0  0  0  0  0
    9.6316    1.9637   23.2107 H   0  0  0  0  0  0  0  0  0  0  0  0
    9.8267   -8.1650   26.1921 H   0  0  0  0  0  0  0  0  0  0  0  0
   10.1142   -6.9000   27.4022 H   0  0  0  0  0  0  0  0  0  0  0  0
    7.1015    0.3608   17.0505 H   0  0  0  0  0  0  0  0  0  0  0  0
    8.8929   -4.8270   26.7966 H   0  0  0  0  0  0  0  0  0  0  0  0
    8.1177   -1.8091   21.3536 H   0  0  0  0  0  0  0  0  0  0  0  0
  1  2  1  0  0  0  0
  1  3  2  0  0  0  0
  2  4  2  0  0  0  0
  3 11  1  0  0  0  0
  4 13  1  0  0  0  0
  5  7  2  0  0  0  0
  5 14  1  0  0  0  0
  6  8  1  0  0  0  0
  6 14  2  0  0  0  0
  7 15  1  0  0  0  0
  8 15  2  0  0  0  0
  9 12  1  0  0  0  0
  9 23  2  0  0  0  0
 10 12  2  0  0  0  0
 10 26  1  0  0  0  0
 11 13  2  0  0  0  0
 11 16  1  0  0  0  0
 12 21  1  0  0  0  0
 13 25  1  0  0  0  0
 14 27  1  0  0  0  0
 15 29  1  0  0  0  0
 16 24  2  0  0  0  0
 16 28  1  0  0  0  0
 17 22  1  0  0  0  0
 17 27  1  0  0  0  0
 17 30  2  0  0  0  0
 18 28  1  0  0  0  0
 18 29  1  0  0  0  0
 18 31  2  0  0  0  0
 19 22  1  0  0  0  0
 20 26  1  0  0  0  0
 21 29  1  0  0  0  0
 23 26  1  0  0  0  0
 24 25  1  0  0  0  0
  1 32  1  0  0  0  0
  2 33  1  0  0  0  0
  3 34  1  0  0  0  0
  4 35  1  0  0  0  0
  5 36  1  0  0  0  0
  6 37  1  0  0  0  0
  7 38  1  0  0  0  0
  8 39  1  0  0  0  0
  9 40  1  0  0  0  0
 10 41  1  0  0  0  0
 19 42  1  0  0  0  0
 19 43  1  0  0  0  0
 19 44  1  0  0  0  0
 20 45  1  0  0  0  0
 20 46  1  0  0  0  0
 20 47  1  0  0  0  0
 21 48  1  0  0  0  0
 21 49  1  0  0  0  0
 22 50  1  0  0  0  0
 22 51  1  0  0  0  0
 25 52  1  0  0  0  0
 27 53  1  0  0  0  0
 28 54  1  0  0  0  0
M  END
> <clash_score>
1.33346355995364

> <docking_score>
-4.467447757720947

> <overlap_score>
0.977990448474884

$$$$
BENZO_65_1
  -OEChem-08222022383D

 59 63  0     0  0  0  0  0  0999 V2000
   14.3082    0.9431   23.4783 C   0  0  0  0  0  0  0  0  0  0  0  0
    4.2970    1.6690   20.8430 C   0  0  0  0  0  0  0  0  0  0  0  0
   13.6391    0.3091   24.5251 C   0  0  0  0  0  0  0  0  0  0  0  0
   13.5841    1.6096   22.4898 C   0  0  0  0  0  0  0  0  0  0  0  0
    4.0980    2.1130   19.5350 C   0  0  0  0  0  0  0  0  0  0  0  0
    5.3360    0.8000   21.1530 C   0  0  0  0  0  0  0  0  0  0  0  0
   12.2459    0.3415   24.5835 C   0  0  0  0  0  0  0  0  0  0  0  0
   12.1908    1.6420   22.5481 C   0  0  0  0  0  0  0  0  0  0  0  0
    4.9400    1.7060   18.5060 C   0  0  0  0  0  0  0  0  0  0  0  0
    8.3310   -2.7170   25.3430 C   0  0  0  0  0  0  0  0  0  0  0  0
   10.2570   -3.5000   24.1350 C   0  0  0  0  0  0  0  0  0  0  0  0
    8.3510   -1.5420   24.6110 C   0  0  0  0  0  0  0  0  0  0  0  0
   10.2760   -2.3270   23.4020 C   0  0  0  0  0  0  0  0  0  0  0  0
    6.1600    0.3870   20.1140 C   0  0  0  0  0  0  0  0  0  0  0  0
   11.5217    1.0079   23.5949 C   0  0  0  0  0  0  0  0  0  0  0  0
    5.9810    0.8330   18.8060 C   0  0  0  0  0  0  0  0  0  0  0  0
    9.2850   -3.7090   25.1090 C   0  0  0  0  0  0  0  0  0  0  0  0
    9.3300   -1.3350   23.6390 C   0  0  0  0  0  0  0  0  0  0  0  0
    7.2210   -0.4620   20.0350 C   0  0  0  0  0  0  0  0  0  0  0  0
    8.9510    0.1280   21.6880 C   0  0  0  0  0  0  0  0  0  0  0  0
    7.3162   -6.8835   26.5210 C   0  0  0  0  0  0  0  0  0  0  0  0
    7.3507   -5.5245   27.2240 C   0  0  0  0  0  0  0  0  0  0  0  0
    7.9375   -6.8069   25.1245 C   0  0  0  0  0  0  0  0  0  0  0  0
    8.7638   -4.9418   27.2163 C   0  0  0  0  0  0  0  0  0  0  0  0
    9.3378   -6.1874   25.1659 C   0  0  0  0  0  0  0  0  0  0  0  0
   10.0220    1.0430   23.6570 C   0  0  0  0  0  0  0  0  0  0  0  0
    7.6830   -0.5170   18.7600 N   0  0  0  0  0  0  0  0  0  0  0  0
    6.9440    0.2550   18.0100 N   0  0  0  0  0  0  0  0  0  0  0  0
    9.2639   -4.8860   25.8399 N   0  0  0  0  0  0  0  0  0  0  0  0
    8.0810   -0.9750   21.0820 N   0  0  0  0  0  0  0  0  0  0  0  0
    9.4200   -0.0840   22.9530 N   0  0  0  0  0  0  0  0  0  0  0  0
    9.1870    1.1500   21.0630 O   0  0  0  0  0  0  0  0  0  0  0  0
   15.3932    0.9189   23.4337 H   0  0  0  0  0  0  0  0  0  0  0  0
    3.6274    2.0126   21.6300 H   0  0  0  0  0  0  0  0  0  0  0  0
   14.2029   -0.2090   25.2955 H   0  0  0  0  0  0  0  0  0  0  0  0
   14.1048    2.1043   21.6752 H   0  0  0  0  0  0  0  0  0  0  0  0
    3.2732    2.7875   19.3199 H   0  0  0  0  0  0  0  0  0  0  0  0
    5.4878    0.4645   22.1722 H   0  0  0  0  0  0  0  0  0  0  0  0
   11.7330   -0.1555   25.4027 H   0  0  0  0  0  0  0  0  0  0  0  0
   11.6349    2.1636   21.7735 H   0  0  0  0  0  0  0  0  0  0  0  0
    4.7853    2.0674   17.4815 H   0  0  0  0  0  0  0  0  0  0  0  0
    7.5647   -2.8621   26.1053 H   0  0  0  0  0  0  0  0  0  0  0  0
   11.0144   -4.2642   23.9425 H   0  0  0  0  0  0  0  0  0  0  0  0
    7.5958   -0.7779   24.8006 H   0  0  0  0  0  0  0  0  0  0  0  0
   11.0406   -2.1848   22.6356 H   0  0  0  0  0  0  0  0  0  0  0  0
    7.8578   -7.6261   27.1266 H   0  0  0  0  0  0  0  0  0  0  0  0
    6.2773   -7.2358   26.4459 H   0  0  0  0  0  0  0  0  0  0  0  0
    6.6663   -4.8351   26.7223 H   0  0  0  0  0  0  0  0  0  0  0  0
    7.0044   -5.6368   28.2534 H   0  0  0  0  0  0  0  0  0  0  0  0
    7.9946   -7.8119   24.6937 H   0  0  0  0  0  0  0  0  0  0  0  0
    7.2929   -6.2123   24.4668 H   0  0  0  0  0  0  0  0  0  0  0  0
    8.7343   -3.9408   27.6542 H   0  0  0  0  0  0  0  0  0  0  0  0
    9.4243   -5.5632   27.8278 H   0  0  0  0  0  0  0  0  0  0  0  0
   10.0200   -6.8490   25.7011 H   0  0  0  0  0  0  0  0  0  0  0  0
    9.6984   -6.0694   24.1436 H   0  0  0  0  0  0  0  0  0  0  0  0
    9.6778    1.0140   24.6966 H   0  0  0  0  0  0  0  0  0  0  0  0
    9.6316    1.9637   23.2107 H   0  0  0  0  0  0  0  0  0  0  0  0
    7.1015    0.3608   17.0505 H   0  0  0  0  0  0  0  0  0  0  0  0
    8.1334   -1.7992   21.3673 H   0  0  0  0  0  0  0  0  0  0  0  0
  1  3  1  0  0  0  0
  1  4  2  0  0  0  0
  2  5  1  0  0  0  0
  2  6  2  0  0  0  0
  3  7  2  0  0  0  0
  4  8  1  0  0  0  0
  5  9  2  0  0  0  0
  6 14  1  0  0  0  0
  7 15  1  0  0  0  0
  8 15  2  0  0  0  0
  9 16  1  0  0  0  0
 10 12  2  0  0  0  0
 10 17  1  0  0  0  0
 11 13  1  0  0  0  0
 11 17  2  0  0  0  0
 12 18  1  0  0  0  0
 13 18  2  0  0  0  0
 14 16  2  0  0  0  0
 14 19  1  0  0  0  0
 15 26  1  0  0  0  0
 16 28  1  0  0  0  0
 17 29  1  0  0  0  0
 18 31  1  0  0  0  0
 19 27  2  0  0  0  0
 19 30  1  0  0  0  0
 20 30  1  0  0  0  0
 20 31  1  0  0  0  0
 20 32  2  0  0  0  0
 21 22  1  0  0  0  0
 21 23  1  0  0  0  0
 22 24  1  0  0  0  0
 23 25  1  0  0  0  0
 24 29  1  0  0  0  0
 25 29  1  0  0  0  0
 26 31  1  0  0  0  0
 27 28  1  0  0  0  0
  1 33  1  0  0  0  0
  2 34  1  0  0  0  0
  3 35  1  0  0  0  0
  4 36  1  0  0  0  0
  5 37  1  0  0  0  0
  6 38  1  0  0  0  0
  7 39  1  0  0  0  0
  8 40  1  0  0  0  0
  9 41  1  0  0  0  0
 10 42  1  0  0  0  0
 11 43  1  0  0  0  0
 12 44  1  0  0  0  0
 13 45  1  0  0  0  0
 21 46  1  0  0  0  0
 21 47  1  0  0  0  0
 22 48  1  0  0  0  0
 22 49  1  0  0  0  0
 23 50  1  0  0  0  0
 23 51  1  0  0  0  0
 24 52  1  0  0  0  0
 24 53  1  0  0  0  0
 25 54  1  0  0  0  0
 25 55  1  0  0  0  0
 26 56  1  0  0  0  0
 26 57  1  0  0  0  0
 28 58  1  0  0  0  0
 30 59  1  0  0  0  0
M  END
> <clash_score>
0

> <docking_score>
-6.757875442504883

> <overlap_score>
1.0155829191207886

$$$$
BENZO_62_1
  -OEChem-08222022383D

 54 57  0     0  0  0  0  0  0999 V2000
    4.2970    1.6690   20.8430 C   0  0  0  0  0  0  0  0  0  0  0  0
    4.0980    2.1130   19.5350 C   0  0  0  0  0  0  0  0  0  0  0  0
   13.5977    1.8457   22.6865 C   0  0  0  0  0  0  0  0  0  0  0  0
    5.3360    0.8000   21.1530 C   0  0  0  0  0  0  0  0  0  0  0  0
   12.2044    1.8769   22.7438 C   0  0  0  0  0  0  0  0  0  0  0  0
    4.9400    1.7060   18.5060 C   0  0  0  0  0  0  0  0  0  0  0  0
    8.3310   -2.7170   25.3430 C   0  0  0  0  0  0  0  0  0  0  0  0
   10.2570   -3.5000   24.1350 C   0  0  0  0  0  0  0  0  0  0  0  0
    8.3510   -1.5420   24.6110 C   0  0  0  0  0  0  0  0  0  0  0  0
   10.2760   -2.3270   23.4020 C   0  0  0  0  0  0  0  0  0  0  0  0
   14.3084    0.9453   23.4803 C   0  0  0  0  0  0  0  0  0  0  0  0
   12.2323    0.1076   24.3888 C   0  0  0  0  0  0  0  0  0  0  0  0
    6.1600    0.3870   20.1140 C   0  0  0  0  0  0  0  0  0  0  0  0
   11.5217    1.0079   23.5949 C   0  0  0  0  0  0  0  0  0  0  0  0
    5.9810    0.8330   18.8060 C   0  0  0  0  0  0  0  0  0  0  0  0
    9.2850   -3.7090   25.1090 C   0  0  0  0  0  0  0  0  0  0  0  0
    9.3300   -1.3350   23.6390 C   0  0  0  0  0  0  0  0  0  0  0  0
   13.6257    0.0764   24.3314 C   0  0  0  0  0  0  0  0  0  0  0  0
    7.2210   -0.4620   20.0350 C   0  0  0  0  0  0  0  0  0  0  0  0
    9.6836   -6.1684   25.4392 C   0  0  0  0  0  0  0  0  0  0  0  0
    8.9510    0.1280   21.6880 C   0  0  0  0  0  0  0  0  0  0  0  0
    8.0396   -7.2904   27.0025 C   0  0  0  0  0  0  0  0  0  0  0  0
   10.0220    1.0430   23.6570 C   0  0  0  0  0  0  0  0  0  0  0  0
    9.4856   -7.1873   26.5515 C   0  0  0  0  0  0  0  0  0  0  0  0
    7.6830   -0.5170   18.7600 N   0  0  0  0  0  0  0  0  0  0  0  0
    6.9440    0.2550   18.0100 N   0  0  0  0  0  0  0  0  0  0  0  0
    9.2630   -4.8902   25.8410 N   0  0  0  0  0  0  0  0  0  0  0  0
    8.0810   -0.9750   21.0820 N   0  0  0  0  0  0  0  0  0  0  0  0
    9.4200   -0.0840   22.9530 N   0  0  0  0  0  0  0  0  0  0  0  0
   10.1552   -6.4778   24.3500 O   0  0  0  0  0  0  0  0  0  0  0  0
    9.1870    1.1500   21.0630 O   0  0  0  0  0  0  0  0  0  0  0  0
   14.5031   -1.0334   25.3114 Cl  0  0  0  0  0  0  0  0  0  0  0  0
    3.6274    2.0126   21.6300 H   0  0  0  0  0  0  0  0  0  0  0  0
    3.2732    2.7875   19.3199 H   0  0  0  0  0  0  0  0  0  0  0  0
   14.1289    2.5226   22.0237 H   0  0  0  0  0  0  0  0  0  0  0  0
    5.4878    0.4645   22.1722 H   0  0  0  0  0  0  0  0  0  0  0  0
   11.6588    2.5818   22.1218 H   0  0  0  0  0  0  0  0  0  0  0  0
    4.7853    2.0674   17.4815 H   0  0  0  0  0  0  0  0  0  0  0  0
    7.5639   -2.8621   26.1045 H   0  0  0  0  0  0  0  0  0  0  0  0
   11.0141   -4.2644   23.9422 H   0  0  0  0  0  0  0  0  0  0  0  0
    7.5950   -0.7788   24.8007 H   0  0  0  0  0  0  0  0  0  0  0  0
   11.0408   -2.1861   22.6359 H   0  0  0  0  0  0  0  0  0  0  0  0
   15.3941    0.9323   23.4255 H   0  0  0  0  0  0  0  0  0  0  0  0
   11.6954   -0.5682   25.0504 H   0  0  0  0  0  0  0  0  0  0  0  0
    7.6717   -6.3257   27.3675 H   0  0  0  0  0  0  0  0  0  0  0  0
    7.9438   -8.0211   27.8114 H   0  0  0  0  0  0  0  0  0  0  0  0
    7.3921   -7.6062   26.1778 H   0  0  0  0  0  0  0  0  0  0  0  0
    9.6778    1.0140   24.6966 H   0  0  0  0  0  0  0  0  0  0  0  0
    9.6316    1.9637   23.2107 H   0  0  0  0  0  0  0  0  0  0  0  0
    9.8267   -8.1650   26.1921 H   0  0  0  0  0  0  0  0  0  0  0  0
   10.1142   -6.9000   27.4022 H   0  0  0  0  0  0  0  0  0  0  0  0
    7.1015    0.3608   17.0505 H   0  0  0  0  0  0  0  0  0  0  0  0
    8.8929   -4.8270   26.7966 H   0  0  0  0  0  0  0  0  0  0  0  0
    8.1177   -1.8091   21.3536 H   0  0  0  0  0  0  0  0  0  0  0  0
  1  2  1  0  0  0  0
  1  4  2  0  0  0  0
  2  6  2  0  0  0  0
  3  5  2  0  0  0  0
  3 11  1  0  0  0  0
  4 13  1  0  0  0  0
  5 14  1  0  0  0  0
  6 15  1  0  0  0  0
  7  9  2  0  0  0  0
  7 16  1  0  0  0  0
  8 10  1  0  0  0  0
  8 16  2  0  0  0  0
  9 17  1  0  0  0  0
 10 17  2  0  0  0  0
 11 18  2  0  0  0  0
 12 14  2  0  0  0  0
 12 18  1  0  0  0  0
 13 15  2  0  0  0  0
 13 19  1  0  0  0  0
 14 23  1  0  0  0  0
 15 26  1  0  0  0  0
 16 27  1  0  0  0  0
 17 29  1  0  0  0  0
 18 32  1  0  0  0  0
 19 25  2  0  0  0  0
 19 28  1  0  0  0  0
 20 24  1  0  0  0  0
 20 27  1  0  0  0  0
 20 30  2  0  0  0  0
 21 28  1  0  0  0  0
 21 29  1  0  0  0  0
 21 31  2  0  0  0  0
 22 24  1  0  0  0  0
 23 29  1  0  0  0  0
 25 26  1  0  0  0  0
  1 33  1  0  0  0  0
  2 34  1  0  0  0  0
  3 35  1  0  0  0  0
  4 36  1  0  0  0  0
  5 37  1  0  0  0  0
  6 38  1  0  0  0  0
  7 39  1  0  0  0  0
  8 40  1  0  0  0  0
  9 41  1  0  0  0  0
 10 42  1  0  0  0  0
 11 43  1  0  0  0  0
 12 44  1  0  0  0  0
 22 45  1  0  0  0  0
 22 46  1  0  0  0  0
 22 47  1  0  0  0  0
 23 48  1  0  0  0  0
 23 49  1  0  0  0  0
 24 50  1  0  0  0  0
 24 51  1  0  0  0  0
 26 52  1  0  0  0  0
 27 53  1  0  0  0  0
 28 54  1  0  0  0  0
M  END
> <clash_score>
2.0997102490666992

> <docking_score>
-3.7072904109954834

> <overlap_score>
0.9923568964004517

$$$$
BENZO_64_1
  -OEChem-08222022383D

 56 60  0     0  0  0  0  0  0999 V2000
    4.2970    1.6690   20.8430 C   0  0  0  0  0  0  0  0  0  0  0  0
    4.0980    2.1130   19.5350 C   0  0  0  0  0  0  0  0  0  0  0  0
    5.3360    0.8000   21.1530 C   0  0  0  0  0  0  0  0  0  0  0  0
    4.9400    1.7060   18.5060 C   0  0  0  0  0  0  0  0  0  0  0  0
    8.3310   -2.7170   25.3430 C   0  0  0  0  0  0  0  0  0  0  0  0
   10.2570   -3.5000   24.1350 C   0  0  0  0  0  0  0  0  0  0  0  0
    8.3510   -1.5420   24.6110 C   0  0  0  0  0  0  0  0  0  0  0  0
   10.2760   -2.3270   23.4020 C   0  0  0  0  0  0  0  0  0  0  0  0
   12.2675    1.0332   22.3812 C   0  0  0  0  0  0  0  0  0  0  0  0
   13.6257    0.9906   22.6074 C   0  0  0  0  0  0  0  0  0  0  0  0
   12.3384    0.9467   24.7028 C   0  0  0  0  0  0  0  0  0  0  0  0
    6.1600    0.3870   20.1140 C   0  0  0  0  0  0  0  0  0  0  0  0
   11.5217    1.0079   23.5949 C   0  0  0  0  0  0  0  0  0  0  0  0
    5.9810    0.8330   18.8060 C   0  0  0  0  0  0  0  0  0  0  0  0
    9.2850   -3.7090   25.1090 C   0  0  0  0  0  0  0  0  0  0  0  0
    9.3300   -1.3350   23.6390 C   0  0  0  0  0  0  0  0  0  0  0  0
    7.2210   -0.4620   20.0350 C   0  0  0  0  0  0  0  0  0  0  0  0
    8.9510    0.1280   21.6880 C   0  0  0  0  0  0  0  0  0  0  0  0
    7.3162   -6.8835   26.5210 C   0  0  0  0  0  0  0  0  0  0  0  0
    7.3507   -5.5245   27.2240 C   0  0  0  0  0  0  0  0  0  0  0  0
    7.9375   -6.8069   25.1245 C   0  0  0  0  0  0  0  0  0  0  0  0
    8.7638   -4.9418   27.2163 C   0  0  0  0  0  0  0  0  0  0  0  0
    9.3378   -6.1874   25.1659 C   0  0  0  0  0  0  0  0  0  0  0  0
   10.0220    1.0430   23.6570 C   0  0  0  0  0  0  0  0  0  0  0  0
    7.6830   -0.5170   18.7600 N   0  0  0  0  0  0  0  0  0  0  0  0
    6.9440    0.2550   18.0100 N   0  0  0  0  0  0  0  0  0  0  0  0
    9.2639   -4.8860   25.8399 N   0  0  0  0  0  0  0  0  0  0  0  0
    8.0810   -0.9750   21.0820 N   0  0  0  0  0  0  0  0  0  0  0  0
    9.4200   -0.0840   22.9530 N   0  0  0  0  0  0  0  0  0  0  0  0
    9.1870    1.1500   21.0630 O   0  0  0  0  0  0  0  0  0  0  0  0
   13.9969    0.9203   24.2776 S   0  0  0  0  0  0  0  0  0  0  0  0
    3.6274    2.0126   21.6300 H   0  0  0  0  0  0  0  0  0  0  0  0
    3.2732    2.7875   19.3199 H   0  0  0  0  0  0  0  0  0  0  0  0
    5.4878    0.4645   22.1722 H   0  0  0  0  0  0  0  0  0  0  0  0
    4.7853    2.0674   17.4815 H   0  0  0  0  0  0  0  0  0  0  0  0
    7.5647   -2.8621   26.1053 H   0  0  0  0  0  0  0  0  0  0  0  0
   11.0144   -4.2642   23.9425 H   0  0  0  0  0  0  0  0  0  0  0  0
    7.5958   -0.7779   24.8006 H   0  0  0  0  0  0  0  0  0  0  0  0
   11.0406   -2.1848   22.6356 H   0  0  0  0  0  0  0  0  0  0  0  0
   11.8338    1.0798   21.3902 H   0  0  0  0  0  0  0  0  0  0  0  0
   14.4176    0.9966   21.8719 H   0  0  0  0  0  0  0  0  0  0  0  0
   12.0446    0.9149   25.7428 H   0  0  0  0  0  0  0  0  0  0  0  0
    7.8578   -7.6261   27.1266 H   0  0  0  0  0  0  0  0  0  0  0  0
    6.2773   -7.2358   26.4459 H   0  0  0  0  0  0  0  0  0  0  0  0
    6.6663   -4.8351   26.7223 H   0  0  0  0  0  0  0  0  0  0  0  0
    7.0044   -5.6368   28.2534 H   0  0  0  0  0  0  0  0  0  0  0  0
    7.9946   -7.8119   24.6937 H   0  0  0  0  0  0  0  0  0  0  0  0
    7.2929   -6.2123   24.4668 H   0  0  0  0  0  0  0  0  0  0  0  0
    8.7343   -3.9408   27.6542 H   0  0  0  0  0  0  0  0  0  0  0  0
    9.4243   -5.5632   27.8278 H   0  0  0  0  0  0  0  0  0  0  0  0
   10.0200   -6.8490   25.7011 H   0  0  0  0  0  0  0  0  0  0  0  0
    9.6984   -6.0694   24.1436 H   0  0  0  0  0  0  0  0  0  0  0  0
    9.6778    1.0140   24.6966 H   0  0  0  0  0  0  0  0  0  0  0  0
    9.6316    1.9637   23.2107 H   0  0  0  0  0  0  0  0  0  0  0  0
    7.1015    0.3608   17.0505 H   0  0  0  0  0  0  0  0  0  0  0  0
    8.1334   -1.7992   21.3673 H   0  0  0  0  0  0  0  0  0  0  0  0
  1  2  1  0  0  0  0
  1  3  2  0  0  0  0
  2  4  2  0  0  0  0
  3 12  1  0  0  0  0
  4 14  1  0  0  0  0
  5  7  2  0  0  0  0
  5 15  1  0  0  0  0
  6  8  1  0  0  0  0
  6 15  2  0  0  0  0
  7 16  1  0  0  0  0
  8 16  2  0  0  0  0
  9 10  2  0  0  0  0
  9 13  1  0  0  0  0
 10 31  1  0  0  0  0
 11 13  2  0  0  0  0
 11 31  1  0  0  0  0
 12 14  2  0  0  0  0
 12 17  1  0  0  0  0
 13 24  1  0  0  0  0
 14 26  1  0  0  0  0
 15 27  1  0  0  0  0
 16 29  1  0  0  0  0
 17 25  2  0  0  0  0
 17 28  1  0  0  0  0
 18 28  1  0  0  0  0
 18 29  1  0  0  0  0
 18 30  2  0  0  0  0
 19 20  1  0  0  0  0
 19 21  1  0  0  0  0
 20 22  1  0  0  0  0
 21 23  1  0  0  0  0
 22 27  1  0  0  0  0
 23 27  1  0  0  0  0
 24 29  1  0  0  0  0
 25 26  1  0  0  0  0
  1 32  1  0  0  0  0
  2 33  1  0  0  0  0
  3 34  1  0  0  0  0
  4 35  1  0  0  0  0
  5 36  1  0  0  0  0
  6 37  1  0  0  0  0
  7 38  1  0  0  0  0
  8 39  1  0  0  0  0
  9 40  1  0  0  0  0
 10 41  1  0  0  0  0
 11 42  1  0  0  0  0
 19 43  1  0  0  0  0
 19 44  1  0  0  0  0
 20 45  1  0  0  0  0
 20 46  1  0  0  0  0
 21 47  1  0  0  0  0
 21 48  1  0  0  0  0
 22 49  1  0  0  0  0
 22 50  1  0  0  0  0
 23 51  1  0  0  0  0
 23 52  1  0  0  0  0
 24 53  1  0  0  0  0
 24 54  1  0  0  0  0
 26 55  1  0  0  0  0
 28 56  1  0  0  0  0
M  END
> <clash_score>
0

> <docking_score>
-7.004075050354004

> <overlap_score>
0.9899338483810425

$$$$
BENZO_69_1
  -OEChem-08222022383D

 47 50  0     0  0  0  0  0  0999 V2000
   14.3082    0.9431   23.4783 C   0  0  0  0  0  0  0  0  0  0  0  0
    4.2970    1.6690   20.8430 C   0  0  0  0  0  0  0  0  0  0  0  0
   13.6391    0.3091   24.5251 C   0  0  0  0  0  0  0  0  0  0  0  0
   13.5841    1.6096   22.4898 C   0  0  0  0  0  0  0  0  0  0  0  0
    4.0980    2.1130   19.5350 C   0  0  0  0  0  0  0  0  0  0  0  0
    5.3360    0.8000   21.1530 C   0  0  0  0  0  0  0  0  0  0  0  0
   12.2459    0.3415   24.5835 C   0  0  0  0  0  0  0  0  0  0  0  0
   12.1908    1.6420   22.5481 C   0  0  0  0  0  0  0  0  0  0  0  0
    8.3310   -2.7170   25.3430 C   0  0  0  0  0  0  0  0  0  0  0  0
   10.2570   -3.5000   24.1350 C   0  0  0  0  0  0  0  0  0  0  0  0
    4.9400    1.7060   18.5060 C   0  0  0  0  0  0  0  0  0  0  0  0
    8.3510   -1.5420   24.6110 C   0  0  0  0  0  0  0  0  0  0  0  0
   10.2760   -2.3270   23.4020 C   0  0  0  0  0  0  0  0  0  0  0  0
    6.1600    0.3870   20.1140 C   0  0  0  0  0  0  0  0  0  0  0  0
    9.2850   -3.7090   25.1090 C   0  0  0  0  0  0  0  0  0  0  0  0
   11.5217    1.0079   23.5949 C   0  0  0  0  0  0  0  0  0  0  0  0
    5.9810    0.8330   18.8060 C   0  0  0  0  0  0  0  0  0  0  0  0
    9.3300   -1.3350   23.6390 C   0  0  0  0  0  0  0  0  0  0  0  0
    7.2210   -0.4620   20.0350 C   0  0  0  0  0  0  0  0  0  0  0  0
    8.9510    0.1280   21.6880 C   0  0  0  0  0  0  0  0  0  0  0  0
    9.2610   -4.9721   25.8916 C   0  0  0  0  0  0  0  0  0  0  0  0
   10.0220    1.0430   23.6570 C   0  0  0  0  0  0  0  0  0  0  0  0
    7.6830   -0.5170   18.7600 N   0  0  0  0  0  0  0  0  0  0  0  0
    6.9440    0.2550   18.0100 N   0  0  0  0  0  0  0  0  0  0  0  0
    8.0810   -0.9750   21.0820 N   0  0  0  0  0  0  0  0  0  0  0  0
    9.4200   -0.0840   22.9530 N   0  0  0  0  0  0  0  0  0  0  0  0
    9.1870    1.1500   21.0630 O   0  0  0  0  0  0  0  0  0  0  0  0
   15.3932    0.9189   23.4337 H   0  0  0  0  0  0  0  0  0  0  0  0
    3.6274    2.0126   21.6300 H   0  0  0  0  0  0  0  0  0  0  0  0
   14.2029   -0.2090   25.2955 H   0  0  0  0  0  0  0  0  0  0  0  0
   14.1048    2.1043   21.6752 H   0  0  0  0  0  0  0  0  0  0  0  0
    3.2732    2.7875   19.3199 H   0  0  0  0  0  0  0  0  0  0  0  0
    5.4878    0.4645   22.1722 H   0  0  0  0  0  0  0  0  0  0  0  0
   11.7330   -0.1555   25.4027 H   0  0  0  0  0  0  0  0  0  0  0  0
   11.6349    2.1636   21.7735 H   0  0  0  0  0  0  0  0  0  0  0  0
    7.5665   -2.8638   26.1066 H   0  0  0  0  0  0  0  0  0  0  0  0
   11.0137   -4.2652   23.9447 H   0  0  0  0  0  0  0  0  0  0  0  0
    4.7853    2.0674   17.4815 H   0  0  0  0  0  0  0  0  0  0  0  0
    7.5948   -0.7788   24.7997 H   0  0  0  0  0  0  0  0  0  0  0  0
   11.0411   -2.1856   22.6358 H   0  0  0  0  0  0  0  0  0  0  0  0
    8.6398   -5.7223   25.3871 H   0  0  0  0  0  0  0  0  0  0  0  0
   10.2715   -5.3829   26.0145 H   0  0  0  0  0  0  0  0  0  0  0  0
    8.8596   -4.8092   26.9004 H   0  0  0  0  0  0  0  0  0  0  0  0
    9.6778    1.0140   24.6966 H   0  0  0  0  0  0  0  0  0  0  0  0
    9.6316    1.9637   23.2107 H   0  0  0  0  0  0  0  0  0  0  0  0
    7.1015    0.3608   17.0505 H   0  0  0  0  0  0  0  0  0  0  0  0
    8.1177   -1.8091   21.3536 H   0  0  0  0  0  0  0  0  0  0  0  0
  1  3  1  0  0  0  0
  1  4  2  0  0  0  0
  2  5  1  0  0  0  0
  2  6  2  0  0  0  0
  3  7  2  0  0  0  0
  4  8  1  0  0  0  0
  5 11  2  0  0  0  0
  6 14  1  0  0  0  0
  7 16  1  0  0  0  0
  8 16  2  0  0  0  0
  9 12  2  0  0  0  0
  9 15  1  0  0  0  0
 10 13  1  0  0  0  0
 10 15  2  0  0  0  0
 11 17  1  0  0  0  0
 12 18  1  0  0  0  0
 13 18  2  0  0  0  0
 14 17  2  0  0  0  0
 14 19  1  0  0  0  0
 15 21  1  0  0  0  0
 16 22  1  0  0  0  0
 17 24  1  0  0  0  0
 18 26  1  0  0  0  0
 19 23  2  0  0  0  0
 19 25  1  0  0  0  0
 20 25  1  0  0  0  0
 20 26  1  0  0  0  0
 20 27  2  0  0  0  0
 22 26  1  0  0  0  0
 23 24  1  0  0  0  0
  1 28  1  0  0  0  0
  2 29  1  0  0  0  0
  3 30  1  0  0  0  0
  4 31  1  0  0  0  0
  5 32  1  0  0  0  0
  6 33  1  0  0  0  0
  7 34  1  0  0  0  0
  8 35  1  0  0  0  0
  9 36  1  0  0  0  0
 10 37  1  0  0  0  0
 11 38  1  0  0  0  0
 12 39  1  0  0  0  0
 13 40  1  0  0  0  0
 21 41  1  0  0  0  0
 21 42  1  0  0  0  0
 21 43  1  0  0  0  0
 22 44  1  0  0  0  0
 22 45  1  0  0  0  0
 24 46  1  0  0  0  0
 25 47  1  0  0  0  0
M  END
> <clash_score>
0

> <docking_score>
-7.715532302856445

> <overlap_score>
0.9717716574668884

$$$$
BENZO_68_1
  -OEChem-08222022383D

 44 47  0     0  0  0  0  0  0999 V2000
    4.2970    1.6690   20.8430 C   0  0  0  0  0  0  0  0  0  0  0  0
    4.0980    2.1130   19.5350 C   0  0  0  0  0  0  0  0  0  0  0  0
    5.3360    0.8000   21.1530 C   0  0  0  0  0  0  0  0  0  0  0  0
    8.3310   -2.7170   25.3430 C   0  0  0  0  0  0  0  0  0  0  0  0
   10.2570   -3.5000   24.1350 C   0  0  0  0  0  0  0  0  0  0  0  0
    4.9400    1.7060   18.5060 C   0  0  0  0  0  0  0  0  0  0  0  0
    8.3510   -1.5420   24.6110 C   0  0  0  0  0  0  0  0  0  0  0  0
   10.2760   -2.3270   23.4020 C   0  0  0  0  0  0  0  0  0  0  0  0
   12.2675    1.0332   22.3812 C   0  0  0  0  0  0  0  0  0  0  0  0
   13.6257    0.9906   22.6074 C   0  0  0  0  0  0  0  0  0  0  0  0
   12.3384    0.9467   24.7028 C   0  0  0  0  0  0  0  0  0  0  0  0
    6.1600    0.3870   20.1140 C   0  0  0  0  0  0  0  0  0  0  0  0
    9.2850   -3.7090   25.1090 C   0  0  0  0  0  0  0  0  0  0  0  0
   11.5217    1.0079   23.5949 C   0  0  0  0  0  0  0  0  0  0  0  0
    5.9810    0.8330   18.8060 C   0  0  0  0  0  0  0  0  0  0  0  0
    9.3300   -1.3350   23.6390 C   0  0  0  0  0  0  0  0  0  0  0  0
    7.2210   -0.4620   20.0350 C   0  0  0  0  0  0  0  0  0  0  0  0
    8.9510    0.1280   21.6880 C   0  0  0  0  0  0  0  0  0  0  0  0
    9.2610   -4.9721   25.8916 C   0  0  0  0  0  0  0  0  0  0  0  0
   10.0220    1.0430   23.6570 C   0  0  0  0  0  0  0  0  0  0  0  0
    7.6830   -0.5170   18.7600 N   0  0  0  0  0  0  0  0  0  0  0  0
    6.9440    0.2550   18.0100 N   0  0  0  0  0  0  0  0  0  0  0  0
    8.0810   -0.9750   21.0820 N   0  0  0  0  0  0  0  0  0  0  0  0
    9.4200   -0.0840   22.9530 N   0  0  0  0  0  0  0  0  0  0  0  0
    9.1870    1.1500   21.0630 O   0  0  0  0  0  0  0  0  0  0  0  0
   13.9969    0.9203   24.2776 S   0  0  0  0  0  0  0  0  0  0  0  0
    3.6274    2.0126   21.6300 H   0  0  0  0  0  0  0  0  0  0  0  0
    3.2732    2.7875   19.3199 H   0  0  0  0  0  0  0  0  0  0  0  0
    5.4878    0.4645   22.1722 H   0  0  0  0  0  0  0  0  0  0  0  0
    7.5665   -2.8638   26.1066 H   0  0  0  0  0  0  0  0  0  0  0  0
   11.0137   -4.2652   23.9447 H   0  0  0  0  0  0  0  0  0  0  0  0
    4.7853    2.0674   17.4815 H   0  0  0  0  0  0  0  0  0  0  0  0
    7.5948   -0.7788   24.7997 H   0  0  0  0  0  0  0  0  0  0  0  0
   11.0411   -2.1856   22.6358 H   0  0  0  0  0  0  0  0  0  0  0  0
   11.8338    1.0798   21.3902 H   0  0  0  0  0  0  0  0  0  0  0  0
   14.4176    0.9966   21.8719 H   0  0  0  0  0  0  0  0  0  0  0  0
   12.0446    0.9149   25.7428 H   0  0  0  0  0  0  0  0  0  0  0  0
    8.6398   -5.7223   25.3871 H   0  0  0  0  0  0  0  0  0  0  0  0
   10.2715   -5.3829   26.0145 H   0  0  0  0  0  0  0  0  0  0  0  0
    8.8596   -4.8092   26.9004 H   0  0  0  0  0  0  0  0  0  0  0  0
    9.6778    1.0140   24.6966 H   0  0  0  0  0  0  0  0  0  0  0  0
    9.6316    1.9637   23.2107 H   0  0  0  0  0  0  0  0  0  0  0  0
    7.1015    0.3608   17.0505 H   0  0  0  0  0  0  0  0  0  0  0  0
    8.1177   -1.8091   21.3536 H   0  0  0  0  0  0  0  0  0  0  0  0
  1  2  1  0  0  0  0
  1  3  2  0  0  0  0
  2  6  2  0  0  0  0
  3 12  1  0  0  0  0
  4  7  2  0  0  0  0
  4 13  1  0  0  0  0
  5  8  1  0  0  0  0
  5 13  2  0  0  0  0
  6 15  1  0  0  0  0
  7 16  1  0  0  0  0
  8 16  2  0  0  0  0
  9 10  2  0  0  0  0
  9 14  1  0  0  0  0
 10 26  1  0  0  0  0
 11 14  2  0  0  0  0
 11 26  1  0  0  0  0
 12 15  2  0  0  0  0
 12 17  1  0  0  0  0
 13 19  1  0  0  0  0
 14 20  1  0  0  0  0
 15 22  1  0  0  0  0
 16 24  1  0  0  0  0
 17 21  2  0  0  0  0
 17 23  1  0  0  0  0
 18 23  1  0  0  0  0
 18 24  1  0  0  0  0
 18 25  2  0  0  0  0
 20 24  1  0  0  0  0
 21 22  1  0  0  0  0
  1 27  1  0  0  0  0
  2 28  1  0  0  0  0
  3 29  1  0  0  0  0
  4 30  1  0  0  0  0
  5 31  1  0  0  0  0
  6 32  1  0  0  0  0
  7 33  1  0  0  0  0
  8 34  1  0  0  0  0
  9 35  1  0  0  0  0
 10 36  1  0  0  0  0
 11 37  1  0  0  0  0
 19 38  1  0  0  0  0
 19 39  1  0  0  0  0
 19 40  1  0  0  0  0
 20 41  1  0  0  0  0
 20 42  1  0  0  0  0
 22 43  1  0  0  0  0
 23 44  1  0  0  0  0
M  END
> <clash_score>
0

> <docking_score>
-7.961739540100098

> <overlap_score>
0.9457805156707764

$$$$
BENZO_67_1
  -OEChem-08222022383D

 59 63  0     0  0  0  0  0  0999 V2000
    4.2970    1.6690   20.8430 C   0  0  0  0  0  0  0  0  0  0  0  0
    4.0980    2.1130   19.5350 C   0  0  0  0  0  0  0  0  0  0  0  0
    5.3360    0.8000   21.1530 C   0  0  0  0  0  0  0  0  0  0  0  0
    4.9400    1.7060   18.5060 C   0  0  0  0  0  0  0  0  0  0  0  0
    8.3310   -2.7170   25.3430 C   0  0  0  0  0  0  0  0  0  0  0  0
   10.2570   -3.5000   24.1350 C   0  0  0  0  0  0  0  0  0  0  0  0
    8.3510   -1.5420   24.6110 C   0  0  0  0  0  0  0  0  0  0  0  0
   10.2760   -2.3270   23.4020 C   0  0  0  0  0  0  0  0  0  0  0  0
   12.4358    1.7439   24.3724 C   0  0  0  0  0  0  0  0  0  0  0  0
   12.3100    0.2469   22.7668 C   0  0  0  0  0  0  0  0  0  0  0  0
    6.1600    0.3870   20.1140 C   0  0  0  0  0  0  0  0  0  0  0  0
   11.5217    1.0079   23.5949 C   0  0  0  0  0  0  0  0  0  0  0  0
    5.9810    0.8330   18.8060 C   0  0  0  0  0  0  0  0  0  0  0  0
    9.2850   -3.7090   25.1090 C   0  0  0  0  0  0  0  0  0  0  0  0
    9.3300   -1.3350   23.6390 C   0  0  0  0  0  0  0  0  0  0  0  0
    7.2210   -0.4620   20.0350 C   0  0  0  0  0  0  0  0  0  0  0  0
    8.9510    0.1280   21.6880 C   0  0  0  0  0  0  0  0  0  0  0  0
    7.3162   -6.8835   26.5210 C   0  0  0  0  0  0  0  0  0  0  0  0
    7.3507   -5.5245   27.2240 C   0  0  0  0  0  0  0  0  0  0  0  0
    7.9375   -6.8069   25.1245 C   0  0  0  0  0  0  0  0  0  0  0  0
    8.7638   -4.9418   27.2163 C   0  0  0  0  0  0  0  0  0  0  0  0
    9.3378   -6.1874   25.1659 C   0  0  0  0  0  0  0  0  0  0  0  0
   14.7884    0.0124   22.4815 C   0  0  0  0  0  0  0  0  0  0  0  0
   10.0220    1.0430   23.6570 C   0  0  0  0  0  0  0  0  0  0  0  0
   13.7076    1.4745   24.0657 N   0  0  0  0  0  0  0  0  0  0  0  0
    7.6830   -0.5170   18.7600 N   0  0  0  0  0  0  0  0  0  0  0  0
    6.9440    0.2550   18.0100 N   0  0  0  0  0  0  0  0  0  0  0  0
   13.5982    0.5607   23.0864 N   0  0  0  0  0  0  0  0  0  0  0  0
    9.2639   -4.8860   25.8399 N   0  0  0  0  0  0  0  0  0  0  0  0
    8.0810   -0.9750   21.0820 N   0  0  0  0  0  0  0  0  0  0  0  0
    9.4200   -0.0840   22.9530 N   0  0  0  0  0  0  0  0  0  0  0  0
    9.1870    1.1500   21.0630 O   0  0  0  0  0  0  0  0  0  0  0  0
    3.6274    2.0126   21.6300 H   0  0  0  0  0  0  0  0  0  0  0  0
    3.2732    2.7875   19.3199 H   0  0  0  0  0  0  0  0  0  0  0  0
    5.4878    0.4645   22.1722 H   0  0  0  0  0  0  0  0  0  0  0  0
    4.7853    2.0674   17.4815 H   0  0  0  0  0  0  0  0  0  0  0  0
    7.5647   -2.8621   26.1053 H   0  0  0  0  0  0  0  0  0  0  0  0
   11.0144   -4.2642   23.9425 H   0  0  0  0  0  0  0  0  0  0  0  0
    7.5958   -0.7779   24.8006 H   0  0  0  0  0  0  0  0  0  0  0  0
   11.0406   -2.1848   22.6356 H   0  0  0  0  0  0  0  0  0  0  0  0
   12.2308    2.4652   25.1508 H   0  0  0  0  0  0  0  0  0  0  0  0
   12.0700   -0.4744   21.9974 H   0  0  0  0  0  0  0  0  0  0  0  0
    7.8578   -7.6261   27.1266 H   0  0  0  0  0  0  0  0  0  0  0  0
    6.2773   -7.2358   26.4459 H   0  0  0  0  0  0  0  0  0  0  0  0
    6.6663   -4.8351   26.7223 H   0  0  0  0  0  0  0  0  0  0  0  0
    7.0044   -5.6368   28.2534 H   0  0  0  0  0  0  0  0  0  0  0  0
    7.9946   -7.8119   24.6937 H   0  0  0  0  0  0  0  0  0  0  0  0
    7.2929   -6.2123   24.4668 H   0  0  0  0  0  0  0  0  0  0  0  0
    8.7343   -3.9408   27.6542 H   0  0  0  0  0  0  0  0  0  0  0  0
    9.4243   -5.5632   27.8278 H   0  0  0  0  0  0  0  0  0  0  0  0
   10.0200   -6.8490   25.7011 H   0  0  0  0  0  0  0  0  0  0  0  0
    9.6984   -6.0694   24.1436 H   0  0  0  0  0  0  0  0  0  0  0  0
   15.0569    0.6453   21.6315 H   0  0  0  0  0  0  0  0  0  0  0  0
   15.5971   -0.0026   23.2174 H   0  0  0  0  0  0  0  0  0  0  0  0
   14.5870   -1.0100   22.1498 H   0  0  0  0  0  0  0  0  0  0  0  0
    9.6778    1.0140   24.6966 H   0  0  0  0  0  0  0  0  0  0  0  0
    9.6316    1.9637   23.2107 H   0  0  0  0  0  0  0  0  0  0  0  0
    7.1015    0.3608   17.0505 H   0  0  0  0  0  0  0  0  0  0  0  0
    8.1334   -1.7992   21.3673 H   0  0  0  0  0  0  0  0  0  0  0  0
  1  2  1  0  0  0  0
  1  3  2  0  0  0  0
  2  4  2  0  0  0  0
  3 11  1  0  0  0  0
  4 13  1  0  0  0  0
  5  7  2  0  0  0  0
  5 14  1  0  0  0  0
  6  8  1  0  0  0  0
  6 14  2  0  0  0  0
  7 15  1  0  0  0  0
  8 15  2  0  0  0  0
  9 12  1  0  0  0  0
  9 25  2  0  0  0  0
 10 12  2  0  0  0  0
 10 28  1  0  0  0  0
 11 13  2  0  0  0  0
 11 16  1  0  0  0  0
 12 24  1  0  0  0  0
 13 27  1  0  0  0  0
 14 29  1  0  0  0  0
 15 31  1  0  0  0  0
 16 26  2  0  0  0  0
 16 30  1  0  0  0  0
 17 30  1  0  0  0  0
 17 31  1  0  0  0  0
 17 32  2  0  0  0  0
 18 19  1  0  0  0  0
 18 20  1  0  0  0  0
 19 21  1  0  0  0  0
 20 22  1  0  0  0  0
 21 29  1  0  0  0  0
 22 29  1  0  0  0  0
 23 28  1  0  0  0  0
 24 31  1  0  0  0  0
 25 28  1  0  0  0  0
 26 27  1  0  0  0  0
  1 33  1  0  0  0  0
  2 34  1  0  0  0  0
  3 35  1  0  0  0  0
  4 36  1  0  0  0  0
  5 37  1  0  0  0  0
  6 38  1  0  0  0  0
  7 39  1  0  0  0  0
  8 40  1  0  0  0  0
  9 41  1  0  0  0  0
 10 42  1  0  0  0  0
 18 43  1  0  0  0  0
 18 44  1  0  0  0  0
 19 45  1  0  0  0  0
 19 46  1  0  0  0  0
 20 47  1  0  0  0  0
 20 48  1  0  0  0  0
 21 49  1  0  0  0  0
 21 50  1  0  0  0  0
 22 51  1  0  0  0  0
 22 52  1  0  0  0  0
 23 53  1  0  0  0  0
 23 54  1  0  0  0  0
 23 55  1  0  0  0  0
 24 56  1  0  0  0  0
 24 57  1  0  0  0  0
 27 58  1  0  0  0  0
 30 59  1  0  0  0  0
M  END
> <clash_score>
0

> <docking_score>
-6.972476005554199

> <overlap_score>
1.0017565488815308

$$$$
BENZO_66_1
  -OEChem-08222022383D

 59 63  0     0  0  0  0  0  0999 V2000
    4.2970    1.6690   20.8430 C   0  0  0  0  0  0  0  0  0  0  0  0
    4.0980    2.1130   19.5350 C   0  0  0  0  0  0  0  0  0  0  0  0
   13.5977    1.8457   22.6865 C   0  0  0  0  0  0  0  0  0  0  0  0
    5.3360    0.8000   21.1530 C   0  0  0  0  0  0  0  0  0  0  0  0
   12.2044    1.8769   22.7438 C   0  0  0  0  0  0  0  0  0  0  0  0
    4.9400    1.7060   18.5060 C   0  0  0  0  0  0  0  0  0  0  0  0
    8.3310   -2.7170   25.3430 C   0  0  0  0  0  0  0  0  0  0  0  0
   10.2570   -3.5000   24.1350 C   0  0  0  0  0  0  0  0  0  0  0  0
    8.3510   -1.5420   24.6110 C   0  0  0  0  0  0  0  0  0  0  0  0
   10.2760   -2.3270   23.4020 C   0  0  0  0  0  0  0  0  0  0  0  0
   14.3084    0.9454   23.4803 C   0  0  0  0  0  0  0  0  0  0  0  0
   12.2323    0.1076   24.3888 C   0  0  0  0  0  0  0  0  0  0  0  0
    6.1600    0.3870   20.1140 C   0  0  0  0  0  0  0  0  0  0  0  0
   11.5217    1.0079   23.5949 C   0  0  0  0  0  0  0  0  0  0  0  0
    5.9810    0.8330   18.8060 C   0  0  0  0  0  0  0  0  0  0  0  0
    9.2850   -3.7090   25.1090 C   0  0  0  0  0  0  0  0  0  0  0  0
    9.3300   -1.3350   23.6390 C   0  0  0  0  0  0  0  0  0  0  0  0
   13.6257    0.0764   24.3314 C   0  0  0  0  0  0  0  0  0  0  0  0
    7.2210   -0.4620   20.0350 C   0  0  0  0  0  0  0  0  0  0  0  0
    8.9510    0.1280   21.6880 C   0  0  0  0  0  0  0  0  0  0  0  0
    7.3162   -6.8835   26.5210 C   0  0  0  0  0  0  0  0  0  0  0  0
    7.3507   -5.5245   27.2240 C   0  0  0  0  0  0  0  0  0  0  0  0
    7.9375   -6.8069   25.1245 C   0  0  0  0  0  0  0  0  0  0  0  0
    8.7638   -4.9418   27.2163 C   0  0  0  0  0  0  0  0  0  0  0  0
    9.3378   -6.1874   25.1659 C   0  0  0  0  0  0  0  0  0  0  0  0
   10.0220    1.0430   23.6570 C   0  0  0  0  0  0  0  0  0  0  0  0
    7.6830   -0.5170   18.7600 N   0  0  0  0  0  0  0  0  0  0  0  0
    6.9440    0.2550   18.0100 N   0  0  0  0  0  0  0  0  0  0  0  0
    9.2639   -4.8860   25.8399 N   0  0  0  0  0  0  0  0  0  0  0  0
    8.0810   -0.9750   21.0820 N   0  0  0  0  0  0  0  0  0  0  0  0
    9.4200   -0.0840   22.9530 N   0  0  0  0  0  0  0  0  0  0  0  0
    9.1870    1.1500   21.0630 O   0  0  0  0  0  0  0  0  0  0  0  0
   14.5031   -1.0334   25.3114 Cl  0  0  0  0  0  0  0  0  0  0  0  0
    3.6274    2.0126   21.6300 H   0  0  0  0  0  0  0  0  0  0  0  0
    3.2732    2.7875   19.3199 H   0  0  0  0  0  0  0  0  0  0  0  0
   14.1289    2.5227   22.0237 H   0  0  0  0  0  0  0  0  0  0  0  0
    5.4878    0.4645   22.1722 H   0  0  0  0  0  0  0  0  0  0  0  0
   11.6588    2.5818   22.1218 H   0  0  0  0  0  0  0  0  0  0  0  0
    4.7853    2.0674   17.4815 H   0  0  0  0  0  0  0  0  0  0  0  0
    7.5647   -2.8621   26.1053 H   0  0  0  0  0  0  0  0  0  0  0  0
   11.0144   -4.2642   23.9425 H   0  0  0  0  0  0  0  0  0  0  0  0
    7.5958   -0.7779   24.8006 H   0  0  0  0  0  0  0  0  0  0  0  0
   11.0406   -2.1848   22.6356 H   0  0  0  0  0  0  0  0  0  0  0  0
   15.3941    0.9323   23.4255 H   0  0  0  0  0  0  0  0  0  0  0  0
   11.6954   -0.5682   25.0504 H   0  0  0  0  0  0  0  0  0  0  0  0
    7.8578   -7.6261   27.1266 H   0  0  0  0  0  0  0  0  0  0  0  0
    6.2773   -7.2358   26.4459 H   0  0  0  0  0  0  0  0  0  0  0  0
    6.6663   -4.8351   26.7223 H   0  0  0  0  0  0  0  0  0  0  0  0
    7.0044   -5.6368   28.2534 H   0  0  0  0  0  0  0  0  0  0  0  0
    7.9946   -7.8119   24.6937 H   0  0  0  0  0  0  0  0  0  0  0  0
    7.2929   -6.2123   24.4668 H   0  0  0  0  0  0  0  0  0  0  0  0
    8.7343   -3.9408   27.6542 H   0  0  0  0  0  0  0  0  0  0  0  0
    9.4243   -5.5632   27.8278 H   0  0  0  0  0  0  0  0  0  0  0  0
   10.0200   -6.8490   25.7011 H   0  0  0  0  0  0  0  0  0  0  0  0
    9.6984   -6.0694   24.1436 H   0  0  0  0  0  0  0  0  0  0  0  0
    9.6778    1.0140   24.6966 H   0  0  0  0  0  0  0  0  0  0  0  0
    9.6316    1.9637   23.2107 H   0  0  0  0  0  0  0  0  0  0  0  0
    7.1015    0.3608   17.0505 H   0  0  0  0  0  0  0  0  0  0  0  0
    8.1334   -1.7992   21.3673 H   0  0  0  0  0  0  0  0  0  0  0  0
  1  2  1  0  0  0  0
  1  4  2  0  0  0  0
  2  6  2  0  0  0  0
  3  5  2  0  0  0  0
  3 11  1  0  0  0  0
  4 13  1  0  0  0  0
  5 14  1  0  0  0  0
  6 15  1  0  0  0  0
  7  9  2  0  0  0  0
  7 16  1  0  0  0  0
  8 10  1  0  0  0  0
  8 16  2  0  0  0  0
  9 17  1  0  0  0  0
 10 17  2  0  0  0  0
 11 18  2  0  0  0  0
 12 14  2  0  0  0  0
 12 18  1  0  0  0  0
 13 15  2  0  0  0  0
 13 19  1  0  0  0  0
 14 26  1  0  0  0  0
 15 28  1  0  0  0  0
 16 29  1  0  0  0  0
 17 31  1  0  0  0  0
 18 33  1  0  0  0  0
 19 27  2  0  0  0  0
 19 30  1  0  0  0  0
 20 30  1  0  0  0  0
 20 31  1  0  0  0  0
 20 32  2  0  0  0  0
 21 22  1  0  0  0  0
 21 23  1  0  0  0  0
 22 24  1  0  0  0  0
 23 25  1  0  0  0  0
 24 29  1  0  0  0  0
 25 29  1  0  0  0  0
 26 31  1  0  0  0  0
 27 28  1  0  0  0  0
  1 34  1  0  0  0  0
  2 35  1  0  0  0  0
  3 36  1  0  0  0  0
  4 37  1  0  0  0  0
  5 38  1  0  0  0  0
  6 39  1  0  0  0  0
  7 40  1  0  0  0  0
  8 41  1  0  0  0  0
  9 42  1  0  0  0  0
 10 43  1  0  0  0  0
 11 44  1  0  0  0  0
 12 45  1  0  0  0  0
 21 46  1  0  0  0  0
 21 47  1  0  0  0  0
 22 48  1  0  0  0  0
 22 49  1  0  0  0  0
 23 50  1  0  0  0  0
 23 51  1  0  0  0  0
 24 52  1  0  0  0  0
 24 53  1  0  0  0  0
 25 54  1  0  0  0  0
 25 55  1  0  0  0  0
 26 56  1  0  0  0  0
 26 57  1  0  0  0  0
 28 58  1  0  0  0  0
 30 59  1  0  0  0  0
M  END
> <clash_score>
0.7662442630976259

> <docking_score>
-5.9397687911987305

> <overlap_score>
1.0207407474517822

$$$$
BENZO_71_1
  -OEChem-08222022383D

 47 50  0     0  0  0  0  0  0999 V2000
    4.2970    1.6690   20.8430 C   0  0  0  0  0  0  0  0  0  0  0  0
    4.0980    2.1130   19.5350 C   0  0  0  0  0  0  0  0  0  0  0  0
    5.3360    0.8000   21.1530 C   0  0  0  0  0  0  0  0  0  0  0  0
    8.3310   -2.7170   25.3430 C   0  0  0  0  0  0  0  0  0  0  0  0
   10.2570   -3.5000   24.1350 C   0  0  0  0  0  0  0  0  0  0  0  0
    4.9400    1.7060   18.5060 C   0  0  0  0  0  0  0  0  0  0  0  0
    8.3510   -1.5420   24.6110 C   0  0  0  0  0  0  0  0  0  0  0  0
   10.2760   -2.3270   23.4020 C   0  0  0  0  0  0  0  0  0  0  0  0
   12.4295    0.9466   24.6692 C   0  0  0  0  0  0  0  0  0  0  0  0
   12.3161    1.0259   22.4747 C   0  0  0  0  0  0  0  0  0  0  0  0
    6.1600    0.3870   20.1140 C   0  0  0  0  0  0  0  0  0  0  0  0
    9.2850   -3.7090   25.1090 C   0  0  0  0  0  0  0  0  0  0  0  0
   11.5217    1.0079   23.5949 C   0  0  0  0  0  0  0  0  0  0  0  0
    5.9810    0.8330   18.8060 C   0  0  0  0  0  0  0  0  0  0  0  0
    9.3300   -1.3350   23.6390 C   0  0  0  0  0  0  0  0  0  0  0  0
    7.2210   -0.4620   20.0350 C   0  0  0  0  0  0  0  0  0  0  0  0
    8.9510    0.1280   21.6880 C   0  0  0  0  0  0  0  0  0  0  0  0
    9.2610   -4.9721   25.8916 C   0  0  0  0  0  0  0  0  0  0  0  0
   14.7958    0.9722   22.1181 C   0  0  0  0  0  0  0  0  0  0  0  0
   10.0220    1.0430   23.6570 C   0  0  0  0  0  0  0  0  0  0  0  0
   13.7032    0.9267   24.2674 N   0  0  0  0  0  0  0  0  0  0  0  0
    7.6830   -0.5170   18.7600 N   0  0  0  0  0  0  0  0  0  0  0  0
    6.9440    0.2550   18.0100 N   0  0  0  0  0  0  0  0  0  0  0  0
   13.6014    0.9758   22.9283 N   0  0  0  0  0  0  0  0  0  0  0  0
    8.0810   -0.9750   21.0820 N   0  0  0  0  0  0  0  0  0  0  0  0
    9.4200   -0.0840   22.9530 N   0  0  0  0  0  0  0  0  0  0  0  0
    9.1870    1.1500   21.0630 O   0  0  0  0  0  0  0  0  0  0  0  0
    3.6274    2.0126   21.6300 H   0  0  0  0  0  0  0  0  0  0  0  0
    3.2732    2.7875   19.3199 H   0  0  0  0  0  0  0  0  0  0  0  0
    5.4878    0.4645   22.1722 H   0  0  0  0  0  0  0  0  0  0  0  0
    7.5665   -2.8638   26.1066 H   0  0  0  0  0  0  0  0  0  0  0  0
   11.0137   -4.2652   23.9447 H   0  0  0  0  0  0  0  0  0  0  0  0
    4.7853    2.0674   17.4815 H   0  0  0  0  0  0  0  0  0  0  0  0
    7.5948   -0.7788   24.7997 H   0  0  0  0  0  0  0  0  0  0  0  0
   11.0411   -2.1856   22.6358 H   0  0  0  0  0  0  0  0  0  0  0  0
   12.2184    0.9145   25.7287 H   0  0  0  0  0  0  0  0  0  0  0  0
   12.0821    1.0677   21.4195 H   0  0  0  0  0  0  0  0  0  0  0  0
    8.6398   -5.7223   25.3871 H   0  0  0  0  0  0  0  0  0  0  0  0
   10.2715   -5.3829   26.0145 H   0  0  0  0  0  0  0  0  0  0  0  0
    8.8596   -4.8092   26.9004 H   0  0  0  0  0  0  0  0  0  0  0  0
   15.1026    2.0102   21.9649 H   0  0  0  0  0  0  0  0  0  0  0  0
   15.5826    0.4128   22.6318 H   0  0  0  0  0  0  0  0  0  0  0  0
   14.5811    0.4905   21.1600 H   0  0  0  0  0  0  0  0  0  0  0  0
    9.6778    1.0140   24.6966 H   0  0  0  0  0  0  0  0  0  0  0  0
    9.6316    1.9637   23.2107 H   0  0  0  0  0  0  0  0  0  0  0  0
    7.1015    0.3608   17.0505 H   0  0  0  0  0  0  0  0  0  0  0  0
    8.1177   -1.8091   21.3536 H   0  0  0  0  0  0  0  0  0  0  0  0
  1  2  1  0  0  0  0
  1  3  2  0  0  0  0
  2  6  2  0  0  0  0
  3 11  1  0  0  0  0
  4  7  2  0  0  0  0
  4 12  1  0  0  0  0
  5  8  1  0  0  0  0
  5 12  2  0  0  0  0
  6 14  1  0  0  0  0
  7 15  1  0  0  0  0
  8 15  2  0  0  0  0
  9 13  1  0  0  0  0
  9 21  2  0  0  0  0
 10 13  2  0  0  0  0
 10 24  1  0  0  0  0
 11 14  2  0  0  0  0
 11 16  1  0  0  0  0
 12 18  1  0  0  0  0
 13 20  1  0  0  0  0
 14 23  1  0  0  0  0
 15 26  1  0  0  0  0
 16 22  2  0  0  0  0
 16 25  1  0  0  0  0
 17 25  1  0  0  0  0
 17 26  1  0  0  0  0
 17 27  2  0  0  0  0
 19 24  1  0  0  0  0
 20 26  1  0  0  0  0
 21 24  1  0  0  0  0
 22 23  1  0  0  0  0
  1 28  1  0  0  0  0
  2 29  1  0  0  0  0
  3 30  1  0  0  0  0
  4 31  1  0  0  0  0
  5 32  1  0  0  0  0
  6 33  1  0  0  0  0
  7 34  1  0  0  0  0
  8 35  1  0  0  0  0
  9 36  1  0  0  0  0
 10 37  1  0  0  0  0
 18 38  1  0  0  0  0
 18 39  1  0  0  0  0
 18 40  1  0  0  0  0
 19 41  1  0  0  0  0
 19 42  1  0  0  0  0
 19 43  1  0  0  0  0
 20 44  1  0  0  0  0
 20 45  1  0  0  0  0
 23 46  1  0  0  0  0
 25 47  1  0  0  0  0
M  END
> <clash_score>
0

> <docking_score>
-7.657580852508545

> <overlap_score>
0.962556004524231

$$$$
BENZO_70_1
  -OEChem-08222022383D

 47 50  0     0  0  0  0  0  0999 V2000
    4.2970    1.6690   20.8430 C   0  0  0  0  0  0  0  0  0  0  0  0
    4.0980    2.1130   19.5350 C   0  0  0  0  0  0  0  0  0  0  0  0
   13.5977    1.8457   22.6865 C   0  0  0  0  0  0  0  0  0  0  0  0
    5.3360    0.8000   21.1530 C   0  0  0  0  0  0  0  0  0  0  0  0
   12.2044    1.8769   22.7438 C   0  0  0  0  0  0  0  0  0  0  0  0
    8.3310   -2.7170   25.3430 C   0  0  0  0  0  0  0  0  0  0  0  0
   10.2570   -3.5000   24.1350 C   0  0  0  0  0  0  0  0  0  0  0  0
    4.9400    1.7060   18.5060 C   0  0  0  0  0  0  0  0  0  0  0  0
    8.3510   -1.5420   24.6110 C   0  0  0  0  0  0  0  0  0  0  0  0
   10.2760   -2.3270   23.4020 C   0  0  0  0  0  0  0  0  0  0  0  0
   14.3084    0.9453   23.4803 C   0  0  0  0  0  0  0  0  0  0  0  0
   12.2323    0.1076   24.3888 C   0  0  0  0  0  0  0  0  0  0  0  0
    6.1600    0.3870   20.1140 C   0  0  0  0  0  0  0  0  0  0  0  0
    9.2850   -3.7090   25.1090 C   0  0  0  0  0  0  0  0  0  0  0  0
   11.5217    1.0079   23.5949 C   0  0  0  0  0  0  0  0  0  0  0  0
    5.9810    0.8330   18.8060 C   0  0  0  0  0  0  0  0  0  0  0  0
    9.3300   -1.3350   23.6390 C   0  0  0  0  0  0  0  0  0  0  0  0
   13.6257    0.0764   24.3314 C   0  0  0  0  0  0  0  0  0  0  0  0
    7.2210   -0.4620   20.0350 C   0  0  0  0  0  0  0  0  0  0  0  0
    8.9510    0.1280   21.6880 C   0  0  0  0  0  0  0  0  0  0  0  0
    9.2610   -4.9721   25.8916 C   0  0  0  0  0  0  0  0  0  0  0  0
   10.0220    1.0430   23.6570 C   0  0  0  0  0  0  0  0  0  0  0  0
    7.6830   -0.5170   18.7600 N   0  0  0  0  0  0  0  0  0  0  0  0
    6.9440    0.2550   18.0100 N   0  0  0  0  0  0  0  0  0  0  0  0
    8.0810   -0.9750   21.0820 N   0  0  0  0  0  0  0  0  0  0  0  0
    9.4200   -0.0840   22.9530 N   0  0  0  0  0  0  0  0  0  0  0  0
    9.1870    1.1500   21.0630 O   0  0  0  0  0  0  0  0  0  0  0  0
   14.5031   -1.0334   25.3114 Cl  0  0  0  0  0  0  0  0  0  0  0  0
    3.6274    2.0126   21.6300 H   0  0  0  0  0  0  0  0  0  0  0  0
    3.2732    2.7875   19.3199 H   0  0  0  0  0  0  0  0  0  0  0  0
   14.1289    2.5226   22.0237 H   0  0  0  0  0  0  0  0  0  0  0  0
    5.4878    0.4645   22.1722 H   0  0  0  0  0  0  0  0  0  0  0  0
   11.6588    2.5818   22.1218 H   0  0  0  0  0  0  0  0  0  0  0  0
    7.5665   -2.8638   26.1066 H   0  0  0  0  0  0  0  0  0  0  0  0
   11.0137   -4.2652   23.9447 H   0  0  0  0  0  0  0  0  0  0  0  0
    4.7853    2.0674   17.4815 H   0  0  0  0  0  0  0  0  0  0  0  0
    7.5948   -0.7788   24.7997 H   0  0  0  0  0  0  0  0  0  0  0  0
   11.0411   -2.1856   22.6358 H   0  0  0  0  0  0  0  0  0  0  0  0
   15.3941    0.9323   23.4255 H   0  0  0  0  0  0  0  0  0  0  0  0
   11.6954   -0.5682   25.0504 H   0  0  0  0  0  0  0  0  0  0  0  0
    8.6398   -5.7223   25.3871 H   0  0  0  0  0  0  0  0  0  0  0  0
   10.2715   -5.3829   26.0145 H   0  0  0  0  0  0  0  0  0  0  0  0
    8.8596   -4.8092   26.9004 H   0  0  0  0  0  0  0  0  0  0  0  0
    9.6778    1.0140   24.6966 H   0  0  0  0  0  0  0  0  0  0  0  0
    9.6316    1.9637   23.2107 H   0  0  0  0  0  0  0  0  0  0  0  0
    7.1015    0.3608   17.0505 H   0  0  0  0  0  0  0  0  0  0  0  0
    8.1177   -1.8091   21.3536 H   0  0  0  0  0  0  0  0  0  0  0  0
  1  2  1  0  0  0  0
  1  4  2  0  0  0  0
  2  8  2  0  0  0  0
  3  5  2  0  0  0  0
  3 11  1  0  0  0  0
  4 13  1  0  0  0  0
  5 15  1  0  0  0  0
  6  9  2  0  0  0  0
  6 14  1  0  0  0  0
  7 10  1  0  0  0  0
  7 14  2  0  0  0  0
  8 16  1  0  0  0  0
  9 17  1  0  0  0  0
 10 17  2  0  0  0  0
 11 18  2  0  0  0  0
 12 15  2  0  0  0  0
 12 18  1  0  0  0  0
 13 16  2  0  0  0  0
 13 19  1  0  0  0  0
 14 21  1  0  0  0  0
 15 22  1  0  0  0  0
 16 24  1  0  0  0  0
 17 26  1  0  0  0  0
 18 28  1  0  0  0  0
 19 23  2  0  0  0  0
 19 25  1  0  0  0  0
 20 25  1  0  0  0  0
 20 26  1  0  0  0  0
 20 27  2  0  0  0  0
 22 26  1  0  0  0  0
 23 24  1  0  0  0  0
  1 29  1  0  0  0  0
  2 30  1  0  0  0  0
  3 31  1  0  0  0  0
  4 32  1  0  0  0  0
  5 33  1  0  0  0  0
  6 34  1  0  0  0  0
  7 35  1  0  0  0  0
  8 36  1  0  0  0  0
  9 37  1  0  0  0  0
 10 38  1  0  0  0  0
 11 39  1  0  0  0  0
 12 40  1  0  0  0  0
 21 41  1  0  0  0  0
 21 42  1  0  0  0  0
 21 43  1  0  0  0  0
 22 44  1  0  0  0  0
 22 45  1  0  0  0  0
 24 46  1  0  0  0  0
 25 47  1  0  0  0  0
M  END
> <clash_score>
0.7662466891130594

> <docking_score>
-6.897426605224609

> <overlap_score>
0.9770404696464539

$$$$
BENZO_73_1
  -OEChem-08222022383D

 48 51  0     0  0  0  0  0  0999 V2000
   14.3082    0.9431   23.4783 C   0  0  0  0  0  0  0  0  0  0  0  0
    4.2970    1.6690   20.8430 C   0  0  0  0  0  0  0  0  0  0  0  0
   13.6391    0.3091   24.5251 C   0  0  0  0  0  0  0  0  0  0  0  0
   13.5841    1.6096   22.4898 C   0  0  0  0  0  0  0  0  0  0  0  0
    4.0980    2.1130   19.5350 C   0  0  0  0  0  0  0  0  0  0  0  0
    5.3360    0.8000   21.1530 C   0  0  0  0  0  0  0  0  0  0  0  0
   12.2459    0.3415   24.5835 C   0  0  0  0  0  0  0  0  0  0  0  0
   12.1908    1.6420   22.5481 C   0  0  0  0  0  0  0  0  0  0  0  0
    4.9400    1.7060   18.5060 C   0  0  0  0  0  0  0  0  0  0  0  0
    8.3510   -1.5420   24.6110 C   0  0  0  0  0  0  0  0  0  0  0  0
   10.2760   -2.3270   23.4020 C   0  0  0  0  0  0  0  0  0  0  0  0
    8.3310   -2.7170   25.3430 C   0  0  0  0  0  0  0  0  0  0  0  0
   10.2570   -3.5000   24.1350 C   0  0  0  0  0  0  0  0  0  0  0  0
    6.1600    0.3870   20.1140 C   0  0  0  0  0  0  0  0  0  0  0  0
   11.5217    1.0079   23.5949 C   0  0  0  0  0  0  0  0  0  0  0  0
    5.9810    0.8330   18.8060 C   0  0  0  0  0  0  0  0  0  0  0  0
    9.3300   -1.3350   23.6390 C   0  0  0  0  0  0  0  0  0  0  0  0
    9.2850   -3.7090   25.1090 C   0  0  0  0  0  0  0  0  0  0  0  0
    7.2210   -0.4620   20.0350 C   0  0  0  0  0  0  0  0  0  0  0  0
    8.9510    0.1280   21.6880 C   0  0  0  0  0  0  0  0  0  0  0  0
    8.2345   -4.9974   26.8023 C   0  0  0  0  0  0  0  0  0  0  0  0
   10.0220    1.0430   23.6570 C   0  0  0  0  0  0  0  0  0  0  0  0
    7.6830   -0.5170   18.7600 N   0  0  0  0  0  0  0  0  0  0  0  0
    6.9440    0.2550   18.0100 N   0  0  0  0  0  0  0  0  0  0  0  0
    8.0810   -0.9750   21.0820 N   0  0  0  0  0  0  0  0  0  0  0  0
    9.4200   -0.0840   22.9530 N   0  0  0  0  0  0  0  0  0  0  0  0
    9.1870    1.1500   21.0630 O   0  0  0  0  0  0  0  0  0  0  0  0
    9.2631   -4.8614   25.8229 O   0  0  0  0  0  0  0  0  0  0  0  0
   15.3932    0.9189   23.4337 H   0  0  0  0  0  0  0  0  0  0  0  0
    3.6274    2.0126   21.6300 H   0  0  0  0  0  0  0  0  0  0  0  0
   14.2029   -0.2090   25.2955 H   0  0  0  0  0  0  0  0  0  0  0  0
   14.1048    2.1043   21.6752 H   0  0  0  0  0  0  0  0  0  0  0  0
    3.2732    2.7875   19.3199 H   0  0  0  0  0  0  0  0  0  0  0  0
    5.4878    0.4645   22.1722 H   0  0  0  0  0  0  0  0  0  0  0  0
   11.7330   -0.1555   25.4027 H   0  0  0  0  0  0  0  0  0  0  0  0
   11.6349    2.1636   21.7735 H   0  0  0  0  0  0  0  0  0  0  0  0
    4.7853    2.0674   17.4815 H   0  0  0  0  0  0  0  0  0  0  0  0
    7.5951   -0.7786   24.8000 H   0  0  0  0  0  0  0  0  0  0  0  0
   11.0406   -2.1866   22.6351 H   0  0  0  0  0  0  0  0  0  0  0  0
    7.5664   -2.8674   26.1055 H   0  0  0  0  0  0  0  0  0  0  0  0
   11.0119   -4.2671   23.9461 H   0  0  0  0  0  0  0  0  0  0  0  0
    8.3310   -5.9648   27.3012 H   0  0  0  0  0  0  0  0  0  0  0  0
    7.2574   -4.9207   26.3187 H   0  0  0  0  0  0  0  0  0  0  0  0
    8.3377   -4.1978   27.5397 H   0  0  0  0  0  0  0  0  0  0  0  0
    9.6778    1.0140   24.6966 H   0  0  0  0  0  0  0  0  0  0  0  0
    9.6316    1.9637   23.2107 H   0  0  0  0  0  0  0  0  0  0  0  0
    7.1015    0.3608   17.0505 H   0  0  0  0  0  0  0  0  0  0  0  0
    8.1177   -1.8091   21.3536 H   0  0  0  0  0  0  0  0  0  0  0  0
  1  3  1  0  0  0  0
  1  4  2  0  0  0  0
  2  5  1  0  0  0  0
  2  6  2  0  0  0  0
  3  7  2  0  0  0  0
  4  8  1  0  0  0  0
  5  9  2  0  0  0  0
  6 14  1  0  0  0  0
  7 15  1  0  0  0  0
  8 15  2  0  0  0  0
  9 16  1  0  0  0  0
 10 12  2  0  0  0  0
 10 17  1  0  0  0  0
 11 13  1  0  0  0  0
 11 17  2  0  0  0  0
 12 18  1  0  0  0  0
 13 18  2  0  0  0  0
 14 16  2  0  0  0  0
 14 19  1  0  0  0  0
 15 22  1  0  0  0  0
 16 24  1  0  0  0  0
 17 26  1  0  0  0  0
 18 28  1  0  0  0  0
 19 23  2  0  0  0  0
 19 25  1  0  0  0  0
 20 25  1  0  0  0  0
 20 26  1  0  0  0  0
 20 27  2  0  0  0  0
 21 28  1  0  0  0  0
 22 26  1  0  0  0  0
 23 24  1  0  0  0  0
  1 29  1  0  0  0  0
  2 30  1  0  0  0  0
  3 31  1  0  0  0  0
  4 32  1  0  0  0  0
  5 33  1  0  0  0  0
  6 34  1  0  0  0  0
  7 35  1  0  0  0  0
  8 36  1  0  0  0  0
  9 37  1  0  0  0  0
 10 38  1  0  0  0  0
 11 39  1  0  0  0  0
 12 40  1  0  0  0  0
 13 41  1  0  0  0  0
 21 42  1  0  0  0  0
 21 43  1  0  0  0  0
 21 44  1  0  0  0  0
 22 45  1  0  0  0  0
 22 46  1  0  0  0  0
 24 47  1  0  0  0  0
 25 48  1  0  0  0  0
M  END
> <clash_score>
0

> <docking_score>
-7.424520969390869

> <overlap_score>
0.9956544041633606

$$$$
BENZO_72_1
  -OEChem-08222022383D

 45 48  0     0  0  0  0  0  0999 V2000
    4.2970    1.6690   20.8430 C   0  0  0  0  0  0  0  0  0  0  0  0
    4.0980    2.1130   19.5350 C   0  0  0  0  0  0  0  0  0  0  0  0
    5.3360    0.8000   21.1530 C   0  0  0  0  0  0  0  0  0  0  0  0
    4.9400    1.7060   18.5060 C   0  0  0  0  0  0  0  0  0  0  0  0
    8.3510   -1.5420   24.6110 C   0  0  0  0  0  0  0  0  0  0  0  0
   10.2760   -2.3270   23.4020 C   0  0  0  0  0  0  0  0  0  0  0  0
    8.3310   -2.7170   25.3430 C   0  0  0  0  0  0  0  0  0  0  0  0
   10.2570   -3.5000   24.1350 C   0  0  0  0  0  0  0  0  0  0  0  0
   12.2675    1.0332   22.3812 C   0  0  0  0  0  0  0  0  0  0  0  0
   13.6257    0.9906   22.6074 C   0  0  0  0  0  0  0  0  0  0  0  0
   12.3384    0.9467   24.7028 C   0  0  0  0  0  0  0  0  0  0  0  0
    6.1600    0.3870   20.1140 C   0  0  0  0  0  0  0  0  0  0  0  0
   11.5217    1.0079   23.5949 C   0  0  0  0  0  0  0  0  0  0  0  0
    5.9810    0.8330   18.8060 C   0  0  0  0  0  0  0  0  0  0  0  0
    9.3300   -1.3350   23.6390 C   0  0  0  0  0  0  0  0  0  0  0  0
    9.2850   -3.7090   25.1090 C   0  0  0  0  0  0  0  0  0  0  0  0
    7.2210   -0.4620   20.0350 C   0  0  0  0  0  0  0  0  0  0  0  0
    8.9510    0.1280   21.6880 C   0  0  0  0  0  0  0  0  0  0  0  0
    8.2345   -4.9974   26.8023 C   0  0  0  0  0  0  0  0  0  0  0  0
   10.0220    1.0430   23.6570 C   0  0  0  0  0  0  0  0  0  0  0  0
    7.6830   -0.5170   18.7600 N   0  0  0  0  0  0  0  0  0  0  0  0
    6.9440    0.2550   18.0100 N   0  0  0  0  0  0  0  0  0  0  0  0
    8.0810   -0.9750   21.0820 N   0  0  0  0  0  0  0  0  0  0  0  0
    9.4200   -0.0840   22.9530 N   0  0  0  0  0  0  0  0  0  0  0  0
    9.1870    1.1500   21.0630 O   0  0  0  0  0  0  0  0  0  0  0  0
    9.2631   -4.8614   25.8229 O   0  0  0  0  0  0  0  0  0  0  0  0
   13.9969    0.9203   24.2776 S   0  0  0  0  0  0  0  0  0  0  0  0
    3.6274    2.0126   21.6300 H   0  0  0  0  0  0  0  0  0  0  0  0
    3.2732    2.7875   19.3199 H   0  0  0  0  0  0  0  0  0  0  0  0
    5.4878    0.4645   22.1722 H   0  0  0  0  0  0  0  0  0  0  0  0
    4.7853    2.0674   17.4815 H   0  0  0  0  0  0  0  0  0  0  0  0
    7.5951   -0.7786   24.8000 H   0  0  0  0  0  0  0  0  0  0  0  0
   11.0406   -2.1866   22.6351 H   0  0  0  0  0  0  0  0  0  0  0  0
    7.5664   -2.8674   26.1055 H   0  0  0  0  0  0  0  0  0  0  0  0
   11.0119   -4.2671   23.9461 H   0  0  0  0  0  0  0  0  0  0  0  0
   11.8338    1.0798   21.3902 H   0  0  0  0  0  0  0  0  0  0  0  0
   14.4176    0.9966   21.8719 H   0  0  0  0  0  0  0  0  0  0  0  0
   12.0446    0.9149   25.7428 H   0  0  0  0  0  0  0  0  0  0  0  0
    8.3310   -5.9648   27.3012 H   0  0  0  0  0  0  0  0  0  0  0  0
    7.2574   -4.9207   26.3187 H   0  0  0  0  0  0  0  0  0  0  0  0
    8.3377   -4.1978   27.5397 H   0  0  0  0  0  0  0  0  0  0  0  0
    9.6778    1.0140   24.6966 H   0  0  0  0  0  0  0  0  0  0  0  0
    9.6316    1.9637   23.2107 H   0  0  0  0  0  0  0  0  0  0  0  0
    7.1015    0.3608   17.0505 H   0  0  0  0  0  0  0  0  0  0  0  0
    8.1177   -1.8091   21.3536 H   0  0  0  0  0  0  0  0  0  0  0  0
  1  2  1  0  0  0  0
  1  3  2  0  0  0  0
  2  4  2  0  0  0  0
  3 12  1  0  0  0  0
  4 14  1  0  0  0  0
  5  7  2  0  0  0  0
  5 15  1  0  0  0  0
  6  8  1  0  0  0  0
  6 15  2  0  0  0  0
  7 16  1  0  0  0  0
  8 16  2  0  0  0  0
  9 10  2  0  0  0  0
  9 13  1  0  0  0  0
 10 27  1  0  0  0  0
 11 13  2  0  0  0  0
 11 27  1  0  0  0  0
 12 14  2  0  0  0  0
 12 17  1  0  0  0  0
 13 20  1  0  0  0  0
 14 22  1  0  0  0  0
 15 24  1  0  0  0  0
 16 26  1  0  0  0  0
 17 21  2  0  0  0  0
 17 23  1  0  0  0  0
 18 23  1  0  0  0  0
 18 24  1  0  0  0  0
 18 25  2  0  0  0  0
 19 26  1  0  0  0  0
 20 24  1  0  0  0  0
 21 22  1  0  0  0  0
  1 28  1  0  0  0  0
  2 29  1  0  0  0  0
  3 30  1  0  0  0  0
  4 31  1  0  0  0  0
  5 32  1  0  0  0  0
  6 33  1  0  0  0  0
  7 34  1  0  0  0  0
  8 35  1  0  0  0  0
  9 36  1  0  0  0  0
 10 37  1  0  0  0  0
 11 38  1  0  0  0  0
 19 39  1  0  0  0  0
 19 40  1  0  0  0  0
 19 41  1  0  0  0  0
 20 42  1  0  0  0  0
 20 43  1  0  0  0  0
 22 44  1  0  0  0  0
 23 45  1  0  0  0  0
M  END
> <clash_score>
0

> <docking_score>
-7.670729160308838

> <overlap_score>
0.9697703123092651

$$$$
BENZO_74_1
  -OEChem-08222022383D

 48 51  0     0  0  0  0  0  0999 V2000
    4.2970    1.6690   20.8430 C   0  0  0  0  0  0  0  0  0  0  0  0
    4.0980    2.1130   19.5350 C   0  0  0  0  0  0  0  0  0  0  0  0
   13.6668    1.7807   24.3938 C   0  0  0  0  0  0  0  0  0  0  0  0
    5.3360    0.8000   21.1530 C   0  0  0  0  0  0  0  0  0  0  0  0
   12.2735    1.8136   24.4501 C   0  0  0  0  0  0  0  0  0  0  0  0
    4.9400    1.7060   18.5060 C   0  0  0  0  0  0  0  0  0  0  0  0
    8.3510   -1.5420   24.6110 C   0  0  0  0  0  0  0  0  0  0  0  0
   10.2760   -2.3270   23.4020 C   0  0  0  0  0  0  0  0  0  0  0  0
    8.3310   -2.7170   25.3430 C   0  0  0  0  0  0  0  0  0  0  0  0
   10.2570   -3.5000   24.1350 C   0  0  0  0  0  0  0  0  0  0  0  0
   14.3084    0.9422   23.4822 C   0  0  0  0  0  0  0  0  0  0  0  0
   12.1632    0.1693   22.6834 C   0  0  0  0  0  0  0  0  0  0  0  0
    6.1600    0.3870   20.1140 C   0  0  0  0  0  0  0  0  0  0  0  0
   11.5217    1.0079   23.5949 C   0  0  0  0  0  0  0  0  0  0  0  0
    5.9810    0.8330   18.8060 C   0  0  0  0  0  0  0  0  0  0  0  0
    9.3300   -1.3350   23.6390 C   0  0  0  0  0  0  0  0  0  0  0  0
    9.2850   -3.7090   25.1090 C   0  0  0  0  0  0  0  0  0  0  0  0
   13.5566    0.1365   22.6270 C   0  0  0  0  0  0  0  0  0  0  0  0
    7.2210   -0.4620   20.0350 C   0  0  0  0  0  0  0  0  0  0  0  0
    8.9510    0.1280   21.6880 C   0  0  0  0  0  0  0  0  0  0  0  0
    8.2345   -4.9974   26.8023 C   0  0  0  0  0  0  0  0  0  0  0  0
   10.0220    1.0430   23.6570 C   0  0  0  0  0  0  0  0  0  0  0  0
    7.6830   -0.5170   18.7600 N   0  0  0  0  0  0  0  0  0  0  0  0
    6.9440    0.2550   18.0100 N   0  0  0  0  0  0  0  0  0  0  0  0
    8.0810   -0.9750   21.0820 N   0  0  0  0  0  0  0  0  0  0  0  0
    9.4200   -0.0840   22.9530 N   0  0  0  0  0  0  0  0  0  0  0  0
    9.1870    1.1500   21.0630 O   0  0  0  0  0  0  0  0  0  0  0  0
    9.2631   -4.8614   25.8229 O   0  0  0  0  0  0  0  0  0  0  0  0
   14.3487   -0.8988   21.5034 Cl  0  0  0  0  0  0  0  0  0  0  0  0
    3.6274    2.0126   21.6300 H   0  0  0  0  0  0  0  0  0  0  0  0
    3.2732    2.7875   19.3199 H   0  0  0  0  0  0  0  0  0  0  0  0
   14.2519    2.4082   25.0600 H   0  0  0  0  0  0  0  0  0  0  0  0
    5.4878    0.4645   22.1722 H   0  0  0  0  0  0  0  0  0  0  0  0
   11.7821    2.4700   25.1636 H   0  0  0  0  0  0  0  0  0  0  0  0
    4.7853    2.0674   17.4815 H   0  0  0  0  0  0  0  0  0  0  0  0
    7.5951   -0.7786   24.8000 H   0  0  0  0  0  0  0  0  0  0  0  0
   11.0406   -2.1866   22.6351 H   0  0  0  0  0  0  0  0  0  0  0  0
    7.5664   -2.8674   26.1055 H   0  0  0  0  0  0  0  0  0  0  0  0
   11.0119   -4.2671   23.9461 H   0  0  0  0  0  0  0  0  0  0  0  0
   15.3950    0.9267   23.4496 H   0  0  0  0  0  0  0  0  0  0  0  0
   11.5726   -0.4565   22.0184 H   0  0  0  0  0  0  0  0  0  0  0  0
    8.3310   -5.9648   27.3012 H   0  0  0  0  0  0  0  0  0  0  0  0
    7.2574   -4.9207   26.3187 H   0  0  0  0  0  0  0  0  0  0  0  0
    8.3377   -4.1978   27.5397 H   0  0  0  0  0  0  0  0  0  0  0  0
    9.6778    1.0140   24.6966 H   0  0  0  0  0  0  0  0  0  0  0  0
    9.6316    1.9637   23.2107 H   0  0  0  0  0  0  0  0  0  0  0  0
    7.1015    0.3608   17.0505 H   0  0  0  0  0  0  0  0  0  0  0  0
    8.1177   -1.8091   21.3536 H   0  0  0  0  0  0  0  0  0  0  0  0
  1  2  1  0  0  0  0
  1  4  2  0  0  0  0
  2  6  2  0  0  0  0
  3  5  2  0  0  0  0
  3 11  1  0  0  0  0
  4 13  1  0  0  0  0
  5 14  1  0  0  0  0
  6 15  1  0  0  0  0
  7  9  2  0  0  0  0
  7 16  1  0  0  0  0
  8 10  1  0  0  0  0
  8 16  2  0  0  0  0
  9 17  1  0  0  0  0
 10 17  2  0  0  0  0
 11 18  2  0  0  0  0
 12 14  2  0  0  0  0
 12 18  1  0  0  0  0
 13 15  2  0  0  0  0
 13 19  1  0  0  0  0
 14 22  1  0  0  0  0
 15 24  1  0  0  0  0
 16 26  1  0  0  0  0
 17 28  1  0  0  0  0
 18 29  1  0  0  0  0
 19 23  2  0  0  0  0
 19 25  1  0  0  0  0
 20 25  1  0  0  0  0
 20 26  1  0  0  0  0
 20 27  2  0  0  0  0
 21 28  1  0  0  0  0
 22 26  1  0  0  0  0
 23 24  1  0  0  0  0
  1 30  1  0  0  0  0
  2 31  1  0  0  0  0
  3 32  1  0  0  0  0
  4 33  1  0  0  0  0
  5 34  1  0  0  0  0
  6 35  1  0  0  0  0
  7 36  1  0  0  0  0
  8 37  1  0  0  0  0
  9 38  1  0  0  0  0
 10 39  1  0  0  0  0
 11 40  1  0  0  0  0
 12 41  1  0  0  0  0
 21 42  1  0  0  0  0
 21 43  1  0  0  0  0
 21 44  1  0  0  0  0
 22 45  1  0  0  0  0
 22 46  1  0  0  0  0
 24 47  1  0  0  0  0
 25 48  1  0  0  0  0
M  END
> <clash_score>
0

> <docking_score>
-6.675443172454834

> <overlap_score>
0.9766169786453247

$$$$
BENZO_75_1
  -OEChem-08222022383D

 48 51  0     0  0  0  0  0  0999 V2000
    4.2970    1.6690   20.8430 C   0  0  0  0  0  0  0  0  0  0  0  0
    4.0980    2.1130   19.5350 C   0  0  0  0  0  0  0  0  0  0  0  0
    5.3360    0.8000   21.1530 C   0  0  0  0  0  0  0  0  0  0  0  0
    4.9400    1.7060   18.5060 C   0  0  0  0  0  0  0  0  0  0  0  0
    8.3510   -1.5420   24.6110 C   0  0  0  0  0  0  0  0  0  0  0  0
   10.2760   -2.3270   23.4020 C   0  0  0  0  0  0  0  0  0  0  0  0
    8.3310   -2.7170   25.3430 C   0  0  0  0  0  0  0  0  0  0  0  0
   10.2570   -3.5000   24.1350 C   0  0  0  0  0  0  0  0  0  0  0  0
   12.4359    1.7439   24.3724 C   0  0  0  0  0  0  0  0  0  0  0  0
   12.3100    0.2468   22.7668 C   0  0  0  0  0  0  0  0  0  0  0  0
    6.1600    0.3870   20.1140 C   0  0  0  0  0  0  0  0  0  0  0  0
   11.5217    1.0079   23.5949 C   0  0  0  0  0  0  0  0  0  0  0  0
    5.9810    0.8330   18.8060 C   0  0  0  0  0  0  0  0  0  0  0  0
    9.3300   -1.3350   23.6390 C   0  0  0  0  0  0  0  0  0  0  0  0
    9.2850   -3.7090   25.1090 C   0  0  0  0  0  0  0  0  0  0  0  0
    7.2210   -0.4620   20.0350 C   0  0  0  0  0  0  0  0  0  0  0  0
    8.9510    0.1280   21.6880 C   0  0  0  0  0  0  0  0  0  0  0  0
   14.7884    0.0124   22.4815 C   0  0  0  0  0  0  0  0  0  0  0  0
    8.2345   -4.9974   26.8023 C   0  0  0  0  0  0  0  0  0  0  0  0
   10.0220    1.0430   23.6570 C   0  0  0  0  0  0  0  0  0  0  0  0
   13.7076    1.4745   24.0657 N   0  0  0  0  0  0  0  0  0  0  0  0
    7.6830   -0.5170   18.7600 N   0  0  0  0  0  0  0  0  0  0  0  0
    6.9440    0.2550   18.0100 N   0  0  0  0  0  0  0  0  0  0  0  0
   13.5982    0.5607   23.0864 N   0  0  0  0  0  0  0  0  0  0  0  0
    8.0810   -0.9750   21.0820 N   0  0  0  0  0  0  0  0  0  0  0  0
    9.4200   -0.0840   22.9530 N   0  0  0  0  0  0  0  0  0  0  0  0
    9.1870    1.1500   21.0630 O   0  0  0  0  0  0  0  0  0  0  0  0
    9.2631   -4.8614   25.8229 O   0  0  0  0  0  0  0  0  0  0  0  0
    3.6274    2.0126   21.6300 H   0  0  0  0  0  0  0  0  0  0  0  0
    3.2732    2.7875   19.3199 H   0  0  0  0  0  0  0  0  0  0  0  0
    5.4878    0.4645   22.1722 H   0  0  0  0  0  0  0  0  0  0  0  0
    4.7853    2.0674   17.4815 H   0  0  0  0  0  0  0  0  0  0  0  0
    7.5951   -0.7786   24.8000 H   0  0  0  0  0  0  0  0  0  0  0  0
   11.0406   -2.1866   22.6351 H   0  0  0  0  0  0  0  0  0  0  0  0
    7.5664   -2.8674   26.1055 H   0  0  0  0  0  0  0  0  0  0  0  0
   11.0119   -4.2671   23.9461 H   0  0  0  0  0  0  0  0  0  0  0  0
   12.2308    2.4652   25.1508 H   0  0  0  0  0  0  0  0  0  0  0  0
   12.0700   -0.4744   21.9974 H   0  0  0  0  0  0  0  0  0  0  0  0
   15.0569    0.6453   21.6315 H   0  0  0  0  0  0  0  0  0  0  0  0
   15.5971   -0.0026   23.2174 H   0  0  0  0  0  0  0  0  0  0  0  0
   14.5870   -1.0100   22.1498 H   0  0  0  0  0  0  0  0  0  0  0  0
    8.3310   -5.9648   27.3012 H   0  0  0  0  0  0  0  0  0  0  0  0
    7.2574   -4.9207   26.3187 H   0  0  0  0  0  0  0  0  0  0  0  0
    8.3377   -4.1978   27.5397 H   0  0  0  0  0  0  0  0  0  0  0  0
    9.6778    1.0140   24.6966 H   0  0  0  0  0  0  0  0  0  0  0  0
    9.6316    1.9637   23.2107 H   0  0  0  0  0  0  0  0  0  0  0  0
    7.1015    0.3608   17.0505 H   0  0  0  0  0  0  0  0  0  0  0  0
    8.1177   -1.8091   21.3536 H   0  0  0  0  0  0  0  0  0  0  0  0
  1  2  1  0  0  0  0
  1  3  2  0  0  0  0
  2  4  2  0  0  0  0
  3 11  1  0  0  0  0
  4 13  1  0  0  0  0
  5  7  2  0  0  0  0
  5 14  1  0  0  0  0
  6  8  1  0  0  0  0
  6 14  2  0  0  0  0
  7 15  1  0  0  0  0
  8 15  2  0  0  0  0
  9 12  1  0  0  0  0
  9 21  2  0  0  0  0
 10 12  2  0  0  0  0
 10 24  1  0  0  0  0
 11 13  2  0  0  0  0
 11 16  1  0  0  0  0
 12 20  1  0  0  0  0
 13 23  1  0  0  0  0
 14 26  1  0  0  0  0
 15 28  1  0  0  0  0
 16 22  2  0  0  0  0
 16 25  1  0  0  0  0
 17 25  1  0  0  0  0
 17 26  1  0  0  0  0
 17 27  2  0  0  0  0
 18 24  1  0  0  0  0
 19 28  1  0  0  0  0
 20 26  1  0  0  0  0
 21 24  1  0  0  0  0
 22 23  1  0  0  0  0
  1 29  1  0  0  0  0
  2 30  1  0  0  0  0
  3 31  1  0  0  0  0
  4 32  1  0  0  0  0
  5 33  1  0  0  0  0
  6 34  1  0  0  0  0
  7 35  1  0  0  0  0
  8 36  1  0  0  0  0
  9 37  1  0  0  0  0
 10 38  1  0  0  0  0
 18 39  1  0  0  0  0
 18 40  1  0  0  0  0
 18 41  1  0  0  0  0
 19 42  1  0  0  0  0
 19 43  1  0  0  0  0
 19 44  1  0  0  0  0
 20 45  1  0  0  0  0
 20 46  1  0  0  0  0
 23 47  1  0  0  0  0
 25 48  1  0  0  0  0
M  END
> <clash_score>
0

> <docking_score>
-7.639127731323242

> <overlap_score>
0.9817345142364502

$$$$
BENZO_77_1
  -OEChem-08222022383D

 58 62  0     0  0  0  0  0  0999 V2000
   14.3082    0.9431   23.4783 C   0  0  0  0  0  0  0  0  0  0  0  0
    4.2970    1.6690   20.8430 C   0  0  0  0  0  0  0  0  0  0  0  0
   13.6391    0.3091   24.5251 C   0  0  0  0  0  0  0  0  0  0  0  0
   13.5841    1.6096   22.4898 C   0  0  0  0  0  0  0  0  0  0  0  0
    4.0980    2.1130   19.5350 C   0  0  0  0  0  0  0  0  0  0  0  0
    5.3360    0.8000   21.1530 C   0  0  0  0  0  0  0  0  0  0  0  0
   12.2459    0.3415   24.5835 C   0  0  0  0  0  0  0  0  0  0  0  0
   12.1908    1.6420   22.5481 C   0  0  0  0  0  0  0  0  0  0  0  0
    4.9400    1.7060   18.5060 C   0  0  0  0  0  0  0  0  0  0  0  0
    8.3310   -2.7170   25.3430 C   0  0  0  0  0  0  0  0  0  0  0  0
   10.2570   -3.5000   24.1350 C   0  0  0  0  0  0  0  0  0  0  0  0
    8.3510   -1.5420   24.6110 C   0  0  0  0  0  0  0  0  0  0  0  0
   10.2760   -2.3270   23.4020 C   0  0  0  0  0  0  0  0  0  0  0  0
    6.1600    0.3870   20.1140 C   0  0  0  0  0  0  0  0  0  0  0  0
   11.5217    1.0079   23.5949 C   0  0  0  0  0  0  0  0  0  0  0  0
    5.9810    0.8330   18.8060 C   0  0  0  0  0  0  0  0  0  0  0  0
    9.2850   -3.7090   25.1090 C   0  0  0  0  0  0  0  0  0  0  0  0
    9.3300   -1.3350   23.6390 C   0  0  0  0  0  0  0  0  0  0  0  0
    7.2210   -0.4620   20.0350 C   0  0  0  0  0  0  0  0  0  0  0  0
    8.0635   -5.4710   26.3667 C   0  0  0  0  0  0  0  0  0  0  0  0
    8.9510    0.1280   21.6880 C   0  0  0  0  0  0  0  0  0  0  0  0
    8.2626   -6.7580   27.1475 C   0  0  0  0  0  0  0  0  0  0  0  0
    9.4048   -6.6156   28.1380 C   0  0  0  0  0  0  0  0  0  0  0  0
   10.6949   -6.1500   27.4702 C   0  0  0  0  0  0  0  0  0  0  0  0
   10.4942   -5.7069   26.0219 C   0  0  0  0  0  0  0  0  0  0  0  0
   10.0220    1.0430   23.6570 C   0  0  0  0  0  0  0  0  0  0  0  0
    7.6830   -0.5170   18.7600 N   0  0  0  0  0  0  0  0  0  0  0  0
    6.9440    0.2550   18.0100 N   0  0  0  0  0  0  0  0  0  0  0  0
    9.2623   -4.9266   25.8635 N   0  0  0  0  0  0  0  0  0  0  0  0
    8.0810   -0.9750   21.0820 N   0  0  0  0  0  0  0  0  0  0  0  0
    9.4200   -0.0840   22.9530 N   0  0  0  0  0  0  0  0  0  0  0  0
    6.9244   -5.0476   26.1739 O   0  0  0  0  0  0  0  0  0  0  0  0
    9.1870    1.1500   21.0630 O   0  0  0  0  0  0  0  0  0  0  0  0
   15.3932    0.9189   23.4337 H   0  0  0  0  0  0  0  0  0  0  0  0
    3.6274    2.0126   21.6300 H   0  0  0  0  0  0  0  0  0  0  0  0
   14.2029   -0.2090   25.2955 H   0  0  0  0  0  0  0  0  0  0  0  0
   14.1048    2.1043   21.6752 H   0  0  0  0  0  0  0  0  0  0  0  0
    3.2732    2.7875   19.3199 H   0  0  0  0  0  0  0  0  0  0  0  0
    5.4878    0.4645   22.1722 H   0  0  0  0  0  0  0  0  0  0  0  0
   11.7330   -0.1555   25.4027 H   0  0  0  0  0  0  0  0  0  0  0  0
   11.6349    2.1636   21.7735 H   0  0  0  0  0  0  0  0  0  0  0  0
    4.7853    2.0674   17.4815 H   0  0  0  0  0  0  0  0  0  0  0  0
    7.5639   -2.8621   26.1045 H   0  0  0  0  0  0  0  0  0  0  0  0
   11.0141   -4.2644   23.9422 H   0  0  0  0  0  0  0  0  0  0  0  0
    7.5950   -0.7788   24.8007 H   0  0  0  0  0  0  0  0  0  0  0  0
   11.0408   -2.1861   22.6359 H   0  0  0  0  0  0  0  0  0  0  0  0
    7.3516   -6.9810   27.6812 H   0  0  0  0  0  0  0  0  0  0  0  0
    8.4757   -7.5428   26.4371 H   0  0  0  0  0  0  0  0  0  0  0  0
    9.1234   -5.9016   28.9400 H   0  0  0  0  0  0  0  0  0  0  0  0
    9.5778   -7.5840   28.6491 H   0  0  0  0  0  0  0  0  0  0  0  0
   11.1305   -5.3108   28.0523 H   0  0  0  0  0  0  0  0  0  0  0  0
   11.4565   -6.9587   27.5131 H   0  0  0  0  0  0  0  0  0  0  0  0
   11.3212   -5.0729   25.7168 H   0  0  0  0  0  0  0  0  0  0  0  0
   10.4483   -6.5796   25.3796 H   0  0  0  0  0  0  0  0  0  0  0  0
    9.6778    1.0140   24.6966 H   0  0  0  0  0  0  0  0  0  0  0  0
    9.6316    1.9637   23.2107 H   0  0  0  0  0  0  0  0  0  0  0  0
    7.1015    0.3608   17.0505 H   0  0  0  0  0  0  0  0  0  0  0  0
    8.1334   -1.7992   21.3673 H   0  0  0  0  0  0  0  0  0  0  0  0
  1  3  1  0  0  0  0
  1  4  2  0  0  0  0
  2  5  1  0  0  0  0
  2  6  2  0  0  0  0
  3  7  2  0  0  0  0
  4  8  1  0  0  0  0
  5  9  2  0  0  0  0
  6 14  1  0  0  0  0
  7 15  1  0  0  0  0
  8 15  2  0  0  0  0
  9 16  1  0  0  0  0
 10 12  2  0  0  0  0
 10 17  1  0  0  0  0
 11 13  1  0  0  0  0
 11 17  2  0  0  0  0
 12 18  1  0  0  0  0
 13 18  2  0  0  0  0
 14 16  2  0  0  0  0
 14 19  1  0  0  0  0
 15 26  1  0  0  0  0
 16 28  1  0  0  0  0
 17 29  1  0  0  0  0
 18 31  1  0  0  0  0
 19 27  2  0  0  0  0
 19 30  1  0  0  0  0
 20 22  1  0  0  0  0
 20 29  1  0  0  0  0
 20 32  2  0  0  0  0
 21 30  1  0  0  0  0
 21 31  1  0  0  0  0
 21 33  2  0  0  0  0
 22 23  1  0  0  0  0
 23 24  1  0  0  0  0
 24 25  1  0  0  0  0
 25 29  1  0  0  0  0
 26 31  1  0  0  0  0
 27 28  1  0  0  0  0
  1 34  1  0  0  0  0
  2 35  1  0  0  0  0
  3 36  1  0  0  0  0
  4 37  1  0  0  0  0
  5 38  1  0  0  0  0
  6 39  1  0  0  0  0
  7 40  1  0  0  0  0
  8 41  1  0  0  0  0
  9 42  1  0  0  0  0
 10 43  1  0  0  0  0
 11 44  1  0  0  0  0
 12 45  1  0  0  0  0
 13 46  1  0  0  0  0
 22 47  1  0  0  0  0
 22 48  1  0  0  0  0
 23 49  1  0  0  0  0
 23 50  1  0  0  0  0
 24 51  1  0  0  0  0
 24 52  1  0  0  0  0
 25 53  1  0  0  0  0
 25 54  1  0  0  0  0
 26 55  1  0  0  0  0
 26 56  1  0  0  0  0
 28 57  1  0  0  0  0
 30 58  1  0  0  0  0
M  END
> <clash_score>
1.272782601224562

> <docking_score>
-5.911059379577637

> <overlap_score>
1.0159268379211426

$$$$
BENZO_76_1
  -OEChem-08222022383D

 55 59  0     0  0  0  0  0  0999 V2000
    4.2970    1.6690   20.8430 C   0  0  0  0  0  0  0  0  0  0  0  0
    4.0980    2.1130   19.5350 C   0  0  0  0  0  0  0  0  0  0  0  0
    5.3360    0.8000   21.1530 C   0  0  0  0  0  0  0  0  0  0  0  0
    4.9400    1.7060   18.5060 C   0  0  0  0  0  0  0  0  0  0  0  0
    8.3310   -2.7170   25.3430 C   0  0  0  0  0  0  0  0  0  0  0  0
   10.2570   -3.5000   24.1350 C   0  0  0  0  0  0  0  0  0  0  0  0
    8.3510   -1.5420   24.6110 C   0  0  0  0  0  0  0  0  0  0  0  0
   10.2760   -2.3270   23.4020 C   0  0  0  0  0  0  0  0  0  0  0  0
   12.2675    1.0332   22.3812 C   0  0  0  0  0  0  0  0  0  0  0  0
   13.6257    0.9906   22.6074 C   0  0  0  0  0  0  0  0  0  0  0  0
   12.3384    0.9467   24.7028 C   0  0  0  0  0  0  0  0  0  0  0  0
    6.1600    0.3870   20.1140 C   0  0  0  0  0  0  0  0  0  0  0  0
   11.5217    1.0079   23.5949 C   0  0  0  0  0  0  0  0  0  0  0  0
    5.9810    0.8330   18.8060 C   0  0  0  0  0  0  0  0  0  0  0  0
    9.2850   -3.7090   25.1090 C   0  0  0  0  0  0  0  0  0  0  0  0
    9.3300   -1.3350   23.6390 C   0  0  0  0  0  0  0  0  0  0  0  0
    7.2210   -0.4620   20.0350 C   0  0  0  0  0  0  0  0  0  0  0  0
    8.0635   -5.4710   26.3667 C   0  0  0  0  0  0  0  0  0  0  0  0
    8.9510    0.1280   21.6880 C   0  0  0  0  0  0  0  0  0  0  0  0
    8.2626   -6.7580   27.1475 C   0  0  0  0  0  0  0  0  0  0  0  0
    9.4048   -6.6156   28.1380 C   0  0  0  0  0  0  0  0  0  0  0  0
   10.6949   -6.1500   27.4702 C   0  0  0  0  0  0  0  0  0  0  0  0
   10.4942   -5.7069   26.0219 C   0  0  0  0  0  0  0  0  0  0  0  0
   10.0220    1.0430   23.6570 C   0  0  0  0  0  0  0  0  0  0  0  0
    7.6830   -0.5170   18.7600 N   0  0  0  0  0  0  0  0  0  0  0  0
    6.9440    0.2550   18.0100 N   0  0  0  0  0  0  0  0  0  0  0  0
    9.2623   -4.9266   25.8635 N   0  0  0  0  0  0  0  0  0  0  0  0
    8.0810   -0.9750   21.0820 N   0  0  0  0  0  0  0  0  0  0  0  0
    9.4200   -0.0840   22.9530 N   0  0  0  0  0  0  0  0  0  0  0  0
    6.9244   -5.0476   26.1739 O   0  0  0  0  0  0  0  0  0  0  0  0
    9.1870    1.1500   21.0630 O   0  0  0  0  0  0  0  0  0  0  0  0
   13.9969    0.9203   24.2776 S   0  0  0  0  0  0  0  0  0  0  0  0
    3.6274    2.0126   21.6300 H   0  0  0  0  0  0  0  0  0  0  0  0
    3.2732    2.7875   19.3199 H   0  0  0  0  0  0  0  0  0  0  0  0
    5.4878    0.4645   22.1722 H   0  0  0  0  0  0  0  0  0  0  0  0
    4.7853    2.0674   17.4815 H   0  0  0  0  0  0  0  0  0  0  0  0
    7.5639   -2.8621   26.1045 H   0  0  0  0  0  0  0  0  0  0  0  0
   11.0141   -4.2644   23.9422 H   0  0  0  0  0  0  0  0  0  0  0  0
    7.5950   -0.7788   24.8007 H   0  0  0  0  0  0  0  0  0  0  0  0
   11.0408   -2.1861   22.6359 H   0  0  0  0  0  0  0  0  0  0  0  0
   11.8338    1.0798   21.3902 H   0  0  0  0  0  0  0  0  0  0  0  0
   14.4176    0.9966   21.8719 H   0  0  0  0  0  0  0  0  0  0  0  0
   12.0446    0.9149   25.7428 H   0  0  0  0  0  0  0  0  0  0  0  0
    7.3516   -6.9810   27.6812 H   0  0  0  0  0  0  0  0  0  0  0  0
    8.4757   -7.5428   26.4371 H   0  0  0  0  0  0  0  0  0  0  0  0
    9.1234   -5.9016   28.9400 H   0  0  0  0  0  0  0  0  0  0  0  0
    9.5778   -7.5840   28.6491 H   0  0  0  0  0  0  0  0  0  0  0  0
   11.1305   -5.3108   28.0523 H   0  0  0  0  0  0  0  0  0  0  0  0
   11.4565   -6.9587   27.5131 H   0  0  0  0  0  0  0  0  0  0  0  0
   11.3212   -5.0729   25.7168 H   0  0  0  0  0  0  0  0  0  0  0  0
   10.4483   -6.5796   25.3796 H   0  0  0  0  0  0  0  0  0  0  0  0
    9.6778    1.0140   24.6966 H   0  0  0  0  0  0  0  0  0  0  0  0
    9.6316    1.9637   23.2107 H   0  0  0  0  0  0  0  0  0  0  0  0
    7.1015    0.3608   17.0505 H   0  0  0  0  0  0  0  0  0  0  0  0
    8.1334   -1.7992   21.3673 H   0  0  0  0  0  0  0  0  0  0  0  0
  1  2  1  0  0  0  0
  1  3  2  0  0  0  0
  2  4  2  0  0  0  0
  3 12  1  0  0  0  0
  4 14  1  0  0  0  0
  5  7  2  0  0  0  0
  5 15  1  0  0  0  0
  6  8  1  0  0  0  0
  6 15  2  0  0  0  0
  7 16  1  0  0  0  0
  8 16  2  0  0  0  0
  9 10  2  0  0  0  0
  9 13  1  0  0  0  0
 10 32  1  0  0  0  0
 11 13  2  0  0  0  0
 11 32  1  0  0  0  0
 12 14  2  0  0  0  0
 12 17  1  0  0  0  0
 13 24  1  0  0  0  0
 14 26  1  0  0  0  0
 15 27  1  0  0  0  0
 16 29  1  0  0  0  0
 17 25  2  0  0  0  0
 17 28  1  0  0  0  0
 18 20  1  0  0  0  0
 18 27  1  0  0  0  0
 18 30  2  0  0  0  0
 19 28  1  0  0  0  0
 19 29  1  0  0  0  0
 19 31  2  0  0  0  0
 20 21  1  0  0  0  0
 21 22  1  0  0  0  0
 22 23  1  0  0  0  0
 23 27  1  0  0  0  0
 24 29  1  0  0  0  0
 25 26  1  0  0  0  0
  1 33  1  0  0  0  0
  2 34  1  0  0  0  0
  3 35  1  0  0  0  0
  4 36  1  0  0  0  0
  5 37  1  0  0  0  0
  6 38  1  0  0  0  0
  7 39  1  0  0  0  0
  8 40  1  0  0  0  0
  9 41  1  0  0  0  0
 10 42  1  0  0  0  0
 11 43  1  0  0  0  0
 20 44  1  0  0  0  0
 20 45  1  0  0  0  0
 21 46  1  0  0  0  0
 21 47  1  0  0  0  0
 22 48  1  0  0  0  0
 22 49  1  0  0  0  0
 23 50  1  0  0  0  0
 23 51  1  0  0  0  0
 24 52  1  0  0  0  0
 24 53  1  0  0  0  0
 26 54  1  0  0  0  0
 28 55  1  0  0  0  0
M  END
> <clash_score>
1.272782601224562

> <docking_score>
-6.157262325286865

> <overlap_score>
0.9903323650360107

$$$$
BENZO_81_1
  -OEChem-08222022383D

 57 61  0     0  0  0  0  0  0999 V2000
   14.3082    0.9431   23.4783 C   0  0  0  0  0  0  0  0  0  0  0  0
    4.2970    1.6690   20.8430 C   0  0  0  0  0  0  0  0  0  0  0  0
   13.6391    0.3091   24.5251 C   0  0  0  0  0  0  0  0  0  0  0  0
   13.5841    1.6096   22.4898 C   0  0  0  0  0  0  0  0  0  0  0  0
    4.0980    2.1130   19.5350 C   0  0  0  0  0  0  0  0  0  0  0  0
    5.3360    0.8000   21.1530 C   0  0  0  0  0  0  0  0  0  0  0  0
   12.2459    0.3415   24.5835 C   0  0  0  0  0  0  0  0  0  0  0  0
   12.1908    1.6420   22.5481 C   0  0  0  0  0  0  0  0  0  0  0  0
    4.9400    1.7060   18.5060 C   0  0  0  0  0  0  0  0  0  0  0  0
    8.3310   -2.7170   25.3430 C   0  0  0  0  0  0  0  0  0  0  0  0
   10.2570   -3.5000   24.1350 C   0  0  0  0  0  0  0  0  0  0  0  0
    8.3510   -1.5420   24.6110 C   0  0  0  0  0  0  0  0  0  0  0  0
   10.2760   -2.3270   23.4020 C   0  0  0  0  0  0  0  0  0  0  0  0
    6.1600    0.3870   20.1140 C   0  0  0  0  0  0  0  0  0  0  0  0
   11.5217    1.0079   23.5949 C   0  0  0  0  0  0  0  0  0  0  0  0
    5.9810    0.8330   18.8060 C   0  0  0  0  0  0  0  0  0  0  0  0
    9.2850   -3.7090   25.1090 C   0  0  0  0  0  0  0  0  0  0  0  0
    9.3300   -1.3350   23.6390 C   0  0  0  0  0  0  0  0  0  0  0  0
    7.2210   -0.4620   20.0350 C   0  0  0  0  0  0  0  0  0  0  0  0
    8.9510    0.1280   21.6880 C   0  0  0  0  0  0  0  0  0  0  0  0
    8.7666   -4.9523   27.2147 C   0  0  0  0  0  0  0  0  0  0  0  0
    9.3034   -6.1866   25.1651 C   0  0  0  0  0  0  0  0  0  0  0  0
    7.3827   -5.5925   27.1999 C   0  0  0  0  0  0  0  0  0  0  0  0
    7.9024   -6.7967   25.2263 C   0  0  0  0  0  0  0  0  0  0  0  0
   10.0220    1.0430   23.6570 C   0  0  0  0  0  0  0  0  0  0  0  0
    7.6830   -0.5170   18.7600 N   0  0  0  0  0  0  0  0  0  0  0  0
    6.9440    0.2550   18.0100 N   0  0  0  0  0  0  0  0  0  0  0  0
    9.2640   -4.8844   25.8389 N   0  0  0  0  0  0  0  0  0  0  0  0
    8.0810   -0.9750   21.0820 N   0  0  0  0  0  0  0  0  0  0  0  0
    9.4200   -0.0840   22.9530 N   0  0  0  0  0  0  0  0  0  0  0  0
    9.1870    1.1500   21.0630 O   0  0  0  0  0  0  0  0  0  0  0  0
    7.4483   -6.8833   26.5817 O   0  0  0  0  0  0  0  0  0  0  0  0
   15.3932    0.9189   23.4337 H   0  0  0  0  0  0  0  0  0  0  0  0
    3.6274    2.0126   21.6300 H   0  0  0  0  0  0  0  0  0  0  0  0
   14.2029   -0.2090   25.2955 H   0  0  0  0  0  0  0  0  0  0  0  0
   14.1048    2.1043   21.6752 H   0  0  0  0  0  0  0  0  0  0  0  0
    3.2732    2.7875   19.3199 H   0  0  0  0  0  0  0  0  0  0  0  0
    5.4878    0.4645   22.1722 H   0  0  0  0  0  0  0  0  0  0  0  0
   11.7330   -0.1555   25.4027 H   0  0  0  0  0  0  0  0  0  0  0  0
   11.6349    2.1636   21.7735 H   0  0  0  0  0  0  0  0  0  0  0  0
    4.7853    2.0674   17.4815 H   0  0  0  0  0  0  0  0  0  0  0  0
    7.5647   -2.8621   26.1053 H   0  0  0  0  0  0  0  0  0  0  0  0
   11.0144   -4.2642   23.9425 H   0  0  0  0  0  0  0  0  0  0  0  0
    7.5958   -0.7779   24.8006 H   0  0  0  0  0  0  0  0  0  0  0  0
   11.0406   -2.1848   22.6356 H   0  0  0  0  0  0  0  0  0  0  0  0
    8.7030   -3.9561   27.6574 H   0  0  0  0  0  0  0  0  0  0  0  0
    9.4460   -5.5639   27.8143 H   0  0  0  0  0  0  0  0  0  0  0  0
   10.0083   -6.8392   25.6817 H   0  0  0  0  0  0  0  0  0  0  0  0
    9.6089   -6.0802   24.1251 H   0  0  0  0  0  0  0  0  0  0  0  0
    7.0281   -5.7334   28.2231 H   0  0  0  0  0  0  0  0  0  0  0  0
    6.6541   -4.9678   26.6754 H   0  0  0  0  0  0  0  0  0  0  0  0
    7.1860   -6.2177   24.6318 H   0  0  0  0  0  0  0  0  0  0  0  0
    7.9246   -7.8119   24.8187 H   0  0  0  0  0  0  0  0  0  0  0  0
    9.6778    1.0140   24.6966 H   0  0  0  0  0  0  0  0  0  0  0  0
    9.6316    1.9637   23.2107 H   0  0  0  0  0  0  0  0  0  0  0  0
    7.1015    0.3608   17.0505 H   0  0  0  0  0  0  0  0  0  0  0  0
    8.1334   -1.7992   21.3673 H   0  0  0  0  0  0  0  0  0  0  0  0
  1  3  1  0  0  0  0
  1  4  2  0  0  0  0
  2  5  1  0  0  0  0
  2  6  2  0  0  0  0
  3  7  2  0  0  0  0
  4  8  1  0  0  0  0
  5  9  2  0  0  0  0
  6 14  1  0  0  0  0
  7 15  1  0  0  0  0
  8 15  2  0  0  0  0
  9 16  1  0  0  0  0
 10 12  2  0  0  0  0
 10 17  1  0  0  0  0
 11 13  1  0  0  0  0
 11 17  2  0  0  0  0
 12 18  1  0  0  0  0
 13 18  2  0  0  0  0
 14 16  2  0  0  0  0
 14 19  1  0  0  0  0
 15 25  1  0  0  0  0
 16 27  1  0  0  0  0
 17 28  1  0  0  0  0
 18 30  1  0  0  0  0
 19 26  2  0  0  0  0
 19 29  1  0  0  0  0
 20 29  1  0  0  0  0
 20 30  1  0  0  0  0
 20 31  2  0  0  0  0
 21 23  1  0  0  0  0
 21 28  1  0  0  0  0
 22 24  1  0  0  0  0
 22 28  1  0  0  0  0
 23 32  1  0  0  0  0
 24 32  1  0  0  0  0
 25 30  1  0  0  0  0
 26 27  1  0  0  0  0
  1 33  1  0  0  0  0
  2 34  1  0  0  0  0
  3 35  1  0  0  0  0
  4 36  1  0  0  0  0
  5 37  1  0  0  0  0
  6 38  1  0  0  0  0
  7 39  1  0  0  0  0
  8 40  1  0  0  0  0
  9 41  1  0  0  0  0
 10 42  1  0  0  0  0
 11 43  1  0  0  0  0
 12 44  1  0  0  0  0
 13 45  1  0  0  0  0
 21 46  1  0  0  0  0
 21 47  1  0  0  0  0
 22 48  1  0  0  0  0
 22 49  1  0  0  0  0
 23 50  1  0  0  0  0
 23 51  1  0  0  0  0
 24 52  1  0  0  0  0
 24 53  1  0  0  0  0
 25 54  1  0  0  0  0
 25 55  1  0  0  0  0
 27 56  1  0  0  0  0
 29 57  1  0  0  0  0
M  END
> <clash_score>
0

> <docking_score>
-7.156198501586914

> <overlap_score>
1.0165159702301025

$$$$
BENZO_79_1
  -OEChem-08222022383D

 58 62  0     0  0  0  0  0  0999 V2000
    4.2970    1.6690   20.8430 C   0  0  0  0  0  0  0  0  0  0  0  0
    4.0980    2.1130   19.5350 C   0  0  0  0  0  0  0  0  0  0  0  0
    5.3360    0.8000   21.1530 C   0  0  0  0  0  0  0  0  0  0  0  0
    4.9400    1.7060   18.5060 C   0  0  0  0  0  0  0  0  0  0  0  0
    8.3310   -2.7170   25.3430 C   0  0  0  0  0  0  0  0  0  0  0  0
   10.2570   -3.5000   24.1350 C   0  0  0  0  0  0  0  0  0  0  0  0
    8.3510   -1.5420   24.6110 C   0  0  0  0  0  0  0  0  0  0  0  0
   10.2760   -2.3270   23.4020 C   0  0  0  0  0  0  0  0  0  0  0  0
   12.4359    1.7439   24.3724 C   0  0  0  0  0  0  0  0  0  0  0  0
   12.3100    0.2469   22.7668 C   0  0  0  0  0  0  0  0  0  0  0  0
    6.1600    0.3870   20.1140 C   0  0  0  0  0  0  0  0  0  0  0  0
   11.5217    1.0079   23.5949 C   0  0  0  0  0  0  0  0  0  0  0  0
    5.9810    0.8330   18.8060 C   0  0  0  0  0  0  0  0  0  0  0  0
    9.2850   -3.7090   25.1090 C   0  0  0  0  0  0  0  0  0  0  0  0
    9.3300   -1.3350   23.6390 C   0  0  0  0  0  0  0  0  0  0  0  0
    7.2210   -0.4620   20.0350 C   0  0  0  0  0  0  0  0  0  0  0  0
    8.2934   -5.1724   26.8574 C   0  0  0  0  0  0  0  0  0  0  0  0
    8.9510    0.1280   21.6880 C   0  0  0  0  0  0  0  0  0  0  0  0
    8.4443   -6.5251   27.5306 C   0  0  0  0  0  0  0  0  0  0  0  0
    8.6421   -7.6210   26.4982 C   0  0  0  0  0  0  0  0  0  0  0  0
    9.8032   -7.3237   25.5546 C   0  0  0  0  0  0  0  0  0  0  0  0
   10.3452   -5.9024   25.6995 C   0  0  0  0  0  0  0  0  0  0  0  0
   14.7884    0.0124   22.4815 C   0  0  0  0  0  0  0  0  0  0  0  0
   10.0220    1.0430   23.6570 C   0  0  0  0  0  0  0  0  0  0  0  0
   13.7076    1.4745   24.0657 N   0  0  0  0  0  0  0  0  0  0  0  0
    7.6830   -0.5170   18.7600 N   0  0  0  0  0  0  0  0  0  0  0  0
    6.9440    0.2550   18.0100 N   0  0  0  0  0  0  0  0  0  0  0  0
   13.5982    0.5607   23.0864 N   0  0  0  0  0  0  0  0  0  0  0  0
    9.2623   -4.9267   25.8636 N   0  0  0  0  0  0  0  0  0  0  0  0
    8.0810   -0.9750   21.0820 N   0  0  0  0  0  0  0  0  0  0  0  0
    9.4200   -0.0840   22.9530 N   0  0  0  0  0  0  0  0  0  0  0  0
    7.4269   -4.3921   27.2503 O   0  0  0  0  0  0  0  0  0  0  0  0
    9.1870    1.1500   21.0630 O   0  0  0  0  0  0  0  0  0  0  0  0
    3.6274    2.0126   21.6300 H   0  0  0  0  0  0  0  0  0  0  0  0
    3.2732    2.7875   19.3199 H   0  0  0  0  0  0  0  0  0  0  0  0
    5.4878    0.4645   22.1722 H   0  0  0  0  0  0  0  0  0  0  0  0
    4.7853    2.0674   17.4815 H   0  0  0  0  0  0  0  0  0  0  0  0
    7.5639   -2.8621   26.1045 H   0  0  0  0  0  0  0  0  0  0  0  0
   11.0141   -4.2644   23.9422 H   0  0  0  0  0  0  0  0  0  0  0  0
    7.5950   -0.7788   24.8007 H   0  0  0  0  0  0  0  0  0  0  0  0
   11.0408   -2.1861   22.6359 H   0  0  0  0  0  0  0  0  0  0  0  0
   12.2308    2.4652   25.1508 H   0  0  0  0  0  0  0  0  0  0  0  0
   12.0700   -0.4744   21.9974 H   0  0  0  0  0  0  0  0  0  0  0  0
    9.3021   -6.4901   28.1844 H   0  0  0  0  0  0  0  0  0  0  0  0
    7.5489   -6.7067   28.1060 H   0  0  0  0  0  0  0  0  0  0  0  0
    8.8161   -8.5925   27.0061 H   0  0  0  0  0  0  0  0  0  0  0  0
    7.7102   -7.7540   25.9127 H   0  0  0  0  0  0  0  0  0  0  0  0
   10.6240   -8.0484   25.7384 H   0  0  0  0  0  0  0  0  0  0  0  0
    9.4907   -7.5005   24.5024 H   0  0  0  0  0  0  0  0  0  0  0  0
   10.9741   -5.8406   26.5826 H   0  0  0  0  0  0  0  0  0  0  0  0
   10.9262   -5.6455   24.8203 H   0  0  0  0  0  0  0  0  0  0  0  0
   15.0569    0.6453   21.6315 H   0  0  0  0  0  0  0  0  0  0  0  0
   15.5971   -0.0026   23.2175 H   0  0  0  0  0  0  0  0  0  0  0  0
   14.5870   -1.0100   22.1498 H   0  0  0  0  0  0  0  0  0  0  0  0
    9.6778    1.0140   24.6966 H   0  0  0  0  0  0  0  0  0  0  0  0
    9.6316    1.9637   23.2107 H   0  0  0  0  0  0  0  0  0  0  0  0
    7.1015    0.3608   17.0505 H   0  0  0  0  0  0  0  0  0  0  0  0
    8.1334   -1.7992   21.3673 H   0  0  0  0  0  0  0  0  0  0  0  0
  1  2  1  0  0  0  0
  1  3  2  0  0  0  0
  2  4  2  0  0  0  0
  3 11  1  0  0  0  0
  4 13  1  0  0  0  0
  5  7  2  0  0  0  0
  5 14  1  0  0  0  0
  6  8  1  0  0  0  0
  6 14  2  0  0  0  0
  7 15  1  0  0  0  0
  8 15  2  0  0  0  0
  9 12  1  0  0  0  0
  9 25  2  0  0  0  0
 10 12  2  0  0  0  0
 10 28  1  0  0  0  0
 11 13  2  0  0  0  0
 11 16  1  0  0  0  0
 12 24  1  0  0  0  0
 13 27  1  0  0  0  0
 14 29  1  0  0  0  0
 15 31  1  0  0  0  0
 16 26  2  0  0  0  0
 16 30  1  0  0  0  0
 17 19  1  0  0  0  0
 17 29  1  0  0  0  0
 17 32  2  0  0  0  0
 18 30  1  0  0  0  0
 18 31  1  0  0  0  0
 18 33  2  0  0  0  0
 19 20  1  0  0  0  0
 20 21  1  0  0  0  0
 21 22  1  0  0  0  0
 22 29  1  0  0  0  0
 23 28  1  0  0  0  0
 24 31  1  0  0  0  0
 25 28  1  0  0  0  0
 26 27  1  0  0  0  0
  1 34  1  0  0  0  0
  2 35  1  0  0  0  0
  3 36  1  0  0  0  0
  4 37  1  0  0  0  0
  5 38  1  0  0  0  0
  6 39  1  0  0  0  0
  7 40  1  0  0  0  0
  8 41  1  0  0  0  0
  9 42  1  0  0  0  0
 10 43  1  0  0  0  0
 19 44  1  0  0  0  0
 19 45  1  0  0  0  0
 20 46  1  0  0  0  0
 20 47  1  0  0  0  0
 21 48  1  0  0  0  0
 21 49  1  0  0  0  0
 22 50  1  0  0  0  0
 22 51  1  0  0  0  0
 23 52  1  0  0  0  0
 23 53  1  0  0  0  0
 23 54  1  0  0  0  0
 24 55  1  0  0  0  0
 24 56  1  0  0  0  0
 27 57  1  0  0  0  0
 30 58  1  0  0  0  0
M  END
> <clash_score>
0.6927847163055834

> <docking_score>
-5.901350498199463

> <overlap_score>
1.0033576488494873

$$$$
BENZO_78_1
  -OEChem-08222022383D

 58 62  0     0  0  0  0  0  0999 V2000
    4.2970    1.6690   20.8430 C   0  0  0  0  0  0  0  0  0  0  0  0
    4.0980    2.1130   19.5350 C   0  0  0  0  0  0  0  0  0  0  0  0
   13.5977    1.8457   22.6865 C   0  0  0  0  0  0  0  0  0  0  0  0
    5.3360    0.8000   21.1530 C   0  0  0  0  0  0  0  0  0  0  0  0
   12.2044    1.8769   22.7438 C   0  0  0  0  0  0  0  0  0  0  0  0
    4.9400    1.7060   18.5060 C   0  0  0  0  0  0  0  0  0  0  0  0
    8.3310   -2.7170   25.3430 C   0  0  0  0  0  0  0  0  0  0  0  0
   10.2570   -3.5000   24.1350 C   0  0  0  0  0  0  0  0  0  0  0  0
    8.3510   -1.5420   24.6110 C   0  0  0  0  0  0  0  0  0  0  0  0
   10.2760   -2.3270   23.4020 C   0  0  0  0  0  0  0  0  0  0  0  0
   14.3084    0.9453   23.4803 C   0  0  0  0  0  0  0  0  0  0  0  0
   12.2323    0.1076   24.3888 C   0  0  0  0  0  0  0  0  0  0  0  0
    6.1600    0.3870   20.1140 C   0  0  0  0  0  0  0  0  0  0  0  0
   11.5217    1.0079   23.5949 C   0  0  0  0  0  0  0  0  0  0  0  0
    5.9810    0.8330   18.8060 C   0  0  0  0  0  0  0  0  0  0  0  0
    9.2850   -3.7090   25.1090 C   0  0  0  0  0  0  0  0  0  0  0  0
    9.3300   -1.3350   23.6390 C   0  0  0  0  0  0  0  0  0  0  0  0
   13.6257    0.0764   24.3314 C   0  0  0  0  0  0  0  0  0  0  0  0
    7.2210   -0.4620   20.0350 C   0  0  0  0  0  0  0  0  0  0  0  0
    8.2930   -5.1714   26.8572 C   0  0  0  0  0  0  0  0  0  0  0  0
    8.9510    0.1280   21.6880 C   0  0  0  0  0  0  0  0  0  0  0  0
    8.4551   -6.5156   27.5444 C   0  0  0  0  0  0  0  0  0  0  0  0
    9.9019   -6.7444   27.9450 C   0  0  0  0  0  0  0  0  0  0  0  0
   10.8596   -6.5882   26.7680 C   0  0  0  0  0  0  0  0  0  0  0  0
   10.1895   -6.0108   25.5223 C   0  0  0  0  0  0  0  0  0  0  0  0
   10.0220    1.0430   23.6570 C   0  0  0  0  0  0  0  0  0  0  0  0
    7.6830   -0.5170   18.7600 N   0  0  0  0  0  0  0  0  0  0  0  0
    6.9440    0.2550   18.0100 N   0  0  0  0  0  0  0  0  0  0  0  0
    9.2623   -4.9266   25.8635 N   0  0  0  0  0  0  0  0  0  0  0  0
    8.0810   -0.9750   21.0820 N   0  0  0  0  0  0  0  0  0  0  0  0
    9.4200   -0.0840   22.9530 N   0  0  0  0  0  0  0  0  0  0  0  0
    7.3370   -4.4527   27.1463 O   0  0  0  0  0  0  0  0  0  0  0  0
    9.1870    1.1500   21.0630 O   0  0  0  0  0  0  0  0  0  0  0  0
   14.5031   -1.0334   25.3114 Cl  0  0  0  0  0  0  0  0  0  0  0  0
    3.6274    2.0126   21.6300 H   0  0  0  0  0  0  0  0  0  0  0  0
    3.2732    2.7875   19.3199 H   0  0  0  0  0  0  0  0  0  0  0  0
   14.1289    2.5226   22.0237 H   0  0  0  0  0  0  0  0  0  0  0  0
    5.4878    0.4645   22.1722 H   0  0  0  0  0  0  0  0  0  0  0  0
   11.6588    2.5818   22.1218 H   0  0  0  0  0  0  0  0  0  0  0  0
    4.7853    2.0674   17.4815 H   0  0  0  0  0  0  0  0  0  0  0  0
    7.5639   -2.8621   26.1045 H   0  0  0  0  0  0  0  0  0  0  0  0
   11.0141   -4.2644   23.9422 H   0  0  0  0  0  0  0  0  0  0  0  0
    7.5950   -0.7788   24.8007 H   0  0  0  0  0  0  0  0  0  0  0  0
   11.0408   -2.1861   22.6359 H   0  0  0  0  0  0  0  0  0  0  0  0
   15.3941    0.9323   23.4255 H   0  0  0  0  0  0  0  0  0  0  0  0
   11.6954   -0.5682   25.0504 H   0  0  0  0  0  0  0  0  0  0  0  0
    7.8332   -6.5283   28.4263 H   0  0  0  0  0  0  0  0  0  0  0  0
    8.1305   -7.2787   26.8530 H   0  0  0  0  0  0  0  0  0  0  0  0
   10.1875   -6.0379   28.7521 H   0  0  0  0  0  0  0  0  0  0  0  0
   10.0116   -7.7568   28.3834 H   0  0  0  0  0  0  0  0  0  0  0  0
   11.7061   -5.9337   27.0644 H   0  0  0  0  0  0  0  0  0  0  0  0
   11.3230   -7.5689   26.5243 H   0  0  0  0  0  0  0  0  0  0  0  0
   10.9445   -5.5959   24.8614 H   0  0  0  0  0  0  0  0  0  0  0  0
    9.6461   -6.7954   25.0072 H   0  0  0  0  0  0  0  0  0  0  0  0
    9.6778    1.0140   24.6966 H   0  0  0  0  0  0  0  0  0  0  0  0
    9.6316    1.9637   23.2107 H   0  0  0  0  0  0  0  0  0  0  0  0
    7.1015    0.3608   17.0505 H   0  0  0  0  0  0  0  0  0  0  0  0
    8.1334   -1.7992   21.3673 H   0  0  0  0  0  0  0  0  0  0  0  0
  1  2  1  0  0  0  0
  1  4  2  0  0  0  0
  2  6  2  0  0  0  0
  3  5  2  0  0  0  0
  3 11  1  0  0  0  0
  4 13  1  0  0  0  0
  5 14  1  0  0  0  0
  6 15  1  0  0  0  0
  7  9  2  0  0  0  0
  7 16  1  0  0  0  0
  8 10  1  0  0  0  0
  8 16  2  0  0  0  0
  9 17  1  0  0  0  0
 10 17  2  0  0  0  0
 11 18  2  0  0  0  0
 12 14  2  0  0  0  0
 12 18  1  0  0  0  0
 13 15  2  0  0  0  0
 13 19  1  0  0  0  0
 14 26  1  0  0  0  0
 15 28  1  0  0  0  0
 16 29  1  0  0  0  0
 17 31  1  0  0  0  0
 18 34  1  0  0  0  0
 19 27  2  0  0  0  0
 19 30  1  0  0  0  0
 20 22  1  0  0  0  0
 20 29  1  0  0  0  0
 20 32  2  0  0  0  0
 21 30  1  0  0  0  0
 21 31  1  0  0  0  0
 21 33  2  0  0  0  0
 22 23  1  0  0  0  0
 23 24  1  0  0  0  0
 24 25  1  0  0  0  0
 25 29  1  0  0  0  0
 26 31  1  0  0  0  0
 27 28  1  0  0  0  0
  1 35  1  0  0  0  0
  2 36  1  0  0  0  0
  3 37  1  0  0  0  0
  4 38  1  0  0  0  0
  5 39  1  0  0  0  0
  6 40  1  0  0  0  0
  7 41  1  0  0  0  0
  8 42  1  0  0  0  0
  9 43  1  0  0  0  0
 10 44  1  0  0  0  0
 11 45  1  0  0  0  0
 12 46  1  0  0  0  0
 22 47  1  0  0  0  0
 22 48  1  0  0  0  0
 23 49  1  0  0  0  0
 23 50  1  0  0  0  0
 24 51  1  0  0  0  0
 24 52  1  0  0  0  0
 25 53  1  0  0  0  0
 25 54  1  0  0  0  0
 26 55  1  0  0  0  0
 26 56  1  0  0  0  0
 28 57  1  0  0  0  0
 30 58  1  0  0  0  0
M  END
> <clash_score>
2.825943004315734

> <docking_score>
-5.103796005249023

> <overlap_score>
1.021795392036438

$$$$
BENZO_80_1
  -OEChem-08222022383D

 54 58  0     0  0  0  0  0  0999 V2000
    4.2970    1.6690   20.8430 C   0  0  0  0  0  0  0  0  0  0  0  0
    4.0980    2.1130   19.5350 C   0  0  0  0  0  0  0  0  0  0  0  0
    5.3360    0.8000   21.1530 C   0  0  0  0  0  0  0  0  0  0  0  0
    4.9400    1.7060   18.5060 C   0  0  0  0  0  0  0  0  0  0  0  0
    8.3310   -2.7170   25.3430 C   0  0  0  0  0  0  0  0  0  0  0  0
   10.2570   -3.5000   24.1350 C   0  0  0  0  0  0  0  0  0  0  0  0
    8.3510   -1.5420   24.6110 C   0  0  0  0  0  0  0  0  0  0  0  0
   10.2760   -2.3270   23.4020 C   0  0  0  0  0  0  0  0  0  0  0  0
   12.2675    1.0332   22.3812 C   0  0  0  0  0  0  0  0  0  0  0  0
   13.6257    0.9906   22.6074 C   0  0  0  0  0  0  0  0  0  0  0  0
   12.3384    0.9467   24.7028 C   0  0  0  0  0  0  0  0  0  0  0  0
    6.1600    0.3870   20.1140 C   0  0  0  0  0  0  0  0  0  0  0  0
   11.5217    1.0079   23.5949 C   0  0  0  0  0  0  0  0  0  0  0  0
    5.9810    0.8330   18.8060 C   0  0  0  0  0  0  0  0  0  0  0  0
    9.2850   -3.7090   25.1090 C   0  0  0  0  0  0  0  0  0  0  0  0
    9.3300   -1.3350   23.6390 C   0  0  0  0  0  0  0  0  0  0  0  0
    7.2210   -0.4620   20.0350 C   0  0  0  0  0  0  0  0  0  0  0  0
    8.9510    0.1280   21.6880 C   0  0  0  0  0  0  0  0  0  0  0  0
    8.7666   -4.9523   27.2147 C   0  0  0  0  0  0  0  0  0  0  0  0
    9.3034   -6.1866   25.1651 C   0  0  0  0  0  0  0  0  0  0  0  0
    7.3827   -5.5925   27.1999 C   0  0  0  0  0  0  0  0  0  0  0  0
    7.9024   -6.7967   25.2263 C   0  0  0  0  0  0  0  0  0  0  0  0
   10.0220    1.0430   23.6570 C   0  0  0  0  0  0  0  0  0  0  0  0
    7.6830   -0.5170   18.7600 N   0  0  0  0  0  0  0  0  0  0  0  0
    6.9440    0.2550   18.0100 N   0  0  0  0  0  0  0  0  0  0  0  0
    9.2640   -4.8844   25.8389 N   0  0  0  0  0  0  0  0  0  0  0  0
    8.0810   -0.9750   21.0820 N   0  0  0  0  0  0  0  0  0  0  0  0
    9.4200   -0.0840   22.9530 N   0  0  0  0  0  0  0  0  0  0  0  0
    9.1870    1.1500   21.0630 O   0  0  0  0  0  0  0  0  0  0  0  0
    7.4483   -6.8833   26.5817 O   0  0  0  0  0  0  0  0  0  0  0  0
   13.9969    0.9203   24.2776 S   0  0  0  0  0  0  0  0  0  0  0  0
    3.6274    2.0126   21.6300 H   0  0  0  0  0  0  0  0  0  0  0  0
    3.2732    2.7875   19.3199 H   0  0  0  0  0  0  0  0  0  0  0  0
    5.4878    0.4645   22.1722 H   0  0  0  0  0  0  0  0  0  0  0  0
    4.7853    2.0674   17.4815 H   0  0  0  0  0  0  0  0  0  0  0  0
    7.5647   -2.8621   26.1053 H   0  0  0  0  0  0  0  0  0  0  0  0
   11.0144   -4.2642   23.9425 H   0  0  0  0  0  0  0  0  0  0  0  0
    7.5958   -0.7779   24.8006 H   0  0  0  0  0  0  0  0  0  0  0  0
   11.0406   -2.1848   22.6356 H   0  0  0  0  0  0  0  0  0  0  0  0
   11.8338    1.0798   21.3902 H   0  0  0  0  0  0  0  0  0  0  0  0
   14.4176    0.9966   21.8719 H   0  0  0  0  0  0  0  0  0  0  0  0
   12.0446    0.9149   25.7428 H   0  0  0  0  0  0  0  0  0  0  0  0
    8.7030   -3.9561   27.6574 H   0  0  0  0  0  0  0  0  0  0  0  0
    9.4460   -5.5639   27.8143 H   0  0  0  0  0  0  0  0  0  0  0  0
   10.0083   -6.8392   25.6817 H   0  0  0  0  0  0  0  0  0  0  0  0
    9.6089   -6.0802   24.1251 H   0  0  0  0  0  0  0  0  0  0  0  0
    7.0281   -5.7334   28.2231 H   0  0  0  0  0  0  0  0  0  0  0  0
    6.6541   -4.9678   26.6754 H   0  0  0  0  0  0  0  0  0  0  0  0
    7.1860   -6.2177   24.6318 H   0  0  0  0  0  0  0  0  0  0  0  0
    7.9246   -7.8119   24.8187 H   0  0  0  0  0  0  0  0  0  0  0  0
    9.6778    1.0140   24.6966 H   0  0  0  0  0  0  0  0  0  0  0  0
    9.6316    1.9637   23.2107 H   0  0  0  0  0  0  0  0  0  0  0  0
    7.1015    0.3608   17.0505 H   0  0  0  0  0  0  0  0  0  0  0  0
    8.1334   -1.7992   21.3673 H   0  0  0  0  0  0  0  0  0  0  0  0
  1  2  1  0  0  0  0
  1  3  2  0  0  0  0
  2  4  2  0  0  0  0
  3 12  1  0  0  0  0
  4 14  1  0  0  0  0
  5  7  2  0  0  0  0
  5 15  1  0  0  0  0
  6  8  1  0  0  0  0
  6 15  2  0  0  0  0
  7 16  1  0  0  0  0
  8 16  2  0  0  0  0
  9 10  2  0  0  0  0
  9 13  1  0  0  0  0
 10 31  1  0  0  0  0
 11 13  2  0  0  0  0
 11 31  1  0  0  0  0
 12 14  2  0  0  0  0
 12 17  1  0  0  0  0
 13 23  1  0  0  0  0
 14 25  1  0  0  0  0
 15 26  1  0  0  0  0
 16 28  1  0  0  0  0
 17 24  2  0  0  0  0
 17 27  1  0  0  0  0
 18 27  1  0  0  0  0
 18 28  1  0  0  0  0
 18 29  2  0  0  0  0
 19 21  1  0  0  0  0
 19 26  1  0  0  0  0
 20 22  1  0  0  0  0
 20 26  1  0  0  0  0
 21 30  1  0  0  0  0
 22 30  1  0  0  0  0
 23 28  1  0  0  0  0
 24 25  1  0  0  0  0
  1 32  1  0  0  0  0
  2 33  1  0  0  0  0
  3 34  1  0  0  0  0
  4 35  1  0  0  0  0
  5 36  1  0  0  0  0
  6 37  1  0  0  0  0
  7 38  1  0  0  0  0
  8 39  1  0  0  0  0
  9 40  1  0  0  0  0
 10 41  1  0  0  0  0
 11 42  1  0  0  0  0
 19 43  1  0  0  0  0
 19 44  1  0  0  0  0
 20 45  1  0  0  0  0
 20 46  1  0  0  0  0
 21 47  1  0  0  0  0
 21 48  1  0  0  0  0
 22 49  1  0  0  0  0
 22 50  1  0  0  0  0
 23 51  1  0  0  0  0
 23 52  1  0  0  0  0
 25 53  1  0  0  0  0
 27 54  1  0  0  0  0
M  END
> <clash_score>
0

> <docking_score>
-7.402395248413086

> <overlap_score>
0.9908769130706787

$$$$
BENZO_83_1
  -OEChem-08222022383D

 57 61  0     0  0  0  0  0  0999 V2000
    4.2970    1.6690   20.8430 C   0  0  0  0  0  0  0  0  0  0  0  0
    4.0980    2.1130   19.5350 C   0  0  0  0  0  0  0  0  0  0  0  0
    5.3360    0.8000   21.1530 C   0  0  0  0  0  0  0  0  0  0  0  0
    4.9400    1.7060   18.5060 C   0  0  0  0  0  0  0  0  0  0  0  0
    8.3310   -2.7170   25.3430 C   0  0  0  0  0  0  0  0  0  0  0  0
   10.2570   -3.5000   24.1350 C   0  0  0  0  0  0  0  0  0  0  0  0
    8.3510   -1.5420   24.6110 C   0  0  0  0  0  0  0  0  0  0  0  0
   10.2760   -2.3270   23.4020 C   0  0  0  0  0  0  0  0  0  0  0  0
   12.4359    1.7439   24.3724 C   0  0  0  0  0  0  0  0  0  0  0  0
   12.3100    0.2469   22.7668 C   0  0  0  0  0  0  0  0  0  0  0  0
    6.1600    0.3870   20.1140 C   0  0  0  0  0  0  0  0  0  0  0  0
   11.5217    1.0079   23.5949 C   0  0  0  0  0  0  0  0  0  0  0  0
    5.9810    0.8330   18.8060 C   0  0  0  0  0  0  0  0  0  0  0  0
    9.2850   -3.7090   25.1090 C   0  0  0  0  0  0  0  0  0  0  0  0
    9.3300   -1.3350   23.6390 C   0  0  0  0  0  0  0  0  0  0  0  0
    7.2210   -0.4620   20.0350 C   0  0  0  0  0  0  0  0  0  0  0  0
    8.9510    0.1280   21.6880 C   0  0  0  0  0  0  0  0  0  0  0  0
    8.7666   -4.9523   27.2147 C   0  0  0  0  0  0  0  0  0  0  0  0
    9.3034   -6.1866   25.1651 C   0  0  0  0  0  0  0  0  0  0  0  0
    7.3827   -5.5925   27.1999 C   0  0  0  0  0  0  0  0  0  0  0  0
    7.9024   -6.7967   25.2263 C   0  0  0  0  0  0  0  0  0  0  0  0
   14.7884    0.0124   22.4815 C   0  0  0  0  0  0  0  0  0  0  0  0
   10.0220    1.0430   23.6570 C   0  0  0  0  0  0  0  0  0  0  0  0
   13.7076    1.4745   24.0657 N   0  0  0  0  0  0  0  0  0  0  0  0
    7.6830   -0.5170   18.7600 N   0  0  0  0  0  0  0  0  0  0  0  0
    6.9440    0.2550   18.0100 N   0  0  0  0  0  0  0  0  0  0  0  0
   13.5982    0.5607   23.0864 N   0  0  0  0  0  0  0  0  0  0  0  0
    9.2640   -4.8844   25.8389 N   0  0  0  0  0  0  0  0  0  0  0  0
    8.0810   -0.9750   21.0820 N   0  0  0  0  0  0  0  0  0  0  0  0
    9.4200   -0.0840   22.9530 N   0  0  0  0  0  0  0  0  0  0  0  0
    9.1870    1.1500   21.0630 O   0  0  0  0  0  0  0  0  0  0  0  0
    7.4483   -6.8833   26.5817 O   0  0  0  0  0  0  0  0  0  0  0  0
    3.6274    2.0126   21.6300 H   0  0  0  0  0  0  0  0  0  0  0  0
    3.2732    2.7875   19.3199 H   0  0  0  0  0  0  0  0  0  0  0  0
    5.4878    0.4645   22.1722 H   0  0  0  0  0  0  0  0  0  0  0  0
    4.7853    2.0674   17.4815 H   0  0  0  0  0  0  0  0  0  0  0  0
    7.5647   -2.8621   26.1053 H   0  0  0  0  0  0  0  0  0  0  0  0
   11.0144   -4.2642   23.9425 H   0  0  0  0  0  0  0  0  0  0  0  0
    7.5958   -0.7779   24.8006 H   0  0  0  0  0  0  0  0  0  0  0  0
   11.0406   -2.1848   22.6356 H   0  0  0  0  0  0  0  0  0  0  0  0
   12.2308    2.4652   25.1508 H   0  0  0  0  0  0  0  0  0  0  0  0
   12.0700   -0.4744   21.9974 H   0  0  0  0  0  0  0  0  0  0  0  0
    8.7030   -3.9561   27.6574 H   0  0  0  0  0  0  0  0  0  0  0  0
    9.4460   -5.5639   27.8143 H   0  0  0  0  0  0  0  0  0  0  0  0
   10.0083   -6.8392   25.6817 H   0  0  0  0  0  0  0  0  0  0  0  0
    9.6089   -6.0802   24.1251 H   0  0  0  0  0  0  0  0  0  0  0  0
    7.0281   -5.7334   28.2231 H   0  0  0  0  0  0  0  0  0  0  0  0
    6.6541   -4.9678   26.6754 H   0  0  0  0  0  0  0  0  0  0  0  0
    7.1860   -6.2177   24.6318 H   0  0  0  0  0  0  0  0  0  0  0  0
    7.9246   -7.8119   24.8187 H   0  0  0  0  0  0  0  0  0  0  0  0
   15.0569    0.6453   21.6315 H   0  0  0  0  0  0  0  0  0  0  0  0
   15.5971   -0.0026   23.2174 H   0  0  0  0  0  0  0  0  0  0  0  0
   14.5870   -1.0100   22.1498 H   0  0  0  0  0  0  0  0  0  0  0  0
    9.6778    1.0140   24.6966 H   0  0  0  0  0  0  0  0  0  0  0  0
    9.6316    1.9637   23.2107 H   0  0  0  0  0  0  0  0  0  0  0  0
    7.1015    0.3608   17.0505 H   0  0  0  0  0  0  0  0  0  0  0  0
    8.1334   -1.7992   21.3673 H   0  0  0  0  0  0  0  0  0  0  0  0
  1  2  1  0  0  0  0
  1  3  2  0  0  0  0
  2  4  2  0  0  0  0
  3 11  1  0  0  0  0
  4 13  1  0  0  0  0
  5  7  2  0  0  0  0
  5 14  1  0  0  0  0
  6  8  1  0  0  0  0
  6 14  2  0  0  0  0
  7 15  1  0  0  0  0
  8 15  2  0  0  0  0
  9 12  1  0  0  0  0
  9 24  2  0  0  0  0
 10 12  2  0  0  0  0
 10 27  1  0  0  0  0
 11 13  2  0  0  0  0
 11 16  1  0  0  0  0
 12 23  1  0  0  0  0
 13 26  1  0  0  0  0
 14 28  1  0  0  0  0
 15 30  1  0  0  0  0
 16 25  2  0  0  0  0
 16 29  1  0  0  0  0
 17 29  1  0  0  0  0
 17 30  1  0  0  0  0
 17 31  2  0  0  0  0
 18 20  1  0  0  0  0
 18 28  1  0  0  0  0
 19 21  1  0  0  0  0
 19 28  1  0  0  0  0
 20 32  1  0  0  0  0
 21 32  1  0  0  0  0
 22 27  1  0  0  0  0
 23 30  1  0  0  0  0
 24 27  1  0  0  0  0
 25 26  1  0  0  0  0
  1 33  1  0  0  0  0
  2 34  1  0  0  0  0
  3 35  1  0  0  0  0
  4 36  1  0  0  0  0
  5 37  1  0  0  0  0
  6 38  1  0  0  0  0
  7 39  1  0  0  0  0
  8 40  1  0  0  0  0
  9 41  1  0  0  0  0
 10 42  1  0  0  0  0
 18 43  1  0  0  0  0
 18 44  1  0  0  0  0
 19 45  1  0  0  0  0
 19 46  1  0  0  0  0
 20 47  1  0  0  0  0
 20 48  1  0  0  0  0
 21 49  1  0  0  0  0
 21 50  1  0  0  0  0
 22 51  1  0  0  0  0
 22 52  1  0  0  0  0
 22 53  1  0  0  0  0
 23 54  1  0  0  0  0
 23 55  1  0  0  0  0
 26 56  1  0  0  0  0
 29 57  1  0  0  0  0
M  END
> <clash_score>
0

> <docking_score>
-7.370809555053711

> <overlap_score>
1.0026934146881104

$$$$
BENZO_82_1
  -OEChem-08222022383D

 57 61  0     0  0  0  0  0  0999 V2000
    4.2970    1.6690   20.8430 C   0  0  0  0  0  0  0  0  0  0  0  0
    4.0980    2.1130   19.5350 C   0  0  0  0  0  0  0  0  0  0  0  0
   13.5977    1.8457   22.6865 C   0  0  0  0  0  0  0  0  0  0  0  0
    5.3360    0.8000   21.1530 C   0  0  0  0  0  0  0  0  0  0  0  0
   12.2044    1.8769   22.7438 C   0  0  0  0  0  0  0  0  0  0  0  0
    4.9400    1.7060   18.5060 C   0  0  0  0  0  0  0  0  0  0  0  0
    8.3310   -2.7170   25.3430 C   0  0  0  0  0  0  0  0  0  0  0  0
   10.2570   -3.5000   24.1350 C   0  0  0  0  0  0  0  0  0  0  0  0
    8.3510   -1.5420   24.6110 C   0  0  0  0  0  0  0  0  0  0  0  0
   10.2760   -2.3270   23.4020 C   0  0  0  0  0  0  0  0  0  0  0  0
   14.3084    0.9454   23.4803 C   0  0  0  0  0  0  0  0  0  0  0  0
   12.2323    0.1076   24.3888 C   0  0  0  0  0  0  0  0  0  0  0  0
    6.1600    0.3870   20.1140 C   0  0  0  0  0  0  0  0  0  0  0  0
   11.5217    1.0079   23.5949 C   0  0  0  0  0  0  0  0  0  0  0  0
    5.9810    0.8330   18.8060 C   0  0  0  0  0  0  0  0  0  0  0  0
    9.2850   -3.7090   25.1090 C   0  0  0  0  0  0  0  0  0  0  0  0
    9.3300   -1.3350   23.6390 C   0  0  0  0  0  0  0  0  0  0  0  0
   13.6257    0.0764   24.3314 C   0  0  0  0  0  0  0  0  0  0  0  0
    7.2210   -0.4620   20.0350 C   0  0  0  0  0  0  0  0  0  0  0  0
    8.9510    0.1280   21.6880 C   0  0  0  0  0  0  0  0  0  0  0  0
    8.7666   -4.9523   27.2147 C   0  0  0  0  0  0  0  0  0  0  0  0
    9.3034   -6.1866   25.1651 C   0  0  0  0  0  0  0  0  0  0  0  0
    7.3827   -5.5925   27.1999 C   0  0  0  0  0  0  0  0  0  0  0  0
    7.9024   -6.7967   25.2263 C   0  0  0  0  0  0  0  0  0  0  0  0
   10.0220    1.0430   23.6570 C   0  0  0  0  0  0  0  0  0  0  0  0
    7.6830   -0.5170   18.7600 N   0  0  0  0  0  0  0  0  0  0  0  0
    6.9440    0.2550   18.0100 N   0  0  0  0  0  0  0  0  0  0  0  0
    9.2640   -4.8844   25.8389 N   0  0  0  0  0  0  0  0  0  0  0  0
    8.0810   -0.9750   21.0820 N   0  0  0  0  0  0  0  0  0  0  0  0
    9.4200   -0.0840   22.9530 N   0  0  0  0  0  0  0  0  0  0  0  0
    9.1870    1.1500   21.0630 O   0  0  0  0  0  0  0  0  0  0  0  0
    7.4483   -6.8833   26.5817 O   0  0  0  0  0  0  0  0  0  0  0  0
   14.5031   -1.0334   25.3114 Cl  0  0  0  0  0  0  0  0  0  0  0  0
    3.6274    2.0126   21.6300 H   0  0  0  0  0  0  0  0  0  0  0  0
    3.2732    2.7875   19.3199 H   0  0  0  0  0  0  0  0  0  0  0  0
   14.1289    2.5227   22.0237 H   0  0  0  0  0  0  0  0  0  0  0  0
    5.4878    0.4645   22.1722 H   0  0  0  0  0  0  0  0  0  0  0  0
   11.6588    2.5818   22.1218 H   0  0  0  0  0  0  0  0  0  0  0  0
    4.7853    2.0674   17.4815 H   0  0  0  0  0  0  0  0  0  0  0  0
    7.5647   -2.8621   26.1053 H   0  0  0  0  0  0  0  0  0  0  0  0
   11.0144   -4.2642   23.9425 H   0  0  0  0  0  0  0  0  0  0  0  0
    7.5958   -0.7779   24.8006 H   0  0  0  0  0  0  0  0  0  0  0  0
   11.0406   -2.1848   22.6356 H   0  0  0  0  0  0  0  0  0  0  0  0
   15.3941    0.9323   23.4255 H   0  0  0  0  0  0  0  0  0  0  0  0
   11.6954   -0.5682   25.0504 H   0  0  0  0  0  0  0  0  0  0  0  0
    8.7030   -3.9561   27.6574 H   0  0  0  0  0  0  0  0  0  0  0  0
    9.4460   -5.5639   27.8143 H   0  0  0  0  0  0  0  0  0  0  0  0
   10.0083   -6.8392   25.6817 H   0  0  0  0  0  0  0  0  0  0  0  0
    9.6089   -6.0802   24.1251 H   0  0  0  0  0  0  0  0  0  0  0  0
    7.0281   -5.7334   28.2231 H   0  0  0  0  0  0  0  0  0  0  0  0
    6.6541   -4.9678   26.6754 H   0  0  0  0  0  0  0  0  0  0  0  0
    7.1860   -6.2177   24.6318 H   0  0  0  0  0  0  0  0  0  0  0  0
    7.9246   -7.8119   24.8187 H   0  0  0  0  0  0  0  0  0  0  0  0
    9.6778    1.0140   24.6966 H   0  0  0  0  0  0  0  0  0  0  0  0
    9.6316    1.9637   23.2107 H   0  0  0  0  0  0  0  0  0  0  0  0
    7.1015    0.3608   17.0505 H   0  0  0  0  0  0  0  0  0  0  0  0
    8.1334   -1.7992   21.3673 H   0  0  0  0  0  0  0  0  0  0  0  0
  1  2  1  0  0  0  0
  1  4  2  0  0  0  0
  2  6  2  0  0  0  0
  3  5  2  0  0  0  0
  3 11  1  0  0  0  0
  4 13  1  0  0  0  0
  5 14  1  0  0  0  0
  6 15  1  0  0  0  0
  7  9  2  0  0  0  0
  7 16  1  0  0  0  0
  8 10  1  0  0  0  0
  8 16  2  0  0  0  0
  9 17  1  0  0  0  0
 10 17  2  0  0  0  0
 11 18  2  0  0  0  0
 12 14  2  0  0  0  0
 12 18  1  0  0  0  0
 13 15  2  0  0  0  0
 13 19  1  0  0  0  0
 14 25  1  0  0  0  0
 15 27  1  0  0  0  0
 16 28  1  0  0  0  0
 17 30  1  0  0  0  0
 18 33  1  0  0  0  0
 19 26  2  0  0  0  0
 19 29  1  0  0  0  0
 20 29  1  0  0  0  0
 20 30  1  0  0  0  0
 20 31  2  0  0  0  0
 21 23  1  0  0  0  0
 21 28  1  0  0  0  0
 22 24  1  0  0  0  0
 22 28  1  0  0  0  0
 23 32  1  0  0  0  0
 24 32  1  0  0  0  0
 25 30  1  0  0  0  0
 26 27  1  0  0  0  0
  1 34  1  0  0  0  0
  2 35  1  0  0  0  0
  3 36  1  0  0  0  0
  4 37  1  0  0  0  0
  5 38  1  0  0  0  0
  6 39  1  0  0  0  0
  7 40  1  0  0  0  0
  8 41  1  0  0  0  0
  9 42  1  0  0  0  0
 10 43  1  0  0  0  0
 11 44  1  0  0  0  0
 12 45  1  0  0  0  0
 21 46  1  0  0  0  0
 21 47  1  0  0  0  0
 22 48  1  0  0  0  0
 22 49  1  0  0  0  0
 23 50  1  0  0  0  0
 23 51  1  0  0  0  0
 24 52  1  0  0  0  0
 24 53  1  0  0  0  0
 25 54  1  0  0  0  0
 25 55  1  0  0  0  0
 27 56  1  0  0  0  0
 29 57  1  0  0  0  0
M  END
> <clash_score>
0.7662431493808955

> <docking_score>
-6.338096618652344

> <overlap_score>
1.0216708183288574

$$$$
BENZO_85_1
  -OEChem-08222022383D

 51 54  0     0  0  0  0  0  0999 V2000
   14.3082    0.9431   23.4783 C   0  0  0  0  0  0  0  0  0  0  0  0
   13.6391    0.3091   24.5251 C   0  0  0  0  0  0  0  0  0  0  0  0
   13.5841    1.6096   22.4898 C   0  0  0  0  0  0  0  0  0  0  0  0
   12.2459    0.3415   24.5835 C   0  0  0  0  0  0  0  0  0  0  0  0
   12.1908    1.6420   22.5481 C   0  0  0  0  0  0  0  0  0  0  0  0
    8.3510   -1.5420   24.6110 C   0  0  0  0  0  0  0  0  0  0  0  0
   10.2760   -2.3270   23.4020 C   0  0  0  0  0  0  0  0  0  0  0  0
    8.3310   -2.7170   25.3430 C   0  0  0  0  0  0  0  0  0  0  0  0
   10.2570   -3.5000   24.1350 C   0  0  0  0  0  0  0  0  0  0  0  0
   11.5217    1.0079   23.5949 C   0  0  0  0  0  0  0  0  0  0  0  0
    9.3300   -1.3350   23.6390 C   0  0  0  0  0  0  0  0  0  0  0  0
    9.2850   -3.7090   25.1090 C   0  0  0  0  0  0  0  0  0  0  0  0
    6.1600    0.3870   20.1140 C   0  0  0  0  0  0  0  0  0  0  0  0
    7.2210   -0.4620   20.0350 C   0  0  0  0  0  0  0  0  0  0  0  0
    5.3360    0.8000   21.1530 C   0  0  0  0  0  0  0  0  0  0  0  0
    4.2970    1.6690   20.8430 C   0  0  0  0  0  0  0  0  0  0  0  0
    4.0980    2.1130   19.5350 C   0  0  0  0  0  0  0  0  0  0  0  0
    4.9400    1.7060   18.5060 C   0  0  0  0  0  0  0  0  0  0  0  0
    8.9510    0.1280   21.6880 C   0  0  0  0  0  0  0  0  0  0  0  0
    8.2494   -5.1168   26.8639 C   0  0  0  0  0  0  0  0  0  0  0  0
   10.2420   -5.9414   25.5999 C   0  0  0  0  0  0  0  0  0  0  0  0
   10.0220    1.0430   23.6570 C   0  0  0  0  0  0  0  0  0  0  0  0
    7.6830   -0.5170   18.7600 N   0  0  0  0  0  0  0  0  0  0  0  0
    6.9440    0.2550   18.0100 N   0  0  0  0  0  0  0  0  0  0  0  0
    5.9810    0.8330   18.8060 N   0  0  0  0  0  0  0  0  0  0  0  0
    8.0810   -0.9750   21.0820 N   0  0  0  0  0  0  0  0  0  0  0  0
    9.4200   -0.0840   22.9530 N   0  0  0  0  0  0  0  0  0  0  0  0
    9.2624   -4.9028   25.8498 N   0  0  0  0  0  0  0  0  0  0  0  0
    9.1870    1.1500   21.0630 O   0  0  0  0  0  0  0  0  0  0  0  0
   15.3932    0.9189   23.4337 H   0  0  0  0  0  0  0  0  0  0  0  0
   14.2029   -0.2090   25.2955 H   0  0  0  0  0  0  0  0  0  0  0  0
   14.1048    2.1043   21.6752 H   0  0  0  0  0  0  0  0  0  0  0  0
   11.7330   -0.1555   25.4027 H   0  0  0  0  0  0  0  0  0  0  0  0
   11.6349    2.1636   21.7735 H   0  0  0  0  0  0  0  0  0  0  0  0
    7.5947   -0.7787   24.7997 H   0  0  0  0  0  0  0  0  0  0  0  0
   11.0404   -2.1861   22.6352 H   0  0  0  0  0  0  0  0  0  0  0  0
    7.5641   -2.8632   26.1047 H   0  0  0  0  0  0  0  0  0  0  0  0
   11.0135   -4.2647   23.9425 H   0  0  0  0  0  0  0  0  0  0  0  0
    5.4735    0.4758   22.1644 H   0  0  0  0  0  0  0  0  0  0  0  0
    3.6415    1.9967   21.6408 H   0  0  0  0  0  0  0  0  0  0  0  0
    3.2720    2.7926   19.2921 H   0  0  0  0  0  0  0  0  0  0  0  0
    4.8119    2.0418   17.5005 H   0  0  0  0  0  0  0  0  0  0  0  0
    8.3978   -6.1026   27.3289 H   0  0  0  0  0  0  0  0  0  0  0  0
    8.3286   -4.3336   27.6322 H   0  0  0  0  0  0  0  0  0  0  0  0
    7.2526   -5.0764   26.4005 H   0  0  0  0  0  0  0  0  0  0  0  0
   10.0582   -6.7898   26.2756 H   0  0  0  0  0  0  0  0  0  0  0  0
   10.1598   -6.2795   24.5564 H   0  0  0  0  0  0  0  0  0  0  0  0
   11.2519   -5.5433   25.7778 H   0  0  0  0  0  0  0  0  0  0  0  0
    9.6778    1.0140   24.6966 H   0  0  0  0  0  0  0  0  0  0  0  0
    9.6316    1.9637   23.2107 H   0  0  0  0  0  0  0  0  0  0  0  0
    8.1135   -1.8119   21.3500 H   0  0  0  0  0  0  0  0  0  0  0  0
  1  2  1  0  0  0  0
  1  3  2  0  0  0  0
  2  4  2  0  0  0  0
  3  5  1  0  0  0  0
  4 10  1  0  0  0  0
  5 10  2  0  0  0  0
  6  8  2  0  0  0  0
  6 11  1  0  0  0  0
  7  9  1  0  0  0  0
  7 11  2  0  0  0  0
  8 12  1  0  0  0  0
  9 12  2  0  0  0  0
 10 22  1  0  0  0  0
 11 27  1  0  0  0  0
 12 28  1  0  0  0  0
 13 14  2  0  0  0  0
 13 15  1  0  0  0  0
 13 25  1  0  0  0  0
 14 23  1  0  0  0  0
 14 26  1  0  0  0  0
 15 16  2  0  0  0  0
 16 17  1  0  0  0  0
 17 18  2  0  0  0  0
 18 25  1  0  0  0  0
 19 26  1  0  0  0  0
 19 27  1  0  0  0  0
 19 29  2  0  0  0  0
 20 28  1  0  0  0  0
 21 28  1  0  0  0  0
 22 27  1  0  0  0  0
 23 24  2  0  0  0  0
 24 25  1  0  0  0  0
  1 30  1  0  0  0  0
  2 31  1  0  0  0  0
  3 32  1  0  0  0  0
  4 33  1  0  0  0  0
  5 34  1  0  0  0  0
  6 35  1  0  0  0  0
  7 36  1  0  0  0  0
  8 37  1  0  0  0  0
  9 38  1  0  0  0  0
 15 39  1  0  0  0  0
 16 40  1  0  0  0  0
 17 41  1  0  0  0  0
 18 42  1  0  0  0  0
 20 43  1  0  0  0  0
 20 44  1  0  0  0  0
 20 45  1  0  0  0  0
 21 46  1  0  0  0  0
 21 47  1  0  0  0  0
 21 48  1  0  0  0  0
 22 49  1  0  0  0  0
 22 50  1  0  0  0  0
 26 51  1  0  0  0  0
M  END
> <clash_score>
0

> <docking_score>
-9.345742225646973

> <overlap_score>
1.0030865669250488

$$$$
BENZO_84_1
  -OEChem-08222022383D

 48 51  0     0  0  0  0  0  0999 V2000
    8.3510   -1.5420   24.6110 C   0  0  0  0  0  0  0  0  0  0  0  0
   10.2760   -2.3270   23.4020 C   0  0  0  0  0  0  0  0  0  0  0  0
    8.3310   -2.7170   25.3430 C   0  0  0  0  0  0  0  0  0  0  0  0
   10.2570   -3.5000   24.1350 C   0  0  0  0  0  0  0  0  0  0  0  0
   12.2675    1.0332   22.3812 C   0  0  0  0  0  0  0  0  0  0  0  0
   13.6257    0.9906   22.6074 C   0  0  0  0  0  0  0  0  0  0  0  0
   12.3384    0.9467   24.7028 C   0  0  0  0  0  0  0  0  0  0  0  0
   11.5217    1.0079   23.5949 C   0  0  0  0  0  0  0  0  0  0  0  0
    9.3300   -1.3350   23.6390 C   0  0  0  0  0  0  0  0  0  0  0  0
    9.2850   -3.7090   25.1090 C   0  0  0  0  0  0  0  0  0  0  0  0
    6.1600    0.3870   20.1140 C   0  0  0  0  0  0  0  0  0  0  0  0
    7.2210   -0.4620   20.0350 C   0  0  0  0  0  0  0  0  0  0  0  0
    5.3360    0.8000   21.1530 C   0  0  0  0  0  0  0  0  0  0  0  0
    4.2970    1.6690   20.8430 C   0  0  0  0  0  0  0  0  0  0  0  0
    4.0980    2.1130   19.5350 C   0  0  0  0  0  0  0  0  0  0  0  0
    4.9400    1.7060   18.5060 C   0  0  0  0  0  0  0  0  0  0  0  0
    8.9510    0.1280   21.6880 C   0  0  0  0  0  0  0  0  0  0  0  0
    8.2494   -5.1168   26.8639 C   0  0  0  0  0  0  0  0  0  0  0  0
   10.2420   -5.9414   25.5999 C   0  0  0  0  0  0  0  0  0  0  0  0
   10.0220    1.0430   23.6570 C   0  0  0  0  0  0  0  0  0  0  0  0
    7.6830   -0.5170   18.7600 N   0  0  0  0  0  0  0  0  0  0  0  0
    6.9440    0.2550   18.0100 N   0  0  0  0  0  0  0  0  0  0  0  0
    5.9810    0.8330   18.8060 N   0  0  0  0  0  0  0  0  0  0  0  0
    8.0810   -0.9750   21.0820 N   0  0  0  0  0  0  0  0  0  0  0  0
    9.4200   -0.0840   22.9530 N   0  0  0  0  0  0  0  0  0  0  0  0
    9.2624   -4.9028   25.8498 N   0  0  0  0  0  0  0  0  0  0  0  0
    9.1870    1.1500   21.0630 O   0  0  0  0  0  0  0  0  0  0  0  0
   13.9969    0.9203   24.2776 S   0  0  0  0  0  0  0  0  0  0  0  0
    7.5947   -0.7787   24.7997 H   0  0  0  0  0  0  0  0  0  0  0  0
   11.0404   -2.1861   22.6352 H   0  0  0  0  0  0  0  0  0  0  0  0
    7.5641   -2.8632   26.1047 H   0  0  0  0  0  0  0  0  0  0  0  0
   11.0135   -4.2647   23.9425 H   0  0  0  0  0  0  0  0  0  0  0  0
   11.8338    1.0798   21.3902 H   0  0  0  0  0  0  0  0  0  0  0  0
   14.4176    0.9966   21.8719 H   0  0  0  0  0  0  0  0  0  0  0  0
   12.0446    0.9149   25.7428 H   0  0  0  0  0  0  0  0  0  0  0  0
    5.4735    0.4758   22.1644 H   0  0  0  0  0  0  0  0  0  0  0  0
    3.6415    1.9967   21.6408 H   0  0  0  0  0  0  0  0  0  0  0  0
    3.2720    2.7926   19.2921 H   0  0  0  0  0  0  0  0  0  0  0  0
    4.8119    2.0418   17.5005 H   0  0  0  0  0  0  0  0  0  0  0  0
    8.3978   -6.1026   27.3289 H   0  0  0  0  0  0  0  0  0  0  0  0
    8.3286   -4.3336   27.6322 H   0  0  0  0  0  0  0  0  0  0  0  0
    7.2526   -5.0764   26.4005 H   0  0  0  0  0  0  0  0  0  0  0  0
   10.0582   -6.7898   26.2756 H   0  0  0  0  0  0  0  0  0  0  0  0
   10.1598   -6.2795   24.5564 H   0  0  0  0  0  0  0  0  0  0  0  0
   11.2519   -5.5433   25.7778 H   0  0  0  0  0  0  0  0  0  0  0  0
    9.6778    1.0140   24.6966 H   0  0  0  0  0  0  0  0  0  0  0  0
    9.6316    1.9637   23.2107 H   0  0  0  0  0  0  0  0  0  0  0  0
    8.1135   -1.8119   21.3500 H   0  0  0  0  0  0  0  0  0  0  0  0
  1  3  2  0  0  0  0
  1  9  1  0  0  0  0
  2  4  1  0  0  0  0
  2  9  2  0  0  0  0
  3 10  1  0  0  0  0
  4 10  2  0  0  0  0
  5  6  2  0  0  0  0
  5  8  1  0  0  0  0
  6 28  1  0  0  0  0
  7  8  2  0  0  0  0
  7 28  1  0  0  0  0
  8 20  1  0  0  0  0
  9 25  1  0  0  0  0
 10 26  1  0  0  0  0
 11 12  2  0  0  0  0
 11 13  1  0  0  0  0
 11 23  1  0  0  0  0
 12 21  1  0  0  0  0
 12 24  1  0  0  0  0
 13 14  2  0  0  0  0
 14 15  1  0  0  0  0
 15 16  2  0  0  0  0
 16 23  1  0  0  0  0
 17 24  1  0  0  0  0
 17 25  1  0  0  0  0
 17 27  2  0  0  0  0
 18 26  1  0  0  0  0
 19 26  1  0  0  0  0
 20 25  1  0  0  0  0
 21 22  2  0  0  0  0
 22 23  1  0  0  0  0
  1 29  1  0  0  0  0
  2 30  1  0  0  0  0
  3 31  1  0  0  0  0
  4 32  1  0  0  0  0
  5 33  1  0  0  0  0
  6 34  1  0  0  0  0
  7 35  1  0  0  0  0
 13 36  1  0  0  0  0
 14 37  1  0  0  0  0
 15 38  1  0  0  0  0
 16 39  1  0  0  0  0
 18 40  1  0  0  0  0
 18 41  1  0  0  0  0
 18 42  1  0  0  0  0
 19 43  1  0  0  0  0
 19 44  1  0  0  0  0
 19 45  1  0  0  0  0
 20 46  1  0  0  0  0
 20 47  1  0  0  0  0
 24 48  1  0  0  0  0
M  END
> <clash_score>
0

> <docking_score>
-9.591943740844727

> <overlap_score>
0.9772631525993347

$$$$
BENZO_87_1
  -OEChem-08222022383D

 51 54  0     0  0  0  0  0  0999 V2000
    8.3510   -1.5420   24.6110 C   0  0  0  0  0  0  0  0  0  0  0  0
   10.2760   -2.3270   23.4020 C   0  0  0  0  0  0  0  0  0  0  0  0
    8.3310   -2.7170   25.3430 C   0  0  0  0  0  0  0  0  0  0  0  0
   10.2570   -3.5000   24.1350 C   0  0  0  0  0  0  0  0  0  0  0  0
   12.4359    1.7439   24.3724 C   0  0  0  0  0  0  0  0  0  0  0  0
   12.3100    0.2469   22.7668 C   0  0  0  0  0  0  0  0  0  0  0  0
   11.5217    1.0079   23.5949 C   0  0  0  0  0  0  0  0  0  0  0  0
    9.3300   -1.3350   23.6390 C   0  0  0  0  0  0  0  0  0  0  0  0
    9.2850   -3.7090   25.1090 C   0  0  0  0  0  0  0  0  0  0  0  0
    6.1600    0.3870   20.1140 C   0  0  0  0  0  0  0  0  0  0  0  0
    7.2210   -0.4620   20.0350 C   0  0  0  0  0  0  0  0  0  0  0  0
    5.3360    0.8000   21.1530 C   0  0  0  0  0  0  0  0  0  0  0  0
    4.2970    1.6690   20.8430 C   0  0  0  0  0  0  0  0  0  0  0  0
    4.0980    2.1130   19.5350 C   0  0  0  0  0  0  0  0  0  0  0  0
    4.9400    1.7060   18.5060 C   0  0  0  0  0  0  0  0  0  0  0  0
    8.9510    0.1280   21.6880 C   0  0  0  0  0  0  0  0  0  0  0  0
   14.7884    0.0124   22.4815 C   0  0  0  0  0  0  0  0  0  0  0  0
    8.2494   -5.1168   26.8639 C   0  0  0  0  0  0  0  0  0  0  0  0
   10.2420   -5.9414   25.5999 C   0  0  0  0  0  0  0  0  0  0  0  0
   10.0220    1.0430   23.6570 C   0  0  0  0  0  0  0  0  0  0  0  0
   13.7076    1.4745   24.0657 N   0  0  0  0  0  0  0  0  0  0  0  0
    7.6830   -0.5170   18.7600 N   0  0  0  0  0  0  0  0  0  0  0  0
    6.9440    0.2550   18.0100 N   0  0  0  0  0  0  0  0  0  0  0  0
   13.5982    0.5607   23.0864 N   0  0  0  0  0  0  0  0  0  0  0  0
    5.9810    0.8330   18.8060 N   0  0  0  0  0  0  0  0  0  0  0  0
    8.0810   -0.9750   21.0820 N   0  0  0  0  0  0  0  0  0  0  0  0
    9.4200   -0.0840   22.9530 N   0  0  0  0  0  0  0  0  0  0  0  0
    9.2624   -4.9028   25.8498 N   0  0  0  0  0  0  0  0  0  0  0  0
    9.1870    1.1500   21.0630 O   0  0  0  0  0  0  0  0  0  0  0  0
    7.5947   -0.7787   24.7997 H   0  0  0  0  0  0  0  0  0  0  0  0
   11.0404   -2.1861   22.6352 H   0  0  0  0  0  0  0  0  0  0  0  0
    7.5641   -2.8632   26.1047 H   0  0  0  0  0  0  0  0  0  0  0  0
   11.0135   -4.2647   23.9425 H   0  0  0  0  0  0  0  0  0  0  0  0
   12.2308    2.4652   25.1508 H   0  0  0  0  0  0  0  0  0  0  0  0
   12.0700   -0.4744   21.9974 H   0  0  0  0  0  0  0  0  0  0  0  0
    5.4735    0.4758   22.1644 H   0  0  0  0  0  0  0  0  0  0  0  0
    3.6415    1.9967   21.6408 H   0  0  0  0  0  0  0  0  0  0  0  0
    3.2720    2.7926   19.2921 H   0  0  0  0  0  0  0  0  0  0  0  0
    4.8119    2.0418   17.5005 H   0  0  0  0  0  0  0  0  0  0  0  0
   15.0569    0.6453   21.6315 H   0  0  0  0  0  0  0  0  0  0  0  0
   15.5971   -0.0026   23.2174 H   0  0  0  0  0  0  0  0  0  0  0  0
   14.5870   -1.0100   22.1498 H   0  0  0  0  0  0  0  0  0  0  0  0
    8.3978   -6.1026   27.3289 H   0  0  0  0  0  0  0  0  0  0  0  0
    8.3286   -4.3336   27.6322 H   0  0  0  0  0  0  0  0  0  0  0  0
    7.2526   -5.0764   26.4005 H   0  0  0  0  0  0  0  0  0  0  0  0
   10.0582   -6.7898   26.2756 H   0  0  0  0  0  0  0  0  0  0  0  0
   10.1598   -6.2795   24.5564 H   0  0  0  0  0  0  0  0  0  0  0  0
   11.2519   -5.5433   25.7778 H   0  0  0  0  0  0  0  0  0  0  0  0
    9.6778    1.0140   24.6966 H   0  0  0  0  0  0  0  0  0  0  0  0
    9.6316    1.9637   23.2107 H   0  0  0  0  0  0  0  0  0  0  0  0
    8.1135   -1.8119   21.3500 H   0  0  0  0  0  0  0  0  0  0  0  0
  1  3  2  0  0  0  0
  1  8  1  0  0  0  0
  2  4  1  0  0  0  0
  2  8  2  0  0  0  0
  3  9  1  0  0  0  0
  4  9  2  0  0  0  0
  5  7  1  0  0  0  0
  5 21  2  0  0  0  0
  6  7  2  0  0  0  0
  6 24  1  0  0  0  0
  7 20  1  0  0  0  0
  8 27  1  0  0  0  0
  9 28  1  0  0  0  0
 10 11  2  0  0  0  0
 10 12  1  0  0  0  0
 10 25  1  0  0  0  0
 11 22  1  0  0  0  0
 11 26  1  0  0  0  0
 12 13  2  0  0  0  0
 13 14  1  0  0  0  0
 14 15  2  0  0  0  0
 15 25  1  0  0  0  0
 16 26  1  0  0  0  0
 16 27  1  0  0  0  0
 16 29  2  0  0  0  0
 17 24  1  0  0  0  0
 18 28  1  0  0  0  0
 19 28  1  0  0  0  0
 20 27  1  0  0  0  0
 21 24  1  0  0  0  0
 22 23  2  0  0  0  0
 23 25  1  0  0  0  0
  1 30  1  0  0  0  0
  2 31  1  0  0  0  0
  3 32  1  0  0  0  0
  4 33  1  0  0  0  0
  5 34  1  0  0  0  0
  6 35  1  0  0  0  0
 12 36  1  0  0  0  0
 13 37  1  0  0  0  0
 14 38  1  0  0  0  0
 15 39  1  0  0  0  0
 17 40  1  0  0  0  0
 17 41  1  0  0  0  0
 17 42  1  0  0  0  0
 18 43  1  0  0  0  0
 18 44  1  0  0  0  0
 18 45  1  0  0  0  0
 19 46  1  0  0  0  0
 19 47  1  0  0  0  0
 19 48  1  0  0  0  0
 20 49  1  0  0  0  0
 20 50  1  0  0  0  0
 26 51  1  0  0  0  0
M  END
> <clash_score>
0

> <docking_score>
-9.5603666305542

> <overlap_score>
0.9891871809959412

$$$$
BENZO_86_1
  -OEChem-08222022383D

 51 54  0     0  0  0  0  0  0999 V2000
   13.5977    1.8457   22.6865 C   0  0  0  0  0  0  0  0  0  0  0  0
   12.2044    1.8769   22.7438 C   0  0  0  0  0  0  0  0  0  0  0  0
    8.3510   -1.5420   24.6110 C   0  0  0  0  0  0  0  0  0  0  0  0
   10.2760   -2.3270   23.4020 C   0  0  0  0  0  0  0  0  0  0  0  0
    8.3310   -2.7170   25.3430 C   0  0  0  0  0  0  0  0  0  0  0  0
   10.2570   -3.5000   24.1350 C   0  0  0  0  0  0  0  0  0  0  0  0
   14.3084    0.9454   23.4803 C   0  0  0  0  0  0  0  0  0  0  0  0
   12.2323    0.1076   24.3888 C   0  0  0  0  0  0  0  0  0  0  0  0
   11.5217    1.0079   23.5949 C   0  0  0  0  0  0  0  0  0  0  0  0
    9.3300   -1.3350   23.6390 C   0  0  0  0  0  0  0  0  0  0  0  0
    9.2850   -3.7090   25.1090 C   0  0  0  0  0  0  0  0  0  0  0  0
   13.6257    0.0764   24.3314 C   0  0  0  0  0  0  0  0  0  0  0  0
    6.1600    0.3870   20.1140 C   0  0  0  0  0  0  0  0  0  0  0  0
    7.2210   -0.4620   20.0350 C   0  0  0  0  0  0  0  0  0  0  0  0
    5.3360    0.8000   21.1530 C   0  0  0  0  0  0  0  0  0  0  0  0
    4.2970    1.6690   20.8430 C   0  0  0  0  0  0  0  0  0  0  0  0
    4.0980    2.1130   19.5350 C   0  0  0  0  0  0  0  0  0  0  0  0
    4.9400    1.7060   18.5060 C   0  0  0  0  0  0  0  0  0  0  0  0
    8.9510    0.1280   21.6880 C   0  0  0  0  0  0  0  0  0  0  0  0
    8.2494   -5.1168   26.8639 C   0  0  0  0  0  0  0  0  0  0  0  0
   10.2420   -5.9414   25.5999 C   0  0  0  0  0  0  0  0  0  0  0  0
   10.0220    1.0430   23.6570 C   0  0  0  0  0  0  0  0  0  0  0  0
    7.6830   -0.5170   18.7600 N   0  0  0  0  0  0  0  0  0  0  0  0
    6.9440    0.2550   18.0100 N   0  0  0  0  0  0  0  0  0  0  0  0
    5.9810    0.8330   18.8060 N   0  0  0  0  0  0  0  0  0  0  0  0
    8.0810   -0.9750   21.0820 N   0  0  0  0  0  0  0  0  0  0  0  0
    9.4200   -0.0840   22.9530 N   0  0  0  0  0  0  0  0  0  0  0  0
    9.2624   -4.9028   25.8498 N   0  0  0  0  0  0  0  0  0  0  0  0
    9.1870    1.1500   21.0630 O   0  0  0  0  0  0  0  0  0  0  0  0
   14.5031   -1.0334   25.3114 Cl  0  0  0  0  0  0  0  0  0  0  0  0
   14.1289    2.5227   22.0237 H   0  0  0  0  0  0  0  0  0  0  0  0
   11.6588    2.5818   22.1218 H   0  0  0  0  0  0  0  0  0  0  0  0
    7.5947   -0.7787   24.7997 H   0  0  0  0  0  0  0  0  0  0  0  0
   11.0404   -2.1861   22.6352 H   0  0  0  0  0  0  0  0  0  0  0  0
    7.5641   -2.8632   26.1047 H   0  0  0  0  0  0  0  0  0  0  0  0
   11.0135   -4.2647   23.9425 H   0  0  0  0  0  0  0  0  0  0  0  0
   15.3941    0.9323   23.4255 H   0  0  0  0  0  0  0  0  0  0  0  0
   11.6954   -0.5682   25.0504 H   0  0  0  0  0  0  0  0  0  0  0  0
    5.4735    0.4758   22.1644 H   0  0  0  0  0  0  0  0  0  0  0  0
    3.6415    1.9967   21.6408 H   0  0  0  0  0  0  0  0  0  0  0  0
    3.2720    2.7926   19.2921 H   0  0  0  0  0  0  0  0  0  0  0  0
    4.8119    2.0418   17.5005 H   0  0  0  0  0  0  0  0  0  0  0  0
    8.3978   -6.1026   27.3289 H   0  0  0  0  0  0  0  0  0  0  0  0
    8.3286   -4.3336   27.6322 H   0  0  0  0  0  0  0  0  0  0  0  0
    7.2526   -5.0764   26.4005 H   0  0  0  0  0  0  0  0  0  0  0  0
   10.0582   -6.7898   26.2756 H   0  0  0  0  0  0  0  0  0  0  0  0
   10.1598   -6.2795   24.5564 H   0  0  0  0  0  0  0  0  0  0  0  0
   11.2519   -5.5433   25.7778 H   0  0  0  0  0  0  0  0  0  0  0  0
    9.6778    1.0140   24.6966 H   0  0  0  0  0  0  0  0  0  0  0  0
    9.6316    1.9637   23.2107 H   0  0  0  0  0  0  0  0  0  0  0  0
    8.1135   -1.8119   21.3500 H   0  0  0  0  0  0  0  0  0  0  0  0
  1  2  2  0  0  0  0
  1  7  1  0  0  0  0
  2  9  1  0  0  0  0
  3  5  2  0  0  0  0
  3 10  1  0  0  0  0
  4  6  1  0  0  0  0
  4 10  2  0  0  0  0
  5 11  1  0  0  0  0
  6 11  2  0  0  0  0
  7 12  2  0  0  0  0
  8  9  2  0  0  0  0
  8 12  1  0  0  0  0
  9 22  1  0  0  0  0
 10 27  1  0  0  0  0
 11 28  1  0  0  0  0
 12 30  1  0  0  0  0
 13 14  2  0  0  0  0
 13 15  1  0  0  0  0
 13 25  1  0  0  0  0
 14 23  1  0  0  0  0
 14 26  1  0  0  0  0
 15 16  2  0  0  0  0
 16 17  1  0  0  0  0
 17 18  2  0  0  0  0
 18 25  1  0  0  0  0
 19 26  1  0  0  0  0
 19 27  1  0  0  0  0
 19 29  2  0  0  0  0
 20 28  1  0  0  0  0
 21 28  1  0  0  0  0
 22 27  1  0  0  0  0
 23 24  2  0  0  0  0
 24 25  1  0  0  0  0
  1 31  1  0  0  0  0
  2 32  1  0  0  0  0
  3 33  1  0  0  0  0
  4 34  1  0  0  0  0
  5 35  1  0  0  0  0
  6 36  1  0  0  0  0
  7 37  1  0  0  0  0
  8 38  1  0  0  0  0
 15 39  1  0  0  0  0
 16 40  1  0  0  0  0
 17 41  1  0  0  0  0
 18 42  1  0  0  0  0
 20 43  1  0  0  0  0
 20 44  1  0  0  0  0
 20 45  1  0  0  0  0
 21 46  1  0  0  0  0
 21 47  1  0  0  0  0
 21 48  1  0  0  0  0
 22 49  1  0  0  0  0
 22 50  1  0  0  0  0
 26 51  1  0  0  0  0
M  END
> <clash_score>
0.7662434068161399

> <docking_score>
-8.5276517868042

> <overlap_score>
1.0082917213439941

$$$$
BENZO_89_1
  -OEChem-08222022383D

 53 56  0     0  0  0  0  0  0999 V2000
   14.3082    0.9431   23.4783 C   0  0  0  0  0  0  0  0  0  0  0  0
   13.6391    0.3091   24.5251 C   0  0  0  0  0  0  0  0  0  0  0  0
   13.5841    1.6096   22.4898 C   0  0  0  0  0  0  0  0  0  0  0  0
   12.2459    0.3415   24.5835 C   0  0  0  0  0  0  0  0  0  0  0  0
   12.1908    1.6420   22.5481 C   0  0  0  0  0  0  0  0  0  0  0  0
    8.3310   -2.7170   25.3430 C   0  0  0  0  0  0  0  0  0  0  0  0
   10.2570   -3.5000   24.1350 C   0  0  0  0  0  0  0  0  0  0  0  0
    8.3510   -1.5420   24.6110 C   0  0  0  0  0  0  0  0  0  0  0  0
   10.2760   -2.3270   23.4020 C   0  0  0  0  0  0  0  0  0  0  0  0
   11.5217    1.0079   23.5949 C   0  0  0  0  0  0  0  0  0  0  0  0
    9.2850   -3.7090   25.1090 C   0  0  0  0  0  0  0  0  0  0  0  0
    9.3300   -1.3350   23.6390 C   0  0  0  0  0  0  0  0  0  0  0  0
    6.1600    0.3870   20.1140 C   0  0  0  0  0  0  0  0  0  0  0  0
    7.2210   -0.4620   20.0350 C   0  0  0  0  0  0  0  0  0  0  0  0
    5.3360    0.8000   21.1530 C   0  0  0  0  0  0  0  0  0  0  0  0
    4.2970    1.6690   20.8430 C   0  0  0  0  0  0  0  0  0  0  0  0
    4.0980    2.1130   19.5350 C   0  0  0  0  0  0  0  0  0  0  0  0
    4.9400    1.7060   18.5060 C   0  0  0  0  0  0  0  0  0  0  0  0
    9.6838   -6.1690   25.4414 C   0  0  0  0  0  0  0  0  0  0  0  0
    8.9510    0.1280   21.6880 C   0  0  0  0  0  0  0  0  0  0  0  0
    8.0382   -7.2886   27.0047 C   0  0  0  0  0  0  0  0  0  0  0  0
   10.0220    1.0430   23.6570 C   0  0  0  0  0  0  0  0  0  0  0  0
    9.4846   -7.1864   26.5550 C   0  0  0  0  0  0  0  0  0  0  0  0
    7.6830   -0.5170   18.7600 N   0  0  0  0  0  0  0  0  0  0  0  0
    6.9440    0.2550   18.0100 N   0  0  0  0  0  0  0  0  0  0  0  0
    5.9810    0.8330   18.8060 N   0  0  0  0  0  0  0  0  0  0  0  0
    9.2630   -4.8902   25.8410 N   0  0  0  0  0  0  0  0  0  0  0  0
    8.0810   -0.9750   21.0820 N   0  0  0  0  0  0  0  0  0  0  0  0
    9.4200   -0.0840   22.9530 N   0  0  0  0  0  0  0  0  0  0  0  0
   10.1564   -6.4800   24.3530 O   0  0  0  0  0  0  0  0  0  0  0  0
    9.1870    1.1500   21.0630 O   0  0  0  0  0  0  0  0  0  0  0  0
   15.3932    0.9189   23.4337 H   0  0  0  0  0  0  0  0  0  0  0  0
   14.2029   -0.2090   25.2955 H   0  0  0  0  0  0  0  0  0  0  0  0
   14.1048    2.1043   21.6752 H   0  0  0  0  0  0  0  0  0  0  0  0
   11.7330   -0.1555   25.4027 H   0  0  0  0  0  0  0  0  0  0  0  0
   11.6349    2.1636   21.7735 H   0  0  0  0  0  0  0  0  0  0  0  0
    7.5639   -2.8621   26.1045 H   0  0  0  0  0  0  0  0  0  0  0  0
   11.0141   -4.2644   23.9422 H   0  0  0  0  0  0  0  0  0  0  0  0
    7.5950   -0.7788   24.8007 H   0  0  0  0  0  0  0  0  0  0  0  0
   11.0408   -2.1861   22.6359 H   0  0  0  0  0  0  0  0  0  0  0  0
    5.4735    0.4758   22.1644 H   0  0  0  0  0  0  0  0  0  0  0  0
    3.6415    1.9967   21.6408 H   0  0  0  0  0  0  0  0  0  0  0  0
    3.2720    2.7926   19.2921 H   0  0  0  0  0  0  0  0  0  0  0  0
    4.8119    2.0418   17.5005 H   0  0  0  0  0  0  0  0  0  0  0  0
    7.6702   -6.3234   27.3680 H   0  0  0  0  0  0  0  0  0  0  0  0
    7.9416   -8.0182   27.8146 H   0  0  0  0  0  0  0  0  0  0  0  0
    7.3915   -7.6055   26.1799 H   0  0  0  0  0  0  0  0  0  0  0  0
    9.6778    1.0140   24.6966 H   0  0  0  0  0  0  0  0  0  0  0  0
    9.6316    1.9637   23.2107 H   0  0  0  0  0  0  0  0  0  0  0  0
    9.8260   -8.1645   26.1971 H   0  0  0  0  0  0  0  0  0  0  0  0
   10.1125   -6.8979   27.4058 H   0  0  0  0  0  0  0  0  0  0  0  0
    8.8927   -4.8255   26.7964 H   0  0  0  0  0  0  0  0  0  0  0  0
    8.1135   -1.8119   21.3500 H   0  0  0  0  0  0  0  0  0  0  0  0
  1  2  1  0  0  0  0
  1  3  2  0  0  0  0
  2  4  2  0  0  0  0
  3  5  1  0  0  0  0
  4 10  1  0  0  0  0
  5 10  2  0  0  0  0
  6  8  2  0  0  0  0
  6 11  1  0  0  0  0
  7  9  1  0  0  0  0
  7 11  2  0  0  0  0
  8 12  1  0  0  0  0
  9 12  2  0  0  0  0
 10 22  1  0  0  0  0
 11 27  1  0  0  0  0
 12 29  1  0  0  0  0
 13 14  2  0  0  0  0
 13 15  1  0  0  0  0
 13 26  1  0  0  0  0
 14 24  1  0  0  0  0
 14 28  1  0  0  0  0
 15 16  2  0  0  0  0
 16 17  1  0  0  0  0
 17 18  2  0  0  0  0
 18 26  1  0  0  0  0
 19 23  1  0  0  0  0
 19 27  1  0  0  0  0
 19 30  2  0  0  0  0
 20 28  1  0  0  0  0
 20 29  1  0  0  0  0
 20 31  2  0  0  0  0
 21 23  1  0  0  0  0
 22 29  1  0  0  0  0
 24 25  2  0  0  0  0
 25 26  1  0  0  0  0
  1 32  1  0  0  0  0
  2 33  1  0  0  0  0
  3 34  1  0  0  0  0
  4 35  1  0  0  0  0
  5 36  1  0  0  0  0
  6 37  1  0  0  0  0
  7 38  1  0  0  0  0
  8 39  1  0  0  0  0
  9 40  1  0  0  0  0
 15 41  1  0  0  0  0
 16 42  1  0  0  0  0
 17 43  1  0  0  0  0
 18 44  1  0  0  0  0
 21 45  1  0  0  0  0
 21 46  1  0  0  0  0
 21 47  1  0  0  0  0
 22 48  1  0  0  0  0
 22 49  1  0  0  0  0
 23 50  1  0  0  0  0
 23 51  1  0  0  0  0
 27 52  1  0  0  0  0
 28 53  1  0  0  0  0
M  END
> <clash_score>
1.3333318184124714

> <docking_score>
-5.823924541473389

> <overlap_score>
0.9871543645858765

$$$$
BENZO_88_1
  -OEChem-08222022383D

 50 53  0     0  0  0  0  0  0999 V2000
    8.3310   -2.7170   25.3430 C   0  0  0  0  0  0  0  0  0  0  0  0
   10.2570   -3.5000   24.1350 C   0  0  0  0  0  0  0  0  0  0  0  0
    8.3510   -1.5420   24.6110 C   0  0  0  0  0  0  0  0  0  0  0  0
   10.2760   -2.3270   23.4020 C   0  0  0  0  0  0  0  0  0  0  0  0
   12.2675    1.0332   22.3812 C   0  0  0  0  0  0  0  0  0  0  0  0
   13.6257    0.9906   22.6074 C   0  0  0  0  0  0  0  0  0  0  0  0
   12.3384    0.9467   24.7028 C   0  0  0  0  0  0  0  0  0  0  0  0
   11.5217    1.0079   23.5949 C   0  0  0  0  0  0  0  0  0  0  0  0
    9.2850   -3.7090   25.1090 C   0  0  0  0  0  0  0  0  0  0  0  0
    9.3300   -1.3350   23.6390 C   0  0  0  0  0  0  0  0  0  0  0  0
    6.1600    0.3870   20.1140 C   0  0  0  0  0  0  0  0  0  0  0  0
    7.2210   -0.4620   20.0350 C   0  0  0  0  0  0  0  0  0  0  0  0
    5.3360    0.8000   21.1530 C   0  0  0  0  0  0  0  0  0  0  0  0
    4.2970    1.6690   20.8430 C   0  0  0  0  0  0  0  0  0  0  0  0
    4.0980    2.1130   19.5350 C   0  0  0  0  0  0  0  0  0  0  0  0
    4.9400    1.7060   18.5060 C   0  0  0  0  0  0  0  0  0  0  0  0
    9.6838   -6.1690   25.4414 C   0  0  0  0  0  0  0  0  0  0  0  0
    8.9510    0.1280   21.6880 C   0  0  0  0  0  0  0  0  0  0  0  0
    8.0382   -7.2886   27.0047 C   0  0  0  0  0  0  0  0  0  0  0  0
   10.0220    1.0430   23.6570 C   0  0  0  0  0  0  0  0  0  0  0  0
    9.4846   -7.1864   26.5550 C   0  0  0  0  0  0  0  0  0  0  0  0
    7.6830   -0.5170   18.7600 N   0  0  0  0  0  0  0  0  0  0  0  0
    6.9440    0.2550   18.0100 N   0  0  0  0  0  0  0  0  0  0  0  0
    5.9810    0.8330   18.8060 N   0  0  0  0  0  0  0  0  0  0  0  0
    9.2630   -4.8902   25.8410 N   0  0  0  0  0  0  0  0  0  0  0  0
    8.0810   -0.9750   21.0820 N   0  0  0  0  0  0  0  0  0  0  0  0
    9.4200   -0.0840   22.9530 N   0  0  0  0  0  0  0  0  0  0  0  0
   10.1564   -6.4800   24.3530 O   0  0  0  0  0  0  0  0  0  0  0  0
    9.1870    1.1500   21.0630 O   0  0  0  0  0  0  0  0  0  0  0  0
   13.9969    0.9203   24.2776 S   0  0  0  0  0  0  0  0  0  0  0  0
    7.5639   -2.8621   26.1045 H   0  0  0  0  0  0  0  0  0  0  0  0
   11.0141   -4.2644   23.9422 H   0  0  0  0  0  0  0  0  0  0  0  0
    7.5950   -0.7788   24.8007 H   0  0  0  0  0  0  0  0  0  0  0  0
   11.0408   -2.1861   22.6359 H   0  0  0  0  0  0  0  0  0  0  0  0
   11.8338    1.0798   21.3902 H   0  0  0  0  0  0  0  0  0  0  0  0
   14.4176    0.9966   21.8719 H   0  0  0  0  0  0  0  0  0  0  0  0
   12.0446    0.9149   25.7428 H   0  0  0  0  0  0  0  0  0  0  0  0
    5.4735    0.4758   22.1644 H   0  0  0  0  0  0  0  0  0  0  0  0
    3.6415    1.9967   21.6408 H   0  0  0  0  0  0  0  0  0  0  0  0
    3.2720    2.7926   19.2921 H   0  0  0  0  0  0  0  0  0  0  0  0
    4.8119    2.0418   17.5005 H   0  0  0  0  0  0  0  0  0  0  0  0
    7.6702   -6.3234   27.3680 H   0  0  0  0  0  0  0  0  0  0  0  0
    7.9416   -8.0182   27.8146 H   0  0  0  0  0  0  0  0  0  0  0  0
    7.3915   -7.6055   26.1799 H   0  0  0  0  0  0  0  0  0  0  0  0
    9.6778    1.0140   24.6966 H   0  0  0  0  0  0  0  0  0  0  0  0
    9.6316    1.9637   23.2107 H   0  0  0  0  0  0  0  0  0  0  0  0
    9.8260   -8.1645   26.1971 H   0  0  0  0  0  0  0  0  0  0  0  0
   10.1125   -6.8979   27.4058 H   0  0  0  0  0  0  0  0  0  0  0  0
    8.8927   -4.8255   26.7964 H   0  0  0  0  0  0  0  0  0  0  0  0
    8.1135   -1.8119   21.3500 H   0  0  0  0  0  0  0  0  0  0  0  0
  1  3  2  0  0  0  0
  1  9  1  0  0  0  0
  2  4  1  0  0  0  0
  2  9  2  0  0  0  0
  3 10  1  0  0  0  0
  4 10  2  0  0  0  0
  5  6  2  0  0  0  0
  5  8  1  0  0  0  0
  6 30  1  0  0  0  0
  7  8  2  0  0  0  0
  7 30  1  0  0  0  0
  8 20  1  0  0  0  0
  9 25  1  0  0  0  0
 10 27  1  0  0  0  0
 11 12  2  0  0  0  0
 11 13  1  0  0  0  0
 11 24  1  0  0  0  0
 12 22  1  0  0  0  0
 12 26  1  0  0  0  0
 13 14  2  0  0  0  0
 14 15  1  0  0  0  0
 15 16  2  0  0  0  0
 16 24  1  0  0  0  0
 17 21  1  0  0  0  0
 17 25  1  0  0  0  0
 17 28  2  0  0  0  0
 18 26  1  0  0  0  0
 18 27  1  0  0  0  0
 18 29  2  0  0  0  0
 19 21  1  0  0  0  0
 20 27  1  0  0  0  0
 22 23  2  0  0  0  0
 23 24  1  0  0  0  0
  1 31  1  0  0  0  0
  2 32  1  0  0  0  0
  3 33  1  0  0  0  0
  4 34  1  0  0  0  0
  5 35  1  0  0  0  0
  6 36  1  0  0  0  0
  7 37  1  0  0  0  0
 13 38  1  0  0  0  0
 14 39  1  0  0  0  0
 15 40  1  0  0  0  0
 16 41  1  0  0  0  0
 19 42  1  0  0  0  0
 19 43  1  0  0  0  0
 19 44  1  0  0  0  0
 20 45  1  0  0  0  0
 20 46  1  0  0  0  0
 21 47  1  0  0  0  0
 21 48  1  0  0  0  0
 25 49  1  0  0  0  0
 26 50  1  0  0  0  0
M  END
> <clash_score>
1.3333318184124714

> <docking_score>
-6.070126056671143

> <overlap_score>
0.961381733417511

$$$$
BENZO_91_1
  -OEChem-08222022383D

 53 56  0     0  0  0  0  0  0999 V2000
    8.3310   -2.7170   25.3430 C   0  0  0  0  0  0  0  0  0  0  0  0
   10.2570   -3.5000   24.1350 C   0  0  0  0  0  0  0  0  0  0  0  0
    8.3510   -1.5420   24.6110 C   0  0  0  0  0  0  0  0  0  0  0  0
   10.2760   -2.3270   23.4020 C   0  0  0  0  0  0  0  0  0  0  0  0
   12.4295    0.9466   24.6692 C   0  0  0  0  0  0  0  0  0  0  0  0
   12.3161    1.0259   22.4747 C   0  0  0  0  0  0  0  0  0  0  0  0
   11.5217    1.0079   23.5949 C   0  0  0  0  0  0  0  0  0  0  0  0
    9.2850   -3.7090   25.1090 C   0  0  0  0  0  0  0  0  0  0  0  0
    9.3300   -1.3350   23.6390 C   0  0  0  0  0  0  0  0  0  0  0  0
    6.1600    0.3870   20.1140 C   0  0  0  0  0  0  0  0  0  0  0  0
    7.2210   -0.4620   20.0350 C   0  0  0  0  0  0  0  0  0  0  0  0
    5.3360    0.8000   21.1530 C   0  0  0  0  0  0  0  0  0  0  0  0
    4.2970    1.6690   20.8430 C   0  0  0  0  0  0  0  0  0  0  0  0
    4.0980    2.1130   19.5350 C   0  0  0  0  0  0  0  0  0  0  0  0
    4.9400    1.7060   18.5060 C   0  0  0  0  0  0  0  0  0  0  0  0
    9.6838   -6.1690   25.4414 C   0  0  0  0  0  0  0  0  0  0  0  0
    8.9510    0.1280   21.6880 C   0  0  0  0  0  0  0  0  0  0  0  0
    8.0382   -7.2886   27.0047 C   0  0  0  0  0  0  0  0  0  0  0  0
   14.7958    0.9722   22.1181 C   0  0  0  0  0  0  0  0  0  0  0  0
   10.0220    1.0430   23.6570 C   0  0  0  0  0  0  0  0  0  0  0  0
    9.4846   -7.1864   26.5550 C   0  0  0  0  0  0  0  0  0  0  0  0
   13.7032    0.9267   24.2674 N   0  0  0  0  0  0  0  0  0  0  0  0
    7.6830   -0.5170   18.7600 N   0  0  0  0  0  0  0  0  0  0  0  0
    6.9440    0.2550   18.0100 N   0  0  0  0  0  0  0  0  0  0  0  0
   13.6014    0.9758   22.9283 N   0  0  0  0  0  0  0  0  0  0  0  0
    5.9810    0.8330   18.8060 N   0  0  0  0  0  0  0  0  0  0  0  0
    9.2630   -4.8902   25.8410 N   0  0  0  0  0  0  0  0  0  0  0  0
    8.0810   -0.9750   21.0820 N   0  0  0  0  0  0  0  0  0  0  0  0
    9.4200   -0.0840   22.9530 N   0  0  0  0  0  0  0  0  0  0  0  0
   10.1564   -6.4800   24.3530 O   0  0  0  0  0  0  0  0  0  0  0  0
    9.1870    1.1500   21.0630 O   0  0  0  0  0  0  0  0  0  0  0  0
    7.5639   -2.8621   26.1045 H   0  0  0  0  0  0  0  0  0  0  0  0
   11.0141   -4.2644   23.9422 H   0  0  0  0  0  0  0  0  0  0  0  0
    7.5950   -0.7788   24.8007 H   0  0  0  0  0  0  0  0  0  0  0  0
   11.0408   -2.1861   22.6359 H   0  0  0  0  0  0  0  0  0  0  0  0
   12.2184    0.9145   25.7287 H   0  0  0  0  0  0  0  0  0  0  0  0
   12.0821    1.0677   21.4195 H   0  0  0  0  0  0  0  0  0  0  0  0
    5.4735    0.4758   22.1644 H   0  0  0  0  0  0  0  0  0  0  0  0
    3.6415    1.9967   21.6408 H   0  0  0  0  0  0  0  0  0  0  0  0
    3.2720    2.7926   19.2921 H   0  0  0  0  0  0  0  0  0  0  0  0
    4.8119    2.0418   17.5005 H   0  0  0  0  0  0  0  0  0  0  0  0
    7.6702   -6.3234   27.3680 H   0  0  0  0  0  0  0  0  0  0  0  0
    7.9416   -8.0182   27.8146 H   0  0  0  0  0  0  0  0  0  0  0  0
    7.3915   -7.6055   26.1799 H   0  0  0  0  0  0  0  0  0  0  0  0
   15.1026    2.0102   21.9649 H   0  0  0  0  0  0  0  0  0  0  0  0
   15.5825    0.4128   22.6318 H   0  0  0  0  0  0  0  0  0  0  0  0
   14.5811    0.4906   21.1600 H   0  0  0  0  0  0  0  0  0  0  0  0
    9.6778    1.0140   24.6966 H   0  0  0  0  0  0  0  0  0  0  0  0
    9.6316    1.9637   23.2107 H   0  0  0  0  0  0  0  0  0  0  0  0
    9.8260   -8.1645   26.1971 H   0  0  0  0  0  0  0  0  0  0  0  0
   10.1125   -6.8979   27.4058 H   0  0  0  0  0  0  0  0  0  0  0  0
    8.8927   -4.8255   26.7964 H   0  0  0  0  0  0  0  0  0  0  0  0
    8.1135   -1.8119   21.3500 H   0  0  0  0  0  0  0  0  0  0  0  0
  1  3  2  0  0  0  0
  1  8  1  0  0  0  0
  2  4  1  0  0  0  0
  2  8  2  0  0  0  0
  3  9  1  0  0  0  0
  4  9  2  0  0  0  0
  5  7  1  0  0  0  0
  5 22  2  0  0  0  0
  6  7  2  0  0  0  0
  6 25  1  0  0  0  0
  7 20  1  0  0  0  0
  8 27  1  0  0  0  0
  9 29  1  0  0  0  0
 10 11  2  0  0  0  0
 10 12  1  0  0  0  0
 10 26  1  0  0  0  0
 11 23  1  0  0  0  0
 11 28  1  0  0  0  0
 12 13  2  0  0  0  0
 13 14  1  0  0  0  0
 14 15  2  0  0  0  0
 15 26  1  0  0  0  0
 16 21  1  0  0  0  0
 16 27  1  0  0  0  0
 16 30  2  0  0  0  0
 17 28  1  0  0  0  0
 17 29  1  0  0  0  0
 17 31  2  0  0  0  0
 18 21  1  0  0  0  0
 19 25  1  0  0  0  0
 20 29  1  0  0  0  0
 22 25  1  0  0  0  0
 23 24  2  0  0  0  0
 24 26  1  0  0  0  0
  1 32  1  0  0  0  0
  2 33  1  0  0  0  0
  3 34  1  0  0  0  0
  4 35  1  0  0  0  0
  5 36  1  0  0  0  0
  6 37  1  0  0  0  0
 12 38  1  0  0  0  0
 13 39  1  0  0  0  0
 14 40  1  0  0  0  0
 15 41  1  0  0  0  0
 18 42  1  0  0  0  0
 18 43  1  0  0  0  0
 18 44  1  0  0  0  0
 19 45  1  0  0  0  0
 19 46  1  0  0  0  0
 19 47  1  0  0  0  0
 20 48  1  0  0  0  0
 20 49  1  0  0  0  0
 21 50  1  0  0  0  0
 21 51  1  0  0  0  0
 27 52  1  0  0  0  0
 28 53  1  0  0  0  0
M  END
> <clash_score>
1.3333318184124714

> <docking_score>
-5.765991687774658

> <overlap_score>
0.9779978394508362

$$$$
BENZO_90_1
  -OEChem-08222022383D

 53 56  0     0  0  0  0  0  0999 V2000
   13.5977    1.8457   22.6865 C   0  0  0  0  0  0  0  0  0  0  0  0
   12.2044    1.8769   22.7438 C   0  0  0  0  0  0  0  0  0  0  0  0
    8.3310   -2.7170   25.3430 C   0  0  0  0  0  0  0  0  0  0  0  0
   10.2570   -3.5000   24.1350 C   0  0  0  0  0  0  0  0  0  0  0  0
    8.3510   -1.5420   24.6110 C   0  0  0  0  0  0  0  0  0  0  0  0
   10.2760   -2.3270   23.4020 C   0  0  0  0  0  0  0  0  0  0  0  0
   14.3084    0.9454   23.4803 C   0  0  0  0  0  0  0  0  0  0  0  0
   12.2323    0.1076   24.3888 C   0  0  0  0  0  0  0  0  0  0  0  0
   11.5217    1.0079   23.5949 C   0  0  0  0  0  0  0  0  0  0  0  0
    9.2850   -3.7090   25.1090 C   0  0  0  0  0  0  0  0  0  0  0  0
    9.3300   -1.3350   23.6390 C   0  0  0  0  0  0  0  0  0  0  0  0
   13.6257    0.0764   24.3314 C   0  0  0  0  0  0  0  0  0  0  0  0
    6.1600    0.3870   20.1140 C   0  0  0  0  0  0  0  0  0  0  0  0
    7.2210   -0.4620   20.0350 C   0  0  0  0  0  0  0  0  0  0  0  0
    5.3360    0.8000   21.1530 C   0  0  0  0  0  0  0  0  0  0  0  0
    4.2970    1.6690   20.8430 C   0  0  0  0  0  0  0  0  0  0  0  0
    4.0980    2.1130   19.5350 C   0  0  0  0  0  0  0  0  0  0  0  0
    4.9400    1.7060   18.5060 C   0  0  0  0  0  0  0  0  0  0  0  0
    9.6838   -6.1690   25.4414 C   0  0  0  0  0  0  0  0  0  0  0  0
    8.9510    0.1280   21.6880 C   0  0  0  0  0  0  0  0  0  0  0  0
    8.0382   -7.2886   27.0047 C   0  0  0  0  0  0  0  0  0  0  0  0
   10.0220    1.0430   23.6570 C   0  0  0  0  0  0  0  0  0  0  0  0
    9.4846   -7.1864   26.5550 C   0  0  0  0  0  0  0  0  0  0  0  0
    7.6830   -0.5170   18.7600 N   0  0  0  0  0  0  0  0  0  0  0  0
    6.9440    0.2550   18.0100 N   0  0  0  0  0  0  0  0  0  0  0  0
    5.9810    0.8330   18.8060 N   0  0  0  0  0  0  0  0  0  0  0  0
    9.2630   -4.8902   25.8410 N   0  0  0  0  0  0  0  0  0  0  0  0
    8.0810   -0.9750   21.0820 N   0  0  0  0  0  0  0  0  0  0  0  0
    9.4200   -0.0840   22.9530 N   0  0  0  0  0  0  0  0  0  0  0  0
   10.1564   -6.4800   24.3530 O   0  0  0  0  0  0  0  0  0  0  0  0
    9.1870    1.1500   21.0630 O   0  0  0  0  0  0  0  0  0  0  0  0
   14.5031   -1.0334   25.3114 Cl  0  0  0  0  0  0  0  0  0  0  0  0
   14.1289    2.5227   22.0237 H   0  0  0  0  0  0  0  0  0  0  0  0
   11.6588    2.5818   22.1218 H   0  0  0  0  0  0  0  0  0  0  0  0
    7.5639   -2.8621   26.1045 H   0  0  0  0  0  0  0  0  0  0  0  0
   11.0141   -4.2644   23.9422 H   0  0  0  0  0  0  0  0  0  0  0  0
    7.5950   -0.7788   24.8007 H   0  0  0  0  0  0  0  0  0  0  0  0
   11.0408   -2.1861   22.6359 H   0  0  0  0  0  0  0  0  0  0  0  0
   15.3941    0.9323   23.4255 H   0  0  0  0  0  0  0  0  0  0  0  0
   11.6954   -0.5682   25.0504 H   0  0  0  0  0  0  0  0  0  0  0  0
    5.4735    0.4758   22.1644 H   0  0  0  0  0  0  0  0  0  0  0  0
    3.6415    1.9967   21.6408 H   0  0  0  0  0  0  0  0  0  0  0  0
    3.2720    2.7926   19.2921 H   0  0  0  0  0  0  0  0  0  0  0  0
    4.8119    2.0418   17.5005 H   0  0  0  0  0  0  0  0  0  0  0  0
    7.6702   -6.3234   27.3680 H   0  0  0  0  0  0  0  0  0  0  0  0
    7.9416   -8.0182   27.8146 H   0  0  0  0  0  0  0  0  0  0  0  0
    7.3915   -7.6055   26.1799 H   0  0  0  0  0  0  0  0  0  0  0  0
    9.6778    1.0140   24.6966 H   0  0  0  0  0  0  0  0  0  0  0  0
    9.6316    1.9637   23.2107 H   0  0  0  0  0  0  0  0  0  0  0  0
    9.8260   -8.1645   26.1971 H   0  0  0  0  0  0  0  0  0  0  0  0
   10.1125   -6.8979   27.4058 H   0  0  0  0  0  0  0  0  0  0  0  0
    8.8927   -4.8255   26.7964 H   0  0  0  0  0  0  0  0  0  0  0  0
    8.1135   -1.8119   21.3500 H   0  0  0  0  0  0  0  0  0  0  0  0
  1  2  2  0  0  0  0
  1  7  1  0  0  0  0
  2  9  1  0  0  0  0
  3  5  2  0  0  0  0
  3 10  1  0  0  0  0
  4  6  1  0  0  0  0
  4 10  2  0  0  0  0
  5 11  1  0  0  0  0
  6 11  2  0  0  0  0
  7 12  2  0  0  0  0
  8  9  2  0  0  0  0
  8 12  1  0  0  0  0
  9 22  1  0  0  0  0
 10 27  1  0  0  0  0
 11 29  1  0  0  0  0
 12 32  1  0  0  0  0
 13 14  2  0  0  0  0
 13 15  1  0  0  0  0
 13 26  1  0  0  0  0
 14 24  1  0  0  0  0
 14 28  1  0  0  0  0
 15 16  2  0  0  0  0
 16 17  1  0  0  0  0
 17 18  2  0  0  0  0
 18 26  1  0  0  0  0
 19 23  1  0  0  0  0
 19 27  1  0  0  0  0
 19 30  2  0  0  0  0
 20 28  1  0  0  0  0
 20 29  1  0  0  0  0
 20 31  2  0  0  0  0
 21 23  1  0  0  0  0
 22 29  1  0  0  0  0
 24 25  2  0  0  0  0
 25 26  1  0  0  0  0
  1 33  1  0  0  0  0
  2 34  1  0  0  0  0
  3 35  1  0  0  0  0
  4 36  1  0  0  0  0
  5 37  1  0  0  0  0
  6 38  1  0  0  0  0
  7 39  1  0  0  0  0
  8 40  1  0  0  0  0
 15 41  1  0  0  0  0
 16 42  1  0  0  0  0
 17 43  1  0  0  0  0
 18 44  1  0  0  0  0
 21 45  1  0  0  0  0
 21 46  1  0  0  0  0
 21 47  1  0  0  0  0
 22 48  1  0  0  0  0
 22 49  1  0  0  0  0
 23 50  1  0  0  0  0
 23 51  1  0  0  0  0
 27 52  1  0  0  0  0
 28 53  1  0  0  0  0
M  END
> <clash_score>
2.0995752252286115

> <docking_score>
-5.005835056304932

> <overlap_score>
0.9923647046089172

$$$$
BENZO_93_1
  -OEChem-08222022383D

 58 62  0     0  0  0  0  0  0999 V2000
   14.3082    0.9431   23.4783 C   0  0  0  0  0  0  0  0  0  0  0  0
   13.6391    0.3091   24.5251 C   0  0  0  0  0  0  0  0  0  0  0  0
   13.5841    1.6096   22.4898 C   0  0  0  0  0  0  0  0  0  0  0  0
   12.2459    0.3415   24.5835 C   0  0  0  0  0  0  0  0  0  0  0  0
   12.1908    1.6420   22.5481 C   0  0  0  0  0  0  0  0  0  0  0  0
    8.3310   -2.7170   25.3430 C   0  0  0  0  0  0  0  0  0  0  0  0
   10.2570   -3.5000   24.1350 C   0  0  0  0  0  0  0  0  0  0  0  0
    8.3510   -1.5420   24.6110 C   0  0  0  0  0  0  0  0  0  0  0  0
   10.2760   -2.3270   23.4020 C   0  0  0  0  0  0  0  0  0  0  0  0
   11.5217    1.0079   23.5949 C   0  0  0  0  0  0  0  0  0  0  0  0
    9.2850   -3.7090   25.1090 C   0  0  0  0  0  0  0  0  0  0  0  0
    9.3300   -1.3350   23.6390 C   0  0  0  0  0  0  0  0  0  0  0  0
    6.1600    0.3870   20.1140 C   0  0  0  0  0  0  0  0  0  0  0  0
    7.2210   -0.4620   20.0350 C   0  0  0  0  0  0  0  0  0  0  0  0
    5.3360    0.8000   21.1530 C   0  0  0  0  0  0  0  0  0  0  0  0
    4.2970    1.6690   20.8430 C   0  0  0  0  0  0  0  0  0  0  0  0
    4.0980    2.1130   19.5350 C   0  0  0  0  0  0  0  0  0  0  0  0
    4.9400    1.7060   18.5060 C   0  0  0  0  0  0  0  0  0  0  0  0
    8.9510    0.1280   21.6880 C   0  0  0  0  0  0  0  0  0  0  0  0
    7.3162   -6.8835   26.5210 C   0  0  0  0  0  0  0  0  0  0  0  0
    7.3507   -5.5245   27.2240 C   0  0  0  0  0  0  0  0  0  0  0  0
    7.9375   -6.8069   25.1245 C   0  0  0  0  0  0  0  0  0  0  0  0
    8.7638   -4.9418   27.2163 C   0  0  0  0  0  0  0  0  0  0  0  0
    9.3378   -6.1874   25.1659 C   0  0  0  0  0  0  0  0  0  0  0  0
   10.0220    1.0430   23.6570 C   0  0  0  0  0  0  0  0  0  0  0  0
    7.6830   -0.5170   18.7600 N   0  0  0  0  0  0  0  0  0  0  0  0
    6.9440    0.2550   18.0100 N   0  0  0  0  0  0  0  0  0  0  0  0
    5.9810    0.8330   18.8060 N   0  0  0  0  0  0  0  0  0  0  0  0
    9.2639   -4.8860   25.8399 N   0  0  0  0  0  0  0  0  0  0  0  0
    8.0810   -0.9750   21.0820 N   0  0  0  0  0  0  0  0  0  0  0  0
    9.4200   -0.0840   22.9530 N   0  0  0  0  0  0  0  0  0  0  0  0
    9.1870    1.1500   21.0630 O   0  0  0  0  0  0  0  0  0  0  0  0
   15.3932    0.9189   23.4337 H   0  0  0  0  0  0  0  0  0  0  0  0
   14.2029   -0.2090   25.2955 H   0  0  0  0  0  0  0  0  0  0  0  0
   14.1048    2.1043   21.6752 H   0  0  0  0  0  0  0  0  0  0  0  0
   11.7330   -0.1555   25.4027 H   0  0  0  0  0  0  0  0  0  0  0  0
   11.6349    2.1636   21.7735 H   0  0  0  0  0  0  0  0  0  0  0  0
    7.5647   -2.8621   26.1053 H   0  0  0  0  0  0  0  0  0  0  0  0
   11.0144   -4.2642   23.9425 H   0  0  0  0  0  0  0  0  0  0  0  0
    7.5958   -0.7779   24.8006 H   0  0  0  0  0  0  0  0  0  0  0  0
   11.0406   -2.1848   22.6356 H   0  0  0  0  0  0  0  0  0  0  0  0
    5.4735    0.4758   22.1644 H   0  0  0  0  0  0  0  0  0  0  0  0
    3.6415    1.9967   21.6408 H   0  0  0  0  0  0  0  0  0  0  0  0
    3.2720    2.7926   19.2921 H   0  0  0  0  0  0  0  0  0  0  0  0
    4.8119    2.0418   17.5005 H   0  0  0  0  0  0  0  0  0  0  0  0
    7.8578   -7.6261   27.1266 H   0  0  0  0  0  0  0  0  0  0  0  0
    6.2773   -7.2358   26.4459 H   0  0  0  0  0  0  0  0  0  0  0  0
    6.6663   -4.8351   26.7223 H   0  0  0  0  0  0  0  0  0  0  0  0
    7.0044   -5.6368   28.2534 H   0  0  0  0  0  0  0  0  0  0  0  0
    7.9946   -7.8119   24.6937 H   0  0  0  0  0  0  0  0  0  0  0  0
    7.2929   -6.2123   24.4668 H   0  0  0  0  0  0  0  0  0  0  0  0
    8.7343   -3.9408   27.6542 H   0  0  0  0  0  0  0  0  0  0  0  0
    9.4243   -5.5632   27.8278 H   0  0  0  0  0  0  0  0  0  0  0  0
   10.0200   -6.8490   25.7011 H   0  0  0  0  0  0  0  0  0  0  0  0
    9.6984   -6.0694   24.1436 H   0  0  0  0  0  0  0  0  0  0  0  0
    9.6778    1.0140   24.6966 H   0  0  0  0  0  0  0  0  0  0  0  0
    9.6316    1.9637   23.2107 H   0  0  0  0  0  0  0  0  0  0  0  0
    8.1334   -1.7992   21.3673 H   0  0  0  0  0  0  0  0  0  0  0  0
  1  2  1  0  0  0  0
  1  3  2  0  0  0  0
  2  4  2  0  0  0  0
  3  5  1  0  0  0  0
  4 10  1  0  0  0  0
  5 10  2  0  0  0  0
  6  8  2  0  0  0  0
  6 11  1  0  0  0  0
  7  9  1  0  0  0  0
  7 11  2  0  0  0  0
  8 12  1  0  0  0  0
  9 12  2  0  0  0  0
 10 25  1  0  0  0  0
 11 29  1  0  0  0  0
 12 31  1  0  0  0  0
 13 14  2  0  0  0  0
 13 15  1  0  0  0  0
 13 28  1  0  0  0  0
 14 26  1  0  0  0  0
 14 30  1  0  0  0  0
 15 16  2  0  0  0  0
 16 17  1  0  0  0  0
 17 18  2  0  0  0  0
 18 28  1  0  0  0  0
 19 30  1  0  0  0  0
 19 31  1  0  0  0  0
 19 32  2  0  0  0  0
 20 21  1  0  0  0  0
 20 22  1  0  0  0  0
 21 23  1  0  0  0  0
 22 24  1  0  0  0  0
 23 29  1  0  0  0  0
 24 29  1  0  0  0  0
 25 31  1  0  0  0  0
 26 27  2  0  0  0  0
 27 28  1  0  0  0  0
  1 33  1  0  0  0  0
  2 34  1  0  0  0  0
  3 35  1  0  0  0  0
  4 36  1  0  0  0  0
  5 37  1  0  0  0  0
  6 38  1  0  0  0  0
  7 39  1  0  0  0  0
  8 40  1  0  0  0  0
  9 41  1  0  0  0  0
 15 42  1  0  0  0  0
 16 43  1  0  0  0  0
 17 44  1  0  0  0  0
 18 45  1  0  0  0  0
 20 46  1  0  0  0  0
 20 47  1  0  0  0  0
 21 48  1  0  0  0  0
 21 49  1  0  0  0  0
 22 50  1  0  0  0  0
 22 51  1  0  0  0  0
 23 52  1  0  0  0  0
 23 53  1  0  0  0  0
 24 54  1  0  0  0  0
 24 55  1  0  0  0  0
 25 56  1  0  0  0  0
 25 57  1  0  0  0  0
 30 58  1  0  0  0  0
M  END
> <clash_score>
0

> <docking_score>
-8.057890892028809

> <overlap_score>
1.0155829191207886

$$$$
BENZO_92_1
  -OEChem-08222022383D

 55 59  0     0  0  0  0  0  0999 V2000
    8.3310   -2.7170   25.3430 C   0  0  0  0  0  0  0  0  0  0  0  0
   10.2570   -3.5000   24.1350 C   0  0  0  0  0  0  0  0  0  0  0  0
    8.3510   -1.5420   24.6110 C   0  0  0  0  0  0  0  0  0  0  0  0
   10.2760   -2.3270   23.4020 C   0  0  0  0  0  0  0  0  0  0  0  0
   12.2675    1.0332   22.3812 C   0  0  0  0  0  0  0  0  0  0  0  0
   13.6257    0.9906   22.6074 C   0  0  0  0  0  0  0  0  0  0  0  0
   12.3384    0.9467   24.7028 C   0  0  0  0  0  0  0  0  0  0  0  0
   11.5217    1.0079   23.5949 C   0  0  0  0  0  0  0  0  0  0  0  0
    9.2850   -3.7090   25.1090 C   0  0  0  0  0  0  0  0  0  0  0  0
    9.3300   -1.3350   23.6390 C   0  0  0  0  0  0  0  0  0  0  0  0
    6.1600    0.3870   20.1140 C   0  0  0  0  0  0  0  0  0  0  0  0
    7.2210   -0.4620   20.0350 C   0  0  0  0  0  0  0  0  0  0  0  0
    5.3360    0.8000   21.1530 C   0  0  0  0  0  0  0  0  0  0  0  0
    4.2970    1.6690   20.8430 C   0  0  0  0  0  0  0  0  0  0  0  0
    4.0980    2.1130   19.5350 C   0  0  0  0  0  0  0  0  0  0  0  0
    4.9400    1.7060   18.5060 C   0  0  0  0  0  0  0  0  0  0  0  0
    8.9510    0.1280   21.6880 C   0  0  0  0  0  0  0  0  0  0  0  0
    7.3162   -6.8835   26.5210 C   0  0  0  0  0  0  0  0  0  0  0  0
    7.3507   -5.5245   27.2240 C   0  0  0  0  0  0  0  0  0  0  0  0
    7.9375   -6.8069   25.1245 C   0  0  0  0  0  0  0  0  0  0  0  0
    8.7638   -4.9418   27.2163 C   0  0  0  0  0  0  0  0  0  0  0  0
    9.3378   -6.1874   25.1659 C   0  0  0  0  0  0  0  0  0  0  0  0
   10.0220    1.0430   23.6570 C   0  0  0  0  0  0  0  0  0  0  0  0
    7.6830   -0.5170   18.7600 N   0  0  0  0  0  0  0  0  0  0  0  0
    6.9440    0.2550   18.0100 N   0  0  0  0  0  0  0  0  0  0  0  0
    5.9810    0.8330   18.8060 N   0  0  0  0  0  0  0  0  0  0  0  0
    9.2639   -4.8860   25.8399 N   0  0  0  0  0  0  0  0  0  0  0  0
    8.0810   -0.9750   21.0820 N   0  0  0  0  0  0  0  0  0  0  0  0
    9.4200   -0.0840   22.9530 N   0  0  0  0  0  0  0  0  0  0  0  0
    9.1870    1.1500   21.0630 O   0  0  0  0  0  0  0  0  0  0  0  0
   13.9969    0.9203   24.2776 S   0  0  0  0  0  0  0  0  0  0  0  0
    7.5647   -2.8621   26.1053 H   0  0  0  0  0  0  0  0  0  0  0  0
   11.0144   -4.2642   23.9425 H   0  0  0  0  0  0  0  0  0  0  0  0
    7.5958   -0.7779   24.8006 H   0  0  0  0  0  0  0  0  0  0  0  0
   11.0406   -2.1848   22.6356 H   0  0  0  0  0  0  0  0  0  0  0  0
   11.8338    1.0798   21.3902 H   0  0  0  0  0  0  0  0  0  0  0  0
   14.4176    0.9966   21.8719 H   0  0  0  0  0  0  0  0  0  0  0  0
   12.0446    0.9149   25.7428 H   0  0  0  0  0  0  0  0  0  0  0  0
    5.4735    0.4758   22.1644 H   0  0  0  0  0  0  0  0  0  0  0  0
    3.6415    1.9967   21.6408 H   0  0  0  0  0  0  0  0  0  0  0  0
    3.2720    2.7926   19.2921 H   0  0  0  0  0  0  0  0  0  0  0  0
    4.8119    2.0418   17.5005 H   0  0  0  0  0  0  0  0  0  0  0  0
    7.8578   -7.6261   27.1266 H   0  0  0  0  0  0  0  0  0  0  0  0
    6.2773   -7.2358   26.4459 H   0  0  0  0  0  0  0  0  0  0  0  0
    6.6663   -4.8351   26.7223 H   0  0  0  0  0  0  0  0  0  0  0  0
    7.0044   -5.6368   28.2534 H   0  0  0  0  0  0  0  0  0  0  0  0
    7.9946   -7.8119   24.6937 H   0  0  0  0  0  0  0  0  0  0  0  0
    7.2929   -6.2123   24.4668 H   0  0  0  0  0  0  0  0  0  0  0  0
    8.7343   -3.9408   27.6542 H   0  0  0  0  0  0  0  0  0  0  0  0
    9.4243   -5.5632   27.8278 H   0  0  0  0  0  0  0  0  0  0  0  0
   10.0200   -6.8490   25.7011 H   0  0  0  0  0  0  0  0  0  0  0  0
    9.6984   -6.0694   24.1436 H   0  0  0  0  0  0  0  0  0  0  0  0
    9.6778    1.0140   24.6966 H   0  0  0  0  0  0  0  0  0  0  0  0
    9.6316    1.9637   23.2107 H   0  0  0  0  0  0  0  0  0  0  0  0
    8.1334   -1.7992   21.3673 H   0  0  0  0  0  0  0  0  0  0  0  0
  1  3  2  0  0  0  0
  1  9  1  0  0  0  0
  2  4  1  0  0  0  0
  2  9  2  0  0  0  0
  3 10  1  0  0  0  0
  4 10  2  0  0  0  0
  5  6  2  0  0  0  0
  5  8  1  0  0  0  0
  6 31  1  0  0  0  0
  7  8  2  0  0  0  0
  7 31  1  0  0  0  0
  8 23  1  0  0  0  0
  9 27  1  0  0  0  0
 10 29  1  0  0  0  0
 11 12  2  0  0  0  0
 11 13  1  0  0  0  0
 11 26  1  0  0  0  0
 12 24  1  0  0  0  0
 12 28  1  0  0  0  0
 13 14  2  0  0  0  0
 14 15  1  0  0  0  0
 15 16  2  0  0  0  0
 16 26  1  0  0  0  0
 17 28  1  0  0  0  0
 17 29  1  0  0  0  0
 17 30  2  0  0  0  0
 18 19  1  0  0  0  0
 18 20  1  0  0  0  0
 19 21  1  0  0  0  0
 20 22  1  0  0  0  0
 21 27  1  0  0  0  0
 22 27  1  0  0  0  0
 23 29  1  0  0  0  0
 24 25  2  0  0  0  0
 25 26  1  0  0  0  0
  1 32  1  0  0  0  0
  2 33  1  0  0  0  0
  3 34  1  0  0  0  0
  4 35  1  0  0  0  0
  5 36  1  0  0  0  0
  6 37  1  0  0  0  0
  7 38  1  0  0  0  0
 13 39  1  0  0  0  0
 14 40  1  0  0  0  0
 15 41  1  0  0  0  0
 16 42  1  0  0  0  0
 18 43  1  0  0  0  0
 18 44  1  0  0  0  0
 19 45  1  0  0  0  0
 19 46  1  0  0  0  0
 20 47  1  0  0  0  0
 20 48  1  0  0  0  0
 21 49  1  0  0  0  0
 21 50  1  0  0  0  0
 22 51  1  0  0  0  0
 22 52  1  0  0  0  0
 23 53  1  0  0  0  0
 23 54  1  0  0  0  0
 28 55  1  0  0  0  0
M  END
> <clash_score>
0

> <docking_score>
-8.304089546203613

> <overlap_score>
0.9899338483810425

$$$$
BENZO_97_1
  -OEChem-08222022383D

 46 49  0     0  0  0  0  0  0999 V2000
   14.3082    0.9431   23.4783 C   0  0  0  0  0  0  0  0  0  0  0  0
   13.6391    0.3091   24.5251 C   0  0  0  0  0  0  0  0  0  0  0  0
   13.5841    1.6096   22.4898 C   0  0  0  0  0  0  0  0  0  0  0  0
   12.2459    0.3415   24.5835 C   0  0  0  0  0  0  0  0  0  0  0  0
   12.1908    1.6420   22.5481 C   0  0  0  0  0  0  0  0  0  0  0  0
    8.3310   -2.7170   25.3430 C   0  0  0  0  0  0  0  0  0  0  0  0
   10.2570   -3.5000   24.1350 C   0  0  0  0  0  0  0  0  0  0  0  0
    8.3510   -1.5420   24.6110 C   0  0  0  0  0  0  0  0  0  0  0  0
   10.2760   -2.3270   23.4020 C   0  0  0  0  0  0  0  0  0  0  0  0
    9.2850   -3.7090   25.1090 C   0  0  0  0  0  0  0  0  0  0  0  0
   11.5217    1.0079   23.5949 C   0  0  0  0  0  0  0  0  0  0  0  0
    9.3300   -1.3350   23.6390 C   0  0  0  0  0  0  0  0  0  0  0  0
    6.1600    0.3870   20.1140 C   0  0  0  0  0  0  0  0  0  0  0  0
    7.2210   -0.4620   20.0350 C   0  0  0  0  0  0  0  0  0  0  0  0
    5.3360    0.8000   21.1530 C   0  0  0  0  0  0  0  0  0  0  0  0
    4.2970    1.6690   20.8430 C   0  0  0  0  0  0  0  0  0  0  0  0
    4.0980    2.1130   19.5350 C   0  0  0  0  0  0  0  0  0  0  0  0
    4.9400    1.7060   18.5060 C   0  0  0  0  0  0  0  0  0  0  0  0
    8.9510    0.1280   21.6880 C   0  0  0  0  0  0  0  0  0  0  0  0
    9.2610   -4.9721   25.8916 C   0  0  0  0  0  0  0  0  0  0  0  0
   10.0220    1.0430   23.6570 C   0  0  0  0  0  0  0  0  0  0  0  0
    7.6830   -0.5170   18.7600 N   0  0  0  0  0  0  0  0  0  0  0  0
    6.9440    0.2550   18.0100 N   0  0  0  0  0  0  0  0  0  0  0  0
    5.9810    0.8330   18.8060 N   0  0  0  0  0  0  0  0  0  0  0  0
    8.0810   -0.9750   21.0820 N   0  0  0  0  0  0  0  0  0  0  0  0
    9.4200   -0.0840   22.9530 N   0  0  0  0  0  0  0  0  0  0  0  0
    9.1870    1.1500   21.0630 O   0  0  0  0  0  0  0  0  0  0  0  0
   15.3932    0.9189   23.4337 H   0  0  0  0  0  0  0  0  0  0  0  0
   14.2029   -0.2090   25.2955 H   0  0  0  0  0  0  0  0  0  0  0  0
   14.1048    2.1043   21.6752 H   0  0  0  0  0  0  0  0  0  0  0  0
   11.7330   -0.1555   25.4027 H   0  0  0  0  0  0  0  0  0  0  0  0
   11.6349    2.1636   21.7735 H   0  0  0  0  0  0  0  0  0  0  0  0
    7.5665   -2.8638   26.1066 H   0  0  0  0  0  0  0  0  0  0  0  0
   11.0137   -4.2652   23.9447 H   0  0  0  0  0  0  0  0  0  0  0  0
    7.5948   -0.7788   24.7997 H   0  0  0  0  0  0  0  0  0  0  0  0
   11.0411   -2.1856   22.6358 H   0  0  0  0  0  0  0  0  0  0  0  0
    5.4735    0.4758   22.1644 H   0  0  0  0  0  0  0  0  0  0  0  0
    3.6415    1.9967   21.6408 H   0  0  0  0  0  0  0  0  0  0  0  0
    3.2720    2.7926   19.2921 H   0  0  0  0  0  0  0  0  0  0  0  0
    4.8119    2.0418   17.5005 H   0  0  0  0  0  0  0  0  0  0  0  0
    8.6398   -5.7223   25.3871 H   0  0  0  0  0  0  0  0  0  0  0  0
   10.2715   -5.3829   26.0145 H   0  0  0  0  0  0  0  0  0  0  0  0
    8.8596   -4.8092   26.9004 H   0  0  0  0  0  0  0  0  0  0  0  0
    9.6778    1.0140   24.6966 H   0  0  0  0  0  0  0  0  0  0  0  0
    9.6316    1.9637   23.2107 H   0  0  0  0  0  0  0  0  0  0  0  0
    8.1135   -1.8119   21.3500 H   0  0  0  0  0  0  0  0  0  0  0  0
  1  2  1  0  0  0  0
  1  3  2  0  0  0  0
  2  4  2  0  0  0  0
  3  5  1  0  0  0  0
  4 11  1  0  0  0  0
  5 11  2  0  0  0  0
  6  8  2  0  0  0  0
  6 10  1  0  0  0  0
  7  9  1  0  0  0  0
  7 10  2  0  0  0  0
  8 12  1  0  0  0  0
  9 12  2  0  0  0  0
 10 20  1  0  0  0  0
 11 21  1  0  0  0  0
 12 26  1  0  0  0  0
 13 14  2  0  0  0  0
 13 15  1  0  0  0  0
 13 24  1  0  0  0  0
 14 22  1  0  0  0  0
 14 25  1  0  0  0  0
 15 16  2  0  0  0  0
 16 17  1  0  0  0  0
 17 18  2  0  0  0  0
 18 24  1  0  0  0  0
 19 25  1  0  0  0  0
 19 26  1  0  0  0  0
 19 27  2  0  0  0  0
 21 26  1  0  0  0  0
 22 23  2  0  0  0  0
 23 24  1  0  0  0  0
  1 28  1  0  0  0  0
  2 29  1  0  0  0  0
  3 30  1  0  0  0  0
  4 31  1  0  0  0  0
  5 32  1  0  0  0  0
  6 33  1  0  0  0  0
  7 34  1  0  0  0  0
  8 35  1  0  0  0  0
  9 36  1  0  0  0  0
 15 37  1  0  0  0  0
 16 38  1  0  0  0  0
 17 39  1  0  0  0  0
 18 40  1  0  0  0  0
 20 41  1  0  0  0  0
 20 42  1  0  0  0  0
 20 43  1  0  0  0  0
 21 44  1  0  0  0  0
 21 45  1  0  0  0  0
 25 46  1  0  0  0  0
M  END
> <clash_score>
0

> <docking_score>
-9.015536308288574

> <overlap_score>
0.9717719554901123

$$$$
BENZO_96_1
  -OEChem-08222022383D

 43 46  0     0  0  0  0  0  0999 V2000
    8.3310   -2.7170   25.3430 C   0  0  0  0  0  0  0  0  0  0  0  0
   10.2570   -3.5000   24.1350 C   0  0  0  0  0  0  0  0  0  0  0  0
    8.3510   -1.5420   24.6110 C   0  0  0  0  0  0  0  0  0  0  0  0
   10.2760   -2.3270   23.4020 C   0  0  0  0  0  0  0  0  0  0  0  0
   12.2675    1.0332   22.3812 C   0  0  0  0  0  0  0  0  0  0  0  0
   13.6257    0.9906   22.6074 C   0  0  0  0  0  0  0  0  0  0  0  0
   12.3384    0.9467   24.7028 C   0  0  0  0  0  0  0  0  0  0  0  0
    9.2850   -3.7090   25.1090 C   0  0  0  0  0  0  0  0  0  0  0  0
   11.5217    1.0079   23.5949 C   0  0  0  0  0  0  0  0  0  0  0  0
    9.3300   -1.3350   23.6390 C   0  0  0  0  0  0  0  0  0  0  0  0
    6.1600    0.3870   20.1140 C   0  0  0  0  0  0  0  0  0  0  0  0
    7.2210   -0.4620   20.0350 C   0  0  0  0  0  0  0  0  0  0  0  0
    5.3360    0.8000   21.1530 C   0  0  0  0  0  0  0  0  0  0  0  0
    4.2970    1.6690   20.8430 C   0  0  0  0  0  0  0  0  0  0  0  0
    4.0980    2.1130   19.5350 C   0  0  0  0  0  0  0  0  0  0  0  0
    4.9400    1.7060   18.5060 C   0  0  0  0  0  0  0  0  0  0  0  0
    8.9510    0.1280   21.6880 C   0  0  0  0  0  0  0  0  0  0  0  0
    9.2610   -4.9721   25.8916 C   0  0  0  0  0  0  0  0  0  0  0  0
   10.0220    1.0430   23.6570 C   0  0  0  0  0  0  0  0  0  0  0  0
    7.6830   -0.5170   18.7600 N   0  0  0  0  0  0  0  0  0  0  0  0
    6.9440    0.2550   18.0100 N   0  0  0  0  0  0  0  0  0  0  0  0
    5.9810    0.8330   18.8060 N   0  0  0  0  0  0  0  0  0  0  0  0
    8.0810   -0.9750   21.0820 N   0  0  0  0  0  0  0  0  0  0  0  0
    9.4200   -0.0840   22.9530 N   0  0  0  0  0  0  0  0  0  0  0  0
    9.1870    1.1500   21.0630 O   0  0  0  0  0  0  0  0  0  0  0  0
   13.9969    0.9203   24.2776 S   0  0  0  0  0  0  0  0  0  0  0  0
    7.5665   -2.8638   26.1066 H   0  0  0  0  0  0  0  0  0  0  0  0
   11.0137   -4.2652   23.9447 H   0  0  0  0  0  0  0  0  0  0  0  0
    7.5948   -0.7788   24.7997 H   0  0  0  0  0  0  0  0  0  0  0  0
   11.0411   -2.1856   22.6358 H   0  0  0  0  0  0  0  0  0  0  0  0
   11.8338    1.0798   21.3902 H   0  0  0  0  0  0  0  0  0  0  0  0
   14.4176    0.9966   21.8719 H   0  0  0  0  0  0  0  0  0  0  0  0
   12.0446    0.9149   25.7428 H   0  0  0  0  0  0  0  0  0  0  0  0
    5.4735    0.4758   22.1644 H   0  0  0  0  0  0  0  0  0  0  0  0
    3.6415    1.9967   21.6408 H   0  0  0  0  0  0  0  0  0  0  0  0
    3.2720    2.7926   19.2921 H   0  0  0  0  0  0  0  0  0  0  0  0
    4.8119    2.0418   17.5005 H   0  0  0  0  0  0  0  0  0  0  0  0
    8.6398   -5.7223   25.3871 H   0  0  0  0  0  0  0  0  0  0  0  0
   10.2715   -5.3829   26.0145 H   0  0  0  0  0  0  0  0  0  0  0  0
    8.8596   -4.8092   26.9004 H   0  0  0  0  0  0  0  0  0  0  0  0
    9.6778    1.0140   24.6966 H   0  0  0  0  0  0  0  0  0  0  0  0
    9.6316    1.9637   23.2107 H   0  0  0  0  0  0  0  0  0  0  0  0
    8.1135   -1.8119   21.3500 H   0  0  0  0  0  0  0  0  0  0  0  0
  1  3  2  0  0  0  0
  1  8  1  0  0  0  0
  2  4  1  0  0  0  0
  2  8  2  0  0  0  0
  3 10  1  0  0  0  0
  4 10  2  0  0  0  0
  5  6  2  0  0  0  0
  5  9  1  0  0  0  0
  6 26  1  0  0  0  0
  7  9  2  0  0  0  0
  7 26  1  0  0  0  0
  8 18  1  0  0  0  0
  9 19  1  0  0  0  0
 10 24  1  0  0  0  0
 11 12  2  0  0  0  0
 11 13  1  0  0  0  0
 11 22  1  0  0  0  0
 12 20  1  0  0  0  0
 12 23  1  0  0  0  0
 13 14  2  0  0  0  0
 14 15  1  0  0  0  0
 15 16  2  0  0  0  0
 16 22  1  0  0  0  0
 17 23  1  0  0  0  0
 17 24  1  0  0  0  0
 17 25  2  0  0  0  0
 19 24  1  0  0  0  0
 20 21  2  0  0  0  0
 21 22  1  0  0  0  0
  1 27  1  0  0  0  0
  2 28  1  0  0  0  0
  3 29  1  0  0  0  0
  4 30  1  0  0  0  0
  5 31  1  0  0  0  0
  6 32  1  0  0  0  0
  7 33  1  0  0  0  0
 13 34  1  0  0  0  0
 14 35  1  0  0  0  0
 15 36  1  0  0  0  0
 16 37  1  0  0  0  0
 18 38  1  0  0  0  0
 18 39  1  0  0  0  0
 18 40  1  0  0  0  0
 19 41  1  0  0  0  0
 19 42  1  0  0  0  0
 23 43  1  0  0  0  0
M  END
> <clash_score>
0

> <docking_score>
-9.261737823486328

> <overlap_score>
0.9457806348800659

$$$$
BENZO_94_1
  -OEChem-08222022393D

 58 62  0     0  0  0  0  0  0999 V2000
   13.6668    1.7807   24.3938 C   0  0  0  0  0  0  0  0  0  0  0  0
   12.2735    1.8136   24.4501 C   0  0  0  0  0  0  0  0  0  0  0  0
    8.3310   -2.7170   25.3430 C   0  0  0  0  0  0  0  0  0  0  0  0
   10.2570   -3.5000   24.1350 C   0  0  0  0  0  0  0  0  0  0  0  0
    8.3510   -1.5420   24.6110 C   0  0  0  0  0  0  0  0  0  0  0  0
   10.2760   -2.3270   23.4020 C   0  0  0  0  0  0  0  0  0  0  0  0
   14.3084    0.9422   23.4822 C   0  0  0  0  0  0  0  0  0  0  0  0
   12.1632    0.1693   22.6834 C   0  0  0  0  0  0  0  0  0  0  0  0
   11.5217    1.0079   23.5949 C   0  0  0  0  0  0  0  0  0  0  0  0
    9.2850   -3.7090   25.1090 C   0  0  0  0  0  0  0  0  0  0  0  0
    9.3300   -1.3350   23.6390 C   0  0  0  0  0  0  0  0  0  0  0  0
   13.5566    0.1365   22.6270 C   0  0  0  0  0  0  0  0  0  0  0  0
    6.1600    0.3870   20.1140 C   0  0  0  0  0  0  0  0  0  0  0  0
    7.2210   -0.4620   20.0350 C   0  0  0  0  0  0  0  0  0  0  0  0
    5.3360    0.8000   21.1530 C   0  0  0  0  0  0  0  0  0  0  0  0
    4.2970    1.6690   20.8430 C   0  0  0  0  0  0  0  0  0  0  0  0
    4.0980    2.1130   19.5350 C   0  0  0  0  0  0  0  0  0  0  0  0
    4.9400    1.7060   18.5060 C   0  0  0  0  0  0  0  0  0  0  0  0
    8.9510    0.1280   21.6880 C   0  0  0  0  0  0  0  0  0  0  0  0
    7.3162   -6.8835   26.5210 C   0  0  0  0  0  0  0  0  0  0  0  0
    7.3507   -5.5245   27.2240 C   0  0  0  0  0  0  0  0  0  0  0  0
    7.9375   -6.8069   25.1245 C   0  0  0  0  0  0  0  0  0  0  0  0
    8.7638   -4.9418   27.2163 C   0  0  0  0  0  0  0  0  0  0  0  0
    9.3378   -6.1874   25.1659 C   0  0  0  0  0  0  0  0  0  0  0  0
   10.0220    1.0430   23.6570 C   0  0  0  0  0  0  0  0  0  0  0  0
    7.6830   -0.5170   18.7600 N   0  0  0  0  0  0  0  0  0  0  0  0
    6.9440    0.2550   18.0100 N   0  0  0  0  0  0  0  0  0  0  0  0
    5.9810    0.8330   18.8060 N   0  0  0  0  0  0  0  0  0  0  0  0
    9.2639   -4.8860   25.8399 N   0  0  0  0  0  0  0  0  0  0  0  0
    8.0810   -0.9750   21.0820 N   0  0  0  0  0  0  0  0  0  0  0  0
    9.4200   -0.0840   22.9530 N   0  0  0  0  0  0  0  0  0  0  0  0
    9.1870    1.1500   21.0630 O   0  0  0  0  0  0  0  0  0  0  0  0
   14.3487   -0.8988   21.5034 Cl  0  0  0  0  0  0  0  0  0  0  0  0
   14.2519    2.4082   25.0600 H   0  0  0  0  0  0  0  0  0  0  0  0
   11.7820    2.4700   25.1636 H   0  0  0  0  0  0  0  0  0  0  0  0
    7.5647   -2.8621   26.1053 H   0  0  0  0  0  0  0  0  0  0  0  0
   11.0144   -4.2642   23.9425 H   0  0  0  0  0  0  0  0  0  0  0  0
    7.5958   -0.7779   24.8006 H   0  0  0  0  0  0  0  0  0  0  0  0
   11.0406   -2.1848   22.6356 H   0  0  0  0  0  0  0  0  0  0  0  0
   15.3950    0.9267   23.4496 H   0  0  0  0  0  0  0  0  0  0  0  0
   11.5726   -0.4565   22.0184 H   0  0  0  0  0  0  0  0  0  0  0  0
    5.4735    0.4758   22.1644 H   0  0  0  0  0  0  0  0  0  0  0  0
    3.6415    1.9967   21.6408 H   0  0  0  0  0  0  0  0  0  0  0  0
    3.2720    2.7926   19.2921 H   0  0  0  0  0  0  0  0  0  0  0  0
    4.8119    2.0418   17.5005 H   0  0  0  0  0  0  0  0  0  0  0  0
    7.8578   -7.6261   27.1266 H   0  0  0  0  0  0  0  0  0  0  0  0
    6.2773   -7.2358   26.4459 H   0  0  0  0  0  0  0  0  0  0  0  0
    6.6663   -4.8351   26.7223 H   0  0  0  0  0  0  0  0  0  0  0  0
    7.0044   -5.6368   28.2534 H   0  0  0  0  0  0  0  0  0  0  0  0
    7.9946   -7.8119   24.6937 H   0  0  0  0  0  0  0  0  0  0  0  0
    7.2929   -6.2123   24.4668 H   0  0  0  0  0  0  0  0  0  0  0  0
    8.7343   -3.9408   27.6542 H   0  0  0  0  0  0  0  0  0  0  0  0
    9.4243   -5.5632   27.8278 H   0  0  0  0  0  0  0  0  0  0  0  0
   10.0200   -6.8490   25.7011 H   0  0  0  0  0  0  0  0  0  0  0  0
    9.6984   -6.0694   24.1436 H   0  0  0  0  0  0  0  0  0  0  0  0
    9.6778    1.0140   24.6966 H   0  0  0  0  0  0  0  0  0  0  0  0
    9.6316    1.9637   23.2107 H   0  0  0  0  0  0  0  0  0  0  0  0
    8.1334   -1.7992   21.3673 H   0  0  0  0  0  0  0  0  0  0  0  0
  1  2  2  0  0  0  0
  1  7  1  0  0  0  0
  2  9  1  0  0  0  0
  3  5  2  0  0  0  0
  3 10  1  0  0  0  0
  4  6  1  0  0  0  0
  4 10  2  0  0  0  0
  5 11  1  0  0  0  0
  6 11  2  0  0  0  0
  7 12  2  0  0  0  0
  8  9  2  0  0  0  0
  8 12  1  0  0  0  0
  9 25  1  0  0  0  0
 10 29  1  0  0  0  0
 11 31  1  0  0  0  0
 12 33  1  0  0  0  0
 13 14  2  0  0  0  0
 13 15  1  0  0  0  0
 13 28  1  0  0  0  0
 14 26  1  0  0  0  0
 14 30  1  0  0  0  0
 15 16  2  0  0  0  0
 16 17  1  0  0  0  0
 17 18  2  0  0  0  0
 18 28  1  0  0  0  0
 19 30  1  0  0  0  0
 19 31  1  0  0  0  0
 19 32  2  0  0  0  0
 20 21  1  0  0  0  0
 20 22  1  0  0  0  0
 21 23  1  0  0  0  0
 22 24  1  0  0  0  0
 23 29  1  0  0  0  0
 24 29  1  0  0  0  0
 25 31  1  0  0  0  0
 26 27  2  0  0  0  0
 27 28  1  0  0  0  0
  1 34  1  0  0  0  0
  2 35  1  0  0  0  0
  3 36  1  0  0  0  0
  4 37  1  0  0  0  0
  5 38  1  0  0  0  0
  6 39  1  0  0  0  0
  7 40  1  0  0  0  0
  8 41  1  0  0  0  0
 15 42  1  0  0  0  0
 16 43  1  0  0  0  0
 17 44  1  0  0  0  0
 18 45  1  0  0  0  0
 20 46  1  0  0  0  0
 20 47  1  0  0  0  0
 21 48  1  0  0  0  0
 21 49  1  0  0  0  0
 22 50  1  0  0  0  0
 22 51  1  0  0  0  0
 23 52  1  0  0  0  0
 23 53  1  0  0  0  0
 24 54  1  0  0  0  0
 24 55  1  0  0  0  0
 25 56  1  0  0  0  0
 25 57  1  0  0  0  0
 30 58  1  0  0  0  0
M  END
> <clash_score>
0

> <docking_score>
-7.308809280395508

> <overlap_score>
0.9966533184051514

$$$$
BENZO_95_1
  -OEChem-08222022393D

 58 62  0     0  0  0  0  0  0999 V2000
    8.3310   -2.7170   25.3430 C   0  0  0  0  0  0  0  0  0  0  0  0
   10.2570   -3.5000   24.1350 C   0  0  0  0  0  0  0  0  0  0  0  0
    8.3510   -1.5420   24.6110 C   0  0  0  0  0  0  0  0  0  0  0  0
   10.2760   -2.3270   23.4020 C   0  0  0  0  0  0  0  0  0  0  0  0
   12.4358    1.7439   24.3724 C   0  0  0  0  0  0  0  0  0  0  0  0
   12.3100    0.2469   22.7668 C   0  0  0  0  0  0  0  0  0  0  0  0
   11.5217    1.0079   23.5949 C   0  0  0  0  0  0  0  0  0  0  0  0
    9.2850   -3.7090   25.1090 C   0  0  0  0  0  0  0  0  0  0  0  0
    9.3300   -1.3350   23.6390 C   0  0  0  0  0  0  0  0  0  0  0  0
    6.1600    0.3870   20.1140 C   0  0  0  0  0  0  0  0  0  0  0  0
    7.2210   -0.4620   20.0350 C   0  0  0  0  0  0  0  0  0  0  0  0
    5.3360    0.8000   21.1530 C   0  0  0  0  0  0  0  0  0  0  0  0
    4.2970    1.6690   20.8430 C   0  0  0  0  0  0  0  0  0  0  0  0
    4.0980    2.1130   19.5350 C   0  0  0  0  0  0  0  0  0  0  0  0
    4.9400    1.7060   18.5060 C   0  0  0  0  0  0  0  0  0  0  0  0
    8.9510    0.1280   21.6880 C   0  0  0  0  0  0  0  0  0  0  0  0
    7.3162   -6.8835   26.5210 C   0  0  0  0  0  0  0  0  0  0  0  0
    7.3507   -5.5245   27.2240 C   0  0  0  0  0  0  0  0  0  0  0  0
    7.9375   -6.8069   25.1245 C   0  0  0  0  0  0  0  0  0  0  0  0
    8.7638   -4.9418   27.2163 C   0  0  0  0  0  0  0  0  0  0  0  0
    9.3378   -6.1874   25.1659 C   0  0  0  0  0  0  0  0  0  0  0  0
   14.7884    0.0124   22.4815 C   0  0  0  0  0  0  0  0  0  0  0  0
   10.0220    1.0430   23.6570 C   0  0  0  0  0  0  0  0  0  0  0  0
   13.7076    1.4745   24.0657 N   0  0  0  0  0  0  0  0  0  0  0  0
    7.6830   -0.5170   18.7600 N   0  0  0  0  0  0  0  0  0  0  0  0
    6.9440    0.2550   18.0100 N   0  0  0  0  0  0  0  0  0  0  0  0
   13.5982    0.5607   23.0864 N   0  0  0  0  0  0  0  0  0  0  0  0
    5.9810    0.8330   18.8060 N   0  0  0  0  0  0  0  0  0  0  0  0
    9.2639   -4.8860   25.8399 N   0  0  0  0  0  0  0  0  0  0  0  0
    8.0810   -0.9750   21.0820 N   0  0  0  0  0  0  0  0  0  0  0  0
    9.4200   -0.0840   22.9530 N   0  0  0  0  0  0  0  0  0  0  0  0
    9.1870    1.1500   21.0630 O   0  0  0  0  0  0  0  0  0  0  0  0
    7.5647   -2.8621   26.1053 H   0  0  0  0  0  0  0  0  0  0  0  0
   11.0144   -4.2642   23.9425 H   0  0  0  0  0  0  0  0  0  0  0  0
    7.5958   -0.7779   24.8006 H   0  0  0  0  0  0  0  0  0  0  0  0
   11.0406   -2.1848   22.6356 H   0  0  0  0  0  0  0  0  0  0  0  0
   12.2308    2.4652   25.1508 H   0  0  0  0  0  0  0  0  0  0  0  0
   12.0700   -0.4744   21.9974 H   0  0  0  0  0  0  0  0  0  0  0  0
    5.4735    0.4758   22.1644 H   0  0  0  0  0  0  0  0  0  0  0  0
    3.6415    1.9967   21.6408 H   0  0  0  0  0  0  0  0  0  0  0  0
    3.2720    2.7926   19.2921 H   0  0  0  0  0  0  0  0  0  0  0  0
    4.8119    2.0418   17.5005 H   0  0  0  0  0  0  0  0  0  0  0  0
    7.8578   -7.6261   27.1266 H   0  0  0  0  0  0  0  0  0  0  0  0
    6.2773   -7.2358   26.4459 H   0  0  0  0  0  0  0  0  0  0  0  0
    6.6663   -4.8351   26.7223 H   0  0  0  0  0  0  0  0  0  0  0  0
    7.0044   -5.6368   28.2534 H   0  0  0  0  0  0  0  0  0  0  0  0
    7.9946   -7.8119   24.6937 H   0  0  0  0  0  0  0  0  0  0  0  0
    7.2929   -6.2123   24.4668 H   0  0  0  0  0  0  0  0  0  0  0  0
    8.7343   -3.9408   27.6542 H   0  0  0  0  0  0  0  0  0  0  0  0
    9.4243   -5.5632   27.8278 H   0  0  0  0  0  0  0  0  0  0  0  0
   10.0200   -6.8490   25.7011 H   0  0  0  0  0  0  0  0  0  0  0  0
    9.6984   -6.0694   24.1436 H   0  0  0  0  0  0  0  0  0  0  0  0
   15.0569    0.6453   21.6315 H   0  0  0  0  0  0  0  0  0  0  0  0
   15.5971   -0.0026   23.2174 H   0  0  0  0  0  0  0  0  0  0  0  0
   14.5870   -1.0100   22.1498 H   0  0  0  0  0  0  0  0  0  0  0  0
    9.6778    1.0140   24.6966 H   0  0  0  0  0  0  0  0  0  0  0  0
    9.6316    1.9637   23.2107 H   0  0  0  0  0  0  0  0  0  0  0  0
    8.1334   -1.7992   21.3673 H   0  0  0  0  0  0  0  0  0  0  0  0
  1  3  2  0  0  0  0
  1  8  1  0  0  0  0
  2  4  1  0  0  0  0
  2  8  2  0  0  0  0
  3  9  1  0  0  0  0
  4  9  2  0  0  0  0
  5  7  1  0  0  0  0
  5 24  2  0  0  0  0
  6  7  2  0  0  0  0
  6 27  1  0  0  0  0
  7 23  1  0  0  0  0
  8 29  1  0  0  0  0
  9 31  1  0  0  0  0
 10 11  2  0  0  0  0
 10 12  1  0  0  0  0
 10 28  1  0  0  0  0
 11 25  1  0  0  0  0
 11 30  1  0  0  0  0
 12 13  2  0  0  0  0
 13 14  1  0  0  0  0
 14 15  2  0  0  0  0
 15 28  1  0  0  0  0
 16 30  1  0  0  0  0
 16 31  1  0  0  0  0
 16 32  2  0  0  0  0
 17 18  1  0  0  0  0
 17 19  1  0  0  0  0
 18 20  1  0  0  0  0
 19 21  1  0  0  0  0
 20 29  1  0  0  0  0
 21 29  1  0  0  0  0
 22 27  1  0  0  0  0
 23 31  1  0  0  0  0
 24 27  1  0  0  0  0
 25 26  2  0  0  0  0
 26 28  1  0  0  0  0
  1 33  1  0  0  0  0
  2 34  1  0  0  0  0
  3 35  1  0  0  0  0
  4 36  1  0  0  0  0
  5 37  1  0  0  0  0
  6 38  1  0  0  0  0
 12 39  1  0  0  0  0
 13 40  1  0  0  0  0
 14 41  1  0  0  0  0
 15 42  1  0  0  0  0
 17 43  1  0  0  0  0
 17 44  1  0  0  0  0
 18 45  1  0  0  0  0
 18 46  1  0  0  0  0
 19 47  1  0  0  0  0
 19 48  1  0  0  0  0
 20 49  1  0  0  0  0
 20 50  1  0  0  0  0
 21 51  1  0  0  0  0
 21 52  1  0  0  0  0
 22 53  1  0  0  0  0
 22 54  1  0  0  0  0
 22 55  1  0  0  0  0
 23 56  1  0  0  0  0
 23 57  1  0  0  0  0
 30 58  1  0  0  0  0
M  END
> <clash_score>
0

> <docking_score>
-8.272491455078125

> <overlap_score>
1.0017565488815308

$$$$
BENZO_99_1
  -OEChem-08222022393D

 46 49  0     0  0  0  0  0  0999 V2000
    8.3310   -2.7170   25.3430 C   0  0  0  0  0  0  0  0  0  0  0  0
   10.2570   -3.5000   24.1350 C   0  0  0  0  0  0  0  0  0  0  0  0
    8.3510   -1.5420   24.6110 C   0  0  0  0  0  0  0  0  0  0  0  0
   10.2760   -2.3270   23.4020 C   0  0  0  0  0  0  0  0  0  0  0  0
   12.4295    0.9466   24.6692 C   0  0  0  0  0  0  0  0  0  0  0  0
   12.3161    1.0259   22.4747 C   0  0  0  0  0  0  0  0  0  0  0  0
    9.2850   -3.7090   25.1090 C   0  0  0  0  0  0  0  0  0  0  0  0
   11.5217    1.0079   23.5949 C   0  0  0  0  0  0  0  0  0  0  0  0
    9.3300   -1.3350   23.6390 C   0  0  0  0  0  0  0  0  0  0  0  0
    6.1600    0.3870   20.1140 C   0  0  0  0  0  0  0  0  0  0  0  0
    7.2210   -0.4620   20.0350 C   0  0  0  0  0  0  0  0  0  0  0  0
    5.3360    0.8000   21.1530 C   0  0  0  0  0  0  0  0  0  0  0  0
    4.2970    1.6690   20.8430 C   0  0  0  0  0  0  0  0  0  0  0  0
    4.0980    2.1130   19.5350 C   0  0  0  0  0  0  0  0  0  0  0  0
    4.9400    1.7060   18.5060 C   0  0  0  0  0  0  0  0  0  0  0  0
    8.9510    0.1280   21.6880 C   0  0  0  0  0  0  0  0  0  0  0  0
    9.2610   -4.9721   25.8916 C   0  0  0  0  0  0  0  0  0  0  0  0
   14.7958    0.9722   22.1181 C   0  0  0  0  0  0  0  0  0  0  0  0
   10.0220    1.0430   23.6570 C   0  0  0  0  0  0  0  0  0  0  0  0
   13.7032    0.9267   24.2674 N   0  0  0  0  0  0  0  0  0  0  0  0
    7.6830   -0.5170   18.7600 N   0  0  0  0  0  0  0  0  0  0  0  0
    6.9440    0.2550   18.0100 N   0  0  0  0  0  0  0  0  0  0  0  0
   13.6014    0.9758   22.9283 N   0  0  0  0  0  0  0  0  0  0  0  0
    5.9810    0.8330   18.8060 N   0  0  0  0  0  0  0  0  0  0  0  0
    8.0810   -0.9750   21.0820 N   0  0  0  0  0  0  0  0  0  0  0  0
    9.4200   -0.0840   22.9530 N   0  0  0  0  0  0  0  0  0  0  0  0
    9.1870    1.1500   21.0630 O   0  0  0  0  0  0  0  0  0  0  0  0
    7.5665   -2.8638   26.1066 H   0  0  0  0  0  0  0  0  0  0  0  0
   11.0137   -4.2652   23.9447 H   0  0  0  0  0  0  0  0  0  0  0  0
    7.5948   -0.7788   24.7997 H   0  0  0  0  0  0  0  0  0  0  0  0
   11.0411   -2.1856   22.6358 H   0  0  0  0  0  0  0  0  0  0  0  0
   12.2184    0.9145   25.7287 H   0  0  0  0  0  0  0  0  0  0  0  0
   12.0821    1.0677   21.4195 H   0  0  0  0  0  0  0  0  0  0  0  0
    5.4735    0.4758   22.1644 H   0  0  0  0  0  0  0  0  0  0  0  0
    3.6415    1.9967   21.6408 H   0  0  0  0  0  0  0  0  0  0  0  0
    3.2720    2.7926   19.2921 H   0  0  0  0  0  0  0  0  0  0  0  0
    4.8119    2.0418   17.5005 H   0  0  0  0  0  0  0  0  0  0  0  0
    8.6398   -5.7223   25.3871 H   0  0  0  0  0  0  0  0  0  0  0  0
   10.2715   -5.3829   26.0145 H   0  0  0  0  0  0  0  0  0  0  0  0
    8.8596   -4.8092   26.9004 H   0  0  0  0  0  0  0  0  0  0  0  0
   15.1026    2.0102   21.9649 H   0  0  0  0  0  0  0  0  0  0  0  0
   15.5825    0.4128   22.6318 H   0  0  0  0  0  0  0  0  0  0  0  0
   14.5811    0.4906   21.1600 H   0  0  0  0  0  0  0  0  0  0  0  0
    9.6778    1.0140   24.6966 H   0  0  0  0  0  0  0  0  0  0  0  0
    9.6316    1.9637   23.2107 H   0  0  0  0  0  0  0  0  0  0  0  0
    8.1135   -1.8119   21.3500 H   0  0  0  0  0  0  0  0  0  0  0  0
  1  3  2  0  0  0  0
  1  7  1  0  0  0  0
  2  4  1  0  0  0  0
  2  7  2  0  0  0  0
  3  9  1  0  0  0  0
  4  9  2  0  0  0  0
  5  8  1  0  0  0  0
  5 20  2  0  0  0  0
  6  8  2  0  0  0  0
  6 23  1  0  0  0  0
  7 17  1  0  0  0  0
  8 19  1  0  0  0  0
  9 26  1  0  0  0  0
 10 11  2  0  0  0  0
 10 12  1  0  0  0  0
 10 24  1  0  0  0  0
 11 21  1  0  0  0  0
 11 25  1  0  0  0  0
 12 13  2  0  0  0  0
 13 14  1  0  0  0  0
 14 15  2  0  0  0  0
 15 24  1  0  0  0  0
 16 25  1  0  0  0  0
 16 26  1  0  0  0  0
 16 27  2  0  0  0  0
 18 23  1  0  0  0  0
 19 26  1  0  0  0  0
 20 23  1  0  0  0  0
 21 22  2  0  0  0  0
 22 24  1  0  0  0  0
  1 28  1  0  0  0  0
  2 29  1  0  0  0  0
  3 30  1  0  0  0  0
  4 31  1  0  0  0  0
  5 32  1  0  0  0  0
  6 33  1  0  0  0  0
 12 34  1  0  0  0  0
 13 35  1  0  0  0  0
 14 36  1  0  0  0  0
 15 37  1  0  0  0  0
 17 38  1  0  0  0  0
 17 39  1  0  0  0  0
 17 40  1  0  0  0  0
 18 41  1  0  0  0  0
 18 42  1  0  0  0  0
 18 43  1  0  0  0  0
 19 44  1  0  0  0  0
 19 45  1  0  0  0  0
 25 46  1  0  0  0  0
M  END
> <clash_score>
0

> <docking_score>
-8.957603454589844

> <overlap_score>
0.9625561833381653

$$$$
BENZO_98_1
  -OEChem-08222022393D

 46 49  0     0  0  0  0  0  0999 V2000
   13.5977    1.8457   22.6865 C   0  0  0  0  0  0  0  0  0  0  0  0
   12.2044    1.8769   22.7438 C   0  0  0  0  0  0  0  0  0  0  0  0
    8.3310   -2.7170   25.3430 C   0  0  0  0  0  0  0  0  0  0  0  0
   10.2570   -3.5000   24.1350 C   0  0  0  0  0  0  0  0  0  0  0  0
    8.3510   -1.5420   24.6110 C   0  0  0  0  0  0  0  0  0  0  0  0
   10.2760   -2.3270   23.4020 C   0  0  0  0  0  0  0  0  0  0  0  0
   14.3084    0.9454   23.4803 C   0  0  0  0  0  0  0  0  0  0  0  0
   12.2323    0.1076   24.3888 C   0  0  0  0  0  0  0  0  0  0  0  0
    9.2850   -3.7090   25.1090 C   0  0  0  0  0  0  0  0  0  0  0  0
   11.5217    1.0079   23.5949 C   0  0  0  0  0  0  0  0  0  0  0  0
    9.3300   -1.3350   23.6390 C   0  0  0  0  0  0  0  0  0  0  0  0
   13.6257    0.0764   24.3314 C   0  0  0  0  0  0  0  0  0  0  0  0
    6.1600    0.3870   20.1140 C   0  0  0  0  0  0  0  0  0  0  0  0
    7.2210   -0.4620   20.0350 C   0  0  0  0  0  0  0  0  0  0  0  0
    5.3360    0.8000   21.1530 C   0  0  0  0  0  0  0  0  0  0  0  0
    4.2970    1.6690   20.8430 C   0  0  0  0  0  0  0  0  0  0  0  0
    4.0980    2.1130   19.5350 C   0  0  0  0  0  0  0  0  0  0  0  0
    4.9400    1.7060   18.5060 C   0  0  0  0  0  0  0  0  0  0  0  0
    8.9510    0.1280   21.6880 C   0  0  0  0  0  0  0  0  0  0  0  0
    9.2610   -4.9721   25.8916 C   0  0  0  0  0  0  0  0  0  0  0  0
   10.0220    1.0430   23.6570 C   0  0  0  0  0  0  0  0  0  0  0  0
    7.6830   -0.5170   18.7600 N   0  0  0  0  0  0  0  0  0  0  0  0
    6.9440    0.2550   18.0100 N   0  0  0  0  0  0  0  0  0  0  0  0
    5.9810    0.8330   18.8060 N   0  0  0  0  0  0  0  0  0  0  0  0
    8.0810   -0.9750   21.0820 N   0  0  0  0  0  0  0  0  0  0  0  0
    9.4200   -0.0840   22.9530 N   0  0  0  0  0  0  0  0  0  0  0  0
    9.1870    1.1500   21.0630 O   0  0  0  0  0  0  0  0  0  0  0  0
   14.5031   -1.0334   25.3114 Cl  0  0  0  0  0  0  0  0  0  0  0  0
   14.1289    2.5227   22.0237 H   0  0  0  0  0  0  0  0  0  0  0  0
   11.6588    2.5818   22.1218 H   0  0  0  0  0  0  0  0  0  0  0  0
    7.5665   -2.8638   26.1066 H   0  0  0  0  0  0  0  0  0  0  0  0
   11.0137   -4.2652   23.9447 H   0  0  0  0  0  0  0  0  0  0  0  0
    7.5948   -0.7788   24.7997 H   0  0  0  0  0  0  0  0  0  0  0  0
   11.0411   -2.1856   22.6358 H   0  0  0  0  0  0  0  0  0  0  0  0
   15.3941    0.9323   23.4255 H   0  0  0  0  0  0  0  0  0  0  0  0
   11.6954   -0.5682   25.0504 H   0  0  0  0  0  0  0  0  0  0  0  0
    5.4735    0.4758   22.1644 H   0  0  0  0  0  0  0  0  0  0  0  0
    3.6415    1.9967   21.6408 H   0  0  0  0  0  0  0  0  0  0  0  0
    3.2720    2.7926   19.2921 H   0  0  0  0  0  0  0  0  0  0  0  0
    4.8119    2.0418   17.5005 H   0  0  0  0  0  0  0  0  0  0  0  0
    8.6398   -5.7223   25.3871 H   0  0  0  0  0  0  0  0  0  0  0  0
   10.2715   -5.3829   26.0145 H   0  0  0  0  0  0  0  0  0  0  0  0
    8.8596   -4.8092   26.9004 H   0  0  0  0  0  0  0  0  0  0  0  0
    9.6778    1.0140   24.6966 H   0  0  0  0  0  0  0  0  0  0  0  0
    9.6316    1.9637   23.2107 H   0  0  0  0  0  0  0  0  0  0  0  0
    8.1135   -1.8119   21.3500 H   0  0  0  0  0  0  0  0  0  0  0  0
  1  2  2  0  0  0  0
  1  7  1  0  0  0  0
  2 10  1  0  0  0  0
  3  5  2  0  0  0  0
  3  9  1  0  0  0  0
  4  6  1  0  0  0  0
  4  9  2  0  0  0  0
  5 11  1  0  0  0  0
  6 11  2  0  0  0  0
  7 12  2  0  0  0  0
  8 10  2  0  0  0  0
  8 12  1  0  0  0  0
  9 20  1  0  0  0  0
 10 21  1  0  0  0  0
 11 26  1  0  0  0  0
 12 28  1  0  0  0  0
 13 14  2  0  0  0  0
 13 15  1  0  0  0  0
 13 24  1  0  0  0  0
 14 22  1  0  0  0  0
 14 25  1  0  0  0  0
 15 16  2  0  0  0  0
 16 17  1  0  0  0  0
 17 18  2  0  0  0  0
 18 24  1  0  0  0  0
 19 25  1  0  0  0  0
 19 26  1  0  0  0  0
 19 27  2  0  0  0  0
 21 26  1  0  0  0  0
 22 23  2  0  0  0  0
 23 24  1  0  0  0  0
  1 29  1  0  0  0  0
  2 30  1  0  0  0  0
  3 31  1  0  0  0  0
  4 32  1  0  0  0  0
  5 33  1  0  0  0  0
  6 34  1  0  0  0  0
  7 35  1  0  0  0  0
  8 36  1  0  0  0  0
 15 37  1  0  0  0  0
 16 38  1  0  0  0  0
 17 39  1  0  0  0  0
 18 40  1  0  0  0  0
 20 41  1  0  0  0  0
 20 42  1  0  0  0  0
 20 43  1  0  0  0  0
 21 44  1  0  0  0  0
 21 45  1  0  0  0  0
 25 46  1  0  0  0  0
M  END
> <clash_score>
0.7662434068161399

> <docking_score>
-8.197446823120117

> <overlap_score>
0.9770408868789673

$$$$
BENZO_101_1
  -OEChem-08222022393D

 47 50  0     0  0  0  0  0  0999 V2000
   14.3082    0.9431   23.4783 C   0  0  0  0  0  0  0  0  0  0  0  0
   13.6391    0.3091   24.5251 C   0  0  0  0  0  0  0  0  0  0  0  0
   13.5841    1.6096   22.4898 C   0  0  0  0  0  0  0  0  0  0  0  0
   12.2459    0.3415   24.5835 C   0  0  0  0  0  0  0  0  0  0  0  0
   12.1908    1.6420   22.5481 C   0  0  0  0  0  0  0  0  0  0  0  0
    8.3510   -1.5420   24.6110 C   0  0  0  0  0  0  0  0  0  0  0  0
   10.2760   -2.3270   23.4020 C   0  0  0  0  0  0  0  0  0  0  0  0
    8.3310   -2.7170   25.3430 C   0  0  0  0  0  0  0  0  0  0  0  0
   10.2570   -3.5000   24.1350 C   0  0  0  0  0  0  0  0  0  0  0  0
   11.5217    1.0079   23.5949 C   0  0  0  0  0  0  0  0  0  0  0  0
    9.3300   -1.3350   23.6390 C   0  0  0  0  0  0  0  0  0  0  0  0
    9.2850   -3.7090   25.1090 C   0  0  0  0  0  0  0  0  0  0  0  0
    6.1600    0.3870   20.1140 C   0  0  0  0  0  0  0  0  0  0  0  0
    7.2210   -0.4620   20.0350 C   0  0  0  0  0  0  0  0  0  0  0  0
    5.3360    0.8000   21.1530 C   0  0  0  0  0  0  0  0  0  0  0  0
    4.2970    1.6690   20.8430 C   0  0  0  0  0  0  0  0  0  0  0  0
    4.0980    2.1130   19.5350 C   0  0  0  0  0  0  0  0  0  0  0  0
    4.9400    1.7060   18.5060 C   0  0  0  0  0  0  0  0  0  0  0  0
    8.9510    0.1280   21.6880 C   0  0  0  0  0  0  0  0  0  0  0  0
    8.2346   -4.9975   26.8023 C   0  0  0  0  0  0  0  0  0  0  0  0
   10.0220    1.0430   23.6570 C   0  0  0  0  0  0  0  0  0  0  0  0
    7.6830   -0.5170   18.7600 N   0  0  0  0  0  0  0  0  0  0  0  0
    6.9440    0.2550   18.0100 N   0  0  0  0  0  0  0  0  0  0  0  0
    5.9810    0.8330   18.8060 N   0  0  0  0  0  0  0  0  0  0  0  0
    8.0810   -0.9750   21.0820 N   0  0  0  0  0  0  0  0  0  0  0  0
    9.4200   -0.0840   22.9530 N   0  0  0  0  0  0  0  0  0  0  0  0
    9.1870    1.1500   21.0630 O   0  0  0  0  0  0  0  0  0  0  0  0
    9.2631   -4.8614   25.8229 O   0  0  0  0  0  0  0  0  0  0  0  0
   15.3932    0.9189   23.4337 H   0  0  0  0  0  0  0  0  0  0  0  0
   14.2029   -0.2090   25.2955 H   0  0  0  0  0  0  0  0  0  0  0  0
   14.1048    2.1043   21.6752 H   0  0  0  0  0  0  0  0  0  0  0  0
   11.7330   -0.1555   25.4027 H   0  0  0  0  0  0  0  0  0  0  0  0
   11.6349    2.1636   21.7735 H   0  0  0  0  0  0  0  0  0  0  0  0
    7.5951   -0.7786   24.8000 H   0  0  0  0  0  0  0  0  0  0  0  0
   11.0406   -2.1866   22.6351 H   0  0  0  0  0  0  0  0  0  0  0  0
    7.5664   -2.8674   26.1055 H   0  0  0  0  0  0  0  0  0  0  0  0
   11.0119   -4.2671   23.9461 H   0  0  0  0  0  0  0  0  0  0  0  0
    5.4735    0.4758   22.1644 H   0  0  0  0  0  0  0  0  0  0  0  0
    3.6415    1.9967   21.6408 H   0  0  0  0  0  0  0  0  0  0  0  0
    3.2720    2.7926   19.2921 H   0  0  0  0  0  0  0  0  0  0  0  0
    4.8119    2.0418   17.5005 H   0  0  0  0  0  0  0  0  0  0  0  0
    8.3309   -5.9651   27.3009 H   0  0  0  0  0  0  0  0  0  0  0  0
    7.2574   -4.9205   26.3189 H   0  0  0  0  0  0  0  0  0  0  0  0
    8.3380   -4.1982   27.5399 H   0  0  0  0  0  0  0  0  0  0  0  0
    9.6778    1.0140   24.6966 H   0  0  0  0  0  0  0  0  0  0  0  0
    9.6316    1.9637   23.2107 H   0  0  0  0  0  0  0  0  0  0  0  0
    8.1135   -1.8119   21.3500 H   0  0  0  0  0  0  0  0  0  0  0  0
  1  2  1  0  0  0  0
  1  3  2  0  0  0  0
  2  4  2  0  0  0  0
  3  5  1  0  0  0  0
  4 10  1  0  0  0  0
  5 10  2  0  0  0  0
  6  8  2  0  0  0  0
  6 11  1  0  0  0  0
  7  9  1  0  0  0  0
  7 11  2  0  0  0  0
  8 12  1  0  0  0  0
  9 12  2  0  0  0  0
 10 21  1  0  0  0  0
 11 26  1  0  0  0  0
 12 28  1  0  0  0  0
 13 14  2  0  0  0  0
 13 15  1  0  0  0  0
 13 24  1  0  0  0  0
 14 22  1  0  0  0  0
 14 25  1  0  0  0  0
 15 16  2  0  0  0  0
 16 17  1  0  0  0  0
 17 18  2  0  0  0  0
 18 24  1  0  0  0  0
 19 25  1  0  0  0  0
 19 26  1  0  0  0  0
 19 27  2  0  0  0  0
 20 28  1  0  0  0  0
 21 26  1  0  0  0  0
 22 23  2  0  0  0  0
 23 24  1  0  0  0  0
  1 29  1  0  0  0  0
  2 30  1  0  0  0  0
  3 31  1  0  0  0  0
  4 32  1  0  0  0  0
  5 33  1  0  0  0  0
  6 34  1  0  0  0  0
  7 35  1  0  0  0  0
  8 36  1  0  0  0  0
  9 37  1  0  0  0  0
 15 38  1  0  0  0  0
 16 39  1  0  0  0  0
 17 40  1  0  0  0  0
 18 41  1  0  0  0  0
 20 42  1  0  0  0  0
 20 43  1  0  0  0  0
 20 44  1  0  0  0  0
 21 45  1  0  0  0  0
 21 46  1  0  0  0  0
 25 47  1  0  0  0  0
M  END
> <clash_score>
0

> <docking_score>
-8.724555015563965

> <overlap_score>
0.9956545829772949

$$$$
BENZO_100_1
  -OEChem-08222022393D

 44 47  0     0  0  0  0  0  0999 V2000
    8.3510   -1.5420   24.6110 C   0  0  0  0  0  0  0  0  0  0  0  0
   10.2760   -2.3270   23.4020 C   0  0  0  0  0  0  0  0  0  0  0  0
    8.3310   -2.7170   25.3430 C   0  0  0  0  0  0  0  0  0  0  0  0
   10.2570   -3.5000   24.1350 C   0  0  0  0  0  0  0  0  0  0  0  0
   12.2675    1.0332   22.3812 C   0  0  0  0  0  0  0  0  0  0  0  0
   13.6257    0.9906   22.6074 C   0  0  0  0  0  0  0  0  0  0  0  0
   12.3384    0.9467   24.7028 C   0  0  0  0  0  0  0  0  0  0  0  0
   11.5217    1.0079   23.5949 C   0  0  0  0  0  0  0  0  0  0  0  0
    9.3300   -1.3350   23.6390 C   0  0  0  0  0  0  0  0  0  0  0  0
    9.2850   -3.7090   25.1090 C   0  0  0  0  0  0  0  0  0  0  0  0
    6.1600    0.3870   20.1140 C   0  0  0  0  0  0  0  0  0  0  0  0
    7.2210   -0.4620   20.0350 C   0  0  0  0  0  0  0  0  0  0  0  0
    5.3360    0.8000   21.1530 C   0  0  0  0  0  0  0  0  0  0  0  0
    4.2970    1.6690   20.8430 C   0  0  0  0  0  0  0  0  0  0  0  0
    4.0980    2.1130   19.5350 C   0  0  0  0  0  0  0  0  0  0  0  0
    4.9400    1.7060   18.5060 C   0  0  0  0  0  0  0  0  0  0  0  0
    8.9510    0.1280   21.6880 C   0  0  0  0  0  0  0  0  0  0  0  0
    8.2346   -4.9975   26.8023 C   0  0  0  0  0  0  0  0  0  0  0  0
   10.0220    1.0430   23.6570 C   0  0  0  0  0  0  0  0  0  0  0  0
    7.6830   -0.5170   18.7600 N   0  0  0  0  0  0  0  0  0  0  0  0
    6.9440    0.2550   18.0100 N   0  0  0  0  0  0  0  0  0  0  0  0
    5.9810    0.8330   18.8060 N   0  0  0  0  0  0  0  0  0  0  0  0
    8.0810   -0.9750   21.0820 N   0  0  0  0  0  0  0  0  0  0  0  0
    9.4200   -0.0840   22.9530 N   0  0  0  0  0  0  0  0  0  0  0  0
    9.1870    1.1500   21.0630 O   0  0  0  0  0  0  0  0  0  0  0  0
    9.2631   -4.8614   25.8229 O   0  0  0  0  0  0  0  0  0  0  0  0
   13.9969    0.9203   24.2776 S   0  0  0  0  0  0  0  0  0  0  0  0
    7.5951   -0.7786   24.8000 H   0  0  0  0  0  0  0  0  0  0  0  0
   11.0406   -2.1866   22.6351 H   0  0  0  0  0  0  0  0  0  0  0  0
    7.5664   -2.8674   26.1055 H   0  0  0  0  0  0  0  0  0  0  0  0
   11.0119   -4.2671   23.9461 H   0  0  0  0  0  0  0  0  0  0  0  0
   11.8338    1.0798   21.3902 H   0  0  0  0  0  0  0  0  0  0  0  0
   14.4176    0.9966   21.8719 H   0  0  0  0  0  0  0  0  0  0  0  0
   12.0446    0.9149   25.7428 H   0  0  0  0  0  0  0  0  0  0  0  0
    5.4735    0.4758   22.1644 H   0  0  0  0  0  0  0  0  0  0  0  0
    3.6415    1.9967   21.6408 H   0  0  0  0  0  0  0  0  0  0  0  0
    3.2720    2.7926   19.2921 H   0  0  0  0  0  0  0  0  0  0  0  0
    4.8119    2.0418   17.5005 H   0  0  0  0  0  0  0  0  0  0  0  0
    8.3309   -5.9651   27.3009 H   0  0  0  0  0  0  0  0  0  0  0  0
    7.2574   -4.9205   26.3189 H   0  0  0  0  0  0  0  0  0  0  0  0
    8.3380   -4.1982   27.5399 H   0  0  0  0  0  0  0  0  0  0  0  0
    9.6778    1.0140   24.6966 H   0  0  0  0  0  0  0  0  0  0  0  0
    9.6316    1.9637   23.2107 H   0  0  0  0  0  0  0  0  0  0  0  0
    8.1135   -1.8119   21.3500 H   0  0  0  0  0  0  0  0  0  0  0  0
  1  3  2  0  0  0  0
  1  9  1  0  0  0  0
  2  4  1  0  0  0  0
  2  9  2  0  0  0  0
  3 10  1  0  0  0  0
  4 10  2  0  0  0  0
  5  6  2  0  0  0  0
  5  8  1  0  0  0  0
  6 27  1  0  0  0  0
  7  8  2  0  0  0  0
  7 27  1  0  0  0  0
  8 19  1  0  0  0  0
  9 24  1  0  0  0  0
 10 26  1  0  0  0  0
 11 12  2  0  0  0  0
 11 13  1  0  0  0  0
 11 22  1  0  0  0  0
 12 20  1  0  0  0  0
 12 23  1  0  0  0  0
 13 14  2  0  0  0  0
 14 15  1  0  0  0  0
 15 16  2  0  0  0  0
 16 22  1  0  0  0  0
 17 23  1  0  0  0  0
 17 24  1  0  0  0  0
 17 25  2  0  0  0  0
 18 26  1  0  0  0  0
 19 24  1  0  0  0  0
 20 21  2  0  0  0  0
 21 22  1  0  0  0  0
  1 28  1  0  0  0  0
  2 29  1  0  0  0  0
  3 30  1  0  0  0  0
  4 31  1  0  0  0  0
  5 32  1  0  0  0  0
  6 33  1  0  0  0  0
  7 34  1  0  0  0  0
 13 35  1  0  0  0  0
 14 36  1  0  0  0  0
 15 37  1  0  0  0  0
 16 38  1  0  0  0  0
 18 39  1  0  0  0  0
 18 40  1  0  0  0  0
 18 41  1  0  0  0  0
 19 42  1  0  0  0  0
 19 43  1  0  0  0  0
 23 44  1  0  0  0  0
M  END
> <clash_score>
0

> <docking_score>
-8.97075366973877

> <overlap_score>
0.9697705507278442

$$$$
BENZO_102_1
  -OEChem-08222022393D

 47 50  0     0  0  0  0  0  0999 V2000
   13.6668    1.7807   24.3938 C   0  0  0  0  0  0  0  0  0  0  0  0
   12.2735    1.8136   24.4501 C   0  0  0  0  0  0  0  0  0  0  0  0
    8.3510   -1.5420   24.6110 C   0  0  0  0  0  0  0  0  0  0  0  0
   10.2760   -2.3270   23.4020 C   0  0  0  0  0  0  0  0  0  0  0  0
    8.3310   -2.7170   25.3430 C   0  0  0  0  0  0  0  0  0  0  0  0
   10.2570   -3.5000   24.1350 C   0  0  0  0  0  0  0  0  0  0  0  0
   14.3084    0.9422   23.4822 C   0  0  0  0  0  0  0  0  0  0  0  0
   12.1632    0.1693   22.6834 C   0  0  0  0  0  0  0  0  0  0  0  0
   11.5217    1.0079   23.5949 C   0  0  0  0  0  0  0  0  0  0  0  0
    9.3300   -1.3350   23.6390 C   0  0  0  0  0  0  0  0  0  0  0  0
    9.2850   -3.7090   25.1090 C   0  0  0  0  0  0  0  0  0  0  0  0
   13.5566    0.1365   22.6270 C   0  0  0  0  0  0  0  0  0  0  0  0
    6.1600    0.3870   20.1140 C   0  0  0  0  0  0  0  0  0  0  0  0
    7.2210   -0.4620   20.0350 C   0  0  0  0  0  0  0  0  0  0  0  0
    5.3360    0.8000   21.1530 C   0  0  0  0  0  0  0  0  0  0  0  0
    4.2970    1.6690   20.8430 C   0  0  0  0  0  0  0  0  0  0  0  0
    4.0980    2.1130   19.5350 C   0  0  0  0  0  0  0  0  0  0  0  0
    4.9400    1.7060   18.5060 C   0  0  0  0  0  0  0  0  0  0  0  0
    8.9510    0.1280   21.6880 C   0  0  0  0  0  0  0  0  0  0  0  0
    8.2346   -4.9975   26.8023 C   0  0  0  0  0  0  0  0  0  0  0  0
   10.0220    1.0430   23.6570 C   0  0  0  0  0  0  0  0  0  0  0  0
    7.6830   -0.5170   18.7600 N   0  0  0  0  0  0  0  0  0  0  0  0
    6.9440    0.2550   18.0100 N   0  0  0  0  0  0  0  0  0  0  0  0
    5.9810    0.8330   18.8060 N   0  0  0  0  0  0  0  0  0  0  0  0
    8.0810   -0.9750   21.0820 N   0  0  0  0  0  0  0  0  0  0  0  0
    9.4200   -0.0840   22.9530 N   0  0  0  0  0  0  0  0  0  0  0  0
    9.1870    1.1500   21.0630 O   0  0  0  0  0  0  0  0  0  0  0  0
    9.2631   -4.8614   25.8229 O   0  0  0  0  0  0  0  0  0  0  0  0
   14.3487   -0.8988   21.5034 Cl  0  0  0  0  0  0  0  0  0  0  0  0
   14.2519    2.4082   25.0600 H   0  0  0  0  0  0  0  0  0  0  0  0
   11.7820    2.4700   25.1636 H   0  0  0  0  0  0  0  0  0  0  0  0
    7.5951   -0.7786   24.8000 H   0  0  0  0  0  0  0  0  0  0  0  0
   11.0406   -2.1866   22.6351 H   0  0  0  0  0  0  0  0  0  0  0  0
    7.5664   -2.8674   26.1055 H   0  0  0  0  0  0  0  0  0  0  0  0
   11.0119   -4.2671   23.9461 H   0  0  0  0  0  0  0  0  0  0  0  0
   15.3950    0.9267   23.4496 H   0  0  0  0  0  0  0  0  0  0  0  0
   11.5726   -0.4565   22.0184 H   0  0  0  0  0  0  0  0  0  0  0  0
    5.4735    0.4758   22.1644 H   0  0  0  0  0  0  0  0  0  0  0  0
    3.6415    1.9967   21.6408 H   0  0  0  0  0  0  0  0  0  0  0  0
    3.2720    2.7926   19.2921 H   0  0  0  0  0  0  0  0  0  0  0  0
    4.8119    2.0418   17.5005 H   0  0  0  0  0  0  0  0  0  0  0  0
    8.3309   -5.9651   27.3009 H   0  0  0  0  0  0  0  0  0  0  0  0
    7.2574   -4.9205   26.3189 H   0  0  0  0  0  0  0  0  0  0  0  0
    8.3380   -4.1982   27.5399 H   0  0  0  0  0  0  0  0  0  0  0  0
    9.6778    1.0140   24.6966 H   0  0  0  0  0  0  0  0  0  0  0  0
    9.6316    1.9637   23.2107 H   0  0  0  0  0  0  0  0  0  0  0  0
    8.1135   -1.8119   21.3500 H   0  0  0  0  0  0  0  0  0  0  0  0
  1  2  2  0  0  0  0
  1  7  1  0  0  0  0
  2  9  1  0  0  0  0
  3  5  2  0  0  0  0
  3 10  1  0  0  0  0
  4  6  1  0  0  0  0
  4 10  2  0  0  0  0
  5 11  1  0  0  0  0
  6 11  2  0  0  0  0
  7 12  2  0  0  0  0
  8  9  2  0  0  0  0
  8 12  1  0  0  0  0
  9 21  1  0  0  0  0
 10 26  1  0  0  0  0
 11 28  1  0  0  0  0
 12 29  1  0  0  0  0
 13 14  2  0  0  0  0
 13 15  1  0  0  0  0
 13 24  1  0  0  0  0
 14 22  1  0  0  0  0
 14 25  1  0  0  0  0
 15 16  2  0  0  0  0
 16 17  1  0  0  0  0
 17 18  2  0  0  0  0
 18 24  1  0  0  0  0
 19 25  1  0  0  0  0
 19 26  1  0  0  0  0
 19 27  2  0  0  0  0
 20 28  1  0  0  0  0
 21 26  1  0  0  0  0
 22 23  2  0  0  0  0
 23 24  1  0  0  0  0
  1 30  1  0  0  0  0
  2 31  1  0  0  0  0
  3 32  1  0  0  0  0
  4 33  1  0  0  0  0
  5 34  1  0  0  0  0
  6 35  1  0  0  0  0
  7 36  1  0  0  0  0
  8 37  1  0  0  0  0
 15 38  1  0  0  0  0
 16 39  1  0  0  0  0
 17 40  1  0  0  0  0
 18 41  1  0  0  0  0
 20 42  1  0  0  0  0
 20 43  1  0  0  0  0
 20 44  1  0  0  0  0
 21 45  1  0  0  0  0
 21 46  1  0  0  0  0
 25 47  1  0  0  0  0
M  END
> <clash_score>
0

> <docking_score>
-7.975492477416992

> <overlap_score>
0.9766173362731934

$$$$
BENZO_103_1
  -OEChem-08222022393D

 47 50  0     0  0  0  0  0  0999 V2000
    8.3510   -1.5420   24.6110 C   0  0  0  0  0  0  0  0  0  0  0  0
   10.2760   -2.3270   23.4020 C   0  0  0  0  0  0  0  0  0  0  0  0
    8.3310   -2.7170   25.3430 C   0  0  0  0  0  0  0  0  0  0  0  0
   10.2570   -3.5000   24.1350 C   0  0  0  0  0  0  0  0  0  0  0  0
   12.4359    1.7439   24.3724 C   0  0  0  0  0  0  0  0  0  0  0  0
   12.3100    0.2469   22.7668 C   0  0  0  0  0  0  0  0  0  0  0  0
   11.5217    1.0079   23.5949 C   0  0  0  0  0  0  0  0  0  0  0  0
    9.3300   -1.3350   23.6390 C   0  0  0  0  0  0  0  0  0  0  0  0
    9.2850   -3.7090   25.1090 C   0  0  0  0  0  0  0  0  0  0  0  0
    6.1600    0.3870   20.1140 C   0  0  0  0  0  0  0  0  0  0  0  0
    7.2210   -0.4620   20.0350 C   0  0  0  0  0  0  0  0  0  0  0  0
    5.3360    0.8000   21.1530 C   0  0  0  0  0  0  0  0  0  0  0  0
    4.2970    1.6690   20.8430 C   0  0  0  0  0  0  0  0  0  0  0  0
    4.0980    2.1130   19.5350 C   0  0  0  0  0  0  0  0  0  0  0  0
    4.9400    1.7060   18.5060 C   0  0  0  0  0  0  0  0  0  0  0  0
    8.9510    0.1280   21.6880 C   0  0  0  0  0  0  0  0  0  0  0  0
   14.7884    0.0124   22.4815 C   0  0  0  0  0  0  0  0  0  0  0  0
    8.2346   -4.9975   26.8023 C   0  0  0  0  0  0  0  0  0  0  0  0
   10.0220    1.0430   23.6570 C   0  0  0  0  0  0  0  0  0  0  0  0
   13.7076    1.4745   24.0657 N   0  0  0  0  0  0  0  0  0  0  0  0
    7.6830   -0.5170   18.7600 N   0  0  0  0  0  0  0  0  0  0  0  0
    6.9440    0.2550   18.0100 N   0  0  0  0  0  0  0  0  0  0  0  0
   13.5982    0.5607   23.0864 N   0  0  0  0  0  0  0  0  0  0  0  0
    5.9810    0.8330   18.8060 N   0  0  0  0  0  0  0  0  0  0  0  0
    8.0810   -0.9750   21.0820 N   0  0  0  0  0  0  0  0  0  0  0  0
    9.4200   -0.0840   22.9530 N   0  0  0  0  0  0  0  0  0  0  0  0
    9.1870    1.1500   21.0630 O   0  0  0  0  0  0  0  0  0  0  0  0
    9.2631   -4.8614   25.8229 O   0  0  0  0  0  0  0  0  0  0  0  0
    7.5951   -0.7786   24.8000 H   0  0  0  0  0  0  0  0  0  0  0  0
   11.0406   -2.1866   22.6351 H   0  0  0  0  0  0  0  0  0  0  0  0
    7.5664   -2.8674   26.1055 H   0  0  0  0  0  0  0  0  0  0  0  0
   11.0119   -4.2671   23.9461 H   0  0  0  0  0  0  0  0  0  0  0  0
   12.2308    2.4652   25.1508 H   0  0  0  0  0  0  0  0  0  0  0  0
   12.0700   -0.4744   21.9974 H   0  0  0  0  0  0  0  0  0  0  0  0
    5.4735    0.4758   22.1644 H   0  0  0  0  0  0  0  0  0  0  0  0
    3.6415    1.9967   21.6408 H   0  0  0  0  0  0  0  0  0  0  0  0
    3.2720    2.7926   19.2921 H   0  0  0  0  0  0  0  0  0  0  0  0
    4.8119    2.0418   17.5005 H   0  0  0  0  0  0  0  0  0  0  0  0
   15.0569    0.6453   21.6315 H   0  0  0  0  0  0  0  0  0  0  0  0
   15.5971   -0.0026   23.2174 H   0  0  0  0  0  0  0  0  0  0  0  0
   14.5870   -1.0100   22.1498 H   0  0  0  0  0  0  0  0  0  0  0  0
    8.3309   -5.9651   27.3009 H   0  0  0  0  0  0  0  0  0  0  0  0
    7.2574   -4.9205   26.3189 H   0  0  0  0  0  0  0  0  0  0  0  0
    8.3380   -4.1982   27.5399 H   0  0  0  0  0  0  0  0  0  0  0  0
    9.6778    1.0140   24.6966 H   0  0  0  0  0  0  0  0  0  0  0  0
    9.6316    1.9637   23.2107 H   0  0  0  0  0  0  0  0  0  0  0  0
    8.1135   -1.8119   21.3500 H   0  0  0  0  0  0  0  0  0  0  0  0
  1  3  2  0  0  0  0
  1  8  1  0  0  0  0
  2  4  1  0  0  0  0
  2  8  2  0  0  0  0
  3  9  1  0  0  0  0
  4  9  2  0  0  0  0
  5  7  1  0  0  0  0
  5 20  2  0  0  0  0
  6  7  2  0  0  0  0
  6 23  1  0  0  0  0
  7 19  1  0  0  0  0
  8 26  1  0  0  0  0
  9 28  1  0  0  0  0
 10 11  2  0  0  0  0
 10 12  1  0  0  0  0
 10 24  1  0  0  0  0
 11 21  1  0  0  0  0
 11 25  1  0  0  0  0
 12 13  2  0  0  0  0
 13 14  1  0  0  0  0
 14 15  2  0  0  0  0
 15 24  1  0  0  0  0
 16 25  1  0  0  0  0
 16 26  1  0  0  0  0
 16 27  2  0  0  0  0
 17 23  1  0  0  0  0
 18 28  1  0  0  0  0
 19 26  1  0  0  0  0
 20 23  1  0  0  0  0
 21 22  2  0  0  0  0
 22 24  1  0  0  0  0
  1 29  1  0  0  0  0
  2 30  1  0  0  0  0
  3 31  1  0  0  0  0
  4 32  1  0  0  0  0
  5 33  1  0  0  0  0
  6 34  1  0  0  0  0
 12 35  1  0  0  0  0
 13 36  1  0  0  0  0
 14 37  1  0  0  0  0
 15 38  1  0  0  0  0
 17 39  1  0  0  0  0
 17 40  1  0  0  0  0
 17 41  1  0  0  0  0
 18 42  1  0  0  0  0
 18 43  1  0  0  0  0
 18 44  1  0  0  0  0
 19 45  1  0  0  0  0
 19 46  1  0  0  0  0
 25 47  1  0  0  0  0
M  END
> <clash_score>
0

> <docking_score>
-8.939179420471191

> <overlap_score>
0.9817349910736084

$$$$
BENZO_105_1
  -OEChem-08222022393D

 57 61  0     0  0  0  0  0  0999 V2000
   14.3082    0.9431   23.4783 C   0  0  0  0  0  0  0  0  0  0  0  0
   13.6391    0.3091   24.5251 C   0  0  0  0  0  0  0  0  0  0  0  0
   13.5841    1.6096   22.4898 C   0  0  0  0  0  0  0  0  0  0  0  0
   12.2459    0.3415   24.5835 C   0  0  0  0  0  0  0  0  0  0  0  0
   12.1908    1.6420   22.5481 C   0  0  0  0  0  0  0  0  0  0  0  0
    8.3310   -2.7170   25.3430 C   0  0  0  0  0  0  0  0  0  0  0  0
   10.2570   -3.5000   24.1350 C   0  0  0  0  0  0  0  0  0  0  0  0
    8.3510   -1.5420   24.6110 C   0  0  0  0  0  0  0  0  0  0  0  0
   10.2760   -2.3270   23.4020 C   0  0  0  0  0  0  0  0  0  0  0  0
   11.5217    1.0079   23.5949 C   0  0  0  0  0  0  0  0  0  0  0  0
    9.2850   -3.7090   25.1090 C   0  0  0  0  0  0  0  0  0  0  0  0
    9.3300   -1.3350   23.6390 C   0  0  0  0  0  0  0  0  0  0  0  0
    6.1600    0.3870   20.1140 C   0  0  0  0  0  0  0  0  0  0  0  0
    7.2210   -0.4620   20.0350 C   0  0  0  0  0  0  0  0  0  0  0  0
    5.3360    0.8000   21.1530 C   0  0  0  0  0  0  0  0  0  0  0  0
    4.2970    1.6690   20.8430 C   0  0  0  0  0  0  0  0  0  0  0  0
    4.0980    2.1130   19.5350 C   0  0  0  0  0  0  0  0  0  0  0  0
    4.9400    1.7060   18.5060 C   0  0  0  0  0  0  0  0  0  0  0  0
    8.0635   -5.4710   26.3667 C   0  0  0  0  0  0  0  0  0  0  0  0
    8.9510    0.1280   21.6880 C   0  0  0  0  0  0  0  0  0  0  0  0
    8.2626   -6.7580   27.1475 C   0  0  0  0  0  0  0  0  0  0  0  0
    9.4048   -6.6156   28.1380 C   0  0  0  0  0  0  0  0  0  0  0  0
   10.6949   -6.1500   27.4702 C   0  0  0  0  0  0  0  0  0  0  0  0
   10.4942   -5.7069   26.0219 C   0  0  0  0  0  0  0  0  0  0  0  0
   10.0220    1.0430   23.6570 C   0  0  0  0  0  0  0  0  0  0  0  0
    7.6830   -0.5170   18.7600 N   0  0  0  0  0  0  0  0  0  0  0  0
    6.9440    0.2550   18.0100 N   0  0  0  0  0  0  0  0  0  0  0  0
    5.9810    0.8330   18.8060 N   0  0  0  0  0  0  0  0  0  0  0  0
    9.2623   -4.9266   25.8635 N   0  0  0  0  0  0  0  0  0  0  0  0
    8.0810   -0.9750   21.0820 N   0  0  0  0  0  0  0  0  0  0  0  0
    9.4200   -0.0840   22.9530 N   0  0  0  0  0  0  0  0  0  0  0  0
    6.9244   -5.0476   26.1739 O   0  0  0  0  0  0  0  0  0  0  0  0
    9.1870    1.1500   21.0630 O   0  0  0  0  0  0  0  0  0  0  0  0
   15.3932    0.9189   23.4337 H   0  0  0  0  0  0  0  0  0  0  0  0
   14.2029   -0.2090   25.2955 H   0  0  0  0  0  0  0  0  0  0  0  0
   14.1048    2.1043   21.6752 H   0  0  0  0  0  0  0  0  0  0  0  0
   11.7330   -0.1555   25.4027 H   0  0  0  0  0  0  0  0  0  0  0  0
   11.6349    2.1636   21.7735 H   0  0  0  0  0  0  0  0  0  0  0  0
    7.5639   -2.8621   26.1045 H   0  0  0  0  0  0  0  0  0  0  0  0
   11.0141   -4.2644   23.9422 H   0  0  0  0  0  0  0  0  0  0  0  0
    7.5950   -0.7788   24.8007 H   0  0  0  0  0  0  0  0  0  0  0  0
   11.0408   -2.1861   22.6359 H   0  0  0  0  0  0  0  0  0  0  0  0
    5.4735    0.4758   22.1644 H   0  0  0  0  0  0  0  0  0  0  0  0
    3.6415    1.9967   21.6408 H   0  0  0  0  0  0  0  0  0  0  0  0
    3.2720    2.7926   19.2920 H   0  0  0  0  0  0  0  0  0  0  0  0
    4.8119    2.0418   17.5005 H   0  0  0  0  0  0  0  0  0  0  0  0
    7.3516   -6.9810   27.6812 H   0  0  0  0  0  0  0  0  0  0  0  0
    8.4757   -7.5428   26.4371 H   0  0  0  0  0  0  0  0  0  0  0  0
    9.1234   -5.9016   28.9400 H   0  0  0  0  0  0  0  0  0  0  0  0
    9.5778   -7.5840   28.6491 H   0  0  0  0  0  0  0  0  0  0  0  0
   11.1305   -5.3108   28.0523 H   0  0  0  0  0  0  0  0  0  0  0  0
   11.4565   -6.9587   27.5131 H   0  0  0  0  0  0  0  0  0  0  0  0
   11.3212   -5.0729   25.7168 H   0  0  0  0  0  0  0  0  0  0  0  0
   10.4483   -6.5796   25.3796 H   0  0  0  0  0  0  0  0  0  0  0  0
    9.6778    1.0140   24.6966 H   0  0  0  0  0  0  0  0  0  0  0  0
    9.6316    1.9637   23.2107 H   0  0  0  0  0  0  0  0  0  0  0  0
    8.1334   -1.7992   21.3673 H   0  0  0  0  0  0  0  0  0  0  0  0
  1  2  1  0  0  0  0
  1  3  2  0  0  0  0
  2  4  2  0  0  0  0
  3  5  1  0  0  0  0
  4 10  1  0  0  0  0
  5 10  2  0  0  0  0
  6  8  2  0  0  0  0
  6 11  1  0  0  0  0
  7  9  1  0  0  0  0
  7 11  2  0  0  0  0
  8 12  1  0  0  0  0
  9 12  2  0  0  0  0
 10 25  1  0  0  0  0
 11 29  1  0  0  0  0
 12 31  1  0  0  0  0
 13 14  2  0  0  0  0
 13 15  1  0  0  0  0
 13 28  1  0  0  0  0
 14 26  1  0  0  0  0
 14 30  1  0  0  0  0
 15 16  2  0  0  0  0
 16 17  1  0  0  0  0
 17 18  2  0  0  0  0
 18 28  1  0  0  0  0
 19 21  1  0  0  0  0
 19 29  1  0  0  0  0
 19 32  2  0  0  0  0
 20 30  1  0  0  0  0
 20 31  1  0  0  0  0
 20 33  2  0  0  0  0
 21 22  1  0  0  0  0
 22 23  1  0  0  0  0
 23 24  1  0  0  0  0
 24 29  1  0  0  0  0
 25 31  1  0  0  0  0
 26 27  2  0  0  0  0
 27 28  1  0  0  0  0
  1 34  1  0  0  0  0
  2 35  1  0  0  0  0
  3 36  1  0  0  0  0
  4 37  1  0  0  0  0
  5 38  1  0  0  0  0
  6 39  1  0  0  0  0
  7 40  1  0  0  0  0
  8 41  1  0  0  0  0
  9 42  1  0  0  0  0
 15 43  1  0  0  0  0
 16 44  1  0  0  0  0
 17 45  1  0  0  0  0
 18 46  1  0  0  0  0
 21 47  1  0  0  0  0
 21 48  1  0  0  0  0
 22 49  1  0  0  0  0
 22 50  1  0  0  0  0
 23 51  1  0  0  0  0
 23 52  1  0  0  0  0
 24 53  1  0  0  0  0
 24 54  1  0  0  0  0
 25 55  1  0  0  0  0
 25 56  1  0  0  0  0
 30 57  1  0  0  0  0
M  END
> <clash_score>
1.272782601224562

> <docking_score>
-7.211073398590088

> <overlap_score>
1.0159268379211426

$$$$
BENZO_104_1
  -OEChem-08222022393D

 54 58  0     0  0  0  0  0  0999 V2000
    8.3310   -2.7170   25.3430 C   0  0  0  0  0  0  0  0  0  0  0  0
   10.2570   -3.5000   24.1350 C   0  0  0  0  0  0  0  0  0  0  0  0
    8.3510   -1.5420   24.6110 C   0  0  0  0  0  0  0  0  0  0  0  0
   10.2760   -2.3270   23.4020 C   0  0  0  0  0  0  0  0  0  0  0  0
   12.2675    1.0332   22.3812 C   0  0  0  0  0  0  0  0  0  0  0  0
   13.6257    0.9906   22.6074 C   0  0  0  0  0  0  0  0  0  0  0  0
   12.3384    0.9467   24.7028 C   0  0  0  0  0  0  0  0  0  0  0  0
   11.5217    1.0079   23.5949 C   0  0  0  0  0  0  0  0  0  0  0  0
    9.2850   -3.7090   25.1090 C   0  0  0  0  0  0  0  0  0  0  0  0
    9.3300   -1.3350   23.6390 C   0  0  0  0  0  0  0  0  0  0  0  0
    6.1600    0.3870   20.1140 C   0  0  0  0  0  0  0  0  0  0  0  0
    7.2210   -0.4620   20.0350 C   0  0  0  0  0  0  0  0  0  0  0  0
    5.3360    0.8000   21.1530 C   0  0  0  0  0  0  0  0  0  0  0  0
    4.2970    1.6690   20.8430 C   0  0  0  0  0  0  0  0  0  0  0  0
    4.0980    2.1130   19.5350 C   0  0  0  0  0  0  0  0  0  0  0  0
    4.9400    1.7060   18.5060 C   0  0  0  0  0  0  0  0  0  0  0  0
    8.0635   -5.4710   26.3667 C   0  0  0  0  0  0  0  0  0  0  0  0
    8.9510    0.1280   21.6880 C   0  0  0  0  0  0  0  0  0  0  0  0
    8.2626   -6.7580   27.1475 C   0  0  0  0  0  0  0  0  0  0  0  0
    9.4048   -6.6156   28.1380 C   0  0  0  0  0  0  0  0  0  0  0  0
   10.6949   -6.1500   27.4702 C   0  0  0  0  0  0  0  0  0  0  0  0
   10.4942   -5.7069   26.0219 C   0  0  0  0  0  0  0  0  0  0  0  0
   10.0220    1.0430   23.6570 C   0  0  0  0  0  0  0  0  0  0  0  0
    7.6830   -0.5170   18.7600 N   0  0  0  0  0  0  0  0  0  0  0  0
    6.9440    0.2550   18.0100 N   0  0  0  0  0  0  0  0  0  0  0  0
    5.9810    0.8330   18.8060 N   0  0  0  0  0  0  0  0  0  0  0  0
    9.2623   -4.9266   25.8635 N   0  0  0  0  0  0  0  0  0  0  0  0
    8.0810   -0.9750   21.0820 N   0  0  0  0  0  0  0  0  0  0  0  0
    9.4200   -0.0840   22.9530 N   0  0  0  0  0  0  0  0  0  0  0  0
    6.9244   -5.0476   26.1739 O   0  0  0  0  0  0  0  0  0  0  0  0
    9.1870    1.1500   21.0630 O   0  0  0  0  0  0  0  0  0  0  0  0
   13.9969    0.9203   24.2776 S   0  0  0  0  0  0  0  0  0  0  0  0
    7.5639   -2.8621   26.1045 H   0  0  0  0  0  0  0  0  0  0  0  0
   11.0141   -4.2644   23.9422 H   0  0  0  0  0  0  0  0  0  0  0  0
    7.5950   -0.7788   24.8007 H   0  0  0  0  0  0  0  0  0  0  0  0
   11.0408   -2.1861   22.6359 H   0  0  0  0  0  0  0  0  0  0  0  0
   11.8338    1.0798   21.3902 H   0  0  0  0  0  0  0  0  0  0  0  0
   14.4176    0.9966   21.8719 H   0  0  0  0  0  0  0  0  0  0  0  0
   12.0446    0.9149   25.7428 H   0  0  0  0  0  0  0  0  0  0  0  0
    5.4735    0.4758   22.1644 H   0  0  0  0  0  0  0  0  0  0  0  0
    3.6415    1.9967   21.6408 H   0  0  0  0  0  0  0  0  0  0  0  0
    3.2720    2.7926   19.2920 H   0  0  0  0  0  0  0  0  0  0  0  0
    4.8119    2.0418   17.5005 H   0  0  0  0  0  0  0  0  0  0  0  0
    7.3516   -6.9810   27.6812 H   0  0  0  0  0  0  0  0  0  0  0  0
    8.4757   -7.5428   26.4371 H   0  0  0  0  0  0  0  0  0  0  0  0
    9.1234   -5.9016   28.9400 H   0  0  0  0  0  0  0  0  0  0  0  0
    9.5778   -7.5840   28.6491 H   0  0  0  0  0  0  0  0  0  0  0  0
   11.1305   -5.3108   28.0523 H   0  0  0  0  0  0  0  0  0  0  0  0
   11.4565   -6.9587   27.5131 H   0  0  0  0  0  0  0  0  0  0  0  0
   11.3212   -5.0729   25.7168 H   0  0  0  0  0  0  0  0  0  0  0  0
   10.4483   -6.5796   25.3796 H   0  0  0  0  0  0  0  0  0  0  0  0
    9.6778    1.0140   24.6966 H   0  0  0  0  0  0  0  0  0  0  0  0
    9.6316    1.9637   23.2107 H   0  0  0  0  0  0  0  0  0  0  0  0
    8.1334   -1.7992   21.3673 H   0  0  0  0  0  0  0  0  0  0  0  0
  1  3  2  0  0  0  0
  1  9  1  0  0  0  0
  2  4  1  0  0  0  0
  2  9  2  0  0  0  0
  3 10  1  0  0  0  0
  4 10  2  0  0  0  0
  5  6  2  0  0  0  0
  5  8  1  0  0  0  0
  6 32  1  0  0  0  0
  7  8  2  0  0  0  0
  7 32  1  0  0  0  0
  8 23  1  0  0  0  0
  9 27  1  0  0  0  0
 10 29  1  0  0  0  0
 11 12  2  0  0  0  0
 11 13  1  0  0  0  0
 11 26  1  0  0  0  0
 12 24  1  0  0  0  0
 12 28  1  0  0  0  0
 13 14  2  0  0  0  0
 14 15  1  0  0  0  0
 15 16  2  0  0  0  0
 16 26  1  0  0  0  0
 17 19  1  0  0  0  0
 17 27  1  0  0  0  0
 17 30  2  0  0  0  0
 18 28  1  0  0  0  0
 18 29  1  0  0  0  0
 18 31  2  0  0  0  0
 19 20  1  0  0  0  0
 20 21  1  0  0  0  0
 21 22  1  0  0  0  0
 22 27  1  0  0  0  0
 23 29  1  0  0  0  0
 24 25  2  0  0  0  0
 25 26  1  0  0  0  0
  1 33  1  0  0  0  0
  2 34  1  0  0  0  0
  3 35  1  0  0  0  0
  4 36  1  0  0  0  0
  5 37  1  0  0  0  0
  6 38  1  0  0  0  0
  7 39  1  0  0  0  0
 13 40  1  0  0  0  0
 14 41  1  0  0  0  0
 15 42  1  0  0  0  0
 16 43  1  0  0  0  0
 19 44  1  0  0  0  0
 19 45  1  0  0  0  0
 20 46  1  0  0  0  0
 20 47  1  0  0  0  0
 21 48  1  0  0  0  0
 21 49  1  0  0  0  0
 22 50  1  0  0  0  0
 22 51  1  0  0  0  0
 23 52  1  0  0  0  0
 23 53  1  0  0  0  0
 28 54  1  0  0  0  0
M  END
> <clash_score>
1.272782601224562

> <docking_score>
-7.457276821136475

> <overlap_score>
0.9903323650360107

$$$$
BENZO_109_1
  -OEChem-08222022393D

 56 60  0     0  0  0  0  0  0999 V2000
   14.3082    0.9431   23.4783 C   0  0  0  0  0  0  0  0  0  0  0  0
   13.6391    0.3091   24.5251 C   0  0  0  0  0  0  0  0  0  0  0  0
   13.5841    1.6096   22.4898 C   0  0  0  0  0  0  0  0  0  0  0  0
   12.2459    0.3415   24.5835 C   0  0  0  0  0  0  0  0  0  0  0  0
   12.1908    1.6420   22.5481 C   0  0  0  0  0  0  0  0  0  0  0  0
    8.3310   -2.7170   25.3430 C   0  0  0  0  0  0  0  0  0  0  0  0
   10.2570   -3.5000   24.1350 C   0  0  0  0  0  0  0  0  0  0  0  0
    8.3510   -1.5420   24.6110 C   0  0  0  0  0  0  0  0  0  0  0  0
   10.2760   -2.3270   23.4020 C   0  0  0  0  0  0  0  0  0  0  0  0
   11.5217    1.0079   23.5949 C   0  0  0  0  0  0  0  0  0  0  0  0
    9.2850   -3.7090   25.1090 C   0  0  0  0  0  0  0  0  0  0  0  0
    9.3300   -1.3350   23.6390 C   0  0  0  0  0  0  0  0  0  0  0  0
    6.1600    0.3870   20.1140 C   0  0  0  0  0  0  0  0  0  0  0  0
    7.2210   -0.4620   20.0350 C   0  0  0  0  0  0  0  0  0  0  0  0
    5.3360    0.8000   21.1530 C   0  0  0  0  0  0  0  0  0  0  0  0
    4.2970    1.6690   20.8430 C   0  0  0  0  0  0  0  0  0  0  0  0
    4.0980    2.1130   19.5350 C   0  0  0  0  0  0  0  0  0  0  0  0
    4.9400    1.7060   18.5060 C   0  0  0  0  0  0  0  0  0  0  0  0
    8.9510    0.1280   21.6880 C   0  0  0  0  0  0  0  0  0  0  0  0
    8.7666   -4.9523   27.2147 C   0  0  0  0  0  0  0  0  0  0  0  0
    9.3034   -6.1866   25.1651 C   0  0  0  0  0  0  0  0  0  0  0  0
    7.3827   -5.5925   27.1999 C   0  0  0  0  0  0  0  0  0  0  0  0
    7.9024   -6.7967   25.2263 C   0  0  0  0  0  0  0  0  0  0  0  0
   10.0220    1.0430   23.6570 C   0  0  0  0  0  0  0  0  0  0  0  0
    7.6830   -0.5170   18.7600 N   0  0  0  0  0  0  0  0  0  0  0  0
    6.9440    0.2550   18.0100 N   0  0  0  0  0  0  0  0  0  0  0  0
    5.9810    0.8330   18.8060 N   0  0  0  0  0  0  0  0  0  0  0  0
    9.2640   -4.8844   25.8389 N   0  0  0  0  0  0  0  0  0  0  0  0
    8.0810   -0.9750   21.0820 N   0  0  0  0  0  0  0  0  0  0  0  0
    9.4200   -0.0840   22.9530 N   0  0  0  0  0  0  0  0  0  0  0  0
    9.1870    1.1500   21.0630 O   0  0  0  0  0  0  0  0  0  0  0  0
    7.4483   -6.8833   26.5817 O   0  0  0  0  0  0  0  0  0  0  0  0
   15.3932    0.9189   23.4337 H   0  0  0  0  0  0  0  0  0  0  0  0
   14.2029   -0.2090   25.2955 H   0  0  0  0  0  0  0  0  0  0  0  0
   14.1048    2.1043   21.6752 H   0  0  0  0  0  0  0  0  0  0  0  0
   11.7330   -0.1555   25.4027 H   0  0  0  0  0  0  0  0  0  0  0  0
   11.6349    2.1636   21.7735 H   0  0  0  0  0  0  0  0  0  0  0  0
    7.5647   -2.8621   26.1053 H   0  0  0  0  0  0  0  0  0  0  0  0
   11.0144   -4.2642   23.9425 H   0  0  0  0  0  0  0  0  0  0  0  0
    7.5958   -0.7779   24.8006 H   0  0  0  0  0  0  0  0  0  0  0  0
   11.0406   -2.1848   22.6356 H   0  0  0  0  0  0  0  0  0  0  0  0
    5.4735    0.4758   22.1644 H   0  0  0  0  0  0  0  0  0  0  0  0
    3.6415    1.9967   21.6408 H   0  0  0  0  0  0  0  0  0  0  0  0
    3.2720    2.7926   19.2921 H   0  0  0  0  0  0  0  0  0  0  0  0
    4.8119    2.0418   17.5005 H   0  0  0  0  0  0  0  0  0  0  0  0
    8.7030   -3.9561   27.6574 H   0  0  0  0  0  0  0  0  0  0  0  0
    9.4460   -5.5639   27.8143 H   0  0  0  0  0  0  0  0  0  0  0  0
   10.0083   -6.8392   25.6817 H   0  0  0  0  0  0  0  0  0  0  0  0
    9.6089   -6.0802   24.1251 H   0  0  0  0  0  0  0  0  0  0  0  0
    7.0281   -5.7334   28.2231 H   0  0  0  0  0  0  0  0  0  0  0  0
    6.6541   -4.9678   26.6754 H   0  0  0  0  0  0  0  0  0  0  0  0
    7.1860   -6.2177   24.6318 H   0  0  0  0  0  0  0  0  0  0  0  0
    7.9246   -7.8119   24.8187 H   0  0  0  0  0  0  0  0  0  0  0  0
    9.6778    1.0140   24.6966 H   0  0  0  0  0  0  0  0  0  0  0  0
    9.6316    1.9637   23.2107 H   0  0  0  0  0  0  0  0  0  0  0  0
    8.1334   -1.7992   21.3673 H   0  0  0  0  0  0  0  0  0  0  0  0
  1  2  1  0  0  0  0
  1  3  2  0  0  0  0
  2  4  2  0  0  0  0
  3  5  1  0  0  0  0
  4 10  1  0  0  0  0
  5 10  2  0  0  0  0
  6  8  2  0  0  0  0
  6 11  1  0  0  0  0
  7  9  1  0  0  0  0
  7 11  2  0  0  0  0
  8 12  1  0  0  0  0
  9 12  2  0  0  0  0
 10 24  1  0  0  0  0
 11 28  1  0  0  0  0
 12 30  1  0  0  0  0
 13 14  2  0  0  0  0
 13 15  1  0  0  0  0
 13 27  1  0  0  0  0
 14 25  1  0  0  0  0
 14 29  1  0  0  0  0
 15 16  2  0  0  0  0
 16 17  1  0  0  0  0
 17 18  2  0  0  0  0
 18 27  1  0  0  0  0
 19 29  1  0  0  0  0
 19 30  1  0  0  0  0
 19 31  2  0  0  0  0
 20 22  1  0  0  0  0
 20 28  1  0  0  0  0
 21 23  1  0  0  0  0
 21 28  1  0  0  0  0
 22 32  1  0  0  0  0
 23 32  1  0  0  0  0
 24 30  1  0  0  0  0
 25 26  2  0  0  0  0
 26 27  1  0  0  0  0
  1 33  1  0  0  0  0
  2 34  1  0  0  0  0
  3 35  1  0  0  0  0
  4 36  1  0  0  0  0
  5 37  1  0  0  0  0
  6 38  1  0  0  0  0
  7 39  1  0  0  0  0
  8 40  1  0  0  0  0
  9 41  1  0  0  0  0
 15 42  1  0  0  0  0
 16 43  1  0  0  0  0
 17 44  1  0  0  0  0
 18 45  1  0  0  0  0
 20 46  1  0  0  0  0
 20 47  1  0  0  0  0
 21 48  1  0  0  0  0
 21 49  1  0  0  0  0
 22 50  1  0  0  0  0
 22 51  1  0  0  0  0
 23 52  1  0  0  0  0
 23 53  1  0  0  0  0
 24 54  1  0  0  0  0
 24 55  1  0  0  0  0
 29 56  1  0  0  0  0
M  END
> <clash_score>
0

> <docking_score>
-8.45621395111084

> <overlap_score>
1.0165159702301025

$$$$
BENZO_106_1
  -OEChem-08222022393D

 57 61  0     0  0  0  0  0  0999 V2000
   13.5977    1.8457   22.6865 C   0  0  0  0  0  0  0  0  0  0  0  0
   12.2044    1.8769   22.7438 C   0  0  0  0  0  0  0  0  0  0  0  0
    8.3310   -2.7170   25.3430 C   0  0  0  0  0  0  0  0  0  0  0  0
   10.2570   -3.5000   24.1350 C   0  0  0  0  0  0  0  0  0  0  0  0
    8.3510   -1.5420   24.6110 C   0  0  0  0  0  0  0  0  0  0  0  0
   10.2760   -2.3270   23.4020 C   0  0  0  0  0  0  0  0  0  0  0  0
   14.3084    0.9453   23.4803 C   0  0  0  0  0  0  0  0  0  0  0  0
   12.2323    0.1076   24.3888 C   0  0  0  0  0  0  0  0  0  0  0  0
   11.5217    1.0079   23.5949 C   0  0  0  0  0  0  0  0  0  0  0  0
    9.2850   -3.7090   25.1090 C   0  0  0  0  0  0  0  0  0  0  0  0
    9.3300   -1.3350   23.6390 C   0  0  0  0  0  0  0  0  0  0  0  0
   13.6257    0.0764   24.3314 C   0  0  0  0  0  0  0  0  0  0  0  0
    6.1600    0.3870   20.1140 C   0  0  0  0  0  0  0  0  0  0  0  0
    7.2210   -0.4620   20.0350 C   0  0  0  0  0  0  0  0  0  0  0  0
    5.3360    0.8000   21.1530 C   0  0  0  0  0  0  0  0  0  0  0  0
    4.2970    1.6690   20.8430 C   0  0  0  0  0  0  0  0  0  0  0  0
    4.0980    2.1130   19.5350 C   0  0  0  0  0  0  0  0  0  0  0  0
    4.9400    1.7060   18.5060 C   0  0  0  0  0  0  0  0  0  0  0  0
    8.2930   -5.1714   26.8572 C   0  0  0  0  0  0  0  0  0  0  0  0
    8.9510    0.1280   21.6880 C   0  0  0  0  0  0  0  0  0  0  0  0
    8.4551   -6.5156   27.5444 C   0  0  0  0  0  0  0  0  0  0  0  0
    9.9019   -6.7444   27.9450 C   0  0  0  0  0  0  0  0  0  0  0  0
   10.8596   -6.5882   26.7680 C   0  0  0  0  0  0  0  0  0  0  0  0
   10.1895   -6.0108   25.5223 C   0  0  0  0  0  0  0  0  0  0  0  0
   10.0220    1.0430   23.6570 C   0  0  0  0  0  0  0  0  0  0  0  0
    7.6830   -0.5170   18.7600 N   0  0  0  0  0  0  0  0  0  0  0  0
    6.9440    0.2550   18.0100 N   0  0  0  0  0  0  0  0  0  0  0  0
    5.9810    0.8330   18.8060 N   0  0  0  0  0  0  0  0  0  0  0  0
    9.2623   -4.9266   25.8635 N   0  0  0  0  0  0  0  0  0  0  0  0
    8.0810   -0.9750   21.0820 N   0  0  0  0  0  0  0  0  0  0  0  0
    9.4200   -0.0840   22.9530 N   0  0  0  0  0  0  0  0  0  0  0  0
    7.3370   -4.4527   27.1463 O   0  0  0  0  0  0  0  0  0  0  0  0
    9.1870    1.1500   21.0630 O   0  0  0  0  0  0  0  0  0  0  0  0
   14.5031   -1.0334   25.3114 Cl  0  0  0  0  0  0  0  0  0  0  0  0
   14.1289    2.5226   22.0237 H   0  0  0  0  0  0  0  0  0  0  0  0
   11.6588    2.5818   22.1218 H   0  0  0  0  0  0  0  0  0  0  0  0
    7.5639   -2.8621   26.1045 H   0  0  0  0  0  0  0  0  0  0  0  0
   11.0141   -4.2644   23.9422 H   0  0  0  0  0  0  0  0  0  0  0  0
    7.5950   -0.7788   24.8007 H   0  0  0  0  0  0  0  0  0  0  0  0
   11.0408   -2.1861   22.6359 H   0  0  0  0  0  0  0  0  0  0  0  0
   15.3941    0.9323   23.4255 H   0  0  0  0  0  0  0  0  0  0  0  0
   11.6954   -0.5682   25.0504 H   0  0  0  0  0  0  0  0  0  0  0  0
    5.4735    0.4758   22.1644 H   0  0  0  0  0  0  0  0  0  0  0  0
    3.6415    1.9967   21.6408 H   0  0  0  0  0  0  0  0  0  0  0  0
    3.2720    2.7926   19.2920 H   0  0  0  0  0  0  0  0  0  0  0  0
    4.8119    2.0418   17.5005 H   0  0  0  0  0  0  0  0  0  0  0  0
    7.8332   -6.5283   28.4263 H   0  0  0  0  0  0  0  0  0  0  0  0
    8.1305   -7.2787   26.8530 H   0  0  0  0  0  0  0  0  0  0  0  0
   10.1875   -6.0379   28.7521 H   0  0  0  0  0  0  0  0  0  0  0  0
   10.0116   -7.7568   28.3834 H   0  0  0  0  0  0  0  0  0  0  0  0
   11.7061   -5.9337   27.0644 H   0  0  0  0  0  0  0  0  0  0  0  0
   11.3230   -7.5689   26.5243 H   0  0  0  0  0  0  0  0  0  0  0  0
   10.9445   -5.5959   24.8614 H   0  0  0  0  0  0  0  0  0  0  0  0
    9.6461   -6.7954   25.0072 H   0  0  0  0  0  0  0  0  0  0  0  0
    9.6778    1.0140   24.6966 H   0  0  0  0  0  0  0  0  0  0  0  0
    9.6316    1.9637   23.2107 H   0  0  0  0  0  0  0  0  0  0  0  0
    8.1334   -1.7992   21.3673 H   0  0  0  0  0  0  0  0  0  0  0  0
  1  2  2  0  0  0  0
  1  7  1  0  0  0  0
  2  9  1  0  0  0  0
  3  5  2  0  0  0  0
  3 10  1  0  0  0  0
  4  6  1  0  0  0  0
  4 10  2  0  0  0  0
  5 11  1  0  0  0  0
  6 11  2  0  0  0  0
  7 12  2  0  0  0  0
  8  9  2  0  0  0  0
  8 12  1  0  0  0  0
  9 25  1  0  0  0  0
 10 29  1  0  0  0  0
 11 31  1  0  0  0  0
 12 34  1  0  0  0  0
 13 14  2  0  0  0  0
 13 15  1  0  0  0  0
 13 28  1  0  0  0  0
 14 26  1  0  0  0  0
 14 30  1  0  0  0  0
 15 16  2  0  0  0  0
 16 17  1  0  0  0  0
 17 18  2  0  0  0  0
 18 28  1  0  0  0  0
 19 21  1  0  0  0  0
 19 29  1  0  0  0  0
 19 32  2  0  0  0  0
 20 30  1  0  0  0  0
 20 31  1  0  0  0  0
 20 33  2  0  0  0  0
 21 22  1  0  0  0  0
 22 23  1  0  0  0  0
 23 24  1  0  0  0  0
 24 29  1  0  0  0  0
 25 31  1  0  0  0  0
 26 27  2  0  0  0  0
 27 28  1  0  0  0  0
  1 35  1  0  0  0  0
  2 36  1  0  0  0  0
  3 37  1  0  0  0  0
  4 38  1  0  0  0  0
  5 39  1  0  0  0  0
  6 40  1  0  0  0  0
  7 41  1  0  0  0  0
  8 42  1  0  0  0  0
 15 43  1  0  0  0  0
 16 44  1  0  0  0  0
 17 45  1  0  0  0  0
 18 46  1  0  0  0  0
 21 47  1  0  0  0  0
 21 48  1  0  0  0  0
 22 49  1  0  0  0  0
 22 50  1  0  0  0  0
 23 51  1  0  0  0  0
 23 52  1  0  0  0  0
 24 53  1  0  0  0  0
 24 54  1  0  0  0  0
 25 55  1  0  0  0  0
 25 56  1  0  0  0  0
 30 57  1  0  0  0  0
M  END
> <clash_score>
2.825943004315734

> <docking_score>
-6.403810501098633

> <overlap_score>
1.021795392036438

$$$$
BENZO_107_1
  -OEChem-08222022393D

 57 61  0     0  0  0  0  0  0999 V2000
    8.3310   -2.7170   25.3430 C   0  0  0  0  0  0  0  0  0  0  0  0
   10.2570   -3.5000   24.1350 C   0  0  0  0  0  0  0  0  0  0  0  0
    8.3510   -1.5420   24.6110 C   0  0  0  0  0  0  0  0  0  0  0  0
   10.2760   -2.3270   23.4020 C   0  0  0  0  0  0  0  0  0  0  0  0
   12.4359    1.7439   24.3724 C   0  0  0  0  0  0  0  0  0  0  0  0
   12.3100    0.2469   22.7668 C   0  0  0  0  0  0  0  0  0  0  0  0
   11.5217    1.0079   23.5949 C   0  0  0  0  0  0  0  0  0  0  0  0
    9.2850   -3.7090   25.1090 C   0  0  0  0  0  0  0  0  0  0  0  0
    9.3300   -1.3350   23.6390 C   0  0  0  0  0  0  0  0  0  0  0  0
    6.1600    0.3870   20.1140 C   0  0  0  0  0  0  0  0  0  0  0  0
    7.2210   -0.4620   20.0350 C   0  0  0  0  0  0  0  0  0  0  0  0
    5.3360    0.8000   21.1530 C   0  0  0  0  0  0  0  0  0  0  0  0
    4.2970    1.6690   20.8430 C   0  0  0  0  0  0  0  0  0  0  0  0
    4.0980    2.1130   19.5350 C   0  0  0  0  0  0  0  0  0  0  0  0
    4.9400    1.7060   18.5060 C   0  0  0  0  0  0  0  0  0  0  0  0
    8.2934   -5.1724   26.8574 C   0  0  0  0  0  0  0  0  0  0  0  0
    8.9510    0.1280   21.6880 C   0  0  0  0  0  0  0  0  0  0  0  0
    8.4443   -6.5251   27.5306 C   0  0  0  0  0  0  0  0  0  0  0  0
    8.6421   -7.6210   26.4982 C   0  0  0  0  0  0  0  0  0  0  0  0
    9.8032   -7.3237   25.5546 C   0  0  0  0  0  0  0  0  0  0  0  0
   10.3452   -5.9024   25.6995 C   0  0  0  0  0  0  0  0  0  0  0  0
   14.7884    0.0124   22.4815 C   0  0  0  0  0  0  0  0  0  0  0  0
   10.0220    1.0430   23.6570 C   0  0  0  0  0  0  0  0  0  0  0  0
   13.7076    1.4745   24.0657 N   0  0  0  0  0  0  0  0  0  0  0  0
    7.6830   -0.5170   18.7600 N   0  0  0  0  0  0  0  0  0  0  0  0
    6.9440    0.2550   18.0100 N   0  0  0  0  0  0  0  0  0  0  0  0
   13.5982    0.5607   23.0864 N   0  0  0  0  0  0  0  0  0  0  0  0
    5.9810    0.8330   18.8060 N   0  0  0  0  0  0  0  0  0  0  0  0
    9.2623   -4.9267   25.8636 N   0  0  0  0  0  0  0  0  0  0  0  0
    8.0810   -0.9750   21.0820 N   0  0  0  0  0  0  0  0  0  0  0  0
    9.4200   -0.0840   22.9530 N   0  0  0  0  0  0  0  0  0  0  0  0
    7.4269   -4.3921   27.2503 O   0  0  0  0  0  0  0  0  0  0  0  0
    9.1870    1.1500   21.0630 O   0  0  0  0  0  0  0  0  0  0  0  0
    7.5639   -2.8621   26.1045 H   0  0  0  0  0  0  0  0  0  0  0  0
   11.0141   -4.2644   23.9422 H   0  0  0  0  0  0  0  0  0  0  0  0
    7.5950   -0.7788   24.8007 H   0  0  0  0  0  0  0  0  0  0  0  0
   11.0408   -2.1861   22.6359 H   0  0  0  0  0  0  0  0  0  0  0  0
   12.2308    2.4652   25.1508 H   0  0  0  0  0  0  0  0  0  0  0  0
   12.0700   -0.4744   21.9974 H   0  0  0  0  0  0  0  0  0  0  0  0
    5.4735    0.4758   22.1644 H   0  0  0  0  0  0  0  0  0  0  0  0
    3.6415    1.9967   21.6408 H   0  0  0  0  0  0  0  0  0  0  0  0
    3.2720    2.7926   19.2920 H   0  0  0  0  0  0  0  0  0  0  0  0
    4.8119    2.0418   17.5005 H   0  0  0  0  0  0  0  0  0  0  0  0
    9.3021   -6.4901   28.1844 H   0  0  0  0  0  0  0  0  0  0  0  0
    7.5489   -6.7067   28.1060 H   0  0  0  0  0  0  0  0  0  0  0  0
    8.8161   -8.5925   27.0061 H   0  0  0  0  0  0  0  0  0  0  0  0
    7.7102   -7.7540   25.9127 H   0  0  0  0  0  0  0  0  0  0  0  0
   10.6240   -8.0484   25.7384 H   0  0  0  0  0  0  0  0  0  0  0  0
    9.4907   -7.5005   24.5024 H   0  0  0  0  0  0  0  0  0  0  0  0
   10.9741   -5.8406   26.5826 H   0  0  0  0  0  0  0  0  0  0  0  0
   10.9262   -5.6455   24.8203 H   0  0  0  0  0  0  0  0  0  0  0  0
   15.0569    0.6453   21.6315 H   0  0  0  0  0  0  0  0  0  0  0  0
   15.5971   -0.0026   23.2175 H   0  0  0  0  0  0  0  0  0  0  0  0
   14.5870   -1.0100   22.1498 H   0  0  0  0  0  0  0  0  0  0  0  0
    9.6778    1.0140   24.6966 H   0  0  0  0  0  0  0  0  0  0  0  0
    9.6316    1.9637   23.2107 H   0  0  0  0  0  0  0  0  0  0  0  0
    8.1334   -1.7992   21.3673 H   0  0  0  0  0  0  0  0  0  0  0  0
  1  3  2  0  0  0  0
  1  8  1  0  0  0  0
  2  4  1  0  0  0  0
  2  8  2  0  0  0  0
  3  9  1  0  0  0  0
  4  9  2  0  0  0  0
  5  7  1  0  0  0  0
  5 24  2  0  0  0  0
  6  7  2  0  0  0  0
  6 27  1  0  0  0  0
  7 23  1  0  0  0  0
  8 29  1  0  0  0  0
  9 31  1  0  0  0  0
 10 11  2  0  0  0  0
 10 12  1  0  0  0  0
 10 28  1  0  0  0  0
 11 25  1  0  0  0  0
 11 30  1  0  0  0  0
 12 13  2  0  0  0  0
 13 14  1  0  0  0  0
 14 15  2  0  0  0  0
 15 28  1  0  0  0  0
 16 18  1  0  0  0  0
 16 29  1  0  0  0  0
 16 32  2  0  0  0  0
 17 30  1  0  0  0  0
 17 31  1  0  0  0  0
 17 33  2  0  0  0  0
 18 19  1  0  0  0  0
 19 20  1  0  0  0  0
 20 21  1  0  0  0  0
 21 29  1  0  0  0  0
 22 27  1  0  0  0  0
 23 31  1  0  0  0  0
 24 27  1  0  0  0  0
 25 26  2  0  0  0  0
 26 28  1  0  0  0  0
  1 34  1  0  0  0  0
  2 35  1  0  0  0  0
  3 36  1  0  0  0  0
  4 37  1  0  0  0  0
  5 38  1  0  0  0  0
  6 39  1  0  0  0  0
 12 40  1  0  0  0  0
 13 41  1  0  0  0  0
 14 42  1  0  0  0  0
 15 43  1  0  0  0  0
 18 44  1  0  0  0  0
 18 45  1  0  0  0  0
 19 46  1  0  0  0  0
 19 47  1  0  0  0  0
 20 48  1  0  0  0  0
 20 49  1  0  0  0  0
 21 50  1  0  0  0  0
 21 51  1  0  0  0  0
 22 52  1  0  0  0  0
 22 53  1  0  0  0  0
 22 54  1  0  0  0  0
 23 55  1  0  0  0  0
 23 56  1  0  0  0  0
 30 57  1  0  0  0  0
M  END
> <clash_score>
0.6927847163055834

> <docking_score>
-7.201365947723389

> <overlap_score>
1.0033576488494873

$$$$
BENZO_108_1
  -OEChem-08222022393D

 53 57  0     0  0  0  0  0  0999 V2000
    8.3310   -2.7170   25.3430 C   0  0  0  0  0  0  0  0  0  0  0  0
   10.2570   -3.5000   24.1350 C   0  0  0  0  0  0  0  0  0  0  0  0
    8.3510   -1.5420   24.6110 C   0  0  0  0  0  0  0  0  0  0  0  0
   10.2760   -2.3270   23.4020 C   0  0  0  0  0  0  0  0  0  0  0  0
   12.2675    1.0332   22.3812 C   0  0  0  0  0  0  0  0  0  0  0  0
   13.6257    0.9906   22.6074 C   0  0  0  0  0  0  0  0  0  0  0  0
   12.3384    0.9467   24.7028 C   0  0  0  0  0  0  0  0  0  0  0  0
   11.5217    1.0079   23.5949 C   0  0  0  0  0  0  0  0  0  0  0  0
    9.2850   -3.7090   25.1090 C   0  0  0  0  0  0  0  0  0  0  0  0
    9.3300   -1.3350   23.6390 C   0  0  0  0  0  0  0  0  0  0  0  0
    6.1600    0.3870   20.1140 C   0  0  0  0  0  0  0  0  0  0  0  0
    7.2210   -0.4620   20.0350 C   0  0  0  0  0  0  0  0  0  0  0  0
    5.3360    0.8000   21.1530 C   0  0  0  0  0  0  0  0  0  0  0  0
    4.2970    1.6690   20.8430 C   0  0  0  0  0  0  0  0  0  0  0  0
    4.0980    2.1130   19.5350 C   0  0  0  0  0  0  0  0  0  0  0  0
    4.9400    1.7060   18.5060 C   0  0  0  0  0  0  0  0  0  0  0  0
    8.9510    0.1280   21.6880 C   0  0  0  0  0  0  0  0  0  0  0  0
    8.7666   -4.9523   27.2147 C   0  0  0  0  0  0  0  0  0  0  0  0
    9.3034   -6.1866   25.1651 C   0  0  0  0  0  0  0  0  0  0  0  0
    7.3827   -5.5925   27.1999 C   0  0  0  0  0  0  0  0  0  0  0  0
    7.9024   -6.7967   25.2263 C   0  0  0  0  0  0  0  0  0  0  0  0
   10.0220    1.0430   23.6570 C   0  0  0  0  0  0  0  0  0  0  0  0
    7.6830   -0.5170   18.7600 N   0  0  0  0  0  0  0  0  0  0  0  0
    6.9440    0.2550   18.0100 N   0  0  0  0  0  0  0  0  0  0  0  0
    5.9810    0.8330   18.8060 N   0  0  0  0  0  0  0  0  0  0  0  0
    9.2640   -4.8844   25.8389 N   0  0  0  0  0  0  0  0  0  0  0  0
    8.0810   -0.9750   21.0820 N   0  0  0  0  0  0  0  0  0  0  0  0
    9.4200   -0.0840   22.9530 N   0  0  0  0  0  0  0  0  0  0  0  0
    9.1870    1.1500   21.0630 O   0  0  0  0  0  0  0  0  0  0  0  0
    7.4483   -6.8833   26.5817 O   0  0  0  0  0  0  0  0  0  0  0  0
   13.9969    0.9203   24.2776 S   0  0  0  0  0  0  0  0  0  0  0  0
    7.5647   -2.8621   26.1053 H   0  0  0  0  0  0  0  0  0  0  0  0
   11.0144   -4.2642   23.9425 H   0  0  0  0  0  0  0  0  0  0  0  0
    7.5958   -0.7779   24.8006 H   0  0  0  0  0  0  0  0  0  0  0  0
   11.0406   -2.1848   22.6356 H   0  0  0  0  0  0  0  0  0  0  0  0
   11.8338    1.0798   21.3902 H   0  0  0  0  0  0  0  0  0  0  0  0
   14.4176    0.9966   21.8719 H   0  0  0  0  0  0  0  0  0  0  0  0
   12.0446    0.9149   25.7428 H   0  0  0  0  0  0  0  0  0  0  0  0
    5.4735    0.4758   22.1644 H   0  0  0  0  0  0  0  0  0  0  0  0
    3.6415    1.9967   21.6408 H   0  0  0  0  0  0  0  0  0  0  0  0
    3.2720    2.7926   19.2921 H   0  0  0  0  0  0  0  0  0  0  0  0
    4.8119    2.0418   17.5005 H   0  0  0  0  0  0  0  0  0  0  0  0
    8.7030   -3.9561   27.6574 H   0  0  0  0  0  0  0  0  0  0  0  0
    9.4460   -5.5639   27.8143 H   0  0  0  0  0  0  0  0  0  0  0  0
   10.0083   -6.8392   25.6817 H   0  0  0  0  0  0  0  0  0  0  0  0
    9.6089   -6.0802   24.1251 H   0  0  0  0  0  0  0  0  0  0  0  0
    7.0281   -5.7334   28.2231 H   0  0  0  0  0  0  0  0  0  0  0  0
    6.6541   -4.9678   26.6754 H   0  0  0  0  0  0  0  0  0  0  0  0
    7.1860   -6.2177   24.6318 H   0  0  0  0  0  0  0  0  0  0  0  0
    7.9246   -7.8119   24.8187 H   0  0  0  0  0  0  0  0  0  0  0  0
    9.6778    1.0140   24.6966 H   0  0  0  0  0  0  0  0  0  0  0  0
    9.6316    1.9637   23.2107 H   0  0  0  0  0  0  0  0  0  0  0  0
    8.1334   -1.7992   21.3673 H   0  0  0  0  0  0  0  0  0  0  0  0
  1  3  2  0  0  0  0
  1  9  1  0  0  0  0
  2  4  1  0  0  0  0
  2  9  2  0  0  0  0
  3 10  1  0  0  0  0
  4 10  2  0  0  0  0
  5  6  2  0  0  0  0
  5  8  1  0  0  0  0
  6 31  1  0  0  0  0
  7  8  2  0  0  0  0
  7 31  1  0  0  0  0
  8 22  1  0  0  0  0
  9 26  1  0  0  0  0
 10 28  1  0  0  0  0
 11 12  2  0  0  0  0
 11 13  1  0  0  0  0
 11 25  1  0  0  0  0
 12 23  1  0  0  0  0
 12 27  1  0  0  0  0
 13 14  2  0  0  0  0
 14 15  1  0  0  0  0
 15 16  2  0  0  0  0
 16 25  1  0  0  0  0
 17 27  1  0  0  0  0
 17 28  1  0  0  0  0
 17 29  2  0  0  0  0
 18 20  1  0  0  0  0
 18 26  1  0  0  0  0
 19 21  1  0  0  0  0
 19 26  1  0  0  0  0
 20 30  1  0  0  0  0
 21 30  1  0  0  0  0
 22 28  1  0  0  0  0
 23 24  2  0  0  0  0
 24 25  1  0  0  0  0
  1 32  1  0  0  0  0
  2 33  1  0  0  0  0
  3 34  1  0  0  0  0
  4 35  1  0  0  0  0
  5 36  1  0  0  0  0
  6 37  1  0  0  0  0
  7 38  1  0  0  0  0
 13 39  1  0  0  0  0
 14 40  1  0  0  0  0
 15 41  1  0  0  0  0
 16 42  1  0  0  0  0
 18 43  1  0  0  0  0
 18 44  1  0  0  0  0
 19 45  1  0  0  0  0
 19 46  1  0  0  0  0
 20 47  1  0  0  0  0
 20 48  1  0  0  0  0
 21 49  1  0  0  0  0
 21 50  1  0  0  0  0
 22 51  1  0  0  0  0
 22 52  1  0  0  0  0
 27 53  1  0  0  0  0
M  END
> <clash_score>
0

> <docking_score>
-8.702409744262695

> <overlap_score>
0.9908769130706787

$$$$
BENZO_111_1
  -OEChem-08222022393D

 56 60  0     0  0  0  0  0  0999 V2000
    8.3310   -2.7170   25.3430 C   0  0  0  0  0  0  0  0  0  0  0  0
   10.2570   -3.5000   24.1350 C   0  0  0  0  0  0  0  0  0  0  0  0
    8.3510   -1.5420   24.6110 C   0  0  0  0  0  0  0  0  0  0  0  0
   10.2760   -2.3270   23.4020 C   0  0  0  0  0  0  0  0  0  0  0  0
   12.4359    1.7439   24.3724 C   0  0  0  0  0  0  0  0  0  0  0  0
   12.3100    0.2469   22.7668 C   0  0  0  0  0  0  0  0  0  0  0  0
   11.5217    1.0079   23.5949 C   0  0  0  0  0  0  0  0  0  0  0  0
    9.2850   -3.7090   25.1090 C   0  0  0  0  0  0  0  0  0  0  0  0
    9.3300   -1.3350   23.6390 C   0  0  0  0  0  0  0  0  0  0  0  0
    6.1600    0.3870   20.1140 C   0  0  0  0  0  0  0  0  0  0  0  0
    7.2210   -0.4620   20.0350 C   0  0  0  0  0  0  0  0  0  0  0  0
    5.3360    0.8000   21.1530 C   0  0  0  0  0  0  0  0  0  0  0  0
    4.2970    1.6690   20.8430 C   0  0  0  0  0  0  0  0  0  0  0  0
    4.0980    2.1130   19.5350 C   0  0  0  0  0  0  0  0  0  0  0  0
    4.9400    1.7060   18.5060 C   0  0  0  0  0  0  0  0  0  0  0  0
    8.9510    0.1280   21.6880 C   0  0  0  0  0  0  0  0  0  0  0  0
    8.7666   -4.9523   27.2147 C   0  0  0  0  0  0  0  0  0  0  0  0
    9.3034   -6.1866   25.1651 C   0  0  0  0  0  0  0  0  0  0  0  0
    7.3827   -5.5925   27.1999 C   0  0  0  0  0  0  0  0  0  0  0  0
    7.9024   -6.7967   25.2263 C   0  0  0  0  0  0  0  0  0  0  0  0
   14.7884    0.0124   22.4815 C   0  0  0  0  0  0  0  0  0  0  0  0
   10.0220    1.0430   23.6570 C   0  0  0  0  0  0  0  0  0  0  0  0
   13.7076    1.4745   24.0657 N   0  0  0  0  0  0  0  0  0  0  0  0
    7.6830   -0.5170   18.7600 N   0  0  0  0  0  0  0  0  0  0  0  0
    6.9440    0.2550   18.0100 N   0  0  0  0  0  0  0  0  0  0  0  0
   13.5982    0.5607   23.0864 N   0  0  0  0  0  0  0  0  0  0  0  0
    5.9810    0.8330   18.8060 N   0  0  0  0  0  0  0  0  0  0  0  0
    9.2640   -4.8844   25.8389 N   0  0  0  0  0  0  0  0  0  0  0  0
    8.0810   -0.9750   21.0820 N   0  0  0  0  0  0  0  0  0  0  0  0
    9.4200   -0.0840   22.9530 N   0  0  0  0  0  0  0  0  0  0  0  0
    9.1870    1.1500   21.0630 O   0  0  0  0  0  0  0  0  0  0  0  0
    7.4483   -6.8833   26.5817 O   0  0  0  0  0  0  0  0  0  0  0  0
    7.5647   -2.8621   26.1053 H   0  0  0  0  0  0  0  0  0  0  0  0
   11.0144   -4.2642   23.9425 H   0  0  0  0  0  0  0  0  0  0  0  0
    7.5958   -0.7779   24.8006 H   0  0  0  0  0  0  0  0  0  0  0  0
   11.0406   -2.1848   22.6356 H   0  0  0  0  0  0  0  0  0  0  0  0
   12.2308    2.4652   25.1508 H   0  0  0  0  0  0  0  0  0  0  0  0
   12.0700   -0.4744   21.9974 H   0  0  0  0  0  0  0  0  0  0  0  0
    5.4735    0.4758   22.1644 H   0  0  0  0  0  0  0  0  0  0  0  0
    3.6415    1.9967   21.6408 H   0  0  0  0  0  0  0  0  0  0  0  0
    3.2720    2.7926   19.2921 H   0  0  0  0  0  0  0  0  0  0  0  0
    4.8119    2.0418   17.5005 H   0  0  0  0  0  0  0  0  0  0  0  0
    8.7030   -3.9561   27.6574 H   0  0  0  0  0  0  0  0  0  0  0  0
    9.4460   -5.5639   27.8143 H   0  0  0  0  0  0  0  0  0  0  0  0
   10.0083   -6.8392   25.6817 H   0  0  0  0  0  0  0  0  0  0  0  0
    9.6089   -6.0802   24.1251 H   0  0  0  0  0  0  0  0  0  0  0  0
    7.0281   -5.7334   28.2231 H   0  0  0  0  0  0  0  0  0  0  0  0
    6.6541   -4.9678   26.6754 H   0  0  0  0  0  0  0  0  0  0  0  0
    7.1860   -6.2177   24.6318 H   0  0  0  0  0  0  0  0  0  0  0  0
    7.9246   -7.8119   24.8187 H   0  0  0  0  0  0  0  0  0  0  0  0
   15.0569    0.6453   21.6315 H   0  0  0  0  0  0  0  0  0  0  0  0
   15.5971   -0.0026   23.2174 H   0  0  0  0  0  0  0  0  0  0  0  0
   14.5870   -1.0100   22.1498 H   0  0  0  0  0  0  0  0  0  0  0  0
    9.6778    1.0140   24.6966 H   0  0  0  0  0  0  0  0  0  0  0  0
    9.6316    1.9637   23.2107 H   0  0  0  0  0  0  0  0  0  0  0  0
    8.1334   -1.7992   21.3673 H   0  0  0  0  0  0  0  0  0  0  0  0
  1  3  2  0  0  0  0
  1  8  1  0  0  0  0
  2  4  1  0  0  0  0
  2  8  2  0  0  0  0
  3  9  1  0  0  0  0
  4  9  2  0  0  0  0
  5  7  1  0  0  0  0
  5 23  2  0  0  0  0
  6  7  2  0  0  0  0
  6 26  1  0  0  0  0
  7 22  1  0  0  0  0
  8 28  1  0  0  0  0
  9 30  1  0  0  0  0
 10 11  2  0  0  0  0
 10 12  1  0  0  0  0
 10 27  1  0  0  0  0
 11 24  1  0  0  0  0
 11 29  1  0  0  0  0
 12 13  2  0  0  0  0
 13 14  1  0  0  0  0
 14 15  2  0  0  0  0
 15 27  1  0  0  0  0
 16 29  1  0  0  0  0
 16 30  1  0  0  0  0
 16 31  2  0  0  0  0
 17 19  1  0  0  0  0
 17 28  1  0  0  0  0
 18 20  1  0  0  0  0
 18 28  1  0  0  0  0
 19 32  1  0  0  0  0
 20 32  1  0  0  0  0
 21 26  1  0  0  0  0
 22 30  1  0  0  0  0
 23 26  1  0  0  0  0
 24 25  2  0  0  0  0
 25 27  1  0  0  0  0
  1 33  1  0  0  0  0
  2 34  1  0  0  0  0
  3 35  1  0  0  0  0
  4 36  1  0  0  0  0
  5 37  1  0  0  0  0
  6 38  1  0  0  0  0
 12 39  1  0  0  0  0
 13 40  1  0  0  0  0
 14 41  1  0  0  0  0
 15 42  1  0  0  0  0
 17 43  1  0  0  0  0
 17 44  1  0  0  0  0
 18 45  1  0  0  0  0
 18 46  1  0  0  0  0
 19 47  1  0  0  0  0
 19 48  1  0  0  0  0
 20 49  1  0  0  0  0
 20 50  1  0  0  0  0
 21 51  1  0  0  0  0
 21 52  1  0  0  0  0
 21 53  1  0  0  0  0
 22 54  1  0  0  0  0
 22 55  1  0  0  0  0
 29 56  1  0  0  0  0
M  END
> <clash_score>
0

> <docking_score>
-8.67082691192627

> <overlap_score>
1.0026934146881104

$$$$
BENZO_110_1
  -OEChem-08222022393D

 56 60  0     0  0  0  0  0  0999 V2000
   13.5977    1.8457   22.6865 C   0  0  0  0  0  0  0  0  0  0  0  0
   12.2044    1.8769   22.7438 C   0  0  0  0  0  0  0  0  0  0  0  0
    8.3310   -2.7170   25.3430 C   0  0  0  0  0  0  0  0  0  0  0  0
   10.2570   -3.5000   24.1350 C   0  0  0  0  0  0  0  0  0  0  0  0
    8.3510   -1.5420   24.6110 C   0  0  0  0  0  0  0  0  0  0  0  0
   10.2760   -2.3270   23.4020 C   0  0  0  0  0  0  0  0  0  0  0  0
   14.3084    0.9454   23.4803 C   0  0  0  0  0  0  0  0  0  0  0  0
   12.2323    0.1076   24.3888 C   0  0  0  0  0  0  0  0  0  0  0  0
   11.5217    1.0079   23.5949 C   0  0  0  0  0  0  0  0  0  0  0  0
    9.2850   -3.7090   25.1090 C   0  0  0  0  0  0  0  0  0  0  0  0
    9.3300   -1.3350   23.6390 C   0  0  0  0  0  0  0  0  0  0  0  0
   13.6257    0.0764   24.3314 C   0  0  0  0  0  0  0  0  0  0  0  0
    6.1600    0.3870   20.1140 C   0  0  0  0  0  0  0  0  0  0  0  0
    7.2210   -0.4620   20.0350 C   0  0  0  0  0  0  0  0  0  0  0  0
    5.3360    0.8000   21.1530 C   0  0  0  0  0  0  0  0  0  0  0  0
    4.2970    1.6690   20.8430 C   0  0  0  0  0  0  0  0  0  0  0  0
    4.0980    2.1130   19.5350 C   0  0  0  0  0  0  0  0  0  0  0  0
    4.9400    1.7060   18.5060 C   0  0  0  0  0  0  0  0  0  0  0  0
    8.9510    0.1280   21.6880 C   0  0  0  0  0  0  0  0  0  0  0  0
    8.7666   -4.9523   27.2147 C   0  0  0  0  0  0  0  0  0  0  0  0
    9.3034   -6.1866   25.1651 C   0  0  0  0  0  0  0  0  0  0  0  0
    7.3827   -5.5925   27.1999 C   0  0  0  0  0  0  0  0  0  0  0  0
    7.9024   -6.7967   25.2263 C   0  0  0  0  0  0  0  0  0  0  0  0
   10.0220    1.0430   23.6570 C   0  0  0  0  0  0  0  0  0  0  0  0
    7.6830   -0.5170   18.7600 N   0  0  0  0  0  0  0  0  0  0  0  0
    6.9440    0.2550   18.0100 N   0  0  0  0  0  0  0  0  0  0  0  0
    5.9810    0.8330   18.8060 N   0  0  0  0  0  0  0  0  0  0  0  0
    9.2640   -4.8844   25.8389 N   0  0  0  0  0  0  0  0  0  0  0  0
    8.0810   -0.9750   21.0820 N   0  0  0  0  0  0  0  0  0  0  0  0
    9.4200   -0.0840   22.9530 N   0  0  0  0  0  0  0  0  0  0  0  0
    9.1870    1.1500   21.0630 O   0  0  0  0  0  0  0  0  0  0  0  0
    7.4483   -6.8833   26.5817 O   0  0  0  0  0  0  0  0  0  0  0  0
   14.5031   -1.0334   25.3114 Cl  0  0  0  0  0  0  0  0  0  0  0  0
   14.1289    2.5227   22.0237 H   0  0  0  0  0  0  0  0  0  0  0  0
   11.6588    2.5818   22.1218 H   0  0  0  0  0  0  0  0  0  0  0  0
    7.5647   -2.8621   26.1053 H   0  0  0  0  0  0  0  0  0  0  0  0
   11.0144   -4.2642   23.9425 H   0  0  0  0  0  0  0  0  0  0  0  0
    7.5958   -0.7779   24.8006 H   0  0  0  0  0  0  0  0  0  0  0  0
   11.0406   -2.1848   22.6356 H   0  0  0  0  0  0  0  0  0  0  0  0
   15.3941    0.9323   23.4255 H   0  0  0  0  0  0  0  0  0  0  0  0
   11.6954   -0.5682   25.0504 H   0  0  0  0  0  0  0  0  0  0  0  0
    5.4735    0.4758   22.1644 H   0  0  0  0  0  0  0  0  0  0  0  0
    3.6415    1.9967   21.6408 H   0  0  0  0  0  0  0  0  0  0  0  0
    3.2720    2.7926   19.2921 H   0  0  0  0  0  0  0  0  0  0  0  0
    4.8119    2.0418   17.5005 H   0  0  0  0  0  0  0  0  0  0  0  0
    8.7030   -3.9561   27.6574 H   0  0  0  0  0  0  0  0  0  0  0  0
    9.4460   -5.5639   27.8143 H   0  0  0  0  0  0  0  0  0  0  0  0
   10.0083   -6.8392   25.6817 H   0  0  0  0  0  0  0  0  0  0  0  0
    9.6089   -6.0802   24.1251 H   0  0  0  0  0  0  0  0  0  0  0  0
    7.0281   -5.7334   28.2231 H   0  0  0  0  0  0  0  0  0  0  0  0
    6.6541   -4.9678   26.6754 H   0  0  0  0  0  0  0  0  0  0  0  0
    7.1860   -6.2177   24.6318 H   0  0  0  0  0  0  0  0  0  0  0  0
    7.9246   -7.8119   24.8187 H   0  0  0  0  0  0  0  0  0  0  0  0
    9.6778    1.0140   24.6966 H   0  0  0  0  0  0  0  0  0  0  0  0
    9.6316    1.9637   23.2107 H   0  0  0  0  0  0  0  0  0  0  0  0
    8.1334   -1.7992   21.3673 H   0  0  0  0  0  0  0  0  0  0  0  0
  1  2  2  0  0  0  0
  1  7  1  0  0  0  0
  2  9  1  0  0  0  0
  3  5  2  0  0  0  0
  3 10  1  0  0  0  0
  4  6  1  0  0  0  0
  4 10  2  0  0  0  0
  5 11  1  0  0  0  0
  6 11  2  0  0  0  0
  7 12  2  0  0  0  0
  8  9  2  0  0  0  0
  8 12  1  0  0  0  0
  9 24  1  0  0  0  0
 10 28  1  0  0  0  0
 11 30  1  0  0  0  0
 12 33  1  0  0  0  0
 13 14  2  0  0  0  0
 13 15  1  0  0  0  0
 13 27  1  0  0  0  0
 14 25  1  0  0  0  0
 14 29  1  0  0  0  0
 15 16  2  0  0  0  0
 16 17  1  0  0  0  0
 17 18  2  0  0  0  0
 18 27  1  0  0  0  0
 19 29  1  0  0  0  0
 19 30  1  0  0  0  0
 19 31  2  0  0  0  0
 20 22  1  0  0  0  0
 20 28  1  0  0  0  0
 21 23  1  0  0  0  0
 21 28  1  0  0  0  0
 22 32  1  0  0  0  0
 23 32  1  0  0  0  0
 24 30  1  0  0  0  0
 25 26  2  0  0  0  0
 26 27  1  0  0  0  0
  1 34  1  0  0  0  0
  2 35  1  0  0  0  0
  3 36  1  0  0  0  0
  4 37  1  0  0  0  0
  5 38  1  0  0  0  0
  6 39  1  0  0  0  0
  7 40  1  0  0  0  0
  8 41  1  0  0  0  0
 15 42  1  0  0  0  0
 16 43  1  0  0  0  0
 17 44  1  0  0  0  0
 18 45  1  0  0  0  0
 20 46  1  0  0  0  0
 20 47  1  0  0  0  0
 21 48  1  0  0  0  0
 21 49  1  0  0  0  0
 22 50  1  0  0  0  0
 22 51  1  0  0  0  0
 23 52  1  0  0  0  0
 23 53  1  0  0  0  0
 24 54  1  0  0  0  0
 24 55  1  0  0  0  0
 29 56  1  0  0  0  0
M  END
> <clash_score>
0.7662431493808955

> <docking_score>
-7.638111114501953

> <overlap_score>
1.0216708183288574

$$$$
BENZO_113_1
  -OEChem-08222022393D

 53 56  0     0  0  0  0  0  0999 V2000
   14.3082    0.9431   23.4783 C   0  0  0  0  0  0  0  0  0  0  0  0
    4.2970    1.6690   20.8430 C   0  0  0  0  0  0  0  0  0  0  0  0
   13.6391    0.3091   24.5251 C   0  0  0  0  0  0  0  0  0  0  0  0
   13.5841    1.6096   22.4898 C   0  0  0  0  0  0  0  0  0  0  0  0
    4.0980    2.1130   19.5350 C   0  0  0  0  0  0  0  0  0  0  0  0
    5.3360    0.8000   21.1530 C   0  0  0  0  0  0  0  0  0  0  0  0
   12.2459    0.3415   24.5835 C   0  0  0  0  0  0  0  0  0  0  0  0
   12.1908    1.6420   22.5481 C   0  0  0  0  0  0  0  0  0  0  0  0
    4.9400    1.7060   18.5060 C   0  0  0  0  0  0  0  0  0  0  0  0
    8.3510   -1.5420   24.6110 C   0  0  0  0  0  0  0  0  0  0  0  0
   10.2760   -2.3270   23.4020 C   0  0  0  0  0  0  0  0  0  0  0  0
    8.3310   -2.7170   25.3430 C   0  0  0  0  0  0  0  0  0  0  0  0
   10.2570   -3.5000   24.1350 C   0  0  0  0  0  0  0  0  0  0  0  0
    7.6830   -0.5170   18.7600 C   0  0  0  0  0  0  0  0  0  0  0  0
    6.1600    0.3870   20.1140 C   0  0  0  0  0  0  0  0  0  0  0  0
   11.5217    1.0079   23.5949 C   0  0  0  0  0  0  0  0  0  0  0  0
    5.9810    0.8330   18.8060 C   0  0  0  0  0  0  0  0  0  0  0  0
    9.3300   -1.3350   23.6390 C   0  0  0  0  0  0  0  0  0  0  0  0
    9.2850   -3.7090   25.1090 C   0  0  0  0  0  0  0  0  0  0  0  0
    7.2210   -0.4620   20.0350 C   0  0  0  0  0  0  0  0  0  0  0  0
    8.9510    0.1280   21.6880 C   0  0  0  0  0  0  0  0  0  0  0  0
    8.2502   -5.1187   26.8644 C   0  0  0  0  0  0  0  0  0  0  0  0
   10.2426   -5.9404   25.5981 C   0  0  0  0  0  0  0  0  0  0  0  0
   10.0220    1.0430   23.6570 C   0  0  0  0  0  0  0  0  0  0  0  0
    6.9440    0.2550   18.0100 N   0  0  0  0  0  0  0  0  0  0  0  0
    8.0810   -0.9750   21.0820 N   0  0  0  0  0  0  0  0  0  0  0  0
    9.4200   -0.0840   22.9530 N   0  0  0  0  0  0  0  0  0  0  0  0
    9.2624   -4.9028   25.8498 N   0  0  0  0  0  0  0  0  0  0  0  0
    9.1870    1.1500   21.0630 O   0  0  0  0  0  0  0  0  0  0  0  0
   15.3932    0.9189   23.4337 H   0  0  0  0  0  0  0  0  0  0  0  0
    3.6256    2.0106   21.6303 H   0  0  0  0  0  0  0  0  0  0  0  0
   14.2029   -0.2090   25.2955 H   0  0  0  0  0  0  0  0  0  0  0  0
   14.1048    2.1043   21.6752 H   0  0  0  0  0  0  0  0  0  0  0  0
    3.2724    2.7868   19.3204 H   0  0  0  0  0  0  0  0  0  0  0  0
    5.4858    0.4664   22.1692 H   0  0  0  0  0  0  0  0  0  0  0  0
   11.7330   -0.1555   25.4027 H   0  0  0  0  0  0  0  0  0  0  0  0
   11.6349    2.1636   21.7735 H   0  0  0  0  0  0  0  0  0  0  0  0
    4.7836    2.0664   17.4848 H   0  0  0  0  0  0  0  0  0  0  0  0
    7.5947   -0.7787   24.7997 H   0  0  0  0  0  0  0  0  0  0  0  0
   11.0404   -2.1861   22.6352 H   0  0  0  0  0  0  0  0  0  0  0  0
    7.5641   -2.8632   26.1047 H   0  0  0  0  0  0  0  0  0  0  0  0
   11.0135   -4.2647   23.9425 H   0  0  0  0  0  0  0  0  0  0  0  0
    8.5274   -1.0858   18.3384 H   0  0  0  0  0  0  0  0  0  0  0  0
    8.3996   -6.1050   27.3280 H   0  0  0  0  0  0  0  0  0  0  0  0
    8.3293   -4.3363   27.6335 H   0  0  0  0  0  0  0  0  0  0  0  0
    7.2531   -5.0785   26.4017 H   0  0  0  0  0  0  0  0  0  0  0  0
   10.0599   -6.7897   26.2729 H   0  0  0  0  0  0  0  0  0  0  0  0
   10.1599   -6.2773   24.5542 H   0  0  0  0  0  0  0  0  0  0  0  0
   11.2523   -5.5417   25.7758 H   0  0  0  0  0  0  0  0  0  0  0  0
    9.6778    1.0140   24.6966 H   0  0  0  0  0  0  0  0  0  0  0  0
    9.6316    1.9637   23.2107 H   0  0  0  0  0  0  0  0  0  0  0  0
    7.0325    0.4238   17.0175 H   0  0  0  0  0  0  0  0  0  0  0  0
    8.1151   -1.8109   21.3513 H   0  0  0  0  0  0  0  0  0  0  0  0
  1  3  1  0  0  0  0
  1  4  2  0  0  0  0
  2  5  1  0  0  0  0
  2  6  2  0  0  0  0
  3  7  2  0  0  0  0
  4  8  1  0  0  0  0
  5  9  2  0  0  0  0
  6 15  1  0  0  0  0
  7 16  1  0  0  0  0
  8 16  2  0  0  0  0
  9 17  1  0  0  0  0
 10 12  2  0  0  0  0
 10 18  1  0  0  0  0
 11 13  1  0  0  0  0
 11 18  2  0  0  0  0
 12 19  1  0  0  0  0
 13 19  2  0  0  0  0
 14 20  2  0  0  0  0
 14 25  1  0  0  0  0
 15 17  2  0  0  0  0
 15 20  1  0  0  0  0
 16 24  1  0  0  0  0
 17 25  1  0  0  0  0
 18 27  1  0  0  0  0
 19 28  1  0  0  0  0
 20 26  1  0  0  0  0
 21 26  1  0  0  0  0
 21 27  1  0  0  0  0
 21 29  2  0  0  0  0
 22 28  1  0  0  0  0
 23 28  1  0  0  0  0
 24 27  1  0  0  0  0
  1 30  1  0  0  0  0
  2 31  1  0  0  0  0
  3 32  1  0  0  0  0
  4 33  1  0  0  0  0
  5 34  1  0  0  0  0
  6 35  1  0  0  0  0
  7 36  1  0  0  0  0
  8 37  1  0  0  0  0
  9 38  1  0  0  0  0
 10 39  1  0  0  0  0
 11 40  1  0  0  0  0
 12 41  1  0  0  0  0
 13 42  1  0  0  0  0
 14 43  1  0  0  0  0
 22 44  1  0  0  0  0
 22 45  1  0  0  0  0
 22 46  1  0  0  0  0
 23 47  1  0  0  0  0
 23 48  1  0  0  0  0
 23 49  1  0  0  0  0
 24 50  1  0  0  0  0
 24 51  1  0  0  0  0
 25 52  1  0  0  0  0
 26 53  1  0  0  0  0
M  END
> <clash_score>
0

> <docking_score>
-8.492205619812012

> <overlap_score>
1.0030865669250488

$$$$
BENZO_112_1
  -OEChem-08222022393D

 50 53  0     0  0  0  0  0  0999 V2000
    4.2970    1.6690   20.8430 C   0  0  0  0  0  0  0  0  0  0  0  0
    4.0980    2.1130   19.5350 C   0  0  0  0  0  0  0  0  0  0  0  0
    5.3360    0.8000   21.1530 C   0  0  0  0  0  0  0  0  0  0  0  0
    4.9400    1.7060   18.5060 C   0  0  0  0  0  0  0  0  0  0  0  0
    8.3510   -1.5420   24.6110 C   0  0  0  0  0  0  0  0  0  0  0  0
   10.2760   -2.3270   23.4020 C   0  0  0  0  0  0  0  0  0  0  0  0
    8.3310   -2.7170   25.3430 C   0  0  0  0  0  0  0  0  0  0  0  0
   10.2570   -3.5000   24.1350 C   0  0  0  0  0  0  0  0  0  0  0  0
   12.2675    1.0332   22.3812 C   0  0  0  0  0  0  0  0  0  0  0  0
    7.6830   -0.5170   18.7600 C   0  0  0  0  0  0  0  0  0  0  0  0
   13.6257    0.9906   22.6074 C   0  0  0  0  0  0  0  0  0  0  0  0
   12.3384    0.9467   24.7028 C   0  0  0  0  0  0  0  0  0  0  0  0
    6.1600    0.3870   20.1140 C   0  0  0  0  0  0  0  0  0  0  0  0
   11.5217    1.0079   23.5949 C   0  0  0  0  0  0  0  0  0  0  0  0
    5.9810    0.8330   18.8060 C   0  0  0  0  0  0  0  0  0  0  0  0
    9.3300   -1.3350   23.6390 C   0  0  0  0  0  0  0  0  0  0  0  0
    9.2850   -3.7090   25.1090 C   0  0  0  0  0  0  0  0  0  0  0  0
    7.2210   -0.4620   20.0350 C   0  0  0  0  0  0  0  0  0  0  0  0
    8.9510    0.1280   21.6880 C   0  0  0  0  0  0  0  0  0  0  0  0
    8.2502   -5.1187   26.8644 C   0  0  0  0  0  0  0  0  0  0  0  0
   10.2426   -5.9404   25.5981 C   0  0  0  0  0  0  0  0  0  0  0  0
   10.0220    1.0430   23.6570 C   0  0  0  0  0  0  0  0  0  0  0  0
    6.9440    0.2550   18.0100 N   0  0  0  0  0  0  0  0  0  0  0  0
    8.0810   -0.9750   21.0820 N   0  0  0  0  0  0  0  0  0  0  0  0
    9.4200   -0.0840   22.9530 N   0  0  0  0  0  0  0  0  0  0  0  0
    9.2624   -4.9028   25.8498 N   0  0  0  0  0  0  0  0  0  0  0  0
    9.1870    1.1500   21.0630 O   0  0  0  0  0  0  0  0  0  0  0  0
   13.9969    0.9203   24.2776 S   0  0  0  0  0  0  0  0  0  0  0  0
    3.6256    2.0106   21.6303 H   0  0  0  0  0  0  0  0  0  0  0  0
    3.2724    2.7868   19.3204 H   0  0  0  0  0  0  0  0  0  0  0  0
    5.4858    0.4664   22.1692 H   0  0  0  0  0  0  0  0  0  0  0  0
    4.7836    2.0664   17.4848 H   0  0  0  0  0  0  0  0  0  0  0  0
    7.5947   -0.7787   24.7997 H   0  0  0  0  0  0  0  0  0  0  0  0
   11.0404   -2.1861   22.6352 H   0  0  0  0  0  0  0  0  0  0  0  0
    7.5641   -2.8632   26.1047 H   0  0  0  0  0  0  0  0  0  0  0  0
   11.0135   -4.2647   23.9425 H   0  0  0  0  0  0  0  0  0  0  0  0
   11.8338    1.0798   21.3902 H   0  0  0  0  0  0  0  0  0  0  0  0
    8.5274   -1.0858   18.3384 H   0  0  0  0  0  0  0  0  0  0  0  0
   14.4176    0.9966   21.8719 H   0  0  0  0  0  0  0  0  0  0  0  0
   12.0446    0.9149   25.7428 H   0  0  0  0  0  0  0  0  0  0  0  0
    8.3996   -6.1050   27.3280 H   0  0  0  0  0  0  0  0  0  0  0  0
    8.3293   -4.3363   27.6335 H   0  0  0  0  0  0  0  0  0  0  0  0
    7.2531   -5.0785   26.4017 H   0  0  0  0  0  0  0  0  0  0  0  0
   10.0599   -6.7897   26.2729 H   0  0  0  0  0  0  0  0  0  0  0  0
   10.1599   -6.2773   24.5542 H   0  0  0  0  0  0  0  0  0  0  0  0
   11.2523   -5.5417   25.7758 H   0  0  0  0  0  0  0  0  0  0  0  0
    9.6778    1.0140   24.6966 H   0  0  0  0  0  0  0  0  0  0  0  0
    9.6316    1.9637   23.2107 H   0  0  0  0  0  0  0  0  0  0  0  0
    7.0325    0.4238   17.0175 H   0  0  0  0  0  0  0  0  0  0  0  0
    8.1151   -1.8109   21.3513 H   0  0  0  0  0  0  0  0  0  0  0  0
  1  2  1  0  0  0  0
  1  3  2  0  0  0  0
  2  4  2  0  0  0  0
  3 13  1  0  0  0  0
  4 15  1  0  0  0  0
  5  7  2  0  0  0  0
  5 16  1  0  0  0  0
  6  8  1  0  0  0  0
  6 16  2  0  0  0  0
  7 17  1  0  0  0  0
  8 17  2  0  0  0  0
  9 11  2  0  0  0  0
  9 14  1  0  0  0  0
 10 18  2  0  0  0  0
 10 23  1  0  0  0  0
 11 28  1  0  0  0  0
 12 14  2  0  0  0  0
 12 28  1  0  0  0  0
 13 15  2  0  0  0  0
 13 18  1  0  0  0  0
 14 22  1  0  0  0  0
 15 23  1  0  0  0  0
 16 25  1  0  0  0  0
 17 26  1  0  0  0  0
 18 24  1  0  0  0  0
 19 24  1  0  0  0  0
 19 25  1  0  0  0  0
 19 27  2  0  0  0  0
 20 26  1  0  0  0  0
 21 26  1  0  0  0  0
 22 25  1  0  0  0  0
  1 29  1  0  0  0  0
  2 30  1  0  0  0  0
  3 31  1  0  0  0  0
  4 32  1  0  0  0  0
  5 33  1  0  0  0  0
  6 34  1  0  0  0  0
  7 35  1  0  0  0  0
  8 36  1  0  0  0  0
  9 37  1  0  0  0  0
 10 38  1  0  0  0  0
 11 39  1  0  0  0  0
 12 40  1  0  0  0  0
 20 41  1  0  0  0  0
 20 42  1  0  0  0  0
 20 43  1  0  0  0  0
 21 44  1  0  0  0  0
 21 45  1  0  0  0  0
 21 46  1  0  0  0  0
 22 47  1  0  0  0  0
 22 48  1  0  0  0  0
 23 49  1  0  0  0  0
 24 50  1  0  0  0  0
M  END
> <clash_score>
0

> <docking_score>
-8.738401412963867

> <overlap_score>
0.9772630929946899

$$$$
BENZO_114_1
  -OEChem-08222022393D

 53 56  0     0  0  0  0  0  0999 V2000
    4.2970    1.6690   20.8430 C   0  0  0  0  0  0  0  0  0  0  0  0
    4.0980    2.1130   19.5350 C   0  0  0  0  0  0  0  0  0  0  0  0
   13.5977    1.8457   22.6865 C   0  0  0  0  0  0  0  0  0  0  0  0
    5.3360    0.8000   21.1530 C   0  0  0  0  0  0  0  0  0  0  0  0
   12.2044    1.8769   22.7438 C   0  0  0  0  0  0  0  0  0  0  0  0
    4.9400    1.7060   18.5060 C   0  0  0  0  0  0  0  0  0  0  0  0
    8.3510   -1.5420   24.6110 C   0  0  0  0  0  0  0  0  0  0  0  0
   10.2760   -2.3270   23.4020 C   0  0  0  0  0  0  0  0  0  0  0  0
    8.3310   -2.7170   25.3430 C   0  0  0  0  0  0  0  0  0  0  0  0
   10.2570   -3.5000   24.1350 C   0  0  0  0  0  0  0  0  0  0  0  0
   14.3084    0.9454   23.4803 C   0  0  0  0  0  0  0  0  0  0  0  0
   12.2323    0.1076   24.3888 C   0  0  0  0  0  0  0  0  0  0  0  0
    7.6830   -0.5170   18.7600 C   0  0  0  0  0  0  0  0  0  0  0  0
    6.1600    0.3870   20.1140 C   0  0  0  0  0  0  0  0  0  0  0  0
   11.5217    1.0079   23.5949 C   0  0  0  0  0  0  0  0  0  0  0  0
    5.9810    0.8330   18.8060 C   0  0  0  0  0  0  0  0  0  0  0  0
    9.3300   -1.3350   23.6390 C   0  0  0  0  0  0  0  0  0  0  0  0
    9.2850   -3.7090   25.1090 C   0  0  0  0  0  0  0  0  0  0  0  0
    7.2210   -0.4620   20.0350 C   0  0  0  0  0  0  0  0  0  0  0  0
   13.6257    0.0764   24.3314 C   0  0  0  0  0  0  0  0  0  0  0  0
    8.9510    0.1280   21.6880 C   0  0  0  0  0  0  0  0  0  0  0  0
    8.2502   -5.1187   26.8644 C   0  0  0  0  0  0  0  0  0  0  0  0
   10.2426   -5.9404   25.5981 C   0  0  0  0  0  0  0  0  0  0  0  0
   10.0220    1.0430   23.6570 C   0  0  0  0  0  0  0  0  0  0  0  0
    6.9440    0.2550   18.0100 N   0  0  0  0  0  0  0  0  0  0  0  0
    8.0810   -0.9750   21.0820 N   0  0  0  0  0  0  0  0  0  0  0  0
    9.4200   -0.0840   22.9530 N   0  0  0  0  0  0  0  0  0  0  0  0
    9.2624   -4.9028   25.8498 N   0  0  0  0  0  0  0  0  0  0  0  0
    9.1870    1.1500   21.0630 O   0  0  0  0  0  0  0  0  0  0  0  0
   14.5031   -1.0334   25.3114 Cl  0  0  0  0  0  0  0  0  0  0  0  0
    3.6256    2.0106   21.6303 H   0  0  0  0  0  0  0  0  0  0  0  0
    3.2724    2.7868   19.3204 H   0  0  0  0  0  0  0  0  0  0  0  0
   14.1289    2.5226   22.0237 H   0  0  0  0  0  0  0  0  0  0  0  0
    5.4858    0.4664   22.1692 H   0  0  0  0  0  0  0  0  0  0  0  0
   11.6588    2.5818   22.1218 H   0  0  0  0  0  0  0  0  0  0  0  0
    4.7836    2.0664   17.4848 H   0  0  0  0  0  0  0  0  0  0  0  0
    7.5947   -0.7787   24.7997 H   0  0  0  0  0  0  0  0  0  0  0  0
   11.0404   -2.1861   22.6352 H   0  0  0  0  0  0  0  0  0  0  0  0
    7.5641   -2.8632   26.1047 H   0  0  0  0  0  0  0  0  0  0  0  0
   11.0135   -4.2647   23.9425 H   0  0  0  0  0  0  0  0  0  0  0  0
   15.3941    0.9323   23.4255 H   0  0  0  0  0  0  0  0  0  0  0  0
   11.6954   -0.5682   25.0504 H   0  0  0  0  0  0  0  0  0  0  0  0
    8.5274   -1.0858   18.3384 H   0  0  0  0  0  0  0  0  0  0  0  0
    8.3996   -6.1050   27.3280 H   0  0  0  0  0  0  0  0  0  0  0  0
    8.3293   -4.3363   27.6335 H   0  0  0  0  0  0  0  0  0  0  0  0
    7.2531   -5.0785   26.4017 H   0  0  0  0  0  0  0  0  0  0  0  0
   10.0599   -6.7897   26.2729 H   0  0  0  0  0  0  0  0  0  0  0  0
   10.1599   -6.2773   24.5542 H   0  0  0  0  0  0  0  0  0  0  0  0
   11.2523   -5.5417   25.7758 H   0  0  0  0  0  0  0  0  0  0  0  0
    9.6778    1.0140   24.6966 H   0  0  0  0  0  0  0  0  0  0  0  0
    9.6316    1.9637   23.2107 H   0  0  0  0  0  0  0  0  0  0  0  0
    7.0325    0.4238   17.0175 H   0  0  0  0  0  0  0  0  0  0  0  0
    8.1151   -1.8109   21.3513 H   0  0  0  0  0  0  0  0  0  0  0  0
  1  2  1  0  0  0  0
  1  4  2  0  0  0  0
  2  6  2  0  0  0  0
  3  5  2  0  0  0  0
  3 11  1  0  0  0  0
  4 14  1  0  0  0  0
  5 15  1  0  0  0  0
  6 16  1  0  0  0  0
  7  9  2  0  0  0  0
  7 17  1  0  0  0  0
  8 10  1  0  0  0  0
  8 17  2  0  0  0  0
  9 18  1  0  0  0  0
 10 18  2  0  0  0  0
 11 20  2  0  0  0  0
 12 15  2  0  0  0  0
 12 20  1  0  0  0  0
 13 19  2  0  0  0  0
 13 25  1  0  0  0  0
 14 16  2  0  0  0  0
 14 19  1  0  0  0  0
 15 24  1  0  0  0  0
 16 25  1  0  0  0  0
 17 27  1  0  0  0  0
 18 28  1  0  0  0  0
 19 26  1  0  0  0  0
 20 30  1  0  0  0  0
 21 26  1  0  0  0  0
 21 27  1  0  0  0  0
 21 29  2  0  0  0  0
 22 28  1  0  0  0  0
 23 28  1  0  0  0  0
 24 27  1  0  0  0  0
  1 31  1  0  0  0  0
  2 32  1  0  0  0  0
  3 33  1  0  0  0  0
  4 34  1  0  0  0  0
  5 35  1  0  0  0  0
  6 36  1  0  0  0  0
  7 37  1  0  0  0  0
  8 38  1  0  0  0  0
  9 39  1  0  0  0  0
 10 40  1  0  0  0  0
 11 41  1  0  0  0  0
 12 42  1  0  0  0  0
 13 43  1  0  0  0  0
 22 44  1  0  0  0  0
 22 45  1  0  0  0  0
 22 46  1  0  0  0  0
 23 47  1  0  0  0  0
 23 48  1  0  0  0  0
 23 49  1  0  0  0  0
 24 50  1  0  0  0  0
 24 51  1  0  0  0  0
 25 52  1  0  0  0  0
 26 53  1  0  0  0  0
M  END
> <clash_score>
0.7662462067368553

> <docking_score>
-7.6741108894348145

> <overlap_score>
1.008291482925415

$$$$
BENZO_115_1
  -OEChem-08222022393D

 53 56  0     0  0  0  0  0  0999 V2000
    4.2970    1.6690   20.8430 C   0  0  0  0  0  0  0  0  0  0  0  0
    4.0980    2.1130   19.5350 C   0  0  0  0  0  0  0  0  0  0  0  0
    5.3360    0.8000   21.1530 C   0  0  0  0  0  0  0  0  0  0  0  0
    4.9400    1.7060   18.5060 C   0  0  0  0  0  0  0  0  0  0  0  0
    8.3510   -1.5420   24.6110 C   0  0  0  0  0  0  0  0  0  0  0  0
   10.2760   -2.3270   23.4020 C   0  0  0  0  0  0  0  0  0  0  0  0
    8.3310   -2.7170   25.3430 C   0  0  0  0  0  0  0  0  0  0  0  0
   10.2570   -3.5000   24.1350 C   0  0  0  0  0  0  0  0  0  0  0  0
   12.4359    1.7439   24.3724 C   0  0  0  0  0  0  0  0  0  0  0  0
   12.3100    0.2469   22.7668 C   0  0  0  0  0  0  0  0  0  0  0  0
    7.6830   -0.5170   18.7600 C   0  0  0  0  0  0  0  0  0  0  0  0
    6.1600    0.3870   20.1140 C   0  0  0  0  0  0  0  0  0  0  0  0
   11.5217    1.0079   23.5949 C   0  0  0  0  0  0  0  0  0  0  0  0
    5.9810    0.8330   18.8060 C   0  0  0  0  0  0  0  0  0  0  0  0
    9.3300   -1.3350   23.6390 C   0  0  0  0  0  0  0  0  0  0  0  0
    9.2850   -3.7090   25.1090 C   0  0  0  0  0  0  0  0  0  0  0  0
    7.2210   -0.4620   20.0350 C   0  0  0  0  0  0  0  0  0  0  0  0
    8.9510    0.1280   21.6880 C   0  0  0  0  0  0  0  0  0  0  0  0
   14.7884    0.0124   22.4815 C   0  0  0  0  0  0  0  0  0  0  0  0
    8.2502   -5.1187   26.8644 C   0  0  0  0  0  0  0  0  0  0  0  0
   10.2426   -5.9404   25.5981 C   0  0  0  0  0  0  0  0  0  0  0  0
   10.0220    1.0430   23.6570 C   0  0  0  0  0  0  0  0  0  0  0  0
   13.7076    1.4745   24.0657 N   0  0  0  0  0  0  0  0  0  0  0  0
    6.9440    0.2550   18.0100 N   0  0  0  0  0  0  0  0  0  0  0  0
   13.5982    0.5607   23.0864 N   0  0  0  0  0  0  0  0  0  0  0  0
    8.0810   -0.9750   21.0820 N   0  0  0  0  0  0  0  0  0  0  0  0
    9.4200   -0.0840   22.9530 N   0  0  0  0  0  0  0  0  0  0  0  0
    9.2624   -4.9028   25.8498 N   0  0  0  0  0  0  0  0  0  0  0  0
    9.1870    1.1500   21.0630 O   0  0  0  0  0  0  0  0  0  0  0  0
    3.6256    2.0106   21.6303 H   0  0  0  0  0  0  0  0  0  0  0  0
    3.2724    2.7868   19.3204 H   0  0  0  0  0  0  0  0  0  0  0  0
    5.4858    0.4664   22.1692 H   0  0  0  0  0  0  0  0  0  0  0  0
    4.7836    2.0664   17.4848 H   0  0  0  0  0  0  0  0  0  0  0  0
    7.5947   -0.7787   24.7997 H   0  0  0  0  0  0  0  0  0  0  0  0
   11.0404   -2.1861   22.6352 H   0  0  0  0  0  0  0  0  0  0  0  0
    7.5641   -2.8632   26.1047 H   0  0  0  0  0  0  0  0  0  0  0  0
   11.0135   -4.2647   23.9425 H   0  0  0  0  0  0  0  0  0  0  0  0
   12.2308    2.4652   25.1508 H   0  0  0  0  0  0  0  0  0  0  0  0
   12.0700   -0.4744   21.9974 H   0  0  0  0  0  0  0  0  0  0  0  0
    8.5274   -1.0858   18.3384 H   0  0  0  0  0  0  0  0  0  0  0  0
   15.0569    0.6453   21.6315 H   0  0  0  0  0  0  0  0  0  0  0  0
   15.5971   -0.0026   23.2174 H   0  0  0  0  0  0  0  0  0  0  0  0
   14.5870   -1.0100   22.1498 H   0  0  0  0  0  0  0  0  0  0  0  0
    8.3996   -6.1050   27.3280 H   0  0  0  0  0  0  0  0  0  0  0  0
    8.3293   -4.3363   27.6335 H   0  0  0  0  0  0  0  0  0  0  0  0
    7.2531   -5.0785   26.4017 H   0  0  0  0  0  0  0  0  0  0  0  0
   10.0599   -6.7897   26.2729 H   0  0  0  0  0  0  0  0  0  0  0  0
   10.1599   -6.2773   24.5542 H   0  0  0  0  0  0  0  0  0  0  0  0
   11.2523   -5.5417   25.7758 H   0  0  0  0  0  0  0  0  0  0  0  0
    9.6778    1.0140   24.6966 H   0  0  0  0  0  0  0  0  0  0  0  0
    9.6316    1.9637   23.2107 H   0  0  0  0  0  0  0  0  0  0  0  0
    7.0325    0.4238   17.0175 H   0  0  0  0  0  0  0  0  0  0  0  0
    8.1151   -1.8109   21.3513 H   0  0  0  0  0  0  0  0  0  0  0  0
  1  2  1  0  0  0  0
  1  3  2  0  0  0  0
  2  4  2  0  0  0  0
  3 12  1  0  0  0  0
  4 14  1  0  0  0  0
  5  7  2  0  0  0  0
  5 15  1  0  0  0  0
  6  8  1  0  0  0  0
  6 15  2  0  0  0  0
  7 16  1  0  0  0  0
  8 16  2  0  0  0  0
  9 13  1  0  0  0  0
  9 23  2  0  0  0  0
 10 13  2  0  0  0  0
 10 25  1  0  0  0  0
 11 17  2  0  0  0  0
 11 24  1  0  0  0  0
 12 14  2  0  0  0  0
 12 17  1  0  0  0  0
 13 22  1  0  0  0  0
 14 24  1  0  0  0  0
 15 27  1  0  0  0  0
 16 28  1  0  0  0  0
 17 26  1  0  0  0  0
 18 26  1  0  0  0  0
 18 27  1  0  0  0  0
 18 29  2  0  0  0  0
 19 25  1  0  0  0  0
 20 28  1  0  0  0  0
 21 28  1  0  0  0  0
 22 27  1  0  0  0  0
 23 25  1  0  0  0  0
  1 30  1  0  0  0  0
  2 31  1  0  0  0  0
  3 32  1  0  0  0  0
  4 33  1  0  0  0  0
  5 34  1  0  0  0  0
  6 35  1  0  0  0  0
  7 36  1  0  0  0  0
  8 37  1  0  0  0  0
  9 38  1  0  0  0  0
 10 39  1  0  0  0  0
 11 40  1  0  0  0  0
 19 41  1  0  0  0  0
 19 42  1  0  0  0  0
 19 43  1  0  0  0  0
 20 44  1  0  0  0  0
 20 45  1  0  0  0  0
 20 46  1  0  0  0  0
 21 47  1  0  0  0  0
 21 48  1  0  0  0  0
 21 49  1  0  0  0  0
 22 50  1  0  0  0  0
 22 51  1  0  0  0  0
 24 52  1  0  0  0  0
 26 53  1  0  0  0  0
M  END
> <clash_score>
0

> <docking_score>
-8.706819534301758

> <overlap_score>
0.9891870617866516

$$$$
BENZO_117_1
  -OEChem-08222022393D

 55 58  0     0  0  0  0  0  0999 V2000
   14.3082    0.9431   23.4783 C   0  0  0  0  0  0  0  0  0  0  0  0
    4.2970    1.6690   20.8430 C   0  0  0  0  0  0  0  0  0  0  0  0
   13.6391    0.3091   24.5251 C   0  0  0  0  0  0  0  0  0  0  0  0
   13.5841    1.6096   22.4898 C   0  0  0  0  0  0  0  0  0  0  0  0
    4.0980    2.1130   19.5350 C   0  0  0  0  0  0  0  0  0  0  0  0
    5.3360    0.8000   21.1530 C   0  0  0  0  0  0  0  0  0  0  0  0
   12.2459    0.3415   24.5835 C   0  0  0  0  0  0  0  0  0  0  0  0
   12.1908    1.6420   22.5481 C   0  0  0  0  0  0  0  0  0  0  0  0
    4.9400    1.7060   18.5060 C   0  0  0  0  0  0  0  0  0  0  0  0
    8.3310   -2.7170   25.3430 C   0  0  0  0  0  0  0  0  0  0  0  0
   10.2570   -3.5000   24.1350 C   0  0  0  0  0  0  0  0  0  0  0  0
    8.3510   -1.5420   24.6110 C   0  0  0  0  0  0  0  0  0  0  0  0
   10.2760   -2.3270   23.4020 C   0  0  0  0  0  0  0  0  0  0  0  0
    7.6830   -0.5170   18.7600 C   0  0  0  0  0  0  0  0  0  0  0  0
    6.1600    0.3870   20.1140 C   0  0  0  0  0  0  0  0  0  0  0  0
   11.5217    1.0079   23.5949 C   0  0  0  0  0  0  0  0  0  0  0  0
    5.9810    0.8330   18.8060 C   0  0  0  0  0  0  0  0  0  0  0  0
    9.2850   -3.7090   25.1090 C   0  0  0  0  0  0  0  0  0  0  0  0
    9.3300   -1.3350   23.6390 C   0  0  0  0  0  0  0  0  0  0  0  0
    7.2210   -0.4620   20.0350 C   0  0  0  0  0  0  0  0  0  0  0  0
    9.6834   -6.1686   25.4395 C   0  0  0  0  0  0  0  0  0  0  0  0
    8.9510    0.1280   21.6880 C   0  0  0  0  0  0  0  0  0  0  0  0
    8.0392   -7.2898   27.0032 C   0  0  0  0  0  0  0  0  0  0  0  0
   10.0220    1.0430   23.6570 C   0  0  0  0  0  0  0  0  0  0  0  0
    9.4852   -7.1872   26.5521 C   0  0  0  0  0  0  0  0  0  0  0  0
    6.9440    0.2550   18.0100 N   0  0  0  0  0  0  0  0  0  0  0  0
    9.2630   -4.8902   25.8410 N   0  0  0  0  0  0  0  0  0  0  0  0
    8.0810   -0.9750   21.0820 N   0  0  0  0  0  0  0  0  0  0  0  0
    9.4200   -0.0840   22.9530 N   0  0  0  0  0  0  0  0  0  0  0  0
   10.1549   -6.4783   24.3504 O   0  0  0  0  0  0  0  0  0  0  0  0
    9.1870    1.1500   21.0630 O   0  0  0  0  0  0  0  0  0  0  0  0
   15.3932    0.9189   23.4337 H   0  0  0  0  0  0  0  0  0  0  0  0
    3.6256    2.0106   21.6303 H   0  0  0  0  0  0  0  0  0  0  0  0
   14.2029   -0.2090   25.2955 H   0  0  0  0  0  0  0  0  0  0  0  0
   14.1048    2.1043   21.6752 H   0  0  0  0  0  0  0  0  0  0  0  0
    3.2724    2.7868   19.3204 H   0  0  0  0  0  0  0  0  0  0  0  0
    5.4858    0.4664   22.1692 H   0  0  0  0  0  0  0  0  0  0  0  0
   11.7330   -0.1555   25.4027 H   0  0  0  0  0  0  0  0  0  0  0  0
   11.6349    2.1636   21.7735 H   0  0  0  0  0  0  0  0  0  0  0  0
    4.7836    2.0664   17.4848 H   0  0  0  0  0  0  0  0  0  0  0  0
    7.5639   -2.8621   26.1045 H   0  0  0  0  0  0  0  0  0  0  0  0
   11.0141   -4.2644   23.9422 H   0  0  0  0  0  0  0  0  0  0  0  0
    7.5950   -0.7788   24.8007 H   0  0  0  0  0  0  0  0  0  0  0  0
   11.0408   -2.1861   22.6359 H   0  0  0  0  0  0  0  0  0  0  0  0
    8.5274   -1.0858   18.3384 H   0  0  0  0  0  0  0  0  0  0  0  0
    7.6716   -6.3251   27.3680 H   0  0  0  0  0  0  0  0  0  0  0  0
    7.9434   -8.0204   27.8123 H   0  0  0  0  0  0  0  0  0  0  0  0
    7.3917   -7.6058   26.1786 H   0  0  0  0  0  0  0  0  0  0  0  0
    9.6778    1.0140   24.6966 H   0  0  0  0  0  0  0  0  0  0  0  0
    9.6316    1.9637   23.2107 H   0  0  0  0  0  0  0  0  0  0  0  0
    9.8262   -8.1650   26.1929 H   0  0  0  0  0  0  0  0  0  0  0  0
   10.1140   -6.8997   27.4027 H   0  0  0  0  0  0  0  0  0  0  0  0
    7.0325    0.4238   17.0175 H   0  0  0  0  0  0  0  0  0  0  0  0
    8.8929   -4.8268   26.7965 H   0  0  0  0  0  0  0  0  0  0  0  0
    8.1151   -1.8109   21.3513 H   0  0  0  0  0  0  0  0  0  0  0  0
  1  3  1  0  0  0  0
  1  4  2  0  0  0  0
  2  5  1  0  0  0  0
  2  6  2  0  0  0  0
  3  7  2  0  0  0  0
  4  8  1  0  0  0  0
  5  9  2  0  0  0  0
  6 15  1  0  0  0  0
  7 16  1  0  0  0  0
  8 16  2  0  0  0  0
  9 17  1  0  0  0  0
 10 12  2  0  0  0  0
 10 18  1  0  0  0  0
 11 13  1  0  0  0  0
 11 18  2  0  0  0  0
 12 19  1  0  0  0  0
 13 19  2  0  0  0  0
 14 20  2  0  0  0  0
 14 26  1  0  0  0  0
 15 17  2  0  0  0  0
 15 20  1  0  0  0  0
 16 24  1  0  0  0  0
 17 26  1  0  0  0  0
 18 27  1  0  0  0  0
 19 29  1  0  0  0  0
 20 28  1  0  0  0  0
 21 25  1  0  0  0  0
 21 27  1  0  0  0  0
 21 30  2  0  0  0  0
 22 28  1  0  0  0  0
 22 29  1  0  0  0  0
 22 31  2  0  0  0  0
 23 25  1  0  0  0  0
 24 29  1  0  0  0  0
  1 32  1  0  0  0  0
  2 33  1  0  0  0  0
  3 34  1  0  0  0  0
  4 35  1  0  0  0  0
  5 36  1  0  0  0  0
  6 37  1  0  0  0  0
  7 38  1  0  0  0  0
  8 39  1  0  0  0  0
  9 40  1  0  0  0  0
 10 41  1  0  0  0  0
 11 42  1  0  0  0  0
 12 43  1  0  0  0  0
 13 44  1  0  0  0  0
 14 45  1  0  0  0  0
 23 46  1  0  0  0  0
 23 47  1  0  0  0  0
 23 48  1  0  0  0  0
 24 49  1  0  0  0  0
 24 50  1  0  0  0  0
 25 51  1  0  0  0  0
 25 52  1  0  0  0  0
 26 53  1  0  0  0  0
 27 54  1  0  0  0  0
 28 55  1  0  0  0  0
M  END
> <clash_score>
1.3333533976342378

> <docking_score>
-4.970728397369385

> <overlap_score>
0.9871498942375183

$$$$
BENZO_116_1
  -OEChem-08222022393D

 52 55  0     0  0  0  0  0  0999 V2000
    4.2970    1.6690   20.8430 C   0  0  0  0  0  0  0  0  0  0  0  0
    4.0980    2.1130   19.5350 C   0  0  0  0  0  0  0  0  0  0  0  0
    5.3360    0.8000   21.1530 C   0  0  0  0  0  0  0  0  0  0  0  0
    4.9400    1.7060   18.5060 C   0  0  0  0  0  0  0  0  0  0  0  0
    8.3310   -2.7170   25.3430 C   0  0  0  0  0  0  0  0  0  0  0  0
   10.2570   -3.5000   24.1350 C   0  0  0  0  0  0  0  0  0  0  0  0
    8.3510   -1.5420   24.6110 C   0  0  0  0  0  0  0  0  0  0  0  0
   10.2760   -2.3270   23.4020 C   0  0  0  0  0  0  0  0  0  0  0  0
   12.2675    1.0332   22.3812 C   0  0  0  0  0  0  0  0  0  0  0  0
    7.6830   -0.5170   18.7600 C   0  0  0  0  0  0  0  0  0  0  0  0
   13.6257    0.9906   22.6074 C   0  0  0  0  0  0  0  0  0  0  0  0
   12.3384    0.9467   24.7028 C   0  0  0  0  0  0  0  0  0  0  0  0
    6.1600    0.3870   20.1140 C   0  0  0  0  0  0  0  0  0  0  0  0
   11.5217    1.0079   23.5949 C   0  0  0  0  0  0  0  0  0  0  0  0
    5.9810    0.8330   18.8060 C   0  0  0  0  0  0  0  0  0  0  0  0
    9.2850   -3.7090   25.1090 C   0  0  0  0  0  0  0  0  0  0  0  0
    9.3300   -1.3350   23.6390 C   0  0  0  0  0  0  0  0  0  0  0  0
    7.2210   -0.4620   20.0350 C   0  0  0  0  0  0  0  0  0  0  0  0
    9.6834   -6.1686   25.4395 C   0  0  0  0  0  0  0  0  0  0  0  0
    8.9510    0.1280   21.6880 C   0  0  0  0  0  0  0  0  0  0  0  0
    8.0392   -7.2898   27.0032 C   0  0  0  0  0  0  0  0  0  0  0  0
   10.0220    1.0430   23.6570 C   0  0  0  0  0  0  0  0  0  0  0  0
    9.4852   -7.1872   26.5521 C   0  0  0  0  0  0  0  0  0  0  0  0
    6.9440    0.2550   18.0100 N   0  0  0  0  0  0  0  0  0  0  0  0
    9.2630   -4.8902   25.8410 N   0  0  0  0  0  0  0  0  0  0  0  0
    8.0810   -0.9750   21.0820 N   0  0  0  0  0  0  0  0  0  0  0  0
    9.4200   -0.0840   22.9530 N   0  0  0  0  0  0  0  0  0  0  0  0
   10.1549   -6.4783   24.3504 O   0  0  0  0  0  0  0  0  0  0  0  0
    9.1870    1.1500   21.0630 O   0  0  0  0  0  0  0  0  0  0  0  0
   13.9969    0.9203   24.2776 S   0  0  0  0  0  0  0  0  0  0  0  0
    3.6256    2.0106   21.6303 H   0  0  0  0  0  0  0  0  0  0  0  0
    3.2724    2.7868   19.3204 H   0  0  0  0  0  0  0  0  0  0  0  0
    5.4858    0.4664   22.1692 H   0  0  0  0  0  0  0  0  0  0  0  0
    4.7836    2.0664   17.4848 H   0  0  0  0  0  0  0  0  0  0  0  0
    7.5639   -2.8621   26.1045 H   0  0  0  0  0  0  0  0  0  0  0  0
   11.0141   -4.2644   23.9422 H   0  0  0  0  0  0  0  0  0  0  0  0
    7.5950   -0.7788   24.8007 H   0  0  0  0  0  0  0  0  0  0  0  0
   11.0408   -2.1861   22.6359 H   0  0  0  0  0  0  0  0  0  0  0  0
   11.8338    1.0798   21.3902 H   0  0  0  0  0  0  0  0  0  0  0  0
    8.5274   -1.0858   18.3384 H   0  0  0  0  0  0  0  0  0  0  0  0
   14.4176    0.9966   21.8719 H   0  0  0  0  0  0  0  0  0  0  0  0
   12.0446    0.9149   25.7428 H   0  0  0  0  0  0  0  0  0  0  0  0
    7.6716   -6.3251   27.3680 H   0  0  0  0  0  0  0  0  0  0  0  0
    7.9434   -8.0204   27.8123 H   0  0  0  0  0  0  0  0  0  0  0  0
    7.3917   -7.6058   26.1786 H   0  0  0  0  0  0  0  0  0  0  0  0
    9.6778    1.0140   24.6966 H   0  0  0  0  0  0  0  0  0  0  0  0
    9.6316    1.9637   23.2107 H   0  0  0  0  0  0  0  0  0  0  0  0
    9.8262   -8.1650   26.1929 H   0  0  0  0  0  0  0  0  0  0  0  0
   10.1140   -6.8997   27.4027 H   0  0  0  0  0  0  0  0  0  0  0  0
    7.0325    0.4238   17.0175 H   0  0  0  0  0  0  0  0  0  0  0  0
    8.8929   -4.8268   26.7965 H   0  0  0  0  0  0  0  0  0  0  0  0
    8.1151   -1.8109   21.3513 H   0  0  0  0  0  0  0  0  0  0  0  0
  1  2  1  0  0  0  0
  1  3  2  0  0  0  0
  2  4  2  0  0  0  0
  3 13  1  0  0  0  0
  4 15  1  0  0  0  0
  5  7  2  0  0  0  0
  5 16  1  0  0  0  0
  6  8  1  0  0  0  0
  6 16  2  0  0  0  0
  7 17  1  0  0  0  0
  8 17  2  0  0  0  0
  9 11  2  0  0  0  0
  9 14  1  0  0  0  0
 10 18  2  0  0  0  0
 10 24  1  0  0  0  0
 11 30  1  0  0  0  0
 12 14  2  0  0  0  0
 12 30  1  0  0  0  0
 13 15  2  0  0  0  0
 13 18  1  0  0  0  0
 14 22  1  0  0  0  0
 15 24  1  0  0  0  0
 16 25  1  0  0  0  0
 17 27  1  0  0  0  0
 18 26  1  0  0  0  0
 19 23  1  0  0  0  0
 19 25  1  0  0  0  0
 19 28  2  0  0  0  0
 20 26  1  0  0  0  0
 20 27  1  0  0  0  0
 20 29  2  0  0  0  0
 21 23  1  0  0  0  0
 22 27  1  0  0  0  0
  1 31  1  0  0  0  0
  2 32  1  0  0  0  0
  3 33  1  0  0  0  0
  4 34  1  0  0  0  0
  5 35  1  0  0  0  0
  6 36  1  0  0  0  0
  7 37  1  0  0  0  0
  8 38  1  0  0  0  0
  9 39  1  0  0  0  0
 10 40  1  0  0  0  0
 11 41  1  0  0  0  0
 12 42  1  0  0  0  0
 21 43  1  0  0  0  0
 21 44  1  0  0  0  0
 21 45  1  0  0  0  0
 22 46  1  0  0  0  0
 22 47  1  0  0  0  0
 23 48  1  0  0  0  0
 23 49  1  0  0  0  0
 24 50  1  0  0  0  0
 25 51  1  0  0  0  0
 26 52  1  0  0  0  0
M  END
> <clash_score>
1.3333533976342378

> <docking_score>
-5.216925621032715

> <overlap_score>
0.9613770246505737

$$$$
BENZO_121_1
  -OEChem-08222022393D

 60 64  0     0  0  0  0  0  0999 V2000
   14.3082    0.9431   23.4783 C   0  0  0  0  0  0  0  0  0  0  0  0
    4.2970    1.6690   20.8430 C   0  0  0  0  0  0  0  0  0  0  0  0
   13.6391    0.3091   24.5251 C   0  0  0  0  0  0  0  0  0  0  0  0
   13.5841    1.6096   22.4898 C   0  0  0  0  0  0  0  0  0  0  0  0
    4.0980    2.1130   19.5350 C   0  0  0  0  0  0  0  0  0  0  0  0
    5.3360    0.8000   21.1530 C   0  0  0  0  0  0  0  0  0  0  0  0
   12.2459    0.3415   24.5835 C   0  0  0  0  0  0  0  0  0  0  0  0
   12.1908    1.6420   22.5481 C   0  0  0  0  0  0  0  0  0  0  0  0
    4.9400    1.7060   18.5060 C   0  0  0  0  0  0  0  0  0  0  0  0
    8.3310   -2.7170   25.3430 C   0  0  0  0  0  0  0  0  0  0  0  0
   10.2570   -3.5000   24.1350 C   0  0  0  0  0  0  0  0  0  0  0  0
    8.3510   -1.5420   24.6110 C   0  0  0  0  0  0  0  0  0  0  0  0
   10.2760   -2.3270   23.4020 C   0  0  0  0  0  0  0  0  0  0  0  0
    7.6830   -0.5170   18.7600 C   0  0  0  0  0  0  0  0  0  0  0  0
    6.1600    0.3870   20.1140 C   0  0  0  0  0  0  0  0  0  0  0  0
   11.5217    1.0079   23.5949 C   0  0  0  0  0  0  0  0  0  0  0  0
    5.9810    0.8330   18.8060 C   0  0  0  0  0  0  0  0  0  0  0  0
    9.2850   -3.7090   25.1090 C   0  0  0  0  0  0  0  0  0  0  0  0
    9.3300   -1.3350   23.6390 C   0  0  0  0  0  0  0  0  0  0  0  0
    7.2210   -0.4620   20.0350 C   0  0  0  0  0  0  0  0  0  0  0  0
    8.9510    0.1280   21.6880 C   0  0  0  0  0  0  0  0  0  0  0  0
    7.3162   -6.8835   26.5210 C   0  0  0  0  0  0  0  0  0  0  0  0
    7.3507   -5.5245   27.2240 C   0  0  0  0  0  0  0  0  0  0  0  0
    7.9375   -6.8069   25.1245 C   0  0  0  0  0  0  0  0  0  0  0  0
    8.7638   -4.9418   27.2163 C   0  0  0  0  0  0  0  0  0  0  0  0
    9.3378   -6.1874   25.1659 C   0  0  0  0  0  0  0  0  0  0  0  0
   10.0220    1.0430   23.6570 C   0  0  0  0  0  0  0  0  0  0  0  0
    6.9440    0.2550   18.0100 N   0  0  0  0  0  0  0  0  0  0  0  0
    9.2639   -4.8860   25.8399 N   0  0  0  0  0  0  0  0  0  0  0  0
    8.0810   -0.9750   21.0820 N   0  0  0  0  0  0  0  0  0  0  0  0
    9.4200   -0.0840   22.9530 N   0  0  0  0  0  0  0  0  0  0  0  0
    9.1870    1.1500   21.0630 O   0  0  0  0  0  0  0  0  0  0  0  0
   15.3932    0.9189   23.4337 H   0  0  0  0  0  0  0  0  0  0  0  0
    3.6256    2.0106   21.6303 H   0  0  0  0  0  0  0  0  0  0  0  0
   14.2029   -0.2090   25.2955 H   0  0  0  0  0  0  0  0  0  0  0  0
   14.1048    2.1043   21.6752 H   0  0  0  0  0  0  0  0  0  0  0  0
    3.2724    2.7868   19.3204 H   0  0  0  0  0  0  0  0  0  0  0  0
    5.4858    0.4664   22.1692 H   0  0  0  0  0  0  0  0  0  0  0  0
   11.7330   -0.1555   25.4027 H   0  0  0  0  0  0  0  0  0  0  0  0
   11.6349    2.1636   21.7735 H   0  0  0  0  0  0  0  0  0  0  0  0
    4.7836    2.0664   17.4848 H   0  0  0  0  0  0  0  0  0  0  0  0
    7.5647   -2.8621   26.1053 H   0  0  0  0  0  0  0  0  0  0  0  0
   11.0144   -4.2642   23.9425 H   0  0  0  0  0  0  0  0  0  0  0  0
    7.5958   -0.7779   24.8006 H   0  0  0  0  0  0  0  0  0  0  0  0
   11.0406   -2.1848   22.6356 H   0  0  0  0  0  0  0  0  0  0  0  0
    8.5274   -1.0858   18.3384 H   0  0  0  0  0  0  0  0  0  0  0  0
    7.8578   -7.6261   27.1266 H   0  0  0  0  0  0  0  0  0  0  0  0
    6.2773   -7.2358   26.4459 H   0  0  0  0  0  0  0  0  0  0  0  0
    6.6663   -4.8351   26.7223 H   0  0  0  0  0  0  0  0  0  0  0  0
    7.0044   -5.6368   28.2534 H   0  0  0  0  0  0  0  0  0  0  0  0
    7.9946   -7.8119   24.6937 H   0  0  0  0  0  0  0  0  0  0  0  0
    7.2929   -6.2123   24.4668 H   0  0  0  0  0  0  0  0  0  0  0  0
    8.7343   -3.9408   27.6542 H   0  0  0  0  0  0  0  0  0  0  0  0
    9.4243   -5.5632   27.8278 H   0  0  0  0  0  0  0  0  0  0  0  0
   10.0200   -6.8490   25.7011 H   0  0  0  0  0  0  0  0  0  0  0  0
    9.6984   -6.0694   24.1436 H   0  0  0  0  0  0  0  0  0  0  0  0
    9.6778    1.0140   24.6966 H   0  0  0  0  0  0  0  0  0  0  0  0
    9.6316    1.9637   23.2107 H   0  0  0  0  0  0  0  0  0  0  0  0
    7.0325    0.4238   17.0175 H   0  0  0  0  0  0  0  0  0  0  0  0
    8.1334   -1.7992   21.3673 H   0  0  0  0  0  0  0  0  0  0  0  0
  1  3  1  0  0  0  0
  1  4  2  0  0  0  0
  2  5  1  0  0  0  0
  2  6  2  0  0  0  0
  3  7  2  0  0  0  0
  4  8  1  0  0  0  0
  5  9  2  0  0  0  0
  6 15  1  0  0  0  0
  7 16  1  0  0  0  0
  8 16  2  0  0  0  0
  9 17  1  0  0  0  0
 10 12  2  0  0  0  0
 10 18  1  0  0  0  0
 11 13  1  0  0  0  0
 11 18  2  0  0  0  0
 12 19  1  0  0  0  0
 13 19  2  0  0  0  0
 14 20  2  0  0  0  0
 14 28  1  0  0  0  0
 15 17  2  0  0  0  0
 15 20  1  0  0  0  0
 16 27  1  0  0  0  0
 17 28  1  0  0  0  0
 18 29  1  0  0  0  0
 19 31  1  0  0  0  0
 20 30  1  0  0  0  0
 21 30  1  0  0  0  0
 21 31  1  0  0  0  0
 21 32  2  0  0  0  0
 22 23  1  0  0  0  0
 22 24  1  0  0  0  0
 23 25  1  0  0  0  0
 24 26  1  0  0  0  0
 25 29  1  0  0  0  0
 26 29  1  0  0  0  0
 27 31  1  0  0  0  0
  1 33  1  0  0  0  0
  2 34  1  0  0  0  0
  3 35  1  0  0  0  0
  4 36  1  0  0  0  0
  5 37  1  0  0  0  0
  6 38  1  0  0  0  0
  7 39  1  0  0  0  0
  8 40  1  0  0  0  0
  9 41  1  0  0  0  0
 10 42  1  0  0  0  0
 11 43  1  0  0  0  0
 12 44  1  0  0  0  0
 13 45  1  0  0  0  0
 14 46  1  0  0  0  0
 22 47  1  0  0  0  0
 22 48  1  0  0  0  0
 23 49  1  0  0  0  0
 23 50  1  0  0  0  0
 24 51  1  0  0  0  0
 24 52  1  0  0  0  0
 25 53  1  0  0  0  0
 25 54  1  0  0  0  0
 26 55  1  0  0  0  0
 26 56  1  0  0  0  0
 27 57  1  0  0  0  0
 27 58  1  0  0  0  0
 28 59  1  0  0  0  0
 30 60  1  0  0  0  0
M  END
> <clash_score>
0

> <docking_score>
-7.2034125328063965

> <overlap_score>
1.0155829191207886

$$$$
BENZO_118_1
  -OEChem-08222022393D

 55 58  0     0  0  0  0  0  0999 V2000
    4.2970    1.6690   20.8430 C   0  0  0  0  0  0  0  0  0  0  0  0
    4.0980    2.1130   19.5350 C   0  0  0  0  0  0  0  0  0  0  0  0
   13.5977    1.8457   22.6865 C   0  0  0  0  0  0  0  0  0  0  0  0
    5.3360    0.8000   21.1530 C   0  0  0  0  0  0  0  0  0  0  0  0
   12.2044    1.8769   22.7438 C   0  0  0  0  0  0  0  0  0  0  0  0
    4.9400    1.7060   18.5060 C   0  0  0  0  0  0  0  0  0  0  0  0
    8.3310   -2.7170   25.3430 C   0  0  0  0  0  0  0  0  0  0  0  0
   10.2570   -3.5000   24.1350 C   0  0  0  0  0  0  0  0  0  0  0  0
    8.3510   -1.5420   24.6110 C   0  0  0  0  0  0  0  0  0  0  0  0
   10.2760   -2.3270   23.4020 C   0  0  0  0  0  0  0  0  0  0  0  0
   14.3084    0.9454   23.4803 C   0  0  0  0  0  0  0  0  0  0  0  0
   12.2323    0.1076   24.3888 C   0  0  0  0  0  0  0  0  0  0  0  0
    7.6830   -0.5170   18.7600 C   0  0  0  0  0  0  0  0  0  0  0  0
    6.1600    0.3870   20.1140 C   0  0  0  0  0  0  0  0  0  0  0  0
   11.5217    1.0079   23.5949 C   0  0  0  0  0  0  0  0  0  0  0  0
    5.9810    0.8330   18.8060 C   0  0  0  0  0  0  0  0  0  0  0  0
    9.2850   -3.7090   25.1090 C   0  0  0  0  0  0  0  0  0  0  0  0
    9.3300   -1.3350   23.6390 C   0  0  0  0  0  0  0  0  0  0  0  0
    7.2210   -0.4620   20.0350 C   0  0  0  0  0  0  0  0  0  0  0  0
   13.6257    0.0764   24.3314 C   0  0  0  0  0  0  0  0  0  0  0  0
    9.6834   -6.1686   25.4395 C   0  0  0  0  0  0  0  0  0  0  0  0
    8.9510    0.1280   21.6880 C   0  0  0  0  0  0  0  0  0  0  0  0
    8.0392   -7.2898   27.0032 C   0  0  0  0  0  0  0  0  0  0  0  0
   10.0220    1.0430   23.6570 C   0  0  0  0  0  0  0  0  0  0  0  0
    9.4852   -7.1872   26.5521 C   0  0  0  0  0  0  0  0  0  0  0  0
    6.9440    0.2550   18.0100 N   0  0  0  0  0  0  0  0  0  0  0  0
    9.2630   -4.8902   25.8410 N   0  0  0  0  0  0  0  0  0  0  0  0
    8.0810   -0.9750   21.0820 N   0  0  0  0  0  0  0  0  0  0  0  0
    9.4200   -0.0840   22.9530 N   0  0  0  0  0  0  0  0  0  0  0  0
   10.1549   -6.4783   24.3504 O   0  0  0  0  0  0  0  0  0  0  0  0
    9.1870    1.1500   21.0630 O   0  0  0  0  0  0  0  0  0  0  0  0
   14.5031   -1.0334   25.3114 Cl  0  0  0  0  0  0  0  0  0  0  0  0
    3.6256    2.0106   21.6303 H   0  0  0  0  0  0  0  0  0  0  0  0
    3.2724    2.7868   19.3204 H   0  0  0  0  0  0  0  0  0  0  0  0
   14.1289    2.5226   22.0237 H   0  0  0  0  0  0  0  0  0  0  0  0
    5.4858    0.4664   22.1692 H   0  0  0  0  0  0  0  0  0  0  0  0
   11.6588    2.5818   22.1218 H   0  0  0  0  0  0  0  0  0  0  0  0
    4.7836    2.0664   17.4848 H   0  0  0  0  0  0  0  0  0  0  0  0
    7.5639   -2.8621   26.1045 H   0  0  0  0  0  0  0  0  0  0  0  0
   11.0141   -4.2644   23.9422 H   0  0  0  0  0  0  0  0  0  0  0  0
    7.5950   -0.7788   24.8007 H   0  0  0  0  0  0  0  0  0  0  0  0
   11.0408   -2.1861   22.6359 H   0  0  0  0  0  0  0  0  0  0  0  0
   15.3941    0.9323   23.4255 H   0  0  0  0  0  0  0  0  0  0  0  0
   11.6954   -0.5682   25.0504 H   0  0  0  0  0  0  0  0  0  0  0  0
    8.5274   -1.0858   18.3384 H   0  0  0  0  0  0  0  0  0  0  0  0
    7.6716   -6.3251   27.3680 H   0  0  0  0  0  0  0  0  0  0  0  0
    7.9434   -8.0204   27.8123 H   0  0  0  0  0  0  0  0  0  0  0  0
    7.3917   -7.6058   26.1786 H   0  0  0  0  0  0  0  0  0  0  0  0
    9.6778    1.0140   24.6966 H   0  0  0  0  0  0  0  0  0  0  0  0
    9.6316    1.9637   23.2107 H   0  0  0  0  0  0  0  0  0  0  0  0
    9.8262   -8.1650   26.1929 H   0  0  0  0  0  0  0  0  0  0  0  0
   10.1140   -6.8997   27.4027 H   0  0  0  0  0  0  0  0  0  0  0  0
    7.0325    0.4238   17.0175 H   0  0  0  0  0  0  0  0  0  0  0  0
    8.8929   -4.8268   26.7965 H   0  0  0  0  0  0  0  0  0  0  0  0
    8.1151   -1.8109   21.3513 H   0  0  0  0  0  0  0  0  0  0  0  0
  1  2  1  0  0  0  0
  1  4  2  0  0  0  0
  2  6  2  0  0  0  0
  3  5  2  0  0  0  0
  3 11  1  0  0  0  0
  4 14  1  0  0  0  0
  5 15  1  0  0  0  0
  6 16  1  0  0  0  0
  7  9  2  0  0  0  0
  7 17  1  0  0  0  0
  8 10  1  0  0  0  0
  8 17  2  0  0  0  0
  9 18  1  0  0  0  0
 10 18  2  0  0  0  0
 11 20  2  0  0  0  0
 12 15  2  0  0  0  0
 12 20  1  0  0  0  0
 13 19  2  0  0  0  0
 13 26  1  0  0  0  0
 14 16  2  0  0  0  0
 14 19  1  0  0  0  0
 15 24  1  0  0  0  0
 16 26  1  0  0  0  0
 17 27  1  0  0  0  0
 18 29  1  0  0  0  0
 19 28  1  0  0  0  0
 20 32  1  0  0  0  0
 21 25  1  0  0  0  0
 21 27  1  0  0  0  0
 21 30  2  0  0  0  0
 22 28  1  0  0  0  0
 22 29  1  0  0  0  0
 22 31  2  0  0  0  0
 23 25  1  0  0  0  0
 24 29  1  0  0  0  0
  1 33  1  0  0  0  0
  2 34  1  0  0  0  0
  3 35  1  0  0  0  0
  4 36  1  0  0  0  0
  5 37  1  0  0  0  0
  6 38  1  0  0  0  0
  7 39  1  0  0  0  0
  8 40  1  0  0  0  0
  9 41  1  0  0  0  0
 10 42  1  0  0  0  0
 11 43  1  0  0  0  0
 12 44  1  0  0  0  0
 13 45  1  0  0  0  0
 23 46  1  0  0  0  0
 23 47  1  0  0  0  0
 23 48  1  0  0  0  0
 24 49  1  0  0  0  0
 24 50  1  0  0  0  0
 25 51  1  0  0  0  0
 25 52  1  0  0  0  0
 26 53  1  0  0  0  0
 27 54  1  0  0  0  0
 28 55  1  0  0  0  0
M  END
> <clash_score>
2.099599604371093

> <docking_score>
-4.152636528015137

> <overlap_score>
0.99235999584198

$$$$
BENZO_119_1
  -OEChem-08222022393D

 55 58  0     0  0  0  0  0  0999 V2000
    4.2970    1.6690   20.8430 C   0  0  0  0  0  0  0  0  0  0  0  0
    4.0980    2.1130   19.5350 C   0  0  0  0  0  0  0  0  0  0  0  0
    5.3360    0.8000   21.1530 C   0  0  0  0  0  0  0  0  0  0  0  0
    4.9400    1.7060   18.5060 C   0  0  0  0  0  0  0  0  0  0  0  0
    8.3310   -2.7170   25.3430 C   0  0  0  0  0  0  0  0  0  0  0  0
   10.2570   -3.5000   24.1350 C   0  0  0  0  0  0  0  0  0  0  0  0
    8.3510   -1.5420   24.6110 C   0  0  0  0  0  0  0  0  0  0  0  0
   10.2760   -2.3270   23.4020 C   0  0  0  0  0  0  0  0  0  0  0  0
   12.4295    0.9466   24.6692 C   0  0  0  0  0  0  0  0  0  0  0  0
   12.3161    1.0259   22.4747 C   0  0  0  0  0  0  0  0  0  0  0  0
    7.6830   -0.5170   18.7600 C   0  0  0  0  0  0  0  0  0  0  0  0
    6.1600    0.3870   20.1140 C   0  0  0  0  0  0  0  0  0  0  0  0
   11.5217    1.0079   23.5949 C   0  0  0  0  0  0  0  0  0  0  0  0
    5.9810    0.8330   18.8060 C   0  0  0  0  0  0  0  0  0  0  0  0
    9.2850   -3.7090   25.1090 C   0  0  0  0  0  0  0  0  0  0  0  0
    9.3300   -1.3350   23.6390 C   0  0  0  0  0  0  0  0  0  0  0  0
    7.2210   -0.4620   20.0350 C   0  0  0  0  0  0  0  0  0  0  0  0
    9.6834   -6.1686   25.4395 C   0  0  0  0  0  0  0  0  0  0  0  0
    8.9510    0.1280   21.6880 C   0  0  0  0  0  0  0  0  0  0  0  0
    8.0392   -7.2898   27.0032 C   0  0  0  0  0  0  0  0  0  0  0  0
   14.7958    0.9722   22.1181 C   0  0  0  0  0  0  0  0  0  0  0  0
   10.0220    1.0430   23.6570 C   0  0  0  0  0  0  0  0  0  0  0  0
    9.4852   -7.1872   26.5521 C   0  0  0  0  0  0  0  0  0  0  0  0
   13.7032    0.9267   24.2674 N   0  0  0  0  0  0  0  0  0  0  0  0
    6.9440    0.2550   18.0100 N   0  0  0  0  0  0  0  0  0  0  0  0
   13.6014    0.9758   22.9283 N   0  0  0  0  0  0  0  0  0  0  0  0
    9.2630   -4.8902   25.8410 N   0  0  0  0  0  0  0  0  0  0  0  0
    8.0810   -0.9750   21.0820 N   0  0  0  0  0  0  0  0  0  0  0  0
    9.4200   -0.0840   22.9530 N   0  0  0  0  0  0  0  0  0  0  0  0
   10.1549   -6.4783   24.3504 O   0  0  0  0  0  0  0  0  0  0  0  0
    9.1870    1.1500   21.0630 O   0  0  0  0  0  0  0  0  0  0  0  0
    3.6256    2.0106   21.6303 H   0  0  0  0  0  0  0  0  0  0  0  0
    3.2724    2.7868   19.3204 H   0  0  0  0  0  0  0  0  0  0  0  0
    5.4858    0.4664   22.1692 H   0  0  0  0  0  0  0  0  0  0  0  0
    4.7836    2.0664   17.4848 H   0  0  0  0  0  0  0  0  0  0  0  0
    7.5639   -2.8621   26.1045 H   0  0  0  0  0  0  0  0  0  0  0  0
   11.0141   -4.2644   23.9422 H   0  0  0  0  0  0  0  0  0  0  0  0
    7.5950   -0.7788   24.8007 H   0  0  0  0  0  0  0  0  0  0  0  0
   11.0408   -2.1861   22.6359 H   0  0  0  0  0  0  0  0  0  0  0  0
   12.2184    0.9145   25.7287 H   0  0  0  0  0  0  0  0  0  0  0  0
   12.0821    1.0677   21.4195 H   0  0  0  0  0  0  0  0  0  0  0  0
    8.5274   -1.0858   18.3384 H   0  0  0  0  0  0  0  0  0  0  0  0
    7.6716   -6.3251   27.3680 H   0  0  0  0  0  0  0  0  0  0  0  0
    7.9434   -8.0204   27.8123 H   0  0  0  0  0  0  0  0  0  0  0  0
    7.3917   -7.6058   26.1786 H   0  0  0  0  0  0  0  0  0  0  0  0
   15.1026    2.0102   21.9649 H   0  0  0  0  0  0  0  0  0  0  0  0
   15.5826    0.4128   22.6318 H   0  0  0  0  0  0  0  0  0  0  0  0
   14.5811    0.4906   21.1600 H   0  0  0  0  0  0  0  0  0  0  0  0
    9.6778    1.0140   24.6966 H   0  0  0  0  0  0  0  0  0  0  0  0
    9.6316    1.9637   23.2107 H   0  0  0  0  0  0  0  0  0  0  0  0
    9.8262   -8.1650   26.1929 H   0  0  0  0  0  0  0  0  0  0  0  0
   10.1140   -6.8997   27.4027 H   0  0  0  0  0  0  0  0  0  0  0  0
    7.0325    0.4238   17.0175 H   0  0  0  0  0  0  0  0  0  0  0  0
    8.8929   -4.8268   26.7965 H   0  0  0  0  0  0  0  0  0  0  0  0
    8.1151   -1.8109   21.3513 H   0  0  0  0  0  0  0  0  0  0  0  0
  1  2  1  0  0  0  0
  1  3  2  0  0  0  0
  2  4  2  0  0  0  0
  3 12  1  0  0  0  0
  4 14  1  0  0  0  0
  5  7  2  0  0  0  0
  5 15  1  0  0  0  0
  6  8  1  0  0  0  0
  6 15  2  0  0  0  0
  7 16  1  0  0  0  0
  8 16  2  0  0  0  0
  9 13  1  0  0  0  0
  9 24  2  0  0  0  0
 10 13  2  0  0  0  0
 10 26  1  0  0  0  0
 11 17  2  0  0  0  0
 11 25  1  0  0  0  0
 12 14  2  0  0  0  0
 12 17  1  0  0  0  0
 13 22  1  0  0  0  0
 14 25  1  0  0  0  0
 15 27  1  0  0  0  0
 16 29  1  0  0  0  0
 17 28  1  0  0  0  0
 18 23  1  0  0  0  0
 18 27  1  0  0  0  0
 18 30  2  0  0  0  0
 19 28  1  0  0  0  0
 19 29  1  0  0  0  0
 19 31  2  0  0  0  0
 20 23  1  0  0  0  0
 21 26  1  0  0  0  0
 22 29  1  0  0  0  0
 24 26  1  0  0  0  0
  1 32  1  0  0  0  0
  2 33  1  0  0  0  0
  3 34  1  0  0  0  0
  4 35  1  0  0  0  0
  5 36  1  0  0  0  0
  6 37  1  0  0  0  0
  7 38  1  0  0  0  0
  8 39  1  0  0  0  0
  9 40  1  0  0  0  0
 10 41  1  0  0  0  0
 11 42  1  0  0  0  0
 20 43  1  0  0  0  0
 20 44  1  0  0  0  0
 20 45  1  0  0  0  0
 21 46  1  0  0  0  0
 21 47  1  0  0  0  0
 21 48  1  0  0  0  0
 22 49  1  0  0  0  0
 22 50  1  0  0  0  0
 23 51  1  0  0  0  0
 23 52  1  0  0  0  0
 25 53  1  0  0  0  0
 27 54  1  0  0  0  0
 28 55  1  0  0  0  0
M  END
> <clash_score>
1.3333533976342378

> <docking_score>
-4.912780284881592

> <overlap_score>
0.977993369102478

$$$$
BENZO_120_1
  -OEChem-08222022393D

 57 61  0     0  0  0  0  0  0999 V2000
    4.2970    1.6690   20.8430 C   0  0  0  0  0  0  0  0  0  0  0  0
    4.0980    2.1130   19.5350 C   0  0  0  0  0  0  0  0  0  0  0  0
    5.3360    0.8000   21.1530 C   0  0  0  0  0  0  0  0  0  0  0  0
    4.9400    1.7060   18.5060 C   0  0  0  0  0  0  0  0  0  0  0  0
    8.3310   -2.7170   25.3430 C   0  0  0  0  0  0  0  0  0  0  0  0
   10.2570   -3.5000   24.1350 C   0  0  0  0  0  0  0  0  0  0  0  0
    8.3510   -1.5420   24.6110 C   0  0  0  0  0  0  0  0  0  0  0  0
   10.2760   -2.3270   23.4020 C   0  0  0  0  0  0  0  0  0  0  0  0
   12.2675    1.0332   22.3812 C   0  0  0  0  0  0  0  0  0  0  0  0
    7.6830   -0.5170   18.7600 C   0  0  0  0  0  0  0  0  0  0  0  0
   13.6257    0.9906   22.6074 C   0  0  0  0  0  0  0  0  0  0  0  0
   12.3384    0.9467   24.7028 C   0  0  0  0  0  0  0  0  0  0  0  0
    6.1600    0.3870   20.1140 C   0  0  0  0  0  0  0  0  0  0  0  0
   11.5217    1.0079   23.5949 C   0  0  0  0  0  0  0  0  0  0  0  0
    5.9810    0.8330   18.8060 C   0  0  0  0  0  0  0  0  0  0  0  0
    9.2850   -3.7090   25.1090 C   0  0  0  0  0  0  0  0  0  0  0  0
    9.3300   -1.3350   23.6390 C   0  0  0  0  0  0  0  0  0  0  0  0
    7.2210   -0.4620   20.0350 C   0  0  0  0  0  0  0  0  0  0  0  0
    8.9510    0.1280   21.6880 C   0  0  0  0  0  0  0  0  0  0  0  0
    7.3162   -6.8835   26.5210 C   0  0  0  0  0  0  0  0  0  0  0  0
    7.3507   -5.5245   27.2240 C   0  0  0  0  0  0  0  0  0  0  0  0
    7.9375   -6.8069   25.1245 C   0  0  0  0  0  0  0  0  0  0  0  0
    8.7638   -4.9418   27.2163 C   0  0  0  0  0  0  0  0  0  0  0  0
    9.3378   -6.1874   25.1659 C   0  0  0  0  0  0  0  0  0  0  0  0
   10.0220    1.0430   23.6570 C   0  0  0  0  0  0  0  0  0  0  0  0
    6.9440    0.2550   18.0100 N   0  0  0  0  0  0  0  0  0  0  0  0
    9.2639   -4.8860   25.8399 N   0  0  0  0  0  0  0  0  0  0  0  0
    8.0810   -0.9750   21.0820 N   0  0  0  0  0  0  0  0  0  0  0  0
    9.4200   -0.0840   22.9530 N   0  0  0  0  0  0  0  0  0  0  0  0
    9.1870    1.1500   21.0630 O   0  0  0  0  0  0  0  0  0  0  0  0
   13.9969    0.9203   24.2776 S   0  0  0  0  0  0  0  0  0  0  0  0
    3.6256    2.0106   21.6303 H   0  0  0  0  0  0  0  0  0  0  0  0
    3.2724    2.7868   19.3204 H   0  0  0  0  0  0  0  0  0  0  0  0
    5.4858    0.4664   22.1692 H   0  0  0  0  0  0  0  0  0  0  0  0
    4.7836    2.0664   17.4848 H   0  0  0  0  0  0  0  0  0  0  0  0
    7.5647   -2.8621   26.1053 H   0  0  0  0  0  0  0  0  0  0  0  0
   11.0144   -4.2642   23.9425 H   0  0  0  0  0  0  0  0  0  0  0  0
    7.5958   -0.7779   24.8006 H   0  0  0  0  0  0  0  0  0  0  0  0
   11.0406   -2.1848   22.6356 H   0  0  0  0  0  0  0  0  0  0  0  0
   11.8338    1.0798   21.3902 H   0  0  0  0  0  0  0  0  0  0  0  0
    8.5274   -1.0858   18.3384 H   0  0  0  0  0  0  0  0  0  0  0  0
   14.4176    0.9966   21.8719 H   0  0  0  0  0  0  0  0  0  0  0  0
   12.0446    0.9149   25.7428 H   0  0  0  0  0  0  0  0  0  0  0  0
    7.8578   -7.6261   27.1266 H   0  0  0  0  0  0  0  0  0  0  0  0
    6.2773   -7.2358   26.4459 H   0  0  0  0  0  0  0  0  0  0  0  0
    6.6663   -4.8351   26.7223 H   0  0  0  0  0  0  0  0  0  0  0  0
    7.0044   -5.6368   28.2534 H   0  0  0  0  0  0  0  0  0  0  0  0
    7.9946   -7.8119   24.6937 H   0  0  0  0  0  0  0  0  0  0  0  0
    7.2929   -6.2123   24.4668 H   0  0  0  0  0  0  0  0  0  0  0  0
    8.7343   -3.9408   27.6542 H   0  0  0  0  0  0  0  0  0  0  0  0
    9.4243   -5.5632   27.8278 H   0  0  0  0  0  0  0  0  0  0  0  0
   10.0200   -6.8490   25.7011 H   0  0  0  0  0  0  0  0  0  0  0  0
    9.6984   -6.0694   24.1436 H   0  0  0  0  0  0  0  0  0  0  0  0
    9.6778    1.0140   24.6966 H   0  0  0  0  0  0  0  0  0  0  0  0
    9.6316    1.9637   23.2107 H   0  0  0  0  0  0  0  0  0  0  0  0
    7.0325    0.4238   17.0175 H   0  0  0  0  0  0  0  0  0  0  0  0
    8.1334   -1.7992   21.3673 H   0  0  0  0  0  0  0  0  0  0  0  0
  1  2  1  0  0  0  0
  1  3  2  0  0  0  0
  2  4  2  0  0  0  0
  3 13  1  0  0  0  0
  4 15  1  0  0  0  0
  5  7  2  0  0  0  0
  5 16  1  0  0  0  0
  6  8  1  0  0  0  0
  6 16  2  0  0  0  0
  7 17  1  0  0  0  0
  8 17  2  0  0  0  0
  9 11  2  0  0  0  0
  9 14  1  0  0  0  0
 10 18  2  0  0  0  0
 10 26  1  0  0  0  0
 11 31  1  0  0  0  0
 12 14  2  0  0  0  0
 12 31  1  0  0  0  0
 13 15  2  0  0  0  0
 13 18  1  0  0  0  0
 14 25  1  0  0  0  0
 15 26  1  0  0  0  0
 16 27  1  0  0  0  0
 17 29  1  0  0  0  0
 18 28  1  0  0  0  0
 19 28  1  0  0  0  0
 19 29  1  0  0  0  0
 19 30  2  0  0  0  0
 20 21  1  0  0  0  0
 20 22  1  0  0  0  0
 21 23  1  0  0  0  0
 22 24  1  0  0  0  0
 23 27  1  0  0  0  0
 24 27  1  0  0  0  0
 25 29  1  0  0  0  0
  1 32  1  0  0  0  0
  2 33  1  0  0  0  0
  3 34  1  0  0  0  0
  4 35  1  0  0  0  0
  5 36  1  0  0  0  0
  6 37  1  0  0  0  0
  7 38  1  0  0  0  0
  8 39  1  0  0  0  0
  9 40  1  0  0  0  0
 10 41  1  0  0  0  0
 11 42  1  0  0  0  0
 12 43  1  0  0  0  0
 20 44  1  0  0  0  0
 20 45  1  0  0  0  0
 21 46  1  0  0  0  0
 21 47  1  0  0  0  0
 22 48  1  0  0  0  0
 22 49  1  0  0  0  0
 23 50  1  0  0  0  0
 23 51  1  0  0  0  0
 24 52  1  0  0  0  0
 24 53  1  0  0  0  0
 25 54  1  0  0  0  0
 25 55  1  0  0  0  0
 26 56  1  0  0  0  0
 28 57  1  0  0  0  0
M  END
> <clash_score>
0

> <docking_score>
-7.449612140655518

> <overlap_score>
0.9899338483810425

$$$$
BENZO_125_1
  -OEChem-08222022393D

 48 51  0     0  0  0  0  0  0999 V2000
   14.3082    0.9431   23.4783 C   0  0  0  0  0  0  0  0  0  0  0  0
    4.2970    1.6690   20.8430 C   0  0  0  0  0  0  0  0  0  0  0  0
   13.6391    0.3091   24.5251 C   0  0  0  0  0  0  0  0  0  0  0  0
   13.5841    1.6096   22.4898 C   0  0  0  0  0  0  0  0  0  0  0  0
    4.0980    2.1130   19.5350 C   0  0  0  0  0  0  0  0  0  0  0  0
    5.3360    0.8000   21.1530 C   0  0  0  0  0  0  0  0  0  0  0  0
   12.2459    0.3415   24.5835 C   0  0  0  0  0  0  0  0  0  0  0  0
   12.1908    1.6420   22.5481 C   0  0  0  0  0  0  0  0  0  0  0  0
    8.3310   -2.7170   25.3430 C   0  0  0  0  0  0  0  0  0  0  0  0
   10.2570   -3.5000   24.1350 C   0  0  0  0  0  0  0  0  0  0  0  0
    4.9400    1.7060   18.5060 C   0  0  0  0  0  0  0  0  0  0  0  0
    8.3510   -1.5420   24.6110 C   0  0  0  0  0  0  0  0  0  0  0  0
   10.2760   -2.3270   23.4020 C   0  0  0  0  0  0  0  0  0  0  0  0
    7.6830   -0.5170   18.7600 C   0  0  0  0  0  0  0  0  0  0  0  0
    6.1600    0.3870   20.1140 C   0  0  0  0  0  0  0  0  0  0  0  0
    9.2850   -3.7090   25.1090 C   0  0  0  0  0  0  0  0  0  0  0  0
   11.5217    1.0079   23.5949 C   0  0  0  0  0  0  0  0  0  0  0  0
    5.9810    0.8330   18.8060 C   0  0  0  0  0  0  0  0  0  0  0  0
    9.3300   -1.3350   23.6390 C   0  0  0  0  0  0  0  0  0  0  0  0
    7.2210   -0.4620   20.0350 C   0  0  0  0  0  0  0  0  0  0  0  0
    8.9510    0.1280   21.6880 C   0  0  0  0  0  0  0  0  0  0  0  0
    9.2610   -4.9721   25.8916 C   0  0  0  0  0  0  0  0  0  0  0  0
   10.0220    1.0430   23.6570 C   0  0  0  0  0  0  0  0  0  0  0  0
    6.9440    0.2550   18.0100 N   0  0  0  0  0  0  0  0  0  0  0  0
    8.0810   -0.9750   21.0820 N   0  0  0  0  0  0  0  0  0  0  0  0
    9.4200   -0.0840   22.9530 N   0  0  0  0  0  0  0  0  0  0  0  0
    9.1870    1.1500   21.0630 O   0  0  0  0  0  0  0  0  0  0  0  0
   15.3932    0.9189   23.4337 H   0  0  0  0  0  0  0  0  0  0  0  0
    3.6256    2.0106   21.6303 H   0  0  0  0  0  0  0  0  0  0  0  0
   14.2029   -0.2090   25.2955 H   0  0  0  0  0  0  0  0  0  0  0  0
   14.1048    2.1043   21.6752 H   0  0  0  0  0  0  0  0  0  0  0  0
    3.2724    2.7868   19.3204 H   0  0  0  0  0  0  0  0  0  0  0  0
    5.4858    0.4664   22.1692 H   0  0  0  0  0  0  0  0  0  0  0  0
   11.7330   -0.1555   25.4027 H   0  0  0  0  0  0  0  0  0  0  0  0
   11.6349    2.1636   21.7735 H   0  0  0  0  0  0  0  0  0  0  0  0
    7.5665   -2.8638   26.1066 H   0  0  0  0  0  0  0  0  0  0  0  0
   11.0137   -4.2652   23.9447 H   0  0  0  0  0  0  0  0  0  0  0  0
    4.7836    2.0664   17.4848 H   0  0  0  0  0  0  0  0  0  0  0  0
    7.5948   -0.7788   24.7997 H   0  0  0  0  0  0  0  0  0  0  0  0
   11.0411   -2.1856   22.6358 H   0  0  0  0  0  0  0  0  0  0  0  0
    8.5274   -1.0858   18.3384 H   0  0  0  0  0  0  0  0  0  0  0  0
    8.6398   -5.7223   25.3871 H   0  0  0  0  0  0  0  0  0  0  0  0
   10.2715   -5.3829   26.0145 H   0  0  0  0  0  0  0  0  0  0  0  0
    8.8596   -4.8092   26.9004 H   0  0  0  0  0  0  0  0  0  0  0  0
    9.6778    1.0140   24.6966 H   0  0  0  0  0  0  0  0  0  0  0  0
    9.6316    1.9637   23.2107 H   0  0  0  0  0  0  0  0  0  0  0  0
    7.0325    0.4238   17.0175 H   0  0  0  0  0  0  0  0  0  0  0  0
    8.1151   -1.8109   21.3513 H   0  0  0  0  0  0  0  0  0  0  0  0
  1  3  1  0  0  0  0
  1  4  2  0  0  0  0
  2  5  1  0  0  0  0
  2  6  2  0  0  0  0
  3  7  2  0  0  0  0
  4  8  1  0  0  0  0
  5 11  2  0  0  0  0
  6 15  1  0  0  0  0
  7 17  1  0  0  0  0
  8 17  2  0  0  0  0
  9 12  2  0  0  0  0
  9 16  1  0  0  0  0
 10 13  1  0  0  0  0
 10 16  2  0  0  0  0
 11 18  1  0  0  0  0
 12 19  1  0  0  0  0
 13 19  2  0  0  0  0
 14 20  2  0  0  0  0
 14 24  1  0  0  0  0
 15 18  2  0  0  0  0
 15 20  1  0  0  0  0
 16 22  1  0  0  0  0
 17 23  1  0  0  0  0
 18 24  1  0  0  0  0
 19 26  1  0  0  0  0
 20 25  1  0  0  0  0
 21 25  1  0  0  0  0
 21 26  1  0  0  0  0
 21 27  2  0  0  0  0
 23 26  1  0  0  0  0
  1 28  1  0  0  0  0
  2 29  1  0  0  0  0
  3 30  1  0  0  0  0
  4 31  1  0  0  0  0
  5 32  1  0  0  0  0
  6 33  1  0  0  0  0
  7 34  1  0  0  0  0
  8 35  1  0  0  0  0
  9 36  1  0  0  0  0
 10 37  1  0  0  0  0
 11 38  1  0  0  0  0
 12 39  1  0  0  0  0
 13 40  1  0  0  0  0
 14 41  1  0  0  0  0
 22 42  1  0  0  0  0
 22 43  1  0  0  0  0
 22 44  1  0  0  0  0
 23 45  1  0  0  0  0
 23 46  1  0  0  0  0
 24 47  1  0  0  0  0
 25 48  1  0  0  0  0
M  END
> <clash_score>
0

> <docking_score>
-8.161066055297852

> <overlap_score>
0.9717719554901123

$$$$
BENZO_124_1
  -OEChem-08222022393D

 45 48  0     0  0  0  0  0  0999 V2000
    4.2970    1.6690   20.8430 C   0  0  0  0  0  0  0  0  0  0  0  0
    4.0980    2.1130   19.5350 C   0  0  0  0  0  0  0  0  0  0  0  0
    5.3360    0.8000   21.1530 C   0  0  0  0  0  0  0  0  0  0  0  0
    8.3310   -2.7170   25.3430 C   0  0  0  0  0  0  0  0  0  0  0  0
   10.2570   -3.5000   24.1350 C   0  0  0  0  0  0  0  0  0  0  0  0
    4.9400    1.7060   18.5060 C   0  0  0  0  0  0  0  0  0  0  0  0
    8.3510   -1.5420   24.6110 C   0  0  0  0  0  0  0  0  0  0  0  0
   10.2760   -2.3270   23.4020 C   0  0  0  0  0  0  0  0  0  0  0  0
   12.2675    1.0332   22.3812 C   0  0  0  0  0  0  0  0  0  0  0  0
    7.6830   -0.5170   18.7600 C   0  0  0  0  0  0  0  0  0  0  0  0
   13.6257    0.9906   22.6074 C   0  0  0  0  0  0  0  0  0  0  0  0
   12.3384    0.9467   24.7028 C   0  0  0  0  0  0  0  0  0  0  0  0
    6.1600    0.3870   20.1140 C   0  0  0  0  0  0  0  0  0  0  0  0
    9.2850   -3.7090   25.1090 C   0  0  0  0  0  0  0  0  0  0  0  0
   11.5217    1.0079   23.5949 C   0  0  0  0  0  0  0  0  0  0  0  0
    5.9810    0.8330   18.8060 C   0  0  0  0  0  0  0  0  0  0  0  0
    9.3300   -1.3350   23.6390 C   0  0  0  0  0  0  0  0  0  0  0  0
    7.2210   -0.4620   20.0350 C   0  0  0  0  0  0  0  0  0  0  0  0
    8.9510    0.1280   21.6880 C   0  0  0  0  0  0  0  0  0  0  0  0
    9.2610   -4.9721   25.8916 C   0  0  0  0  0  0  0  0  0  0  0  0
   10.0220    1.0430   23.6570 C   0  0  0  0  0  0  0  0  0  0  0  0
    6.9440    0.2550   18.0100 N   0  0  0  0  0  0  0  0  0  0  0  0
    8.0810   -0.9750   21.0820 N   0  0  0  0  0  0  0  0  0  0  0  0
    9.4200   -0.0840   22.9530 N   0  0  0  0  0  0  0  0  0  0  0  0
    9.1870    1.1500   21.0630 O   0  0  0  0  0  0  0  0  0  0  0  0
   13.9969    0.9203   24.2776 S   0  0  0  0  0  0  0  0  0  0  0  0
    3.6256    2.0106   21.6303 H   0  0  0  0  0  0  0  0  0  0  0  0
    3.2724    2.7868   19.3204 H   0  0  0  0  0  0  0  0  0  0  0  0
    5.4858    0.4664   22.1692 H   0  0  0  0  0  0  0  0  0  0  0  0
    7.5665   -2.8638   26.1066 H   0  0  0  0  0  0  0  0  0  0  0  0
   11.0137   -4.2652   23.9447 H   0  0  0  0  0  0  0  0  0  0  0  0
    4.7836    2.0664   17.4848 H   0  0  0  0  0  0  0  0  0  0  0  0
    7.5948   -0.7788   24.7997 H   0  0  0  0  0  0  0  0  0  0  0  0
   11.0411   -2.1856   22.6358 H   0  0  0  0  0  0  0  0  0  0  0  0
   11.8338    1.0798   21.3902 H   0  0  0  0  0  0  0  0  0  0  0  0
    8.5274   -1.0858   18.3384 H   0  0  0  0  0  0  0  0  0  0  0  0
   14.4176    0.9966   21.8719 H   0  0  0  0  0  0  0  0  0  0  0  0
   12.0446    0.9149   25.7428 H   0  0  0  0  0  0  0  0  0  0  0  0
    8.6398   -5.7223   25.3871 H   0  0  0  0  0  0  0  0  0  0  0  0
   10.2715   -5.3829   26.0145 H   0  0  0  0  0  0  0  0  0  0  0  0
    8.8596   -4.8092   26.9004 H   0  0  0  0  0  0  0  0  0  0  0  0
    9.6778    1.0140   24.6966 H   0  0  0  0  0  0  0  0  0  0  0  0
    9.6316    1.9637   23.2107 H   0  0  0  0  0  0  0  0  0  0  0  0
    7.0325    0.4238   17.0175 H   0  0  0  0  0  0  0  0  0  0  0  0
    8.1151   -1.8109   21.3513 H   0  0  0  0  0  0  0  0  0  0  0  0
  1  2  1  0  0  0  0
  1  3  2  0  0  0  0
  2  6  2  0  0  0  0
  3 13  1  0  0  0  0
  4  7  2  0  0  0  0
  4 14  1  0  0  0  0
  5  8  1  0  0  0  0
  5 14  2  0  0  0  0
  6 16  1  0  0  0  0
  7 17  1  0  0  0  0
  8 17  2  0  0  0  0
  9 11  2  0  0  0  0
  9 15  1  0  0  0  0
 10 18  2  0  0  0  0
 10 22  1  0  0  0  0
 11 26  1  0  0  0  0
 12 15  2  0  0  0  0
 12 26  1  0  0  0  0
 13 16  2  0  0  0  0
 13 18  1  0  0  0  0
 14 20  1  0  0  0  0
 15 21  1  0  0  0  0
 16 22  1  0  0  0  0
 17 24  1  0  0  0  0
 18 23  1  0  0  0  0
 19 23  1  0  0  0  0
 19 24  1  0  0  0  0
 19 25  2  0  0  0  0
 21 24  1  0  0  0  0
  1 27  1  0  0  0  0
  2 28  1  0  0  0  0
  3 29  1  0  0  0  0
  4 30  1  0  0  0  0
  5 31  1  0  0  0  0
  6 32  1  0  0  0  0
  7 33  1  0  0  0  0
  8 34  1  0  0  0  0
  9 35  1  0  0  0  0
 10 36  1  0  0  0  0
 11 37  1  0  0  0  0
 12 38  1  0  0  0  0
 20 39  1  0  0  0  0
 20 40  1  0  0  0  0
 20 41  1  0  0  0  0
 21 42  1  0  0  0  0
 21 43  1  0  0  0  0
 22 44  1  0  0  0  0
 23 45  1  0  0  0  0
M  END
> <clash_score>
0

> <docking_score>
-8.407262802124023

> <overlap_score>
0.9457806348800659

$$$$
BENZO_122_1
  -OEChem-08222022393D

 60 64  0     0  0  0  0  0  0999 V2000
    4.2970    1.6690   20.8430 C   0  0  0  0  0  0  0  0  0  0  0  0
    4.0980    2.1130   19.5350 C   0  0  0  0  0  0  0  0  0  0  0  0
   13.5977    1.8457   22.6865 C   0  0  0  0  0  0  0  0  0  0  0  0
    5.3360    0.8000   21.1530 C   0  0  0  0  0  0  0  0  0  0  0  0
   12.2044    1.8769   22.7438 C   0  0  0  0  0  0  0  0  0  0  0  0
    4.9400    1.7060   18.5060 C   0  0  0  0  0  0  0  0  0  0  0  0
    8.3310   -2.7170   25.3430 C   0  0  0  0  0  0  0  0  0  0  0  0
   10.2570   -3.5000   24.1350 C   0  0  0  0  0  0  0  0  0  0  0  0
    8.3510   -1.5420   24.6110 C   0  0  0  0  0  0  0  0  0  0  0  0
   10.2760   -2.3270   23.4020 C   0  0  0  0  0  0  0  0  0  0  0  0
   14.3084    0.9454   23.4803 C   0  0  0  0  0  0  0  0  0  0  0  0
   12.2323    0.1076   24.3888 C   0  0  0  0  0  0  0  0  0  0  0  0
    7.6830   -0.5170   18.7600 C   0  0  0  0  0  0  0  0  0  0  0  0
    6.1600    0.3870   20.1140 C   0  0  0  0  0  0  0  0  0  0  0  0
   11.5217    1.0079   23.5949 C   0  0  0  0  0  0  0  0  0  0  0  0
    5.9810    0.8330   18.8060 C   0  0  0  0  0  0  0  0  0  0  0  0
    9.2850   -3.7090   25.1090 C   0  0  0  0  0  0  0  0  0  0  0  0
    9.3300   -1.3350   23.6390 C   0  0  0  0  0  0  0  0  0  0  0  0
    7.2210   -0.4620   20.0350 C   0  0  0  0  0  0  0  0  0  0  0  0
   13.6257    0.0764   24.3314 C   0  0  0  0  0  0  0  0  0  0  0  0
    8.9510    0.1280   21.6880 C   0  0  0  0  0  0  0  0  0  0  0  0
    7.3162   -6.8835   26.5210 C   0  0  0  0  0  0  0  0  0  0  0  0
    7.3507   -5.5245   27.2240 C   0  0  0  0  0  0  0  0  0  0  0  0
    7.9375   -6.8069   25.1245 C   0  0  0  0  0  0  0  0  0  0  0  0
    8.7638   -4.9418   27.2163 C   0  0  0  0  0  0  0  0  0  0  0  0
    9.3378   -6.1874   25.1659 C   0  0  0  0  0  0  0  0  0  0  0  0
   10.0220    1.0430   23.6570 C   0  0  0  0  0  0  0  0  0  0  0  0
    6.9440    0.2550   18.0100 N   0  0  0  0  0  0  0  0  0  0  0  0
    9.2639   -4.8860   25.8399 N   0  0  0  0  0  0  0  0  0  0  0  0
    8.0810   -0.9750   21.0820 N   0  0  0  0  0  0  0  0  0  0  0  0
    9.4200   -0.0840   22.9530 N   0  0  0  0  0  0  0  0  0  0  0  0
    9.1870    1.1500   21.0630 O   0  0  0  0  0  0  0  0  0  0  0  0
   14.5031   -1.0334   25.3114 Cl  0  0  0  0  0  0  0  0  0  0  0  0
    3.6256    2.0106   21.6303 H   0  0  0  0  0  0  0  0  0  0  0  0
    3.2724    2.7868   19.3204 H   0  0  0  0  0  0  0  0  0  0  0  0
   14.1289    2.5227   22.0237 H   0  0  0  0  0  0  0  0  0  0  0  0
    5.4858    0.4664   22.1692 H   0  0  0  0  0  0  0  0  0  0  0  0
   11.6588    2.5818   22.1218 H   0  0  0  0  0  0  0  0  0  0  0  0
    4.7836    2.0664   17.4848 H   0  0  0  0  0  0  0  0  0  0  0  0
    7.5647   -2.8621   26.1053 H   0  0  0  0  0  0  0  0  0  0  0  0
   11.0144   -4.2642   23.9425 H   0  0  0  0  0  0  0  0  0  0  0  0
    7.5958   -0.7779   24.8006 H   0  0  0  0  0  0  0  0  0  0  0  0
   11.0406   -2.1848   22.6356 H   0  0  0  0  0  0  0  0  0  0  0  0
   15.3941    0.9323   23.4255 H   0  0  0  0  0  0  0  0  0  0  0  0
   11.6954   -0.5682   25.0504 H   0  0  0  0  0  0  0  0  0  0  0  0
    8.5274   -1.0858   18.3384 H   0  0  0  0  0  0  0  0  0  0  0  0
    7.8578   -7.6261   27.1266 H   0  0  0  0  0  0  0  0  0  0  0  0
    6.2773   -7.2358   26.4459 H   0  0  0  0  0  0  0  0  0  0  0  0
    6.6663   -4.8351   26.7223 H   0  0  0  0  0  0  0  0  0  0  0  0
    7.0044   -5.6368   28.2534 H   0  0  0  0  0  0  0  0  0  0  0  0
    7.9946   -7.8119   24.6937 H   0  0  0  0  0  0  0  0  0  0  0  0
    7.2929   -6.2123   24.4668 H   0  0  0  0  0  0  0  0  0  0  0  0
    8.7343   -3.9408   27.6542 H   0  0  0  0  0  0  0  0  0  0  0  0
    9.4243   -5.5632   27.8278 H   0  0  0  0  0  0  0  0  0  0  0  0
   10.0200   -6.8490   25.7011 H   0  0  0  0  0  0  0  0  0  0  0  0
    9.6984   -6.0694   24.1436 H   0  0  0  0  0  0  0  0  0  0  0  0
    9.6778    1.0140   24.6966 H   0  0  0  0  0  0  0  0  0  0  0  0
    9.6316    1.9637   23.2107 H   0  0  0  0  0  0  0  0  0  0  0  0
    7.0325    0.4238   17.0175 H   0  0  0  0  0  0  0  0  0  0  0  0
    8.1334   -1.7992   21.3673 H   0  0  0  0  0  0  0  0  0  0  0  0
  1  2  1  0  0  0  0
  1  4  2  0  0  0  0
  2  6  2  0  0  0  0
  3  5  2  0  0  0  0
  3 11  1  0  0  0  0
  4 14  1  0  0  0  0
  5 15  1  0  0  0  0
  6 16  1  0  0  0  0
  7  9  2  0  0  0  0
  7 17  1  0  0  0  0
  8 10  1  0  0  0  0
  8 17  2  0  0  0  0
  9 18  1  0  0  0  0
 10 18  2  0  0  0  0
 11 20  2  0  0  0  0
 12 15  2  0  0  0  0
 12 20  1  0  0  0  0
 13 19  2  0  0  0  0
 13 28  1  0  0  0  0
 14 16  2  0  0  0  0
 14 19  1  0  0  0  0
 15 27  1  0  0  0  0
 16 28  1  0  0  0  0
 17 29  1  0  0  0  0
 18 31  1  0  0  0  0
 19 30  1  0  0  0  0
 20 33  1  0  0  0  0
 21 30  1  0  0  0  0
 21 31  1  0  0  0  0
 21 32  2  0  0  0  0
 22 23  1  0  0  0  0
 22 24  1  0  0  0  0
 23 25  1  0  0  0  0
 24 26  1  0  0  0  0
 25 29  1  0  0  0  0
 26 29  1  0  0  0  0
 27 31  1  0  0  0  0
  1 34  1  0  0  0  0
  2 35  1  0  0  0  0
  3 36  1  0  0  0  0
  4 37  1  0  0  0  0
  5 38  1  0  0  0  0
  6 39  1  0  0  0  0
  7 40  1  0  0  0  0
  8 41  1  0  0  0  0
  9 42  1  0  0  0  0
 10 43  1  0  0  0  0
 11 44  1  0  0  0  0
 12 45  1  0  0  0  0
 13 46  1  0  0  0  0
 22 47  1  0  0  0  0
 22 48  1  0  0  0  0
 23 49  1  0  0  0  0
 23 50  1  0  0  0  0
 24 51  1  0  0  0  0
 24 52  1  0  0  0  0
 25 53  1  0  0  0  0
 25 54  1  0  0  0  0
 26 55  1  0  0  0  0
 26 56  1  0  0  0  0
 27 57  1  0  0  0  0
 27 58  1  0  0  0  0
 28 59  1  0  0  0  0
 30 60  1  0  0  0  0
M  END
> <clash_score>
0.7662442630976259

> <docking_score>
-6.38530969619751

> <overlap_score>
1.0207407474517822

$$$$
BENZO_123_1
  -OEChem-08222022393D

 60 64  0     0  0  0  0  0  0999 V2000
    4.2970    1.6690   20.8430 C   0  0  0  0  0  0  0  0  0  0  0  0
    4.0980    2.1130   19.5350 C   0  0  0  0  0  0  0  0  0  0  0  0
    5.3360    0.8000   21.1530 C   0  0  0  0  0  0  0  0  0  0  0  0
    4.9400    1.7060   18.5060 C   0  0  0  0  0  0  0  0  0  0  0  0
    8.3310   -2.7170   25.3430 C   0  0  0  0  0  0  0  0  0  0  0  0
   10.2570   -3.5000   24.1350 C   0  0  0  0  0  0  0  0  0  0  0  0
    8.3510   -1.5420   24.6110 C   0  0  0  0  0  0  0  0  0  0  0  0
   10.2760   -2.3270   23.4020 C   0  0  0  0  0  0  0  0  0  0  0  0
   12.4358    1.7439   24.3724 C   0  0  0  0  0  0  0  0  0  0  0  0
   12.3100    0.2469   22.7668 C   0  0  0  0  0  0  0  0  0  0  0  0
    7.6830   -0.5170   18.7600 C   0  0  0  0  0  0  0  0  0  0  0  0
    6.1600    0.3870   20.1140 C   0  0  0  0  0  0  0  0  0  0  0  0
   11.5217    1.0079   23.5949 C   0  0  0  0  0  0  0  0  0  0  0  0
    5.9810    0.8330   18.8060 C   0  0  0  0  0  0  0  0  0  0  0  0
    9.2850   -3.7090   25.1090 C   0  0  0  0  0  0  0  0  0  0  0  0
    9.3300   -1.3350   23.6390 C   0  0  0  0  0  0  0  0  0  0  0  0
    7.2210   -0.4620   20.0350 C   0  0  0  0  0  0  0  0  0  0  0  0
    8.9510    0.1280   21.6880 C   0  0  0  0  0  0  0  0  0  0  0  0
    7.3162   -6.8835   26.5210 C   0  0  0  0  0  0  0  0  0  0  0  0
    7.3507   -5.5245   27.2240 C   0  0  0  0  0  0  0  0  0  0  0  0
    7.9375   -6.8069   25.1245 C   0  0  0  0  0  0  0  0  0  0  0  0
    8.7638   -4.9418   27.2163 C   0  0  0  0  0  0  0  0  0  0  0  0
    9.3378   -6.1874   25.1659 C   0  0  0  0  0  0  0  0  0  0  0  0
   14.7884    0.0124   22.4815 C   0  0  0  0  0  0  0  0  0  0  0  0
   10.0220    1.0430   23.6570 C   0  0  0  0  0  0  0  0  0  0  0  0
   13.7076    1.4745   24.0657 N   0  0  0  0  0  0  0  0  0  0  0  0
    6.9440    0.2550   18.0100 N   0  0  0  0  0  0  0  0  0  0  0  0
   13.5982    0.5607   23.0864 N   0  0  0  0  0  0  0  0  0  0  0  0
    9.2639   -4.8860   25.8399 N   0  0  0  0  0  0  0  0  0  0  0  0
    8.0810   -0.9750   21.0820 N   0  0  0  0  0  0  0  0  0  0  0  0
    9.4200   -0.0840   22.9530 N   0  0  0  0  0  0  0  0  0  0  0  0
    9.1870    1.1500   21.0630 O   0  0  0  0  0  0  0  0  0  0  0  0
    3.6256    2.0106   21.6303 H   0  0  0  0  0  0  0  0  0  0  0  0
    3.2724    2.7868   19.3204 H   0  0  0  0  0  0  0  0  0  0  0  0
    5.4858    0.4664   22.1692 H   0  0  0  0  0  0  0  0  0  0  0  0
    4.7836    2.0664   17.4848 H   0  0  0  0  0  0  0  0  0  0  0  0
    7.5647   -2.8621   26.1053 H   0  0  0  0  0  0  0  0  0  0  0  0
   11.0144   -4.2642   23.9425 H   0  0  0  0  0  0  0  0  0  0  0  0
    7.5958   -0.7779   24.8006 H   0  0  0  0  0  0  0  0  0  0  0  0
   11.0406   -2.1848   22.6356 H   0  0  0  0  0  0  0  0  0  0  0  0
   12.2308    2.4652   25.1508 H   0  0  0  0  0  0  0  0  0  0  0  0
   12.0700   -0.4744   21.9974 H   0  0  0  0  0  0  0  0  0  0  0  0
    8.5274   -1.0858   18.3384 H   0  0  0  0  0  0  0  0  0  0  0  0
    7.8578   -7.6261   27.1266 H   0  0  0  0  0  0  0  0  0  0  0  0
    6.2773   -7.2358   26.4459 H   0  0  0  0  0  0  0  0  0  0  0  0
    6.6663   -4.8351   26.7223 H   0  0  0  0  0  0  0  0  0  0  0  0
    7.0044   -5.6368   28.2534 H   0  0  0  0  0  0  0  0  0  0  0  0
    7.9946   -7.8119   24.6937 H   0  0  0  0  0  0  0  0  0  0  0  0
    7.2929   -6.2123   24.4668 H   0  0  0  0  0  0  0  0  0  0  0  0
    8.7343   -3.9408   27.6542 H   0  0  0  0  0  0  0  0  0  0  0  0
    9.4243   -5.5632   27.8278 H   0  0  0  0  0  0  0  0  0  0  0  0
   10.0200   -6.8490   25.7011 H   0  0  0  0  0  0  0  0  0  0  0  0
    9.6984   -6.0694   24.1436 H   0  0  0  0  0  0  0  0  0  0  0  0
   15.0569    0.6453   21.6315 H   0  0  0  0  0  0  0  0  0  0  0  0
   15.5971   -0.0026   23.2174 H   0  0  0  0  0  0  0  0  0  0  0  0
   14.5870   -1.0100   22.1498 H   0  0  0  0  0  0  0  0  0  0  0  0
    9.6778    1.0140   24.6966 H   0  0  0  0  0  0  0  0  0  0  0  0
    9.6316    1.9637   23.2107 H   0  0  0  0  0  0  0  0  0  0  0  0
    7.0325    0.4238   17.0175 H   0  0  0  0  0  0  0  0  0  0  0  0
    8.1334   -1.7992   21.3673 H   0  0  0  0  0  0  0  0  0  0  0  0
  1  2  1  0  0  0  0
  1  3  2  0  0  0  0
  2  4  2  0  0  0  0
  3 12  1  0  0  0  0
  4 14  1  0  0  0  0
  5  7  2  0  0  0  0
  5 15  1  0  0  0  0
  6  8  1  0  0  0  0
  6 15  2  0  0  0  0
  7 16  1  0  0  0  0
  8 16  2  0  0  0  0
  9 13  1  0  0  0  0
  9 26  2  0  0  0  0
 10 13  2  0  0  0  0
 10 28  1  0  0  0  0
 11 17  2  0  0  0  0
 11 27  1  0  0  0  0
 12 14  2  0  0  0  0
 12 17  1  0  0  0  0
 13 25  1  0  0  0  0
 14 27  1  0  0  0  0
 15 29  1  0  0  0  0
 16 31  1  0  0  0  0
 17 30  1  0  0  0  0
 18 30  1  0  0  0  0
 18 31  1  0  0  0  0
 18 32  2  0  0  0  0
 19 20  1  0  0  0  0
 19 21  1  0  0  0  0
 20 22  1  0  0  0  0
 21 23  1  0  0  0  0
 22 29  1  0  0  0  0
 23 29  1  0  0  0  0
 24 28  1  0  0  0  0
 25 31  1  0  0  0  0
 26 28  1  0  0  0  0
  1 33  1  0  0  0  0
  2 34  1  0  0  0  0
  3 35  1  0  0  0  0
  4 36  1  0  0  0  0
  5 37  1  0  0  0  0
  6 38  1  0  0  0  0
  7 39  1  0  0  0  0
  8 40  1  0  0  0  0
  9 41  1  0  0  0  0
 10 42  1  0  0  0  0
 11 43  1  0  0  0  0
 19 44  1  0  0  0  0
 19 45  1  0  0  0  0
 20 46  1  0  0  0  0
 20 47  1  0  0  0  0
 21 48  1  0  0  0  0
 21 49  1  0  0  0  0
 22 50  1  0  0  0  0
 22 51  1  0  0  0  0
 23 52  1  0  0  0  0
 23 53  1  0  0  0  0
 24 54  1  0  0  0  0
 24 55  1  0  0  0  0
 24 56  1  0  0  0  0
 25 57  1  0  0  0  0
 25 58  1  0  0  0  0
 27 59  1  0  0  0  0
 30 60  1  0  0  0  0
M  END
> <clash_score>
0

> <docking_score>
-7.418013572692871

> <overlap_score>
1.0017565488815308

$$$$
BENZO_129_1
  -OEChem-08222022393D

 49 52  0     0  0  0  0  0  0999 V2000
   14.3082    0.9431   23.4783 C   0  0  0  0  0  0  0  0  0  0  0  0
    4.2970    1.6690   20.8430 C   0  0  0  0  0  0  0  0  0  0  0  0
   13.6391    0.3091   24.5251 C   0  0  0  0  0  0  0  0  0  0  0  0
   13.5841    1.6096   22.4898 C   0  0  0  0  0  0  0  0  0  0  0  0
    4.0980    2.1130   19.5350 C   0  0  0  0  0  0  0  0  0  0  0  0
    5.3360    0.8000   21.1530 C   0  0  0  0  0  0  0  0  0  0  0  0
   12.2459    0.3415   24.5835 C   0  0  0  0  0  0  0  0  0  0  0  0
   12.1908    1.6420   22.5481 C   0  0  0  0  0  0  0  0  0  0  0  0
    4.9400    1.7060   18.5060 C   0  0  0  0  0  0  0  0  0  0  0  0
    8.3510   -1.5420   24.6110 C   0  0  0  0  0  0  0  0  0  0  0  0
   10.2760   -2.3270   23.4020 C   0  0  0  0  0  0  0  0  0  0  0  0
    8.3310   -2.7170   25.3430 C   0  0  0  0  0  0  0  0  0  0  0  0
   10.2570   -3.5000   24.1350 C   0  0  0  0  0  0  0  0  0  0  0  0
    7.6830   -0.5170   18.7600 C   0  0  0  0  0  0  0  0  0  0  0  0
    6.1600    0.3870   20.1140 C   0  0  0  0  0  0  0  0  0  0  0  0
   11.5217    1.0079   23.5949 C   0  0  0  0  0  0  0  0  0  0  0  0
    5.9810    0.8330   18.8060 C   0  0  0  0  0  0  0  0  0  0  0  0
    9.3300   -1.3350   23.6390 C   0  0  0  0  0  0  0  0  0  0  0  0
    7.2210   -0.4620   20.0350 C   0  0  0  0  0  0  0  0  0  0  0  0
    9.2850   -3.7090   25.1090 C   0  0  0  0  0  0  0  0  0  0  0  0
    8.9510    0.1280   21.6880 C   0  0  0  0  0  0  0  0  0  0  0  0
    8.2346   -4.9976   26.8023 C   0  0  0  0  0  0  0  0  0  0  0  0
   10.0220    1.0430   23.6570 C   0  0  0  0  0  0  0  0  0  0  0  0
    6.9440    0.2550   18.0100 N   0  0  0  0  0  0  0  0  0  0  0  0
    8.0810   -0.9750   21.0820 N   0  0  0  0  0  0  0  0  0  0  0  0
    9.4200   -0.0840   22.9530 N   0  0  0  0  0  0  0  0  0  0  0  0
    9.1870    1.1500   21.0630 O   0  0  0  0  0  0  0  0  0  0  0  0
    9.2631   -4.8614   25.8229 O   0  0  0  0  0  0  0  0  0  0  0  0
   15.3932    0.9189   23.4337 H   0  0  0  0  0  0  0  0  0  0  0  0
    3.6256    2.0106   21.6303 H   0  0  0  0  0  0  0  0  0  0  0  0
   14.2029   -0.2090   25.2955 H   0  0  0  0  0  0  0  0  0  0  0  0
   14.1048    2.1043   21.6752 H   0  0  0  0  0  0  0  0  0  0  0  0
    3.2724    2.7868   19.3204 H   0  0  0  0  0  0  0  0  0  0  0  0
    5.4858    0.4664   22.1692 H   0  0  0  0  0  0  0  0  0  0  0  0
   11.7330   -0.1555   25.4027 H   0  0  0  0  0  0  0  0  0  0  0  0
   11.6349    2.1636   21.7735 H   0  0  0  0  0  0  0  0  0  0  0  0
    4.7836    2.0664   17.4848 H   0  0  0  0  0  0  0  0  0  0  0  0
    7.5951   -0.7786   24.8000 H   0  0  0  0  0  0  0  0  0  0  0  0
   11.0406   -2.1866   22.6351 H   0  0  0  0  0  0  0  0  0  0  0  0
    7.5664   -2.8674   26.1055 H   0  0  0  0  0  0  0  0  0  0  0  0
   11.0119   -4.2671   23.9461 H   0  0  0  0  0  0  0  0  0  0  0  0
    8.5274   -1.0858   18.3384 H   0  0  0  0  0  0  0  0  0  0  0  0
    8.3309   -5.9652   27.3008 H   0  0  0  0  0  0  0  0  0  0  0  0
    7.2574   -4.9205   26.3189 H   0  0  0  0  0  0  0  0  0  0  0  0
    8.3381   -4.1984   27.5400 H   0  0  0  0  0  0  0  0  0  0  0  0
    9.6778    1.0140   24.6966 H   0  0  0  0  0  0  0  0  0  0  0  0
    9.6316    1.9637   23.2107 H   0  0  0  0  0  0  0  0  0  0  0  0
    7.0325    0.4238   17.0175 H   0  0  0  0  0  0  0  0  0  0  0  0
    8.1151   -1.8109   21.3513 H   0  0  0  0  0  0  0  0  0  0  0  0
  1  3  1  0  0  0  0
  1  4  2  0  0  0  0
  2  5  1  0  0  0  0
  2  6  2  0  0  0  0
  3  7  2  0  0  0  0
  4  8  1  0  0  0  0
  5  9  2  0  0  0  0
  6 15  1  0  0  0  0
  7 16  1  0  0  0  0
  8 16  2  0  0  0  0
  9 17  1  0  0  0  0
 10 12  2  0  0  0  0
 10 18  1  0  0  0  0
 11 13  1  0  0  0  0
 11 18  2  0  0  0  0
 12 20  1  0  0  0  0
 13 20  2  0  0  0  0
 14 19  2  0  0  0  0
 14 24  1  0  0  0  0
 15 17  2  0  0  0  0
 15 19  1  0  0  0  0
 16 23  1  0  0  0  0
 17 24  1  0  0  0  0
 18 26  1  0  0  0  0
 19 25  1  0  0  0  0
 20 28  1  0  0  0  0
 21 25  1  0  0  0  0
 21 26  1  0  0  0  0
 21 27  2  0  0  0  0
 22 28  1  0  0  0  0
 23 26  1  0  0  0  0
  1 29  1  0  0  0  0
  2 30  1  0  0  0  0
  3 31  1  0  0  0  0
  4 32  1  0  0  0  0
  5 33  1  0  0  0  0
  6 34  1  0  0  0  0
  7 35  1  0  0  0  0
  8 36  1  0  0  0  0
  9 37  1  0  0  0  0
 10 38  1  0  0  0  0
 11 39  1  0  0  0  0
 12 40  1  0  0  0  0
 13 41  1  0  0  0  0
 14 42  1  0  0  0  0
 22 43  1  0  0  0  0
 22 44  1  0  0  0  0
 22 45  1  0  0  0  0
 23 46  1  0  0  0  0
 23 47  1  0  0  0  0
 24 48  1  0  0  0  0
 25 49  1  0  0  0  0
M  END
> <clash_score>
0

> <docking_score>
-7.870100498199463

> <overlap_score>
0.9956544637680054

$$$$
BENZO_127_1
  -OEChem-08222022393D

 48 51  0     0  0  0  0  0  0999 V2000
    4.2970    1.6690   20.8430 C   0  0  0  0  0  0  0  0  0  0  0  0
    4.0980    2.1130   19.5350 C   0  0  0  0  0  0  0  0  0  0  0  0
    5.3360    0.8000   21.1530 C   0  0  0  0  0  0  0  0  0  0  0  0
    8.3310   -2.7170   25.3430 C   0  0  0  0  0  0  0  0  0  0  0  0
   10.2570   -3.5000   24.1350 C   0  0  0  0  0  0  0  0  0  0  0  0
    4.9400    1.7060   18.5060 C   0  0  0  0  0  0  0  0  0  0  0  0
    8.3510   -1.5420   24.6110 C   0  0  0  0  0  0  0  0  0  0  0  0
   10.2760   -2.3270   23.4020 C   0  0  0  0  0  0  0  0  0  0  0  0
   12.4295    0.9466   24.6692 C   0  0  0  0  0  0  0  0  0  0  0  0
   12.3161    1.0259   22.4747 C   0  0  0  0  0  0  0  0  0  0  0  0
    7.6830   -0.5170   18.7600 C   0  0  0  0  0  0  0  0  0  0  0  0
    6.1600    0.3870   20.1140 C   0  0  0  0  0  0  0  0  0  0  0  0
    9.2850   -3.7090   25.1090 C   0  0  0  0  0  0  0  0  0  0  0  0
   11.5217    1.0079   23.5949 C   0  0  0  0  0  0  0  0  0  0  0  0
    5.9810    0.8330   18.8060 C   0  0  0  0  0  0  0  0  0  0  0  0
    9.3300   -1.3350   23.6390 C   0  0  0  0  0  0  0  0  0  0  0  0
    7.2210   -0.4620   20.0350 C   0  0  0  0  0  0  0  0  0  0  0  0
    8.9510    0.1280   21.6880 C   0  0  0  0  0  0  0  0  0  0  0  0
    9.2610   -4.9721   25.8916 C   0  0  0  0  0  0  0  0  0  0  0  0
   14.7958    0.9722   22.1181 C   0  0  0  0  0  0  0  0  0  0  0  0
   10.0220    1.0430   23.6570 C   0  0  0  0  0  0  0  0  0  0  0  0
   13.7032    0.9267   24.2674 N   0  0  0  0  0  0  0  0  0  0  0  0
    6.9440    0.2550   18.0100 N   0  0  0  0  0  0  0  0  0  0  0  0
   13.6014    0.9758   22.9283 N   0  0  0  0  0  0  0  0  0  0  0  0
    8.0810   -0.9750   21.0820 N   0  0  0  0  0  0  0  0  0  0  0  0
    9.4200   -0.0840   22.9530 N   0  0  0  0  0  0  0  0  0  0  0  0
    9.1870    1.1500   21.0630 O   0  0  0  0  0  0  0  0  0  0  0  0
    3.6256    2.0106   21.6303 H   0  0  0  0  0  0  0  0  0  0  0  0
    3.2724    2.7868   19.3204 H   0  0  0  0  0  0  0  0  0  0  0  0
    5.4858    0.4664   22.1692 H   0  0  0  0  0  0  0  0  0  0  0  0
    7.5665   -2.8638   26.1066 H   0  0  0  0  0  0  0  0  0  0  0  0
   11.0137   -4.2652   23.9447 H   0  0  0  0  0  0  0  0  0  0  0  0
    4.7836    2.0664   17.4848 H   0  0  0  0  0  0  0  0  0  0  0  0
    7.5948   -0.7788   24.7997 H   0  0  0  0  0  0  0  0  0  0  0  0
   11.0411   -2.1856   22.6358 H   0  0  0  0  0  0  0  0  0  0  0  0
   12.2184    0.9145   25.7287 H   0  0  0  0  0  0  0  0  0  0  0  0
   12.0821    1.0677   21.4195 H   0  0  0  0  0  0  0  0  0  0  0  0
    8.5274   -1.0858   18.3384 H   0  0  0  0  0  0  0  0  0  0  0  0
    8.6398   -5.7223   25.3871 H   0  0  0  0  0  0  0  0  0  0  0  0
   10.2715   -5.3829   26.0145 H   0  0  0  0  0  0  0  0  0  0  0  0
    8.8596   -4.8092   26.9004 H   0  0  0  0  0  0  0  0  0  0  0  0
   15.1026    2.0102   21.9649 H   0  0  0  0  0  0  0  0  0  0  0  0
   15.5826    0.4128   22.6318 H   0  0  0  0  0  0  0  0  0  0  0  0
   14.5811    0.4906   21.1600 H   0  0  0  0  0  0  0  0  0  0  0  0
    9.6778    1.0140   24.6966 H   0  0  0  0  0  0  0  0  0  0  0  0
    9.6316    1.9637   23.2107 H   0  0  0  0  0  0  0  0  0  0  0  0
    7.0325    0.4238   17.0175 H   0  0  0  0  0  0  0  0  0  0  0  0
    8.1151   -1.8109   21.3513 H   0  0  0  0  0  0  0  0  0  0  0  0
  1  2  1  0  0  0  0
  1  3  2  0  0  0  0
  2  6  2  0  0  0  0
  3 12  1  0  0  0  0
  4  7  2  0  0  0  0
  4 13  1  0  0  0  0
  5  8  1  0  0  0  0
  5 13  2  0  0  0  0
  6 15  1  0  0  0  0
  7 16  1  0  0  0  0
  8 16  2  0  0  0  0
  9 14  1  0  0  0  0
  9 22  2  0  0  0  0
 10 14  2  0  0  0  0
 10 24  1  0  0  0  0
 11 17  2  0  0  0  0
 11 23  1  0  0  0  0
 12 15  2  0  0  0  0
 12 17  1  0  0  0  0
 13 19  1  0  0  0  0
 14 21  1  0  0  0  0
 15 23  1  0  0  0  0
 16 26  1  0  0  0  0
 17 25  1  0  0  0  0
 18 25  1  0  0  0  0
 18 26  1  0  0  0  0
 18 27  2  0  0  0  0
 20 24  1  0  0  0  0
 21 26  1  0  0  0  0
 22 24  1  0  0  0  0
  1 28  1  0  0  0  0
  2 29  1  0  0  0  0
  3 30  1  0  0  0  0
  4 31  1  0  0  0  0
  5 32  1  0  0  0  0
  6 33  1  0  0  0  0
  7 34  1  0  0  0  0
  8 35  1  0  0  0  0
  9 36  1  0  0  0  0
 10 37  1  0  0  0  0
 11 38  1  0  0  0  0
 19 39  1  0  0  0  0
 19 40  1  0  0  0  0
 19 41  1  0  0  0  0
 20 42  1  0  0  0  0
 20 43  1  0  0  0  0
 20 44  1  0  0  0  0
 21 45  1  0  0  0  0
 21 46  1  0  0  0  0
 23 47  1  0  0  0  0
 25 48  1  0  0  0  0
M  END
> <clash_score>
0

> <docking_score>
-8.103116989135742

> <overlap_score>
0.9625561237335205

$$$$
BENZO_126_1
  -OEChem-08222022393D

 48 51  0     0  0  0  0  0  0999 V2000
    4.2970    1.6690   20.8430 C   0  0  0  0  0  0  0  0  0  0  0  0
    4.0980    2.1130   19.5350 C   0  0  0  0  0  0  0  0  0  0  0  0
   13.5977    1.8457   22.6865 C   0  0  0  0  0  0  0  0  0  0  0  0
    5.3360    0.8000   21.1530 C   0  0  0  0  0  0  0  0  0  0  0  0
   12.2044    1.8769   22.7438 C   0  0  0  0  0  0  0  0  0  0  0  0
    8.3310   -2.7170   25.3430 C   0  0  0  0  0  0  0  0  0  0  0  0
   10.2570   -3.5000   24.1350 C   0  0  0  0  0  0  0  0  0  0  0  0
    4.9400    1.7060   18.5060 C   0  0  0  0  0  0  0  0  0  0  0  0
    8.3510   -1.5420   24.6110 C   0  0  0  0  0  0  0  0  0  0  0  0
   10.2760   -2.3270   23.4020 C   0  0  0  0  0  0  0  0  0  0  0  0
   14.3084    0.9454   23.4803 C   0  0  0  0  0  0  0  0  0  0  0  0
   12.2323    0.1076   24.3888 C   0  0  0  0  0  0  0  0  0  0  0  0
    7.6830   -0.5170   18.7600 C   0  0  0  0  0  0  0  0  0  0  0  0
    6.1600    0.3870   20.1140 C   0  0  0  0  0  0  0  0  0  0  0  0
    9.2850   -3.7090   25.1090 C   0  0  0  0  0  0  0  0  0  0  0  0
   11.5217    1.0079   23.5949 C   0  0  0  0  0  0  0  0  0  0  0  0
    5.9810    0.8330   18.8060 C   0  0  0  0  0  0  0  0  0  0  0  0
    9.3300   -1.3350   23.6390 C   0  0  0  0  0  0  0  0  0  0  0  0
    7.2210   -0.4620   20.0350 C   0  0  0  0  0  0  0  0  0  0  0  0
   13.6257    0.0764   24.3314 C   0  0  0  0  0  0  0  0  0  0  0  0
    8.9510    0.1280   21.6880 C   0  0  0  0  0  0  0  0  0  0  0  0
    9.2610   -4.9721   25.8916 C   0  0  0  0  0  0  0  0  0  0  0  0
   10.0220    1.0430   23.6570 C   0  0  0  0  0  0  0  0  0  0  0  0
    6.9440    0.2550   18.0100 N   0  0  0  0  0  0  0  0  0  0  0  0
    8.0810   -0.9750   21.0820 N   0  0  0  0  0  0  0  0  0  0  0  0
    9.4200   -0.0840   22.9530 N   0  0  0  0  0  0  0  0  0  0  0  0
    9.1870    1.1500   21.0630 O   0  0  0  0  0  0  0  0  0  0  0  0
   14.5031   -1.0334   25.3114 Cl  0  0  0  0  0  0  0  0  0  0  0  0
    3.6256    2.0106   21.6303 H   0  0  0  0  0  0  0  0  0  0  0  0
    3.2724    2.7868   19.3204 H   0  0  0  0  0  0  0  0  0  0  0  0
   14.1289    2.5226   22.0237 H   0  0  0  0  0  0  0  0  0  0  0  0
    5.4858    0.4664   22.1692 H   0  0  0  0  0  0  0  0  0  0  0  0
   11.6588    2.5818   22.1218 H   0  0  0  0  0  0  0  0  0  0  0  0
    7.5665   -2.8638   26.1066 H   0  0  0  0  0  0  0  0  0  0  0  0
   11.0137   -4.2652   23.9447 H   0  0  0  0  0  0  0  0  0  0  0  0
    4.7836    2.0664   17.4848 H   0  0  0  0  0  0  0  0  0  0  0  0
    7.5948   -0.7788   24.7997 H   0  0  0  0  0  0  0  0  0  0  0  0
   11.0411   -2.1856   22.6358 H   0  0  0  0  0  0  0  0  0  0  0  0
   15.3941    0.9323   23.4255 H   0  0  0  0  0  0  0  0  0  0  0  0
   11.6954   -0.5682   25.0504 H   0  0  0  0  0  0  0  0  0  0  0  0
    8.5274   -1.0858   18.3384 H   0  0  0  0  0  0  0  0  0  0  0  0
    8.6398   -5.7223   25.3871 H   0  0  0  0  0  0  0  0  0  0  0  0
   10.2715   -5.3829   26.0145 H   0  0  0  0  0  0  0  0  0  0  0  0
    8.8596   -4.8092   26.9004 H   0  0  0  0  0  0  0  0  0  0  0  0
    9.6778    1.0140   24.6966 H   0  0  0  0  0  0  0  0  0  0  0  0
    9.6316    1.9637   23.2107 H   0  0  0  0  0  0  0  0  0  0  0  0
    7.0325    0.4238   17.0175 H   0  0  0  0  0  0  0  0  0  0  0  0
    8.1151   -1.8109   21.3513 H   0  0  0  0  0  0  0  0  0  0  0  0
  1  2  1  0  0  0  0
  1  4  2  0  0  0  0
  2  8  2  0  0  0  0
  3  5  2  0  0  0  0
  3 11  1  0  0  0  0
  4 14  1  0  0  0  0
  5 16  1  0  0  0  0
  6  9  2  0  0  0  0
  6 15  1  0  0  0  0
  7 10  1  0  0  0  0
  7 15  2  0  0  0  0
  8 17  1  0  0  0  0
  9 18  1  0  0  0  0
 10 18  2  0  0  0  0
 11 20  2  0  0  0  0
 12 16  2  0  0  0  0
 12 20  1  0  0  0  0
 13 19  2  0  0  0  0
 13 24  1  0  0  0  0
 14 17  2  0  0  0  0
 14 19  1  0  0  0  0
 15 22  1  0  0  0  0
 16 23  1  0  0  0  0
 17 24  1  0  0  0  0
 18 26  1  0  0  0  0
 19 25  1  0  0  0  0
 20 28  1  0  0  0  0
 21 25  1  0  0  0  0
 21 26  1  0  0  0  0
 21 27  2  0  0  0  0
 23 26  1  0  0  0  0
  1 29  1  0  0  0  0
  2 30  1  0  0  0  0
  3 31  1  0  0  0  0
  4 32  1  0  0  0  0
  5 33  1  0  0  0  0
  6 34  1  0  0  0  0
  7 35  1  0  0  0  0
  8 36  1  0  0  0  0
  9 37  1  0  0  0  0
 10 38  1  0  0  0  0
 11 39  1  0  0  0  0
 12 40  1  0  0  0  0
 13 41  1  0  0  0  0
 22 42  1  0  0  0  0
 22 43  1  0  0  0  0
 22 44  1  0  0  0  0
 23 45  1  0  0  0  0
 23 46  1  0  0  0  0
 24 47  1  0  0  0  0
 25 48  1  0  0  0  0
M  END
> <clash_score>
0.7662462067368553

> <docking_score>
-7.34297513961792

> <overlap_score>
0.9770407676696777

$$$$
BENZO_128_1
  -OEChem-08222022393D

 46 49  0     0  0  0  0  0  0999 V2000
    4.2970    1.6690   20.8430 C   0  0  0  0  0  0  0  0  0  0  0  0
    4.0980    2.1130   19.5350 C   0  0  0  0  0  0  0  0  0  0  0  0
    5.3360    0.8000   21.1530 C   0  0  0  0  0  0  0  0  0  0  0  0
    4.9400    1.7060   18.5060 C   0  0  0  0  0  0  0  0  0  0  0  0
    8.3510   -1.5420   24.6110 C   0  0  0  0  0  0  0  0  0  0  0  0
   10.2760   -2.3270   23.4020 C   0  0  0  0  0  0  0  0  0  0  0  0
    8.3310   -2.7170   25.3430 C   0  0  0  0  0  0  0  0  0  0  0  0
   10.2570   -3.5000   24.1350 C   0  0  0  0  0  0  0  0  0  0  0  0
   12.2675    1.0332   22.3812 C   0  0  0  0  0  0  0  0  0  0  0  0
    7.6830   -0.5170   18.7600 C   0  0  0  0  0  0  0  0  0  0  0  0
   13.6257    0.9906   22.6074 C   0  0  0  0  0  0  0  0  0  0  0  0
   12.3384    0.9467   24.7028 C   0  0  0  0  0  0  0  0  0  0  0  0
    6.1600    0.3870   20.1140 C   0  0  0  0  0  0  0  0  0  0  0  0
   11.5217    1.0079   23.5949 C   0  0  0  0  0  0  0  0  0  0  0  0
    5.9810    0.8330   18.8060 C   0  0  0  0  0  0  0  0  0  0  0  0
    9.3300   -1.3350   23.6390 C   0  0  0  0  0  0  0  0  0  0  0  0
    7.2210   -0.4620   20.0350 C   0  0  0  0  0  0  0  0  0  0  0  0
    9.2850   -3.7090   25.1090 C   0  0  0  0  0  0  0  0  0  0  0  0
    8.9510    0.1280   21.6880 C   0  0  0  0  0  0  0  0  0  0  0  0
    8.2346   -4.9976   26.8023 C   0  0  0  0  0  0  0  0  0  0  0  0
   10.0220    1.0430   23.6570 C   0  0  0  0  0  0  0  0  0  0  0  0
    6.9440    0.2550   18.0100 N   0  0  0  0  0  0  0  0  0  0  0  0
    8.0810   -0.9750   21.0820 N   0  0  0  0  0  0  0  0  0  0  0  0
    9.4200   -0.0840   22.9530 N   0  0  0  0  0  0  0  0  0  0  0  0
    9.1870    1.1500   21.0630 O   0  0  0  0  0  0  0  0  0  0  0  0
    9.2631   -4.8614   25.8229 O   0  0  0  0  0  0  0  0  0  0  0  0
   13.9969    0.9203   24.2776 S   0  0  0  0  0  0  0  0  0  0  0  0
    3.6256    2.0106   21.6303 H   0  0  0  0  0  0  0  0  0  0  0  0
    3.2724    2.7868   19.3204 H   0  0  0  0  0  0  0  0  0  0  0  0
    5.4858    0.4664   22.1692 H   0  0  0  0  0  0  0  0  0  0  0  0
    4.7836    2.0664   17.4848 H   0  0  0  0  0  0  0  0  0  0  0  0
    7.5951   -0.7786   24.8000 H   0  0  0  0  0  0  0  0  0  0  0  0
   11.0406   -2.1866   22.6351 H   0  0  0  0  0  0  0  0  0  0  0  0
    7.5664   -2.8674   26.1055 H   0  0  0  0  0  0  0  0  0  0  0  0
   11.0119   -4.2671   23.9461 H   0  0  0  0  0  0  0  0  0  0  0  0
   11.8338    1.0798   21.3902 H   0  0  0  0  0  0  0  0  0  0  0  0
    8.5274   -1.0858   18.3384 H   0  0  0  0  0  0  0  0  0  0  0  0
   14.4176    0.9966   21.8719 H   0  0  0  0  0  0  0  0  0  0  0  0
   12.0446    0.9149   25.7428 H   0  0  0  0  0  0  0  0  0  0  0  0
    8.3309   -5.9652   27.3008 H   0  0  0  0  0  0  0  0  0  0  0  0
    7.2574   -4.9205   26.3189 H   0  0  0  0  0  0  0  0  0  0  0  0
    8.3381   -4.1984   27.5400 H   0  0  0  0  0  0  0  0  0  0  0  0
    9.6778    1.0140   24.6966 H   0  0  0  0  0  0  0  0  0  0  0  0
    9.6316    1.9637   23.2107 H   0  0  0  0  0  0  0  0  0  0  0  0
    7.0325    0.4238   17.0175 H   0  0  0  0  0  0  0  0  0  0  0  0
    8.1151   -1.8109   21.3513 H   0  0  0  0  0  0  0  0  0  0  0  0
  1  2  1  0  0  0  0
  1  3  2  0  0  0  0
  2  4  2  0  0  0  0
  3 13  1  0  0  0  0
  4 15  1  0  0  0  0
  5  7  2  0  0  0  0
  5 16  1  0  0  0  0
  6  8  1  0  0  0  0
  6 16  2  0  0  0  0
  7 18  1  0  0  0  0
  8 18  2  0  0  0  0
  9 11  2  0  0  0  0
  9 14  1  0  0  0  0
 10 17  2  0  0  0  0
 10 22  1  0  0  0  0
 11 27  1  0  0  0  0
 12 14  2  0  0  0  0
 12 27  1  0  0  0  0
 13 15  2  0  0  0  0
 13 17  1  0  0  0  0
 14 21  1  0  0  0  0
 15 22  1  0  0  0  0
 16 24  1  0  0  0  0
 17 23  1  0  0  0  0
 18 26  1  0  0  0  0
 19 23  1  0  0  0  0
 19 24  1  0  0  0  0
 19 25  2  0  0  0  0
 20 26  1  0  0  0  0
 21 24  1  0  0  0  0
  1 28  1  0  0  0  0
  2 29  1  0  0  0  0
  3 30  1  0  0  0  0
  4 31  1  0  0  0  0
  5 32  1  0  0  0  0
  6 33  1  0  0  0  0
  7 34  1  0  0  0  0
  8 35  1  0  0  0  0
  9 36  1  0  0  0  0
 10 37  1  0  0  0  0
 11 38  1  0  0  0  0
 12 39  1  0  0  0  0
 20 40  1  0  0  0  0
 20 41  1  0  0  0  0
 20 42  1  0  0  0  0
 21 43  1  0  0  0  0
 21 44  1  0  0  0  0
 22 45  1  0  0  0  0
 23 46  1  0  0  0  0
M  END
> <clash_score>
0

> <docking_score>
-8.116297721862793

> <overlap_score>
0.9697704315185547

$$$$
BENZO_130_1
  -OEChem-08222022393D

 49 52  0     0  0  0  0  0  0999 V2000
    4.2970    1.6690   20.8430 C   0  0  0  0  0  0  0  0  0  0  0  0
    4.0980    2.1130   19.5350 C   0  0  0  0  0  0  0  0  0  0  0  0
   13.6668    1.7807   24.3938 C   0  0  0  0  0  0  0  0  0  0  0  0
    5.3360    0.8000   21.1530 C   0  0  0  0  0  0  0  0  0  0  0  0
   12.2735    1.8136   24.4501 C   0  0  0  0  0  0  0  0  0  0  0  0
    4.9400    1.7060   18.5060 C   0  0  0  0  0  0  0  0  0  0  0  0
    8.3510   -1.5420   24.6110 C   0  0  0  0  0  0  0  0  0  0  0  0
   10.2760   -2.3270   23.4020 C   0  0  0  0  0  0  0  0  0  0  0  0
    8.3310   -2.7170   25.3430 C   0  0  0  0  0  0  0  0  0  0  0  0
   10.2570   -3.5000   24.1350 C   0  0  0  0  0  0  0  0  0  0  0  0
   14.3084    0.9422   23.4822 C   0  0  0  0  0  0  0  0  0  0  0  0
   12.1632    0.1693   22.6834 C   0  0  0  0  0  0  0  0  0  0  0  0
    7.6830   -0.5170   18.7600 C   0  0  0  0  0  0  0  0  0  0  0  0
    6.1600    0.3870   20.1140 C   0  0  0  0  0  0  0  0  0  0  0  0
   11.5217    1.0079   23.5949 C   0  0  0  0  0  0  0  0  0  0  0  0
    5.9810    0.8330   18.8060 C   0  0  0  0  0  0  0  0  0  0  0  0
    9.3300   -1.3350   23.6390 C   0  0  0  0  0  0  0  0  0  0  0  0
    7.2210   -0.4620   20.0350 C   0  0  0  0  0  0  0  0  0  0  0  0
    9.2850   -3.7090   25.1090 C   0  0  0  0  0  0  0  0  0  0  0  0
   13.5566    0.1365   22.6270 C   0  0  0  0  0  0  0  0  0  0  0  0
    8.9510    0.1280   21.6880 C   0  0  0  0  0  0  0  0  0  0  0  0
    8.2346   -4.9976   26.8023 C   0  0  0  0  0  0  0  0  0  0  0  0
   10.0220    1.0430   23.6570 C   0  0  0  0  0  0  0  0  0  0  0  0
    6.9440    0.2550   18.0100 N   0  0  0  0  0  0  0  0  0  0  0  0
    8.0810   -0.9750   21.0820 N   0  0  0  0  0  0  0  0  0  0  0  0
    9.4200   -0.0840   22.9530 N   0  0  0  0  0  0  0  0  0  0  0  0
    9.1870    1.1500   21.0630 O   0  0  0  0  0  0  0  0  0  0  0  0
    9.2631   -4.8614   25.8229 O   0  0  0  0  0  0  0  0  0  0  0  0
   14.3487   -0.8988   21.5034 Cl  0  0  0  0  0  0  0  0  0  0  0  0
    3.6256    2.0106   21.6303 H   0  0  0  0  0  0  0  0  0  0  0  0
    3.2724    2.7868   19.3204 H   0  0  0  0  0  0  0  0  0  0  0  0
   14.2519    2.4082   25.0600 H   0  0  0  0  0  0  0  0  0  0  0  0
    5.4858    0.4664   22.1692 H   0  0  0  0  0  0  0  0  0  0  0  0
   11.7821    2.4700   25.1636 H   0  0  0  0  0  0  0  0  0  0  0  0
    4.7836    2.0664   17.4848 H   0  0  0  0  0  0  0  0  0  0  0  0
    7.5951   -0.7786   24.8000 H   0  0  0  0  0  0  0  0  0  0  0  0
   11.0406   -2.1866   22.6351 H   0  0  0  0  0  0  0  0  0  0  0  0
    7.5664   -2.8674   26.1055 H   0  0  0  0  0  0  0  0  0  0  0  0
   11.0119   -4.2671   23.9461 H   0  0  0  0  0  0  0  0  0  0  0  0
   15.3950    0.9267   23.4496 H   0  0  0  0  0  0  0  0  0  0  0  0
   11.5726   -0.4565   22.0184 H   0  0  0  0  0  0  0  0  0  0  0  0
    8.5274   -1.0858   18.3384 H   0  0  0  0  0  0  0  0  0  0  0  0
    8.3309   -5.9652   27.3008 H   0  0  0  0  0  0  0  0  0  0  0  0
    7.2574   -4.9205   26.3189 H   0  0  0  0  0  0  0  0  0  0  0  0
    8.3381   -4.1984   27.5400 H   0  0  0  0  0  0  0  0  0  0  0  0
    9.6778    1.0140   24.6966 H   0  0  0  0  0  0  0  0  0  0  0  0
    9.6316    1.9637   23.2107 H   0  0  0  0  0  0  0  0  0  0  0  0
    7.0325    0.4238   17.0175 H   0  0  0  0  0  0  0  0  0  0  0  0
    8.1151   -1.8109   21.3513 H   0  0  0  0  0  0  0  0  0  0  0  0
  1  2  1  0  0  0  0
  1  4  2  0  0  0  0
  2  6  2  0  0  0  0
  3  5  2  0  0  0  0
  3 11  1  0  0  0  0
  4 14  1  0  0  0  0
  5 15  1  0  0  0  0
  6 16  1  0  0  0  0
  7  9  2  0  0  0  0
  7 17  1  0  0  0  0
  8 10  1  0  0  0  0
  8 17  2  0  0  0  0
  9 19  1  0  0  0  0
 10 19  2  0  0  0  0
 11 20  2  0  0  0  0
 12 15  2  0  0  0  0
 12 20  1  0  0  0  0
 13 18  2  0  0  0  0
 13 24  1  0  0  0  0
 14 16  2  0  0  0  0
 14 18  1  0  0  0  0
 15 23  1  0  0  0  0
 16 24  1  0  0  0  0
 17 26  1  0  0  0  0
 18 25  1  0  0  0  0
 19 28  1  0  0  0  0
 20 29  1  0  0  0  0
 21 25  1  0  0  0  0
 21 26  1  0  0  0  0
 21 27  2  0  0  0  0
 22 28  1  0  0  0  0
 23 26  1  0  0  0  0
  1 30  1  0  0  0  0
  2 31  1  0  0  0  0
  3 32  1  0  0  0  0
  4 33  1  0  0  0  0
  5 34  1  0  0  0  0
  6 35  1  0  0  0  0
  7 36  1  0  0  0  0
  8 37  1  0  0  0  0
  9 38  1  0  0  0  0
 10 39  1  0  0  0  0
 11 40  1  0  0  0  0
 12 41  1  0  0  0  0
 13 42  1  0  0  0  0
 22 43  1  0  0  0  0
 22 44  1  0  0  0  0
 22 45  1  0  0  0  0
 23 46  1  0  0  0  0
 23 47  1  0  0  0  0
 24 48  1  0  0  0  0
 25 49  1  0  0  0  0
M  END
> <clash_score>
0

> <docking_score>
-7.121036052703857

> <overlap_score>
0.9766172766685486

$$$$
BENZO_131_1
  -OEChem-08222022393D

 49 52  0     0  0  0  0  0  0999 V2000
    4.2970    1.6690   20.8430 C   0  0  0  0  0  0  0  0  0  0  0  0
    4.0980    2.1130   19.5350 C   0  0  0  0  0  0  0  0  0  0  0  0
    5.3360    0.8000   21.1530 C   0  0  0  0  0  0  0  0  0  0  0  0
    4.9400    1.7060   18.5060 C   0  0  0  0  0  0  0  0  0  0  0  0
    8.3510   -1.5420   24.6110 C   0  0  0  0  0  0  0  0  0  0  0  0
   10.2760   -2.3270   23.4020 C   0  0  0  0  0  0  0  0  0  0  0  0
    8.3310   -2.7170   25.3430 C   0  0  0  0  0  0  0  0  0  0  0  0
   10.2570   -3.5000   24.1350 C   0  0  0  0  0  0  0  0  0  0  0  0
   12.4359    1.7439   24.3724 C   0  0  0  0  0  0  0  0  0  0  0  0
   12.3100    0.2469   22.7668 C   0  0  0  0  0  0  0  0  0  0  0  0
    7.6830   -0.5170   18.7600 C   0  0  0  0  0  0  0  0  0  0  0  0
    6.1600    0.3870   20.1140 C   0  0  0  0  0  0  0  0  0  0  0  0
   11.5217    1.0079   23.5949 C   0  0  0  0  0  0  0  0  0  0  0  0
    5.9810    0.8330   18.8060 C   0  0  0  0  0  0  0  0  0  0  0  0
    9.3300   -1.3350   23.6390 C   0  0  0  0  0  0  0  0  0  0  0  0
    7.2210   -0.4620   20.0350 C   0  0  0  0  0  0  0  0  0  0  0  0
    9.2850   -3.7090   25.1090 C   0  0  0  0  0  0  0  0  0  0  0  0
    8.9510    0.1280   21.6880 C   0  0  0  0  0  0  0  0  0  0  0  0
   14.7884    0.0124   22.4815 C   0  0  0  0  0  0  0  0  0  0  0  0
    8.2346   -4.9976   26.8023 C   0  0  0  0  0  0  0  0  0  0  0  0
   10.0220    1.0430   23.6570 C   0  0  0  0  0  0  0  0  0  0  0  0
   13.7076    1.4745   24.0657 N   0  0  0  0  0  0  0  0  0  0  0  0
    6.9440    0.2550   18.0100 N   0  0  0  0  0  0  0  0  0  0  0  0
   13.5982    0.5607   23.0864 N   0  0  0  0  0  0  0  0  0  0  0  0
    8.0810   -0.9750   21.0820 N   0  0  0  0  0  0  0  0  0  0  0  0
    9.4200   -0.0840   22.9530 N   0  0  0  0  0  0  0  0  0  0  0  0
    9.1870    1.1500   21.0630 O   0  0  0  0  0  0  0  0  0  0  0  0
    9.2631   -4.8614   25.8229 O   0  0  0  0  0  0  0  0  0  0  0  0
    3.6256    2.0106   21.6303 H   0  0  0  0  0  0  0  0  0  0  0  0
    3.2724    2.7868   19.3204 H   0  0  0  0  0  0  0  0  0  0  0  0
    5.4858    0.4664   22.1692 H   0  0  0  0  0  0  0  0  0  0  0  0
    4.7836    2.0664   17.4848 H   0  0  0  0  0  0  0  0  0  0  0  0
    7.5951   -0.7786   24.8000 H   0  0  0  0  0  0  0  0  0  0  0  0
   11.0406   -2.1866   22.6351 H   0  0  0  0  0  0  0  0  0  0  0  0
    7.5664   -2.8674   26.1055 H   0  0  0  0  0  0  0  0  0  0  0  0
   11.0119   -4.2671   23.9461 H   0  0  0  0  0  0  0  0  0  0  0  0
   12.2308    2.4652   25.1508 H   0  0  0  0  0  0  0  0  0  0  0  0
   12.0700   -0.4744   21.9974 H   0  0  0  0  0  0  0  0  0  0  0  0
    8.5274   -1.0858   18.3384 H   0  0  0  0  0  0  0  0  0  0  0  0
   15.0569    0.6453   21.6315 H   0  0  0  0  0  0  0  0  0  0  0  0
   15.5971   -0.0026   23.2174 H   0  0  0  0  0  0  0  0  0  0  0  0
   14.5870   -1.0100   22.1498 H   0  0  0  0  0  0  0  0  0  0  0  0
    8.3309   -5.9652   27.3008 H   0  0  0  0  0  0  0  0  0  0  0  0
    7.2574   -4.9205   26.3189 H   0  0  0  0  0  0  0  0  0  0  0  0
    8.3381   -4.1984   27.5400 H   0  0  0  0  0  0  0  0  0  0  0  0
    9.6778    1.0140   24.6966 H   0  0  0  0  0  0  0  0  0  0  0  0
    9.6316    1.9637   23.2107 H   0  0  0  0  0  0  0  0  0  0  0  0
    7.0325    0.4238   17.0175 H   0  0  0  0  0  0  0  0  0  0  0  0
    8.1151   -1.8109   21.3513 H   0  0  0  0  0  0  0  0  0  0  0  0
  1  2  1  0  0  0  0
  1  3  2  0  0  0  0
  2  4  2  0  0  0  0
  3 12  1  0  0  0  0
  4 14  1  0  0  0  0
  5  7  2  0  0  0  0
  5 15  1  0  0  0  0
  6  8  1  0  0  0  0
  6 15  2  0  0  0  0
  7 17  1  0  0  0  0
  8 17  2  0  0  0  0
  9 13  1  0  0  0  0
  9 22  2  0  0  0  0
 10 13  2  0  0  0  0
 10 24  1  0  0  0  0
 11 16  2  0  0  0  0
 11 23  1  0  0  0  0
 12 14  2  0  0  0  0
 12 16  1  0  0  0  0
 13 21  1  0  0  0  0
 14 23  1  0  0  0  0
 15 26  1  0  0  0  0
 16 25  1  0  0  0  0
 17 28  1  0  0  0  0
 18 25  1  0  0  0  0
 18 26  1  0  0  0  0
 18 27  2  0  0  0  0
 19 24  1  0  0  0  0
 20 28  1  0  0  0  0
 21 26  1  0  0  0  0
 22 24  1  0  0  0  0
  1 29  1  0  0  0  0
  2 30  1  0  0  0  0
  3 31  1  0  0  0  0
  4 32  1  0  0  0  0
  5 33  1  0  0  0  0
  6 34  1  0  0  0  0
  7 35  1  0  0  0  0
  8 36  1  0  0  0  0
  9 37  1  0  0  0  0
 10 38  1  0  0  0  0
 11 39  1  0  0  0  0
 19 40  1  0  0  0  0
 19 41  1  0  0  0  0
 19 42  1  0  0  0  0
 20 43  1  0  0  0  0
 20 44  1  0  0  0  0
 20 45  1  0  0  0  0
 21 46  1  0  0  0  0
 21 47  1  0  0  0  0
 23 48  1  0  0  0  0
 25 49  1  0  0  0  0
M  END
> <clash_score>
0

> <docking_score>
-8.084716796875

> <overlap_score>
0.9817348122596741

$$$$
BENZO_133_1
  -OEChem-08222022393D

 59 63  0     0  0  0  0  0  0999 V2000
   14.3082    0.9431   23.4783 C   0  0  0  0  0  0  0  0  0  0  0  0
    4.2970    1.6690   20.8430 C   0  0  0  0  0  0  0  0  0  0  0  0
   13.6391    0.3091   24.5251 C   0  0  0  0  0  0  0  0  0  0  0  0
   13.5841    1.6096   22.4898 C   0  0  0  0  0  0  0  0  0  0  0  0
    4.0980    2.1130   19.5350 C   0  0  0  0  0  0  0  0  0  0  0  0
    5.3360    0.8000   21.1530 C   0  0  0  0  0  0  0  0  0  0  0  0
   12.2459    0.3415   24.5835 C   0  0  0  0  0  0  0  0  0  0  0  0
   12.1908    1.6420   22.5481 C   0  0  0  0  0  0  0  0  0  0  0  0
    4.9400    1.7060   18.5060 C   0  0  0  0  0  0  0  0  0  0  0  0
    8.3310   -2.7170   25.3430 C   0  0  0  0  0  0  0  0  0  0  0  0
   10.2570   -3.5000   24.1350 C   0  0  0  0  0  0  0  0  0  0  0  0
    8.3510   -1.5420   24.6110 C   0  0  0  0  0  0  0  0  0  0  0  0
   10.2760   -2.3270   23.4020 C   0  0  0  0  0  0  0  0  0  0  0  0
    7.6830   -0.5170   18.7600 C   0  0  0  0  0  0  0  0  0  0  0  0
    6.1600    0.3870   20.1140 C   0  0  0  0  0  0  0  0  0  0  0  0
   11.5217    1.0079   23.5949 C   0  0  0  0  0  0  0  0  0  0  0  0
    5.9810    0.8330   18.8060 C   0  0  0  0  0  0  0  0  0  0  0  0
    9.2850   -3.7090   25.1090 C   0  0  0  0  0  0  0  0  0  0  0  0
    9.3300   -1.3350   23.6390 C   0  0  0  0  0  0  0  0  0  0  0  0
    7.2210   -0.4620   20.0350 C   0  0  0  0  0  0  0  0  0  0  0  0
    8.0635   -5.4710   26.3667 C   0  0  0  0  0  0  0  0  0  0  0  0
    8.9510    0.1280   21.6880 C   0  0  0  0  0  0  0  0  0  0  0  0
    8.2626   -6.7580   27.1475 C   0  0  0  0  0  0  0  0  0  0  0  0
    9.4048   -6.6156   28.1380 C   0  0  0  0  0  0  0  0  0  0  0  0
   10.6949   -6.1500   27.4702 C   0  0  0  0  0  0  0  0  0  0  0  0
   10.4942   -5.7069   26.0219 C   0  0  0  0  0  0  0  0  0  0  0  0
   10.0220    1.0430   23.6570 C   0  0  0  0  0  0  0  0  0  0  0  0
    6.9440    0.2550   18.0100 N   0  0  0  0  0  0  0  0  0  0  0  0
    9.2623   -4.9266   25.8635 N   0  0  0  0  0  0  0  0  0  0  0  0
    8.0810   -0.9750   21.0820 N   0  0  0  0  0  0  0  0  0  0  0  0
    9.4200   -0.0840   22.9530 N   0  0  0  0  0  0  0  0  0  0  0  0
    6.9244   -5.0476   26.1739 O   0  0  0  0  0  0  0  0  0  0  0  0
    9.1870    1.1500   21.0630 O   0  0  0  0  0  0  0  0  0  0  0  0
   15.3932    0.9189   23.4337 H   0  0  0  0  0  0  0  0  0  0  0  0
    3.6256    2.0106   21.6303 H   0  0  0  0  0  0  0  0  0  0  0  0
   14.2029   -0.2090   25.2955 H   0  0  0  0  0  0  0  0  0  0  0  0
   14.1048    2.1043   21.6752 H   0  0  0  0  0  0  0  0  0  0  0  0
    3.2724    2.7868   19.3204 H   0  0  0  0  0  0  0  0  0  0  0  0
    5.4858    0.4664   22.1692 H   0  0  0  0  0  0  0  0  0  0  0  0
   11.7330   -0.1555   25.4027 H   0  0  0  0  0  0  0  0  0  0  0  0
   11.6349    2.1636   21.7735 H   0  0  0  0  0  0  0  0  0  0  0  0
    4.7836    2.0664   17.4848 H   0  0  0  0  0  0  0  0  0  0  0  0
    7.5639   -2.8621   26.1045 H   0  0  0  0  0  0  0  0  0  0  0  0
   11.0141   -4.2644   23.9422 H   0  0  0  0  0  0  0  0  0  0  0  0
    7.5950   -0.7788   24.8007 H   0  0  0  0  0  0  0  0  0  0  0  0
   11.0408   -2.1861   22.6359 H   0  0  0  0  0  0  0  0  0  0  0  0
    8.5274   -1.0858   18.3384 H   0  0  0  0  0  0  0  0  0  0  0  0
    7.3516   -6.9810   27.6812 H   0  0  0  0  0  0  0  0  0  0  0  0
    8.4757   -7.5428   26.4371 H   0  0  0  0  0  0  0  0  0  0  0  0
    9.1234   -5.9016   28.9400 H   0  0  0  0  0  0  0  0  0  0  0  0
    9.5778   -7.5840   28.6491 H   0  0  0  0  0  0  0  0  0  0  0  0
   11.1305   -5.3108   28.0523 H   0  0  0  0  0  0  0  0  0  0  0  0
   11.4565   -6.9587   27.5131 H   0  0  0  0  0  0  0  0  0  0  0  0
   11.3212   -5.0729   25.7168 H   0  0  0  0  0  0  0  0  0  0  0  0
   10.4483   -6.5796   25.3796 H   0  0  0  0  0  0  0  0  0  0  0  0
    9.6778    1.0140   24.6966 H   0  0  0  0  0  0  0  0  0  0  0  0
    9.6316    1.9637   23.2107 H   0  0  0  0  0  0  0  0  0  0  0  0
    7.0325    0.4238   17.0175 H   0  0  0  0  0  0  0  0  0  0  0  0
    8.1334   -1.7992   21.3673 H   0  0  0  0  0  0  0  0  0  0  0  0
  1  3  1  0  0  0  0
  1  4  2  0  0  0  0
  2  5  1  0  0  0  0
  2  6  2  0  0  0  0
  3  7  2  0  0  0  0
  4  8  1  0  0  0  0
  5  9  2  0  0  0  0
  6 15  1  0  0  0  0
  7 16  1  0  0  0  0
  8 16  2  0  0  0  0
  9 17  1  0  0  0  0
 10 12  2  0  0  0  0
 10 18  1  0  0  0  0
 11 13  1  0  0  0  0
 11 18  2  0  0  0  0
 12 19  1  0  0  0  0
 13 19  2  0  0  0  0
 14 20  2  0  0  0  0
 14 28  1  0  0  0  0
 15 17  2  0  0  0  0
 15 20  1  0  0  0  0
 16 27  1  0  0  0  0
 17 28  1  0  0  0  0
 18 29  1  0  0  0  0
 19 31  1  0  0  0  0
 20 30  1  0  0  0  0
 21 23  1  0  0  0  0
 21 29  1  0  0  0  0
 21 32  2  0  0  0  0
 22 30  1  0  0  0  0
 22 31  1  0  0  0  0
 22 33  2  0  0  0  0
 23 24  1  0  0  0  0
 24 25  1  0  0  0  0
 25 26  1  0  0  0  0
 26 29  1  0  0  0  0
 27 31  1  0  0  0  0
  1 34  1  0  0  0  0
  2 35  1  0  0  0  0
  3 36  1  0  0  0  0
  4 37  1  0  0  0  0
  5 38  1  0  0  0  0
  6 39  1  0  0  0  0
  7 40  1  0  0  0  0
  8 41  1  0  0  0  0
  9 42  1  0  0  0  0
 10 43  1  0  0  0  0
 11 44  1  0  0  0  0
 12 45  1  0  0  0  0
 13 46  1  0  0  0  0
 14 47  1  0  0  0  0
 23 48  1  0  0  0  0
 23 49  1  0  0  0  0
 24 50  1  0  0  0  0
 24 51  1  0  0  0  0
 25 52  1  0  0  0  0
 25 53  1  0  0  0  0
 26 54  1  0  0  0  0
 26 55  1  0  0  0  0
 27 56  1  0  0  0  0
 27 57  1  0  0  0  0
 28 58  1  0  0  0  0
 30 59  1  0  0  0  0
M  END
> <clash_score>
1.272782601224562

> <docking_score>
-6.356598854064941

> <overlap_score>
1.0159268379211426

$$$$
BENZO_132_1
  -OEChem-08222022393D

 56 60  0     0  0  0  0  0  0999 V2000
    4.2970    1.6690   20.8430 C   0  0  0  0  0  0  0  0  0  0  0  0
    4.0980    2.1130   19.5350 C   0  0  0  0  0  0  0  0  0  0  0  0
    5.3360    0.8000   21.1530 C   0  0  0  0  0  0  0  0  0  0  0  0
    4.9400    1.7060   18.5060 C   0  0  0  0  0  0  0  0  0  0  0  0
    8.3310   -2.7170   25.3430 C   0  0  0  0  0  0  0  0  0  0  0  0
   10.2570   -3.5000   24.1350 C   0  0  0  0  0  0  0  0  0  0  0  0
    8.3510   -1.5420   24.6110 C   0  0  0  0  0  0  0  0  0  0  0  0
   10.2760   -2.3270   23.4020 C   0  0  0  0  0  0  0  0  0  0  0  0
   12.2675    1.0332   22.3812 C   0  0  0  0  0  0  0  0  0  0  0  0
    7.6830   -0.5170   18.7600 C   0  0  0  0  0  0  0  0  0  0  0  0
   13.6257    0.9906   22.6074 C   0  0  0  0  0  0  0  0  0  0  0  0
   12.3384    0.9467   24.7028 C   0  0  0  0  0  0  0  0  0  0  0  0
    6.1600    0.3870   20.1140 C   0  0  0  0  0  0  0  0  0  0  0  0
   11.5217    1.0079   23.5949 C   0  0  0  0  0  0  0  0  0  0  0  0
    5.9810    0.8330   18.8060 C   0  0  0  0  0  0  0  0  0  0  0  0
    9.2850   -3.7090   25.1090 C   0  0  0  0  0  0  0  0  0  0  0  0
    9.3300   -1.3350   23.6390 C   0  0  0  0  0  0  0  0  0  0  0  0
    7.2210   -0.4620   20.0350 C   0  0  0  0  0  0  0  0  0  0  0  0
    8.0635   -5.4710   26.3667 C   0  0  0  0  0  0  0  0  0  0  0  0
    8.9510    0.1280   21.6880 C   0  0  0  0  0  0  0  0  0  0  0  0
    8.2626   -6.7580   27.1475 C   0  0  0  0  0  0  0  0  0  0  0  0
    9.4048   -6.6156   28.1380 C   0  0  0  0  0  0  0  0  0  0  0  0
   10.6949   -6.1500   27.4702 C   0  0  0  0  0  0  0  0  0  0  0  0
   10.4942   -5.7069   26.0219 C   0  0  0  0  0  0  0  0  0  0  0  0
   10.0220    1.0430   23.6570 C   0  0  0  0  0  0  0  0  0  0  0  0
    6.9440    0.2550   18.0100 N   0  0  0  0  0  0  0  0  0  0  0  0
    9.2623   -4.9266   25.8635 N   0  0  0  0  0  0  0  0  0  0  0  0
    8.0810   -0.9750   21.0820 N   0  0  0  0  0  0  0  0  0  0  0  0
    9.4200   -0.0840   22.9530 N   0  0  0  0  0  0  0  0  0  0  0  0
    6.9244   -5.0476   26.1739 O   0  0  0  0  0  0  0  0  0  0  0  0
    9.1870    1.1500   21.0630 O   0  0  0  0  0  0  0  0  0  0  0  0
   13.9969    0.9203   24.2776 S   0  0  0  0  0  0  0  0  0  0  0  0
    3.6256    2.0106   21.6303 H   0  0  0  0  0  0  0  0  0  0  0  0
    3.2724    2.7868   19.3204 H   0  0  0  0  0  0  0  0  0  0  0  0
    5.4858    0.4664   22.1692 H   0  0  0  0  0  0  0  0  0  0  0  0
    4.7836    2.0664   17.4848 H   0  0  0  0  0  0  0  0  0  0  0  0
    7.5639   -2.8621   26.1045 H   0  0  0  0  0  0  0  0  0  0  0  0
   11.0141   -4.2644   23.9422 H   0  0  0  0  0  0  0  0  0  0  0  0
    7.5950   -0.7788   24.8007 H   0  0  0  0  0  0  0  0  0  0  0  0
   11.0408   -2.1861   22.6359 H   0  0  0  0  0  0  0  0  0  0  0  0
   11.8338    1.0798   21.3902 H   0  0  0  0  0  0  0  0  0  0  0  0
    8.5274   -1.0858   18.3384 H   0  0  0  0  0  0  0  0  0  0  0  0
   14.4176    0.9966   21.8719 H   0  0  0  0  0  0  0  0  0  0  0  0
   12.0446    0.9149   25.7428 H   0  0  0  0  0  0  0  0  0  0  0  0
    7.3516   -6.9810   27.6812 H   0  0  0  0  0  0  0  0  0  0  0  0
    8.4757   -7.5428   26.4371 H   0  0  0  0  0  0  0  0  0  0  0  0
    9.1234   -5.9016   28.9400 H   0  0  0  0  0  0  0  0  0  0  0  0
    9.5778   -7.5840   28.6491 H   0  0  0  0  0  0  0  0  0  0  0  0
   11.1305   -5.3108   28.0523 H   0  0  0  0  0  0  0  0  0  0  0  0
   11.4565   -6.9587   27.5131 H   0  0  0  0  0  0  0  0  0  0  0  0
   11.3212   -5.0729   25.7168 H   0  0  0  0  0  0  0  0  0  0  0  0
   10.4483   -6.5796   25.3796 H   0  0  0  0  0  0  0  0  0  0  0  0
    9.6778    1.0140   24.6966 H   0  0  0  0  0  0  0  0  0  0  0  0
    9.6316    1.9637   23.2107 H   0  0  0  0  0  0  0  0  0  0  0  0
    7.0325    0.4238   17.0175 H   0  0  0  0  0  0  0  0  0  0  0  0
    8.1334   -1.7992   21.3673 H   0  0  0  0  0  0  0  0  0  0  0  0
  1  2  1  0  0  0  0
  1  3  2  0  0  0  0
  2  4  2  0  0  0  0
  3 13  1  0  0  0  0
  4 15  1  0  0  0  0
  5  7  2  0  0  0  0
  5 16  1  0  0  0  0
  6  8  1  0  0  0  0
  6 16  2  0  0  0  0
  7 17  1  0  0  0  0
  8 17  2  0  0  0  0
  9 11  2  0  0  0  0
  9 14  1  0  0  0  0
 10 18  2  0  0  0  0
 10 26  1  0  0  0  0
 11 32  1  0  0  0  0
 12 14  2  0  0  0  0
 12 32  1  0  0  0  0
 13 15  2  0  0  0  0
 13 18  1  0  0  0  0
 14 25  1  0  0  0  0
 15 26  1  0  0  0  0
 16 27  1  0  0  0  0
 17 29  1  0  0  0  0
 18 28  1  0  0  0  0
 19 21  1  0  0  0  0
 19 27  1  0  0  0  0
 19 30  2  0  0  0  0
 20 28  1  0  0  0  0
 20 29  1  0  0  0  0
 20 31  2  0  0  0  0
 21 22  1  0  0  0  0
 22 23  1  0  0  0  0
 23 24  1  0  0  0  0
 24 27  1  0  0  0  0
 25 29  1  0  0  0  0
  1 33  1  0  0  0  0
  2 34  1  0  0  0  0
  3 35  1  0  0  0  0
  4 36  1  0  0  0  0
  5 37  1  0  0  0  0
  6 38  1  0  0  0  0
  7 39  1  0  0  0  0
  8 40  1  0  0  0  0
  9 41  1  0  0  0  0
 10 42  1  0  0  0  0
 11 43  1  0  0  0  0
 12 44  1  0  0  0  0
 21 45  1  0  0  0  0
 21 46  1  0  0  0  0
 22 47  1  0  0  0  0
 22 48  1  0  0  0  0
 23 49  1  0  0  0  0
 23 50  1  0  0  0  0
 24 51  1  0  0  0  0
 24 52  1  0  0  0  0
 25 53  1  0  0  0  0
 25 54  1  0  0  0  0
 26 55  1  0  0  0  0
 28 56  1  0  0  0  0
M  END
> <clash_score>
1.272782601224562

> <docking_score>
-6.602802276611328

> <overlap_score>
0.9903323650360107

$$$$
BENZO_137_1
  -OEChem-08222022393D

 58 62  0     0  0  0  0  0  0999 V2000
   14.3082    0.9431   23.4783 C   0  0  0  0  0  0  0  0  0  0  0  0
    4.2970    1.6690   20.8430 C   0  0  0  0  0  0  0  0  0  0  0  0
   13.6391    0.3091   24.5251 C   0  0  0  0  0  0  0  0  0  0  0  0
   13.5841    1.6096   22.4898 C   0  0  0  0  0  0  0  0  0  0  0  0
    4.0980    2.1130   19.5350 C   0  0  0  0  0  0  0  0  0  0  0  0
    5.3360    0.8000   21.1530 C   0  0  0  0  0  0  0  0  0  0  0  0
   12.2459    0.3415   24.5834 C   0  0  0  0  0  0  0  0  0  0  0  0
   12.1908    1.6420   22.5481 C   0  0  0  0  0  0  0  0  0  0  0  0
    4.9400    1.7060   18.5060 C   0  0  0  0  0  0  0  0  0  0  0  0
    8.3310   -2.7170   25.3430 C   0  0  0  0  0  0  0  0  0  0  0  0
   10.2570   -3.5000   24.1350 C   0  0  0  0  0  0  0  0  0  0  0  0
    8.3510   -1.5420   24.6110 C   0  0  0  0  0  0  0  0  0  0  0  0
   10.2760   -2.3270   23.4020 C   0  0  0  0  0  0  0  0  0  0  0  0
    7.6830   -0.5170   18.7600 C   0  0  0  0  0  0  0  0  0  0  0  0
    6.1600    0.3870   20.1140 C   0  0  0  0  0  0  0  0  0  0  0  0
   11.5217    1.0079   23.5949 C   0  0  0  0  0  0  0  0  0  0  0  0
    5.9810    0.8330   18.8060 C   0  0  0  0  0  0  0  0  0  0  0  0
    9.2850   -3.7090   25.1090 C   0  0  0  0  0  0  0  0  0  0  0  0
    9.3300   -1.3350   23.6390 C   0  0  0  0  0  0  0  0  0  0  0  0
    7.2210   -0.4620   20.0350 C   0  0  0  0  0  0  0  0  0  0  0  0
    8.9510    0.1280   21.6880 C   0  0  0  0  0  0  0  0  0  0  0  0
    8.7664   -4.9511   27.2147 C   0  0  0  0  0  0  0  0  0  0  0  0
    9.3037   -6.1872   25.1662 C   0  0  0  0  0  0  0  0  0  0  0  0
    7.3825   -5.5915   27.2001 C   0  0  0  0  0  0  0  0  0  0  0  0
    7.9027   -6.7973   25.2278 C   0  0  0  0  0  0  0  0  0  0  0  0
   10.0220    1.0430   23.6570 C   0  0  0  0  0  0  0  0  0  0  0  0
    6.9440    0.2550   18.0100 N   0  0  0  0  0  0  0  0  0  0  0  0
    9.2640   -4.8844   25.8389 N   0  0  0  0  0  0  0  0  0  0  0  0
    8.0810   -0.9750   21.0820 N   0  0  0  0  0  0  0  0  0  0  0  0
    9.4200   -0.0840   22.9530 N   0  0  0  0  0  0  0  0  0  0  0  0
    9.1870    1.1500   21.0630 O   0  0  0  0  0  0  0  0  0  0  0  0
    7.4484   -6.8829   26.5831 O   0  0  0  0  0  0  0  0  0  0  0  0
   15.3932    0.9189   23.4337 H   0  0  0  0  0  0  0  0  0  0  0  0
    3.6256    2.0106   21.6303 H   0  0  0  0  0  0  0  0  0  0  0  0
   14.2029   -0.2090   25.2955 H   0  0  0  0  0  0  0  0  0  0  0  0
   14.1048    2.1043   21.6752 H   0  0  0  0  0  0  0  0  0  0  0  0
    3.2724    2.7868   19.3204 H   0  0  0  0  0  0  0  0  0  0  0  0
    5.4858    0.4664   22.1692 H   0  0  0  0  0  0  0  0  0  0  0  0
   11.7330   -0.1555   25.4027 H   0  0  0  0  0  0  0  0  0  0  0  0
   11.6349    2.1636   21.7735 H   0  0  0  0  0  0  0  0  0  0  0  0
    4.7836    2.0664   17.4848 H   0  0  0  0  0  0  0  0  0  0  0  0
    7.5647   -2.8621   26.1053 H   0  0  0  0  0  0  0  0  0  0  0  0
   11.0144   -4.2642   23.9425 H   0  0  0  0  0  0  0  0  0  0  0  0
    7.5958   -0.7779   24.8006 H   0  0  0  0  0  0  0  0  0  0  0  0
   11.0406   -2.1848   22.6356 H   0  0  0  0  0  0  0  0  0  0  0  0
    8.5274   -1.0858   18.3384 H   0  0  0  0  0  0  0  0  0  0  0  0
    8.7052   -3.9541   27.6627 H   0  0  0  0  0  0  0  0  0  0  0  0
    9.4487   -5.5619   27.8169 H   0  0  0  0  0  0  0  0  0  0  0  0
   10.0120   -6.8401   25.6836 H   0  0  0  0  0  0  0  0  0  0  0  0
    9.6139   -6.0860   24.1243 H   0  0  0  0  0  0  0  0  0  0  0  0
    7.0278   -5.7316   28.2234 H   0  0  0  0  0  0  0  0  0  0  0  0
    6.6540   -4.9673   26.6750 H   0  0  0  0  0  0  0  0  0  0  0  0
    7.1864   -6.2190   24.6326 H   0  0  0  0  0  0  0  0  0  0  0  0
    7.9250   -7.8129   24.8210 H   0  0  0  0  0  0  0  0  0  0  0  0
    9.6778    1.0140   24.6966 H   0  0  0  0  0  0  0  0  0  0  0  0
    9.6316    1.9637   23.2107 H   0  0  0  0  0  0  0  0  0  0  0  0
    7.0325    0.4238   17.0175 H   0  0  0  0  0  0  0  0  0  0  0  0
    8.1151   -1.8109   21.3513 H   0  0  0  0  0  0  0  0  0  0  0  0
  1  3  1  0  0  0  0
  1  4  2  0  0  0  0
  2  5  1  0  0  0  0
  2  6  2  0  0  0  0
  3  7  2  0  0  0  0
  4  8  1  0  0  0  0
  5  9  2  0  0  0  0
  6 15  1  0  0  0  0
  7 16  1  0  0  0  0
  8 16  2  0  0  0  0
  9 17  1  0  0  0  0
 10 12  2  0  0  0  0
 10 18  1  0  0  0  0
 11 13  1  0  0  0  0
 11 18  2  0  0  0  0
 12 19  1  0  0  0  0
 13 19  2  0  0  0  0
 14 20  2  0  0  0  0
 14 27  1  0  0  0  0
 15 17  2  0  0  0  0
 15 20  1  0  0  0  0
 16 26  1  0  0  0  0
 17 27  1  0  0  0  0
 18 28  1  0  0  0  0
 19 30  1  0  0  0  0
 20 29  1  0  0  0  0
 21 29  1  0  0  0  0
 21 30  1  0  0  0  0
 21 31  2  0  0  0  0
 22 24  1  0  0  0  0
 22 28  1  0  0  0  0
 23 25  1  0  0  0  0
 23 28  1  0  0  0  0
 24 32  1  0  0  0  0
 25 32  1  0  0  0  0
 26 30  1  0  0  0  0
  1 33  1  0  0  0  0
  2 34  1  0  0  0  0
  3 35  1  0  0  0  0
  4 36  1  0  0  0  0
  5 37  1  0  0  0  0
  6 38  1  0  0  0  0
  7 39  1  0  0  0  0
  8 40  1  0  0  0  0
  9 41  1  0  0  0  0
 10 42  1  0  0  0  0
 11 43  1  0  0  0  0
 12 44  1  0  0  0  0
 13 45  1  0  0  0  0
 14 46  1  0  0  0  0
 22 47  1  0  0  0  0
 22 48  1  0  0  0  0
 23 49  1  0  0  0  0
 23 50  1  0  0  0  0
 24 51  1  0  0  0  0
 24 52  1  0  0  0  0
 25 53  1  0  0  0  0
 25 54  1  0  0  0  0
 26 55  1  0  0  0  0
 26 56  1  0  0  0  0
 27 57  1  0  0  0  0
 29 58  1  0  0  0  0
M  END
> <clash_score>
0

> <docking_score>
-7.601934909820557

> <overlap_score>
1.0165210962295532

$$$$
BENZO_136_1
  -OEChem-08222022393D

 55 59  0     0  0  0  0  0  0999 V2000
    4.2970    1.6690   20.8430 C   0  0  0  0  0  0  0  0  0  0  0  0
    4.0980    2.1130   19.5350 C   0  0  0  0  0  0  0  0  0  0  0  0
    5.3360    0.8000   21.1530 C   0  0  0  0  0  0  0  0  0  0  0  0
    4.9400    1.7060   18.5060 C   0  0  0  0  0  0  0  0  0  0  0  0
    8.3310   -2.7170   25.3430 C   0  0  0  0  0  0  0  0  0  0  0  0
   10.2570   -3.5000   24.1350 C   0  0  0  0  0  0  0  0  0  0  0  0
    8.3510   -1.5420   24.6110 C   0  0  0  0  0  0  0  0  0  0  0  0
   10.2760   -2.3270   23.4020 C   0  0  0  0  0  0  0  0  0  0  0  0
   12.2675    1.0332   22.3812 C   0  0  0  0  0  0  0  0  0  0  0  0
    7.6830   -0.5170   18.7600 C   0  0  0  0  0  0  0  0  0  0  0  0
   13.6257    0.9906   22.6074 C   0  0  0  0  0  0  0  0  0  0  0  0
   12.3384    0.9467   24.7028 C   0  0  0  0  0  0  0  0  0  0  0  0
    6.1600    0.3870   20.1140 C   0  0  0  0  0  0  0  0  0  0  0  0
   11.5217    1.0079   23.5949 C   0  0  0  0  0  0  0  0  0  0  0  0
    5.9810    0.8330   18.8060 C   0  0  0  0  0  0  0  0  0  0  0  0
    9.2850   -3.7090   25.1090 C   0  0  0  0  0  0  0  0  0  0  0  0
    9.3300   -1.3350   23.6390 C   0  0  0  0  0  0  0  0  0  0  0  0
    7.2210   -0.4620   20.0350 C   0  0  0  0  0  0  0  0  0  0  0  0
    8.9510    0.1280   21.6880 C   0  0  0  0  0  0  0  0  0  0  0  0
    8.7664   -4.9511   27.2147 C   0  0  0  0  0  0  0  0  0  0  0  0
    9.3037   -6.1872   25.1662 C   0  0  0  0  0  0  0  0  0  0  0  0
    7.3825   -5.5915   27.2001 C   0  0  0  0  0  0  0  0  0  0  0  0
    7.9027   -6.7973   25.2278 C   0  0  0  0  0  0  0  0  0  0  0  0
   10.0220    1.0430   23.6570 C   0  0  0  0  0  0  0  0  0  0  0  0
    6.9440    0.2550   18.0100 N   0  0  0  0  0  0  0  0  0  0  0  0
    9.2640   -4.8844   25.8389 N   0  0  0  0  0  0  0  0  0  0  0  0
    8.0810   -0.9750   21.0820 N   0  0  0  0  0  0  0  0  0  0  0  0
    9.4200   -0.0840   22.9530 N   0  0  0  0  0  0  0  0  0  0  0  0
    9.1870    1.1500   21.0630 O   0  0  0  0  0  0  0  0  0  0  0  0
    7.4484   -6.8829   26.5831 O   0  0  0  0  0  0  0  0  0  0  0  0
   13.9969    0.9203   24.2776 S   0  0  0  0  0  0  0  0  0  0  0  0
    3.6256    2.0106   21.6303 H   0  0  0  0  0  0  0  0  0  0  0  0
    3.2724    2.7868   19.3204 H   0  0  0  0  0  0  0  0  0  0  0  0
    5.4858    0.4664   22.1692 H   0  0  0  0  0  0  0  0  0  0  0  0
    4.7836    2.0664   17.4848 H   0  0  0  0  0  0  0  0  0  0  0  0
    7.5647   -2.8621   26.1053 H   0  0  0  0  0  0  0  0  0  0  0  0
   11.0144   -4.2642   23.9425 H   0  0  0  0  0  0  0  0  0  0  0  0
    7.5958   -0.7779   24.8006 H   0  0  0  0  0  0  0  0  0  0  0  0
   11.0406   -2.1848   22.6356 H   0  0  0  0  0  0  0  0  0  0  0  0
   11.8338    1.0798   21.3902 H   0  0  0  0  0  0  0  0  0  0  0  0
    8.5274   -1.0858   18.3384 H   0  0  0  0  0  0  0  0  0  0  0  0
   14.4176    0.9966   21.8719 H   0  0  0  0  0  0  0  0  0  0  0  0
   12.0446    0.9149   25.7428 H   0  0  0  0  0  0  0  0  0  0  0  0
    8.7052   -3.9541   27.6627 H   0  0  0  0  0  0  0  0  0  0  0  0
    9.4487   -5.5619   27.8169 H   0  0  0  0  0  0  0  0  0  0  0  0
   10.0120   -6.8401   25.6836 H   0  0  0  0  0  0  0  0  0  0  0  0
    9.6139   -6.0860   24.1243 H   0  0  0  0  0  0  0  0  0  0  0  0
    7.0278   -5.7316   28.2234 H   0  0  0  0  0  0  0  0  0  0  0  0
    6.6540   -4.9673   26.6750 H   0  0  0  0  0  0  0  0  0  0  0  0
    7.1864   -6.2190   24.6326 H   0  0  0  0  0  0  0  0  0  0  0  0
    7.9250   -7.8129   24.8210 H   0  0  0  0  0  0  0  0  0  0  0  0
    9.6778    1.0140   24.6966 H   0  0  0  0  0  0  0  0  0  0  0  0
    9.6316    1.9637   23.2107 H   0  0  0  0  0  0  0  0  0  0  0  0
    7.0325    0.4238   17.0175 H   0  0  0  0  0  0  0  0  0  0  0  0
    8.1151   -1.8109   21.3513 H   0  0  0  0  0  0  0  0  0  0  0  0
  1  2  1  0  0  0  0
  1  3  2  0  0  0  0
  2  4  2  0  0  0  0
  3 13  1  0  0  0  0
  4 15  1  0  0  0  0
  5  7  2  0  0  0  0
  5 16  1  0  0  0  0
  6  8  1  0  0  0  0
  6 16  2  0  0  0  0
  7 17  1  0  0  0  0
  8 17  2  0  0  0  0
  9 11  2  0  0  0  0
  9 14  1  0  0  0  0
 10 18  2  0  0  0  0
 10 25  1  0  0  0  0
 11 31  1  0  0  0  0
 12 14  2  0  0  0  0
 12 31  1  0  0  0  0
 13 15  2  0  0  0  0
 13 18  1  0  0  0  0
 14 24  1  0  0  0  0
 15 25  1  0  0  0  0
 16 26  1  0  0  0  0
 17 28  1  0  0  0  0
 18 27  1  0  0  0  0
 19 27  1  0  0  0  0
 19 28  1  0  0  0  0
 19 29  2  0  0  0  0
 20 22  1  0  0  0  0
 20 26  1  0  0  0  0
 21 23  1  0  0  0  0
 21 26  1  0  0  0  0
 22 30  1  0  0  0  0
 23 30  1  0  0  0  0
 24 28  1  0  0  0  0
  1 32  1  0  0  0  0
  2 33  1  0  0  0  0
  3 34  1  0  0  0  0
  4 35  1  0  0  0  0
  5 36  1  0  0  0  0
  6 37  1  0  0  0  0
  7 38  1  0  0  0  0
  8 39  1  0  0  0  0
  9 40  1  0  0  0  0
 10 41  1  0  0  0  0
 11 42  1  0  0  0  0
 12 43  1  0  0  0  0
 20 44  1  0  0  0  0
 20 45  1  0  0  0  0
 21 46  1  0  0  0  0
 21 47  1  0  0  0  0
 22 48  1  0  0  0  0
 22 49  1  0  0  0  0
 23 50  1  0  0  0  0
 23 51  1  0  0  0  0
 24 52  1  0  0  0  0
 24 53  1  0  0  0  0
 25 54  1  0  0  0  0
 27 55  1  0  0  0  0
M  END
> <clash_score>
0

> <docking_score>
-7.848142147064209

> <overlap_score>
0.9908817410469055

$$$$
BENZO_135_1
  -OEChem-08222022393D

 59 63  0     0  0  0  0  0  0999 V2000
    4.2970    1.6690   20.8430 C   0  0  0  0  0  0  0  0  0  0  0  0
    4.0980    2.1130   19.5350 C   0  0  0  0  0  0  0  0  0  0  0  0
    5.3360    0.8000   21.1530 C   0  0  0  0  0  0  0  0  0  0  0  0
    4.9400    1.7060   18.5060 C   0  0  0  0  0  0  0  0  0  0  0  0
    8.3310   -2.7170   25.3430 C   0  0  0  0  0  0  0  0  0  0  0  0
   10.2570   -3.5000   24.1350 C   0  0  0  0  0  0  0  0  0  0  0  0
    8.3510   -1.5420   24.6110 C   0  0  0  0  0  0  0  0  0  0  0  0
   10.2760   -2.3270   23.4020 C   0  0  0  0  0  0  0  0  0  0  0  0
   12.4359    1.7439   24.3724 C   0  0  0  0  0  0  0  0  0  0  0  0
   12.3100    0.2469   22.7668 C   0  0  0  0  0  0  0  0  0  0  0  0
    7.6830   -0.5170   18.7600 C   0  0  0  0  0  0  0  0  0  0  0  0
    6.1600    0.3870   20.1140 C   0  0  0  0  0  0  0  0  0  0  0  0
   11.5217    1.0079   23.5949 C   0  0  0  0  0  0  0  0  0  0  0  0
    5.9810    0.8330   18.8060 C   0  0  0  0  0  0  0  0  0  0  0  0
    9.2850   -3.7090   25.1090 C   0  0  0  0  0  0  0  0  0  0  0  0
    9.3300   -1.3350   23.6390 C   0  0  0  0  0  0  0  0  0  0  0  0
    7.2210   -0.4620   20.0350 C   0  0  0  0  0  0  0  0  0  0  0  0
    8.2934   -5.1724   26.8574 C   0  0  0  0  0  0  0  0  0  0  0  0
    8.9510    0.1280   21.6880 C   0  0  0  0  0  0  0  0  0  0  0  0
    8.4443   -6.5251   27.5306 C   0  0  0  0  0  0  0  0  0  0  0  0
    8.6421   -7.6210   26.4982 C   0  0  0  0  0  0  0  0  0  0  0  0
    9.8032   -7.3237   25.5546 C   0  0  0  0  0  0  0  0  0  0  0  0
   10.3452   -5.9024   25.6995 C   0  0  0  0  0  0  0  0  0  0  0  0
   14.7884    0.0124   22.4815 C   0  0  0  0  0  0  0  0  0  0  0  0
   10.0220    1.0430   23.6570 C   0  0  0  0  0  0  0  0  0  0  0  0
   13.7076    1.4745   24.0657 N   0  0  0  0  0  0  0  0  0  0  0  0
    6.9440    0.2550   18.0100 N   0  0  0  0  0  0  0  0  0  0  0  0
   13.5982    0.5607   23.0864 N   0  0  0  0  0  0  0  0  0  0  0  0
    9.2623   -4.9267   25.8636 N   0  0  0  0  0  0  0  0  0  0  0  0
    8.0810   -0.9750   21.0820 N   0  0  0  0  0  0  0  0  0  0  0  0
    9.4200   -0.0840   22.9530 N   0  0  0  0  0  0  0  0  0  0  0  0
    7.4269   -4.3921   27.2503 O   0  0  0  0  0  0  0  0  0  0  0  0
    9.1870    1.1500   21.0630 O   0  0  0  0  0  0  0  0  0  0  0  0
    3.6256    2.0106   21.6303 H   0  0  0  0  0  0  0  0  0  0  0  0
    3.2724    2.7868   19.3204 H   0  0  0  0  0  0  0  0  0  0  0  0
    5.4858    0.4664   22.1692 H   0  0  0  0  0  0  0  0  0  0  0  0
    4.7836    2.0664   17.4848 H   0  0  0  0  0  0  0  0  0  0  0  0
    7.5639   -2.8621   26.1045 H   0  0  0  0  0  0  0  0  0  0  0  0
   11.0141   -4.2644   23.9422 H   0  0  0  0  0  0  0  0  0  0  0  0
    7.5950   -0.7788   24.8007 H   0  0  0  0  0  0  0  0  0  0  0  0
   11.0408   -2.1861   22.6359 H   0  0  0  0  0  0  0  0  0  0  0  0
   12.2308    2.4652   25.1508 H   0  0  0  0  0  0  0  0  0  0  0  0
   12.0700   -0.4744   21.9974 H   0  0  0  0  0  0  0  0  0  0  0  0
    8.5274   -1.0858   18.3384 H   0  0  0  0  0  0  0  0  0  0  0  0
    9.3021   -6.4901   28.1844 H   0  0  0  0  0  0  0  0  0  0  0  0
    7.5489   -6.7067   28.1060 H   0  0  0  0  0  0  0  0  0  0  0  0
    8.8161   -8.5925   27.0061 H   0  0  0  0  0  0  0  0  0  0  0  0
    7.7102   -7.7540   25.9127 H   0  0  0  0  0  0  0  0  0  0  0  0
   10.6240   -8.0484   25.7384 H   0  0  0  0  0  0  0  0  0  0  0  0
    9.4907   -7.5005   24.5024 H   0  0  0  0  0  0  0  0  0  0  0  0
   10.9741   -5.8406   26.5826 H   0  0  0  0  0  0  0  0  0  0  0  0
   10.9262   -5.6455   24.8203 H   0  0  0  0  0  0  0  0  0  0  0  0
   15.0569    0.6453   21.6315 H   0  0  0  0  0  0  0  0  0  0  0  0
   15.5971   -0.0026   23.2175 H   0  0  0  0  0  0  0  0  0  0  0  0
   14.5870   -1.0100   22.1498 H   0  0  0  0  0  0  0  0  0  0  0  0
    9.6778    1.0140   24.6966 H   0  0  0  0  0  0  0  0  0  0  0  0
    9.6316    1.9637   23.2107 H   0  0  0  0  0  0  0  0  0  0  0  0
    7.0325    0.4238   17.0175 H   0  0  0  0  0  0  0  0  0  0  0  0
    8.1334   -1.7992   21.3673 H   0  0  0  0  0  0  0  0  0  0  0  0
  1  2  1  0  0  0  0
  1  3  2  0  0  0  0
  2  4  2  0  0  0  0
  3 12  1  0  0  0  0
  4 14  1  0  0  0  0
  5  7  2  0  0  0  0
  5 15  1  0  0  0  0
  6  8  1  0  0  0  0
  6 15  2  0  0  0  0
  7 16  1  0  0  0  0
  8 16  2  0  0  0  0
  9 13  1  0  0  0  0
  9 26  2  0  0  0  0
 10 13  2  0  0  0  0
 10 28  1  0  0  0  0
 11 17  2  0  0  0  0
 11 27  1  0  0  0  0
 12 14  2  0  0  0  0
 12 17  1  0  0  0  0
 13 25  1  0  0  0  0
 14 27  1  0  0  0  0
 15 29  1  0  0  0  0
 16 31  1  0  0  0  0
 17 30  1  0  0  0  0
 18 20  1  0  0  0  0
 18 29  1  0  0  0  0
 18 32  2  0  0  0  0
 19 30  1  0  0  0  0
 19 31  1  0  0  0  0
 19 33  2  0  0  0  0
 20 21  1  0  0  0  0
 21 22  1  0  0  0  0
 22 23  1  0  0  0  0
 23 29  1  0  0  0  0
 24 28  1  0  0  0  0
 25 31  1  0  0  0  0
 26 28  1  0  0  0  0
  1 34  1  0  0  0  0
  2 35  1  0  0  0  0
  3 36  1  0  0  0  0
  4 37  1  0  0  0  0
  5 38  1  0  0  0  0
  6 39  1  0  0  0  0
  7 40  1  0  0  0  0
  8 41  1  0  0  0  0
  9 42  1  0  0  0  0
 10 43  1  0  0  0  0
 11 44  1  0  0  0  0
 20 45  1  0  0  0  0
 20 46  1  0  0  0  0
 21 47  1  0  0  0  0
 21 48  1  0  0  0  0
 22 49  1  0  0  0  0
 22 50  1  0  0  0  0
 23 51  1  0  0  0  0
 23 52  1  0  0  0  0
 24 53  1  0  0  0  0
 24 54  1  0  0  0  0
 24 55  1  0  0  0  0
 25 56  1  0  0  0  0
 25 57  1  0  0  0  0
 27 58  1  0  0  0  0
 30 59  1  0  0  0  0
M  END
> <clash_score>
0.6927847163055834

> <docking_score>
-6.346888542175293

> <overlap_score>
1.0033576488494873

$$$$
BENZO_134_1
  -OEChem-08222022393D

 59 63  0     0  0  0  0  0  0999 V2000
    4.2970    1.6690   20.8430 C   0  0  0  0  0  0  0  0  0  0  0  0
    4.0980    2.1130   19.5350 C   0  0  0  0  0  0  0  0  0  0  0  0
   13.5977    1.8457   22.6865 C   0  0  0  0  0  0  0  0  0  0  0  0
    5.3360    0.8000   21.1530 C   0  0  0  0  0  0  0  0  0  0  0  0
   12.2044    1.8769   22.7438 C   0  0  0  0  0  0  0  0  0  0  0  0
    4.9400    1.7060   18.5060 C   0  0  0  0  0  0  0  0  0  0  0  0
    8.3310   -2.7170   25.3430 C   0  0  0  0  0  0  0  0  0  0  0  0
   10.2570   -3.5000   24.1350 C   0  0  0  0  0  0  0  0  0  0  0  0
    8.3510   -1.5420   24.6110 C   0  0  0  0  0  0  0  0  0  0  0  0
   10.2760   -2.3270   23.4020 C   0  0  0  0  0  0  0  0  0  0  0  0
   14.3084    0.9453   23.4803 C   0  0  0  0  0  0  0  0  0  0  0  0
   12.2323    0.1076   24.3888 C   0  0  0  0  0  0  0  0  0  0  0  0
    7.6830   -0.5170   18.7600 C   0  0  0  0  0  0  0  0  0  0  0  0
    6.1600    0.3870   20.1140 C   0  0  0  0  0  0  0  0  0  0  0  0
   11.5217    1.0079   23.5949 C   0  0  0  0  0  0  0  0  0  0  0  0
    5.9810    0.8330   18.8060 C   0  0  0  0  0  0  0  0  0  0  0  0
    9.2850   -3.7090   25.1090 C   0  0  0  0  0  0  0  0  0  0  0  0
    9.3300   -1.3350   23.6390 C   0  0  0  0  0  0  0  0  0  0  0  0
    7.2210   -0.4620   20.0350 C   0  0  0  0  0  0  0  0  0  0  0  0
   13.6257    0.0764   24.3314 C   0  0  0  0  0  0  0  0  0  0  0  0
    8.2930   -5.1714   26.8572 C   0  0  0  0  0  0  0  0  0  0  0  0
    8.9510    0.1280   21.6880 C   0  0  0  0  0  0  0  0  0  0  0  0
    8.4551   -6.5156   27.5444 C   0  0  0  0  0  0  0  0  0  0  0  0
    9.9019   -6.7444   27.9450 C   0  0  0  0  0  0  0  0  0  0  0  0
   10.8596   -6.5882   26.7680 C   0  0  0  0  0  0  0  0  0  0  0  0
   10.1895   -6.0108   25.5223 C   0  0  0  0  0  0  0  0  0  0  0  0
   10.0220    1.0430   23.6570 C   0  0  0  0  0  0  0  0  0  0  0  0
    6.9440    0.2550   18.0100 N   0  0  0  0  0  0  0  0  0  0  0  0
    9.2623   -4.9266   25.8635 N   0  0  0  0  0  0  0  0  0  0  0  0
    8.0810   -0.9750   21.0820 N   0  0  0  0  0  0  0  0  0  0  0  0
    9.4200   -0.0840   22.9530 N   0  0  0  0  0  0  0  0  0  0  0  0
    7.3370   -4.4527   27.1463 O   0  0  0  0  0  0  0  0  0  0  0  0
    9.1870    1.1500   21.0630 O   0  0  0  0  0  0  0  0  0  0  0  0
   14.5031   -1.0334   25.3114 Cl  0  0  0  0  0  0  0  0  0  0  0  0
    3.6256    2.0106   21.6303 H   0  0  0  0  0  0  0  0  0  0  0  0
    3.2724    2.7868   19.3204 H   0  0  0  0  0  0  0  0  0  0  0  0
   14.1289    2.5226   22.0237 H   0  0  0  0  0  0  0  0  0  0  0  0
    5.4858    0.4664   22.1692 H   0  0  0  0  0  0  0  0  0  0  0  0
   11.6588    2.5818   22.1218 H   0  0  0  0  0  0  0  0  0  0  0  0
    4.7836    2.0664   17.4848 H   0  0  0  0  0  0  0  0  0  0  0  0
    7.5639   -2.8621   26.1045 H   0  0  0  0  0  0  0  0  0  0  0  0
   11.0141   -4.2644   23.9422 H   0  0  0  0  0  0  0  0  0  0  0  0
    7.5950   -0.7788   24.8007 H   0  0  0  0  0  0  0  0  0  0  0  0
   11.0408   -2.1861   22.6359 H   0  0  0  0  0  0  0  0  0  0  0  0
   15.3941    0.9323   23.4255 H   0  0  0  0  0  0  0  0  0  0  0  0
   11.6954   -0.5682   25.0504 H   0  0  0  0  0  0  0  0  0  0  0  0
    8.5274   -1.0858   18.3384 H   0  0  0  0  0  0  0  0  0  0  0  0
    7.8332   -6.5283   28.4263 H   0  0  0  0  0  0  0  0  0  0  0  0
    8.1305   -7.2787   26.8530 H   0  0  0  0  0  0  0  0  0  0  0  0
   10.1875   -6.0379   28.7521 H   0  0  0  0  0  0  0  0  0  0  0  0
   10.0116   -7.7568   28.3834 H   0  0  0  0  0  0  0  0  0  0  0  0
   11.7061   -5.9337   27.0644 H   0  0  0  0  0  0  0  0  0  0  0  0
   11.3230   -7.5689   26.5243 H   0  0  0  0  0  0  0  0  0  0  0  0
   10.9445   -5.5959   24.8614 H   0  0  0  0  0  0  0  0  0  0  0  0
    9.6461   -6.7954   25.0072 H   0  0  0  0  0  0  0  0  0  0  0  0
    9.6778    1.0140   24.6966 H   0  0  0  0  0  0  0  0  0  0  0  0
    9.6316    1.9637   23.2107 H   0  0  0  0  0  0  0  0  0  0  0  0
    7.0325    0.4238   17.0175 H   0  0  0  0  0  0  0  0  0  0  0  0
    8.1334   -1.7992   21.3673 H   0  0  0  0  0  0  0  0  0  0  0  0
  1  2  1  0  0  0  0
  1  4  2  0  0  0  0
  2  6  2  0  0  0  0
  3  5  2  0  0  0  0
  3 11  1  0  0  0  0
  4 14  1  0  0  0  0
  5 15  1  0  0  0  0
  6 16  1  0  0  0  0
  7  9  2  0  0  0  0
  7 17  1  0  0  0  0
  8 10  1  0  0  0  0
  8 17  2  0  0  0  0
  9 18  1  0  0  0  0
 10 18  2  0  0  0  0
 11 20  2  0  0  0  0
 12 15  2  0  0  0  0
 12 20  1  0  0  0  0
 13 19  2  0  0  0  0
 13 28  1  0  0  0  0
 14 16  2  0  0  0  0
 14 19  1  0  0  0  0
 15 27  1  0  0  0  0
 16 28  1  0  0  0  0
 17 29  1  0  0  0  0
 18 31  1  0  0  0  0
 19 30  1  0  0  0  0
 20 34  1  0  0  0  0
 21 23  1  0  0  0  0
 21 29  1  0  0  0  0
 21 32  2  0  0  0  0
 22 30  1  0  0  0  0
 22 31  1  0  0  0  0
 22 33  2  0  0  0  0
 23 24  1  0  0  0  0
 24 25  1  0  0  0  0
 25 26  1  0  0  0  0
 26 29  1  0  0  0  0
 27 31  1  0  0  0  0
  1 35  1  0  0  0  0
  2 36  1  0  0  0  0
  3 37  1  0  0  0  0
  4 38  1  0  0  0  0
  5 39  1  0  0  0  0
  6 40  1  0  0  0  0
  7 41  1  0  0  0  0
  8 42  1  0  0  0  0
  9 43  1  0  0  0  0
 10 44  1  0  0  0  0
 11 45  1  0  0  0  0
 12 46  1  0  0  0  0
 13 47  1  0  0  0  0
 23 48  1  0  0  0  0
 23 49  1  0  0  0  0
 24 50  1  0  0  0  0
 24 51  1  0  0  0  0
 25 52  1  0  0  0  0
 25 53  1  0  0  0  0
 26 54  1  0  0  0  0
 26 55  1  0  0  0  0
 27 56  1  0  0  0  0
 27 57  1  0  0  0  0
 28 58  1  0  0  0  0
 30 59  1  0  0  0  0
M  END
> <clash_score>
2.825943004315734

> <docking_score>
-5.54933500289917

> <overlap_score>
1.021795392036438

$$$$
BENZO_138_1
  -OEChem-08222022393D

 58 62  0     0  0  0  0  0  0999 V2000
    4.2970    1.6690   20.8430 C   0  0  0  0  0  0  0  0  0  0  0  0
    4.0980    2.1130   19.5350 C   0  0  0  0  0  0  0  0  0  0  0  0
   13.5977    1.8457   22.6865 C   0  0  0  0  0  0  0  0  0  0  0  0
    5.3360    0.8000   21.1530 C   0  0  0  0  0  0  0  0  0  0  0  0
   12.2044    1.8769   22.7438 C   0  0  0  0  0  0  0  0  0  0  0  0
    4.9400    1.7060   18.5060 C   0  0  0  0  0  0  0  0  0  0  0  0
    8.3310   -2.7170   25.3430 C   0  0  0  0  0  0  0  0  0  0  0  0
   10.2570   -3.5000   24.1350 C   0  0  0  0  0  0  0  0  0  0  0  0
    8.3510   -1.5420   24.6110 C   0  0  0  0  0  0  0  0  0  0  0  0
   10.2760   -2.3270   23.4020 C   0  0  0  0  0  0  0  0  0  0  0  0
   14.3084    0.9454   23.4803 C   0  0  0  0  0  0  0  0  0  0  0  0
   12.2323    0.1076   24.3888 C   0  0  0  0  0  0  0  0  0  0  0  0
    7.6830   -0.5170   18.7600 C   0  0  0  0  0  0  0  0  0  0  0  0
    6.1600    0.3870   20.1140 C   0  0  0  0  0  0  0  0  0  0  0  0
   11.5217    1.0079   23.5949 C   0  0  0  0  0  0  0  0  0  0  0  0
    5.9810    0.8330   18.8060 C   0  0  0  0  0  0  0  0  0  0  0  0
    9.2850   -3.7090   25.1090 C   0  0  0  0  0  0  0  0  0  0  0  0
    9.3300   -1.3350   23.6390 C   0  0  0  0  0  0  0  0  0  0  0  0
    7.2210   -0.4620   20.0350 C   0  0  0  0  0  0  0  0  0  0  0  0
   13.6257    0.0764   24.3314 C   0  0  0  0  0  0  0  0  0  0  0  0
    8.9510    0.1280   21.6880 C   0  0  0  0  0  0  0  0  0  0  0  0
    8.7664   -4.9511   27.2147 C   0  0  0  0  0  0  0  0  0  0  0  0
    9.3037   -6.1872   25.1662 C   0  0  0  0  0  0  0  0  0  0  0  0
    7.3825   -5.5915   27.2001 C   0  0  0  0  0  0  0  0  0  0  0  0
    7.9027   -6.7973   25.2278 C   0  0  0  0  0  0  0  0  0  0  0  0
   10.0220    1.0430   23.6570 C   0  0  0  0  0  0  0  0  0  0  0  0
    6.9440    0.2550   18.0100 N   0  0  0  0  0  0  0  0  0  0  0  0
    9.2640   -4.8844   25.8389 N   0  0  0  0  0  0  0  0  0  0  0  0
    8.0810   -0.9750   21.0820 N   0  0  0  0  0  0  0  0  0  0  0  0
    9.4200   -0.0840   22.9530 N   0  0  0  0  0  0  0  0  0  0  0  0
    9.1870    1.1500   21.0630 O   0  0  0  0  0  0  0  0  0  0  0  0
    7.4484   -6.8829   26.5831 O   0  0  0  0  0  0  0  0  0  0  0  0
   14.5031   -1.0334   25.3114 Cl  0  0  0  0  0  0  0  0  0  0  0  0
    3.6256    2.0106   21.6303 H   0  0  0  0  0  0  0  0  0  0  0  0
    3.2724    2.7868   19.3204 H   0  0  0  0  0  0  0  0  0  0  0  0
   14.1289    2.5226   22.0237 H   0  0  0  0  0  0  0  0  0  0  0  0
    5.4858    0.4664   22.1692 H   0  0  0  0  0  0  0  0  0  0  0  0
   11.6588    2.5818   22.1218 H   0  0  0  0  0  0  0  0  0  0  0  0
    4.7836    2.0664   17.4848 H   0  0  0  0  0  0  0  0  0  0  0  0
    7.5647   -2.8621   26.1053 H   0  0  0  0  0  0  0  0  0  0  0  0
   11.0144   -4.2642   23.9425 H   0  0  0  0  0  0  0  0  0  0  0  0
    7.5958   -0.7779   24.8006 H   0  0  0  0  0  0  0  0  0  0  0  0
   11.0406   -2.1848   22.6356 H   0  0  0  0  0  0  0  0  0  0  0  0
   15.3941    0.9323   23.4255 H   0  0  0  0  0  0  0  0  0  0  0  0
   11.6954   -0.5682   25.0504 H   0  0  0  0  0  0  0  0  0  0  0  0
    8.5274   -1.0858   18.3384 H   0  0  0  0  0  0  0  0  0  0  0  0
    8.7052   -3.9541   27.6627 H   0  0  0  0  0  0  0  0  0  0  0  0
    9.4487   -5.5619   27.8169 H   0  0  0  0  0  0  0  0  0  0  0  0
   10.0120   -6.8401   25.6836 H   0  0  0  0  0  0  0  0  0  0  0  0
    9.6139   -6.0860   24.1243 H   0  0  0  0  0  0  0  0  0  0  0  0
    7.0278   -5.7316   28.2234 H   0  0  0  0  0  0  0  0  0  0  0  0
    6.6540   -4.9673   26.6750 H   0  0  0  0  0  0  0  0  0  0  0  0
    7.1864   -6.2190   24.6326 H   0  0  0  0  0  0  0  0  0  0  0  0
    7.9250   -7.8129   24.8210 H   0  0  0  0  0  0  0  0  0  0  0  0
    9.6778    1.0140   24.6966 H   0  0  0  0  0  0  0  0  0  0  0  0
    9.6316    1.9637   23.2107 H   0  0  0  0  0  0  0  0  0  0  0  0
    7.0325    0.4238   17.0175 H   0  0  0  0  0  0  0  0  0  0  0  0
    8.1151   -1.8109   21.3513 H   0  0  0  0  0  0  0  0  0  0  0  0
  1  2  1  0  0  0  0
  1  4  2  0  0  0  0
  2  6  2  0  0  0  0
  3  5  2  0  0  0  0
  3 11  1  0  0  0  0
  4 14  1  0  0  0  0
  5 15  1  0  0  0  0
  6 16  1  0  0  0  0
  7  9  2  0  0  0  0
  7 17  1  0  0  0  0
  8 10  1  0  0  0  0
  8 17  2  0  0  0  0
  9 18  1  0  0  0  0
 10 18  2  0  0  0  0
 11 20  2  0  0  0  0
 12 15  2  0  0  0  0
 12 20  1  0  0  0  0
 13 19  2  0  0  0  0
 13 27  1  0  0  0  0
 14 16  2  0  0  0  0
 14 19  1  0  0  0  0
 15 26  1  0  0  0  0
 16 27  1  0  0  0  0
 17 28  1  0  0  0  0
 18 30  1  0  0  0  0
 19 29  1  0  0  0  0
 20 33  1  0  0  0  0
 21 29  1  0  0  0  0
 21 30  1  0  0  0  0
 21 31  2  0  0  0  0
 22 24  1  0  0  0  0
 22 28  1  0  0  0  0
 23 25  1  0  0  0  0
 23 28  1  0  0  0  0
 24 32  1  0  0  0  0
 25 32  1  0  0  0  0
 26 30  1  0  0  0  0
  1 34  1  0  0  0  0
  2 35  1  0  0  0  0
  3 36  1  0  0  0  0
  4 37  1  0  0  0  0
  5 38  1  0  0  0  0
  6 39  1  0  0  0  0
  7 40  1  0  0  0  0
  8 41  1  0  0  0  0
  9 42  1  0  0  0  0
 10 43  1  0  0  0  0
 11 44  1  0  0  0  0
 12 45  1  0  0  0  0
 13 46  1  0  0  0  0
 22 47  1  0  0  0  0
 22 48  1  0  0  0  0
 23 49  1  0  0  0  0
 23 50  1  0  0  0  0
 24 51  1  0  0  0  0
 24 52  1  0  0  0  0
 25 53  1  0  0  0  0
 25 54  1  0  0  0  0
 26 55  1  0  0  0  0
 26 56  1  0  0  0  0
 27 57  1  0  0  0  0
 29 58  1  0  0  0  0
M  END
> <clash_score>
0.7662448746431686

> <docking_score>
-6.783838748931885

> <overlap_score>
1.0216761827468872

$$$$
BENZO_139_1
  -OEChem-08222022393D

 58 62  0     0  0  0  0  0  0999 V2000
    4.2970    1.6690   20.8430 C   0  0  0  0  0  0  0  0  0  0  0  0
    4.0980    2.1130   19.5350 C   0  0  0  0  0  0  0  0  0  0  0  0
    5.3360    0.8000   21.1530 C   0  0  0  0  0  0  0  0  0  0  0  0
    4.9400    1.7060   18.5060 C   0  0  0  0  0  0  0  0  0  0  0  0
    8.3310   -2.7170   25.3430 C   0  0  0  0  0  0  0  0  0  0  0  0
   10.2570   -3.5000   24.1350 C   0  0  0  0  0  0  0  0  0  0  0  0
    8.3510   -1.5420   24.6110 C   0  0  0  0  0  0  0  0  0  0  0  0
   10.2760   -2.3270   23.4020 C   0  0  0  0  0  0  0  0  0  0  0  0
   12.4359    1.7439   24.3724 C   0  0  0  0  0  0  0  0  0  0  0  0
   12.3100    0.2469   22.7668 C   0  0  0  0  0  0  0  0  0  0  0  0
    7.6830   -0.5170   18.7600 C   0  0  0  0  0  0  0  0  0  0  0  0
    6.1600    0.3870   20.1140 C   0  0  0  0  0  0  0  0  0  0  0  0
   11.5217    1.0079   23.5949 C   0  0  0  0  0  0  0  0  0  0  0  0
    5.9810    0.8330   18.8060 C   0  0  0  0  0  0  0  0  0  0  0  0
    9.2850   -3.7090   25.1090 C   0  0  0  0  0  0  0  0  0  0  0  0
    9.3300   -1.3350   23.6390 C   0  0  0  0  0  0  0  0  0  0  0  0
    7.2210   -0.4620   20.0350 C   0  0  0  0  0  0  0  0  0  0  0  0
    8.9510    0.1280   21.6880 C   0  0  0  0  0  0  0  0  0  0  0  0
    8.7664   -4.9511   27.2147 C   0  0  0  0  0  0  0  0  0  0  0  0
    9.3037   -6.1872   25.1662 C   0  0  0  0  0  0  0  0  0  0  0  0
    7.3825   -5.5915   27.2001 C   0  0  0  0  0  0  0  0  0  0  0  0
    7.9027   -6.7973   25.2278 C   0  0  0  0  0  0  0  0  0  0  0  0
   14.7884    0.0124   22.4815 C   0  0  0  0  0  0  0  0  0  0  0  0
   10.0220    1.0430   23.6570 C   0  0  0  0  0  0  0  0  0  0  0  0
   13.7076    1.4745   24.0657 N   0  0  0  0  0  0  0  0  0  0  0  0
    6.9440    0.2550   18.0100 N   0  0  0  0  0  0  0  0  0  0  0  0
   13.5982    0.5607   23.0864 N   0  0  0  0  0  0  0  0  0  0  0  0
    9.2640   -4.8844   25.8389 N   0  0  0  0  0  0  0  0  0  0  0  0
    8.0810   -0.9750   21.0820 N   0  0  0  0  0  0  0  0  0  0  0  0
    9.4200   -0.0840   22.9530 N   0  0  0  0  0  0  0  0  0  0  0  0
    9.1870    1.1500   21.0630 O   0  0  0  0  0  0  0  0  0  0  0  0
    7.4484   -6.8829   26.5831 O   0  0  0  0  0  0  0  0  0  0  0  0
    3.6256    2.0106   21.6303 H   0  0  0  0  0  0  0  0  0  0  0  0
    3.2724    2.7868   19.3204 H   0  0  0  0  0  0  0  0  0  0  0  0
    5.4858    0.4664   22.1692 H   0  0  0  0  0  0  0  0  0  0  0  0
    4.7836    2.0664   17.4848 H   0  0  0  0  0  0  0  0  0  0  0  0
    7.5647   -2.8621   26.1053 H   0  0  0  0  0  0  0  0  0  0  0  0
   11.0144   -4.2642   23.9425 H   0  0  0  0  0  0  0  0  0  0  0  0
    7.5958   -0.7779   24.8006 H   0  0  0  0  0  0  0  0  0  0  0  0
   11.0406   -2.1848   22.6356 H   0  0  0  0  0  0  0  0  0  0  0  0
   12.2308    2.4652   25.1508 H   0  0  0  0  0  0  0  0  0  0  0  0
   12.0700   -0.4744   21.9974 H   0  0  0  0  0  0  0  0  0  0  0  0
    8.5274   -1.0858   18.3384 H   0  0  0  0  0  0  0  0  0  0  0  0
    8.7052   -3.9541   27.6627 H   0  0  0  0  0  0  0  0  0  0  0  0
    9.4487   -5.5619   27.8169 H   0  0  0  0  0  0  0  0  0  0  0  0
   10.0120   -6.8401   25.6836 H   0  0  0  0  0  0  0  0  0  0  0  0
    9.6139   -6.0860   24.1243 H   0  0  0  0  0  0  0  0  0  0  0  0
    7.0278   -5.7316   28.2234 H   0  0  0  0  0  0  0  0  0  0  0  0
    6.6540   -4.9673   26.6750 H   0  0  0  0  0  0  0  0  0  0  0  0
    7.1864   -6.2190   24.6326 H   0  0  0  0  0  0  0  0  0  0  0  0
    7.9250   -7.8129   24.8210 H   0  0  0  0  0  0  0  0  0  0  0  0
   15.0569    0.6453   21.6315 H   0  0  0  0  0  0  0  0  0  0  0  0
   15.5971   -0.0026   23.2174 H   0  0  0  0  0  0  0  0  0  0  0  0
   14.5870   -1.0100   22.1498 H   0  0  0  0  0  0  0  0  0  0  0  0
    9.6778    1.0140   24.6966 H   0  0  0  0  0  0  0  0  0  0  0  0
    9.6316    1.9637   23.2107 H   0  0  0  0  0  0  0  0  0  0  0  0
    7.0325    0.4238   17.0175 H   0  0  0  0  0  0  0  0  0  0  0  0
    8.1151   -1.8109   21.3513 H   0  0  0  0  0  0  0  0  0  0  0  0
  1  2  1  0  0  0  0
  1  3  2  0  0  0  0
  2  4  2  0  0  0  0
  3 12  1  0  0  0  0
  4 14  1  0  0  0  0
  5  7  2  0  0  0  0
  5 15  1  0  0  0  0
  6  8  1  0  0  0  0
  6 15  2  0  0  0  0
  7 16  1  0  0  0  0
  8 16  2  0  0  0  0
  9 13  1  0  0  0  0
  9 25  2  0  0  0  0
 10 13  2  0  0  0  0
 10 27  1  0  0  0  0
 11 17  2  0  0  0  0
 11 26  1  0  0  0  0
 12 14  2  0  0  0  0
 12 17  1  0  0  0  0
 13 24  1  0  0  0  0
 14 26  1  0  0  0  0
 15 28  1  0  0  0  0
 16 30  1  0  0  0  0
 17 29  1  0  0  0  0
 18 29  1  0  0  0  0
 18 30  1  0  0  0  0
 18 31  2  0  0  0  0
 19 21  1  0  0  0  0
 19 28  1  0  0  0  0
 20 22  1  0  0  0  0
 20 28  1  0  0  0  0
 21 32  1  0  0  0  0
 22 32  1  0  0  0  0
 23 27  1  0  0  0  0
 24 30  1  0  0  0  0
 25 27  1  0  0  0  0
  1 33  1  0  0  0  0
  2 34  1  0  0  0  0
  3 35  1  0  0  0  0
  4 36  1  0  0  0  0
  5 37  1  0  0  0  0
  6 38  1  0  0  0  0
  7 39  1  0  0  0  0
  8 40  1  0  0  0  0
  9 41  1  0  0  0  0
 10 42  1  0  0  0  0
 11 43  1  0  0  0  0
 19 44  1  0  0  0  0
 19 45  1  0  0  0  0
 20 46  1  0  0  0  0
 20 47  1  0  0  0  0
 21 48  1  0  0  0  0
 21 49  1  0  0  0  0
 22 50  1  0  0  0  0
 22 51  1  0  0  0  0
 23 52  1  0  0  0  0
 23 53  1  0  0  0  0
 23 54  1  0  0  0  0
 24 55  1  0  0  0  0
 24 56  1  0  0  0  0
 26 57  1  0  0  0  0
 29 58  1  0  0  0  0
M  END
> <clash_score>
0

> <docking_score>
-7.816554069519043

> <overlap_score>
1.0026984214782715

$$$$
BENZO_140_1
  -OEChem-08222022393D

 48 51  0     0  0  0  0  0  0999 V2000
    8.3510   -1.5420   24.6110 C   0  0  0  0  0  0  0  0  0  0  0  0
   10.2760   -2.3270   23.4020 C   0  0  0  0  0  0  0  0  0  0  0  0
    8.3310   -2.7170   25.3430 C   0  0  0  0  0  0  0  0  0  0  0  0
   10.2570   -3.5000   24.1350 C   0  0  0  0  0  0  0  0  0  0  0  0
   12.2675    1.0332   22.3812 C   0  0  0  0  0  0  0  0  0  0  0  0
   13.6257    0.9906   22.6074 C   0  0  0  0  0  0  0  0  0  0  0  0
   12.3384    0.9467   24.7028 C   0  0  0  0  0  0  0  0  0  0  0  0
   11.5217    1.0079   23.5949 C   0  0  0  0  0  0  0  0  0  0  0  0
    9.3300   -1.3350   23.6390 C   0  0  0  0  0  0  0  0  0  0  0  0
    9.2850   -3.7090   25.1090 C   0  0  0  0  0  0  0  0  0  0  0  0
    5.9810    0.8330   18.8060 C   0  0  0  0  0  0  0  0  0  0  0  0
    7.2210   -0.4620   20.0350 C   0  0  0  0  0  0  0  0  0  0  0  0
    4.9400    1.7060   18.5060 C   0  0  0  0  0  0  0  0  0  0  0  0
    4.0980    2.1130   19.5350 C   0  0  0  0  0  0  0  0  0  0  0  0
    4.2970    1.6690   20.8430 C   0  0  0  0  0  0  0  0  0  0  0  0
    5.3360    0.8000   21.1530 C   0  0  0  0  0  0  0  0  0  0  0  0
    8.9510    0.1280   21.6880 C   0  0  0  0  0  0  0  0  0  0  0  0
    8.2499   -5.1180   26.8642 C   0  0  0  0  0  0  0  0  0  0  0  0
   10.2440   -5.9397   25.6006 C   0  0  0  0  0  0  0  0  0  0  0  0
   10.0220    1.0430   23.6570 C   0  0  0  0  0  0  0  0  0  0  0  0
    6.9440    0.2550   18.0100 N   0  0  0  0  0  0  0  0  0  0  0  0
    7.6830   -0.5170   18.7600 N   0  0  0  0  0  0  0  0  0  0  0  0
    6.1600    0.3870   20.1140 N   0  0  0  0  0  0  0  0  0  0  0  0
    8.0810   -0.9750   21.0820 N   0  0  0  0  0  0  0  0  0  0  0  0
    9.4200   -0.0840   22.9530 N   0  0  0  0  0  0  0  0  0  0  0  0
    9.2624   -4.9028   25.8498 N   0  0  0  0  0  0  0  0  0  0  0  0
    9.1870    1.1500   21.0630 O   0  0  0  0  0  0  0  0  0  0  0  0
   13.9969    0.9203   24.2776 S   0  0  0  0  0  0  0  0  0  0  0  0
    7.5947   -0.7787   24.7997 H   0  0  0  0  0  0  0  0  0  0  0  0
   11.0404   -2.1861   22.6352 H   0  0  0  0  0  0  0  0  0  0  0  0
    7.5641   -2.8632   26.1047 H   0  0  0  0  0  0  0  0  0  0  0  0
   11.0135   -4.2647   23.9425 H   0  0  0  0  0  0  0  0  0  0  0  0
   11.8338    1.0798   21.3902 H   0  0  0  0  0  0  0  0  0  0  0  0
   14.4176    0.9966   21.8719 H   0  0  0  0  0  0  0  0  0  0  0  0
   12.0446    0.9149   25.7428 H   0  0  0  0  0  0  0  0  0  0  0  0
    4.7733    2.0700   17.5071 H   0  0  0  0  0  0  0  0  0  0  0  0
    3.2813    2.7836   19.2995 H   0  0  0  0  0  0  0  0  0  0  0  0
    3.6335    1.9977   21.6542 H   0  0  0  0  0  0  0  0  0  0  0  0
    5.5067    0.4537   22.1474 H   0  0  0  0  0  0  0  0  0  0  0  0
    8.4002   -6.1032   27.3299 H   0  0  0  0  0  0  0  0  0  0  0  0
    8.3277   -4.3340   27.6319 H   0  0  0  0  0  0  0  0  0  0  0  0
    7.2530   -5.0799   26.4009 H   0  0  0  0  0  0  0  0  0  0  0  0
   10.0619   -6.7879   26.2769 H   0  0  0  0  0  0  0  0  0  0  0  0
   10.1623   -6.2787   24.5573 H   0  0  0  0  0  0  0  0  0  0  0  0
   11.2531   -5.5395   25.7781 H   0  0  0  0  0  0  0  0  0  0  0  0
    9.6778    1.0140   24.6966 H   0  0  0  0  0  0  0  0  0  0  0  0
    9.6316    1.9637   23.2107 H   0  0  0  0  0  0  0  0  0  0  0  0
    8.1127   -1.8124   21.3493 H   0  0  0  0  0  0  0  0  0  0  0  0
  1  3  2  0  0  0  0
  1  9  1  0  0  0  0
  2  4  1  0  0  0  0
  2  9  2  0  0  0  0
  3 10  1  0  0  0  0
  4 10  2  0  0  0  0
  5  6  2  0  0  0  0
  5  8  1  0  0  0  0
  6 28  1  0  0  0  0
  7  8  2  0  0  0  0
  7 28  1  0  0  0  0
  8 20  1  0  0  0  0
  9 25  1  0  0  0  0
 10 26  1  0  0  0  0
 11 13  1  0  0  0  0
 11 21  2  0  0  0  0
 11 23  1  0  0  0  0
 12 22  2  0  0  0  0
 12 23  1  0  0  0  0
 12 24  1  0  0  0  0
 13 14  2  0  0  0  0
 14 15  1  0  0  0  0
 15 16  2  0  0  0  0
 16 23  1  0  0  0  0
 17 24  1  0  0  0  0
 17 25  1  0  0  0  0
 17 27  2  0  0  0  0
 18 26  1  0  0  0  0
 19 26  1  0  0  0  0
 20 25  1  0  0  0  0
 21 22  1  0  0  0  0
  1 29  1  0  0  0  0
  2 30  1  0  0  0  0
  3 31  1  0  0  0  0
  4 32  1  0  0  0  0
  5 33  1  0  0  0  0
  6 34  1  0  0  0  0
  7 35  1  0  0  0  0
 13 36  1  0  0  0  0
 14 37  1  0  0  0  0
 15 38  1  0  0  0  0
 16 39  1  0  0  0  0
 18 40  1  0  0  0  0
 18 41  1  0  0  0  0
 18 42  1  0  0  0  0
 19 43  1  0  0  0  0
 19 44  1  0  0  0  0
 19 45  1  0  0  0  0
 20 46  1  0  0  0  0
 20 47  1  0  0  0  0
 24 48  1  0  0  0  0
M  END
> <clash_score>
0

> <docking_score>
-9.661935806274414

> <overlap_score>
0.9772611260414124

$$$$
BENZO_141_1
  -OEChem-08222022393D

 51 54  0     0  0  0  0  0  0999 V2000
   14.3082    0.9431   23.4783 C   0  0  0  0  0  0  0  0  0  0  0  0
   13.6391    0.3091   24.5251 C   0  0  0  0  0  0  0  0  0  0  0  0
   13.5841    1.6096   22.4898 C   0  0  0  0  0  0  0  0  0  0  0  0
   12.2459    0.3415   24.5835 C   0  0  0  0  0  0  0  0  0  0  0  0
   12.1908    1.6420   22.5481 C   0  0  0  0  0  0  0  0  0  0  0  0
    8.3510   -1.5420   24.6110 C   0  0  0  0  0  0  0  0  0  0  0  0
   10.2760   -2.3270   23.4020 C   0  0  0  0  0  0  0  0  0  0  0  0
    8.3310   -2.7170   25.3430 C   0  0  0  0  0  0  0  0  0  0  0  0
   10.2570   -3.5000   24.1350 C   0  0  0  0  0  0  0  0  0  0  0  0
   11.5217    1.0079   23.5949 C   0  0  0  0  0  0  0  0  0  0  0  0
    9.3300   -1.3350   23.6390 C   0  0  0  0  0  0  0  0  0  0  0  0
    9.2850   -3.7090   25.1090 C   0  0  0  0  0  0  0  0  0  0  0  0
    5.9810    0.8330   18.8060 C   0  0  0  0  0  0  0  0  0  0  0  0
    7.2210   -0.4620   20.0350 C   0  0  0  0  0  0  0  0  0  0  0  0
    4.9400    1.7060   18.5060 C   0  0  0  0  0  0  0  0  0  0  0  0
    4.0980    2.1130   19.5350 C   0  0  0  0  0  0  0  0  0  0  0  0
    4.2970    1.6690   20.8430 C   0  0  0  0  0  0  0  0  0  0  0  0
    5.3360    0.8000   21.1530 C   0  0  0  0  0  0  0  0  0  0  0  0
    8.9510    0.1280   21.6880 C   0  0  0  0  0  0  0  0  0  0  0  0
    8.2499   -5.1180   26.8642 C   0  0  0  0  0  0  0  0  0  0  0  0
   10.2440   -5.9397   25.6006 C   0  0  0  0  0  0  0  0  0  0  0  0
   10.0220    1.0430   23.6570 C   0  0  0  0  0  0  0  0  0  0  0  0
    6.9440    0.2550   18.0100 N   0  0  0  0  0  0  0  0  0  0  0  0
    7.6830   -0.5170   18.7600 N   0  0  0  0  0  0  0  0  0  0  0  0
    6.1600    0.3870   20.1140 N   0  0  0  0  0  0  0  0  0  0  0  0
    8.0810   -0.9750   21.0820 N   0  0  0  0  0  0  0  0  0  0  0  0
    9.4200   -0.0840   22.9530 N   0  0  0  0  0  0  0  0  0  0  0  0
    9.2624   -4.9028   25.8498 N   0  0  0  0  0  0  0  0  0  0  0  0
    9.1870    1.1500   21.0630 O   0  0  0  0  0  0  0  0  0  0  0  0
   15.3932    0.9189   23.4337 H   0  0  0  0  0  0  0  0  0  0  0  0
   14.2028   -0.2090   25.2955 H   0  0  0  0  0  0  0  0  0  0  0  0
   14.1048    2.1043   21.6752 H   0  0  0  0  0  0  0  0  0  0  0  0
   11.7330   -0.1555   25.4027 H   0  0  0  0  0  0  0  0  0  0  0  0
   11.6349    2.1636   21.7735 H   0  0  0  0  0  0  0  0  0  0  0  0
    7.5947   -0.7787   24.7997 H   0  0  0  0  0  0  0  0  0  0  0  0
   11.0404   -2.1861   22.6352 H   0  0  0  0  0  0  0  0  0  0  0  0
    7.5641   -2.8632   26.1047 H   0  0  0  0  0  0  0  0  0  0  0  0
   11.0135   -4.2647   23.9425 H   0  0  0  0  0  0  0  0  0  0  0  0
    4.7733    2.0700   17.5071 H   0  0  0  0  0  0  0  0  0  0  0  0
    3.2813    2.7836   19.2995 H   0  0  0  0  0  0  0  0  0  0  0  0
    3.6335    1.9977   21.6542 H   0  0  0  0  0  0  0  0  0  0  0  0
    5.5067    0.4537   22.1474 H   0  0  0  0  0  0  0  0  0  0  0  0
    8.4002   -6.1032   27.3299 H   0  0  0  0  0  0  0  0  0  0  0  0
    8.3277   -4.3340   27.6319 H   0  0  0  0  0  0  0  0  0  0  0  0
    7.2530   -5.0799   26.4009 H   0  0  0  0  0  0  0  0  0  0  0  0
   10.0619   -6.7879   26.2769 H   0  0  0  0  0  0  0  0  0  0  0  0
   10.1623   -6.2787   24.5573 H   0  0  0  0  0  0  0  0  0  0  0  0
   11.2531   -5.5395   25.7781 H   0  0  0  0  0  0  0  0  0  0  0  0
    9.6778    1.0140   24.6966 H   0  0  0  0  0  0  0  0  0  0  0  0
    9.6316    1.9637   23.2107 H   0  0  0  0  0  0  0  0  0  0  0  0
    8.1127   -1.8124   21.3493 H   0  0  0  0  0  0  0  0  0  0  0  0
  1  2  1  0  0  0  0
  1  3  2  0  0  0  0
  2  4  2  0  0  0  0
  3  5  1  0  0  0  0
  4 10  1  0  0  0  0
  5 10  2  0  0  0  0
  6  8  2  0  0  0  0
  6 11  1  0  0  0  0
  7  9  1  0  0  0  0
  7 11  2  0  0  0  0
  8 12  1  0  0  0  0
  9 12  2  0  0  0  0
 10 22  1  0  0  0  0
 11 27  1  0  0  0  0
 12 28  1  0  0  0  0
 13 15  1  0  0  0  0
 13 23  2  0  0  0  0
 13 25  1  0  0  0  0
 14 24  2  0  0  0  0
 14 25  1  0  0  0  0
 14 26  1  0  0  0  0
 15 16  2  0  0  0  0
 16 17  1  0  0  0  0
 17 18  2  0  0  0  0
 18 25  1  0  0  0  0
 19 26  1  0  0  0  0
 19 27  1  0  0  0  0
 19 29  2  0  0  0  0
 20 28  1  0  0  0  0
 21 28  1  0  0  0  0
 22 27  1  0  0  0  0
 23 24  1  0  0  0  0
  1 30  1  0  0  0  0
  2 31  1  0  0  0  0
  3 32  1  0  0  0  0
  4 33  1  0  0  0  0
  5 34  1  0  0  0  0
  6 35  1  0  0  0  0
  7 36  1  0  0  0  0
  8 37  1  0  0  0  0
  9 38  1  0  0  0  0
 15 39  1  0  0  0  0
 16 40  1  0  0  0  0
 17 41  1  0  0  0  0
 18 42  1  0  0  0  0
 20 43  1  0  0  0  0
 20 44  1  0  0  0  0
 20 45  1  0  0  0  0
 21 46  1  0  0  0  0
 21 47  1  0  0  0  0
 21 48  1  0  0  0  0
 22 49  1  0  0  0  0
 22 50  1  0  0  0  0
 26 51  1  0  0  0  0
M  END
> <clash_score>
0

> <docking_score>
-9.415743827819824

> <overlap_score>
1.003084421157837

$$$$
BENZO_143_1
  -OEChem-08222022393D

 51 54  0     0  0  0  0  0  0999 V2000
    8.3510   -1.5420   24.6110 C   0  0  0  0  0  0  0  0  0  0  0  0
   10.2760   -2.3270   23.4020 C   0  0  0  0  0  0  0  0  0  0  0  0
    8.3310   -2.7170   25.3430 C   0  0  0  0  0  0  0  0  0  0  0  0
   10.2570   -3.5000   24.1350 C   0  0  0  0  0  0  0  0  0  0  0  0
   12.4359    1.7439   24.3724 C   0  0  0  0  0  0  0  0  0  0  0  0
   12.3100    0.2469   22.7668 C   0  0  0  0  0  0  0  0  0  0  0  0
   11.5217    1.0079   23.5949 C   0  0  0  0  0  0  0  0  0  0  0  0
    9.3300   -1.3350   23.6390 C   0  0  0  0  0  0  0  0  0  0  0  0
    9.2850   -3.7090   25.1090 C   0  0  0  0  0  0  0  0  0  0  0  0
    5.9810    0.8330   18.8060 C   0  0  0  0  0  0  0  0  0  0  0  0
    7.2210   -0.4620   20.0350 C   0  0  0  0  0  0  0  0  0  0  0  0
    4.9400    1.7060   18.5060 C   0  0  0  0  0  0  0  0  0  0  0  0
    4.0980    2.1130   19.5350 C   0  0  0  0  0  0  0  0  0  0  0  0
    4.2970    1.6690   20.8430 C   0  0  0  0  0  0  0  0  0  0  0  0
    5.3360    0.8000   21.1530 C   0  0  0  0  0  0  0  0  0  0  0  0
    8.9510    0.1280   21.6880 C   0  0  0  0  0  0  0  0  0  0  0  0
   14.7884    0.0124   22.4815 C   0  0  0  0  0  0  0  0  0  0  0  0
    8.2499   -5.1180   26.8642 C   0  0  0  0  0  0  0  0  0  0  0  0
   10.2440   -5.9397   25.6006 C   0  0  0  0  0  0  0  0  0  0  0  0
   10.0220    1.0430   23.6570 C   0  0  0  0  0  0  0  0  0  0  0  0
   13.7076    1.4745   24.0657 N   0  0  0  0  0  0  0  0  0  0  0  0
    6.9440    0.2550   18.0100 N   0  0  0  0  0  0  0  0  0  0  0  0
    7.6830   -0.5170   18.7600 N   0  0  0  0  0  0  0  0  0  0  0  0
   13.5982    0.5607   23.0864 N   0  0  0  0  0  0  0  0  0  0  0  0
    6.1600    0.3870   20.1140 N   0  0  0  0  0  0  0  0  0  0  0  0
    8.0810   -0.9750   21.0820 N   0  0  0  0  0  0  0  0  0  0  0  0
    9.4200   -0.0840   22.9530 N   0  0  0  0  0  0  0  0  0  0  0  0
    9.2624   -4.9028   25.8498 N   0  0  0  0  0  0  0  0  0  0  0  0
    9.1870    1.1500   21.0630 O   0  0  0  0  0  0  0  0  0  0  0  0
    7.5947   -0.7787   24.7997 H   0  0  0  0  0  0  0  0  0  0  0  0
   11.0404   -2.1861   22.6352 H   0  0  0  0  0  0  0  0  0  0  0  0
    7.5641   -2.8632   26.1047 H   0  0  0  0  0  0  0  0  0  0  0  0
   11.0135   -4.2647   23.9425 H   0  0  0  0  0  0  0  0  0  0  0  0
   12.2308    2.4652   25.1508 H   0  0  0  0  0  0  0  0  0  0  0  0
   12.0700   -0.4744   21.9974 H   0  0  0  0  0  0  0  0  0  0  0  0
    4.7733    2.0700   17.5071 H   0  0  0  0  0  0  0  0  0  0  0  0
    3.2813    2.7836   19.2995 H   0  0  0  0  0  0  0  0  0  0  0  0
    3.6335    1.9977   21.6542 H   0  0  0  0  0  0  0  0  0  0  0  0
    5.5067    0.4537   22.1474 H   0  0  0  0  0  0  0  0  0  0  0  0
   15.0569    0.6453   21.6315 H   0  0  0  0  0  0  0  0  0  0  0  0
   15.5971   -0.0026   23.2174 H   0  0  0  0  0  0  0  0  0  0  0  0
   14.5870   -1.0100   22.1498 H   0  0  0  0  0  0  0  0  0  0  0  0
    8.4002   -6.1032   27.3299 H   0  0  0  0  0  0  0  0  0  0  0  0
    8.3277   -4.3340   27.6319 H   0  0  0  0  0  0  0  0  0  0  0  0
    7.2530   -5.0799   26.4009 H   0  0  0  0  0  0  0  0  0  0  0  0
   10.0619   -6.7879   26.2769 H   0  0  0  0  0  0  0  0  0  0  0  0
   10.1623   -6.2787   24.5573 H   0  0  0  0  0  0  0  0  0  0  0  0
   11.2531   -5.5395   25.7781 H   0  0  0  0  0  0  0  0  0  0  0  0
    9.6778    1.0140   24.6966 H   0  0  0  0  0  0  0  0  0  0  0  0
    9.6316    1.9637   23.2107 H   0  0  0  0  0  0  0  0  0  0  0  0
    8.1127   -1.8124   21.3493 H   0  0  0  0  0  0  0  0  0  0  0  0
  1  3  2  0  0  0  0
  1  8  1  0  0  0  0
  2  4  1  0  0  0  0
  2  8  2  0  0  0  0
  3  9  1  0  0  0  0
  4  9  2  0  0  0  0
  5  7  1  0  0  0  0
  5 21  2  0  0  0  0
  6  7  2  0  0  0  0
  6 24  1  0  0  0  0
  7 20  1  0  0  0  0
  8 27  1  0  0  0  0
  9 28  1  0  0  0  0
 10 12  1  0  0  0  0
 10 22  2  0  0  0  0
 10 25  1  0  0  0  0
 11 23  2  0  0  0  0
 11 25  1  0  0  0  0
 11 26  1  0  0  0  0
 12 13  2  0  0  0  0
 13 14  1  0  0  0  0
 14 15  2  0  0  0  0
 15 25  1  0  0  0  0
 16 26  1  0  0  0  0
 16 27  1  0  0  0  0
 16 29  2  0  0  0  0
 17 24  1  0  0  0  0
 18 28  1  0  0  0  0
 19 28  1  0  0  0  0
 20 27  1  0  0  0  0
 21 24  1  0  0  0  0
 22 23  1  0  0  0  0
  1 30  1  0  0  0  0
  2 31  1  0  0  0  0
  3 32  1  0  0  0  0
  4 33  1  0  0  0  0
  5 34  1  0  0  0  0
  6 35  1  0  0  0  0
 12 36  1  0  0  0  0
 13 37  1  0  0  0  0
 14 38  1  0  0  0  0
 15 39  1  0  0  0  0
 17 40  1  0  0  0  0
 17 41  1  0  0  0  0
 17 42  1  0  0  0  0
 18 43  1  0  0  0  0
 18 44  1  0  0  0  0
 18 45  1  0  0  0  0
 19 46  1  0  0  0  0
 19 47  1  0  0  0  0
 19 48  1  0  0  0  0
 20 49  1  0  0  0  0
 20 50  1  0  0  0  0
 26 51  1  0  0  0  0
M  END
> <clash_score>
0

> <docking_score>
-9.630351066589355

> <overlap_score>
0.9891849160194397

$$$$
BENZO_142_1
  -OEChem-08222022393D

 51 54  0     0  0  0  0  0  0999 V2000
   13.5977    1.8457   22.6865 C   0  0  0  0  0  0  0  0  0  0  0  0
   12.2044    1.8769   22.7438 C   0  0  0  0  0  0  0  0  0  0  0  0
    8.3510   -1.5420   24.6110 C   0  0  0  0  0  0  0  0  0  0  0  0
   10.2760   -2.3270   23.4020 C   0  0  0  0  0  0  0  0  0  0  0  0
    8.3310   -2.7170   25.3430 C   0  0  0  0  0  0  0  0  0  0  0  0
   10.2570   -3.5000   24.1350 C   0  0  0  0  0  0  0  0  0  0  0  0
   14.3084    0.9454   23.4803 C   0  0  0  0  0  0  0  0  0  0  0  0
   12.2323    0.1076   24.3888 C   0  0  0  0  0  0  0  0  0  0  0  0
   11.5217    1.0079   23.5949 C   0  0  0  0  0  0  0  0  0  0  0  0
    9.3300   -1.3350   23.6390 C   0  0  0  0  0  0  0  0  0  0  0  0
    9.2850   -3.7090   25.1090 C   0  0  0  0  0  0  0  0  0  0  0  0
   13.6257    0.0764   24.3314 C   0  0  0  0  0  0  0  0  0  0  0  0
    5.9810    0.8330   18.8060 C   0  0  0  0  0  0  0  0  0  0  0  0
    7.2210   -0.4620   20.0350 C   0  0  0  0  0  0  0  0  0  0  0  0
    4.9400    1.7060   18.5060 C   0  0  0  0  0  0  0  0  0  0  0  0
    4.0980    2.1130   19.5350 C   0  0  0  0  0  0  0  0  0  0  0  0
    4.2970    1.6690   20.8430 C   0  0  0  0  0  0  0  0  0  0  0  0
    5.3360    0.8000   21.1530 C   0  0  0  0  0  0  0  0  0  0  0  0
    8.9510    0.1280   21.6880 C   0  0  0  0  0  0  0  0  0  0  0  0
    8.2499   -5.1180   26.8642 C   0  0  0  0  0  0  0  0  0  0  0  0
   10.2440   -5.9397   25.6006 C   0  0  0  0  0  0  0  0  0  0  0  0
   10.0220    1.0430   23.6570 C   0  0  0  0  0  0  0  0  0  0  0  0
    6.9440    0.2550   18.0100 N   0  0  0  0  0  0  0  0  0  0  0  0
    7.6830   -0.5170   18.7600 N   0  0  0  0  0  0  0  0  0  0  0  0
    6.1600    0.3870   20.1140 N   0  0  0  0  0  0  0  0  0  0  0  0
    8.0810   -0.9750   21.0820 N   0  0  0  0  0  0  0  0  0  0  0  0
    9.4200   -0.0840   22.9530 N   0  0  0  0  0  0  0  0  0  0  0  0
    9.2624   -4.9028   25.8498 N   0  0  0  0  0  0  0  0  0  0  0  0
    9.1870    1.1500   21.0630 O   0  0  0  0  0  0  0  0  0  0  0  0
   14.5031   -1.0334   25.3114 Cl  0  0  0  0  0  0  0  0  0  0  0  0
   14.1289    2.5227   22.0237 H   0  0  0  0  0  0  0  0  0  0  0  0
   11.6588    2.5818   22.1218 H   0  0  0  0  0  0  0  0  0  0  0  0
    7.5947   -0.7787   24.7997 H   0  0  0  0  0  0  0  0  0  0  0  0
   11.0404   -2.1861   22.6352 H   0  0  0  0  0  0  0  0  0  0  0  0
    7.5641   -2.8632   26.1047 H   0  0  0  0  0  0  0  0  0  0  0  0
   11.0135   -4.2647   23.9425 H   0  0  0  0  0  0  0  0  0  0  0  0
   15.3941    0.9323   23.4255 H   0  0  0  0  0  0  0  0  0  0  0  0
   11.6954   -0.5682   25.0504 H   0  0  0  0  0  0  0  0  0  0  0  0
    4.7733    2.0700   17.5071 H   0  0  0  0  0  0  0  0  0  0  0  0
    3.2813    2.7836   19.2995 H   0  0  0  0  0  0  0  0  0  0  0  0
    3.6335    1.9977   21.6542 H   0  0  0  0  0  0  0  0  0  0  0  0
    5.5067    0.4537   22.1474 H   0  0  0  0  0  0  0  0  0  0  0  0
    8.4002   -6.1032   27.3299 H   0  0  0  0  0  0  0  0  0  0  0  0
    8.3277   -4.3340   27.6319 H   0  0  0  0  0  0  0  0  0  0  0  0
    7.2530   -5.0799   26.4009 H   0  0  0  0  0  0  0  0  0  0  0  0
   10.0619   -6.7879   26.2769 H   0  0  0  0  0  0  0  0  0  0  0  0
   10.1623   -6.2787   24.5573 H   0  0  0  0  0  0  0  0  0  0  0  0
   11.2531   -5.5395   25.7781 H   0  0  0  0  0  0  0  0  0  0  0  0
    9.6778    1.0140   24.6966 H   0  0  0  0  0  0  0  0  0  0  0  0
    9.6316    1.9637   23.2107 H   0  0  0  0  0  0  0  0  0  0  0  0
    8.1127   -1.8124   21.3493 H   0  0  0  0  0  0  0  0  0  0  0  0
  1  2  2  0  0  0  0
  1  7  1  0  0  0  0
  2  9  1  0  0  0  0
  3  5  2  0  0  0  0
  3 10  1  0  0  0  0
  4  6  1  0  0  0  0
  4 10  2  0  0  0  0
  5 11  1  0  0  0  0
  6 11  2  0  0  0  0
  7 12  2  0  0  0  0
  8  9  2  0  0  0  0
  8 12  1  0  0  0  0
  9 22  1  0  0  0  0
 10 27  1  0  0  0  0
 11 28  1  0  0  0  0
 12 30  1  0  0  0  0
 13 15  1  0  0  0  0
 13 23  2  0  0  0  0
 13 25  1  0  0  0  0
 14 24  2  0  0  0  0
 14 25  1  0  0  0  0
 14 26  1  0  0  0  0
 15 16  2  0  0  0  0
 16 17  1  0  0  0  0
 17 18  2  0  0  0  0
 18 25  1  0  0  0  0
 19 26  1  0  0  0  0
 19 27  1  0  0  0  0
 19 29  2  0  0  0  0
 20 28  1  0  0  0  0
 21 28  1  0  0  0  0
 22 27  1  0  0  0  0
 23 24  1  0  0  0  0
  1 31  1  0  0  0  0
  2 32  1  0  0  0  0
  3 33  1  0  0  0  0
  4 34  1  0  0  0  0
  5 35  1  0  0  0  0
  6 36  1  0  0  0  0
  7 37  1  0  0  0  0
  8 38  1  0  0  0  0
 15 39  1  0  0  0  0
 16 40  1  0  0  0  0
 17 41  1  0  0  0  0
 18 42  1  0  0  0  0
 20 43  1  0  0  0  0
 20 44  1  0  0  0  0
 20 45  1  0  0  0  0
 21 46  1  0  0  0  0
 21 47  1  0  0  0  0
 21 48  1  0  0  0  0
 22 49  1  0  0  0  0
 22 50  1  0  0  0  0
 26 51  1  0  0  0  0
M  END
> <clash_score>
0.766244104660589

> <docking_score>
-8.597638130187988

> <overlap_score>
1.0082895755767822

$$$$
BENZO_145_1
  -OEChem-08222022393D

 53 56  0     0  0  0  0  0  0999 V2000
   14.3082    0.9431   23.4783 C   0  0  0  0  0  0  0  0  0  0  0  0
   13.6391    0.3091   24.5251 C   0  0  0  0  0  0  0  0  0  0  0  0
   13.5841    1.6096   22.4898 C   0  0  0  0  0  0  0  0  0  0  0  0
   12.2459    0.3415   24.5835 C   0  0  0  0  0  0  0  0  0  0  0  0
   12.1908    1.6420   22.5481 C   0  0  0  0  0  0  0  0  0  0  0  0
    8.3310   -2.7170   25.3430 C   0  0  0  0  0  0  0  0  0  0  0  0
   10.2570   -3.5000   24.1350 C   0  0  0  0  0  0  0  0  0  0  0  0
    8.3510   -1.5420   24.6110 C   0  0  0  0  0  0  0  0  0  0  0  0
   10.2760   -2.3270   23.4020 C   0  0  0  0  0  0  0  0  0  0  0  0
   11.5217    1.0079   23.5949 C   0  0  0  0  0  0  0  0  0  0  0  0
    9.2850   -3.7090   25.1090 C   0  0  0  0  0  0  0  0  0  0  0  0
    9.3300   -1.3350   23.6390 C   0  0  0  0  0  0  0  0  0  0  0  0
    5.9810    0.8330   18.8060 C   0  0  0  0  0  0  0  0  0  0  0  0
    7.2210   -0.4620   20.0350 C   0  0  0  0  0  0  0  0  0  0  0  0
    4.9400    1.7060   18.5060 C   0  0  0  0  0  0  0  0  0  0  0  0
    4.0980    2.1130   19.5350 C   0  0  0  0  0  0  0  0  0  0  0  0
    4.2970    1.6690   20.8430 C   0  0  0  0  0  0  0  0  0  0  0  0
    5.3360    0.8000   21.1530 C   0  0  0  0  0  0  0  0  0  0  0  0
    9.6836   -6.1684   25.4392 C   0  0  0  0  0  0  0  0  0  0  0  0
    8.9510    0.1280   21.6880 C   0  0  0  0  0  0  0  0  0  0  0  0
    8.0396   -7.2904   27.0025 C   0  0  0  0  0  0  0  0  0  0  0  0
   10.0220    1.0430   23.6570 C   0  0  0  0  0  0  0  0  0  0  0  0
    9.4856   -7.1873   26.5516 C   0  0  0  0  0  0  0  0  0  0  0  0
    6.9440    0.2550   18.0100 N   0  0  0  0  0  0  0  0  0  0  0  0
    7.6830   -0.5170   18.7600 N   0  0  0  0  0  0  0  0  0  0  0  0
    6.1600    0.3870   20.1140 N   0  0  0  0  0  0  0  0  0  0  0  0
    9.2630   -4.8902   25.8410 N   0  0  0  0  0  0  0  0  0  0  0  0
    8.0810   -0.9750   21.0820 N   0  0  0  0  0  0  0  0  0  0  0  0
    9.4200   -0.0840   22.9530 N   0  0  0  0  0  0  0  0  0  0  0  0
   10.1552   -6.4778   24.3500 O   0  0  0  0  0  0  0  0  0  0  0  0
    9.1870    1.1500   21.0630 O   0  0  0  0  0  0  0  0  0  0  0  0
   15.3932    0.9189   23.4337 H   0  0  0  0  0  0  0  0  0  0  0  0
   14.2028   -0.2090   25.2955 H   0  0  0  0  0  0  0  0  0  0  0  0
   14.1048    2.1043   21.6752 H   0  0  0  0  0  0  0  0  0  0  0  0
   11.7330   -0.1555   25.4027 H   0  0  0  0  0  0  0  0  0  0  0  0
   11.6349    2.1636   21.7735 H   0  0  0  0  0  0  0  0  0  0  0  0
    7.5639   -2.8621   26.1045 H   0  0  0  0  0  0  0  0  0  0  0  0
   11.0141   -4.2644   23.9422 H   0  0  0  0  0  0  0  0  0  0  0  0
    7.5950   -0.7788   24.8007 H   0  0  0  0  0  0  0  0  0  0  0  0
   11.0408   -2.1861   22.6359 H   0  0  0  0  0  0  0  0  0  0  0  0
    4.7733    2.0700   17.5071 H   0  0  0  0  0  0  0  0  0  0  0  0
    3.2813    2.7836   19.2995 H   0  0  0  0  0  0  0  0  0  0  0  0
    3.6335    1.9977   21.6542 H   0  0  0  0  0  0  0  0  0  0  0  0
    5.5067    0.4537   22.1474 H   0  0  0  0  0  0  0  0  0  0  0  0
    7.6717   -6.3257   27.3675 H   0  0  0  0  0  0  0  0  0  0  0  0
    7.9438   -8.0211   27.8115 H   0  0  0  0  0  0  0  0  0  0  0  0
    7.3921   -7.6062   26.1778 H   0  0  0  0  0  0  0  0  0  0  0  0
    9.6778    1.0140   24.6966 H   0  0  0  0  0  0  0  0  0  0  0  0
    9.6316    1.9637   23.2107 H   0  0  0  0  0  0  0  0  0  0  0  0
    9.8267   -8.1650   26.1921 H   0  0  0  0  0  0  0  0  0  0  0  0
   10.1142   -6.9000   27.4022 H   0  0  0  0  0  0  0  0  0  0  0  0
    8.8929   -4.8270   26.7966 H   0  0  0  0  0  0  0  0  0  0  0  0
    8.1127   -1.8124   21.3493 H   0  0  0  0  0  0  0  0  0  0  0  0
  1  2  1  0  0  0  0
  1  3  2  0  0  0  0
  2  4  2  0  0  0  0
  3  5  1  0  0  0  0
  4 10  1  0  0  0  0
  5 10  2  0  0  0  0
  6  8  2  0  0  0  0
  6 11  1  0  0  0  0
  7  9  1  0  0  0  0
  7 11  2  0  0  0  0
  8 12  1  0  0  0  0
  9 12  2  0  0  0  0
 10 22  1  0  0  0  0
 11 27  1  0  0  0  0
 12 29  1  0  0  0  0
 13 15  1  0  0  0  0
 13 24  2  0  0  0  0
 13 26  1  0  0  0  0
 14 25  2  0  0  0  0
 14 26  1  0  0  0  0
 14 28  1  0  0  0  0
 15 16  2  0  0  0  0
 16 17  1  0  0  0  0
 17 18  2  0  0  0  0
 18 26  1  0  0  0  0
 19 23  1  0  0  0  0
 19 27  1  0  0  0  0
 19 30  2  0  0  0  0
 20 28  1  0  0  0  0
 20 29  1  0  0  0  0
 20 31  2  0  0  0  0
 21 23  1  0  0  0  0
 22 29  1  0  0  0  0
 24 25  1  0  0  0  0
  1 32  1  0  0  0  0
  2 33  1  0  0  0  0
  3 34  1  0  0  0  0
  4 35  1  0  0  0  0
  5 36  1  0  0  0  0
  6 37  1  0  0  0  0
  7 38  1  0  0  0  0
  8 39  1  0  0  0  0
  9 40  1  0  0  0  0
 15 41  1  0  0  0  0
 16 42  1  0  0  0  0
 17 43  1  0  0  0  0
 18 44  1  0  0  0  0
 21 45  1  0  0  0  0
 21 46  1  0  0  0  0
 21 47  1  0  0  0  0
 22 48  1  0  0  0  0
 22 49  1  0  0  0  0
 23 50  1  0  0  0  0
 23 51  1  0  0  0  0
 27 52  1  0  0  0  0
 28 53  1  0  0  0  0
M  END
> <clash_score>
1.3334639249641471

> <docking_score>
-5.894793510437012

> <overlap_score>
0.9871468544006348

$$$$
BENZO_144_1
  -OEChem-08222022393D

 50 53  0     0  0  0  0  0  0999 V2000
    8.3310   -2.7170   25.3430 C   0  0  0  0  0  0  0  0  0  0  0  0
   10.2570   -3.5000   24.1350 C   0  0  0  0  0  0  0  0  0  0  0  0
    8.3510   -1.5420   24.6110 C   0  0  0  0  0  0  0  0  0  0  0  0
   10.2760   -2.3270   23.4020 C   0  0  0  0  0  0  0  0  0  0  0  0
   12.2675    1.0332   22.3812 C   0  0  0  0  0  0  0  0  0  0  0  0
   13.6257    0.9906   22.6074 C   0  0  0  0  0  0  0  0  0  0  0  0
   12.3384    0.9467   24.7028 C   0  0  0  0  0  0  0  0  0  0  0  0
   11.5217    1.0079   23.5949 C   0  0  0  0  0  0  0  0  0  0  0  0
    9.2850   -3.7090   25.1090 C   0  0  0  0  0  0  0  0  0  0  0  0
    9.3300   -1.3350   23.6390 C   0  0  0  0  0  0  0  0  0  0  0  0
    5.9810    0.8330   18.8060 C   0  0  0  0  0  0  0  0  0  0  0  0
    7.2210   -0.4620   20.0350 C   0  0  0  0  0  0  0  0  0  0  0  0
    4.9400    1.7060   18.5060 C   0  0  0  0  0  0  0  0  0  0  0  0
    4.0980    2.1130   19.5350 C   0  0  0  0  0  0  0  0  0  0  0  0
    4.2970    1.6690   20.8430 C   0  0  0  0  0  0  0  0  0  0  0  0
    5.3360    0.8000   21.1530 C   0  0  0  0  0  0  0  0  0  0  0  0
    9.6836   -6.1684   25.4392 C   0  0  0  0  0  0  0  0  0  0  0  0
    8.9510    0.1280   21.6880 C   0  0  0  0  0  0  0  0  0  0  0  0
    8.0396   -7.2904   27.0025 C   0  0  0  0  0  0  0  0  0  0  0  0
   10.0220    1.0430   23.6570 C   0  0  0  0  0  0  0  0  0  0  0  0
    9.4856   -7.1873   26.5516 C   0  0  0  0  0  0  0  0  0  0  0  0
    6.9440    0.2550   18.0100 N   0  0  0  0  0  0  0  0  0  0  0  0
    7.6830   -0.5170   18.7600 N   0  0  0  0  0  0  0  0  0  0  0  0
    6.1600    0.3870   20.1140 N   0  0  0  0  0  0  0  0  0  0  0  0
    9.2630   -4.8902   25.8410 N   0  0  0  0  0  0  0  0  0  0  0  0
    8.0810   -0.9750   21.0820 N   0  0  0  0  0  0  0  0  0  0  0  0
    9.4200   -0.0840   22.9530 N   0  0  0  0  0  0  0  0  0  0  0  0
   10.1552   -6.4778   24.3500 O   0  0  0  0  0  0  0  0  0  0  0  0
    9.1870    1.1500   21.0630 O   0  0  0  0  0  0  0  0  0  0  0  0
   13.9969    0.9203   24.2776 S   0  0  0  0  0  0  0  0  0  0  0  0
    7.5639   -2.8621   26.1045 H   0  0  0  0  0  0  0  0  0  0  0  0
   11.0141   -4.2644   23.9422 H   0  0  0  0  0  0  0  0  0  0  0  0
    7.5950   -0.7788   24.8007 H   0  0  0  0  0  0  0  0  0  0  0  0
   11.0408   -2.1861   22.6359 H   0  0  0  0  0  0  0  0  0  0  0  0
   11.8338    1.0798   21.3902 H   0  0  0  0  0  0  0  0  0  0  0  0
   14.4176    0.9966   21.8719 H   0  0  0  0  0  0  0  0  0  0  0  0
   12.0446    0.9149   25.7428 H   0  0  0  0  0  0  0  0  0  0  0  0
    4.7733    2.0700   17.5071 H   0  0  0  0  0  0  0  0  0  0  0  0
    3.2813    2.7836   19.2995 H   0  0  0  0  0  0  0  0  0  0  0  0
    3.6335    1.9977   21.6542 H   0  0  0  0  0  0  0  0  0  0  0  0
    5.5067    0.4537   22.1474 H   0  0  0  0  0  0  0  0  0  0  0  0
    7.6717   -6.3257   27.3675 H   0  0  0  0  0  0  0  0  0  0  0  0
    7.9438   -8.0211   27.8115 H   0  0  0  0  0  0  0  0  0  0  0  0
    7.3921   -7.6062   26.1778 H   0  0  0  0  0  0  0  0  0  0  0  0
    9.6778    1.0140   24.6966 H   0  0  0  0  0  0  0  0  0  0  0  0
    9.6316    1.9637   23.2107 H   0  0  0  0  0  0  0  0  0  0  0  0
    9.8267   -8.1650   26.1921 H   0  0  0  0  0  0  0  0  0  0  0  0
   10.1142   -6.9000   27.4022 H   0  0  0  0  0  0  0  0  0  0  0  0
    8.8929   -4.8270   26.7966 H   0  0  0  0  0  0  0  0  0  0  0  0
    8.1127   -1.8124   21.3493 H   0  0  0  0  0  0  0  0  0  0  0  0
  1  3  2  0  0  0  0
  1  9  1  0  0  0  0
  2  4  1  0  0  0  0
  2  9  2  0  0  0  0
  3 10  1  0  0  0  0
  4 10  2  0  0  0  0
  5  6  2  0  0  0  0
  5  8  1  0  0  0  0
  6 30  1  0  0  0  0
  7  8  2  0  0  0  0
  7 30  1  0  0  0  0
  8 20  1  0  0  0  0
  9 25  1  0  0  0  0
 10 27  1  0  0  0  0
 11 13  1  0  0  0  0
 11 22  2  0  0  0  0
 11 24  1  0  0  0  0
 12 23  2  0  0  0  0
 12 24  1  0  0  0  0
 12 26  1  0  0  0  0
 13 14  2  0  0  0  0
 14 15  1  0  0  0  0
 15 16  2  0  0  0  0
 16 24  1  0  0  0  0
 17 21  1  0  0  0  0
 17 25  1  0  0  0  0
 17 28  2  0  0  0  0
 18 26  1  0  0  0  0
 18 27  1  0  0  0  0
 18 29  2  0  0  0  0
 19 21  1  0  0  0  0
 20 27  1  0  0  0  0
 22 23  1  0  0  0  0
  1 31  1  0  0  0  0
  2 32  1  0  0  0  0
  3 33  1  0  0  0  0
  4 34  1  0  0  0  0
  5 35  1  0  0  0  0
  6 36  1  0  0  0  0
  7 37  1  0  0  0  0
 13 38  1  0  0  0  0
 14 39  1  0  0  0  0
 15 40  1  0  0  0  0
 16 41  1  0  0  0  0
 19 42  1  0  0  0  0
 19 43  1  0  0  0  0
 19 44  1  0  0  0  0
 20 45  1  0  0  0  0
 20 46  1  0  0  0  0
 21 47  1  0  0  0  0
 21 48  1  0  0  0  0
 25 49  1  0  0  0  0
 26 50  1  0  0  0  0
M  END
> <clash_score>
1.3334639249641471

> <docking_score>
-6.140984535217285

> <overlap_score>
0.9613742828369141

$$$$
BENZO_146_1
  -OEChem-08222022393D

 53 56  0     0  0  0  0  0  0999 V2000
   13.5977    1.8457   22.6865 C   0  0  0  0  0  0  0  0  0  0  0  0
   12.2044    1.8769   22.7438 C   0  0  0  0  0  0  0  0  0  0  0  0
    8.3310   -2.7170   25.3430 C   0  0  0  0  0  0  0  0  0  0  0  0
   10.2570   -3.5000   24.1350 C   0  0  0  0  0  0  0  0  0  0  0  0
    8.3510   -1.5420   24.6110 C   0  0  0  0  0  0  0  0  0  0  0  0
   10.2760   -2.3270   23.4020 C   0  0  0  0  0  0  0  0  0  0  0  0
   14.3084    0.9454   23.4803 C   0  0  0  0  0  0  0  0  0  0  0  0
   12.2323    0.1076   24.3888 C   0  0  0  0  0  0  0  0  0  0  0  0
   11.5217    1.0079   23.5949 C   0  0  0  0  0  0  0  0  0  0  0  0
    9.2850   -3.7090   25.1090 C   0  0  0  0  0  0  0  0  0  0  0  0
    9.3300   -1.3350   23.6390 C   0  0  0  0  0  0  0  0  0  0  0  0
   13.6257    0.0764   24.3314 C   0  0  0  0  0  0  0  0  0  0  0  0
    5.9810    0.8330   18.8060 C   0  0  0  0  0  0  0  0  0  0  0  0
    7.2210   -0.4620   20.0350 C   0  0  0  0  0  0  0  0  0  0  0  0
    4.9400    1.7060   18.5060 C   0  0  0  0  0  0  0  0  0  0  0  0
    4.0980    2.1130   19.5350 C   0  0  0  0  0  0  0  0  0  0  0  0
    4.2970    1.6690   20.8430 C   0  0  0  0  0  0  0  0  0  0  0  0
    5.3360    0.8000   21.1530 C   0  0  0  0  0  0  0  0  0  0  0  0
    9.6836   -6.1684   25.4392 C   0  0  0  0  0  0  0  0  0  0  0  0
    8.9510    0.1280   21.6880 C   0  0  0  0  0  0  0  0  0  0  0  0
    8.0396   -7.2904   27.0025 C   0  0  0  0  0  0  0  0  0  0  0  0
   10.0220    1.0430   23.6570 C   0  0  0  0  0  0  0  0  0  0  0  0
    9.4856   -7.1873   26.5516 C   0  0  0  0  0  0  0  0  0  0  0  0
    6.9440    0.2550   18.0100 N   0  0  0  0  0  0  0  0  0  0  0  0
    7.6830   -0.5170   18.7600 N   0  0  0  0  0  0  0  0  0  0  0  0
    6.1600    0.3870   20.1140 N   0  0  0  0  0  0  0  0  0  0  0  0
    9.2630   -4.8902   25.8410 N   0  0  0  0  0  0  0  0  0  0  0  0
    8.0810   -0.9750   21.0820 N   0  0  0  0  0  0  0  0  0  0  0  0
    9.4200   -0.0840   22.9530 N   0  0  0  0  0  0  0  0  0  0  0  0
   10.1552   -6.4778   24.3500 O   0  0  0  0  0  0  0  0  0  0  0  0
    9.1870    1.1500   21.0630 O   0  0  0  0  0  0  0  0  0  0  0  0
   14.5031   -1.0334   25.3114 Cl  0  0  0  0  0  0  0  0  0  0  0  0
   14.1289    2.5227   22.0237 H   0  0  0  0  0  0  0  0  0  0  0  0
   11.6588    2.5818   22.1218 H   0  0  0  0  0  0  0  0  0  0  0  0
    7.5639   -2.8621   26.1045 H   0  0  0  0  0  0  0  0  0  0  0  0
   11.0141   -4.2644   23.9422 H   0  0  0  0  0  0  0  0  0  0  0  0
    7.5950   -0.7788   24.8007 H   0  0  0  0  0  0  0  0  0  0  0  0
   11.0408   -2.1861   22.6359 H   0  0  0  0  0  0  0  0  0  0  0  0
   15.3941    0.9323   23.4255 H   0  0  0  0  0  0  0  0  0  0  0  0
   11.6954   -0.5682   25.0504 H   0  0  0  0  0  0  0  0  0  0  0  0
    4.7733    2.0700   17.5071 H   0  0  0  0  0  0  0  0  0  0  0  0
    3.2813    2.7836   19.2995 H   0  0  0  0  0  0  0  0  0  0  0  0
    3.6335    1.9977   21.6542 H   0  0  0  0  0  0  0  0  0  0  0  0
    5.5067    0.4537   22.1474 H   0  0  0  0  0  0  0  0  0  0  0  0
    7.6717   -6.3257   27.3675 H   0  0  0  0  0  0  0  0  0  0  0  0
    7.9438   -8.0211   27.8115 H   0  0  0  0  0  0  0  0  0  0  0  0
    7.3921   -7.6062   26.1778 H   0  0  0  0  0  0  0  0  0  0  0  0
    9.6778    1.0140   24.6966 H   0  0  0  0  0  0  0  0  0  0  0  0
    9.6316    1.9637   23.2107 H   0  0  0  0  0  0  0  0  0  0  0  0
    9.8267   -8.1650   26.1921 H   0  0  0  0  0  0  0  0  0  0  0  0
   10.1142   -6.9000   27.4022 H   0  0  0  0  0  0  0  0  0  0  0  0
    8.8929   -4.8270   26.7966 H   0  0  0  0  0  0  0  0  0  0  0  0
    8.1127   -1.8124   21.3493 H   0  0  0  0  0  0  0  0  0  0  0  0
  1  2  2  0  0  0  0
  1  7  1  0  0  0  0
  2  9  1  0  0  0  0
  3  5  2  0  0  0  0
  3 10  1  0  0  0  0
  4  6  1  0  0  0  0
  4 10  2  0  0  0  0
  5 11  1  0  0  0  0
  6 11  2  0  0  0  0
  7 12  2  0  0  0  0
  8  9  2  0  0  0  0
  8 12  1  0  0  0  0
  9 22  1  0  0  0  0
 10 27  1  0  0  0  0
 11 29  1  0  0  0  0
 12 32  1  0  0  0  0
 13 15  1  0  0  0  0
 13 24  2  0  0  0  0
 13 26  1  0  0  0  0
 14 25  2  0  0  0  0
 14 26  1  0  0  0  0
 14 28  1  0  0  0  0
 15 16  2  0  0  0  0
 16 17  1  0  0  0  0
 17 18  2  0  0  0  0
 18 26  1  0  0  0  0
 19 23  1  0  0  0  0
 19 27  1  0  0  0  0
 19 30  2  0  0  0  0
 20 28  1  0  0  0  0
 20 29  1  0  0  0  0
 20 31  2  0  0  0  0
 21 23  1  0  0  0  0
 22 29  1  0  0  0  0
 24 25  1  0  0  0  0
  1 33  1  0  0  0  0
  2 34  1  0  0  0  0
  3 35  1  0  0  0  0
  4 36  1  0  0  0  0
  5 37  1  0  0  0  0
  6 38  1  0  0  0  0
  7 39  1  0  0  0  0
  8 40  1  0  0  0  0
 15 41  1  0  0  0  0
 16 42  1  0  0  0  0
 17 43  1  0  0  0  0
 18 44  1  0  0  0  0
 21 45  1  0  0  0  0
 21 46  1  0  0  0  0
 21 47  1  0  0  0  0
 22 48  1  0  0  0  0
 22 49  1  0  0  0  0
 23 50  1  0  0  0  0
 23 51  1  0  0  0  0
 27 52  1  0  0  0  0
 28 53  1  0  0  0  0
M  END
> <clash_score>
2.099708029624736

> <docking_score>
-5.076685905456543

> <overlap_score>
0.9923571944236755

$$$$
BENZO_147_1
  -OEChem-08222022393D

 53 56  0     0  0  0  0  0  0999 V2000
    8.3310   -2.7170   25.3430 C   0  0  0  0  0  0  0  0  0  0  0  0
   10.2570   -3.5000   24.1350 C   0  0  0  0  0  0  0  0  0  0  0  0
    8.3510   -1.5420   24.6110 C   0  0  0  0  0  0  0  0  0  0  0  0
   10.2760   -2.3270   23.4020 C   0  0  0  0  0  0  0  0  0  0  0  0
   12.4295    0.9466   24.6692 C   0  0  0  0  0  0  0  0  0  0  0  0
   12.3161    1.0259   22.4747 C   0  0  0  0  0  0  0  0  0  0  0  0
   11.5217    1.0079   23.5949 C   0  0  0  0  0  0  0  0  0  0  0  0
    9.2850   -3.7090   25.1090 C   0  0  0  0  0  0  0  0  0  0  0  0
    9.3300   -1.3350   23.6390 C   0  0  0  0  0  0  0  0  0  0  0  0
    5.9810    0.8330   18.8060 C   0  0  0  0  0  0  0  0  0  0  0  0
    7.2210   -0.4620   20.0350 C   0  0  0  0  0  0  0  0  0  0  0  0
    4.9400    1.7060   18.5060 C   0  0  0  0  0  0  0  0  0  0  0  0
    4.0980    2.1130   19.5350 C   0  0  0  0  0  0  0  0  0  0  0  0
    4.2970    1.6690   20.8430 C   0  0  0  0  0  0  0  0  0  0  0  0
    5.3360    0.8000   21.1530 C   0  0  0  0  0  0  0  0  0  0  0  0
    9.6836   -6.1684   25.4392 C   0  0  0  0  0  0  0  0  0  0  0  0
    8.9510    0.1280   21.6880 C   0  0  0  0  0  0  0  0  0  0  0  0
    8.0396   -7.2904   27.0025 C   0  0  0  0  0  0  0  0  0  0  0  0
   14.7958    0.9722   22.1181 C   0  0  0  0  0  0  0  0  0  0  0  0
   10.0220    1.0430   23.6570 C   0  0  0  0  0  0  0  0  0  0  0  0
    9.4856   -7.1873   26.5516 C   0  0  0  0  0  0  0  0  0  0  0  0
   13.7032    0.9267   24.2674 N   0  0  0  0  0  0  0  0  0  0  0  0
    6.9440    0.2550   18.0100 N   0  0  0  0  0  0  0  0  0  0  0  0
    7.6830   -0.5170   18.7600 N   0  0  0  0  0  0  0  0  0  0  0  0
   13.6014    0.9758   22.9283 N   0  0  0  0  0  0  0  0  0  0  0  0
    6.1600    0.3870   20.1140 N   0  0  0  0  0  0  0  0  0  0  0  0
    9.2630   -4.8902   25.8410 N   0  0  0  0  0  0  0  0  0  0  0  0
    8.0810   -0.9750   21.0820 N   0  0  0  0  0  0  0  0  0  0  0  0
    9.4200   -0.0840   22.9530 N   0  0  0  0  0  0  0  0  0  0  0  0
   10.1552   -6.4778   24.3500 O   0  0  0  0  0  0  0  0  0  0  0  0
    9.1870    1.1500   21.0630 O   0  0  0  0  0  0  0  0  0  0  0  0
    7.5639   -2.8621   26.1045 H   0  0  0  0  0  0  0  0  0  0  0  0
   11.0141   -4.2644   23.9422 H   0  0  0  0  0  0  0  0  0  0  0  0
    7.5950   -0.7788   24.8007 H   0  0  0  0  0  0  0  0  0  0  0  0
   11.0408   -2.1861   22.6359 H   0  0  0  0  0  0  0  0  0  0  0  0
   12.2184    0.9145   25.7287 H   0  0  0  0  0  0  0  0  0  0  0  0
   12.0821    1.0677   21.4195 H   0  0  0  0  0  0  0  0  0  0  0  0
    4.7733    2.0700   17.5071 H   0  0  0  0  0  0  0  0  0  0  0  0
    3.2813    2.7836   19.2995 H   0  0  0  0  0  0  0  0  0  0  0  0
    3.6335    1.9977   21.6542 H   0  0  0  0  0  0  0  0  0  0  0  0
    5.5067    0.4537   22.1474 H   0  0  0  0  0  0  0  0  0  0  0  0
    7.6717   -6.3257   27.3675 H   0  0  0  0  0  0  0  0  0  0  0  0
    7.9438   -8.0211   27.8115 H   0  0  0  0  0  0  0  0  0  0  0  0
    7.3921   -7.6062   26.1778 H   0  0  0  0  0  0  0  0  0  0  0  0
   15.1026    2.0102   21.9649 H   0  0  0  0  0  0  0  0  0  0  0  0
   15.5825    0.4128   22.6318 H   0  0  0  0  0  0  0  0  0  0  0  0
   14.5811    0.4905   21.1600 H   0  0  0  0  0  0  0  0  0  0  0  0
    9.6778    1.0140   24.6966 H   0  0  0  0  0  0  0  0  0  0  0  0
    9.6316    1.9637   23.2107 H   0  0  0  0  0  0  0  0  0  0  0  0
    9.8267   -8.1650   26.1921 H   0  0  0  0  0  0  0  0  0  0  0  0
   10.1142   -6.9000   27.4022 H   0  0  0  0  0  0  0  0  0  0  0  0
    8.8929   -4.8270   26.7966 H   0  0  0  0  0  0  0  0  0  0  0  0
    8.1127   -1.8124   21.3493 H   0  0  0  0  0  0  0  0  0  0  0  0
  1  3  2  0  0  0  0
  1  8  1  0  0  0  0
  2  4  1  0  0  0  0
  2  8  2  0  0  0  0
  3  9  1  0  0  0  0
  4  9  2  0  0  0  0
  5  7  1  0  0  0  0
  5 22  2  0  0  0  0
  6  7  2  0  0  0  0
  6 25  1  0  0  0  0
  7 20  1  0  0  0  0
  8 27  1  0  0  0  0
  9 29  1  0  0  0  0
 10 12  1  0  0  0  0
 10 23  2  0  0  0  0
 10 26  1  0  0  0  0
 11 24  2  0  0  0  0
 11 26  1  0  0  0  0
 11 28  1  0  0  0  0
 12 13  2  0  0  0  0
 13 14  1  0  0  0  0
 14 15  2  0  0  0  0
 15 26  1  0  0  0  0
 16 21  1  0  0  0  0
 16 27  1  0  0  0  0
 16 30  2  0  0  0  0
 17 28  1  0  0  0  0
 17 29  1  0  0  0  0
 17 31  2  0  0  0  0
 18 21  1  0  0  0  0
 19 25  1  0  0  0  0
 20 29  1  0  0  0  0
 22 25  1  0  0  0  0
 23 24  1  0  0  0  0
  1 32  1  0  0  0  0
  2 33  1  0  0  0  0
  3 34  1  0  0  0  0
  4 35  1  0  0  0  0
  5 36  1  0  0  0  0
  6 37  1  0  0  0  0
 12 38  1  0  0  0  0
 13 39  1  0  0  0  0
 14 40  1  0  0  0  0
 15 41  1  0  0  0  0
 18 42  1  0  0  0  0
 18 43  1  0  0  0  0
 18 44  1  0  0  0  0
 19 45  1  0  0  0  0
 19 46  1  0  0  0  0
 19 47  1  0  0  0  0
 20 48  1  0  0  0  0
 20 49  1  0  0  0  0
 21 50  1  0  0  0  0
 21 51  1  0  0  0  0
 27 52  1  0  0  0  0
 28 53  1  0  0  0  0
M  END
> <clash_score>
1.3334639249641471

> <docking_score>
-5.836838722229004

> <overlap_score>
0.977990448474884

$$$$
BENZO_149_1
  -OEChem-08222022393D

 58 62  0     0  0  0  0  0  0999 V2000
   14.3082    0.9431   23.4783 C   0  0  0  0  0  0  0  0  0  0  0  0
   13.6391    0.3091   24.5251 C   0  0  0  0  0  0  0  0  0  0  0  0
   13.5841    1.6096   22.4898 C   0  0  0  0  0  0  0  0  0  0  0  0
   12.2459    0.3415   24.5835 C   0  0  0  0  0  0  0  0  0  0  0  0
   12.1908    1.6420   22.5481 C   0  0  0  0  0  0  0  0  0  0  0  0
    8.3310   -2.7170   25.3430 C   0  0  0  0  0  0  0  0  0  0  0  0
   10.2570   -3.5000   24.1350 C   0  0  0  0  0  0  0  0  0  0  0  0
    8.3510   -1.5420   24.6110 C   0  0  0  0  0  0  0  0  0  0  0  0
   10.2760   -2.3270   23.4020 C   0  0  0  0  0  0  0  0  0  0  0  0
   11.5217    1.0079   23.5949 C   0  0  0  0  0  0  0  0  0  0  0  0
    9.2850   -3.7090   25.1090 C   0  0  0  0  0  0  0  0  0  0  0  0
    9.3300   -1.3350   23.6390 C   0  0  0  0  0  0  0  0  0  0  0  0
    5.9810    0.8330   18.8060 C   0  0  0  0  0  0  0  0  0  0  0  0
    7.2210   -0.4620   20.0350 C   0  0  0  0  0  0  0  0  0  0  0  0
    4.9400    1.7060   18.5060 C   0  0  0  0  0  0  0  0  0  0  0  0
    4.0980    2.1130   19.5350 C   0  0  0  0  0  0  0  0  0  0  0  0
    4.2970    1.6690   20.8430 C   0  0  0  0  0  0  0  0  0  0  0  0
    5.3360    0.8000   21.1530 C   0  0  0  0  0  0  0  0  0  0  0  0
    8.9510    0.1280   21.6880 C   0  0  0  0  0  0  0  0  0  0  0  0
    7.3162   -6.8835   26.5210 C   0  0  0  0  0  0  0  0  0  0  0  0
    7.3507   -5.5245   27.2240 C   0  0  0  0  0  0  0  0  0  0  0  0
    7.9375   -6.8069   25.1245 C   0  0  0  0  0  0  0  0  0  0  0  0
    8.7638   -4.9418   27.2163 C   0  0  0  0  0  0  0  0  0  0  0  0
    9.3378   -6.1874   25.1659 C   0  0  0  0  0  0  0  0  0  0  0  0
   10.0220    1.0430   23.6570 C   0  0  0  0  0  0  0  0  0  0  0  0
    6.9440    0.2550   18.0100 N   0  0  0  0  0  0  0  0  0  0  0  0
    7.6830   -0.5170   18.7600 N   0  0  0  0  0  0  0  0  0  0  0  0
    6.1600    0.3870   20.1140 N   0  0  0  0  0  0  0  0  0  0  0  0
    9.2639   -4.8860   25.8399 N   0  0  0  0  0  0  0  0  0  0  0  0
    8.0810   -0.9750   21.0820 N   0  0  0  0  0  0  0  0  0  0  0  0
    9.4200   -0.0840   22.9530 N   0  0  0  0  0  0  0  0  0  0  0  0
    9.1870    1.1500   21.0630 O   0  0  0  0  0  0  0  0  0  0  0  0
   15.3932    0.9189   23.4337 H   0  0  0  0  0  0  0  0  0  0  0  0
   14.2029   -0.2090   25.2955 H   0  0  0  0  0  0  0  0  0  0  0  0
   14.1048    2.1043   21.6752 H   0  0  0  0  0  0  0  0  0  0  0  0
   11.7330   -0.1555   25.4027 H   0  0  0  0  0  0  0  0  0  0  0  0
   11.6349    2.1636   21.7735 H   0  0  0  0  0  0  0  0  0  0  0  0
    7.5647   -2.8621   26.1053 H   0  0  0  0  0  0  0  0  0  0  0  0
   11.0144   -4.2642   23.9425 H   0  0  0  0  0  0  0  0  0  0  0  0
    7.5958   -0.7779   24.8006 H   0  0  0  0  0  0  0  0  0  0  0  0
   11.0406   -2.1848   22.6356 H   0  0  0  0  0  0  0  0  0  0  0  0
    4.7733    2.0700   17.5071 H   0  0  0  0  0  0  0  0  0  0  0  0
    3.2813    2.7836   19.2995 H   0  0  0  0  0  0  0  0  0  0  0  0
    3.6335    1.9977   21.6542 H   0  0  0  0  0  0  0  0  0  0  0  0
    5.5067    0.4537   22.1474 H   0  0  0  0  0  0  0  0  0  0  0  0
    7.8578   -7.6261   27.1266 H   0  0  0  0  0  0  0  0  0  0  0  0
    6.2773   -7.2358   26.4459 H   0  0  0  0  0  0  0  0  0  0  0  0
    6.6663   -4.8351   26.7223 H   0  0  0  0  0  0  0  0  0  0  0  0
    7.0044   -5.6368   28.2534 H   0  0  0  0  0  0  0  0  0  0  0  0
    7.9946   -7.8119   24.6937 H   0  0  0  0  0  0  0  0  0  0  0  0
    7.2929   -6.2123   24.4668 H   0  0  0  0  0  0  0  0  0  0  0  0
    8.7343   -3.9408   27.6542 H   0  0  0  0  0  0  0  0  0  0  0  0
    9.4243   -5.5632   27.8278 H   0  0  0  0  0  0  0  0  0  0  0  0
   10.0200   -6.8490   25.7011 H   0  0  0  0  0  0  0  0  0  0  0  0
    9.6984   -6.0694   24.1436 H   0  0  0  0  0  0  0  0  0  0  0  0
    9.6778    1.0140   24.6966 H   0  0  0  0  0  0  0  0  0  0  0  0
    9.6316    1.9637   23.2107 H   0  0  0  0  0  0  0  0  0  0  0  0
    8.1334   -1.7992   21.3673 H   0  0  0  0  0  0  0  0  0  0  0  0
  1  2  1  0  0  0  0
  1  3  2  0  0  0  0
  2  4  2  0  0  0  0
  3  5  1  0  0  0  0
  4 10  1  0  0  0  0
  5 10  2  0  0  0  0
  6  8  2  0  0  0  0
  6 11  1  0  0  0  0
  7  9  1  0  0  0  0
  7 11  2  0  0  0  0
  8 12  1  0  0  0  0
  9 12  2  0  0  0  0
 10 25  1  0  0  0  0
 11 29  1  0  0  0  0
 12 31  1  0  0  0  0
 13 15  1  0  0  0  0
 13 26  2  0  0  0  0
 13 28  1  0  0  0  0
 14 27  2  0  0  0  0
 14 28  1  0  0  0  0
 14 30  1  0  0  0  0
 15 16  2  0  0  0  0
 16 17  1  0  0  0  0
 17 18  2  0  0  0  0
 18 28  1  0  0  0  0
 19 30  1  0  0  0  0
 19 31  1  0  0  0  0
 19 32  2  0  0  0  0
 20 21  1  0  0  0  0
 20 22  1  0  0  0  0
 21 23  1  0  0  0  0
 22 24  1  0  0  0  0
 23 29  1  0  0  0  0
 24 29  1  0  0  0  0
 25 31  1  0  0  0  0
 26 27  1  0  0  0  0
  1 33  1  0  0  0  0
  2 34  1  0  0  0  0
  3 35  1  0  0  0  0
  4 36  1  0  0  0  0
  5 37  1  0  0  0  0
  6 38  1  0  0  0  0
  7 39  1  0  0  0  0
  8 40  1  0  0  0  0
  9 41  1  0  0  0  0
 15 42  1  0  0  0  0
 16 43  1  0  0  0  0
 17 44  1  0  0  0  0
 18 45  1  0  0  0  0
 20 46  1  0  0  0  0
 20 47  1  0  0  0  0
 21 48  1  0  0  0  0
 21 49  1  0  0  0  0
 22 50  1  0  0  0  0
 22 51  1  0  0  0  0
 23 52  1  0  0  0  0
 23 53  1  0  0  0  0
 24 54  1  0  0  0  0
 24 55  1  0  0  0  0
 25 56  1  0  0  0  0
 25 57  1  0  0  0  0
 30 58  1  0  0  0  0
M  END
> <clash_score>
0

> <docking_score>
-8.127267837524414

> <overlap_score>
1.0155829191207886

$$$$
BENZO_148_1
  -OEChem-08222022393D

 55 59  0     0  0  0  0  0  0999 V2000
    8.3310   -2.7170   25.3430 C   0  0  0  0  0  0  0  0  0  0  0  0
   10.2570   -3.5000   24.1350 C   0  0  0  0  0  0  0  0  0  0  0  0
    8.3510   -1.5420   24.6110 C   0  0  0  0  0  0  0  0  0  0  0  0
   10.2760   -2.3270   23.4020 C   0  0  0  0  0  0  0  0  0  0  0  0
   12.2675    1.0332   22.3812 C   0  0  0  0  0  0  0  0  0  0  0  0
   13.6257    0.9906   22.6074 C   0  0  0  0  0  0  0  0  0  0  0  0
   12.3384    0.9467   24.7028 C   0  0  0  0  0  0  0  0  0  0  0  0
   11.5217    1.0079   23.5949 C   0  0  0  0  0  0  0  0  0  0  0  0
    9.2850   -3.7090   25.1090 C   0  0  0  0  0  0  0  0  0  0  0  0
    9.3300   -1.3350   23.6390 C   0  0  0  0  0  0  0  0  0  0  0  0
    5.9810    0.8330   18.8060 C   0  0  0  0  0  0  0  0  0  0  0  0
    7.2210   -0.4620   20.0350 C   0  0  0  0  0  0  0  0  0  0  0  0
    4.9400    1.7060   18.5060 C   0  0  0  0  0  0  0  0  0  0  0  0
    4.0980    2.1130   19.5350 C   0  0  0  0  0  0  0  0  0  0  0  0
    4.2970    1.6690   20.8430 C   0  0  0  0  0  0  0  0  0  0  0  0
    5.3360    0.8000   21.1530 C   0  0  0  0  0  0  0  0  0  0  0  0
    8.9510    0.1280   21.6880 C   0  0  0  0  0  0  0  0  0  0  0  0
    7.3162   -6.8835   26.5210 C   0  0  0  0  0  0  0  0  0  0  0  0
    7.3507   -5.5245   27.2240 C   0  0  0  0  0  0  0  0  0  0  0  0
    7.9375   -6.8069   25.1245 C   0  0  0  0  0  0  0  0  0  0  0  0
    8.7638   -4.9418   27.2163 C   0  0  0  0  0  0  0  0  0  0  0  0
    9.3378   -6.1874   25.1659 C   0  0  0  0  0  0  0  0  0  0  0  0
   10.0220    1.0430   23.6570 C   0  0  0  0  0  0  0  0  0  0  0  0
    6.9440    0.2550   18.0100 N   0  0  0  0  0  0  0  0  0  0  0  0
    7.6830   -0.5170   18.7600 N   0  0  0  0  0  0  0  0  0  0  0  0
    6.1600    0.3870   20.1140 N   0  0  0  0  0  0  0  0  0  0  0  0
    9.2639   -4.8860   25.8399 N   0  0  0  0  0  0  0  0  0  0  0  0
    8.0810   -0.9750   21.0820 N   0  0  0  0  0  0  0  0  0  0  0  0
    9.4200   -0.0840   22.9530 N   0  0  0  0  0  0  0  0  0  0  0  0
    9.1870    1.1500   21.0630 O   0  0  0  0  0  0  0  0  0  0  0  0
   13.9969    0.9203   24.2776 S   0  0  0  0  0  0  0  0  0  0  0  0
    7.5647   -2.8621   26.1053 H   0  0  0  0  0  0  0  0  0  0  0  0
   11.0144   -4.2642   23.9425 H   0  0  0  0  0  0  0  0  0  0  0  0
    7.5958   -0.7779   24.8006 H   0  0  0  0  0  0  0  0  0  0  0  0
   11.0406   -2.1848   22.6356 H   0  0  0  0  0  0  0  0  0  0  0  0
   11.8338    1.0798   21.3902 H   0  0  0  0  0  0  0  0  0  0  0  0
   14.4176    0.9966   21.8719 H   0  0  0  0  0  0  0  0  0  0  0  0
   12.0446    0.9149   25.7428 H   0  0  0  0  0  0  0  0  0  0  0  0
    4.7733    2.0700   17.5071 H   0  0  0  0  0  0  0  0  0  0  0  0
    3.2813    2.7836   19.2995 H   0  0  0  0  0  0  0  0  0  0  0  0
    3.6335    1.9977   21.6542 H   0  0  0  0  0  0  0  0  0  0  0  0
    5.5067    0.4537   22.1474 H   0  0  0  0  0  0  0  0  0  0  0  0
    7.8578   -7.6261   27.1266 H   0  0  0  0  0  0  0  0  0  0  0  0
    6.2773   -7.2358   26.4459 H   0  0  0  0  0  0  0  0  0  0  0  0
    6.6663   -4.8351   26.7223 H   0  0  0  0  0  0  0  0  0  0  0  0
    7.0044   -5.6368   28.2534 H   0  0  0  0  0  0  0  0  0  0  0  0
    7.9946   -7.8119   24.6937 H   0  0  0  0  0  0  0  0  0  0  0  0
    7.2929   -6.2123   24.4668 H   0  0  0  0  0  0  0  0  0  0  0  0
    8.7343   -3.9408   27.6542 H   0  0  0  0  0  0  0  0  0  0  0  0
    9.4243   -5.5632   27.8278 H   0  0  0  0  0  0  0  0  0  0  0  0
   10.0200   -6.8490   25.7011 H   0  0  0  0  0  0  0  0  0  0  0  0
    9.6984   -6.0694   24.1436 H   0  0  0  0  0  0  0  0  0  0  0  0
    9.6778    1.0140   24.6966 H   0  0  0  0  0  0  0  0  0  0  0  0
    9.6316    1.9637   23.2107 H   0  0  0  0  0  0  0  0  0  0  0  0
    8.1334   -1.7992   21.3673 H   0  0  0  0  0  0  0  0  0  0  0  0
  1  3  2  0  0  0  0
  1  9  1  0  0  0  0
  2  4  1  0  0  0  0
  2  9  2  0  0  0  0
  3 10  1  0  0  0  0
  4 10  2  0  0  0  0
  5  6  2  0  0  0  0
  5  8  1  0  0  0  0
  6 31  1  0  0  0  0
  7  8  2  0  0  0  0
  7 31  1  0  0  0  0
  8 23  1  0  0  0  0
  9 27  1  0  0  0  0
 10 29  1  0  0  0  0
 11 13  1  0  0  0  0
 11 24  2  0  0  0  0
 11 26  1  0  0  0  0
 12 25  2  0  0  0  0
 12 26  1  0  0  0  0
 12 28  1  0  0  0  0
 13 14  2  0  0  0  0
 14 15  1  0  0  0  0
 15 16  2  0  0  0  0
 16 26  1  0  0  0  0
 17 28  1  0  0  0  0
 17 29  1  0  0  0  0
 17 30  2  0  0  0  0
 18 19  1  0  0  0  0
 18 20  1  0  0  0  0
 19 21  1  0  0  0  0
 20 22  1  0  0  0  0
 21 27  1  0  0  0  0
 22 27  1  0  0  0  0
 23 29  1  0  0  0  0
 24 25  1  0  0  0  0
  1 32  1  0  0  0  0
  2 33  1  0  0  0  0
  3 34  1  0  0  0  0
  4 35  1  0  0  0  0
  5 36  1  0  0  0  0
  6 37  1  0  0  0  0
  7 38  1  0  0  0  0
 13 39  1  0  0  0  0
 14 40  1  0  0  0  0
 15 41  1  0  0  0  0
 16 42  1  0  0  0  0
 18 43  1  0  0  0  0
 18 44  1  0  0  0  0
 19 45  1  0  0  0  0
 19 46  1  0  0  0  0
 20 47  1  0  0  0  0
 20 48  1  0  0  0  0
 21 49  1  0  0  0  0
 21 50  1  0  0  0  0
 22 51  1  0  0  0  0
 22 52  1  0  0  0  0
 23 53  1  0  0  0  0
 23 54  1  0  0  0  0
 28 55  1  0  0  0  0
M  END
> <clash_score>
0

> <docking_score>
-8.373465538024902

> <overlap_score>
0.9899338483810425

$$$$
BENZO_153_1
  -OEChem-08222022393D

 46 49  0     0  0  0  0  0  0999 V2000
   14.3082    0.9431   23.4783 C   0  0  0  0  0  0  0  0  0  0  0  0
   13.6391    0.3091   24.5251 C   0  0  0  0  0  0  0  0  0  0  0  0
   13.5841    1.6096   22.4898 C   0  0  0  0  0  0  0  0  0  0  0  0
   12.2459    0.3415   24.5835 C   0  0  0  0  0  0  0  0  0  0  0  0
   12.1908    1.6420   22.5481 C   0  0  0  0  0  0  0  0  0  0  0  0
    8.3310   -2.7170   25.3430 C   0  0  0  0  0  0  0  0  0  0  0  0
   10.2570   -3.5000   24.1350 C   0  0  0  0  0  0  0  0  0  0  0  0
    8.3510   -1.5420   24.6110 C   0  0  0  0  0  0  0  0  0  0  0  0
   10.2760   -2.3270   23.4020 C   0  0  0  0  0  0  0  0  0  0  0  0
    9.2850   -3.7090   25.1090 C   0  0  0  0  0  0  0  0  0  0  0  0
   11.5217    1.0079   23.5949 C   0  0  0  0  0  0  0  0  0  0  0  0
    9.3300   -1.3350   23.6390 C   0  0  0  0  0  0  0  0  0  0  0  0
    5.9810    0.8330   18.8060 C   0  0  0  0  0  0  0  0  0  0  0  0
    7.2210   -0.4620   20.0350 C   0  0  0  0  0  0  0  0  0  0  0  0
    4.9400    1.7060   18.5060 C   0  0  0  0  0  0  0  0  0  0  0  0
    4.0980    2.1130   19.5350 C   0  0  0  0  0  0  0  0  0  0  0  0
    4.2970    1.6690   20.8430 C   0  0  0  0  0  0  0  0  0  0  0  0
    5.3360    0.8000   21.1530 C   0  0  0  0  0  0  0  0  0  0  0  0
    8.9510    0.1280   21.6880 C   0  0  0  0  0  0  0  0  0  0  0  0
    9.2610   -4.9721   25.8916 C   0  0  0  0  0  0  0  0  0  0  0  0
   10.0220    1.0430   23.6570 C   0  0  0  0  0  0  0  0  0  0  0  0
    6.9440    0.2550   18.0100 N   0  0  0  0  0  0  0  0  0  0  0  0
    7.6830   -0.5170   18.7600 N   0  0  0  0  0  0  0  0  0  0  0  0
    6.1600    0.3870   20.1140 N   0  0  0  0  0  0  0  0  0  0  0  0
    8.0810   -0.9750   21.0820 N   0  0  0  0  0  0  0  0  0  0  0  0
    9.4200   -0.0840   22.9530 N   0  0  0  0  0  0  0  0  0  0  0  0
    9.1870    1.1500   21.0630 O   0  0  0  0  0  0  0  0  0  0  0  0
   15.3932    0.9189   23.4337 H   0  0  0  0  0  0  0  0  0  0  0  0
   14.2028   -0.2090   25.2955 H   0  0  0  0  0  0  0  0  0  0  0  0
   14.1048    2.1043   21.6752 H   0  0  0  0  0  0  0  0  0  0  0  0
   11.7330   -0.1555   25.4027 H   0  0  0  0  0  0  0  0  0  0  0  0
   11.6349    2.1636   21.7735 H   0  0  0  0  0  0  0  0  0  0  0  0
    7.5665   -2.8638   26.1066 H   0  0  0  0  0  0  0  0  0  0  0  0
   11.0137   -4.2652   23.9447 H   0  0  0  0  0  0  0  0  0  0  0  0
    7.5948   -0.7788   24.7997 H   0  0  0  0  0  0  0  0  0  0  0  0
   11.0411   -2.1856   22.6358 H   0  0  0  0  0  0  0  0  0  0  0  0
    4.7733    2.0700   17.5071 H   0  0  0  0  0  0  0  0  0  0  0  0
    3.2813    2.7836   19.2995 H   0  0  0  0  0  0  0  0  0  0  0  0
    3.6335    1.9977   21.6542 H   0  0  0  0  0  0  0  0  0  0  0  0
    5.5067    0.4537   22.1474 H   0  0  0  0  0  0  0  0  0  0  0  0
    8.6398   -5.7223   25.3871 H   0  0  0  0  0  0  0  0  0  0  0  0
   10.2715   -5.3829   26.0145 H   0  0  0  0  0  0  0  0  0  0  0  0
    8.8596   -4.8092   26.9004 H   0  0  0  0  0  0  0  0  0  0  0  0
    9.6778    1.0140   24.6966 H   0  0  0  0  0  0  0  0  0  0  0  0
    9.6316    1.9637   23.2107 H   0  0  0  0  0  0  0  0  0  0  0  0
    8.1127   -1.8124   21.3493 H   0  0  0  0  0  0  0  0  0  0  0  0
  1  2  1  0  0  0  0
  1  3  2  0  0  0  0
  2  4  2  0  0  0  0
  3  5  1  0  0  0  0
  4 11  1  0  0  0  0
  5 11  2  0  0  0  0
  6  8  2  0  0  0  0
  6 10  1  0  0  0  0
  7  9  1  0  0  0  0
  7 10  2  0  0  0  0
  8 12  1  0  0  0  0
  9 12  2  0  0  0  0
 10 20  1  0  0  0  0
 11 21  1  0  0  0  0
 12 26  1  0  0  0  0
 13 15  1  0  0  0  0
 13 22  2  0  0  0  0
 13 24  1  0  0  0  0
 14 23  2  0  0  0  0
 14 24  1  0  0  0  0
 14 25  1  0  0  0  0
 15 16  2  0  0  0  0
 16 17  1  0  0  0  0
 17 18  2  0  0  0  0
 18 24  1  0  0  0  0
 19 25  1  0  0  0  0
 19 26  1  0  0  0  0
 19 27  2  0  0  0  0
 21 26  1  0  0  0  0
 22 23  1  0  0  0  0
  1 28  1  0  0  0  0
  2 29  1  0  0  0  0
  3 30  1  0  0  0  0
  4 31  1  0  0  0  0
  5 32  1  0  0  0  0
  6 33  1  0  0  0  0
  7 34  1  0  0  0  0
  8 35  1  0  0  0  0
  9 36  1  0  0  0  0
 15 37  1  0  0  0  0
 16 38  1  0  0  0  0
 17 39  1  0  0  0  0
 18 40  1  0  0  0  0
 20 41  1  0  0  0  0
 20 42  1  0  0  0  0
 20 43  1  0  0  0  0
 21 44  1  0  0  0  0
 21 45  1  0  0  0  0
 25 46  1  0  0  0  0
M  END
> <clash_score>
0

> <docking_score>
-9.084927558898926

> <overlap_score>
0.9717715382575989

$$$$
BENZO_152_1
  -OEChem-08222022393D

 43 46  0     0  0  0  0  0  0999 V2000
    8.3310   -2.7170   25.3430 C   0  0  0  0  0  0  0  0  0  0  0  0
   10.2570   -3.5000   24.1350 C   0  0  0  0  0  0  0  0  0  0  0  0
    8.3510   -1.5420   24.6110 C   0  0  0  0  0  0  0  0  0  0  0  0
   10.2760   -2.3270   23.4020 C   0  0  0  0  0  0  0  0  0  0  0  0
   12.2675    1.0332   22.3812 C   0  0  0  0  0  0  0  0  0  0  0  0
   13.6257    0.9906   22.6074 C   0  0  0  0  0  0  0  0  0  0  0  0
   12.3384    0.9467   24.7028 C   0  0  0  0  0  0  0  0  0  0  0  0
    9.2850   -3.7090   25.1090 C   0  0  0  0  0  0  0  0  0  0  0  0
   11.5217    1.0079   23.5949 C   0  0  0  0  0  0  0  0  0  0  0  0
    9.3300   -1.3350   23.6390 C   0  0  0  0  0  0  0  0  0  0  0  0
    5.9810    0.8330   18.8060 C   0  0  0  0  0  0  0  0  0  0  0  0
    7.2210   -0.4620   20.0350 C   0  0  0  0  0  0  0  0  0  0  0  0
    4.9400    1.7060   18.5060 C   0  0  0  0  0  0  0  0  0  0  0  0
    4.0980    2.1130   19.5350 C   0  0  0  0  0  0  0  0  0  0  0  0
    4.2970    1.6690   20.8430 C   0  0  0  0  0  0  0  0  0  0  0  0
    5.3360    0.8000   21.1530 C   0  0  0  0  0  0  0  0  0  0  0  0
    8.9510    0.1280   21.6880 C   0  0  0  0  0  0  0  0  0  0  0  0
    9.2610   -4.9721   25.8916 C   0  0  0  0  0  0  0  0  0  0  0  0
   10.0220    1.0430   23.6570 C   0  0  0  0  0  0  0  0  0  0  0  0
    6.9440    0.2550   18.0100 N   0  0  0  0  0  0  0  0  0  0  0  0
    7.6830   -0.5170   18.7600 N   0  0  0  0  0  0  0  0  0  0  0  0
    6.1600    0.3870   20.1140 N   0  0  0  0  0  0  0  0  0  0  0  0
    8.0810   -0.9750   21.0820 N   0  0  0  0  0  0  0  0  0  0  0  0
    9.4200   -0.0840   22.9530 N   0  0  0  0  0  0  0  0  0  0  0  0
    9.1870    1.1500   21.0630 O   0  0  0  0  0  0  0  0  0  0  0  0
   13.9969    0.9203   24.2776 S   0  0  0  0  0  0  0  0  0  0  0  0
    7.5665   -2.8638   26.1066 H   0  0  0  0  0  0  0  0  0  0  0  0
   11.0137   -4.2652   23.9447 H   0  0  0  0  0  0  0  0  0  0  0  0
    7.5948   -0.7788   24.7997 H   0  0  0  0  0  0  0  0  0  0  0  0
   11.0411   -2.1856   22.6358 H   0  0  0  0  0  0  0  0  0  0  0  0
   11.8338    1.0798   21.3902 H   0  0  0  0  0  0  0  0  0  0  0  0
   14.4176    0.9966   21.8719 H   0  0  0  0  0  0  0  0  0  0  0  0
   12.0446    0.9149   25.7428 H   0  0  0  0  0  0  0  0  0  0  0  0
    4.7733    2.0700   17.5071 H   0  0  0  0  0  0  0  0  0  0  0  0
    3.2813    2.7836   19.2995 H   0  0  0  0  0  0  0  0  0  0  0  0
    3.6335    1.9977   21.6542 H   0  0  0  0  0  0  0  0  0  0  0  0
    5.5067    0.4537   22.1474 H   0  0  0  0  0  0  0  0  0  0  0  0
    8.6398   -5.7223   25.3871 H   0  0  0  0  0  0  0  0  0  0  0  0
   10.2715   -5.3829   26.0145 H   0  0  0  0  0  0  0  0  0  0  0  0
    8.8596   -4.8092   26.9004 H   0  0  0  0  0  0  0  0  0  0  0  0
    9.6778    1.0140   24.6966 H   0  0  0  0  0  0  0  0  0  0  0  0
    9.6316    1.9637   23.2107 H   0  0  0  0  0  0  0  0  0  0  0  0
    8.1127   -1.8124   21.3493 H   0  0  0  0  0  0  0  0  0  0  0  0
  1  3  2  0  0  0  0
  1  8  1  0  0  0  0
  2  4  1  0  0  0  0
  2  8  2  0  0  0  0
  3 10  1  0  0  0  0
  4 10  2  0  0  0  0
  5  6  2  0  0  0  0
  5  9  1  0  0  0  0
  6 26  1  0  0  0  0
  7  9  2  0  0  0  0
  7 26  1  0  0  0  0
  8 18  1  0  0  0  0
  9 19  1  0  0  0  0
 10 24  1  0  0  0  0
 11 13  1  0  0  0  0
 11 20  2  0  0  0  0
 11 22  1  0  0  0  0
 12 21  2  0  0  0  0
 12 22  1  0  0  0  0
 12 23  1  0  0  0  0
 13 14  2  0  0  0  0
 14 15  1  0  0  0  0
 15 16  2  0  0  0  0
 16 22  1  0  0  0  0
 17 23  1  0  0  0  0
 17 24  1  0  0  0  0
 17 25  2  0  0  0  0
 19 24  1  0  0  0  0
 20 21  1  0  0  0  0
  1 27  1  0  0  0  0
  2 28  1  0  0  0  0
  3 29  1  0  0  0  0
  4 30  1  0  0  0  0
  5 31  1  0  0  0  0
  6 32  1  0  0  0  0
  7 33  1  0  0  0  0
 13 34  1  0  0  0  0
 14 35  1  0  0  0  0
 15 36  1  0  0  0  0
 16 37  1  0  0  0  0
 18 38  1  0  0  0  0
 18 39  1  0  0  0  0
 18 40  1  0  0  0  0
 19 41  1  0  0  0  0
 19 42  1  0  0  0  0
 23 43  1  0  0  0  0
M  END
> <clash_score>
0

> <docking_score>
-9.331121444702148

> <overlap_score>
0.9457806348800659

$$$$
BENZO_151_1
  -OEChem-08222022393D

 58 62  0     0  0  0  0  0  0999 V2000
    8.3310   -2.7170   25.3430 C   0  0  0  0  0  0  0  0  0  0  0  0
   10.2570   -3.5000   24.1350 C   0  0  0  0  0  0  0  0  0  0  0  0
    8.3510   -1.5420   24.6110 C   0  0  0  0  0  0  0  0  0  0  0  0
   10.2760   -2.3270   23.4020 C   0  0  0  0  0  0  0  0  0  0  0  0
   12.4358    1.7439   24.3724 C   0  0  0  0  0  0  0  0  0  0  0  0
   12.3100    0.2469   22.7668 C   0  0  0  0  0  0  0  0  0  0  0  0
   11.5217    1.0079   23.5949 C   0  0  0  0  0  0  0  0  0  0  0  0
    9.2850   -3.7090   25.1090 C   0  0  0  0  0  0  0  0  0  0  0  0
    9.3300   -1.3350   23.6390 C   0  0  0  0  0  0  0  0  0  0  0  0
    5.9810    0.8330   18.8060 C   0  0  0  0  0  0  0  0  0  0  0  0
    7.2210   -0.4620   20.0350 C   0  0  0  0  0  0  0  0  0  0  0  0
    4.9400    1.7060   18.5060 C   0  0  0  0  0  0  0  0  0  0  0  0
    4.0980    2.1130   19.5350 C   0  0  0  0  0  0  0  0  0  0  0  0
    4.2970    1.6690   20.8430 C   0  0  0  0  0  0  0  0  0  0  0  0
    5.3360    0.8000   21.1530 C   0  0  0  0  0  0  0  0  0  0  0  0
    8.9510    0.1280   21.6880 C   0  0  0  0  0  0  0  0  0  0  0  0
    7.3162   -6.8835   26.5210 C   0  0  0  0  0  0  0  0  0  0  0  0
    7.3507   -5.5245   27.2240 C   0  0  0  0  0  0  0  0  0  0  0  0
    7.9375   -6.8069   25.1245 C   0  0  0  0  0  0  0  0  0  0  0  0
    8.7638   -4.9418   27.2163 C   0  0  0  0  0  0  0  0  0  0  0  0
    9.3378   -6.1874   25.1659 C   0  0  0  0  0  0  0  0  0  0  0  0
   14.7884    0.0124   22.4815 C   0  0  0  0  0  0  0  0  0  0  0  0
   10.0220    1.0430   23.6570 C   0  0  0  0  0  0  0  0  0  0  0  0
   13.7076    1.4745   24.0657 N   0  0  0  0  0  0  0  0  0  0  0  0
    6.9440    0.2550   18.0100 N   0  0  0  0  0  0  0  0  0  0  0  0
    7.6830   -0.5170   18.7600 N   0  0  0  0  0  0  0  0  0  0  0  0
   13.5982    0.5607   23.0864 N   0  0  0  0  0  0  0  0  0  0  0  0
    6.1600    0.3870   20.1140 N   0  0  0  0  0  0  0  0  0  0  0  0
    9.2639   -4.8860   25.8399 N   0  0  0  0  0  0  0  0  0  0  0  0
    8.0810   -0.9750   21.0820 N   0  0  0  0  0  0  0  0  0  0  0  0
    9.4200   -0.0840   22.9530 N   0  0  0  0  0  0  0  0  0  0  0  0
    9.1870    1.1500   21.0630 O   0  0  0  0  0  0  0  0  0  0  0  0
    7.5647   -2.8621   26.1053 H   0  0  0  0  0  0  0  0  0  0  0  0
   11.0144   -4.2642   23.9425 H   0  0  0  0  0  0  0  0  0  0  0  0
    7.5958   -0.7779   24.8006 H   0  0  0  0  0  0  0  0  0  0  0  0
   11.0406   -2.1848   22.6356 H   0  0  0  0  0  0  0  0  0  0  0  0
   12.2308    2.4652   25.1508 H   0  0  0  0  0  0  0  0  0  0  0  0
   12.0700   -0.4744   21.9974 H   0  0  0  0  0  0  0  0  0  0  0  0
    4.7733    2.0700   17.5071 H   0  0  0  0  0  0  0  0  0  0  0  0
    3.2813    2.7836   19.2995 H   0  0  0  0  0  0  0  0  0  0  0  0
    3.6335    1.9977   21.6542 H   0  0  0  0  0  0  0  0  0  0  0  0
    5.5067    0.4537   22.1474 H   0  0  0  0  0  0  0  0  0  0  0  0
    7.8578   -7.6261   27.1266 H   0  0  0  0  0  0  0  0  0  0  0  0
    6.2773   -7.2358   26.4459 H   0  0  0  0  0  0  0  0  0  0  0  0
    6.6663   -4.8351   26.7223 H   0  0  0  0  0  0  0  0  0  0  0  0
    7.0044   -5.6368   28.2534 H   0  0  0  0  0  0  0  0  0  0  0  0
    7.9946   -7.8119   24.6937 H   0  0  0  0  0  0  0  0  0  0  0  0
    7.2929   -6.2123   24.4668 H   0  0  0  0  0  0  0  0  0  0  0  0
    8.7343   -3.9408   27.6542 H   0  0  0  0  0  0  0  0  0  0  0  0
    9.4243   -5.5632   27.8278 H   0  0  0  0  0  0  0  0  0  0  0  0
   10.0200   -6.8490   25.7011 H   0  0  0  0  0  0  0  0  0  0  0  0
    9.6984   -6.0694   24.1436 H   0  0  0  0  0  0  0  0  0  0  0  0
   15.0569    0.6453   21.6315 H   0  0  0  0  0  0  0  0  0  0  0  0
   15.5971   -0.0026   23.2174 H   0  0  0  0  0  0  0  0  0  0  0  0
   14.5870   -1.0100   22.1498 H   0  0  0  0  0  0  0  0  0  0  0  0
    9.6778    1.0140   24.6966 H   0  0  0  0  0  0  0  0  0  0  0  0
    9.6316    1.9637   23.2107 H   0  0  0  0  0  0  0  0  0  0  0  0
    8.1334   -1.7992   21.3673 H   0  0  0  0  0  0  0  0  0  0  0  0
  1  3  2  0  0  0  0
  1  8  1  0  0  0  0
  2  4  1  0  0  0  0
  2  8  2  0  0  0  0
  3  9  1  0  0  0  0
  4  9  2  0  0  0  0
  5  7  1  0  0  0  0
  5 24  2  0  0  0  0
  6  7  2  0  0  0  0
  6 27  1  0  0  0  0
  7 23  1  0  0  0  0
  8 29  1  0  0  0  0
  9 31  1  0  0  0  0
 10 12  1  0  0  0  0
 10 25  2  0  0  0  0
 10 28  1  0  0  0  0
 11 26  2  0  0  0  0
 11 28  1  0  0  0  0
 11 30  1  0  0  0  0
 12 13  2  0  0  0  0
 13 14  1  0  0  0  0
 14 15  2  0  0  0  0
 15 28  1  0  0  0  0
 16 30  1  0  0  0  0
 16 31  1  0  0  0  0
 16 32  2  0  0  0  0
 17 18  1  0  0  0  0
 17 19  1  0  0  0  0
 18 20  1  0  0  0  0
 19 21  1  0  0  0  0
 20 29  1  0  0  0  0
 21 29  1  0  0  0  0
 22 27  1  0  0  0  0
 23 31  1  0  0  0  0
 24 27  1  0  0  0  0
 25 26  1  0  0  0  0
  1 33  1  0  0  0  0
  2 34  1  0  0  0  0
  3 35  1  0  0  0  0
  4 36  1  0  0  0  0
  5 37  1  0  0  0  0
  6 38  1  0  0  0  0
 12 39  1  0  0  0  0
 13 40  1  0  0  0  0
 14 41  1  0  0  0  0
 15 42  1  0  0  0  0
 17 43  1  0  0  0  0
 17 44  1  0  0  0  0
 18 45  1  0  0  0  0
 18 46  1  0  0  0  0
 19 47  1  0  0  0  0
 19 48  1  0  0  0  0
 20 49  1  0  0  0  0
 20 50  1  0  0  0  0
 21 51  1  0  0  0  0
 21 52  1  0  0  0  0
 22 53  1  0  0  0  0
 22 54  1  0  0  0  0
 22 55  1  0  0  0  0
 23 56  1  0  0  0  0
 23 57  1  0  0  0  0
 30 58  1  0  0  0  0
M  END
> <clash_score>
0

> <docking_score>
-8.341869354248047

> <overlap_score>
1.0017565488815308

$$$$
BENZO_150_1
  -OEChem-08222022393D

 58 62  0     0  0  0  0  0  0999 V2000
   13.6668    1.7807   24.3938 C   0  0  0  0  0  0  0  0  0  0  0  0
   12.2735    1.8136   24.4501 C   0  0  0  0  0  0  0  0  0  0  0  0
    8.3310   -2.7170   25.3430 C   0  0  0  0  0  0  0  0  0  0  0  0
   10.2570   -3.5000   24.1350 C   0  0  0  0  0  0  0  0  0  0  0  0
    8.3510   -1.5420   24.6110 C   0  0  0  0  0  0  0  0  0  0  0  0
   10.2760   -2.3270   23.4020 C   0  0  0  0  0  0  0  0  0  0  0  0
   14.3084    0.9422   23.4822 C   0  0  0  0  0  0  0  0  0  0  0  0
   12.1632    0.1693   22.6834 C   0  0  0  0  0  0  0  0  0  0  0  0
   11.5217    1.0079   23.5949 C   0  0  0  0  0  0  0  0  0  0  0  0
    9.2850   -3.7090   25.1090 C   0  0  0  0  0  0  0  0  0  0  0  0
    9.3300   -1.3350   23.6390 C   0  0  0  0  0  0  0  0  0  0  0  0
   13.5566    0.1365   22.6270 C   0  0  0  0  0  0  0  0  0  0  0  0
    5.9810    0.8330   18.8060 C   0  0  0  0  0  0  0  0  0  0  0  0
    7.2210   -0.4620   20.0350 C   0  0  0  0  0  0  0  0  0  0  0  0
    4.9400    1.7060   18.5060 C   0  0  0  0  0  0  0  0  0  0  0  0
    4.0980    2.1130   19.5350 C   0  0  0  0  0  0  0  0  0  0  0  0
    4.2970    1.6690   20.8430 C   0  0  0  0  0  0  0  0  0  0  0  0
    5.3360    0.8000   21.1530 C   0  0  0  0  0  0  0  0  0  0  0  0
    8.9510    0.1280   21.6880 C   0  0  0  0  0  0  0  0  0  0  0  0
    7.3162   -6.8835   26.5210 C   0  0  0  0  0  0  0  0  0  0  0  0
    7.3507   -5.5245   27.2240 C   0  0  0  0  0  0  0  0  0  0  0  0
    7.9375   -6.8069   25.1245 C   0  0  0  0  0  0  0  0  0  0  0  0
    8.7638   -4.9418   27.2163 C   0  0  0  0  0  0  0  0  0  0  0  0
    9.3378   -6.1874   25.1659 C   0  0  0  0  0  0  0  0  0  0  0  0
   10.0220    1.0430   23.6570 C   0  0  0  0  0  0  0  0  0  0  0  0
    6.9440    0.2550   18.0100 N   0  0  0  0  0  0  0  0  0  0  0  0
    7.6830   -0.5170   18.7600 N   0  0  0  0  0  0  0  0  0  0  0  0
    6.1600    0.3870   20.1140 N   0  0  0  0  0  0  0  0  0  0  0  0
    9.2639   -4.8860   25.8399 N   0  0  0  0  0  0  0  0  0  0  0  0
    8.0810   -0.9750   21.0820 N   0  0  0  0  0  0  0  0  0  0  0  0
    9.4200   -0.0840   22.9530 N   0  0  0  0  0  0  0  0  0  0  0  0
    9.1870    1.1500   21.0630 O   0  0  0  0  0  0  0  0  0  0  0  0
   14.3487   -0.8988   21.5034 Cl  0  0  0  0  0  0  0  0  0  0  0  0
   14.2519    2.4082   25.0600 H   0  0  0  0  0  0  0  0  0  0  0  0
   11.7820    2.4700   25.1636 H   0  0  0  0  0  0  0  0  0  0  0  0
    7.5647   -2.8621   26.1053 H   0  0  0  0  0  0  0  0  0  0  0  0
   11.0144   -4.2642   23.9425 H   0  0  0  0  0  0  0  0  0  0  0  0
    7.5958   -0.7779   24.8006 H   0  0  0  0  0  0  0  0  0  0  0  0
   11.0406   -2.1848   22.6356 H   0  0  0  0  0  0  0  0  0  0  0  0
   15.3950    0.9267   23.4496 H   0  0  0  0  0  0  0  0  0  0  0  0
   11.5726   -0.4565   22.0184 H   0  0  0  0  0  0  0  0  0  0  0  0
    4.7733    2.0700   17.5071 H   0  0  0  0  0  0  0  0  0  0  0  0
    3.2813    2.7836   19.2995 H   0  0  0  0  0  0  0  0  0  0  0  0
    3.6335    1.9977   21.6542 H   0  0  0  0  0  0  0  0  0  0  0  0
    5.5067    0.4537   22.1474 H   0  0  0  0  0  0  0  0  0  0  0  0
    7.8578   -7.6261   27.1266 H   0  0  0  0  0  0  0  0  0  0  0  0
    6.2773   -7.2358   26.4459 H   0  0  0  0  0  0  0  0  0  0  0  0
    6.6663   -4.8351   26.7223 H   0  0  0  0  0  0  0  0  0  0  0  0
    7.0044   -5.6368   28.2534 H   0  0  0  0  0  0  0  0  0  0  0  0
    7.9946   -7.8119   24.6937 H   0  0  0  0  0  0  0  0  0  0  0  0
    7.2929   -6.2123   24.4668 H   0  0  0  0  0  0  0  0  0  0  0  0
    8.7343   -3.9408   27.6542 H   0  0  0  0  0  0  0  0  0  0  0  0
    9.4243   -5.5632   27.8278 H   0  0  0  0  0  0  0  0  0  0  0  0
   10.0200   -6.8490   25.7011 H   0  0  0  0  0  0  0  0  0  0  0  0
    9.6984   -6.0694   24.1436 H   0  0  0  0  0  0  0  0  0  0  0  0
    9.6778    1.0140   24.6966 H   0  0  0  0  0  0  0  0  0  0  0  0
    9.6316    1.9637   23.2107 H   0  0  0  0  0  0  0  0  0  0  0  0
    8.1334   -1.7992   21.3673 H   0  0  0  0  0  0  0  0  0  0  0  0
  1  2  2  0  0  0  0
  1  7  1  0  0  0  0
  2  9  1  0  0  0  0
  3  5  2  0  0  0  0
  3 10  1  0  0  0  0
  4  6  1  0  0  0  0
  4 10  2  0  0  0  0
  5 11  1  0  0  0  0
  6 11  2  0  0  0  0
  7 12  2  0  0  0  0
  8  9  2  0  0  0  0
  8 12  1  0  0  0  0
  9 25  1  0  0  0  0
 10 29  1  0  0  0  0
 11 31  1  0  0  0  0
 12 33  1  0  0  0  0
 13 15  1  0  0  0  0
 13 26  2  0  0  0  0
 13 28  1  0  0  0  0
 14 27  2  0  0  0  0
 14 28  1  0  0  0  0
 14 30  1  0  0  0  0
 15 16  2  0  0  0  0
 16 17  1  0  0  0  0
 17 18  2  0  0  0  0
 18 28  1  0  0  0  0
 19 30  1  0  0  0  0
 19 31  1  0  0  0  0
 19 32  2  0  0  0  0
 20 21  1  0  0  0  0
 20 22  1  0  0  0  0
 21 23  1  0  0  0  0
 22 24  1  0  0  0  0
 23 29  1  0  0  0  0
 24 29  1  0  0  0  0
 25 31  1  0  0  0  0
 26 27  1  0  0  0  0
  1 34  1  0  0  0  0
  2 35  1  0  0  0  0
  3 36  1  0  0  0  0
  4 37  1  0  0  0  0
  5 38  1  0  0  0  0
  6 39  1  0  0  0  0
  7 40  1  0  0  0  0
  8 41  1  0  0  0  0
 15 42  1  0  0  0  0
 16 43  1  0  0  0  0
 17 44  1  0  0  0  0
 18 45  1  0  0  0  0
 20 46  1  0  0  0  0
 20 47  1  0  0  0  0
 21 48  1  0  0  0  0
 21 49  1  0  0  0  0
 22 50  1  0  0  0  0
 22 51  1  0  0  0  0
 23 52  1  0  0  0  0
 23 53  1  0  0  0  0
 24 54  1  0  0  0  0
 24 55  1  0  0  0  0
 25 56  1  0  0  0  0
 25 57  1  0  0  0  0
 30 58  1  0  0  0  0
M  END
> <clash_score>
0

> <docking_score>
-7.378185272216797

> <overlap_score>
0.9966533184051514

$$$$
BENZO_155_1
  -OEChem-08222022393D

 46 49  0     0  0  0  0  0  0999 V2000
    8.3310   -2.7170   25.3430 C   0  0  0  0  0  0  0  0  0  0  0  0
   10.2570   -3.5000   24.1350 C   0  0  0  0  0  0  0  0  0  0  0  0
    8.3510   -1.5420   24.6110 C   0  0  0  0  0  0  0  0  0  0  0  0
   10.2760   -2.3270   23.4020 C   0  0  0  0  0  0  0  0  0  0  0  0
   12.4295    0.9466   24.6692 C   0  0  0  0  0  0  0  0  0  0  0  0
   12.3161    1.0259   22.4747 C   0  0  0  0  0  0  0  0  0  0  0  0
    9.2850   -3.7090   25.1090 C   0  0  0  0  0  0  0  0  0  0  0  0
   11.5217    1.0079   23.5949 C   0  0  0  0  0  0  0  0  0  0  0  0
    9.3300   -1.3350   23.6390 C   0  0  0  0  0  0  0  0  0  0  0  0
    5.9810    0.8330   18.8060 C   0  0  0  0  0  0  0  0  0  0  0  0
    7.2210   -0.4620   20.0350 C   0  0  0  0  0  0  0  0  0  0  0  0
    4.9400    1.7060   18.5060 C   0  0  0  0  0  0  0  0  0  0  0  0
    4.0980    2.1130   19.5350 C   0  0  0  0  0  0  0  0  0  0  0  0
    4.2970    1.6690   20.8430 C   0  0  0  0  0  0  0  0  0  0  0  0
    5.3360    0.8000   21.1530 C   0  0  0  0  0  0  0  0  0  0  0  0
    8.9510    0.1280   21.6880 C   0  0  0  0  0  0  0  0  0  0  0  0
    9.2610   -4.9721   25.8916 C   0  0  0  0  0  0  0  0  0  0  0  0
   14.7958    0.9722   22.1181 C   0  0  0  0  0  0  0  0  0  0  0  0
   10.0220    1.0430   23.6570 C   0  0  0  0  0  0  0  0  0  0  0  0
   13.7032    0.9267   24.2674 N   0  0  0  0  0  0  0  0  0  0  0  0
    6.9440    0.2550   18.0100 N   0  0  0  0  0  0  0  0  0  0  0  0
    7.6830   -0.5170   18.7600 N   0  0  0  0  0  0  0  0  0  0  0  0
   13.6014    0.9758   22.9283 N   0  0  0  0  0  0  0  0  0  0  0  0
    6.1600    0.3870   20.1140 N   0  0  0  0  0  0  0  0  0  0  0  0
    8.0810   -0.9750   21.0820 N   0  0  0  0  0  0  0  0  0  0  0  0
    9.4200   -0.0840   22.9530 N   0  0  0  0  0  0  0  0  0  0  0  0
    9.1870    1.1500   21.0630 O   0  0  0  0  0  0  0  0  0  0  0  0
    7.5665   -2.8638   26.1066 H   0  0  0  0  0  0  0  0  0  0  0  0
   11.0137   -4.2652   23.9447 H   0  0  0  0  0  0  0  0  0  0  0  0
    7.5948   -0.7788   24.7997 H   0  0  0  0  0  0  0  0  0  0  0  0
   11.0411   -2.1856   22.6358 H   0  0  0  0  0  0  0  0  0  0  0  0
   12.2184    0.9145   25.7287 H   0  0  0  0  0  0  0  0  0  0  0  0
   12.0821    1.0677   21.4195 H   0  0  0  0  0  0  0  0  0  0  0  0
    4.7733    2.0700   17.5071 H   0  0  0  0  0  0  0  0  0  0  0  0
    3.2813    2.7836   19.2995 H   0  0  0  0  0  0  0  0  0  0  0  0
    3.6335    1.9977   21.6542 H   0  0  0  0  0  0  0  0  0  0  0  0
    5.5067    0.4537   22.1474 H   0  0  0  0  0  0  0  0  0  0  0  0
    8.6398   -5.7223   25.3871 H   0  0  0  0  0  0  0  0  0  0  0  0
   10.2715   -5.3829   26.0145 H   0  0  0  0  0  0  0  0  0  0  0  0
    8.8596   -4.8092   26.9004 H   0  0  0  0  0  0  0  0  0  0  0  0
   15.1026    2.0102   21.9649 H   0  0  0  0  0  0  0  0  0  0  0  0
   15.5825    0.4128   22.6318 H   0  0  0  0  0  0  0  0  0  0  0  0
   14.5811    0.4905   21.1600 H   0  0  0  0  0  0  0  0  0  0  0  0
    9.6778    1.0140   24.6966 H   0  0  0  0  0  0  0  0  0  0  0  0
    9.6316    1.9637   23.2107 H   0  0  0  0  0  0  0  0  0  0  0  0
    8.1127   -1.8124   21.3493 H   0  0  0  0  0  0  0  0  0  0  0  0
  1  3  2  0  0  0  0
  1  7  1  0  0  0  0
  2  4  1  0  0  0  0
  2  7  2  0  0  0  0
  3  9  1  0  0  0  0
  4  9  2  0  0  0  0
  5  8  1  0  0  0  0
  5 20  2  0  0  0  0
  6  8  2  0  0  0  0
  6 23  1  0  0  0  0
  7 17  1  0  0  0  0
  8 19  1  0  0  0  0
  9 26  1  0  0  0  0
 10 12  1  0  0  0  0
 10 21  2  0  0  0  0
 10 24  1  0  0  0  0
 11 22  2  0  0  0  0
 11 24  1  0  0  0  0
 11 25  1  0  0  0  0
 12 13  2  0  0  0  0
 13 14  1  0  0  0  0
 14 15  2  0  0  0  0
 15 24  1  0  0  0  0
 16 25  1  0  0  0  0
 16 26  1  0  0  0  0
 16 27  2  0  0  0  0
 18 23  1  0  0  0  0
 19 26  1  0  0  0  0
 20 23  1  0  0  0  0
 21 22  1  0  0  0  0
  1 28  1  0  0  0  0
  2 29  1  0  0  0  0
  3 30  1  0  0  0  0
  4 31  1  0  0  0  0
  5 32  1  0  0  0  0
  6 33  1  0  0  0  0
 12 34  1  0  0  0  0
 13 35  1  0  0  0  0
 14 36  1  0  0  0  0
 15 37  1  0  0  0  0
 17 38  1  0  0  0  0
 17 39  1  0  0  0  0
 17 40  1  0  0  0  0
 18 41  1  0  0  0  0
 18 42  1  0  0  0  0
 18 43  1  0  0  0  0
 19 44  1  0  0  0  0
 19 45  1  0  0  0  0
 25 46  1  0  0  0  0
M  END
> <clash_score>
0

> <docking_score>
-9.02697467803955

> <overlap_score>
0.962556004524231

$$$$
BENZO_154_1
  -OEChem-08222022393D

 46 49  0     0  0  0  0  0  0999 V2000
   13.5977    1.8457   22.6865 C   0  0  0  0  0  0  0  0  0  0  0  0
   12.2044    1.8769   22.7438 C   0  0  0  0  0  0  0  0  0  0  0  0
    8.3310   -2.7170   25.3430 C   0  0  0  0  0  0  0  0  0  0  0  0
   10.2570   -3.5000   24.1350 C   0  0  0  0  0  0  0  0  0  0  0  0
    8.3510   -1.5420   24.6110 C   0  0  0  0  0  0  0  0  0  0  0  0
   10.2760   -2.3270   23.4020 C   0  0  0  0  0  0  0  0  0  0  0  0
   14.3084    0.9454   23.4803 C   0  0  0  0  0  0  0  0  0  0  0  0
   12.2323    0.1076   24.3888 C   0  0  0  0  0  0  0  0  0  0  0  0
    9.2850   -3.7090   25.1090 C   0  0  0  0  0  0  0  0  0  0  0  0
   11.5217    1.0079   23.5949 C   0  0  0  0  0  0  0  0  0  0  0  0
    9.3300   -1.3350   23.6390 C   0  0  0  0  0  0  0  0  0  0  0  0
   13.6257    0.0764   24.3314 C   0  0  0  0  0  0  0  0  0  0  0  0
    5.9810    0.8330   18.8060 C   0  0  0  0  0  0  0  0  0  0  0  0
    7.2210   -0.4620   20.0350 C   0  0  0  0  0  0  0  0  0  0  0  0
    4.9400    1.7060   18.5060 C   0  0  0  0  0  0  0  0  0  0  0  0
    4.0980    2.1130   19.5350 C   0  0  0  0  0  0  0  0  0  0  0  0
    4.2970    1.6690   20.8430 C   0  0  0  0  0  0  0  0  0  0  0  0
    5.3360    0.8000   21.1530 C   0  0  0  0  0  0  0  0  0  0  0  0
    8.9510    0.1280   21.6880 C   0  0  0  0  0  0  0  0  0  0  0  0
    9.2610   -4.9721   25.8916 C   0  0  0  0  0  0  0  0  0  0  0  0
   10.0220    1.0430   23.6570 C   0  0  0  0  0  0  0  0  0  0  0  0
    6.9440    0.2550   18.0100 N   0  0  0  0  0  0  0  0  0  0  0  0
    7.6830   -0.5170   18.7600 N   0  0  0  0  0  0  0  0  0  0  0  0
    6.1600    0.3870   20.1140 N   0  0  0  0  0  0  0  0  0  0  0  0
    8.0810   -0.9750   21.0820 N   0  0  0  0  0  0  0  0  0  0  0  0
    9.4200   -0.0840   22.9530 N   0  0  0  0  0  0  0  0  0  0  0  0
    9.1870    1.1500   21.0630 O   0  0  0  0  0  0  0  0  0  0  0  0
   14.5031   -1.0334   25.3114 Cl  0  0  0  0  0  0  0  0  0  0  0  0
   14.1289    2.5227   22.0237 H   0  0  0  0  0  0  0  0  0  0  0  0
   11.6588    2.5818   22.1218 H   0  0  0  0  0  0  0  0  0  0  0  0
    7.5665   -2.8638   26.1066 H   0  0  0  0  0  0  0  0  0  0  0  0
   11.0137   -4.2652   23.9447 H   0  0  0  0  0  0  0  0  0  0  0  0
    7.5948   -0.7788   24.7997 H   0  0  0  0  0  0  0  0  0  0  0  0
   11.0411   -2.1856   22.6358 H   0  0  0  0  0  0  0  0  0  0  0  0
   15.3941    0.9323   23.4255 H   0  0  0  0  0  0  0  0  0  0  0  0
   11.6954   -0.5682   25.0504 H   0  0  0  0  0  0  0  0  0  0  0  0
    4.7733    2.0700   17.5071 H   0  0  0  0  0  0  0  0  0  0  0  0
    3.2813    2.7836   19.2995 H   0  0  0  0  0  0  0  0  0  0  0  0
    3.6335    1.9977   21.6542 H   0  0  0  0  0  0  0  0  0  0  0  0
    5.5067    0.4537   22.1474 H   0  0  0  0  0  0  0  0  0  0  0  0
    8.6398   -5.7223   25.3871 H   0  0  0  0  0  0  0  0  0  0  0  0
   10.2715   -5.3829   26.0145 H   0  0  0  0  0  0  0  0  0  0  0  0
    8.8596   -4.8092   26.9004 H   0  0  0  0  0  0  0  0  0  0  0  0
    9.6778    1.0140   24.6966 H   0  0  0  0  0  0  0  0  0  0  0  0
    9.6316    1.9637   23.2107 H   0  0  0  0  0  0  0  0  0  0  0  0
    8.1127   -1.8124   21.3493 H   0  0  0  0  0  0  0  0  0  0  0  0
  1  2  2  0  0  0  0
  1  7  1  0  0  0  0
  2 10  1  0  0  0  0
  3  5  2  0  0  0  0
  3  9  1  0  0  0  0
  4  6  1  0  0  0  0
  4  9  2  0  0  0  0
  5 11  1  0  0  0  0
  6 11  2  0  0  0  0
  7 12  2  0  0  0  0
  8 10  2  0  0  0  0
  8 12  1  0  0  0  0
  9 20  1  0  0  0  0
 10 21  1  0  0  0  0
 11 26  1  0  0  0  0
 12 28  1  0  0  0  0
 13 15  1  0  0  0  0
 13 22  2  0  0  0  0
 13 24  1  0  0  0  0
 14 23  2  0  0  0  0
 14 24  1  0  0  0  0
 14 25  1  0  0  0  0
 15 16  2  0  0  0  0
 16 17  1  0  0  0  0
 17 18  2  0  0  0  0
 18 24  1  0  0  0  0
 19 25  1  0  0  0  0
 19 26  1  0  0  0  0
 19 27  2  0  0  0  0
 21 26  1  0  0  0  0
 22 23  1  0  0  0  0
  1 29  1  0  0  0  0
  2 30  1  0  0  0  0
  3 31  1  0  0  0  0
  4 32  1  0  0  0  0
  5 33  1  0  0  0  0
  6 34  1  0  0  0  0
  7 35  1  0  0  0  0
  8 36  1  0  0  0  0
 15 37  1  0  0  0  0
 16 38  1  0  0  0  0
 17 39  1  0  0  0  0
 18 40  1  0  0  0  0
 20 41  1  0  0  0  0
 20 42  1  0  0  0  0
 20 43  1  0  0  0  0
 21 44  1  0  0  0  0
 21 45  1  0  0  0  0
 25 46  1  0  0  0  0
M  END
> <clash_score>
0.766244104660589

> <docking_score>
-8.26682186126709

> <overlap_score>
0.9770406484603882

$$$$
BENZO_157_1
  -OEChem-08222022393D

 47 50  0     0  0  0  0  0  0999 V2000
   14.3082    0.9431   23.4783 C   0  0  0  0  0  0  0  0  0  0  0  0
   13.6391    0.3091   24.5251 C   0  0  0  0  0  0  0  0  0  0  0  0
   13.5841    1.6096   22.4898 C   0  0  0  0  0  0  0  0  0  0  0  0
   12.2459    0.3415   24.5835 C   0  0  0  0  0  0  0  0  0  0  0  0
   12.1908    1.6420   22.5481 C   0  0  0  0  0  0  0  0  0  0  0  0
    8.3510   -1.5420   24.6110 C   0  0  0  0  0  0  0  0  0  0  0  0
   10.2760   -2.3270   23.4020 C   0  0  0  0  0  0  0  0  0  0  0  0
    8.3310   -2.7170   25.3430 C   0  0  0  0  0  0  0  0  0  0  0  0
   10.2570   -3.5000   24.1350 C   0  0  0  0  0  0  0  0  0  0  0  0
   11.5217    1.0079   23.5949 C   0  0  0  0  0  0  0  0  0  0  0  0
    9.3300   -1.3350   23.6390 C   0  0  0  0  0  0  0  0  0  0  0  0
    9.2850   -3.7090   25.1090 C   0  0  0  0  0  0  0  0  0  0  0  0
    5.9810    0.8330   18.8060 C   0  0  0  0  0  0  0  0  0  0  0  0
    7.2210   -0.4620   20.0350 C   0  0  0  0  0  0  0  0  0  0  0  0
    4.9400    1.7060   18.5060 C   0  0  0  0  0  0  0  0  0  0  0  0
    4.0980    2.1130   19.5350 C   0  0  0  0  0  0  0  0  0  0  0  0
    4.2970    1.6690   20.8430 C   0  0  0  0  0  0  0  0  0  0  0  0
    5.3360    0.8000   21.1530 C   0  0  0  0  0  0  0  0  0  0  0  0
    8.9510    0.1280   21.6880 C   0  0  0  0  0  0  0  0  0  0  0  0
    8.2345   -4.9975   26.8023 C   0  0  0  0  0  0  0  0  0  0  0  0
   10.0220    1.0430   23.6570 C   0  0  0  0  0  0  0  0  0  0  0  0
    6.9440    0.2550   18.0100 N   0  0  0  0  0  0  0  0  0  0  0  0
    7.6830   -0.5170   18.7600 N   0  0  0  0  0  0  0  0  0  0  0  0
    6.1600    0.3870   20.1140 N   0  0  0  0  0  0  0  0  0  0  0  0
    8.0810   -0.9750   21.0820 N   0  0  0  0  0  0  0  0  0  0  0  0
    9.4200   -0.0840   22.9530 N   0  0  0  0  0  0  0  0  0  0  0  0
    9.1870    1.1500   21.0630 O   0  0  0  0  0  0  0  0  0  0  0  0
    9.2631   -4.8614   25.8229 O   0  0  0  0  0  0  0  0  0  0  0  0
   15.3932    0.9189   23.4337 H   0  0  0  0  0  0  0  0  0  0  0  0
   14.2028   -0.2090   25.2955 H   0  0  0  0  0  0  0  0  0  0  0  0
   14.1048    2.1043   21.6752 H   0  0  0  0  0  0  0  0  0  0  0  0
   11.7330   -0.1555   25.4027 H   0  0  0  0  0  0  0  0  0  0  0  0
   11.6349    2.1636   21.7735 H   0  0  0  0  0  0  0  0  0  0  0  0
    7.5951   -0.7786   24.8000 H   0  0  0  0  0  0  0  0  0  0  0  0
   11.0406   -2.1866   22.6351 H   0  0  0  0  0  0  0  0  0  0  0  0
    7.5664   -2.8674   26.1055 H   0  0  0  0  0  0  0  0  0  0  0  0
   11.0119   -4.2671   23.9461 H   0  0  0  0  0  0  0  0  0  0  0  0
    4.7733    2.0700   17.5071 H   0  0  0  0  0  0  0  0  0  0  0  0
    3.2813    2.7836   19.2995 H   0  0  0  0  0  0  0  0  0  0  0  0
    3.6335    1.9977   21.6542 H   0  0  0  0  0  0  0  0  0  0  0  0
    5.5067    0.4537   22.1474 H   0  0  0  0  0  0  0  0  0  0  0  0
    8.3310   -5.9649   27.3011 H   0  0  0  0  0  0  0  0  0  0  0  0
    7.2574   -4.9206   26.3188 H   0  0  0  0  0  0  0  0  0  0  0  0
    8.3378   -4.1980   27.5398 H   0  0  0  0  0  0  0  0  0  0  0  0
    9.6778    1.0140   24.6966 H   0  0  0  0  0  0  0  0  0  0  0  0
    9.6316    1.9637   23.2107 H   0  0  0  0  0  0  0  0  0  0  0  0
    8.1127   -1.8124   21.3493 H   0  0  0  0  0  0  0  0  0  0  0  0
  1  2  1  0  0  0  0
  1  3  2  0  0  0  0
  2  4  2  0  0  0  0
  3  5  1  0  0  0  0
  4 10  1  0  0  0  0
  5 10  2  0  0  0  0
  6  8  2  0  0  0  0
  6 11  1  0  0  0  0
  7  9  1  0  0  0  0
  7 11  2  0  0  0  0
  8 12  1  0  0  0  0
  9 12  2  0  0  0  0
 10 21  1  0  0  0  0
 11 26  1  0  0  0  0
 12 28  1  0  0  0  0
 13 15  1  0  0  0  0
 13 22  2  0  0  0  0
 13 24  1  0  0  0  0
 14 23  2  0  0  0  0
 14 24  1  0  0  0  0
 14 25  1  0  0  0  0
 15 16  2  0  0  0  0
 16 17  1  0  0  0  0
 17 18  2  0  0  0  0
 18 24  1  0  0  0  0
 19 25  1  0  0  0  0
 19 26  1  0  0  0  0
 19 27  2  0  0  0  0
 20 28  1  0  0  0  0
 21 26  1  0  0  0  0
 22 23  1  0  0  0  0
  1 29  1  0  0  0  0
  2 30  1  0  0  0  0
  3 31  1  0  0  0  0
  4 32  1  0  0  0  0
  5 33  1  0  0  0  0
  6 34  1  0  0  0  0
  7 35  1  0  0  0  0
  8 36  1  0  0  0  0
  9 37  1  0  0  0  0
 15 38  1  0  0  0  0
 16 39  1  0  0  0  0
 17 40  1  0  0  0  0
 18 41  1  0  0  0  0
 20 42  1  0  0  0  0
 20 43  1  0  0  0  0
 20 44  1  0  0  0  0
 21 45  1  0  0  0  0
 21 46  1  0  0  0  0
 25 47  1  0  0  0  0
M  END
> <clash_score>
0

> <docking_score>
-8.793924331665039

> <overlap_score>
0.9956544041633606

$$$$
BENZO_156_1
  -OEChem-08222022393D

 44 47  0     0  0  0  0  0  0999 V2000
    8.3510   -1.5420   24.6110 C   0  0  0  0  0  0  0  0  0  0  0  0
   10.2760   -2.3270   23.4020 C   0  0  0  0  0  0  0  0  0  0  0  0
    8.3310   -2.7170   25.3430 C   0  0  0  0  0  0  0  0  0  0  0  0
   10.2570   -3.5000   24.1350 C   0  0  0  0  0  0  0  0  0  0  0  0
   12.2675    1.0332   22.3812 C   0  0  0  0  0  0  0  0  0  0  0  0
   13.6257    0.9906   22.6074 C   0  0  0  0  0  0  0  0  0  0  0  0
   12.3384    0.9467   24.7028 C   0  0  0  0  0  0  0  0  0  0  0  0
   11.5217    1.0079   23.5949 C   0  0  0  0  0  0  0  0  0  0  0  0
    9.3300   -1.3350   23.6390 C   0  0  0  0  0  0  0  0  0  0  0  0
    9.2850   -3.7090   25.1090 C   0  0  0  0  0  0  0  0  0  0  0  0
    5.9810    0.8330   18.8060 C   0  0  0  0  0  0  0  0  0  0  0  0
    7.2210   -0.4620   20.0350 C   0  0  0  0  0  0  0  0  0  0  0  0
    4.9400    1.7060   18.5060 C   0  0  0  0  0  0  0  0  0  0  0  0
    4.0980    2.1130   19.5350 C   0  0  0  0  0  0  0  0  0  0  0  0
    4.2970    1.6690   20.8430 C   0  0  0  0  0  0  0  0  0  0  0  0
    5.3360    0.8000   21.1530 C   0  0  0  0  0  0  0  0  0  0  0  0
    8.9510    0.1280   21.6880 C   0  0  0  0  0  0  0  0  0  0  0  0
    8.2345   -4.9975   26.8023 C   0  0  0  0  0  0  0  0  0  0  0  0
   10.0220    1.0430   23.6570 C   0  0  0  0  0  0  0  0  0  0  0  0
    6.9440    0.2550   18.0100 N   0  0  0  0  0  0  0  0  0  0  0  0
    7.6830   -0.5170   18.7600 N   0  0  0  0  0  0  0  0  0  0  0  0
    6.1600    0.3870   20.1140 N   0  0  0  0  0  0  0  0  0  0  0  0
    8.0810   -0.9750   21.0820 N   0  0  0  0  0  0  0  0  0  0  0  0
    9.4200   -0.0840   22.9530 N   0  0  0  0  0  0  0  0  0  0  0  0
    9.1870    1.1500   21.0630 O   0  0  0  0  0  0  0  0  0  0  0  0
    9.2631   -4.8614   25.8229 O   0  0  0  0  0  0  0  0  0  0  0  0
   13.9969    0.9203   24.2776 S   0  0  0  0  0  0  0  0  0  0  0  0
    7.5951   -0.7786   24.8000 H   0  0  0  0  0  0  0  0  0  0  0  0
   11.0406   -2.1866   22.6351 H   0  0  0  0  0  0  0  0  0  0  0  0
    7.5664   -2.8674   26.1055 H   0  0  0  0  0  0  0  0  0  0  0  0
   11.0119   -4.2671   23.9461 H   0  0  0  0  0  0  0  0  0  0  0  0
   11.8338    1.0798   21.3902 H   0  0  0  0  0  0  0  0  0  0  0  0
   14.4176    0.9966   21.8719 H   0  0  0  0  0  0  0  0  0  0  0  0
   12.0446    0.9149   25.7428 H   0  0  0  0  0  0  0  0  0  0  0  0
    4.7733    2.0700   17.5071 H   0  0  0  0  0  0  0  0  0  0  0  0
    3.2813    2.7836   19.2995 H   0  0  0  0  0  0  0  0  0  0  0  0
    3.6335    1.9977   21.6542 H   0  0  0  0  0  0  0  0  0  0  0  0
    5.5067    0.4537   22.1474 H   0  0  0  0  0  0  0  0  0  0  0  0
    8.3310   -5.9649   27.3011 H   0  0  0  0  0  0  0  0  0  0  0  0
    7.2574   -4.9206   26.3188 H   0  0  0  0  0  0  0  0  0  0  0  0
    8.3378   -4.1980   27.5398 H   0  0  0  0  0  0  0  0  0  0  0  0
    9.6778    1.0140   24.6966 H   0  0  0  0  0  0  0  0  0  0  0  0
    9.6316    1.9637   23.2107 H   0  0  0  0  0  0  0  0  0  0  0  0
    8.1127   -1.8124   21.3493 H   0  0  0  0  0  0  0  0  0  0  0  0
  1  3  2  0  0  0  0
  1  9  1  0  0  0  0
  2  4  1  0  0  0  0
  2  9  2  0  0  0  0
  3 10  1  0  0  0  0
  4 10  2  0  0  0  0
  5  6  2  0  0  0  0
  5  8  1  0  0  0  0
  6 27  1  0  0  0  0
  7  8  2  0  0  0  0
  7 27  1  0  0  0  0
  8 19  1  0  0  0  0
  9 24  1  0  0  0  0
 10 26  1  0  0  0  0
 11 13  1  0  0  0  0
 11 20  2  0  0  0  0
 11 22  1  0  0  0  0
 12 21  2  0  0  0  0
 12 22  1  0  0  0  0
 12 23  1  0  0  0  0
 13 14  2  0  0  0  0
 14 15  1  0  0  0  0
 15 16  2  0  0  0  0
 16 22  1  0  0  0  0
 17 23  1  0  0  0  0
 17 24  1  0  0  0  0
 17 25  2  0  0  0  0
 18 26  1  0  0  0  0
 19 24  1  0  0  0  0
 20 21  1  0  0  0  0
  1 28  1  0  0  0  0
  2 29  1  0  0  0  0
  3 30  1  0  0  0  0
  4 31  1  0  0  0  0
  5 32  1  0  0  0  0
  6 33  1  0  0  0  0
  7 34  1  0  0  0  0
 13 35  1  0  0  0  0
 14 36  1  0  0  0  0
 15 37  1  0  0  0  0
 16 38  1  0  0  0  0
 18 39  1  0  0  0  0
 18 40  1  0  0  0  0
 18 41  1  0  0  0  0
 19 42  1  0  0  0  0
 19 43  1  0  0  0  0
 23 44  1  0  0  0  0
M  END
> <clash_score>
0

> <docking_score>
-9.040116310119629

> <overlap_score>
0.9697704315185547

$$$$
BENZO_159_1
  -OEChem-08222022393D

 47 50  0     0  0  0  0  0  0999 V2000
    8.3510   -1.5420   24.6110 C   0  0  0  0  0  0  0  0  0  0  0  0
   10.2760   -2.3270   23.4020 C   0  0  0  0  0  0  0  0  0  0  0  0
    8.3310   -2.7170   25.3430 C   0  0  0  0  0  0  0  0  0  0  0  0
   10.2570   -3.5000   24.1350 C   0  0  0  0  0  0  0  0  0  0  0  0
   12.4359    1.7439   24.3724 C   0  0  0  0  0  0  0  0  0  0  0  0
   12.3100    0.2469   22.7668 C   0  0  0  0  0  0  0  0  0  0  0  0
   11.5217    1.0079   23.5949 C   0  0  0  0  0  0  0  0  0  0  0  0
    9.3300   -1.3350   23.6390 C   0  0  0  0  0  0  0  0  0  0  0  0
    9.2850   -3.7090   25.1090 C   0  0  0  0  0  0  0  0  0  0  0  0
    5.9810    0.8330   18.8060 C   0  0  0  0  0  0  0  0  0  0  0  0
    7.2210   -0.4620   20.0350 C   0  0  0  0  0  0  0  0  0  0  0  0
    4.9400    1.7060   18.5060 C   0  0  0  0  0  0  0  0  0  0  0  0
    4.0980    2.1130   19.5350 C   0  0  0  0  0  0  0  0  0  0  0  0
    4.2970    1.6690   20.8430 C   0  0  0  0  0  0  0  0  0  0  0  0
    5.3360    0.8000   21.1530 C   0  0  0  0  0  0  0  0  0  0  0  0
    8.9510    0.1280   21.6880 C   0  0  0  0  0  0  0  0  0  0  0  0
   14.7884    0.0124   22.4815 C   0  0  0  0  0  0  0  0  0  0  0  0
    8.2345   -4.9975   26.8023 C   0  0  0  0  0  0  0  0  0  0  0  0
   10.0220    1.0430   23.6570 C   0  0  0  0  0  0  0  0  0  0  0  0
   13.7076    1.4745   24.0657 N   0  0  0  0  0  0  0  0  0  0  0  0
    6.9440    0.2550   18.0100 N   0  0  0  0  0  0  0  0  0  0  0  0
    7.6830   -0.5170   18.7600 N   0  0  0  0  0  0  0  0  0  0  0  0
   13.5982    0.5607   23.0864 N   0  0  0  0  0  0  0  0  0  0  0  0
    6.1600    0.3870   20.1140 N   0  0  0  0  0  0  0  0  0  0  0  0
    8.0810   -0.9750   21.0820 N   0  0  0  0  0  0  0  0  0  0  0  0
    9.4200   -0.0840   22.9530 N   0  0  0  0  0  0  0  0  0  0  0  0
    9.1870    1.1500   21.0630 O   0  0  0  0  0  0  0  0  0  0  0  0
    9.2631   -4.8614   25.8229 O   0  0  0  0  0  0  0  0  0  0  0  0
    7.5951   -0.7786   24.8000 H   0  0  0  0  0  0  0  0  0  0  0  0
   11.0406   -2.1866   22.6351 H   0  0  0  0  0  0  0  0  0  0  0  0
    7.5664   -2.8674   26.1055 H   0  0  0  0  0  0  0  0  0  0  0  0
   11.0119   -4.2671   23.9461 H   0  0  0  0  0  0  0  0  0  0  0  0
   12.2308    2.4652   25.1508 H   0  0  0  0  0  0  0  0  0  0  0  0
   12.0700   -0.4744   21.9974 H   0  0  0  0  0  0  0  0  0  0  0  0
    4.7733    2.0700   17.5071 H   0  0  0  0  0  0  0  0  0  0  0  0
    3.2813    2.7836   19.2995 H   0  0  0  0  0  0  0  0  0  0  0  0
    3.6335    1.9977   21.6542 H   0  0  0  0  0  0  0  0  0  0  0  0
    5.5067    0.4537   22.1474 H   0  0  0  0  0  0  0  0  0  0  0  0
   15.0569    0.6453   21.6315 H   0  0  0  0  0  0  0  0  0  0  0  0
   15.5971   -0.0026   23.2174 H   0  0  0  0  0  0  0  0  0  0  0  0
   14.5870   -1.0100   22.1498 H   0  0  0  0  0  0  0  0  0  0  0  0
    8.3310   -5.9649   27.3011 H   0  0  0  0  0  0  0  0  0  0  0  0
    7.2574   -4.9206   26.3188 H   0  0  0  0  0  0  0  0  0  0  0  0
    8.3378   -4.1980   27.5398 H   0  0  0  0  0  0  0  0  0  0  0  0
    9.6778    1.0140   24.6966 H   0  0  0  0  0  0  0  0  0  0  0  0
    9.6316    1.9637   23.2107 H   0  0  0  0  0  0  0  0  0  0  0  0
    8.1127   -1.8124   21.3493 H   0  0  0  0  0  0  0  0  0  0  0  0
  1  3  2  0  0  0  0
  1  8  1  0  0  0  0
  2  4  1  0  0  0  0
  2  8  2  0  0  0  0
  3  9  1  0  0  0  0
  4  9  2  0  0  0  0
  5  7  1  0  0  0  0
  5 20  2  0  0  0  0
  6  7  2  0  0  0  0
  6 23  1  0  0  0  0
  7 19  1  0  0  0  0
  8 26  1  0  0  0  0
  9 28  1  0  0  0  0
 10 12  1  0  0  0  0
 10 21  2  0  0  0  0
 10 24  1  0  0  0  0
 11 22  2  0  0  0  0
 11 24  1  0  0  0  0
 11 25  1  0  0  0  0
 12 13  2  0  0  0  0
 13 14  1  0  0  0  0
 14 15  2  0  0  0  0
 15 24  1  0  0  0  0
 16 25  1  0  0  0  0
 16 26  1  0  0  0  0
 16 27  2  0  0  0  0
 17 23  1  0  0  0  0
 18 28  1  0  0  0  0
 19 26  1  0  0  0  0
 20 23  1  0  0  0  0
 21 22  1  0  0  0  0
  1 29  1  0  0  0  0
  2 30  1  0  0  0  0
  3 31  1  0  0  0  0
  4 32  1  0  0  0  0
  5 33  1  0  0  0  0
  6 34  1  0  0  0  0
 12 35  1  0  0  0  0
 13 36  1  0  0  0  0
 14 37  1  0  0  0  0
 15 38  1  0  0  0  0
 17 39  1  0  0  0  0
 17 40  1  0  0  0  0
 17 41  1  0  0  0  0
 18 42  1  0  0  0  0
 18 43  1  0  0  0  0
 18 44  1  0  0  0  0
 19 45  1  0  0  0  0
 19 46  1  0  0  0  0
 25 47  1  0  0  0  0
M  END
> <clash_score>
0

> <docking_score>
-9.008529663085938

> <overlap_score>
0.9817346930503845

$$$$
BENZO_158_1
  -OEChem-08222022393D

 47 50  0     0  0  0  0  0  0999 V2000
   13.6668    1.7807   24.3938 C   0  0  0  0  0  0  0  0  0  0  0  0
   12.2735    1.8136   24.4501 C   0  0  0  0  0  0  0  0  0  0  0  0
    8.3510   -1.5420   24.6110 C   0  0  0  0  0  0  0  0  0  0  0  0
   10.2760   -2.3270   23.4020 C   0  0  0  0  0  0  0  0  0  0  0  0
    8.3310   -2.7170   25.3430 C   0  0  0  0  0  0  0  0  0  0  0  0
   10.2570   -3.5000   24.1350 C   0  0  0  0  0  0  0  0  0  0  0  0
   14.3084    0.9422   23.4822 C   0  0  0  0  0  0  0  0  0  0  0  0
   12.1632    0.1693   22.6834 C   0  0  0  0  0  0  0  0  0  0  0  0
   11.5217    1.0079   23.5949 C   0  0  0  0  0  0  0  0  0  0  0  0
    9.3300   -1.3350   23.6390 C   0  0  0  0  0  0  0  0  0  0  0  0
    9.2850   -3.7090   25.1090 C   0  0  0  0  0  0  0  0  0  0  0  0
   13.5566    0.1365   22.6270 C   0  0  0  0  0  0  0  0  0  0  0  0
    5.9810    0.8330   18.8060 C   0  0  0  0  0  0  0  0  0  0  0  0
    7.2210   -0.4620   20.0350 C   0  0  0  0  0  0  0  0  0  0  0  0
    4.9400    1.7060   18.5060 C   0  0  0  0  0  0  0  0  0  0  0  0
    4.0980    2.1130   19.5350 C   0  0  0  0  0  0  0  0  0  0  0  0
    4.2970    1.6690   20.8430 C   0  0  0  0  0  0  0  0  0  0  0  0
    5.3360    0.8000   21.1530 C   0  0  0  0  0  0  0  0  0  0  0  0
    8.9510    0.1280   21.6880 C   0  0  0  0  0  0  0  0  0  0  0  0
    8.2345   -4.9975   26.8023 C   0  0  0  0  0  0  0  0  0  0  0  0
   10.0220    1.0430   23.6570 C   0  0  0  0  0  0  0  0  0  0  0  0
    6.9440    0.2550   18.0100 N   0  0  0  0  0  0  0  0  0  0  0  0
    7.6830   -0.5170   18.7600 N   0  0  0  0  0  0  0  0  0  0  0  0
    6.1600    0.3870   20.1140 N   0  0  0  0  0  0  0  0  0  0  0  0
    8.0810   -0.9750   21.0820 N   0  0  0  0  0  0  0  0  0  0  0  0
    9.4200   -0.0840   22.9530 N   0  0  0  0  0  0  0  0  0  0  0  0
    9.1870    1.1500   21.0630 O   0  0  0  0  0  0  0  0  0  0  0  0
    9.2631   -4.8614   25.8229 O   0  0  0  0  0  0  0  0  0  0  0  0
   14.3487   -0.8988   21.5034 Cl  0  0  0  0  0  0  0  0  0  0  0  0
   14.2519    2.4082   25.0600 H   0  0  0  0  0  0  0  0  0  0  0  0
   11.7820    2.4700   25.1636 H   0  0  0  0  0  0  0  0  0  0  0  0
    7.5951   -0.7786   24.8000 H   0  0  0  0  0  0  0  0  0  0  0  0
   11.0406   -2.1866   22.6351 H   0  0  0  0  0  0  0  0  0  0  0  0
    7.5664   -2.8674   26.1055 H   0  0  0  0  0  0  0  0  0  0  0  0
   11.0119   -4.2671   23.9461 H   0  0  0  0  0  0  0  0  0  0  0  0
   15.3950    0.9267   23.4496 H   0  0  0  0  0  0  0  0  0  0  0  0
   11.5726   -0.4565   22.0184 H   0  0  0  0  0  0  0  0  0  0  0  0
    4.7733    2.0700   17.5071 H   0  0  0  0  0  0  0  0  0  0  0  0
    3.2813    2.7836   19.2995 H   0  0  0  0  0  0  0  0  0  0  0  0
    3.6335    1.9977   21.6542 H   0  0  0  0  0  0  0  0  0  0  0  0
    5.5067    0.4537   22.1474 H   0  0  0  0  0  0  0  0  0  0  0  0
    8.3310   -5.9649   27.3011 H   0  0  0  0  0  0  0  0  0  0  0  0
    7.2574   -4.9206   26.3188 H   0  0  0  0  0  0  0  0  0  0  0  0
    8.3378   -4.1980   27.5398 H   0  0  0  0  0  0  0  0  0  0  0  0
    9.6778    1.0140   24.6966 H   0  0  0  0  0  0  0  0  0  0  0  0
    9.6316    1.9637   23.2107 H   0  0  0  0  0  0  0  0  0  0  0  0
    8.1127   -1.8124   21.3493 H   0  0  0  0  0  0  0  0  0  0  0  0
  1  2  2  0  0  0  0
  1  7  1  0  0  0  0
  2  9  1  0  0  0  0
  3  5  2  0  0  0  0
  3 10  1  0  0  0  0
  4  6  1  0  0  0  0
  4 10  2  0  0  0  0
  5 11  1  0  0  0  0
  6 11  2  0  0  0  0
  7 12  2  0  0  0  0
  8  9  2  0  0  0  0
  8 12  1  0  0  0  0
  9 21  1  0  0  0  0
 10 26  1  0  0  0  0
 11 28  1  0  0  0  0
 12 29  1  0  0  0  0
 13 15  1  0  0  0  0
 13 22  2  0  0  0  0
 13 24  1  0  0  0  0
 14 23  2  0  0  0  0
 14 24  1  0  0  0  0
 14 25  1  0  0  0  0
 15 16  2  0  0  0  0
 16 17  1  0  0  0  0
 17 18  2  0  0  0  0
 18 24  1  0  0  0  0
 19 25  1  0  0  0  0
 19 26  1  0  0  0  0
 19 27  2  0  0  0  0
 20 28  1  0  0  0  0
 21 26  1  0  0  0  0
 22 23  1  0  0  0  0
  1 30  1  0  0  0  0
  2 31  1  0  0  0  0
  3 32  1  0  0  0  0
  4 33  1  0  0  0  0
  5 34  1  0  0  0  0
  6 35  1  0  0  0  0
  7 36  1  0  0  0  0
  8 37  1  0  0  0  0
 15 38  1  0  0  0  0
 16 39  1  0  0  0  0
 17 40  1  0  0  0  0
 18 41  1  0  0  0  0
 20 42  1  0  0  0  0
 20 43  1  0  0  0  0
 20 44  1  0  0  0  0
 21 45  1  0  0  0  0
 21 46  1  0  0  0  0
 25 47  1  0  0  0  0
M  END
> <clash_score>
0

> <docking_score>
-8.044842720031738

> <overlap_score>
0.976617157459259

$$$$
BENZO_161_1
  -OEChem-08222022393D

 57 61  0     0  0  0  0  0  0999 V2000
   14.3082    0.9431   23.4783 C   0  0  0  0  0  0  0  0  0  0  0  0
   13.6391    0.3091   24.5251 C   0  0  0  0  0  0  0  0  0  0  0  0
   13.5841    1.6096   22.4898 C   0  0  0  0  0  0  0  0  0  0  0  0
   12.2459    0.3415   24.5835 C   0  0  0  0  0  0  0  0  0  0  0  0
   12.1908    1.6420   22.5481 C   0  0  0  0  0  0  0  0  0  0  0  0
    8.3310   -2.7170   25.3430 C   0  0  0  0  0  0  0  0  0  0  0  0
   10.2570   -3.5000   24.1350 C   0  0  0  0  0  0  0  0  0  0  0  0
    8.3510   -1.5420   24.6110 C   0  0  0  0  0  0  0  0  0  0  0  0
   10.2760   -2.3270   23.4020 C   0  0  0  0  0  0  0  0  0  0  0  0
   11.5217    1.0079   23.5949 C   0  0  0  0  0  0  0  0  0  0  0  0
    9.2850   -3.7090   25.1090 C   0  0  0  0  0  0  0  0  0  0  0  0
    9.3300   -1.3350   23.6390 C   0  0  0  0  0  0  0  0  0  0  0  0
    5.9810    0.8330   18.8060 C   0  0  0  0  0  0  0  0  0  0  0  0
    7.2210   -0.4620   20.0350 C   0  0  0  0  0  0  0  0  0  0  0  0
    4.9400    1.7060   18.5060 C   0  0  0  0  0  0  0  0  0  0  0  0
    4.0980    2.1130   19.5350 C   0  0  0  0  0  0  0  0  0  0  0  0
    4.2970    1.6690   20.8430 C   0  0  0  0  0  0  0  0  0  0  0  0
    5.3360    0.8000   21.1530 C   0  0  0  0  0  0  0  0  0  0  0  0
    8.0635   -5.4710   26.3667 C   0  0  0  0  0  0  0  0  0  0  0  0
    8.9510    0.1280   21.6880 C   0  0  0  0  0  0  0  0  0  0  0  0
    8.2626   -6.7580   27.1475 C   0  0  0  0  0  0  0  0  0  0  0  0
    9.4048   -6.6156   28.1380 C   0  0  0  0  0  0  0  0  0  0  0  0
   10.6949   -6.1500   27.4702 C   0  0  0  0  0  0  0  0  0  0  0  0
   10.4942   -5.7069   26.0219 C   0  0  0  0  0  0  0  0  0  0  0  0
   10.0220    1.0430   23.6570 C   0  0  0  0  0  0  0  0  0  0  0  0
    6.9440    0.2550   18.0100 N   0  0  0  0  0  0  0  0  0  0  0  0
    7.6830   -0.5170   18.7600 N   0  0  0  0  0  0  0  0  0  0  0  0
    6.1600    0.3870   20.1140 N   0  0  0  0  0  0  0  0  0  0  0  0
    9.2623   -4.9266   25.8635 N   0  0  0  0  0  0  0  0  0  0  0  0
    8.0810   -0.9750   21.0820 N   0  0  0  0  0  0  0  0  0  0  0  0
    9.4200   -0.0840   22.9530 N   0  0  0  0  0  0  0  0  0  0  0  0
    6.9244   -5.0476   26.1739 O   0  0  0  0  0  0  0  0  0  0  0  0
    9.1870    1.1500   21.0630 O   0  0  0  0  0  0  0  0  0  0  0  0
   15.3932    0.9189   23.4337 H   0  0  0  0  0  0  0  0  0  0  0  0
   14.2029   -0.2090   25.2955 H   0  0  0  0  0  0  0  0  0  0  0  0
   14.1048    2.1043   21.6752 H   0  0  0  0  0  0  0  0  0  0  0  0
   11.7330   -0.1555   25.4027 H   0  0  0  0  0  0  0  0  0  0  0  0
   11.6349    2.1636   21.7735 H   0  0  0  0  0  0  0  0  0  0  0  0
    7.5639   -2.8621   26.1045 H   0  0  0  0  0  0  0  0  0  0  0  0
   11.0141   -4.2644   23.9422 H   0  0  0  0  0  0  0  0  0  0  0  0
    7.5950   -0.7788   24.8007 H   0  0  0  0  0  0  0  0  0  0  0  0
   11.0408   -2.1861   22.6359 H   0  0  0  0  0  0  0  0  0  0  0  0
    4.7733    2.0700   17.5071 H   0  0  0  0  0  0  0  0  0  0  0  0
    3.2813    2.7836   19.2995 H   0  0  0  0  0  0  0  0  0  0  0  0
    3.6335    1.9977   21.6542 H   0  0  0  0  0  0  0  0  0  0  0  0
    5.5067    0.4537   22.1474 H   0  0  0  0  0  0  0  0  0  0  0  0
    7.3516   -6.9810   27.6812 H   0  0  0  0  0  0  0  0  0  0  0  0
    8.4757   -7.5428   26.4371 H   0  0  0  0  0  0  0  0  0  0  0  0
    9.1234   -5.9016   28.9400 H   0  0  0  0  0  0  0  0  0  0  0  0
    9.5778   -7.5840   28.6491 H   0  0  0  0  0  0  0  0  0  0  0  0
   11.1305   -5.3108   28.0523 H   0  0  0  0  0  0  0  0  0  0  0  0
   11.4565   -6.9587   27.5131 H   0  0  0  0  0  0  0  0  0  0  0  0
   11.3212   -5.0729   25.7168 H   0  0  0  0  0  0  0  0  0  0  0  0
   10.4483   -6.5796   25.3796 H   0  0  0  0  0  0  0  0  0  0  0  0
    9.6778    1.0140   24.6966 H   0  0  0  0  0  0  0  0  0  0  0  0
    9.6316    1.9637   23.2107 H   0  0  0  0  0  0  0  0  0  0  0  0
    8.1334   -1.7992   21.3673 H   0  0  0  0  0  0  0  0  0  0  0  0
  1  2  1  0  0  0  0
  1  3  2  0  0  0  0
  2  4  2  0  0  0  0
  3  5  1  0  0  0  0
  4 10  1  0  0  0  0
  5 10  2  0  0  0  0
  6  8  2  0  0  0  0
  6 11  1  0  0  0  0
  7  9  1  0  0  0  0
  7 11  2  0  0  0  0
  8 12  1  0  0  0  0
  9 12  2  0  0  0  0
 10 25  1  0  0  0  0
 11 29  1  0  0  0  0
 12 31  1  0  0  0  0
 13 15  1  0  0  0  0
 13 26  2  0  0  0  0
 13 28  1  0  0  0  0
 14 27  2  0  0  0  0
 14 28  1  0  0  0  0
 14 30  1  0  0  0  0
 15 16  2  0  0  0  0
 16 17  1  0  0  0  0
 17 18  2  0  0  0  0
 18 28  1  0  0  0  0
 19 21  1  0  0  0  0
 19 29  1  0  0  0  0
 19 32  2  0  0  0  0
 20 30  1  0  0  0  0
 20 31  1  0  0  0  0
 20 33  2  0  0  0  0
 21 22  1  0  0  0  0
 22 23  1  0  0  0  0
 23 24  1  0  0  0  0
 24 29  1  0  0  0  0
 25 31  1  0  0  0  0
 26 27  1  0  0  0  0
  1 34  1  0  0  0  0
  2 35  1  0  0  0  0
  3 36  1  0  0  0  0
  4 37  1  0  0  0  0
  5 38  1  0  0  0  0
  6 39  1  0  0  0  0
  7 40  1  0  0  0  0
  8 41  1  0  0  0  0
  9 42  1  0  0  0  0
 15 43  1  0  0  0  0
 16 44  1  0  0  0  0
 17 45  1  0  0  0  0
 18 46  1  0  0  0  0
 21 47  1  0  0  0  0
 21 48  1  0  0  0  0
 22 49  1  0  0  0  0
 22 50  1  0  0  0  0
 23 51  1  0  0  0  0
 23 52  1  0  0  0  0
 24 53  1  0  0  0  0
 24 54  1  0  0  0  0
 25 55  1  0  0  0  0
 25 56  1  0  0  0  0
 30 57  1  0  0  0  0
M  END
> <clash_score>
1.272782601224562

> <docking_score>
-7.280452251434326

> <overlap_score>
1.0159268379211426

$$$$
BENZO_160_1
  -OEChem-08222022393D

 54 58  0     0  0  0  0  0  0999 V2000
    8.3310   -2.7170   25.3430 C   0  0  0  0  0  0  0  0  0  0  0  0
   10.2570   -3.5000   24.1350 C   0  0  0  0  0  0  0  0  0  0  0  0
    8.3510   -1.5420   24.6110 C   0  0  0  0  0  0  0  0  0  0  0  0
   10.2760   -2.3270   23.4020 C   0  0  0  0  0  0  0  0  0  0  0  0
   12.2675    1.0332   22.3812 C   0  0  0  0  0  0  0  0  0  0  0  0
   13.6257    0.9906   22.6074 C   0  0  0  0  0  0  0  0  0  0  0  0
   12.3384    0.9467   24.7028 C   0  0  0  0  0  0  0  0  0  0  0  0
   11.5217    1.0079   23.5949 C   0  0  0  0  0  0  0  0  0  0  0  0
    9.2850   -3.7090   25.1090 C   0  0  0  0  0  0  0  0  0  0  0  0
    9.3300   -1.3350   23.6390 C   0  0  0  0  0  0  0  0  0  0  0  0
    5.9810    0.8330   18.8060 C   0  0  0  0  0  0  0  0  0  0  0  0
    7.2210   -0.4620   20.0350 C   0  0  0  0  0  0  0  0  0  0  0  0
    4.9400    1.7060   18.5060 C   0  0  0  0  0  0  0  0  0  0  0  0
    4.0980    2.1130   19.5350 C   0  0  0  0  0  0  0  0  0  0  0  0
    4.2970    1.6690   20.8430 C   0  0  0  0  0  0  0  0  0  0  0  0
    5.3360    0.8000   21.1530 C   0  0  0  0  0  0  0  0  0  0  0  0
    8.0635   -5.4710   26.3667 C   0  0  0  0  0  0  0  0  0  0  0  0
    8.9510    0.1280   21.6880 C   0  0  0  0  0  0  0  0  0  0  0  0
    8.2626   -6.7580   27.1475 C   0  0  0  0  0  0  0  0  0  0  0  0
    9.4048   -6.6156   28.1380 C   0  0  0  0  0  0  0  0  0  0  0  0
   10.6949   -6.1500   27.4702 C   0  0  0  0  0  0  0  0  0  0  0  0
   10.4942   -5.7069   26.0219 C   0  0  0  0  0  0  0  0  0  0  0  0
   10.0220    1.0430   23.6570 C   0  0  0  0  0  0  0  0  0  0  0  0
    6.9440    0.2550   18.0100 N   0  0  0  0  0  0  0  0  0  0  0  0
    7.6830   -0.5170   18.7600 N   0  0  0  0  0  0  0  0  0  0  0  0
    6.1600    0.3870   20.1140 N   0  0  0  0  0  0  0  0  0  0  0  0
    9.2623   -4.9266   25.8635 N   0  0  0  0  0  0  0  0  0  0  0  0
    8.0810   -0.9750   21.0820 N   0  0  0  0  0  0  0  0  0  0  0  0
    9.4200   -0.0840   22.9530 N   0  0  0  0  0  0  0  0  0  0  0  0
    6.9244   -5.0476   26.1739 O   0  0  0  0  0  0  0  0  0  0  0  0
    9.1870    1.1500   21.0630 O   0  0  0  0  0  0  0  0  0  0  0  0
   13.9969    0.9203   24.2776 S   0  0  0  0  0  0  0  0  0  0  0  0
    7.5639   -2.8621   26.1045 H   0  0  0  0  0  0  0  0  0  0  0  0
   11.0141   -4.2644   23.9422 H   0  0  0  0  0  0  0  0  0  0  0  0
    7.5950   -0.7788   24.8007 H   0  0  0  0  0  0  0  0  0  0  0  0
   11.0408   -2.1861   22.6359 H   0  0  0  0  0  0  0  0  0  0  0  0
   11.8338    1.0798   21.3902 H   0  0  0  0  0  0  0  0  0  0  0  0
   14.4176    0.9966   21.8719 H   0  0  0  0  0  0  0  0  0  0  0  0
   12.0446    0.9149   25.7428 H   0  0  0  0  0  0  0  0  0  0  0  0
    4.7733    2.0700   17.5071 H   0  0  0  0  0  0  0  0  0  0  0  0
    3.2813    2.7836   19.2995 H   0  0  0  0  0  0  0  0  0  0  0  0
    3.6335    1.9977   21.6542 H   0  0  0  0  0  0  0  0  0  0  0  0
    5.5067    0.4537   22.1474 H   0  0  0  0  0  0  0  0  0  0  0  0
    7.3516   -6.9810   27.6812 H   0  0  0  0  0  0  0  0  0  0  0  0
    8.4757   -7.5428   26.4371 H   0  0  0  0  0  0  0  0  0  0  0  0
    9.1234   -5.9016   28.9400 H   0  0  0  0  0  0  0  0  0  0  0  0
    9.5778   -7.5840   28.6491 H   0  0  0  0  0  0  0  0  0  0  0  0
   11.1305   -5.3108   28.0523 H   0  0  0  0  0  0  0  0  0  0  0  0
   11.4565   -6.9587   27.5131 H   0  0  0  0  0  0  0  0  0  0  0  0
   11.3212   -5.0729   25.7168 H   0  0  0  0  0  0  0  0  0  0  0  0
   10.4483   -6.5796   25.3796 H   0  0  0  0  0  0  0  0  0  0  0  0
    9.6778    1.0140   24.6966 H   0  0  0  0  0  0  0  0  0  0  0  0
    9.6316    1.9637   23.2107 H   0  0  0  0  0  0  0  0  0  0  0  0
    8.1334   -1.7992   21.3673 H   0  0  0  0  0  0  0  0  0  0  0  0
  1  3  2  0  0  0  0
  1  9  1  0  0  0  0
  2  4  1  0  0  0  0
  2  9  2  0  0  0  0
  3 10  1  0  0  0  0
  4 10  2  0  0  0  0
  5  6  2  0  0  0  0
  5  8  1  0  0  0  0
  6 32  1  0  0  0  0
  7  8  2  0  0  0  0
  7 32  1  0  0  0  0
  8 23  1  0  0  0  0
  9 27  1  0  0  0  0
 10 29  1  0  0  0  0
 11 13  1  0  0  0  0
 11 24  2  0  0  0  0
 11 26  1  0  0  0  0
 12 25  2  0  0  0  0
 12 26  1  0  0  0  0
 12 28  1  0  0  0  0
 13 14  2  0  0  0  0
 14 15  1  0  0  0  0
 15 16  2  0  0  0  0
 16 26  1  0  0  0  0
 17 19  1  0  0  0  0
 17 27  1  0  0  0  0
 17 30  2  0  0  0  0
 18 28  1  0  0  0  0
 18 29  1  0  0  0  0
 18 31  2  0  0  0  0
 19 20  1  0  0  0  0
 20 21  1  0  0  0  0
 21 22  1  0  0  0  0
 22 27  1  0  0  0  0
 23 29  1  0  0  0  0
 24 25  1  0  0  0  0
  1 33  1  0  0  0  0
  2 34  1  0  0  0  0
  3 35  1  0  0  0  0
  4 36  1  0  0  0  0
  5 37  1  0  0  0  0
  6 38  1  0  0  0  0
  7 39  1  0  0  0  0
 13 40  1  0  0  0  0
 14 41  1  0  0  0  0
 15 42  1  0  0  0  0
 16 43  1  0  0  0  0
 19 44  1  0  0  0  0
 19 45  1  0  0  0  0
 20 46  1  0  0  0  0
 20 47  1  0  0  0  0
 21 48  1  0  0  0  0
 21 49  1  0  0  0  0
 22 50  1  0  0  0  0
 22 51  1  0  0  0  0
 23 52  1  0  0  0  0
 23 53  1  0  0  0  0
 28 54  1  0  0  0  0
M  END
> <clash_score>
1.272782601224562

> <docking_score>
-7.526656150817871

> <overlap_score>
0.9903323650360107

$$$$
BENZO_165_1
  -OEChem-08222022393D

 56 60  0     0  0  0  0  0  0999 V2000
   14.3082    0.9431   23.4783 C   0  0  0  0  0  0  0  0  0  0  0  0
   13.6391    0.3091   24.5251 C   0  0  0  0  0  0  0  0  0  0  0  0
   13.5841    1.6096   22.4898 C   0  0  0  0  0  0  0  0  0  0  0  0
   12.2459    0.3415   24.5835 C   0  0  0  0  0  0  0  0  0  0  0  0
   12.1908    1.6420   22.5481 C   0  0  0  0  0  0  0  0  0  0  0  0
    8.3310   -2.7170   25.3430 C   0  0  0  0  0  0  0  0  0  0  0  0
   10.2570   -3.5000   24.1350 C   0  0  0  0  0  0  0  0  0  0  0  0
    8.3510   -1.5420   24.6110 C   0  0  0  0  0  0  0  0  0  0  0  0
   10.2760   -2.3270   23.4020 C   0  0  0  0  0  0  0  0  0  0  0  0
   11.5217    1.0079   23.5949 C   0  0  0  0  0  0  0  0  0  0  0  0
    9.2850   -3.7090   25.1090 C   0  0  0  0  0  0  0  0  0  0  0  0
    9.3300   -1.3350   23.6390 C   0  0  0  0  0  0  0  0  0  0  0  0
    5.9810    0.8330   18.8060 C   0  0  0  0  0  0  0  0  0  0  0  0
    7.2210   -0.4620   20.0350 C   0  0  0  0  0  0  0  0  0  0  0  0
    4.9400    1.7060   18.5060 C   0  0  0  0  0  0  0  0  0  0  0  0
    4.0980    2.1130   19.5350 C   0  0  0  0  0  0  0  0  0  0  0  0
    4.2970    1.6690   20.8430 C   0  0  0  0  0  0  0  0  0  0  0  0
    5.3360    0.8000   21.1530 C   0  0  0  0  0  0  0  0  0  0  0  0
    8.9510    0.1280   21.6880 C   0  0  0  0  0  0  0  0  0  0  0  0
    8.7666   -4.9523   27.2147 C   0  0  0  0  0  0  0  0  0  0  0  0
    9.3034   -6.1866   25.1651 C   0  0  0  0  0  0  0  0  0  0  0  0
    7.3827   -5.5925   27.1999 C   0  0  0  0  0  0  0  0  0  0  0  0
    7.9024   -6.7967   25.2263 C   0  0  0  0  0  0  0  0  0  0  0  0
   10.0220    1.0430   23.6570 C   0  0  0  0  0  0  0  0  0  0  0  0
    6.9440    0.2550   18.0100 N   0  0  0  0  0  0  0  0  0  0  0  0
    7.6830   -0.5170   18.7600 N   0  0  0  0  0  0  0  0  0  0  0  0
    6.1600    0.3870   20.1140 N   0  0  0  0  0  0  0  0  0  0  0  0
    9.2640   -4.8844   25.8389 N   0  0  0  0  0  0  0  0  0  0  0  0
    8.0810   -0.9750   21.0820 N   0  0  0  0  0  0  0  0  0  0  0  0
    9.4200   -0.0840   22.9530 N   0  0  0  0  0  0  0  0  0  0  0  0
    9.1870    1.1500   21.0630 O   0  0  0  0  0  0  0  0  0  0  0  0
    7.4483   -6.8833   26.5817 O   0  0  0  0  0  0  0  0  0  0  0  0
   15.3932    0.9189   23.4337 H   0  0  0  0  0  0  0  0  0  0  0  0
   14.2029   -0.2090   25.2955 H   0  0  0  0  0  0  0  0  0  0  0  0
   14.1048    2.1043   21.6752 H   0  0  0  0  0  0  0  0  0  0  0  0
   11.7330   -0.1555   25.4027 H   0  0  0  0  0  0  0  0  0  0  0  0
   11.6349    2.1636   21.7735 H   0  0  0  0  0  0  0  0  0  0  0  0
    7.5647   -2.8621   26.1053 H   0  0  0  0  0  0  0  0  0  0  0  0
   11.0144   -4.2642   23.9425 H   0  0  0  0  0  0  0  0  0  0  0  0
    7.5958   -0.7779   24.8006 H   0  0  0  0  0  0  0  0  0  0  0  0
   11.0406   -2.1848   22.6356 H   0  0  0  0  0  0  0  0  0  0  0  0
    4.7733    2.0700   17.5071 H   0  0  0  0  0  0  0  0  0  0  0  0
    3.2813    2.7836   19.2995 H   0  0  0  0  0  0  0  0  0  0  0  0
    3.6335    1.9977   21.6542 H   0  0  0  0  0  0  0  0  0  0  0  0
    5.5067    0.4537   22.1474 H   0  0  0  0  0  0  0  0  0  0  0  0
    8.7030   -3.9561   27.6574 H   0  0  0  0  0  0  0  0  0  0  0  0
    9.4460   -5.5639   27.8143 H   0  0  0  0  0  0  0  0  0  0  0  0
   10.0083   -6.8392   25.6817 H   0  0  0  0  0  0  0  0  0  0  0  0
    9.6089   -6.0802   24.1251 H   0  0  0  0  0  0  0  0  0  0  0  0
    7.0281   -5.7334   28.2231 H   0  0  0  0  0  0  0  0  0  0  0  0
    6.6541   -4.9678   26.6754 H   0  0  0  0  0  0  0  0  0  0  0  0
    7.1860   -6.2177   24.6318 H   0  0  0  0  0  0  0  0  0  0  0  0
    7.9246   -7.8119   24.8187 H   0  0  0  0  0  0  0  0  0  0  0  0
    9.6778    1.0140   24.6966 H   0  0  0  0  0  0  0  0  0  0  0  0
    9.6316    1.9637   23.2107 H   0  0  0  0  0  0  0  0  0  0  0  0
    8.1334   -1.7992   21.3673 H   0  0  0  0  0  0  0  0  0  0  0  0
  1  2  1  0  0  0  0
  1  3  2  0  0  0  0
  2  4  2  0  0  0  0
  3  5  1  0  0  0  0
  4 10  1  0  0  0  0
  5 10  2  0  0  0  0
  6  8  2  0  0  0  0
  6 11  1  0  0  0  0
  7  9  1  0  0  0  0
  7 11  2  0  0  0  0
  8 12  1  0  0  0  0
  9 12  2  0  0  0  0
 10 24  1  0  0  0  0
 11 28  1  0  0  0  0
 12 30  1  0  0  0  0
 13 15  1  0  0  0  0
 13 25  2  0  0  0  0
 13 27  1  0  0  0  0
 14 26  2  0  0  0  0
 14 27  1  0  0  0  0
 14 29  1  0  0  0  0
 15 16  2  0  0  0  0
 16 17  1  0  0  0  0
 17 18  2  0  0  0  0
 18 27  1  0  0  0  0
 19 29  1  0  0  0  0
 19 30  1  0  0  0  0
 19 31  2  0  0  0  0
 20 22  1  0  0  0  0
 20 28  1  0  0  0  0
 21 23  1  0  0  0  0
 21 28  1  0  0  0  0
 22 32  1  0  0  0  0
 23 32  1  0  0  0  0
 24 30  1  0  0  0  0
 25 26  1  0  0  0  0
  1 33  1  0  0  0  0
  2 34  1  0  0  0  0
  3 35  1  0  0  0  0
  4 36  1  0  0  0  0
  5 37  1  0  0  0  0
  6 38  1  0  0  0  0
  7 39  1  0  0  0  0
  8 40  1  0  0  0  0
  9 41  1  0  0  0  0
 15 42  1  0  0  0  0
 16 43  1  0  0  0  0
 17 44  1  0  0  0  0
 18 45  1  0  0  0  0
 20 46  1  0  0  0  0
 20 47  1  0  0  0  0
 21 48  1  0  0  0  0
 21 49  1  0  0  0  0
 22 50  1  0  0  0  0
 22 51  1  0  0  0  0
 23 52  1  0  0  0  0
 23 53  1  0  0  0  0
 24 54  1  0  0  0  0
 24 55  1  0  0  0  0
 29 56  1  0  0  0  0
M  END
> <clash_score>
0

> <docking_score>
-8.525590896606445

> <overlap_score>
1.0165159702301025

$$$$
BENZO_162_1
  -OEChem-08222022393D

 57 61  0     0  0  0  0  0  0999 V2000
   13.5977    1.8457   22.6865 C   0  0  0  0  0  0  0  0  0  0  0  0
   12.2044    1.8769   22.7438 C   0  0  0  0  0  0  0  0  0  0  0  0
    8.3310   -2.7170   25.3430 C   0  0  0  0  0  0  0  0  0  0  0  0
   10.2570   -3.5000   24.1350 C   0  0  0  0  0  0  0  0  0  0  0  0
    8.3510   -1.5420   24.6110 C   0  0  0  0  0  0  0  0  0  0  0  0
   10.2760   -2.3270   23.4020 C   0  0  0  0  0  0  0  0  0  0  0  0
   14.3084    0.9453   23.4803 C   0  0  0  0  0  0  0  0  0  0  0  0
   12.2323    0.1076   24.3888 C   0  0  0  0  0  0  0  0  0  0  0  0
   11.5217    1.0079   23.5949 C   0  0  0  0  0  0  0  0  0  0  0  0
    9.2850   -3.7090   25.1090 C   0  0  0  0  0  0  0  0  0  0  0  0
    9.3300   -1.3350   23.6390 C   0  0  0  0  0  0  0  0  0  0  0  0
   13.6257    0.0764   24.3314 C   0  0  0  0  0  0  0  0  0  0  0  0
    5.9810    0.8330   18.8060 C   0  0  0  0  0  0  0  0  0  0  0  0
    7.2210   -0.4620   20.0350 C   0  0  0  0  0  0  0  0  0  0  0  0
    4.9400    1.7060   18.5060 C   0  0  0  0  0  0  0  0  0  0  0  0
    4.0980    2.1130   19.5350 C   0  0  0  0  0  0  0  0  0  0  0  0
    4.2970    1.6690   20.8430 C   0  0  0  0  0  0  0  0  0  0  0  0
    5.3360    0.8000   21.1530 C   0  0  0  0  0  0  0  0  0  0  0  0
    8.2930   -5.1714   26.8572 C   0  0  0  0  0  0  0  0  0  0  0  0
    8.9510    0.1280   21.6880 C   0  0  0  0  0  0  0  0  0  0  0  0
    8.4551   -6.5156   27.5444 C   0  0  0  0  0  0  0  0  0  0  0  0
    9.9019   -6.7444   27.9450 C   0  0  0  0  0  0  0  0  0  0  0  0
   10.8596   -6.5882   26.7680 C   0  0  0  0  0  0  0  0  0  0  0  0
   10.1895   -6.0108   25.5223 C   0  0  0  0  0  0  0  0  0  0  0  0
   10.0220    1.0430   23.6570 C   0  0  0  0  0  0  0  0  0  0  0  0
    6.9440    0.2550   18.0100 N   0  0  0  0  0  0  0  0  0  0  0  0
    7.6830   -0.5170   18.7600 N   0  0  0  0  0  0  0  0  0  0  0  0
    6.1600    0.3870   20.1140 N   0  0  0  0  0  0  0  0  0  0  0  0
    9.2623   -4.9266   25.8635 N   0  0  0  0  0  0  0  0  0  0  0  0
    8.0810   -0.9750   21.0820 N   0  0  0  0  0  0  0  0  0  0  0  0
    9.4200   -0.0840   22.9530 N   0  0  0  0  0  0  0  0  0  0  0  0
    7.3370   -4.4527   27.1463 O   0  0  0  0  0  0  0  0  0  0  0  0
    9.1870    1.1500   21.0630 O   0  0  0  0  0  0  0  0  0  0  0  0
   14.5031   -1.0334   25.3114 Cl  0  0  0  0  0  0  0  0  0  0  0  0
   14.1289    2.5226   22.0237 H   0  0  0  0  0  0  0  0  0  0  0  0
   11.6588    2.5818   22.1218 H   0  0  0  0  0  0  0  0  0  0  0  0
    7.5639   -2.8621   26.1045 H   0  0  0  0  0  0  0  0  0  0  0  0
   11.0141   -4.2644   23.9422 H   0  0  0  0  0  0  0  0  0  0  0  0
    7.5950   -0.7788   24.8007 H   0  0  0  0  0  0  0  0  0  0  0  0
   11.0408   -2.1861   22.6359 H   0  0  0  0  0  0  0  0  0  0  0  0
   15.3941    0.9323   23.4255 H   0  0  0  0  0  0  0  0  0  0  0  0
   11.6954   -0.5682   25.0504 H   0  0  0  0  0  0  0  0  0  0  0  0
    4.7733    2.0700   17.5071 H   0  0  0  0  0  0  0  0  0  0  0  0
    3.2813    2.7836   19.2995 H   0  0  0  0  0  0  0  0  0  0  0  0
    3.6335    1.9977   21.6542 H   0  0  0  0  0  0  0  0  0  0  0  0
    5.5067    0.4537   22.1474 H   0  0  0  0  0  0  0  0  0  0  0  0
    7.8332   -6.5283   28.4263 H   0  0  0  0  0  0  0  0  0  0  0  0
    8.1305   -7.2787   26.8530 H   0  0  0  0  0  0  0  0  0  0  0  0
   10.1875   -6.0379   28.7521 H   0  0  0  0  0  0  0  0  0  0  0  0
   10.0116   -7.7568   28.3834 H   0  0  0  0  0  0  0  0  0  0  0  0
   11.7061   -5.9337   27.0644 H   0  0  0  0  0  0  0  0  0  0  0  0
   11.3230   -7.5689   26.5243 H   0  0  0  0  0  0  0  0  0  0  0  0
   10.9445   -5.5959   24.8614 H   0  0  0  0  0  0  0  0  0  0  0  0
    9.6461   -6.7954   25.0072 H   0  0  0  0  0  0  0  0  0  0  0  0
    9.6778    1.0140   24.6966 H   0  0  0  0  0  0  0  0  0  0  0  0
    9.6316    1.9637   23.2107 H   0  0  0  0  0  0  0  0  0  0  0  0
    8.1334   -1.7992   21.3673 H   0  0  0  0  0  0  0  0  0  0  0  0
  1  2  2  0  0  0  0
  1  7  1  0  0  0  0
  2  9  1  0  0  0  0
  3  5  2  0  0  0  0
  3 10  1  0  0  0  0
  4  6  1  0  0  0  0
  4 10  2  0  0  0  0
  5 11  1  0  0  0  0
  6 11  2  0  0  0  0
  7 12  2  0  0  0  0
  8  9  2  0  0  0  0
  8 12  1  0  0  0  0
  9 25  1  0  0  0  0
 10 29  1  0  0  0  0
 11 31  1  0  0  0  0
 12 34  1  0  0  0  0
 13 15  1  0  0  0  0
 13 26  2  0  0  0  0
 13 28  1  0  0  0  0
 14 27  2  0  0  0  0
 14 28  1  0  0  0  0
 14 30  1  0  0  0  0
 15 16  2  0  0  0  0
 16 17  1  0  0  0  0
 17 18  2  0  0  0  0
 18 28  1  0  0  0  0
 19 21  1  0  0  0  0
 19 29  1  0  0  0  0
 19 32  2  0  0  0  0
 20 30  1  0  0  0  0
 20 31  1  0  0  0  0
 20 33  2  0  0  0  0
 21 22  1  0  0  0  0
 22 23  1  0  0  0  0
 23 24  1  0  0  0  0
 24 29  1  0  0  0  0
 25 31  1  0  0  0  0
 26 27  1  0  0  0  0
  1 35  1  0  0  0  0
  2 36  1  0  0  0  0
  3 37  1  0  0  0  0
  4 38  1  0  0  0  0
  5 39  1  0  0  0  0
  6 40  1  0  0  0  0
  7 41  1  0  0  0  0
  8 42  1  0  0  0  0
 15 43  1  0  0  0  0
 16 44  1  0  0  0  0
 17 45  1  0  0  0  0
 18 46  1  0  0  0  0
 21 47  1  0  0  0  0
 21 48  1  0  0  0  0
 22 49  1  0  0  0  0
 22 50  1  0  0  0  0
 23 51  1  0  0  0  0
 23 52  1  0  0  0  0
 24 53  1  0  0  0  0
 24 54  1  0  0  0  0
 25 55  1  0  0  0  0
 25 56  1  0  0  0  0
 30 57  1  0  0  0  0
M  END
> <clash_score>
2.825943004315734

> <docking_score>
-6.473186016082764

> <overlap_score>
1.021795392036438

$$$$
BENZO_163_1
  -OEChem-08222022393D

 57 61  0     0  0  0  0  0  0999 V2000
    8.3310   -2.7170   25.3430 C   0  0  0  0  0  0  0  0  0  0  0  0
   10.2570   -3.5000   24.1350 C   0  0  0  0  0  0  0  0  0  0  0  0
    8.3510   -1.5420   24.6110 C   0  0  0  0  0  0  0  0  0  0  0  0
   10.2760   -2.3270   23.4020 C   0  0  0  0  0  0  0  0  0  0  0  0
   12.4359    1.7439   24.3724 C   0  0  0  0  0  0  0  0  0  0  0  0
   12.3100    0.2469   22.7668 C   0  0  0  0  0  0  0  0  0  0  0  0
   11.5217    1.0079   23.5949 C   0  0  0  0  0  0  0  0  0  0  0  0
    9.2850   -3.7090   25.1090 C   0  0  0  0  0  0  0  0  0  0  0  0
    9.3300   -1.3350   23.6390 C   0  0  0  0  0  0  0  0  0  0  0  0
    5.9810    0.8330   18.8060 C   0  0  0  0  0  0  0  0  0  0  0  0
    7.2210   -0.4620   20.0350 C   0  0  0  0  0  0  0  0  0  0  0  0
    4.9400    1.7060   18.5060 C   0  0  0  0  0  0  0  0  0  0  0  0
    4.0980    2.1130   19.5350 C   0  0  0  0  0  0  0  0  0  0  0  0
    4.2970    1.6690   20.8430 C   0  0  0  0  0  0  0  0  0  0  0  0
    5.3360    0.8000   21.1530 C   0  0  0  0  0  0  0  0  0  0  0  0
    8.2934   -5.1724   26.8574 C   0  0  0  0  0  0  0  0  0  0  0  0
    8.9510    0.1280   21.6880 C   0  0  0  0  0  0  0  0  0  0  0  0
    8.4443   -6.5251   27.5306 C   0  0  0  0  0  0  0  0  0  0  0  0
    8.6421   -7.6210   26.4982 C   0  0  0  0  0  0  0  0  0  0  0  0
    9.8032   -7.3237   25.5546 C   0  0  0  0  0  0  0  0  0  0  0  0
   10.3452   -5.9024   25.6995 C   0  0  0  0  0  0  0  0  0  0  0  0
   14.7884    0.0124   22.4815 C   0  0  0  0  0  0  0  0  0  0  0  0
   10.0220    1.0430   23.6570 C   0  0  0  0  0  0  0  0  0  0  0  0
   13.7076    1.4745   24.0657 N   0  0  0  0  0  0  0  0  0  0  0  0
    6.9440    0.2550   18.0100 N   0  0  0  0  0  0  0  0  0  0  0  0
    7.6830   -0.5170   18.7600 N   0  0  0  0  0  0  0  0  0  0  0  0
   13.5982    0.5607   23.0864 N   0  0  0  0  0  0  0  0  0  0  0  0
    6.1600    0.3870   20.1140 N   0  0  0  0  0  0  0  0  0  0  0  0
    9.2623   -4.9267   25.8636 N   0  0  0  0  0  0  0  0  0  0  0  0
    8.0810   -0.9750   21.0820 N   0  0  0  0  0  0  0  0  0  0  0  0
    9.4200   -0.0840   22.9530 N   0  0  0  0  0  0  0  0  0  0  0  0
    7.4269   -4.3921   27.2503 O   0  0  0  0  0  0  0  0  0  0  0  0
    9.1870    1.1500   21.0630 O   0  0  0  0  0  0  0  0  0  0  0  0
    7.5639   -2.8621   26.1045 H   0  0  0  0  0  0  0  0  0  0  0  0
   11.0141   -4.2644   23.9422 H   0  0  0  0  0  0  0  0  0  0  0  0
    7.5950   -0.7788   24.8007 H   0  0  0  0  0  0  0  0  0  0  0  0
   11.0408   -2.1861   22.6359 H   0  0  0  0  0  0  0  0  0  0  0  0
   12.2308    2.4652   25.1508 H   0  0  0  0  0  0  0  0  0  0  0  0
   12.0700   -0.4744   21.9974 H   0  0  0  0  0  0  0  0  0  0  0  0
    4.7733    2.0700   17.5071 H   0  0  0  0  0  0  0  0  0  0  0  0
    3.2813    2.7836   19.2995 H   0  0  0  0  0  0  0  0  0  0  0  0
    3.6335    1.9977   21.6542 H   0  0  0  0  0  0  0  0  0  0  0  0
    5.5067    0.4537   22.1474 H   0  0  0  0  0  0  0  0  0  0  0  0
    9.3021   -6.4901   28.1844 H   0  0  0  0  0  0  0  0  0  0  0  0
    7.5489   -6.7067   28.1060 H   0  0  0  0  0  0  0  0  0  0  0  0
    8.8161   -8.5925   27.0061 H   0  0  0  0  0  0  0  0  0  0  0  0
    7.7102   -7.7540   25.9127 H   0  0  0  0  0  0  0  0  0  0  0  0
   10.6240   -8.0484   25.7384 H   0  0  0  0  0  0  0  0  0  0  0  0
    9.4907   -7.5005   24.5024 H   0  0  0  0  0  0  0  0  0  0  0  0
   10.9741   -5.8406   26.5826 H   0  0  0  0  0  0  0  0  0  0  0  0
   10.9262   -5.6455   24.8203 H   0  0  0  0  0  0  0  0  0  0  0  0
   15.0569    0.6453   21.6315 H   0  0  0  0  0  0  0  0  0  0  0  0
   15.5971   -0.0026   23.2175 H   0  0  0  0  0  0  0  0  0  0  0  0
   14.5870   -1.0100   22.1498 H   0  0  0  0  0  0  0  0  0  0  0  0
    9.6778    1.0140   24.6966 H   0  0  0  0  0  0  0  0  0  0  0  0
    9.6316    1.9637   23.2107 H   0  0  0  0  0  0  0  0  0  0  0  0
    8.1334   -1.7992   21.3673 H   0  0  0  0  0  0  0  0  0  0  0  0
  1  3  2  0  0  0  0
  1  8  1  0  0  0  0
  2  4  1  0  0  0  0
  2  8  2  0  0  0  0
  3  9  1  0  0  0  0
  4  9  2  0  0  0  0
  5  7  1  0  0  0  0
  5 24  2  0  0  0  0
  6  7  2  0  0  0  0
  6 27  1  0  0  0  0
  7 23  1  0  0  0  0
  8 29  1  0  0  0  0
  9 31  1  0  0  0  0
 10 12  1  0  0  0  0
 10 25  2  0  0  0  0
 10 28  1  0  0  0  0
 11 26  2  0  0  0  0
 11 28  1  0  0  0  0
 11 30  1  0  0  0  0
 12 13  2  0  0  0  0
 13 14  1  0  0  0  0
 14 15  2  0  0  0  0
 15 28  1  0  0  0  0
 16 18  1  0  0  0  0
 16 29  1  0  0  0  0
 16 32  2  0  0  0  0
 17 30  1  0  0  0  0
 17 31  1  0  0  0  0
 17 33  2  0  0  0  0
 18 19  1  0  0  0  0
 19 20  1  0  0  0  0
 20 21  1  0  0  0  0
 21 29  1  0  0  0  0
 22 27  1  0  0  0  0
 23 31  1  0  0  0  0
 24 27  1  0  0  0  0
 25 26  1  0  0  0  0
  1 34  1  0  0  0  0
  2 35  1  0  0  0  0
  3 36  1  0  0  0  0
  4 37  1  0  0  0  0
  5 38  1  0  0  0  0
  6 39  1  0  0  0  0
 12 40  1  0  0  0  0
 13 41  1  0  0  0  0
 14 42  1  0  0  0  0
 15 43  1  0  0  0  0
 18 44  1  0  0  0  0
 18 45  1  0  0  0  0
 19 46  1  0  0  0  0
 19 47  1  0  0  0  0
 20 48  1  0  0  0  0
 20 49  1  0  0  0  0
 21 50  1  0  0  0  0
 21 51  1  0  0  0  0
 22 52  1  0  0  0  0
 22 53  1  0  0  0  0
 22 54  1  0  0  0  0
 23 55  1  0  0  0  0
 23 56  1  0  0  0  0
 30 57  1  0  0  0  0
M  END
> <clash_score>
0.6927847163055834

> <docking_score>
-7.270741939544678

> <overlap_score>
1.0033576488494873

$$$$
BENZO_164_1
  -OEChem-08222022393D

 53 57  0     0  0  0  0  0  0999 V2000
    8.3310   -2.7170   25.3430 C   0  0  0  0  0  0  0  0  0  0  0  0
   10.2570   -3.5000   24.1350 C   0  0  0  0  0  0  0  0  0  0  0  0
    8.3510   -1.5420   24.6110 C   0  0  0  0  0  0  0  0  0  0  0  0
   10.2760   -2.3270   23.4020 C   0  0  0  0  0  0  0  0  0  0  0  0
   12.2675    1.0332   22.3812 C   0  0  0  0  0  0  0  0  0  0  0  0
   13.6257    0.9906   22.6074 C   0  0  0  0  0  0  0  0  0  0  0  0
   12.3384    0.9467   24.7028 C   0  0  0  0  0  0  0  0  0  0  0  0
   11.5217    1.0079   23.5949 C   0  0  0  0  0  0  0  0  0  0  0  0
    9.2850   -3.7090   25.1090 C   0  0  0  0  0  0  0  0  0  0  0  0
    9.3300   -1.3350   23.6390 C   0  0  0  0  0  0  0  0  0  0  0  0
    5.9810    0.8330   18.8060 C   0  0  0  0  0  0  0  0  0  0  0  0
    7.2210   -0.4620   20.0350 C   0  0  0  0  0  0  0  0  0  0  0  0
    4.9400    1.7060   18.5060 C   0  0  0  0  0  0  0  0  0  0  0  0
    4.0980    2.1130   19.5350 C   0  0  0  0  0  0  0  0  0  0  0  0
    4.2970    1.6690   20.8430 C   0  0  0  0  0  0  0  0  0  0  0  0
    5.3360    0.8000   21.1530 C   0  0  0  0  0  0  0  0  0  0  0  0
    8.9510    0.1280   21.6880 C   0  0  0  0  0  0  0  0  0  0  0  0
    8.7666   -4.9523   27.2147 C   0  0  0  0  0  0  0  0  0  0  0  0
    9.3034   -6.1866   25.1651 C   0  0  0  0  0  0  0  0  0  0  0  0
    7.3827   -5.5925   27.1999 C   0  0  0  0  0  0  0  0  0  0  0  0
    7.9024   -6.7967   25.2263 C   0  0  0  0  0  0  0  0  0  0  0  0
   10.0220    1.0430   23.6570 C   0  0  0  0  0  0  0  0  0  0  0  0
    6.9440    0.2550   18.0100 N   0  0  0  0  0  0  0  0  0  0  0  0
    7.6830   -0.5170   18.7600 N   0  0  0  0  0  0  0  0  0  0  0  0
    6.1600    0.3870   20.1140 N   0  0  0  0  0  0  0  0  0  0  0  0
    9.2640   -4.8844   25.8389 N   0  0  0  0  0  0  0  0  0  0  0  0
    8.0810   -0.9750   21.0820 N   0  0  0  0  0  0  0  0  0  0  0  0
    9.4200   -0.0840   22.9530 N   0  0  0  0  0  0  0  0  0  0  0  0
    9.1870    1.1500   21.0630 O   0  0  0  0  0  0  0  0  0  0  0  0
    7.4483   -6.8833   26.5817 O   0  0  0  0  0  0  0  0  0  0  0  0
   13.9969    0.9203   24.2776 S   0  0  0  0  0  0  0  0  0  0  0  0
    7.5647   -2.8621   26.1053 H   0  0  0  0  0  0  0  0  0  0  0  0
   11.0144   -4.2642   23.9425 H   0  0  0  0  0  0  0  0  0  0  0  0
    7.5958   -0.7779   24.8006 H   0  0  0  0  0  0  0  0  0  0  0  0
   11.0406   -2.1848   22.6356 H   0  0  0  0  0  0  0  0  0  0  0  0
   11.8338    1.0798   21.3902 H   0  0  0  0  0  0  0  0  0  0  0  0
   14.4176    0.9966   21.8719 H   0  0  0  0  0  0  0  0  0  0  0  0
   12.0446    0.9149   25.7428 H   0  0  0  0  0  0  0  0  0  0  0  0
    4.7733    2.0700   17.5071 H   0  0  0  0  0  0  0  0  0  0  0  0
    3.2813    2.7836   19.2995 H   0  0  0  0  0  0  0  0  0  0  0  0
    3.6335    1.9977   21.6542 H   0  0  0  0  0  0  0  0  0  0  0  0
    5.5067    0.4537   22.1474 H   0  0  0  0  0  0  0  0  0  0  0  0
    8.7030   -3.9561   27.6574 H   0  0  0  0  0  0  0  0  0  0  0  0
    9.4460   -5.5639   27.8143 H   0  0  0  0  0  0  0  0  0  0  0  0
   10.0083   -6.8392   25.6817 H   0  0  0  0  0  0  0  0  0  0  0  0
    9.6089   -6.0802   24.1251 H   0  0  0  0  0  0  0  0  0  0  0  0
    7.0281   -5.7334   28.2231 H   0  0  0  0  0  0  0  0  0  0  0  0
    6.6541   -4.9678   26.6754 H   0  0  0  0  0  0  0  0  0  0  0  0
    7.1860   -6.2177   24.6318 H   0  0  0  0  0  0  0  0  0  0  0  0
    7.9246   -7.8119   24.8187 H   0  0  0  0  0  0  0  0  0  0  0  0
    9.6778    1.0140   24.6966 H   0  0  0  0  0  0  0  0  0  0  0  0
    9.6316    1.9637   23.2107 H   0  0  0  0  0  0  0  0  0  0  0  0
    8.1334   -1.7992   21.3673 H   0  0  0  0  0  0  0  0  0  0  0  0
  1  3  2  0  0  0  0
  1  9  1  0  0  0  0
  2  4  1  0  0  0  0
  2  9  2  0  0  0  0
  3 10  1  0  0  0  0
  4 10  2  0  0  0  0
  5  6  2  0  0  0  0
  5  8  1  0  0  0  0
  6 31  1  0  0  0  0
  7  8  2  0  0  0  0
  7 31  1  0  0  0  0
  8 22  1  0  0  0  0
  9 26  1  0  0  0  0
 10 28  1  0  0  0  0
 11 13  1  0  0  0  0
 11 23  2  0  0  0  0
 11 25  1  0  0  0  0
 12 24  2  0  0  0  0
 12 25  1  0  0  0  0
 12 27  1  0  0  0  0
 13 14  2  0  0  0  0
 14 15  1  0  0  0  0
 15 16  2  0  0  0  0
 16 25  1  0  0  0  0
 17 27  1  0  0  0  0
 17 28  1  0  0  0  0
 17 29  2  0  0  0  0
 18 20  1  0  0  0  0
 18 26  1  0  0  0  0
 19 21  1  0  0  0  0
 19 26  1  0  0  0  0
 20 30  1  0  0  0  0
 21 30  1  0  0  0  0
 22 28  1  0  0  0  0
 23 24  1  0  0  0  0
  1 32  1  0  0  0  0
  2 33  1  0  0  0  0
  3 34  1  0  0  0  0
  4 35  1  0  0  0  0
  5 36  1  0  0  0  0
  6 37  1  0  0  0  0
  7 38  1  0  0  0  0
 13 39  1  0  0  0  0
 14 40  1  0  0  0  0
 15 41  1  0  0  0  0
 16 42  1  0  0  0  0
 18 43  1  0  0  0  0
 18 44  1  0  0  0  0
 19 45  1  0  0  0  0
 19 46  1  0  0  0  0
 20 47  1  0  0  0  0
 20 48  1  0  0  0  0
 21 49  1  0  0  0  0
 21 50  1  0  0  0  0
 22 51  1  0  0  0  0
 22 52  1  0  0  0  0
 27 53  1  0  0  0  0
M  END
> <clash_score>
0

> <docking_score>
-8.771787643432617

> <overlap_score>
0.9908769130706787

$$$$
BENZO_166_1
  -OEChem-08222022393D

 56 60  0     0  0  0  0  0  0999 V2000
   13.5977    1.8457   22.6865 C   0  0  0  0  0  0  0  0  0  0  0  0
   12.2044    1.8769   22.7438 C   0  0  0  0  0  0  0  0  0  0  0  0
    8.3310   -2.7170   25.3430 C   0  0  0  0  0  0  0  0  0  0  0  0
   10.2570   -3.5000   24.1350 C   0  0  0  0  0  0  0  0  0  0  0  0
    8.3510   -1.5420   24.6110 C   0  0  0  0  0  0  0  0  0  0  0  0
   10.2760   -2.3270   23.4020 C   0  0  0  0  0  0  0  0  0  0  0  0
   14.3084    0.9454   23.4803 C   0  0  0  0  0  0  0  0  0  0  0  0
   12.2323    0.1076   24.3888 C   0  0  0  0  0  0  0  0  0  0  0  0
   11.5217    1.0079   23.5949 C   0  0  0  0  0  0  0  0  0  0  0  0
    9.2850   -3.7090   25.1090 C   0  0  0  0  0  0  0  0  0  0  0  0
    9.3300   -1.3350   23.6390 C   0  0  0  0  0  0  0  0  0  0  0  0
   13.6257    0.0764   24.3314 C   0  0  0  0  0  0  0  0  0  0  0  0
    5.9810    0.8330   18.8060 C   0  0  0  0  0  0  0  0  0  0  0  0
    7.2210   -0.4620   20.0350 C   0  0  0  0  0  0  0  0  0  0  0  0
    4.9400    1.7060   18.5060 C   0  0  0  0  0  0  0  0  0  0  0  0
    4.0980    2.1130   19.5350 C   0  0  0  0  0  0  0  0  0  0  0  0
    4.2970    1.6690   20.8430 C   0  0  0  0  0  0  0  0  0  0  0  0
    5.3360    0.8000   21.1530 C   0  0  0  0  0  0  0  0  0  0  0  0
    8.9510    0.1280   21.6880 C   0  0  0  0  0  0  0  0  0  0  0  0
    8.7666   -4.9523   27.2147 C   0  0  0  0  0  0  0  0  0  0  0  0
    9.3034   -6.1866   25.1651 C   0  0  0  0  0  0  0  0  0  0  0  0
    7.3827   -5.5925   27.1999 C   0  0  0  0  0  0  0  0  0  0  0  0
    7.9024   -6.7967   25.2263 C   0  0  0  0  0  0  0  0  0  0  0  0
   10.0220    1.0430   23.6570 C   0  0  0  0  0  0  0  0  0  0  0  0
    6.9440    0.2550   18.0100 N   0  0  0  0  0  0  0  0  0  0  0  0
    7.6830   -0.5170   18.7600 N   0  0  0  0  0  0  0  0  0  0  0  0
    6.1600    0.3870   20.1140 N   0  0  0  0  0  0  0  0  0  0  0  0
    9.2640   -4.8844   25.8389 N   0  0  0  0  0  0  0  0  0  0  0  0
    8.0810   -0.9750   21.0820 N   0  0  0  0  0  0  0  0  0  0  0  0
    9.4200   -0.0840   22.9530 N   0  0  0  0  0  0  0  0  0  0  0  0
    9.1870    1.1500   21.0630 O   0  0  0  0  0  0  0  0  0  0  0  0
    7.4483   -6.8833   26.5817 O   0  0  0  0  0  0  0  0  0  0  0  0
   14.5031   -1.0334   25.3114 Cl  0  0  0  0  0  0  0  0  0  0  0  0
   14.1289    2.5227   22.0237 H   0  0  0  0  0  0  0  0  0  0  0  0
   11.6588    2.5818   22.1218 H   0  0  0  0  0  0  0  0  0  0  0  0
    7.5647   -2.8621   26.1053 H   0  0  0  0  0  0  0  0  0  0  0  0
   11.0144   -4.2642   23.9425 H   0  0  0  0  0  0  0  0  0  0  0  0
    7.5958   -0.7779   24.8006 H   0  0  0  0  0  0  0  0  0  0  0  0
   11.0406   -2.1848   22.6356 H   0  0  0  0  0  0  0  0  0  0  0  0
   15.3941    0.9323   23.4255 H   0  0  0  0  0  0  0  0  0  0  0  0
   11.6954   -0.5682   25.0504 H   0  0  0  0  0  0  0  0  0  0  0  0
    4.7733    2.0700   17.5071 H   0  0  0  0  0  0  0  0  0  0  0  0
    3.2813    2.7836   19.2995 H   0  0  0  0  0  0  0  0  0  0  0  0
    3.6335    1.9977   21.6542 H   0  0  0  0  0  0  0  0  0  0  0  0
    5.5067    0.4537   22.1474 H   0  0  0  0  0  0  0  0  0  0  0  0
    8.7030   -3.9561   27.6574 H   0  0  0  0  0  0  0  0  0  0  0  0
    9.4460   -5.5639   27.8143 H   0  0  0  0  0  0  0  0  0  0  0  0
   10.0083   -6.8392   25.6817 H   0  0  0  0  0  0  0  0  0  0  0  0
    9.6089   -6.0802   24.1251 H   0  0  0  0  0  0  0  0  0  0  0  0
    7.0281   -5.7334   28.2231 H   0  0  0  0  0  0  0  0  0  0  0  0
    6.6541   -4.9678   26.6754 H   0  0  0  0  0  0  0  0  0  0  0  0
    7.1860   -6.2177   24.6318 H   0  0  0  0  0  0  0  0  0  0  0  0
    7.9246   -7.8119   24.8187 H   0  0  0  0  0  0  0  0  0  0  0  0
    9.6778    1.0140   24.6966 H   0  0  0  0  0  0  0  0  0  0  0  0
    9.6316    1.9637   23.2107 H   0  0  0  0  0  0  0  0  0  0  0  0
    8.1334   -1.7992   21.3673 H   0  0  0  0  0  0  0  0  0  0  0  0
  1  2  2  0  0  0  0
  1  7  1  0  0  0  0
  2  9  1  0  0  0  0
  3  5  2  0  0  0  0
  3 10  1  0  0  0  0
  4  6  1  0  0  0  0
  4 10  2  0  0  0  0
  5 11  1  0  0  0  0
  6 11  2  0  0  0  0
  7 12  2  0  0  0  0
  8  9  2  0  0  0  0
  8 12  1  0  0  0  0
  9 24  1  0  0  0  0
 10 28  1  0  0  0  0
 11 30  1  0  0  0  0
 12 33  1  0  0  0  0
 13 15  1  0  0  0  0
 13 25  2  0  0  0  0
 13 27  1  0  0  0  0
 14 26  2  0  0  0  0
 14 27  1  0  0  0  0
 14 29  1  0  0  0  0
 15 16  2  0  0  0  0
 16 17  1  0  0  0  0
 17 18  2  0  0  0  0
 18 27  1  0  0  0  0
 19 29  1  0  0  0  0
 19 30  1  0  0  0  0
 19 31  2  0  0  0  0
 20 22  1  0  0  0  0
 20 28  1  0  0  0  0
 21 23  1  0  0  0  0
 21 28  1  0  0  0  0
 22 32  1  0  0  0  0
 23 32  1  0  0  0  0
 24 30  1  0  0  0  0
 25 26  1  0  0  0  0
  1 34  1  0  0  0  0
  2 35  1  0  0  0  0
  3 36  1  0  0  0  0
  4 37  1  0  0  0  0
  5 38  1  0  0  0  0
  6 39  1  0  0  0  0
  7 40  1  0  0  0  0
  8 41  1  0  0  0  0
 15 42  1  0  0  0  0
 16 43  1  0  0  0  0
 17 44  1  0  0  0  0
 18 45  1  0  0  0  0
 20 46  1  0  0  0  0
 20 47  1  0  0  0  0
 21 48  1  0  0  0  0
 21 49  1  0  0  0  0
 22 50  1  0  0  0  0
 22 51  1  0  0  0  0
 23 52  1  0  0  0  0
 23 53  1  0  0  0  0
 24 54  1  0  0  0  0
 24 55  1  0  0  0  0
 29 56  1  0  0  0  0
M  END
> <clash_score>
0.7662431493808955

> <docking_score>
-7.707487106323242

> <overlap_score>
1.0216708183288574

$$$$
BENZO_167_1
  -OEChem-08222022393D

 56 60  0     0  0  0  0  0  0999 V2000
    8.3310   -2.7170   25.3430 C   0  0  0  0  0  0  0  0  0  0  0  0
   10.2570   -3.5000   24.1350 C   0  0  0  0  0  0  0  0  0  0  0  0
    8.3510   -1.5420   24.6110 C   0  0  0  0  0  0  0  0  0  0  0  0
   10.2760   -2.3270   23.4020 C   0  0  0  0  0  0  0  0  0  0  0  0
   12.4359    1.7439   24.3724 C   0  0  0  0  0  0  0  0  0  0  0  0
   12.3100    0.2469   22.7668 C   0  0  0  0  0  0  0  0  0  0  0  0
   11.5217    1.0079   23.5949 C   0  0  0  0  0  0  0  0  0  0  0  0
    9.2850   -3.7090   25.1090 C   0  0  0  0  0  0  0  0  0  0  0  0
    9.3300   -1.3350   23.6390 C   0  0  0  0  0  0  0  0  0  0  0  0
    5.9810    0.8330   18.8060 C   0  0  0  0  0  0  0  0  0  0  0  0
    7.2210   -0.4620   20.0350 C   0  0  0  0  0  0  0  0  0  0  0  0
    4.9400    1.7060   18.5060 C   0  0  0  0  0  0  0  0  0  0  0  0
    4.0980    2.1130   19.5350 C   0  0  0  0  0  0  0  0  0  0  0  0
    4.2970    1.6690   20.8430 C   0  0  0  0  0  0  0  0  0  0  0  0
    5.3360    0.8000   21.1530 C   0  0  0  0  0  0  0  0  0  0  0  0
    8.9510    0.1280   21.6880 C   0  0  0  0  0  0  0  0  0  0  0  0
    8.7666   -4.9523   27.2147 C   0  0  0  0  0  0  0  0  0  0  0  0
    9.3034   -6.1866   25.1651 C   0  0  0  0  0  0  0  0  0  0  0  0
    7.3827   -5.5925   27.1999 C   0  0  0  0  0  0  0  0  0  0  0  0
    7.9024   -6.7967   25.2263 C   0  0  0  0  0  0  0  0  0  0  0  0
   14.7884    0.0124   22.4815 C   0  0  0  0  0  0  0  0  0  0  0  0
   10.0220    1.0430   23.6570 C   0  0  0  0  0  0  0  0  0  0  0  0
   13.7076    1.4745   24.0657 N   0  0  0  0  0  0  0  0  0  0  0  0
    6.9440    0.2550   18.0100 N   0  0  0  0  0  0  0  0  0  0  0  0
    7.6830   -0.5170   18.7600 N   0  0  0  0  0  0  0  0  0  0  0  0
   13.5982    0.5607   23.0864 N   0  0  0  0  0  0  0  0  0  0  0  0
    6.1600    0.3870   20.1140 N   0  0  0  0  0  0  0  0  0  0  0  0
    9.2640   -4.8844   25.8389 N   0  0  0  0  0  0  0  0  0  0  0  0
    8.0810   -0.9750   21.0820 N   0  0  0  0  0  0  0  0  0  0  0  0
    9.4200   -0.0840   22.9530 N   0  0  0  0  0  0  0  0  0  0  0  0
    9.1870    1.1500   21.0630 O   0  0  0  0  0  0  0  0  0  0  0  0
    7.4483   -6.8833   26.5817 O   0  0  0  0  0  0  0  0  0  0  0  0
    7.5647   -2.8621   26.1053 H   0  0  0  0  0  0  0  0  0  0  0  0
   11.0144   -4.2642   23.9425 H   0  0  0  0  0  0  0  0  0  0  0  0
    7.5958   -0.7779   24.8006 H   0  0  0  0  0  0  0  0  0  0  0  0
   11.0406   -2.1848   22.6356 H   0  0  0  0  0  0  0  0  0  0  0  0
   12.2308    2.4652   25.1508 H   0  0  0  0  0  0  0  0  0  0  0  0
   12.0700   -0.4744   21.9974 H   0  0  0  0  0  0  0  0  0  0  0  0
    4.7733    2.0700   17.5071 H   0  0  0  0  0  0  0  0  0  0  0  0
    3.2813    2.7836   19.2995 H   0  0  0  0  0  0  0  0  0  0  0  0
    3.6335    1.9977   21.6542 H   0  0  0  0  0  0  0  0  0  0  0  0
    5.5067    0.4537   22.1474 H   0  0  0  0  0  0  0  0  0  0  0  0
    8.7030   -3.9561   27.6574 H   0  0  0  0  0  0  0  0  0  0  0  0
    9.4460   -5.5639   27.8143 H   0  0  0  0  0  0  0  0  0  0  0  0
   10.0083   -6.8392   25.6817 H   0  0  0  0  0  0  0  0  0  0  0  0
    9.6089   -6.0802   24.1251 H   0  0  0  0  0  0  0  0  0  0  0  0
    7.0281   -5.7334   28.2231 H   0  0  0  0  0  0  0  0  0  0  0  0
    6.6541   -4.9678   26.6754 H   0  0  0  0  0  0  0  0  0  0  0  0
    7.1860   -6.2177   24.6318 H   0  0  0  0  0  0  0  0  0  0  0  0
    7.9246   -7.8119   24.8187 H   0  0  0  0  0  0  0  0  0  0  0  0
   15.0569    0.6453   21.6315 H   0  0  0  0  0  0  0  0  0  0  0  0
   15.5971   -0.0026   23.2174 H   0  0  0  0  0  0  0  0  0  0  0  0
   14.5870   -1.0100   22.1498 H   0  0  0  0  0  0  0  0  0  0  0  0
    9.6778    1.0140   24.6966 H   0  0  0  0  0  0  0  0  0  0  0  0
    9.6316    1.9637   23.2107 H   0  0  0  0  0  0  0  0  0  0  0  0
    8.1334   -1.7992   21.3673 H   0  0  0  0  0  0  0  0  0  0  0  0
  1  3  2  0  0  0  0
  1  8  1  0  0  0  0
  2  4  1  0  0  0  0
  2  8  2  0  0  0  0
  3  9  1  0  0  0  0
  4  9  2  0  0  0  0
  5  7  1  0  0  0  0
  5 23  2  0  0  0  0
  6  7  2  0  0  0  0
  6 26  1  0  0  0  0
  7 22  1  0  0  0  0
  8 28  1  0  0  0  0
  9 30  1  0  0  0  0
 10 12  1  0  0  0  0
 10 24  2  0  0  0  0
 10 27  1  0  0  0  0
 11 25  2  0  0  0  0
 11 27  1  0  0  0  0
 11 29  1  0  0  0  0
 12 13  2  0  0  0  0
 13 14  1  0  0  0  0
 14 15  2  0  0  0  0
 15 27  1  0  0  0  0
 16 29  1  0  0  0  0
 16 30  1  0  0  0  0
 16 31  2  0  0  0  0
 17 19  1  0  0  0  0
 17 28  1  0  0  0  0
 18 20  1  0  0  0  0
 18 28  1  0  0  0  0
 19 32  1  0  0  0  0
 20 32  1  0  0  0  0
 21 26  1  0  0  0  0
 22 30  1  0  0  0  0
 23 26  1  0  0  0  0
 24 25  1  0  0  0  0
  1 33  1  0  0  0  0
  2 34  1  0  0  0  0
  3 35  1  0  0  0  0
  4 36  1  0  0  0  0
  5 37  1  0  0  0  0
  6 38  1  0  0  0  0
 12 39  1  0  0  0  0
 13 40  1  0  0  0  0
 14 41  1  0  0  0  0
 15 42  1  0  0  0  0
 17 43  1  0  0  0  0
 17 44  1  0  0  0  0
 18 45  1  0  0  0  0
 18 46  1  0  0  0  0
 19 47  1  0  0  0  0
 19 48  1  0  0  0  0
 20 49  1  0  0  0  0
 20 50  1  0  0  0  0
 21 51  1  0  0  0  0
 21 52  1  0  0  0  0
 21 53  1  0  0  0  0
 22 54  1  0  0  0  0
 22 55  1  0  0  0  0
 29 56  1  0  0  0  0
M  END
> <clash_score>
0

> <docking_score>
-8.740202903747559

> <overlap_score>
1.0026934146881104

$$$$
BENZO_168_1
  -OEChem-08222022393D

 49 52  0     1  0  0  0  0  0999 V2000
    4.0980    2.1130   19.5350 C   0  0  0  0  0  0  0  0  0  0  0  0
    4.2970    1.6690   20.8430 C   0  0  0  0  0  0  0  0  0  0  0  0
    8.3510   -1.5420   24.6110 C   0  0  0  0  0  0  0  0  0  0  0  0
   10.2760   -2.3270   23.4020 C   0  0  0  0  0  0  0  0  0  0  0  0
    4.9400    1.7060   18.5060 C   0  0  0  0  0  0  0  0  0  0  0  0
    5.3360    0.8000   21.1530 C   0  0  0  0  0  0  0  0  0  0  0  0
    8.3310   -2.7170   25.3430 C   0  0  0  0  0  0  0  0  0  0  0  0
   10.2570   -3.5000   24.1350 C   0  0  0  0  0  0  0  0  0  0  0  0
   12.2267    2.3852   23.4320 C   0  0  0  0  0  0  0  0  0  0  0  0
   13.5754    2.2012   23.2208 C   0  0  0  0  0  0  0  0  0  0  0  0
   12.3453    0.0714   23.2460 C   0  0  0  0  0  0  0  0  0  0  0  0
    9.3300   -1.3350   23.6390 C   0  0  0  0  0  0  0  0  0  0  0  0
   11.5140    1.1515   23.4468 C   0  0  0  0  0  0  0  0  0  0  0  0
    5.9810    0.8330   18.8060 C   0  0  0  0  0  0  0  0  0  0  0  0
    6.1600    0.3870   20.1140 C   0  0  0  0  0  0  0  0  0  0  0  0
    9.2850   -3.7090   25.1090 C   0  0  0  0  0  0  0  0  0  0  0  0
    8.9510    0.1280   21.6880 C   0  0  0  0  0  0  0  0  0  0  0  0
    8.2520   -5.1176   26.8652 C   0  0  0  0  0  0  0  0  0  0  0  0
   10.2437   -5.9407   25.5988 C   0  0  0  0  0  0  0  0  0  0  0  0
   10.0220    1.0430   23.6570 C   0  0  0  0  0  0  0  0  0  0  0  0
    9.4200   -0.0840   22.9530 C   0  0  1  0  0  0  0  0  0  0  0  0
    6.9440    0.2550   18.0100 N   0  0  0  0  0  0  0  0  0  0  0  0
    7.6830   -0.5170   18.7600 N   0  0  0  0  0  0  0  0  0  0  0  0
    7.2210   -0.4620   20.0350 N   0  0  0  0  0  0  0  0  0  0  0  0
    8.0810   -0.9750   21.0820 N   0  0  0  0  0  0  0  0  0  0  0  0
    9.2638   -4.9025   25.8500 N   0  0  0  0  0  0  0  0  0  0  0  0
    9.1870    1.1500   21.0630 O   0  0  0  0  0  0  0  0  0  0  0  0
   13.9777    0.5464   23.0413 S   0  0  0  0  0  0  0  0  0  0  0  0
    3.2714    2.7876   19.3199 H   0  0  0  0  0  0  0  0  0  0  0  0
    3.6283    2.0091   21.6296 H   0  0  0  0  0  0  0  0  0  0  0  0
    7.5957   -0.7779   24.7973 H   0  0  0  0  0  0  0  0  0  0  0  0
   11.0384   -2.1852   22.6338 H   0  0  0  0  0  0  0  0  0  0  0  0
    4.7824    2.0670   17.4883 H   0  0  0  0  0  0  0  0  0  0  0  0
    5.4937    0.4574   22.1805 H   0  0  0  0  0  0  0  0  0  0  0  0
    7.5634   -2.8637   26.1037 H   0  0  0  0  0  0  0  0  0  0  0  0
   11.0139   -4.2645   23.9419 H   0  0  0  0  0  0  0  0  0  0  0  0
   11.7767    3.3605   23.5685 H   0  0  0  0  0  0  0  0  0  0  0  0
   14.3436    2.9592   23.1626 H   0  0  0  0  0  0  0  0  0  0  0  0
   12.0761   -0.9751   23.2080 H   0  0  0  0  0  0  0  0  0  0  0  0
    8.4015   -6.1034   27.3296 H   0  0  0  0  0  0  0  0  0  0  0  0
    8.3316   -4.3345   27.6337 H   0  0  0  0  0  0  0  0  0  0  0  0
    7.2546   -5.0776   26.4030 H   0  0  0  0  0  0  0  0  0  0  0  0
   10.0610   -6.7893   26.2744 H   0  0  0  0  0  0  0  0  0  0  0  0
   10.1605   -6.2785   24.5553 H   0  0  0  0  0  0  0  0  0  0  0  0
   11.2536   -5.5421   25.7757 H   0  0  0  0  0  0  0  0  0  0  0  0
    9.8388    0.9439   24.7360 H   0  0  0  0  0  0  0  0  0  0  0  0
    9.5396    1.9876   23.3725 H   0  0  0  0  0  0  0  0  0  0  0  0
    8.1264    0.3141   23.4937 H   0  0  0  0  0  0  0  0  0  0  0  0
    8.1479   -1.8049   21.3777 H   0  0  0  0  0  0  0  0  0  0  0  0
  1  2  1  0  0  0  0
  1  5  2  0  0  0  0
  2  6  2  0  0  0  0
  3  7  2  0  0  0  0
  3 12  1  0  0  0  0
  4  8  1  0  0  0  0
  4 12  2  0  0  0  0
  5 14  1  0  0  0  0
  6 15  1  0  0  0  0
  7 16  1  0  0  0  0
  8 16  2  0  0  0  0
  9 10  2  0  0  0  0
  9 13  1  0  0  0  0
 10 28  1  0  0  0  0
 11 13  2  0  0  0  0
 11 28  1  0  0  0  0
 12 21  1  0  0  0  0
 13 20  1  0  0  0  0
 14 15  2  0  0  0  0
 14 22  1  0  0  0  0
 15 24  1  0  0  0  0
 16 26  1  0  0  0  0
 17 21  1  0  0  0  0
 17 25  1  0  0  0  0
 17 27  2  0  0  0  0
 18 26  1  0  0  0  0
 19 26  1  0  0  0  0
 20 21  1  1  0  0  0
 22 23  2  0  0  0  0
 23 24  1  0  0  0  0
 24 25  1  0  0  0  0
  1 29  1  0  0  0  0
  2 30  1  0  0  0  0
  3 31  1  0  0  0  0
  4 32  1  0  0  0  0
  5 33  1  0  0  0  0
  6 34  1  0  0  0  0
  7 35  1  0  0  0  0
  8 36  1  0  0  0  0
  9 37  1  0  0  0  0
 10 38  1  0  0  0  0
 11 39  1  0  0  0  0
 18 40  1  0  0  0  0
 18 41  1  0  0  0  0
 18 42  1  0  0  0  0
 19 43  1  0  0  0  0
 19 44  1  0  0  0  0
 19 45  1  0  0  0  0
 20 46  1  0  0  0  0
 20 47  1  0  0  0  0
 21 48  1  0  0  0  0
 25 49  1  0  0  0  0
M  END
> <clash_score>
0

> <docking_score>
-10.215981483459473

> <overlap_score>
0.9989662766456604

$$$$
BENZO_169_1
  -OEChem-08222022393D

 52 55  0     1  0  0  0  0  0999 V2000
   14.2691    1.3522   23.0572 C   0  0  0  0  0  0  0  0  0  0  0  0
   13.7679    0.5995   24.1192 C   0  0  0  0  0  0  0  0  0  0  0  0
   13.3927    2.0047   22.1900 C   0  0  0  0  0  0  0  0  0  0  0  0
    4.0980    2.1130   19.5350 C   0  0  0  0  0  0  0  0  0  0  0  0
    4.2970    1.6690   20.8430 C   0  0  0  0  0  0  0  0  0  0  0  0
   12.3904    0.4991   24.3140 C   0  0  0  0  0  0  0  0  0  0  0  0
   12.0152    1.9043   22.3848 C   0  0  0  0  0  0  0  0  0  0  0  0
    8.3510   -1.5420   24.6110 C   0  0  0  0  0  0  0  0  0  0  0  0
   10.2760   -2.3270   23.4020 C   0  0  0  0  0  0  0  0  0  0  0  0
    4.9400    1.7060   18.5060 C   0  0  0  0  0  0  0  0  0  0  0  0
    5.3360    0.8000   21.1530 C   0  0  0  0  0  0  0  0  0  0  0  0
    8.3310   -2.7170   25.3430 C   0  0  0  0  0  0  0  0  0  0  0  0
   10.2570   -3.5000   24.1350 C   0  0  0  0  0  0  0  0  0  0  0  0
   11.5140    1.1515   23.4468 C   0  0  0  0  0  0  0  0  0  0  0  0
    9.3300   -1.3350   23.6390 C   0  0  0  0  0  0  0  0  0  0  0  0
    5.9810    0.8330   18.8060 C   0  0  0  0  0  0  0  0  0  0  0  0
    6.1600    0.3870   20.1140 C   0  0  0  0  0  0  0  0  0  0  0  0
    9.2850   -3.7090   25.1090 C   0  0  0  0  0  0  0  0  0  0  0  0
    8.9510    0.1280   21.6880 C   0  0  0  0  0  0  0  0  0  0  0  0
    8.2520   -5.1176   26.8652 C   0  0  0  0  0  0  0  0  0  0  0  0
   10.2437   -5.9407   25.5988 C   0  0  0  0  0  0  0  0  0  0  0  0
   10.0220    1.0430   23.6570 C   0  0  0  0  0  0  0  0  0  0  0  0
    9.4200   -0.0840   22.9530 C   0  0  1  0  0  0  0  0  0  0  0  0
    6.9440    0.2550   18.0100 N   0  0  0  0  0  0  0  0  0  0  0  0
    7.6830   -0.5170   18.7600 N   0  0  0  0  0  0  0  0  0  0  0  0
    7.2210   -0.4620   20.0350 N   0  0  0  0  0  0  0  0  0  0  0  0
    8.0810   -0.9750   21.0820 N   0  0  0  0  0  0  0  0  0  0  0  0
    9.2638   -4.9025   25.8500 N   0  0  0  0  0  0  0  0  0  0  0  0
    9.1870    1.1500   21.0630 O   0  0  0  0  0  0  0  0  0  0  0  0
   15.3418    1.4314   22.9065 H   0  0  0  0  0  0  0  0  0  0  0  0
   14.4502    0.0923   24.7952 H   0  0  0  0  0  0  0  0  0  0  0  0
   13.7826    2.5917   21.3638 H   0  0  0  0  0  0  0  0  0  0  0  0
    3.2714    2.7876   19.3199 H   0  0  0  0  0  0  0  0  0  0  0  0
    3.6283    2.0091   21.6296 H   0  0  0  0  0  0  0  0  0  0  0  0
   12.0089   -0.0898   25.1440 H   0  0  0  0  0  0  0  0  0  0  0  0
   11.3399    2.4159   21.7041 H   0  0  0  0  0  0  0  0  0  0  0  0
    7.5957   -0.7779   24.7973 H   0  0  0  0  0  0  0  0  0  0  0  0
   11.0384   -2.1852   22.6338 H   0  0  0  0  0  0  0  0  0  0  0  0
    4.7824    2.0670   17.4883 H   0  0  0  0  0  0  0  0  0  0  0  0
    5.4937    0.4574   22.1805 H   0  0  0  0  0  0  0  0  0  0  0  0
    7.5634   -2.8637   26.1037 H   0  0  0  0  0  0  0  0  0  0  0  0
   11.0139   -4.2645   23.9419 H   0  0  0  0  0  0  0  0  0  0  0  0
    8.4015   -6.1034   27.3296 H   0  0  0  0  0  0  0  0  0  0  0  0
    8.3316   -4.3345   27.6337 H   0  0  0  0  0  0  0  0  0  0  0  0
    7.2546   -5.0776   26.4030 H   0  0  0  0  0  0  0  0  0  0  0  0
   10.0610   -6.7893   26.2744 H   0  0  0  0  0  0  0  0  0  0  0  0
   10.1605   -6.2785   24.5553 H   0  0  0  0  0  0  0  0  0  0  0  0
   11.2536   -5.5421   25.7757 H   0  0  0  0  0  0  0  0  0  0  0  0
    9.8388    0.9439   24.7360 H   0  0  0  0  0  0  0  0  0  0  0  0
    9.5396    1.9876   23.3725 H   0  0  0  0  0  0  0  0  0  0  0  0
    8.1264    0.3141   23.4937 H   0  0  0  0  0  0  0  0  0  0  0  0
    8.1479   -1.8049   21.3777 H   0  0  0  0  0  0  0  0  0  0  0  0
  1  2  1  0  0  0  0
  1  3  2  0  0  0  0
  2  6  2  0  0  0  0
  3  7  1  0  0  0  0
  4  5  1  0  0  0  0
  4 10  2  0  0  0  0
  5 11  2  0  0  0  0
  6 14  1  0  0  0  0
  7 14  2  0  0  0  0
  8 12  2  0  0  0  0
  8 15  1  0  0  0  0
  9 13  1  0  0  0  0
  9 15  2  0  0  0  0
 10 16  1  0  0  0  0
 11 17  1  0  0  0  0
 12 18  1  0  0  0  0
 13 18  2  0  0  0  0
 14 22  1  0  0  0  0
 15 23  1  0  0  0  0
 16 17  2  0  0  0  0
 16 24  1  0  0  0  0
 17 26  1  0  0  0  0
 18 28  1  0  0  0  0
 19 23  1  0  0  0  0
 19 27  1  0  0  0  0
 19 29  2  0  0  0  0
 20 28  1  0  0  0  0
 21 28  1  0  0  0  0
 22 23  1  1  0  0  0
 24 25  2  0  0  0  0
 25 26  1  0  0  0  0
 26 27  1  0  0  0  0
  1 30  1  0  0  0  0
  2 31  1  0  0  0  0
  3 32  1  0  0  0  0
  4 33  1  0  0  0  0
  5 34  1  0  0  0  0
  6 35  1  0  0  0  0
  7 36  1  0  0  0  0
  8 37  1  0  0  0  0
  9 38  1  0  0  0  0
 10 39  1  0  0  0  0
 11 40  1  0  0  0  0
 12 41  1  0  0  0  0
 13 42  1  0  0  0  0
 20 43  1  0  0  0  0
 20 44  1  0  0  0  0
 20 45  1  0  0  0  0
 21 46  1  0  0  0  0
 21 47  1  0  0  0  0
 21 48  1  0  0  0  0
 22 49  1  0  0  0  0
 22 50  1  0  0  0  0
 23 51  1  0  0  0  0
 27 52  1  0  0  0  0
M  END
> <clash_score>
0

> <docking_score>
-9.484015464782715

> <overlap_score>
1.0128103494644165

$$$$
BENZO_168_2
  -OEChem-08222022393D

 49 52  0     1  0  0  0  0  0999 V2000
    4.0980    2.1130   19.5350 C   0  0  0  0  0  0  0  0  0  0  0  0
    4.2970    1.6690   20.8430 C   0  0  0  0  0  0  0  0  0  0  0  0
    8.3510   -1.5420   24.6110 C   0  0  0  0  0  0  0  0  0  0  0  0
   10.2760   -2.3270   23.4020 C   0  0  0  0  0  0  0  0  0  0  0  0
    4.9400    1.7060   18.5060 C   0  0  0  0  0  0  0  0  0  0  0  0
    5.3360    0.8000   21.1530 C   0  0  0  0  0  0  0  0  0  0  0  0
    8.3310   -2.7170   25.3430 C   0  0  0  0  0  0  0  0  0  0  0  0
   10.2570   -3.5000   24.1350 C   0  0  0  0  0  0  0  0  0  0  0  0
   11.6577    0.8378   25.6558 C   0  0  0  0  0  0  0  0  0  0  0  0
   12.9563    0.4800   25.9442 C   0  0  0  0  0  0  0  0  0  0  0  0
   12.4526    0.2747   23.5454 C   0  0  0  0  0  0  0  0  0  0  0  0
    9.3300   -1.3350   23.6390 C   0  0  0  0  0  0  0  0  0  0  0  0
   11.3657    0.7188   24.2662 C   0  0  0  0  0  0  0  0  0  0  0  0
    5.9810    0.8330   18.8060 C   0  0  0  0  0  0  0  0  0  0  0  0
    6.1600    0.3870   20.1140 C   0  0  0  0  0  0  0  0  0  0  0  0
    9.2850   -3.7090   25.1090 C   0  0  0  0  0  0  0  0  0  0  0  0
    8.9510    0.1280   21.6880 C   0  0  0  0  0  0  0  0  0  0  0  0
    8.0116   -5.4314   26.3529 C   0  0  0  0  0  0  0  0  0  0  0  0
   10.4914   -5.6287   26.1084 C   0  0  0  0  0  0  0  0  0  0  0  0
   10.0220    1.0430   23.6570 C   0  0  0  0  0  0  0  0  0  0  0  0
    9.4200   -0.0840   22.9530 C   0  0  2  0  0  0  0  0  0  0  0  0
    6.9440    0.2550   18.0100 N   0  0  0  0  0  0  0  0  0  0  0  0
    7.6830   -0.5170   18.7600 N   0  0  0  0  0  0  0  0  0  0  0  0
    7.2210   -0.4620   20.0350 N   0  0  0  0  0  0  0  0  0  0  0  0
    8.0810   -0.9750   21.0820 N   0  0  0  0  0  0  0  0  0  0  0  0
    9.2638   -4.9025   25.8500 N   0  0  0  0  0  0  0  0  0  0  0  0
    9.1870    1.1500   21.0630 O   0  0  0  0  0  0  0  0  0  0  0  0
   13.8176    0.0031   24.5431 S   0  0  0  0  0  0  0  0  0  0  0  0
    3.2714    2.7876   19.3199 H   0  0  0  0  0  0  0  0  0  0  0  0
    3.6283    2.0091   21.6296 H   0  0  0  0  0  0  0  0  0  0  0  0
    7.5957   -0.7779   24.7973 H   0  0  0  0  0  0  0  0  0  0  0  0
   11.0384   -2.1852   22.6338 H   0  0  0  0  0  0  0  0  0  0  0  0
    4.7824    2.0670   17.4883 H   0  0  0  0  0  0  0  0  0  0  0  0
    5.4937    0.4574   22.1805 H   0  0  0  0  0  0  0  0  0  0  0  0
    7.5634   -2.8637   26.1037 H   0  0  0  0  0  0  0  0  0  0  0  0
   11.0139   -4.2645   23.9419 H   0  0  0  0  0  0  0  0  0  0  0  0
   10.9540    1.1690   26.4090 H   0  0  0  0  0  0  0  0  0  0  0  0
   13.4407    0.4764   26.9104 H   0  0  0  0  0  0  0  0  0  0  0  0
   12.5149    0.0967   22.4808 H   0  0  0  0  0  0  0  0  0  0  0  0
    8.2016   -6.3652   26.9023 H   0  0  0  0  0  0  0  0  0  0  0  0
    7.5481   -4.6968   27.0278 H   0  0  0  0  0  0  0  0  0  0  0  0
    7.3342   -5.6334   25.5101 H   0  0  0  0  0  0  0  0  0  0  0  0
   10.2678   -6.5296   26.6986 H   0  0  0  0  0  0  0  0  0  0  0  0
   10.9522   -5.9212   25.1533 H   0  0  0  0  0  0  0  0  0  0  0  0
   11.1862   -4.9862   26.6691 H   0  0  0  0  0  0  0  0  0  0  0  0
    9.3544    1.3715   24.4657 H   0  0  0  0  0  0  0  0  0  0  0  0
   10.1173    1.9145   22.9956 H   0  0  0  0  0  0  0  0  0  0  0  0
   10.7193   -0.4348   22.4312 H   0  0  0  0  0  0  0  0  0  0  0  0
    8.1479   -1.8049   21.3777 H   0  0  0  0  0  0  0  0  0  0  0  0
  1  2  1  0  0  0  0
  1  5  2  0  0  0  0
  2  6  2  0  0  0  0
  3  7  2  0  0  0  0
  3 12  1  0  0  0  0
  4  8  1  0  0  0  0
  4 12  2  0  0  0  0
  5 14  1  0  0  0  0
  6 15  1  0  0  0  0
  7 16  1  0  0  0  0
  8 16  2  0  0  0  0
  9 10  2  0  0  0  0
  9 13  1  0  0  0  0
 10 28  1  0  0  0  0
 11 13  2  0  0  0  0
 11 28  1  0  0  0  0
 12 21  1  0  0  0  0
 13 20  1  0  0  0  0
 14 15  2  0  0  0  0
 14 22  1  0  0  0  0
 15 24  1  0  0  0  0
 16 26  1  0  0  0  0
 17 21  1  0  0  0  0
 17 25  1  0  0  0  0
 17 27  2  0  0  0  0
 18 26  1  0  0  0  0
 19 26  1  0  0  0  0
 20 21  1  6  0  0  0
 22 23  2  0  0  0  0
 23 24  1  0  0  0  0
 24 25  1  0  0  0  0
  1 29  1  0  0  0  0
  2 30  1  0  0  0  0
  3 31  1  0  0  0  0
  4 32  1  0  0  0  0
  5 33  1  0  0  0  0
  6 34  1  0  0  0  0
  7 35  1  0  0  0  0
  8 36  1  0  0  0  0
  9 37  1  0  0  0  0
 10 38  1  0  0  0  0
 11 39  1  0  0  0  0
 18 40  1  0  0  0  0
 18 41  1  0  0  0  0
 18 42  1  0  0  0  0
 19 43  1  0  0  0  0
 19 44  1  0  0  0  0
 19 45  1  0  0  0  0
 20 46  1  0  0  0  0
 20 47  1  0  0  0  0
 21 48  1  0  0  0  0
 25 49  1  0  0  0  0
M  END
> <clash_score>
0

> <docking_score>
-8.293187141418457

> <overlap_score>
0.9192723631858826

$$$$
BENZO_169_2
  -OEChem-08222022393D

 52 55  0     1  0  0  0  0  0999 V2000
   13.8479    0.1200   25.3901 C   0  0  0  0  0  0  0  0  0  0  0  0
   12.6818   -0.0763   26.1298 C   0  0  0  0  0  0  0  0  0  0  0  0
   13.7730    0.6157   24.0884 C   0  0  0  0  0  0  0  0  0  0  0  0
    4.0980    2.1130   19.5350 C   0  0  0  0  0  0  0  0  0  0  0  0
    4.2970    1.6690   20.8430 C   0  0  0  0  0  0  0  0  0  0  0  0
   11.4407    0.2231   25.5679 C   0  0  0  0  0  0  0  0  0  0  0  0
   12.5319    0.9151   23.5265 C   0  0  0  0  0  0  0  0  0  0  0  0
    8.3510   -1.5420   24.6110 C   0  0  0  0  0  0  0  0  0  0  0  0
   10.2760   -2.3270   23.4020 C   0  0  0  0  0  0  0  0  0  0  0  0
    4.9400    1.7060   18.5060 C   0  0  0  0  0  0  0  0  0  0  0  0
    5.3360    0.8000   21.1530 C   0  0  0  0  0  0  0  0  0  0  0  0
    8.3310   -2.7170   25.3430 C   0  0  0  0  0  0  0  0  0  0  0  0
   10.2570   -3.5000   24.1350 C   0  0  0  0  0  0  0  0  0  0  0  0
   11.3657    0.7188   24.2662 C   0  0  0  0  0  0  0  0  0  0  0  0
    9.3300   -1.3350   23.6390 C   0  0  0  0  0  0  0  0  0  0  0  0
    5.9810    0.8330   18.8060 C   0  0  0  0  0  0  0  0  0  0  0  0
    6.1600    0.3870   20.1140 C   0  0  0  0  0  0  0  0  0  0  0  0
    9.2850   -3.7090   25.1090 C   0  0  0  0  0  0  0  0  0  0  0  0
    8.9510    0.1280   21.6880 C   0  0  0  0  0  0  0  0  0  0  0  0
    8.2520   -5.1176   26.8652 C   0  0  0  0  0  0  0  0  0  0  0  0
   10.2437   -5.9407   25.5988 C   0  0  0  0  0  0  0  0  0  0  0  0
   10.0220    1.0430   23.6570 C   0  0  0  0  0  0  0  0  0  0  0  0
    9.4200   -0.0840   22.9530 C   0  0  2  0  0  0  0  0  0  0  0  0
    6.9440    0.2550   18.0100 N   0  0  0  0  0  0  0  0  0  0  0  0
    7.6830   -0.5170   18.7600 N   0  0  0  0  0  0  0  0  0  0  0  0
    7.2210   -0.4620   20.0350 N   0  0  0  0  0  0  0  0  0  0  0  0
    8.0810   -0.9750   21.0820 N   0  0  0  0  0  0  0  0  0  0  0  0
    9.2638   -4.9025   25.8500 N   0  0  0  0  0  0  0  0  0  0  0  0
    9.1870    1.1500   21.0630 O   0  0  0  0  0  0  0  0  0  0  0  0
   14.8143   -0.1119   25.8282 H   0  0  0  0  0  0  0  0  0  0  0  0
   12.7400   -0.4613   27.1438 H   0  0  0  0  0  0  0  0  0  0  0  0
   14.6807    0.7697   23.5125 H   0  0  0  0  0  0  0  0  0  0  0  0
    3.2714    2.7876   19.3199 H   0  0  0  0  0  0  0  0  0  0  0  0
    3.6283    2.0091   21.6296 H   0  0  0  0  0  0  0  0  0  0  0  0
   10.5374    0.0668   26.1517 H   0  0  0  0  0  0  0  0  0  0  0  0
   12.4832    1.3008   22.5116 H   0  0  0  0  0  0  0  0  0  0  0  0
    7.5957   -0.7779   24.7973 H   0  0  0  0  0  0  0  0  0  0  0  0
   11.0384   -2.1852   22.6338 H   0  0  0  0  0  0  0  0  0  0  0  0
    4.7824    2.0670   17.4883 H   0  0  0  0  0  0  0  0  0  0  0  0
    5.4937    0.4574   22.1805 H   0  0  0  0  0  0  0  0  0  0  0  0
    7.5634   -2.8637   26.1037 H   0  0  0  0  0  0  0  0  0  0  0  0
   11.0139   -4.2645   23.9419 H   0  0  0  0  0  0  0  0  0  0  0  0
    8.4015   -6.1034   27.3296 H   0  0  0  0  0  0  0  0  0  0  0  0
    8.3316   -4.3345   27.6337 H   0  0  0  0  0  0  0  0  0  0  0  0
    7.2546   -5.0776   26.4030 H   0  0  0  0  0  0  0  0  0  0  0  0
   10.0610   -6.7893   26.2744 H   0  0  0  0  0  0  0  0  0  0  0  0
   10.1605   -6.2785   24.5553 H   0  0  0  0  0  0  0  0  0  0  0  0
   11.2536   -5.5421   25.7757 H   0  0  0  0  0  0  0  0  0  0  0  0
    9.3544    1.3715   24.4657 H   0  0  0  0  0  0  0  0  0  0  0  0
   10.1173    1.9145   22.9956 H   0  0  0  0  0  0  0  0  0  0  0  0
   10.7193   -0.4348   22.4312 H   0  0  0  0  0  0  0  0  0  0  0  0
    8.1479   -1.8049   21.3777 H   0  0  0  0  0  0  0  0  0  0  0  0
  1  2  1  0  0  0  0
  1  3  2  0  0  0  0
  2  6  2  0  0  0  0
  3  7  1  0  0  0  0
  4  5  1  0  0  0  0
  4 10  2  0  0  0  0
  5 11  2  0  0  0  0
  6 14  1  0  0  0  0
  7 14  2  0  0  0  0
  8 12  2  0  0  0  0
  8 15  1  0  0  0  0
  9 13  1  0  0  0  0
  9 15  2  0  0  0  0
 10 16  1  0  0  0  0
 11 17  1  0  0  0  0
 12 18  1  0  0  0  0
 13 18  2  0  0  0  0
 14 22  1  0  0  0  0
 15 23  1  0  0  0  0
 16 17  2  0  0  0  0
 16 24  1  0  0  0  0
 17 26  1  0  0  0  0
 18 28  1  0  0  0  0
 19 23  1  0  0  0  0
 19 27  1  0  0  0  0
 19 29  2  0  0  0  0
 20 28  1  0  0  0  0
 21 28  1  0  0  0  0
 22 23  1  6  0  0  0
 24 25  2  0  0  0  0
 25 26  1  0  0  0  0
 26 27  1  0  0  0  0
  1 30  1  0  0  0  0
  2 31  1  0  0  0  0
  3 32  1  0  0  0  0
  4 33  1  0  0  0  0
  5 34  1  0  0  0  0
  6 35  1  0  0  0  0
  7 36  1  0  0  0  0
  8 37  1  0  0  0  0
  9 38  1  0  0  0  0
 10 39  1  0  0  0  0
 11 40  1  0  0  0  0
 12 41  1  0  0  0  0
 13 42  1  0  0  0  0
 20 43  1  0  0  0  0
 20 44  1  0  0  0  0
 20 45  1  0  0  0  0
 21 46  1  0  0  0  0
 21 47  1  0  0  0  0
 21 48  1  0  0  0  0
 22 49  1  0  0  0  0
 22 50  1  0  0  0  0
 23 51  1  0  0  0  0
 27 52  1  0  0  0  0
M  END
> <clash_score>
0

> <docking_score>
-8.569072723388672

> <overlap_score>
0.9364542365074158

$$$$
BENZO_170_1
  -OEChem-08222022393D

 52 55  0     1  0  0  0  0  0999 V2000
    4.0980    2.1130   19.5350 C   0  0  0  0  0  0  0  0  0  0  0  0
    4.2970    1.6690   20.8430 C   0  0  0  0  0  0  0  0  0  0  0  0
   13.7669    0.5967   24.1200 C   0  0  0  0  0  0  0  0  0  0  0  0
   12.3892    0.4979   24.3142 C   0  0  0  0  0  0  0  0  0  0  0  0
    8.3510   -1.5420   24.6110 C   0  0  0  0  0  0  0  0  0  0  0  0
   10.2760   -2.3270   23.4020 C   0  0  0  0  0  0  0  0  0  0  0  0
    4.9400    1.7060   18.5060 C   0  0  0  0  0  0  0  0  0  0  0  0
    5.3360    0.8000   21.1530 C   0  0  0  0  0  0  0  0  0  0  0  0
    8.3310   -2.7170   25.3430 C   0  0  0  0  0  0  0  0  0  0  0  0
   10.2570   -3.5000   24.1350 C   0  0  0  0  0  0  0  0  0  0  0  0
   14.2694    1.3493   23.0584 C   0  0  0  0  0  0  0  0  0  0  0  0
   12.0165    1.9040   22.3852 C   0  0  0  0  0  0  0  0  0  0  0  0
    9.3300   -1.3350   23.6390 C   0  0  0  0  0  0  0  0  0  0  0  0
   11.5140    1.1515   23.4468 C   0  0  0  0  0  0  0  0  0  0  0  0
    5.9810    0.8330   18.8060 C   0  0  0  0  0  0  0  0  0  0  0  0
    6.1600    0.3870   20.1140 C   0  0  0  0  0  0  0  0  0  0  0  0
    9.2850   -3.7090   25.1090 C   0  0  0  0  0  0  0  0  0  0  0  0
   13.3942    2.0028   22.1910 C   0  0  0  0  0  0  0  0  0  0  0  0
    8.9510    0.1280   21.6880 C   0  0  0  0  0  0  0  0  0  0  0  0
    8.2520   -5.1176   26.8652 C   0  0  0  0  0  0  0  0  0  0  0  0
   10.2437   -5.9407   25.5988 C   0  0  0  0  0  0  0  0  0  0  0  0
   10.0220    1.0430   23.6570 C   0  0  0  0  0  0  0  0  0  0  0  0
    9.4200   -0.0840   22.9530 C   0  0  1  0  0  0  0  0  0  0  0  0
    6.9440    0.2550   18.0100 N   0  0  0  0  0  0  0  0  0  0  0  0
    7.6830   -0.5170   18.7600 N   0  0  0  0  0  0  0  0  0  0  0  0
    7.2210   -0.4620   20.0350 N   0  0  0  0  0  0  0  0  0  0  0  0
    8.0810   -0.9750   21.0820 N   0  0  0  0  0  0  0  0  0  0  0  0
    9.2638   -4.9025   25.8500 N   0  0  0  0  0  0  0  0  0  0  0  0
    9.1870    1.1500   21.0630 O   0  0  0  0  0  0  0  0  0  0  0  0
   14.0147    2.9302   20.8808 Cl  0  0  0  0  0  0  0  0  0  0  0  0
    3.2714    2.7876   19.3199 H   0  0  0  0  0  0  0  0  0  0  0  0
    3.6283    2.0091   21.6296 H   0  0  0  0  0  0  0  0  0  0  0  0
   14.4481    0.0875   24.7956 H   0  0  0  0  0  0  0  0  0  0  0  0
   12.0065   -0.0907   25.1439 H   0  0  0  0  0  0  0  0  0  0  0  0
    7.5957   -0.7779   24.7973 H   0  0  0  0  0  0  0  0  0  0  0  0
   11.0384   -2.1852   22.6338 H   0  0  0  0  0  0  0  0  0  0  0  0
    4.7824    2.0670   17.4883 H   0  0  0  0  0  0  0  0  0  0  0  0
    5.4937    0.4574   22.1805 H   0  0  0  0  0  0  0  0  0  0  0  0
    7.5634   -2.8637   26.1037 H   0  0  0  0  0  0  0  0  0  0  0  0
   11.0139   -4.2645   23.9419 H   0  0  0  0  0  0  0  0  0  0  0  0
   15.3456    1.4172   22.9191 H   0  0  0  0  0  0  0  0  0  0  0  0
   11.3299    2.4121   21.7119 H   0  0  0  0  0  0  0  0  0  0  0  0
    8.4015   -6.1034   27.3296 H   0  0  0  0  0  0  0  0  0  0  0  0
    8.3316   -4.3345   27.6337 H   0  0  0  0  0  0  0  0  0  0  0  0
    7.2546   -5.0776   26.4030 H   0  0  0  0  0  0  0  0  0  0  0  0
   10.0610   -6.7893   26.2744 H   0  0  0  0  0  0  0  0  0  0  0  0
   10.1605   -6.2785   24.5553 H   0  0  0  0  0  0  0  0  0  0  0  0
   11.2536   -5.5421   25.7757 H   0  0  0  0  0  0  0  0  0  0  0  0
    9.8388    0.9439   24.7360 H   0  0  0  0  0  0  0  0  0  0  0  0
    9.5396    1.9876   23.3725 H   0  0  0  0  0  0  0  0  0  0  0  0
    8.1264    0.3141   23.4937 H   0  0  0  0  0  0  0  0  0  0  0  0
    8.1479   -1.8049   21.3777 H   0  0  0  0  0  0  0  0  0  0  0  0
  1  2  1  0  0  0  0
  1  7  2  0  0  0  0
  2  8  2  0  0  0  0
  3  4  2  0  0  0  0
  3 11  1  0  0  0  0
  4 14  1  0  0  0  0
  5  9  2  0  0  0  0
  5 13  1  0  0  0  0
  6 10  1  0  0  0  0
  6 13  2  0  0  0  0
  7 15  1  0  0  0  0
  8 16  1  0  0  0  0
  9 17  1  0  0  0  0
 10 17  2  0  0  0  0
 11 18  2  0  0  0  0
 12 14  2  0  0  0  0
 12 18  1  0  0  0  0
 13 23  1  0  0  0  0
 14 22  1  0  0  0  0
 15 16  2  0  0  0  0
 15 24  1  0  0  0  0
 16 26  1  0  0  0  0
 17 28  1  0  0  0  0
 18 30  1  0  0  0  0
 19 23  1  0  0  0  0
 19 27  1  0  0  0  0
 19 29  2  0  0  0  0
 20 28  1  0  0  0  0
 21 28  1  0  0  0  0
 22 23  1  1  0  0  0
 24 25  2  0  0  0  0
 25 26  1  0  0  0  0
 26 27  1  0  0  0  0
  1 31  1  0  0  0  0
  2 32  1  0  0  0  0
  3 33  1  0  0  0  0
  4 34  1  0  0  0  0
  5 35  1  0  0  0  0
  6 36  1  0  0  0  0
  7 37  1  0  0  0  0
  8 38  1  0  0  0  0
  9 39  1  0  0  0  0
 10 40  1  0  0  0  0
 11 41  1  0  0  0  0
 12 42  1  0  0  0  0
 20 43  1  0  0  0  0
 20 44  1  0  0  0  0
 20 45  1  0  0  0  0
 21 46  1  0  0  0  0
 21 47  1  0  0  0  0
 21 48  1  0  0  0  0
 22 49  1  0  0  0  0
 22 50  1  0  0  0  0
 23 51  1  0  0  0  0
 27 52  1  0  0  0  0
M  END
> <clash_score>
0

> <docking_score>
-8.600688934326172

> <overlap_score>
1.0161328315734863

$$$$
BENZO_170_2
  -OEChem-08222022393D

 52 55  0     1  0  0  0  0  0999 V2000
    4.0980    2.1130   19.5350 C   0  0  0  0  0  0  0  0  0  0  0  0
    4.2970    1.6690   20.8430 C   0  0  0  0  0  0  0  0  0  0  0  0
   13.7731    0.6181   24.0892 C   0  0  0  0  0  0  0  0  0  0  0  0
   12.5319    0.9161   23.5268 C   0  0  0  0  0  0  0  0  0  0  0  0
    8.3510   -1.5420   24.6110 C   0  0  0  0  0  0  0  0  0  0  0  0
   10.2760   -2.3270   23.4020 C   0  0  0  0  0  0  0  0  0  0  0  0
    4.9400    1.7060   18.5060 C   0  0  0  0  0  0  0  0  0  0  0  0
    5.3360    0.8000   21.1530 C   0  0  0  0  0  0  0  0  0  0  0  0
    8.3310   -2.7170   25.3430 C   0  0  0  0  0  0  0  0  0  0  0  0
   10.2570   -3.5000   24.1350 C   0  0  0  0  0  0  0  0  0  0  0  0
   13.8481    0.1225   25.3909 C   0  0  0  0  0  0  0  0  0  0  0  0
   11.4407    0.2233   25.5680 C   0  0  0  0  0  0  0  0  0  0  0  0
    9.3300   -1.3350   23.6390 C   0  0  0  0  0  0  0  0  0  0  0  0
   11.3657    0.7188   24.2662 C   0  0  0  0  0  0  0  0  0  0  0  0
    5.9810    0.8330   18.8060 C   0  0  0  0  0  0  0  0  0  0  0  0
    6.1600    0.3870   20.1140 C   0  0  0  0  0  0  0  0  0  0  0  0
    9.2850   -3.7090   25.1090 C   0  0  0  0  0  0  0  0  0  0  0  0
   12.6819   -0.0748   26.1303 C   0  0  0  0  0  0  0  0  0  0  0  0
    8.9510    0.1280   21.6880 C   0  0  0  0  0  0  0  0  0  0  0  0
    8.2520   -5.1176   26.8652 C   0  0  0  0  0  0  0  0  0  0  0  0
   10.2437   -5.9407   25.5988 C   0  0  0  0  0  0  0  0  0  0  0  0
   10.0220    1.0430   23.6570 C   0  0  0  0  0  0  0  0  0  0  0  0
    9.4200   -0.0840   22.9530 C   0  0  2  0  0  0  0  0  0  0  0  0
    6.9440    0.2550   18.0100 N   0  0  0  0  0  0  0  0  0  0  0  0
    7.6830   -0.5170   18.7600 N   0  0  0  0  0  0  0  0  0  0  0  0
    7.2210   -0.4620   20.0350 N   0  0  0  0  0  0  0  0  0  0  0  0
    8.0810   -0.9750   21.0820 N   0  0  0  0  0  0  0  0  0  0  0  0
    9.2638   -4.9025   25.8500 N   0  0  0  0  0  0  0  0  0  0  0  0
    9.1870    1.1500   21.0630 O   0  0  0  0  0  0  0  0  0  0  0  0
   12.7752   -0.6851   27.7367 Cl  0  0  0  0  0  0  0  0  0  0  0  0
    3.2714    2.7876   19.3199 H   0  0  0  0  0  0  0  0  0  0  0  0
    3.6283    2.0091   21.6296 H   0  0  0  0  0  0  0  0  0  0  0  0
   14.6810    0.7720   23.5131 H   0  0  0  0  0  0  0  0  0  0  0  0
   12.4829    1.3020   22.5119 H   0  0  0  0  0  0  0  0  0  0  0  0
    7.5957   -0.7779   24.7973 H   0  0  0  0  0  0  0  0  0  0  0  0
   11.0384   -2.1852   22.6338 H   0  0  0  0  0  0  0  0  0  0  0  0
    4.7824    2.0670   17.4883 H   0  0  0  0  0  0  0  0  0  0  0  0
    5.4937    0.4574   22.1805 H   0  0  0  0  0  0  0  0  0  0  0  0
    7.5634   -2.8637   26.1037 H   0  0  0  0  0  0  0  0  0  0  0  0
   11.0139   -4.2645   23.9419 H   0  0  0  0  0  0  0  0  0  0  0  0
   14.8224   -0.1052   25.8164 H   0  0  0  0  0  0  0  0  0  0  0  0
   10.5286    0.0707   26.1402 H   0  0  0  0  0  0  0  0  0  0  0  0
    8.4015   -6.1034   27.3296 H   0  0  0  0  0  0  0  0  0  0  0  0
    8.3316   -4.3345   27.6337 H   0  0  0  0  0  0  0  0  0  0  0  0
    7.2546   -5.0776   26.4030 H   0  0  0  0  0  0  0  0  0  0  0  0
   10.0610   -6.7893   26.2744 H   0  0  0  0  0  0  0  0  0  0  0  0
   10.1605   -6.2785   24.5553 H   0  0  0  0  0  0  0  0  0  0  0  0
   11.2536   -5.5421   25.7757 H   0  0  0  0  0  0  0  0  0  0  0  0
    9.3544    1.3715   24.4657 H   0  0  0  0  0  0  0  0  0  0  0  0
   10.1173    1.9145   22.9956 H   0  0  0  0  0  0  0  0  0  0  0  0
   10.7193   -0.4348   22.4312 H   0  0  0  0  0  0  0  0  0  0  0  0
    8.1479   -1.8049   21.3777 H   0  0  0  0  0  0  0  0  0  0  0  0
  1  2  1  0  0  0  0
  1  7  2  0  0  0  0
  2  8  2  0  0  0  0
  3  4  2  0  0  0  0
  3 11  1  0  0  0  0
  4 14  1  0  0  0  0
  5  9  2  0  0  0  0
  5 13  1  0  0  0  0
  6 10  1  0  0  0  0
  6 13  2  0  0  0  0
  7 15  1  0  0  0  0
  8 16  1  0  0  0  0
  9 17  1  0  0  0  0
 10 17  2  0  0  0  0
 11 18  2  0  0  0  0
 12 14  2  0  0  0  0
 12 18  1  0  0  0  0
 13 23  1  0  0  0  0
 14 22  1  0  0  0  0
 15 16  2  0  0  0  0
 15 24  1  0  0  0  0
 16 26  1  0  0  0  0
 17 28  1  0  0  0  0
 18 30  1  0  0  0  0
 19 23  1  0  0  0  0
 19 27  1  0  0  0  0
 19 29  2  0  0  0  0
 20 28  1  0  0  0  0
 21 28  1  0  0  0  0
 22 23  1  6  0  0  0
 24 25  2  0  0  0  0
 25 26  1  0  0  0  0
 26 27  1  0  0  0  0
  1 31  1  0  0  0  0
  2 32  1  0  0  0  0
  3 33  1  0  0  0  0
  4 34  1  0  0  0  0
  5 35  1  0  0  0  0
  6 36  1  0  0  0  0
  7 37  1  0  0  0  0
  8 38  1  0  0  0  0
  9 39  1  0  0  0  0
 10 40  1  0  0  0  0
 11 41  1  0  0  0  0
 12 42  1  0  0  0  0
 20 43  1  0  0  0  0
 20 44  1  0  0  0  0
 20 45  1  0  0  0  0
 21 46  1  0  0  0  0
 21 47  1  0  0  0  0
 21 48  1  0  0  0  0
 22 49  1  0  0  0  0
 22 50  1  0  0  0  0
 23 51  1  0  0  0  0
 27 52  1  0  0  0  0
M  END
> <clash_score>
1.5711885598477204

> <docking_score>
-7.625556468963623

> <overlap_score>
0.9351215958595276

$$$$
BENZO_171_1
  -OEChem-08222022393D

 52 55  0     1  0  0  0  0  0999 V2000
    4.0980    2.1130   19.5350 C   0  0  0  0  0  0  0  0  0  0  0  0
    4.2970    1.6690   20.8430 C   0  0  0  0  0  0  0  0  0  0  0  0
    8.3510   -1.5420   24.6110 C   0  0  0  0  0  0  0  0  0  0  0  0
   10.2760   -2.3270   23.4020 C   0  0  0  0  0  0  0  0  0  0  0  0
    4.9400    1.7060   18.5060 C   0  0  0  0  0  0  0  0  0  0  0  0
    5.3360    0.8000   21.1530 C   0  0  0  0  0  0  0  0  0  0  0  0
    8.3310   -2.7170   25.3430 C   0  0  0  0  0  0  0  0  0  0  0  0
   10.2570   -3.5000   24.1350 C   0  0  0  0  0  0  0  0  0  0  0  0
   12.3042    2.3166   23.4491 C   0  0  0  0  0  0  0  0  0  0  0  0
   12.4050    0.1328   23.2128 C   0  0  0  0  0  0  0  0  0  0  0  0
    9.3300   -1.3350   23.6390 C   0  0  0  0  0  0  0  0  0  0  0  0
   11.5140    1.1515   23.4468 C   0  0  0  0  0  0  0  0  0  0  0  0
    5.9810    0.8330   18.8060 C   0  0  0  0  0  0  0  0  0  0  0  0
    6.1600    0.3870   20.1140 C   0  0  0  0  0  0  0  0  0  0  0  0
    9.2850   -3.7090   25.1090 C   0  0  0  0  0  0  0  0  0  0  0  0
    8.9510    0.1280   21.6880 C   0  0  0  0  0  0  0  0  0  0  0  0
   14.8822    0.0595   22.8428 C   0  0  0  0  0  0  0  0  0  0  0  0
    8.2520   -5.1176   26.8652 C   0  0  0  0  0  0  0  0  0  0  0  0
   10.2437   -5.9407   25.5988 C   0  0  0  0  0  0  0  0  0  0  0  0
   10.0220    1.0430   23.6570 C   0  0  0  0  0  0  0  0  0  0  0  0
    9.4200   -0.0840   22.9530 C   0  0  1  0  0  0  0  0  0  0  0  0
   13.5977    2.0627   23.2339 N   0  0  0  0  0  0  0  0  0  0  0  0
    6.9440    0.2550   18.0100 N   0  0  0  0  0  0  0  0  0  0  0  0
    7.6830   -0.5170   18.7600 N   0  0  0  0  0  0  0  0  0  0  0  0
   13.6272    0.7264   23.0942 N   0  0  0  0  0  0  0  0  0  0  0  0
    7.2210   -0.4620   20.0350 N   0  0  0  0  0  0  0  0  0  0  0  0
    8.0810   -0.9750   21.0820 N   0  0  0  0  0  0  0  0  0  0  0  0
    9.2638   -4.9025   25.8500 N   0  0  0  0  0  0  0  0  0  0  0  0
    9.1870    1.1500   21.0630 O   0  0  0  0  0  0  0  0  0  0  0  0
    3.2714    2.7876   19.3199 H   0  0  0  0  0  0  0  0  0  0  0  0
    3.6283    2.0091   21.6296 H   0  0  0  0  0  0  0  0  0  0  0  0
    7.5957   -0.7779   24.7973 H   0  0  0  0  0  0  0  0  0  0  0  0
   11.0384   -2.1852   22.6338 H   0  0  0  0  0  0  0  0  0  0  0  0
    4.7824    2.0670   17.4883 H   0  0  0  0  0  0  0  0  0  0  0  0
    5.4937    0.4574   22.1805 H   0  0  0  0  0  0  0  0  0  0  0  0
    7.5634   -2.8637   26.1037 H   0  0  0  0  0  0  0  0  0  0  0  0
   11.0139   -4.2645   23.9419 H   0  0  0  0  0  0  0  0  0  0  0  0
   11.9938    3.3409   23.5993 H   0  0  0  0  0  0  0  0  0  0  0  0
   12.2768   -0.9376   23.1242 H   0  0  0  0  0  0  0  0  0  0  0  0
   15.0256    0.0076   21.7603 H   0  0  0  0  0  0  0  0  0  0  0  0
   15.6943    0.6239   23.3094 H   0  0  0  0  0  0  0  0  0  0  0  0
   14.8503   -0.9450   23.2739 H   0  0  0  0  0  0  0  0  0  0  0  0
    8.4015   -6.1034   27.3296 H   0  0  0  0  0  0  0  0  0  0  0  0
    8.3316   -4.3345   27.6337 H   0  0  0  0  0  0  0  0  0  0  0  0
    7.2546   -5.0776   26.4030 H   0  0  0  0  0  0  0  0  0  0  0  0
   10.0610   -6.7893   26.2744 H   0  0  0  0  0  0  0  0  0  0  0  0
   10.1605   -6.2785   24.5553 H   0  0  0  0  0  0  0  0  0  0  0  0
   11.2536   -5.5421   25.7757 H   0  0  0  0  0  0  0  0  0  0  0  0
    9.8388    0.9439   24.7360 H   0  0  0  0  0  0  0  0  0  0  0  0
    9.5396    1.9876   23.3725 H   0  0  0  0  0  0  0  0  0  0  0  0
    8.1264    0.3141   23.4937 H   0  0  0  0  0  0  0  0  0  0  0  0
    8.1479   -1.8049   21.3777 H   0  0  0  0  0  0  0  0  0  0  0  0
  1  2  1  0  0  0  0
  1  5  2  0  0  0  0
  2  6  2  0  0  0  0
  3  7  2  0  0  0  0
  3 11  1  0  0  0  0
  4  8  1  0  0  0  0
  4 11  2  0  0  0  0
  5 13  1  0  0  0  0
  6 14  1  0  0  0  0
  7 15  1  0  0  0  0
  8 15  2  0  0  0  0
  9 12  1  0  0  0  0
  9 22  2  0  0  0  0
 10 12  2  0  0  0  0
 10 25  1  0  0  0  0
 11 21  1  0  0  0  0
 12 20  1  0  0  0  0
 13 14  2  0  0  0  0
 13 23  1  0  0  0  0
 14 26  1  0  0  0  0
 15 28  1  0  0  0  0
 16 21  1  0  0  0  0
 16 27  1  0  0  0  0
 16 29  2  0  0  0  0
 17 25  1  0  0  0  0
 18 28  1  0  0  0  0
 19 28  1  0  0  0  0
 20 21  1  1  0  0  0
 22 25  1  0  0  0  0
 23 24  2  0  0  0  0
 24 26  1  0  0  0  0
 26 27  1  0  0  0  0
  1 30  1  0  0  0  0
  2 31  1  0  0  0  0
  3 32  1  0  0  0  0
  4 33  1  0  0  0  0
  5 34  1  0  0  0  0
  6 35  1  0  0  0  0
  7 36  1  0  0  0  0
  8 37  1  0  0  0  0
  9 38  1  0  0  0  0
 10 39  1  0  0  0  0
 17 40  1  0  0  0  0
 17 41  1  0  0  0  0
 17 42  1  0  0  0  0
 18 43  1  0  0  0  0
 18 44  1  0  0  0  0
 18 45  1  0  0  0  0
 19 46  1  0  0  0  0
 19 47  1  0  0  0  0
 19 48  1  0  0  0  0
 20 49  1  0  0  0  0
 20 50  1  0  0  0  0
 21 51  1  0  0  0  0
 27 52  1  0  0  0  0
M  END
> <clash_score>
0

> <docking_score>
-10.10984992980957

> <overlap_score>
1.014788269996643

$$$$
BENZO_171_2
  -OEChem-08222022393D

 52 55  0     1  0  0  0  0  0999 V2000
    4.0980    2.1130   19.5350 C   0  0  0  0  0  0  0  0  0  0  0  0
    4.2970    1.6690   20.8430 C   0  0  0  0  0  0  0  0  0  0  0  0
    8.3510   -1.5420   24.6110 C   0  0  0  0  0  0  0  0  0  0  0  0
   10.2760   -2.3270   23.4020 C   0  0  0  0  0  0  0  0  0  0  0  0
    4.9400    1.7060   18.5060 C   0  0  0  0  0  0  0  0  0  0  0  0
    5.3360    0.8000   21.1530 C   0  0  0  0  0  0  0  0  0  0  0  0
    8.3310   -2.7170   25.3430 C   0  0  0  0  0  0  0  0  0  0  0  0
   10.2570   -3.5000   24.1350 C   0  0  0  0  0  0  0  0  0  0  0  0
   12.4581    1.4918   22.7981 C   0  0  0  0  0  0  0  0  0  0  0  0
   10.9018    2.8185   21.9903 C   0  0  0  0  0  0  0  0  0  0  0  0
    9.3300   -1.3350   23.6390 C   0  0  0  0  0  0  0  0  0  0  0  0
   11.0769    1.7595   22.8472 C   0  0  0  0  0  0  0  0  0  0  0  0
    5.9810    0.8330   18.8060 C   0  0  0  0  0  0  0  0  0  0  0  0
    6.1600    0.3870   20.1140 C   0  0  0  0  0  0  0  0  0  0  0  0
    9.2850   -3.7090   25.1090 C   0  0  0  0  0  0  0  0  0  0  0  0
    8.9510    0.1280   21.6880 C   0  0  0  0  0  0  0  0  0  0  0  0
   12.4642    4.1525   20.5557 C   0  0  0  0  0  0  0  0  0  0  0  0
    8.2520   -5.1176   26.8652 C   0  0  0  0  0  0  0  0  0  0  0  0
   10.2437   -5.9407   25.5988 C   0  0  0  0  0  0  0  0  0  0  0  0
   10.0220    1.0430   23.6570 C   0  0  0  0  0  0  0  0  0  0  0  0
    9.4200   -0.0840   22.9530 C   0  0  2  0  0  0  0  0  0  0  0  0
   13.1138    2.3143   21.9750 N   0  0  0  0  0  0  0  0  0  0  0  0
    6.9440    0.2550   18.0100 N   0  0  0  0  0  0  0  0  0  0  0  0
    7.6830   -0.5170   18.7600 N   0  0  0  0  0  0  0  0  0  0  0  0
   12.1404    3.1092   21.4989 N   0  0  0  0  0  0  0  0  0  0  0  0
    7.2210   -0.4620   20.0350 N   0  0  0  0  0  0  0  0  0  0  0  0
    8.0810   -0.9750   21.0820 N   0  0  0  0  0  0  0  0  0  0  0  0
    9.2638   -4.9025   25.8500 N   0  0  0  0  0  0  0  0  0  0  0  0
    9.1870    1.1500   21.0630 O   0  0  0  0  0  0  0  0  0  0  0  0
    3.2714    2.7876   19.3199 H   0  0  0  0  0  0  0  0  0  0  0  0
    3.6283    2.0091   21.6296 H   0  0  0  0  0  0  0  0  0  0  0  0
    7.5957   -0.7779   24.7973 H   0  0  0  0  0  0  0  0  0  0  0  0
   11.0384   -2.1852   22.6338 H   0  0  0  0  0  0  0  0  0  0  0  0
    4.7824    2.0670   17.4883 H   0  0  0  0  0  0  0  0  0  0  0  0
    5.4937    0.4574   22.1805 H   0  0  0  0  0  0  0  0  0  0  0  0
    7.5634   -2.8637   26.1037 H   0  0  0  0  0  0  0  0  0  0  0  0
   11.0139   -4.2645   23.9419 H   0  0  0  0  0  0  0  0  0  0  0  0
   13.0162    0.7317   23.3262 H   0  0  0  0  0  0  0  0  0  0  0  0
   10.0229    3.3754   21.6946 H   0  0  0  0  0  0  0  0  0  0  0  0
   12.6964    5.0586   21.1216 H   0  0  0  0  0  0  0  0  0  0  0  0
   13.3249    3.8459   19.9549 H   0  0  0  0  0  0  0  0  0  0  0  0
   11.6087    4.3213   19.8958 H   0  0  0  0  0  0  0  0  0  0  0  0
    8.4015   -6.1034   27.3296 H   0  0  0  0  0  0  0  0  0  0  0  0
    8.3316   -4.3345   27.6337 H   0  0  0  0  0  0  0  0  0  0  0  0
    7.2546   -5.0776   26.4030 H   0  0  0  0  0  0  0  0  0  0  0  0
   10.0610   -6.7893   26.2744 H   0  0  0  0  0  0  0  0  0  0  0  0
   10.1605   -6.2785   24.5553 H   0  0  0  0  0  0  0  0  0  0  0  0
   11.2536   -5.5421   25.7757 H   0  0  0  0  0  0  0  0  0  0  0  0
   10.4908    0.6894   24.5858 H   0  0  0  0  0  0  0  0  0  0  0  0
    9.2554    1.7595   23.9807 H   0  0  0  0  0  0  0  0  0  0  0  0
   10.7193   -0.4348   22.4312 H   0  0  0  0  0  0  0  0  0  0  0  0
    8.1479   -1.8049   21.3777 H   0  0  0  0  0  0  0  0  0  0  0  0
  1  2  1  0  0  0  0
  1  5  2  0  0  0  0
  2  6  2  0  0  0  0
  3  7  2  0  0  0  0
  3 11  1  0  0  0  0
  4  8  1  0  0  0  0
  4 11  2  0  0  0  0
  5 13  1  0  0  0  0
  6 14  1  0  0  0  0
  7 15  1  0  0  0  0
  8 15  2  0  0  0  0
  9 12  1  0  0  0  0
  9 22  2  0  0  0  0
 10 12  2  0  0  0  0
 10 25  1  0  0  0  0
 11 21  1  0  0  0  0
 12 20  1  0  0  0  0
 13 14  2  0  0  0  0
 13 23  1  0  0  0  0
 14 26  1  0  0  0  0
 15 28  1  0  0  0  0
 16 21  1  0  0  0  0
 16 27  1  0  0  0  0
 16 29  2  0  0  0  0
 17 25  1  0  0  0  0
 18 28  1  0  0  0  0
 19 28  1  0  0  0  0
 20 21  1  6  0  0  0
 22 25  1  0  0  0  0
 23 24  2  0  0  0  0
 24 26  1  0  0  0  0
 26 27  1  0  0  0  0
  1 30  1  0  0  0  0
  2 31  1  0  0  0  0
  3 32  1  0  0  0  0
  4 33  1  0  0  0  0
  5 34  1  0  0  0  0
  6 35  1  0  0  0  0
  7 36  1  0  0  0  0
  8 37  1  0  0  0  0
  9 38  1  0  0  0  0
 10 39  1  0  0  0  0
 17 40  1  0  0  0  0
 17 41  1  0  0  0  0
 17 42  1  0  0  0  0
 18 43  1  0  0  0  0
 18 44  1  0  0  0  0
 18 45  1  0  0  0  0
 19 46  1  0  0  0  0
 19 47  1  0  0  0  0
 19 48  1  0  0  0  0
 20 49  1  0  0  0  0
 20 50  1  0  0  0  0
 21 51  1  0  0  0  0
 27 52  1  0  0  0  0
M  END
> <clash_score>
0

> <docking_score>
-8.898980140686035

> <overlap_score>
0.9655601382255554

$$$$
BENZO_173_1
  -OEChem-08222022393D

 54 57  0     1  0  0  0  0  0999 V2000
   14.2691    1.3522   23.0572 C   0  0  0  0  0  0  0  0  0  0  0  0
   13.7679    0.5995   24.1192 C   0  0  0  0  0  0  0  0  0  0  0  0
   13.3927    2.0047   22.1900 C   0  0  0  0  0  0  0  0  0  0  0  0
    4.0980    2.1130   19.5350 C   0  0  0  0  0  0  0  0  0  0  0  0
    4.2970    1.6690   20.8430 C   0  0  0  0  0  0  0  0  0  0  0  0
   12.3904    0.4991   24.3140 C   0  0  0  0  0  0  0  0  0  0  0  0
   12.0152    1.9043   22.3848 C   0  0  0  0  0  0  0  0  0  0  0  0
    8.3510   -1.5420   24.6110 C   0  0  0  0  0  0  0  0  0  0  0  0
   10.2760   -2.3270   23.4020 C   0  0  0  0  0  0  0  0  0  0  0  0
    4.9400    1.7060   18.5060 C   0  0  0  0  0  0  0  0  0  0  0  0
    5.3360    0.8000   21.1530 C   0  0  0  0  0  0  0  0  0  0  0  0
    8.3310   -2.7170   25.3430 C   0  0  0  0  0  0  0  0  0  0  0  0
   10.2570   -3.5000   24.1350 C   0  0  0  0  0  0  0  0  0  0  0  0
   11.5140    1.1515   23.4468 C   0  0  0  0  0  0  0  0  0  0  0  0
    9.3300   -1.3350   23.6390 C   0  0  0  0  0  0  0  0  0  0  0  0
    5.9810    0.8330   18.8060 C   0  0  0  0  0  0  0  0  0  0  0  0
    6.1600    0.3870   20.1140 C   0  0  0  0  0  0  0  0  0  0  0  0
    9.2850   -3.7090   25.1090 C   0  0  0  0  0  0  0  0  0  0  0  0
    8.1532   -5.5459   26.3982 C   0  0  0  0  0  0  0  0  0  0  0  0
    8.9510    0.1280   21.6880 C   0  0  0  0  0  0  0  0  0  0  0  0
    9.7891   -7.4744   26.4997 C   0  0  0  0  0  0  0  0  0  0  0  0
   10.0220    1.0430   23.6570 C   0  0  0  0  0  0  0  0  0  0  0  0
    8.5721   -6.8157   27.1241 C   0  0  0  0  0  0  0  0  0  0  0  0
    9.4200   -0.0840   22.9530 C   0  0  1  0  0  0  0  0  0  0  0  0
    6.9440    0.2550   18.0100 N   0  0  0  0  0  0  0  0  0  0  0  0
    7.6830   -0.5170   18.7600 N   0  0  0  0  0  0  0  0  0  0  0  0
    7.2210   -0.4620   20.0350 N   0  0  0  0  0  0  0  0  0  0  0  0
    9.2630   -4.8903   25.8409 N   0  0  0  0  0  0  0  0  0  0  0  0
    8.0810   -0.9750   21.0820 N   0  0  0  0  0  0  0  0  0  0  0  0
    6.9817   -5.1875   26.3377 O   0  0  0  0  0  0  0  0  0  0  0  0
    9.1870    1.1500   21.0630 O   0  0  0  0  0  0  0  0  0  0  0  0
   15.3418    1.4314   22.9065 H   0  0  0  0  0  0  0  0  0  0  0  0
   14.4502    0.0923   24.7952 H   0  0  0  0  0  0  0  0  0  0  0  0
   13.7826    2.5917   21.3638 H   0  0  0  0  0  0  0  0  0  0  0  0
    3.2714    2.7876   19.3199 H   0  0  0  0  0  0  0  0  0  0  0  0
    3.6283    2.0091   21.6296 H   0  0  0  0  0  0  0  0  0  0  0  0
   12.0089   -0.0898   25.1440 H   0  0  0  0  0  0  0  0  0  0  0  0
   11.3399    2.4159   21.7041 H   0  0  0  0  0  0  0  0  0  0  0  0
    7.5948   -0.7783   24.7966 H   0  0  0  0  0  0  0  0  0  0  0  0
   11.0389   -2.1844   22.6342 H   0  0  0  0  0  0  0  0  0  0  0  0
    4.7824    2.0670   17.4883 H   0  0  0  0  0  0  0  0  0  0  0  0
    5.4937    0.4574   22.1805 H   0  0  0  0  0  0  0  0  0  0  0  0
    7.5642   -2.8624   26.1050 H   0  0  0  0  0  0  0  0  0  0  0  0
   11.0137   -4.2649   23.9418 H   0  0  0  0  0  0  0  0  0  0  0  0
    9.6005   -7.7376   25.4536 H   0  0  0  0  0  0  0  0  0  0  0  0
   10.0471   -8.3896   27.0414 H   0  0  0  0  0  0  0  0  0  0  0  0
   10.6555   -6.8053   26.5264 H   0  0  0  0  0  0  0  0  0  0  0  0
    9.8388    0.9439   24.7360 H   0  0  0  0  0  0  0  0  0  0  0  0
    9.5396    1.9876   23.3725 H   0  0  0  0  0  0  0  0  0  0  0  0
    8.7887   -6.5635   28.1685 H   0  0  0  0  0  0  0  0  0  0  0  0
    7.7300   -7.5172   27.1116 H   0  0  0  0  0  0  0  0  0  0  0  0
    8.1264    0.3141   23.4937 H   0  0  0  0  0  0  0  0  0  0  0  0
   10.1695   -5.3466   25.9960 H   0  0  0  0  0  0  0  0  0  0  0  0
    8.1479   -1.8049   21.3777 H   0  0  0  0  0  0  0  0  0  0  0  0
  1  2  1  0  0  0  0
  1  3  2  0  0  0  0
  2  6  2  0  0  0  0
  3  7  1  0  0  0  0
  4  5  1  0  0  0  0
  4 10  2  0  0  0  0
  5 11  2  0  0  0  0
  6 14  1  0  0  0  0
  7 14  2  0  0  0  0
  8 12  2  0  0  0  0
  8 15  1  0  0  0  0
  9 13  1  0  0  0  0
  9 15  2  0  0  0  0
 10 16  1  0  0  0  0
 11 17  1  0  0  0  0
 12 18  1  0  0  0  0
 13 18  2  0  0  0  0
 14 22  1  0  0  0  0
 15 24  1  0  0  0  0
 16 17  2  0  0  0  0
 16 25  1  0  0  0  0
 17 27  1  0  0  0  0
 18 28  1  0  0  0  0
 19 23  1  0  0  0  0
 19 28  1  0  0  0  0
 19 30  2  0  0  0  0
 20 24  1  0  0  0  0
 20 29  1  0  0  0  0
 20 31  2  0  0  0  0
 21 23  1  0  0  0  0
 22 24  1  1  0  0  0
 25 26  2  0  0  0  0
 26 27  1  0  0  0  0
 27 29  1  0  0  0  0
  1 32  1  0  0  0  0
  2 33  1  0  0  0  0
  3 34  1  0  0  0  0
  4 35  1  0  0  0  0
  5 36  1  0  0  0  0
  6 37  1  0  0  0  0
  7 38  1  0  0  0  0
  8 39  1  0  0  0  0
  9 40  1  0  0  0  0
 10 41  1  0  0  0  0
 11 42  1  0  0  0  0
 12 43  1  0  0  0  0
 13 44  1  0  0  0  0
 21 45  1  0  0  0  0
 21 46  1  0  0  0  0
 21 47  1  0  0  0  0
 22 48  1  0  0  0  0
 22 49  1  0  0  0  0
 23 50  1  0  0  0  0
 23 51  1  0  0  0  0
 24 52  1  0  0  0  0
 28 53  1  0  0  0  0
 29 54  1  0  0  0  0
M  END
> <clash_score>
0.7462258920444663

> <docking_score>
-7.594231605529785

> <overlap_score>
1.018691062927246

$$$$
BENZO_173_2
  -OEChem-08222022393D

 54 57  0     1  0  0  0  0  0999 V2000
   13.8479    0.1200   25.3901 C   0  0  0  0  0  0  0  0  0  0  0  0
   12.6818   -0.0763   26.1298 C   0  0  0  0  0  0  0  0  0  0  0  0
   13.7730    0.6157   24.0884 C   0  0  0  0  0  0  0  0  0  0  0  0
    4.0980    2.1130   19.5350 C   0  0  0  0  0  0  0  0  0  0  0  0
    4.2970    1.6690   20.8430 C   0  0  0  0  0  0  0  0  0  0  0  0
   11.4407    0.2231   25.5679 C   0  0  0  0  0  0  0  0  0  0  0  0
   12.5319    0.9151   23.5265 C   0  0  0  0  0  0  0  0  0  0  0  0
    8.3510   -1.5420   24.6110 C   0  0  0  0  0  0  0  0  0  0  0  0
   10.2760   -2.3270   23.4020 C   0  0  0  0  0  0  0  0  0  0  0  0
    4.9400    1.7060   18.5060 C   0  0  0  0  0  0  0  0  0  0  0  0
    5.3360    0.8000   21.1530 C   0  0  0  0  0  0  0  0  0  0  0  0
    8.3310   -2.7170   25.3430 C   0  0  0  0  0  0  0  0  0  0  0  0
   10.2570   -3.5000   24.1350 C   0  0  0  0  0  0  0  0  0  0  0  0
   11.3657    0.7188   24.2662 C   0  0  0  0  0  0  0  0  0  0  0  0
    9.3300   -1.3350   23.6390 C   0  0  0  0  0  0  0  0  0  0  0  0
    5.9810    0.8330   18.8060 C   0  0  0  0  0  0  0  0  0  0  0  0
    6.1600    0.3870   20.1140 C   0  0  0  0  0  0  0  0  0  0  0  0
    9.2850   -3.7090   25.1090 C   0  0  0  0  0  0  0  0  0  0  0  0
    8.3642   -5.2691   26.8512 C   0  0  0  0  0  0  0  0  0  0  0  0
    8.9510    0.1280   21.6880 C   0  0  0  0  0  0  0  0  0  0  0  0
    7.9642   -7.7613   26.6647 C   0  0  0  0  0  0  0  0  0  0  0  0
   10.0220    1.0430   23.6570 C   0  0  0  0  0  0  0  0  0  0  0  0
    8.6981   -6.6505   27.3944 C   0  0  0  0  0  0  0  0  0  0  0  0
    9.4200   -0.0840   22.9530 C   0  0  2  0  0  0  0  0  0  0  0  0
    6.9440    0.2550   18.0100 N   0  0  0  0  0  0  0  0  0  0  0  0
    7.6830   -0.5170   18.7600 N   0  0  0  0  0  0  0  0  0  0  0  0
    7.2210   -0.4620   20.0350 N   0  0  0  0  0  0  0  0  0  0  0  0
    9.2630   -4.8903   25.8409 N   0  0  0  0  0  0  0  0  0  0  0  0
    8.0810   -0.9750   21.0820 N   0  0  0  0  0  0  0  0  0  0  0  0
    7.4190   -4.6136   27.2772 O   0  0  0  0  0  0  0  0  0  0  0  0
    9.1870    1.1500   21.0630 O   0  0  0  0  0  0  0  0  0  0  0  0
   14.8143   -0.1119   25.8282 H   0  0  0  0  0  0  0  0  0  0  0  0
   12.7400   -0.4613   27.1438 H   0  0  0  0  0  0  0  0  0  0  0  0
   14.6807    0.7697   23.5125 H   0  0  0  0  0  0  0  0  0  0  0  0
    3.2714    2.7876   19.3199 H   0  0  0  0  0  0  0  0  0  0  0  0
    3.6283    2.0091   21.6296 H   0  0  0  0  0  0  0  0  0  0  0  0
   10.5374    0.0668   26.1517 H   0  0  0  0  0  0  0  0  0  0  0  0
   12.4832    1.3008   22.5116 H   0  0  0  0  0  0  0  0  0  0  0  0
    7.5948   -0.7783   24.7966 H   0  0  0  0  0  0  0  0  0  0  0  0
   11.0389   -2.1844   22.6342 H   0  0  0  0  0  0  0  0  0  0  0  0
    4.7824    2.0670   17.4883 H   0  0  0  0  0  0  0  0  0  0  0  0
    5.4937    0.4574   22.1805 H   0  0  0  0  0  0  0  0  0  0  0  0
    7.5642   -2.8624   26.1050 H   0  0  0  0  0  0  0  0  0  0  0  0
   11.0137   -4.2649   23.9418 H   0  0  0  0  0  0  0  0  0  0  0  0
    6.8795   -7.6299   26.7374 H   0  0  0  0  0  0  0  0  0  0  0  0
    8.2204   -8.7342   27.0952 H   0  0  0  0  0  0  0  0  0  0  0  0
    8.2300   -7.7764   25.6026 H   0  0  0  0  0  0  0  0  0  0  0  0
    9.3544    1.3715   24.4657 H   0  0  0  0  0  0  0  0  0  0  0  0
   10.1173    1.9145   22.9956 H   0  0  0  0  0  0  0  0  0  0  0  0
    9.7793   -6.8069   27.3054 H   0  0  0  0  0  0  0  0  0  0  0  0
    8.4375   -6.6778   28.4588 H   0  0  0  0  0  0  0  0  0  0  0  0
   10.7193   -0.4348   22.4312 H   0  0  0  0  0  0  0  0  0  0  0  0
    9.9928   -5.5773   25.6185 H   0  0  0  0  0  0  0  0  0  0  0  0
    8.1479   -1.8049   21.3777 H   0  0  0  0  0  0  0  0  0  0  0  0
  1  2  1  0  0  0  0
  1  3  2  0  0  0  0
  2  6  2  0  0  0  0
  3  7  1  0  0  0  0
  4  5  1  0  0  0  0
  4 10  2  0  0  0  0
  5 11  2  0  0  0  0
  6 14  1  0  0  0  0
  7 14  2  0  0  0  0
  8 12  2  0  0  0  0
  8 15  1  0  0  0  0
  9 13  1  0  0  0  0
  9 15  2  0  0  0  0
 10 16  1  0  0  0  0
 11 17  1  0  0  0  0
 12 18  1  0  0  0  0
 13 18  2  0  0  0  0
 14 22  1  0  0  0  0
 15 24  1  0  0  0  0
 16 17  2  0  0  0  0
 16 25  1  0  0  0  0
 17 27  1  0  0  0  0
 18 28  1  0  0  0  0
 19 23  1  0  0  0  0
 19 28  1  0  0  0  0
 19 30  2  0  0  0  0
 20 24  1  0  0  0  0
 20 29  1  0  0  0  0
 20 31  2  0  0  0  0
 21 23  1  0  0  0  0
 22 24  1  6  0  0  0
 25 26  2  0  0  0  0
 26 27  1  0  0  0  0
 27 29  1  0  0  0  0
  1 32  1  0  0  0  0
  2 33  1  0  0  0  0
  3 34  1  0  0  0  0
  4 35  1  0  0  0  0
  5 36  1  0  0  0  0
  6 37  1  0  0  0  0
  7 38  1  0  0  0  0
  8 39  1  0  0  0  0
  9 40  1  0  0  0  0
 10 41  1  0  0  0  0
 11 42  1  0  0  0  0
 12 43  1  0  0  0  0
 13 44  1  0  0  0  0
 21 45  1  0  0  0  0
 21 46  1  0  0  0  0
 21 47  1  0  0  0  0
 22 48  1  0  0  0  0
 22 49  1  0  0  0  0
 23 50  1  0  0  0  0
 23 51  1  0  0  0  0
 24 52  1  0  0  0  0
 28 53  1  0  0  0  0
 29 54  1  0  0  0  0
M  END
> <clash_score>
0.7805938894154716

> <docking_score>
-6.402331352233887

> <overlap_score>
0.9435509443283081

$$$$
BENZO_172_1
  -OEChem-08222022393D

 51 54  0     1  0  0  0  0  0999 V2000
    4.0980    2.1130   19.5350 C   0  0  0  0  0  0  0  0  0  0  0  0
    4.2970    1.6690   20.8430 C   0  0  0  0  0  0  0  0  0  0  0  0
    8.3510   -1.5420   24.6110 C   0  0  0  0  0  0  0  0  0  0  0  0
   10.2760   -2.3270   23.4020 C   0  0  0  0  0  0  0  0  0  0  0  0
    4.9400    1.7060   18.5060 C   0  0  0  0  0  0  0  0  0  0  0  0
    5.3360    0.8000   21.1530 C   0  0  0  0  0  0  0  0  0  0  0  0
    8.3310   -2.7170   25.3430 C   0  0  0  0  0  0  0  0  0  0  0  0
   10.2570   -3.5000   24.1350 C   0  0  0  0  0  0  0  0  0  0  0  0
   12.2267    2.3852   23.4320 C   0  0  0  0  0  0  0  0  0  0  0  0
   13.5754    2.2012   23.2208 C   0  0  0  0  0  0  0  0  0  0  0  0
   12.3453    0.0714   23.2460 C   0  0  0  0  0  0  0  0  0  0  0  0
    9.3300   -1.3350   23.6390 C   0  0  0  0  0  0  0  0  0  0  0  0
   11.5140    1.1515   23.4468 C   0  0  0  0  0  0  0  0  0  0  0  0
    5.9810    0.8330   18.8060 C   0  0  0  0  0  0  0  0  0  0  0  0
    6.1600    0.3870   20.1140 C   0  0  0  0  0  0  0  0  0  0  0  0
    9.2850   -3.7090   25.1090 C   0  0  0  0  0  0  0  0  0  0  0  0
    8.3642   -5.2691   26.8512 C   0  0  0  0  0  0  0  0  0  0  0  0
    8.9510    0.1280   21.6880 C   0  0  0  0  0  0  0  0  0  0  0  0
    7.9642   -7.7613   26.6647 C   0  0  0  0  0  0  0  0  0  0  0  0
   10.0220    1.0430   23.6570 C   0  0  0  0  0  0  0  0  0  0  0  0
    8.6981   -6.6505   27.3944 C   0  0  0  0  0  0  0  0  0  0  0  0
    9.4200   -0.0840   22.9530 C   0  0  1  0  0  0  0  0  0  0  0  0
    6.9440    0.2550   18.0100 N   0  0  0  0  0  0  0  0  0  0  0  0
    7.6830   -0.5170   18.7600 N   0  0  0  0  0  0  0  0  0  0  0  0
    7.2210   -0.4620   20.0350 N   0  0  0  0  0  0  0  0  0  0  0  0
    9.2630   -4.8903   25.8409 N   0  0  0  0  0  0  0  0  0  0  0  0
    8.0810   -0.9750   21.0820 N   0  0  0  0  0  0  0  0  0  0  0  0
    7.4190   -4.6136   27.2772 O   0  0  0  0  0  0  0  0  0  0  0  0
    9.1870    1.1500   21.0630 O   0  0  0  0  0  0  0  0  0  0  0  0
   13.9777    0.5464   23.0413 S   0  0  0  0  0  0  0  0  0  0  0  0
    3.2714    2.7876   19.3199 H   0  0  0  0  0  0  0  0  0  0  0  0
    3.6283    2.0091   21.6296 H   0  0  0  0  0  0  0  0  0  0  0  0
    7.5948   -0.7783   24.7966 H   0  0  0  0  0  0  0  0  0  0  0  0
   11.0389   -2.1844   22.6342 H   0  0  0  0  0  0  0  0  0  0  0  0
    4.7824    2.0670   17.4883 H   0  0  0  0  0  0  0  0  0  0  0  0
    5.4937    0.4574   22.1805 H   0  0  0  0  0  0  0  0  0  0  0  0
    7.5642   -2.8624   26.1050 H   0  0  0  0  0  0  0  0  0  0  0  0
   11.0137   -4.2649   23.9418 H   0  0  0  0  0  0  0  0  0  0  0  0
   11.7767    3.3605   23.5685 H   0  0  0  0  0  0  0  0  0  0  0  0
   14.3436    2.9592   23.1626 H   0  0  0  0  0  0  0  0  0  0  0  0
   12.0761   -0.9751   23.2080 H   0  0  0  0  0  0  0  0  0  0  0  0
    6.8795   -7.6299   26.7374 H   0  0  0  0  0  0  0  0  0  0  0  0
    8.2204   -8.7342   27.0952 H   0  0  0  0  0  0  0  0  0  0  0  0
    8.2300   -7.7764   25.6026 H   0  0  0  0  0  0  0  0  0  0  0  0
    9.8388    0.9439   24.7360 H   0  0  0  0  0  0  0  0  0  0  0  0
    9.5396    1.9876   23.3725 H   0  0  0  0  0  0  0  0  0  0  0  0
    9.7793   -6.8069   27.3054 H   0  0  0  0  0  0  0  0  0  0  0  0
    8.4375   -6.6778   28.4588 H   0  0  0  0  0  0  0  0  0  0  0  0
    8.1264    0.3141   23.4937 H   0  0  0  0  0  0  0  0  0  0  0  0
    9.9928   -5.5773   25.6185 H   0  0  0  0  0  0  0  0  0  0  0  0
    8.1479   -1.8049   21.3777 H   0  0  0  0  0  0  0  0  0  0  0  0
  1  2  1  0  0  0  0
  1  5  2  0  0  0  0
  2  6  2  0  0  0  0
  3  7  2  0  0  0  0
  3 12  1  0  0  0  0
  4  8  1  0  0  0  0
  4 12  2  0  0  0  0
  5 14  1  0  0  0  0
  6 15  1  0  0  0  0
  7 16  1  0  0  0  0
  8 16  2  0  0  0  0
  9 10  2  0  0  0  0
  9 13  1  0  0  0  0
 10 30  1  0  0  0  0
 11 13  2  0  0  0  0
 11 30  1  0  0  0  0
 12 22  1  0  0  0  0
 13 20  1  0  0  0  0
 14 15  2  0  0  0  0
 14 23  1  0  0  0  0
 15 25  1  0  0  0  0
 16 26  1  0  0  0  0
 17 21  1  0  0  0  0
 17 26  1  0  0  0  0
 17 28  2  0  0  0  0
 18 22  1  0  0  0  0
 18 27  1  0  0  0  0
 18 29  2  0  0  0  0
 19 21  1  0  0  0  0
 20 22  1  1  0  0  0
 23 24  2  0  0  0  0
 24 25  1  0  0  0  0
 25 27  1  0  0  0  0
  1 31  1  0  0  0  0
  2 32  1  0  0  0  0
  3 33  1  0  0  0  0
  4 34  1  0  0  0  0
  5 35  1  0  0  0  0
  6 36  1  0  0  0  0
  7 37  1  0  0  0  0
  8 38  1  0  0  0  0
  9 39  1  0  0  0  0
 10 40  1  0  0  0  0
 11 41  1  0  0  0  0
 19 42  1  0  0  0  0
 19 43  1  0  0  0  0
 19 44  1  0  0  0  0
 20 45  1  0  0  0  0
 20 46  1  0  0  0  0
 21 47  1  0  0  0  0
 21 48  1  0  0  0  0
 22 49  1  0  0  0  0
 26 50  1  0  0  0  0
 27 51  1  0  0  0  0
M  END
> <clash_score>
0.7805938894154716

> <docking_score>
-8.049239158630371

> <overlap_score>
1.0058647394180298

$$$$
BENZO_172_2
  -OEChem-08222022393D

 51 54  0     1  0  0  0  0  0999 V2000
    4.0980    2.1130   19.5350 C   0  0  0  0  0  0  0  0  0  0  0  0
    4.2970    1.6690   20.8430 C   0  0  0  0  0  0  0  0  0  0  0  0
    8.3510   -1.5420   24.6110 C   0  0  0  0  0  0  0  0  0  0  0  0
   10.2760   -2.3270   23.4020 C   0  0  0  0  0  0  0  0  0  0  0  0
    4.9400    1.7060   18.5060 C   0  0  0  0  0  0  0  0  0  0  0  0
    5.3360    0.8000   21.1530 C   0  0  0  0  0  0  0  0  0  0  0  0
    8.3310   -2.7170   25.3430 C   0  0  0  0  0  0  0  0  0  0  0  0
   10.2570   -3.5000   24.1350 C   0  0  0  0  0  0  0  0  0  0  0  0
   11.6577    0.8378   25.6558 C   0  0  0  0  0  0  0  0  0  0  0  0
   12.9563    0.4800   25.9442 C   0  0  0  0  0  0  0  0  0  0  0  0
   12.4526    0.2747   23.5454 C   0  0  0  0  0  0  0  0  0  0  0  0
    9.3300   -1.3350   23.6390 C   0  0  0  0  0  0  0  0  0  0  0  0
   11.3657    0.7188   24.2662 C   0  0  0  0  0  0  0  0  0  0  0  0
    5.9810    0.8330   18.8060 C   0  0  0  0  0  0  0  0  0  0  0  0
    6.1600    0.3870   20.1140 C   0  0  0  0  0  0  0  0  0  0  0  0
    9.2850   -3.7090   25.1090 C   0  0  0  0  0  0  0  0  0  0  0  0
    8.1532   -5.5459   26.3982 C   0  0  0  0  0  0  0  0  0  0  0  0
    8.9510    0.1280   21.6880 C   0  0  0  0  0  0  0  0  0  0  0  0
    8.9295   -6.5694   28.5789 C   0  0  0  0  0  0  0  0  0  0  0  0
   10.0220    1.0430   23.6570 C   0  0  0  0  0  0  0  0  0  0  0  0
    8.5721   -6.8157   27.1241 C   0  0  0  0  0  0  0  0  0  0  0  0
    9.4200   -0.0840   22.9530 C   0  0  2  0  0  0  0  0  0  0  0  0
    6.9440    0.2550   18.0100 N   0  0  0  0  0  0  0  0  0  0  0  0
    7.6830   -0.5170   18.7600 N   0  0  0  0  0  0  0  0  0  0  0  0
    7.2210   -0.4620   20.0350 N   0  0  0  0  0  0  0  0  0  0  0  0
    9.2630   -4.8903   25.8409 N   0  0  0  0  0  0  0  0  0  0  0  0
    8.0810   -0.9750   21.0820 N   0  0  0  0  0  0  0  0  0  0  0  0
    6.9817   -5.1875   26.3377 O   0  0  0  0  0  0  0  0  0  0  0  0
    9.1870    1.1500   21.0630 O   0  0  0  0  0  0  0  0  0  0  0  0
   13.8176    0.0031   24.5431 S   0  0  0  0  0  0  0  0  0  0  0  0
    3.2714    2.7876   19.3199 H   0  0  0  0  0  0  0  0  0  0  0  0
    3.6283    2.0091   21.6296 H   0  0  0  0  0  0  0  0  0  0  0  0
    7.5948   -0.7783   24.7966 H   0  0  0  0  0  0  0  0  0  0  0  0
   11.0389   -2.1844   22.6342 H   0  0  0  0  0  0  0  0  0  0  0  0
    4.7824    2.0670   17.4883 H   0  0  0  0  0  0  0  0  0  0  0  0
    5.4937    0.4574   22.1805 H   0  0  0  0  0  0  0  0  0  0  0  0
    7.5642   -2.8624   26.1050 H   0  0  0  0  0  0  0  0  0  0  0  0
   11.0137   -4.2649   23.9418 H   0  0  0  0  0  0  0  0  0  0  0  0
   10.9540    1.1690   26.4090 H   0  0  0  0  0  0  0  0  0  0  0  0
   13.4407    0.4764   26.9104 H   0  0  0  0  0  0  0  0  0  0  0  0
   12.5149    0.0967   22.4808 H   0  0  0  0  0  0  0  0  0  0  0  0
    9.7518   -5.8515   28.6657 H   0  0  0  0  0  0  0  0  0  0  0  0
    9.2387   -7.5031   29.0587 H   0  0  0  0  0  0  0  0  0  0  0  0
    8.0737   -6.1679   29.1314 H   0  0  0  0  0  0  0  0  0  0  0  0
    9.3544    1.3715   24.4657 H   0  0  0  0  0  0  0  0  0  0  0  0
   10.1173    1.9145   22.9956 H   0  0  0  0  0  0  0  0  0  0  0  0
    7.7482   -7.5364   27.0672 H   0  0  0  0  0  0  0  0  0  0  0  0
    9.4356   -7.2452   26.6031 H   0  0  0  0  0  0  0  0  0  0  0  0
   10.7193   -0.4348   22.4312 H   0  0  0  0  0  0  0  0  0  0  0  0
   10.1695   -5.3466   25.9960 H   0  0  0  0  0  0  0  0  0  0  0  0
    8.1479   -1.8049   21.3777 H   0  0  0  0  0  0  0  0  0  0  0  0
  1  2  1  0  0  0  0
  1  5  2  0  0  0  0
  2  6  2  0  0  0  0
  3  7  2  0  0  0  0
  3 12  1  0  0  0  0
  4  8  1  0  0  0  0
  4 12  2  0  0  0  0
  5 14  1  0  0  0  0
  6 15  1  0  0  0  0
  7 16  1  0  0  0  0
  8 16  2  0  0  0  0
  9 10  2  0  0  0  0
  9 13  1  0  0  0  0
 10 30  1  0  0  0  0
 11 13  2  0  0  0  0
 11 30  1  0  0  0  0
 12 22  1  0  0  0  0
 13 20  1  0  0  0  0
 14 15  2  0  0  0  0
 14 23  1  0  0  0  0
 15 25  1  0  0  0  0
 16 26  1  0  0  0  0
 17 21  1  0  0  0  0
 17 26  1  0  0  0  0
 17 28  2  0  0  0  0
 18 22  1  0  0  0  0
 18 27  1  0  0  0  0
 18 29  2  0  0  0  0
 19 21  1  0  0  0  0
 20 22  1  6  0  0  0
 23 24  2  0  0  0  0
 24 25  1  0  0  0  0
 25 27  1  0  0  0  0
  1 31  1  0  0  0  0
  2 32  1  0  0  0  0
  3 33  1  0  0  0  0
  4 34  1  0  0  0  0
  5 35  1  0  0  0  0
  6 36  1  0  0  0  0
  7 37  1  0  0  0  0
  8 38  1  0  0  0  0
  9 39  1  0  0  0  0
 10 40  1  0  0  0  0
 11 41  1  0  0  0  0
 19 42  1  0  0  0  0
 19 43  1  0  0  0  0
 19 44  1  0  0  0  0
 20 45  1  0  0  0  0
 20 46  1  0  0  0  0
 21 47  1  0  0  0  0
 21 48  1  0  0  0  0
 22 49  1  0  0  0  0
 26 50  1  0  0  0  0
 27 51  1  0  0  0  0
M  END
> <clash_score>
0.6461851318126308

> <docking_score>
-6.266280174255371

> <overlap_score>
0.9262813329696655

$$$$
BENZO_174_1
  -OEChem-08222022393D

 54 57  0     1  0  0  0  0  0999 V2000
    4.0980    2.1130   19.5350 C   0  0  0  0  0  0  0  0  0  0  0  0
    4.2970    1.6690   20.8430 C   0  0  0  0  0  0  0  0  0  0  0  0
   13.6086    2.2802   23.8655 C   0  0  0  0  0  0  0  0  0  0  0  0
   12.2308    2.1801   24.0582 C   0  0  0  0  0  0  0  0  0  0  0  0
    8.3510   -1.5420   24.6110 C   0  0  0  0  0  0  0  0  0  0  0  0
   10.2760   -2.3270   23.4020 C   0  0  0  0  0  0  0  0  0  0  0  0
    4.9400    1.7060   18.5060 C   0  0  0  0  0  0  0  0  0  0  0  0
    5.3360    0.8000   21.1530 C   0  0  0  0  0  0  0  0  0  0  0  0
    8.3310   -2.7170   25.3430 C   0  0  0  0  0  0  0  0  0  0  0  0
   10.2570   -3.5000   24.1350 C   0  0  0  0  0  0  0  0  0  0  0  0
   14.2696    1.3518   23.0612 C   0  0  0  0  0  0  0  0  0  0  0  0
   12.1750    0.2231   22.6425 C   0  0  0  0  0  0  0  0  0  0  0  0
    9.3300   -1.3350   23.6390 C   0  0  0  0  0  0  0  0  0  0  0  0
   11.5140    1.1515   23.4468 C   0  0  0  0  0  0  0  0  0  0  0  0
    5.9810    0.8330   18.8060 C   0  0  0  0  0  0  0  0  0  0  0  0
    6.1600    0.3870   20.1140 C   0  0  0  0  0  0  0  0  0  0  0  0
    9.2850   -3.7090   25.1090 C   0  0  0  0  0  0  0  0  0  0  0  0
   13.5528    0.3232   22.4497 C   0  0  0  0  0  0  0  0  0  0  0  0
    8.3642   -5.2691   26.8512 C   0  0  0  0  0  0  0  0  0  0  0  0
    8.9510    0.1280   21.6880 C   0  0  0  0  0  0  0  0  0  0  0  0
    7.9642   -7.7613   26.6647 C   0  0  0  0  0  0  0  0  0  0  0  0
   10.0220    1.0430   23.6570 C   0  0  0  0  0  0  0  0  0  0  0  0
    8.6981   -6.6505   27.3944 C   0  0  0  0  0  0  0  0  0  0  0  0
    9.4200   -0.0840   22.9530 C   0  0  1  0  0  0  0  0  0  0  0  0
    6.9440    0.2550   18.0100 N   0  0  0  0  0  0  0  0  0  0  0  0
    7.6830   -0.5170   18.7600 N   0  0  0  0  0  0  0  0  0  0  0  0
    7.2210   -0.4620   20.0350 N   0  0  0  0  0  0  0  0  0  0  0  0
    9.2630   -4.8903   25.8409 N   0  0  0  0  0  0  0  0  0  0  0  0
    8.0810   -0.9750   21.0820 N   0  0  0  0  0  0  0  0  0  0  0  0
    7.4190   -4.6136   27.2772 O   0  0  0  0  0  0  0  0  0  0  0  0
    9.1870    1.1500   21.0630 O   0  0  0  0  0  0  0  0  0  0  0  0
   14.3691   -0.8226   21.4585 Cl  0  0  0  0  0  0  0  0  0  0  0  0
    3.2714    2.7876   19.3199 H   0  0  0  0  0  0  0  0  0  0  0  0
    3.6283    2.0091   21.6296 H   0  0  0  0  0  0  0  0  0  0  0  0
   14.1665    3.0812   24.3419 H   0  0  0  0  0  0  0  0  0  0  0  0
   11.7240    2.9078   24.6866 H   0  0  0  0  0  0  0  0  0  0  0  0
    7.5948   -0.7783   24.7966 H   0  0  0  0  0  0  0  0  0  0  0  0
   11.0389   -2.1844   22.6342 H   0  0  0  0  0  0  0  0  0  0  0  0
    4.7824    2.0670   17.4883 H   0  0  0  0  0  0  0  0  0  0  0  0
    5.4937    0.4574   22.1805 H   0  0  0  0  0  0  0  0  0  0  0  0
    7.5642   -2.8624   26.1050 H   0  0  0  0  0  0  0  0  0  0  0  0
   11.0137   -4.2649   23.9418 H   0  0  0  0  0  0  0  0  0  0  0  0
   15.3439    1.4419   22.9201 H   0  0  0  0  0  0  0  0  0  0  0  0
   11.6115   -0.5768   22.1676 H   0  0  0  0  0  0  0  0  0  0  0  0
    6.8795   -7.6299   26.7374 H   0  0  0  0  0  0  0  0  0  0  0  0
    8.2204   -8.7342   27.0952 H   0  0  0  0  0  0  0  0  0  0  0  0
    8.2300   -7.7764   25.6026 H   0  0  0  0  0  0  0  0  0  0  0  0
    9.8388    0.9439   24.7360 H   0  0  0  0  0  0  0  0  0  0  0  0
    9.5396    1.9876   23.3725 H   0  0  0  0  0  0  0  0  0  0  0  0
    9.7793   -6.8069   27.3054 H   0  0  0  0  0  0  0  0  0  0  0  0
    8.4375   -6.6778   28.4588 H   0  0  0  0  0  0  0  0  0  0  0  0
    8.1264    0.3141   23.4937 H   0  0  0  0  0  0  0  0  0  0  0  0
    9.9928   -5.5773   25.6185 H   0  0  0  0  0  0  0  0  0  0  0  0
    8.1479   -1.8049   21.3777 H   0  0  0  0  0  0  0  0  0  0  0  0
  1  2  1  0  0  0  0
  1  7  2  0  0  0  0
  2  8  2  0  0  0  0
  3  4  2  0  0  0  0
  3 11  1  0  0  0  0
  4 14  1  0  0  0  0
  5  9  2  0  0  0  0
  5 13  1  0  0  0  0
  6 10  1  0  0  0  0
  6 13  2  0  0  0  0
  7 15  1  0  0  0  0
  8 16  1  0  0  0  0
  9 17  1  0  0  0  0
 10 17  2  0  0  0  0
 11 18  2  0  0  0  0
 12 14  2  0  0  0  0
 12 18  1  0  0  0  0
 13 24  1  0  0  0  0
 14 22  1  0  0  0  0
 15 16  2  0  0  0  0
 15 25  1  0  0  0  0
 16 27  1  0  0  0  0
 17 28  1  0  0  0  0
 18 32  1  0  0  0  0
 19 23  1  0  0  0  0
 19 28  1  0  0  0  0
 19 30  2  0  0  0  0
 20 24  1  0  0  0  0
 20 29  1  0  0  0  0
 20 31  2  0  0  0  0
 21 23  1  0  0  0  0
 22 24  1  1  0  0  0
 25 26  2  0  0  0  0
 26 27  1  0  0  0  0
 27 29  1  0  0  0  0
  1 33  1  0  0  0  0
  2 34  1  0  0  0  0
  3 35  1  0  0  0  0
  4 36  1  0  0  0  0
  5 37  1  0  0  0  0
  6 38  1  0  0  0  0
  7 39  1  0  0  0  0
  8 40  1  0  0  0  0
  9 41  1  0  0  0  0
 10 42  1  0  0  0  0
 11 43  1  0  0  0  0
 12 44  1  0  0  0  0
 21 45  1  0  0  0  0
 21 46  1  0  0  0  0
 21 47  1  0  0  0  0
 22 48  1  0  0  0  0
 22 49  1  0  0  0  0
 23 50  1  0  0  0  0
 23 51  1  0  0  0  0
 24 52  1  0  0  0  0
 28 53  1  0  0  0  0
 29 54  1  0  0  0  0
M  END
> <clash_score>
0.7805938894154716

> <docking_score>
-6.902933120727539

> <overlap_score>
1.005081295967102

$$$$
BENZO_174_2
  -OEChem-08222022393D

 54 57  0     1  0  0  0  0  0999 V2000
    4.0980    2.1130   19.5350 C   0  0  0  0  0  0  0  0  0  0  0  0
    4.2970    1.6690   20.8430 C   0  0  0  0  0  0  0  0  0  0  0  0
   13.7731    0.6181   24.0892 C   0  0  0  0  0  0  0  0  0  0  0  0
   12.5319    0.9161   23.5268 C   0  0  0  0  0  0  0  0  0  0  0  0
    8.3510   -1.5420   24.6110 C   0  0  0  0  0  0  0  0  0  0  0  0
   10.2760   -2.3270   23.4020 C   0  0  0  0  0  0  0  0  0  0  0  0
    4.9400    1.7060   18.5060 C   0  0  0  0  0  0  0  0  0  0  0  0
    5.3360    0.8000   21.1530 C   0  0  0  0  0  0  0  0  0  0  0  0
    8.3310   -2.7170   25.3430 C   0  0  0  0  0  0  0  0  0  0  0  0
   10.2570   -3.5000   24.1350 C   0  0  0  0  0  0  0  0  0  0  0  0
   13.8481    0.1225   25.3909 C   0  0  0  0  0  0  0  0  0  0  0  0
   11.4407    0.2233   25.5680 C   0  0  0  0  0  0  0  0  0  0  0  0
    9.3300   -1.3350   23.6390 C   0  0  0  0  0  0  0  0  0  0  0  0
   11.3657    0.7188   24.2662 C   0  0  0  0  0  0  0  0  0  0  0  0
    5.9810    0.8330   18.8060 C   0  0  0  0  0  0  0  0  0  0  0  0
    6.1600    0.3870   20.1140 C   0  0  0  0  0  0  0  0  0  0  0  0
    9.2850   -3.7090   25.1090 C   0  0  0  0  0  0  0  0  0  0  0  0
   12.6819   -0.0748   26.1303 C   0  0  0  0  0  0  0  0  0  0  0  0
    8.3642   -5.2691   26.8512 C   0  0  0  0  0  0  0  0  0  0  0  0
    8.9510    0.1280   21.6880 C   0  0  0  0  0  0  0  0  0  0  0  0
    7.9642   -7.7613   26.6647 C   0  0  0  0  0  0  0  0  0  0  0  0
   10.0220    1.0430   23.6570 C   0  0  0  0  0  0  0  0  0  0  0  0
    8.6981   -6.6505   27.3944 C   0  0  0  0  0  0  0  0  0  0  0  0
    9.4200   -0.0840   22.9530 C   0  0  2  0  0  0  0  0  0  0  0  0
    6.9440    0.2550   18.0100 N   0  0  0  0  0  0  0  0  0  0  0  0
    7.6830   -0.5170   18.7600 N   0  0  0  0  0  0  0  0  0  0  0  0
    7.2210   -0.4620   20.0350 N   0  0  0  0  0  0  0  0  0  0  0  0
    9.2630   -4.8903   25.8409 N   0  0  0  0  0  0  0  0  0  0  0  0
    8.0810   -0.9750   21.0820 N   0  0  0  0  0  0  0  0  0  0  0  0
    7.4190   -4.6136   27.2772 O   0  0  0  0  0  0  0  0  0  0  0  0
    9.1870    1.1500   21.0630 O   0  0  0  0  0  0  0  0  0  0  0  0
   12.7752   -0.6851   27.7367 Cl  0  0  0  0  0  0  0  0  0  0  0  0
    3.2714    2.7876   19.3199 H   0  0  0  0  0  0  0  0  0  0  0  0
    3.6283    2.0091   21.6296 H   0  0  0  0  0  0  0  0  0  0  0  0
   14.6810    0.7720   23.5131 H   0  0  0  0  0  0  0  0  0  0  0  0
   12.4829    1.3020   22.5119 H   0  0  0  0  0  0  0  0  0  0  0  0
    7.5948   -0.7783   24.7966 H   0  0  0  0  0  0  0  0  0  0  0  0
   11.0389   -2.1844   22.6342 H   0  0  0  0  0  0  0  0  0  0  0  0
    4.7824    2.0670   17.4883 H   0  0  0  0  0  0  0  0  0  0  0  0
    5.4937    0.4574   22.1805 H   0  0  0  0  0  0  0  0  0  0  0  0
    7.5642   -2.8624   26.1050 H   0  0  0  0  0  0  0  0  0  0  0  0
   11.0137   -4.2649   23.9418 H   0  0  0  0  0  0  0  0  0  0  0  0
   14.8224   -0.1052   25.8164 H   0  0  0  0  0  0  0  0  0  0  0  0
   10.5286    0.0707   26.1402 H   0  0  0  0  0  0  0  0  0  0  0  0
    6.8795   -7.6299   26.7374 H   0  0  0  0  0  0  0  0  0  0  0  0
    8.2204   -8.7342   27.0952 H   0  0  0  0  0  0  0  0  0  0  0  0
    8.2300   -7.7764   25.6026 H   0  0  0  0  0  0  0  0  0  0  0  0
    9.3544    1.3715   24.4657 H   0  0  0  0  0  0  0  0  0  0  0  0
   10.1173    1.9145   22.9956 H   0  0  0  0  0  0  0  0  0  0  0  0
    9.7793   -6.8069   27.3054 H   0  0  0  0  0  0  0  0  0  0  0  0
    8.4375   -6.6778   28.4588 H   0  0  0  0  0  0  0  0  0  0  0  0
   10.7193   -0.4348   22.4312 H   0  0  0  0  0  0  0  0  0  0  0  0
    9.9928   -5.5773   25.6185 H   0  0  0  0  0  0  0  0  0  0  0  0
    8.1479   -1.8049   21.3777 H   0  0  0  0  0  0  0  0  0  0  0  0
  1  2  1  0  0  0  0
  1  7  2  0  0  0  0
  2  8  2  0  0  0  0
  3  4  2  0  0  0  0
  3 11  1  0  0  0  0
  4 14  1  0  0  0  0
  5  9  2  0  0  0  0
  5 13  1  0  0  0  0
  6 10  1  0  0  0  0
  6 13  2  0  0  0  0
  7 15  1  0  0  0  0
  8 16  1  0  0  0  0
  9 17  1  0  0  0  0
 10 17  2  0  0  0  0
 11 18  2  0  0  0  0
 12 14  2  0  0  0  0
 12 18  1  0  0  0  0
 13 24  1  0  0  0  0
 14 22  1  0  0  0  0
 15 16  2  0  0  0  0
 15 25  1  0  0  0  0
 16 27  1  0  0  0  0
 17 28  1  0  0  0  0
 18 32  1  0  0  0  0
 19 23  1  0  0  0  0
 19 28  1  0  0  0  0
 19 30  2  0  0  0  0
 20 24  1  0  0  0  0
 20 29  1  0  0  0  0
 20 31  2  0  0  0  0
 21 23  1  0  0  0  0
 22 24  1  6  0  0  0
 25 26  2  0  0  0  0
 26 27  1  0  0  0  0
 27 29  1  0  0  0  0
  1 33  1  0  0  0  0
  2 34  1  0  0  0  0
  3 35  1  0  0  0  0
  4 36  1  0  0  0  0
  5 37  1  0  0  0  0
  6 38  1  0  0  0  0
  7 39  1  0  0  0  0
  8 40  1  0  0  0  0
  9 41  1  0  0  0  0
 10 42  1  0  0  0  0
 11 43  1  0  0  0  0
 12 44  1  0  0  0  0
 21 45  1  0  0  0  0
 21 46  1  0  0  0  0
 21 47  1  0  0  0  0
 22 48  1  0  0  0  0
 22 49  1  0  0  0  0
 23 50  1  0  0  0  0
 23 51  1  0  0  0  0
 24 52  1  0  0  0  0
 28 53  1  0  0  0  0
 29 54  1  0  0  0  0
M  END
> <clash_score>
2.351782449263192

> <docking_score>
-5.458813667297363

> <overlap_score>
0.9422127604484558

$$$$
BENZO_175_2
  -OEChem-08222022393D

 54 57  0     1  0  0  0  0  0999 V2000
    4.0980    2.1130   19.5350 C   0  0  0  0  0  0  0  0  0  0  0  0
    4.2970    1.6690   20.8430 C   0  0  0  0  0  0  0  0  0  0  0  0
    8.3510   -1.5420   24.6110 C   0  0  0  0  0  0  0  0  0  0  0  0
   10.2760   -2.3270   23.4020 C   0  0  0  0  0  0  0  0  0  0  0  0
    4.9400    1.7060   18.5060 C   0  0  0  0  0  0  0  0  0  0  0  0
    5.3360    0.8000   21.1530 C   0  0  0  0  0  0  0  0  0  0  0  0
    8.3310   -2.7170   25.3430 C   0  0  0  0  0  0  0  0  0  0  0  0
   10.2570   -3.5000   24.1350 C   0  0  0  0  0  0  0  0  0  0  0  0
   12.4581    1.4918   22.7981 C   0  0  0  0  0  0  0  0  0  0  0  0
   10.9018    2.8185   21.9903 C   0  0  0  0  0  0  0  0  0  0  0  0
    9.3300   -1.3350   23.6390 C   0  0  0  0  0  0  0  0  0  0  0  0
   11.0769    1.7595   22.8472 C   0  0  0  0  0  0  0  0  0  0  0  0
    5.9810    0.8330   18.8060 C   0  0  0  0  0  0  0  0  0  0  0  0
    6.1600    0.3870   20.1140 C   0  0  0  0  0  0  0  0  0  0  0  0
    9.2850   -3.7090   25.1090 C   0  0  0  0  0  0  0  0  0  0  0  0
    8.3642   -5.2691   26.8512 C   0  0  0  0  0  0  0  0  0  0  0  0
    8.9510    0.1280   21.6880 C   0  0  0  0  0  0  0  0  0  0  0  0
    7.7677   -7.0815   28.5141 C   0  0  0  0  0  0  0  0  0  0  0  0
   12.4642    4.1525   20.5557 C   0  0  0  0  0  0  0  0  0  0  0  0
   10.0220    1.0430   23.6570 C   0  0  0  0  0  0  0  0  0  0  0  0
    8.6981   -6.6505   27.3944 C   0  0  0  0  0  0  0  0  0  0  0  0
    9.4200   -0.0840   22.9530 C   0  0  2  0  0  0  0  0  0  0  0  0
   13.1138    2.3143   21.9750 N   0  0  0  0  0  0  0  0  0  0  0  0
    6.9440    0.2550   18.0100 N   0  0  0  0  0  0  0  0  0  0  0  0
    7.6830   -0.5170   18.7600 N   0  0  0  0  0  0  0  0  0  0  0  0
   12.1404    3.1092   21.4989 N   0  0  0  0  0  0  0  0  0  0  0  0
    7.2210   -0.4620   20.0350 N   0  0  0  0  0  0  0  0  0  0  0  0
    9.2630   -4.8903   25.8409 N   0  0  0  0  0  0  0  0  0  0  0  0
    8.0810   -0.9750   21.0820 N   0  0  0  0  0  0  0  0  0  0  0  0
    7.4190   -4.6136   27.2772 O   0  0  0  0  0  0  0  0  0  0  0  0
    9.1870    1.1500   21.0630 O   0  0  0  0  0  0  0  0  0  0  0  0
    3.2714    2.7876   19.3199 H   0  0  0  0  0  0  0  0  0  0  0  0
    3.6283    2.0091   21.6296 H   0  0  0  0  0  0  0  0  0  0  0  0
    7.5948   -0.7783   24.7966 H   0  0  0  0  0  0  0  0  0  0  0  0
   11.0389   -2.1844   22.6342 H   0  0  0  0  0  0  0  0  0  0  0  0
    4.7824    2.0670   17.4883 H   0  0  0  0  0  0  0  0  0  0  0  0
    5.4937    0.4574   22.1805 H   0  0  0  0  0  0  0  0  0  0  0  0
    7.5642   -2.8624   26.1050 H   0  0  0  0  0  0  0  0  0  0  0  0
   11.0137   -4.2649   23.9418 H   0  0  0  0  0  0  0  0  0  0  0  0
   13.0162    0.7317   23.3262 H   0  0  0  0  0  0  0  0  0  0  0  0
   10.0229    3.3754   21.6946 H   0  0  0  0  0  0  0  0  0  0  0  0
    7.8080   -6.3775   29.3518 H   0  0  0  0  0  0  0  0  0  0  0  0
    8.0511   -8.0712   28.8852 H   0  0  0  0  0  0  0  0  0  0  0  0
    6.7306   -7.1306   28.1664 H   0  0  0  0  0  0  0  0  0  0  0  0
   12.6964    5.0586   21.1216 H   0  0  0  0  0  0  0  0  0  0  0  0
   13.3249    3.8459   19.9549 H   0  0  0  0  0  0  0  0  0  0  0  0
   11.6087    4.3213   19.8958 H   0  0  0  0  0  0  0  0  0  0  0  0
   10.4908    0.6894   24.5858 H   0  0  0  0  0  0  0  0  0  0  0  0
    9.2554    1.7595   23.9807 H   0  0  0  0  0  0  0  0  0  0  0  0
    8.6376   -7.3716   26.5712 H   0  0  0  0  0  0  0  0  0  0  0  0
    9.7309   -6.6396   27.7612 H   0  0  0  0  0  0  0  0  0  0  0  0
   10.7193   -0.4348   22.4312 H   0  0  0  0  0  0  0  0  0  0  0  0
    9.9928   -5.5773   25.6185 H   0  0  0  0  0  0  0  0  0  0  0  0
    8.1479   -1.8049   21.3777 H   0  0  0  0  0  0  0  0  0  0  0  0
  1  2  1  0  0  0  0
  1  5  2  0  0  0  0
  2  6  2  0  0  0  0
  3  7  2  0  0  0  0
  3 11  1  0  0  0  0
  4  8  1  0  0  0  0
  4 11  2  0  0  0  0
  5 13  1  0  0  0  0
  6 14  1  0  0  0  0
  7 15  1  0  0  0  0
  8 15  2  0  0  0  0
  9 12  1  0  0  0  0
  9 23  2  0  0  0  0
 10 12  2  0  0  0  0
 10 26  1  0  0  0  0
 11 22  1  0  0  0  0
 12 20  1  0  0  0  0
 13 14  2  0  0  0  0
 13 24  1  0  0  0  0
 14 27  1  0  0  0  0
 15 28  1  0  0  0  0
 16 21  1  0  0  0  0
 16 28  1  0  0  0  0
 16 30  2  0  0  0  0
 17 22  1  0  0  0  0
 17 29  1  0  0  0  0
 17 31  2  0  0  0  0
 18 21  1  0  0  0  0
 19 26  1  0  0  0  0
 20 22  1  6  0  0  0
 23 26  1  0  0  0  0
 24 25  2  0  0  0  0
 25 27  1  0  0  0  0
 27 29  1  0  0  0  0
  1 32  1  0  0  0  0
  2 33  1  0  0  0  0
  3 34  1  0  0  0  0
  4 35  1  0  0  0  0
  5 36  1  0  0  0  0
  6 37  1  0  0  0  0
  7 38  1  0  0  0  0
  8 39  1  0  0  0  0
  9 40  1  0  0  0  0
 10 41  1  0  0  0  0
 18 42  1  0  0  0  0
 18 43  1  0  0  0  0
 18 44  1  0  0  0  0
 19 45  1  0  0  0  0
 19 46  1  0  0  0  0
 19 47  1  0  0  0  0
 20 48  1  0  0  0  0
 20 49  1  0  0  0  0
 21 50  1  0  0  0  0
 21 51  1  0  0  0  0
 22 52  1  0  0  0  0
 28 53  1  0  0  0  0
 29 54  1  0  0  0  0
M  END
> <clash_score>
0

> <docking_score>
-6.728301048278809

> <overlap_score>
0.9720680713653564

$$$$
BENZO_175_1
  -OEChem-08222022393D

 54 57  0     1  0  0  0  0  0999 V2000
    4.0980    2.1130   19.5350 C   0  0  0  0  0  0  0  0  0  0  0  0
    4.2970    1.6690   20.8430 C   0  0  0  0  0  0  0  0  0  0  0  0
    8.3510   -1.5420   24.6110 C   0  0  0  0  0  0  0  0  0  0  0  0
   10.2760   -2.3270   23.4020 C   0  0  0  0  0  0  0  0  0  0  0  0
    4.9400    1.7060   18.5060 C   0  0  0  0  0  0  0  0  0  0  0  0
    5.3360    0.8000   21.1530 C   0  0  0  0  0  0  0  0  0  0  0  0
    8.3310   -2.7170   25.3430 C   0  0  0  0  0  0  0  0  0  0  0  0
   10.2570   -3.5000   24.1350 C   0  0  0  0  0  0  0  0  0  0  0  0
   12.3042    2.3166   23.4491 C   0  0  0  0  0  0  0  0  0  0  0  0
   12.4050    0.1328   23.2128 C   0  0  0  0  0  0  0  0  0  0  0  0
    9.3300   -1.3350   23.6390 C   0  0  0  0  0  0  0  0  0  0  0  0
   11.5140    1.1515   23.4468 C   0  0  0  0  0  0  0  0  0  0  0  0
    5.9810    0.8330   18.8060 C   0  0  0  0  0  0  0  0  0  0  0  0
    6.1600    0.3870   20.1140 C   0  0  0  0  0  0  0  0  0  0  0  0
    9.2850   -3.7090   25.1090 C   0  0  0  0  0  0  0  0  0  0  0  0
    8.3642   -5.2691   26.8512 C   0  0  0  0  0  0  0  0  0  0  0  0
    8.9510    0.1280   21.6880 C   0  0  0  0  0  0  0  0  0  0  0  0
    7.9642   -7.7613   26.6647 C   0  0  0  0  0  0  0  0  0  0  0  0
   14.8822    0.0595   22.8428 C   0  0  0  0  0  0  0  0  0  0  0  0
   10.0220    1.0430   23.6570 C   0  0  0  0  0  0  0  0  0  0  0  0
    8.6981   -6.6505   27.3944 C   0  0  0  0  0  0  0  0  0  0  0  0
    9.4200   -0.0840   22.9530 C   0  0  1  0  0  0  0  0  0  0  0  0
   13.5977    2.0627   23.2339 N   0  0  0  0  0  0  0  0  0  0  0  0
    6.9440    0.2550   18.0100 N   0  0  0  0  0  0  0  0  0  0  0  0
    7.6830   -0.5170   18.7600 N   0  0  0  0  0  0  0  0  0  0  0  0
   13.6272    0.7264   23.0942 N   0  0  0  0  0  0  0  0  0  0  0  0
    7.2210   -0.4620   20.0350 N   0  0  0  0  0  0  0  0  0  0  0  0
    9.2630   -4.8903   25.8409 N   0  0  0  0  0  0  0  0  0  0  0  0
    8.0810   -0.9750   21.0820 N   0  0  0  0  0  0  0  0  0  0  0  0
    7.4190   -4.6136   27.2772 O   0  0  0  0  0  0  0  0  0  0  0  0
    9.1870    1.1500   21.0630 O   0  0  0  0  0  0  0  0  0  0  0  0
    3.2714    2.7876   19.3199 H   0  0  0  0  0  0  0  0  0  0  0  0
    3.6283    2.0091   21.6296 H   0  0  0  0  0  0  0  0  0  0  0  0
    7.5948   -0.7783   24.7966 H   0  0  0  0  0  0  0  0  0  0  0  0
   11.0389   -2.1844   22.6342 H   0  0  0  0  0  0  0  0  0  0  0  0
    4.7824    2.0670   17.4883 H   0  0  0  0  0  0  0  0  0  0  0  0
    5.4937    0.4574   22.1805 H   0  0  0  0  0  0  0  0  0  0  0  0
    7.5642   -2.8624   26.1050 H   0  0  0  0  0  0  0  0  0  0  0  0
   11.0137   -4.2649   23.9418 H   0  0  0  0  0  0  0  0  0  0  0  0
   11.9938    3.3409   23.5993 H   0  0  0  0  0  0  0  0  0  0  0  0
   12.2768   -0.9376   23.1242 H   0  0  0  0  0  0  0  0  0  0  0  0
    6.8795   -7.6299   26.7374 H   0  0  0  0  0  0  0  0  0  0  0  0
    8.2204   -8.7342   27.0952 H   0  0  0  0  0  0  0  0  0  0  0  0
    8.2300   -7.7764   25.6026 H   0  0  0  0  0  0  0  0  0  0  0  0
   15.0256    0.0076   21.7603 H   0  0  0  0  0  0  0  0  0  0  0  0
   15.6943    0.6239   23.3094 H   0  0  0  0  0  0  0  0  0  0  0  0
   14.8503   -0.9450   23.2739 H   0  0  0  0  0  0  0  0  0  0  0  0
    9.8388    0.9439   24.7360 H   0  0  0  0  0  0  0  0  0  0  0  0
    9.5396    1.9876   23.3725 H   0  0  0  0  0  0  0  0  0  0  0  0
    9.7793   -6.8069   27.3054 H   0  0  0  0  0  0  0  0  0  0  0  0
    8.4375   -6.6778   28.4588 H   0  0  0  0  0  0  0  0  0  0  0  0
    8.1264    0.3141   23.4937 H   0  0  0  0  0  0  0  0  0  0  0  0
    9.9928   -5.5773   25.6185 H   0  0  0  0  0  0  0  0  0  0  0  0
    8.1479   -1.8049   21.3777 H   0  0  0  0  0  0  0  0  0  0  0  0
  1  2  1  0  0  0  0
  1  5  2  0  0  0  0
  2  6  2  0  0  0  0
  3  7  2  0  0  0  0
  3 11  1  0  0  0  0
  4  8  1  0  0  0  0
  4 11  2  0  0  0  0
  5 13  1  0  0  0  0
  6 14  1  0  0  0  0
  7 15  1  0  0  0  0
  8 15  2  0  0  0  0
  9 12  1  0  0  0  0
  9 23  2  0  0  0  0
 10 12  2  0  0  0  0
 10 26  1  0  0  0  0
 11 22  1  0  0  0  0
 12 20  1  0  0  0  0
 13 14  2  0  0  0  0
 13 24  1  0  0  0  0
 14 27  1  0  0  0  0
 15 28  1  0  0  0  0
 16 21  1  0  0  0  0
 16 28  1  0  0  0  0
 16 30  2  0  0  0  0
 17 22  1  0  0  0  0
 17 29  1  0  0  0  0
 17 31  2  0  0  0  0
 18 21  1  0  0  0  0
 19 26  1  0  0  0  0
 20 22  1  1  0  0  0
 23 26  1  0  0  0  0
 24 25  2  0  0  0  0
 25 27  1  0  0  0  0
 27 29  1  0  0  0  0
  1 32  1  0  0  0  0
  2 33  1  0  0  0  0
  3 34  1  0  0  0  0
  4 35  1  0  0  0  0
  5 36  1  0  0  0  0
  6 37  1  0  0  0  0
  7 38  1  0  0  0  0
  8 39  1  0  0  0  0
  9 40  1  0  0  0  0
 10 41  1  0  0  0  0
 18 42  1  0  0  0  0
 18 43  1  0  0  0  0
 18 44  1  0  0  0  0
 19 45  1  0  0  0  0
 19 46  1  0  0  0  0
 19 47  1  0  0  0  0
 20 48  1  0  0  0  0
 20 49  1  0  0  0  0
 21 50  1  0  0  0  0
 21 51  1  0  0  0  0
 22 52  1  0  0  0  0
 28 53  1  0  0  0  0
 29 54  1  0  0  0  0
M  END
> <clash_score>
0.7805938894154716

> <docking_score>
-7.94310998916626

> <overlap_score>
1.0216138362884521

$$$$
BENZO_177_1
  -OEChem-08222022393D

 59 63  0     1  0  0  0  0  0999 V2000
   13.8495    0.0928   25.3716 C   0  0  0  0  0  0  0  0  0  0  0  0
   12.6852   -0.1006   26.1150 C   0  0  0  0  0  0  0  0  0  0  0  0
   13.7723    0.5944   24.0724 C   0  0  0  0  0  0  0  0  0  0  0  0
    4.0980    2.1130   19.5350 C   0  0  0  0  0  0  0  0  0  0  0  0
    4.2970    1.6690   20.8430 C   0  0  0  0  0  0  0  0  0  0  0  0
   11.4436    0.2076   25.5591 C   0  0  0  0  0  0  0  0  0  0  0  0
   12.5307    0.9026   23.5164 C   0  0  0  0  0  0  0  0  0  0  0  0
    8.3510   -1.5420   24.6110 C   0  0  0  0  0  0  0  0  0  0  0  0
   10.2760   -2.3270   23.4020 C   0  0  0  0  0  0  0  0  0  0  0  0
    4.9400    1.7060   18.5060 C   0  0  0  0  0  0  0  0  0  0  0  0
    5.3360    0.8000   21.1530 C   0  0  0  0  0  0  0  0  0  0  0  0
    8.3310   -2.7170   25.3430 C   0  0  0  0  0  0  0  0  0  0  0  0
   10.2570   -3.5000   24.1350 C   0  0  0  0  0  0  0  0  0  0  0  0
   11.3663    0.7092   24.2598 C   0  0  0  0  0  0  0  0  0  0  0  0
    9.3300   -1.3350   23.6390 C   0  0  0  0  0  0  0  0  0  0  0  0
    5.9810    0.8330   18.8060 C   0  0  0  0  0  0  0  0  0  0  0  0
    6.1600    0.3870   20.1140 C   0  0  0  0  0  0  0  0  0  0  0  0
    9.2850   -3.7090   25.1090 C   0  0  0  0  0  0  0  0  0  0  0  0
    8.9510    0.1280   21.6880 C   0  0  0  0  0  0  0  0  0  0  0  0
    7.3211   -6.8875   26.5227 C   0  0  0  0  0  0  0  0  0  0  0  0
    7.3523   -5.5278   27.2244 C   0  0  0  0  0  0  0  0  0  0  0  0
    7.9422   -6.8107   25.1261 C   0  0  0  0  0  0  0  0  0  0  0  0
    8.7641   -4.9418   27.2163 C   0  0  0  0  0  0  0  0  0  0  0  0
    9.3411   -6.1879   25.1670 C   0  0  0  0  0  0  0  0  0  0  0  0
   10.0220    1.0430   23.6570 C   0  0  0  0  0  0  0  0  0  0  0  0
    9.4200   -0.0840   22.9530 C   0  0  1  0  0  0  0  0  0  0  0  0
    6.9440    0.2550   18.0100 N   0  0  0  0  0  0  0  0  0  0  0  0
    7.6830   -0.5170   18.7600 N   0  0  0  0  0  0  0  0  0  0  0  0
    7.2210   -0.4620   20.0350 N   0  0  0  0  0  0  0  0  0  0  0  0
    9.2641   -4.8861   25.8398 N   0  0  0  0  0  0  0  0  0  0  0  0
    8.0810   -0.9750   21.0820 N   0  0  0  0  0  0  0  0  0  0  0  0
    9.1870    1.1500   21.0630 O   0  0  0  0  0  0  0  0  0  0  0  0
   14.8163   -0.1460   25.8052 H   0  0  0  0  0  0  0  0  0  0  0  0
   12.7453   -0.4901   27.1271 H   0  0  0  0  0  0  0  0  0  0  0  0
   14.6787    0.7461   23.4937 H   0  0  0  0  0  0  0  0  0  0  0  0
    3.2714    2.7876   19.3199 H   0  0  0  0  0  0  0  0  0  0  0  0
    3.6283    2.0091   21.6296 H   0  0  0  0  0  0  0  0  0  0  0  0
   10.5417    0.0536   26.1456 H   0  0  0  0  0  0  0  0  0  0  0  0
   12.4801    1.2928   22.5034 H   0  0  0  0  0  0  0  0  0  0  0  0
    7.5957   -0.7779   24.7973 H   0  0  0  0  0  0  0  0  0  0  0  0
   11.0384   -2.1852   22.6338 H   0  0  0  0  0  0  0  0  0  0  0  0
    4.7824    2.0670   17.4883 H   0  0  0  0  0  0  0  0  0  0  0  0
    5.4937    0.4574   22.1805 H   0  0  0  0  0  0  0  0  0  0  0  0
    7.5634   -2.8637   26.1037 H   0  0  0  0  0  0  0  0  0  0  0  0
   11.0139   -4.2645   23.9419 H   0  0  0  0  0  0  0  0  0  0  0  0
    7.8644   -7.6283   27.1289 H   0  0  0  0  0  0  0  0  0  0  0  0
    6.2830   -7.2423   26.4478 H   0  0  0  0  0  0  0  0  0  0  0  0
    6.6663   -4.8405   26.7221 H   0  0  0  0  0  0  0  0  0  0  0  0
    7.0062   -5.6400   28.2540 H   0  0  0  0  0  0  0  0  0  0  0  0
    8.0018   -7.8160   24.6962 H   0  0  0  0  0  0  0  0  0  0  0  0
    7.2963   -6.2182   24.4678 H   0  0  0  0  0  0  0  0  0  0  0  0
    8.7322   -3.9404   27.6532 H   0  0  0  0  0  0  0  0  0  0  0  0
    9.4260   -5.5610   27.8283 H   0  0  0  0  0  0  0  0  0  0  0  0
   10.0249   -6.8474   25.7028 H   0  0  0  0  0  0  0  0  0  0  0  0
    9.7015   -6.0700   24.1446 H   0  0  0  0  0  0  0  0  0  0  0  0
    9.3646    1.3888   24.4669 H   0  0  0  0  0  0  0  0  0  0  0  0
   10.1229    1.9057   22.9851 H   0  0  0  0  0  0  0  0  0  0  0  0
   10.7230   -0.4323   22.4284 H   0  0  0  0  0  0  0  0  0  0  0  0
    8.1256   -1.8039   21.3539 H   0  0  0  0  0  0  0  0  0  0  0  0
  1  2  1  0  0  0  0
  1  3  2  0  0  0  0
  2  6  2  0  0  0  0
  3  7  1  0  0  0  0
  4  5  1  0  0  0  0
  4 10  2  0  0  0  0
  5 11  2  0  0  0  0
  6 14  1  0  0  0  0
  7 14  2  0  0  0  0
  8 12  2  0  0  0  0
  8 15  1  0  0  0  0
  9 13  1  0  0  0  0
  9 15  2  0  0  0  0
 10 16  1  0  0  0  0
 11 17  1  0  0  0  0
 12 18  1  0  0  0  0
 13 18  2  0  0  0  0
 14 25  1  0  0  0  0
 15 26  1  0  0  0  0
 16 17  2  0  0  0  0
 16 27  1  0  0  0  0
 17 29  1  0  0  0  0
 18 30  1  0  0  0  0
 19 26  1  1  0  0  0
 19 31  1  0  0  0  0
 19 32  2  0  0  0  0
 20 21  1  0  0  0  0
 20 22  1  0  0  0  0
 21 23  1  0  0  0  0
 22 24  1  0  0  0  0
 23 30  1  0  0  0  0
 24 30  1  0  0  0  0
 25 26  1  0  0  0  0
 27 28  2  0  0  0  0
 28 29  1  0  0  0  0
 29 31  1  0  0  0  0
  1 33  1  0  0  0  0
  2 34  1  0  0  0  0
  3 35  1  0  0  0  0
  4 36  1  0  0  0  0
  5 37  1  0  0  0  0
  6 38  1  0  0  0  0
  7 39  1  0  0  0  0
  8 40  1  0  0  0  0
  9 41  1  0  0  0  0
 10 42  1  0  0  0  0
 11 43  1  0  0  0  0
 12 44  1  0  0  0  0
 13 45  1  0  0  0  0
 20 46  1  0  0  0  0
 20 47  1  0  0  0  0
 21 48  1  0  0  0  0
 21 49  1  0  0  0  0
 22 50  1  0  0  0  0
 22 51  1  0  0  0  0
 23 52  1  0  0  0  0
 23 53  1  0  0  0  0
 24 54  1  0  0  0  0
 24 55  1  0  0  0  0
 25 56  1  0  0  0  0
 25 57  1  0  0  0  0
 26 58  1  0  0  0  0
 31 59  1  0  0  0  0
M  END
> <clash_score>
0

> <docking_score>
-7.2876200675964355

> <overlap_score>
0.9497318267822266

$$$$
BENZO_176_1
  -OEChem-08222022393D

 56 60  0     1  0  0  0  0  0999 V2000
    4.0980    2.1130   19.5350 C   0  0  0  0  0  0  0  0  0  0  0  0
    4.2970    1.6690   20.8430 C   0  0  0  0  0  0  0  0  0  0  0  0
    8.3510   -1.5420   24.6110 C   0  0  0  0  0  0  0  0  0  0  0  0
   10.2760   -2.3270   23.4020 C   0  0  0  0  0  0  0  0  0  0  0  0
    4.9400    1.7060   18.5060 C   0  0  0  0  0  0  0  0  0  0  0  0
    5.3360    0.8000   21.1530 C   0  0  0  0  0  0  0  0  0  0  0  0
    8.3310   -2.7170   25.3430 C   0  0  0  0  0  0  0  0  0  0  0  0
   10.2570   -3.5000   24.1350 C   0  0  0  0  0  0  0  0  0  0  0  0
   11.6703    0.8403   25.6456 C   0  0  0  0  0  0  0  0  0  0  0  0
   12.9666    0.4699   25.9283 C   0  0  0  0  0  0  0  0  0  0  0  0
   12.4421    0.2438   23.5359 C   0  0  0  0  0  0  0  0  0  0  0  0
    9.3300   -1.3350   23.6390 C   0  0  0  0  0  0  0  0  0  0  0  0
   11.3663    0.7092   24.2598 C   0  0  0  0  0  0  0  0  0  0  0  0
    5.9810    0.8330   18.8060 C   0  0  0  0  0  0  0  0  0  0  0  0
    6.1600    0.3870   20.1140 C   0  0  0  0  0  0  0  0  0  0  0  0
    9.2850   -3.7090   25.1090 C   0  0  0  0  0  0  0  0  0  0  0  0
    8.9510    0.1280   21.6880 C   0  0  0  0  0  0  0  0  0  0  0  0
    8.7571   -5.6467   28.5622 C   0  0  0  0  0  0  0  0  0  0  0  0
   10.0822   -5.0066   28.1420 C   0  0  0  0  0  0  0  0  0  0  0  0
    7.6235   -5.2642   27.6079 C   0  0  0  0  0  0  0  0  0  0  0  0
   10.3922   -5.3064   26.6756 C   0  0  0  0  0  0  0  0  0  0  0  0
    7.9947   -5.5535   26.1502 C   0  0  0  0  0  0  0  0  0  0  0  0
   10.0220    1.0430   23.6570 C   0  0  0  0  0  0  0  0  0  0  0  0
    9.4200   -0.0840   22.9530 C   0  0  1  0  0  0  0  0  0  0  0  0
    6.9440    0.2550   18.0100 N   0  0  0  0  0  0  0  0  0  0  0  0
    7.6830   -0.5170   18.7600 N   0  0  0  0  0  0  0  0  0  0  0  0
    7.2210   -0.4620   20.0350 N   0  0  0  0  0  0  0  0  0  0  0  0
    9.2641   -4.8861   25.8398 N   0  0  0  0  0  0  0  0  0  0  0  0
    8.0810   -0.9750   21.0820 N   0  0  0  0  0  0  0  0  0  0  0  0
    9.1870    1.1500   21.0630 O   0  0  0  0  0  0  0  0  0  0  0  0
   13.8113   -0.0334   24.5263 S   0  0  0  0  0  0  0  0  0  0  0  0
    3.2714    2.7876   19.3199 H   0  0  0  0  0  0  0  0  0  0  0  0
    3.6283    2.0091   21.6296 H   0  0  0  0  0  0  0  0  0  0  0  0
    7.5957   -0.7779   24.7973 H   0  0  0  0  0  0  0  0  0  0  0  0
   11.0384   -2.1852   22.6338 H   0  0  0  0  0  0  0  0  0  0  0  0
    4.7824    2.0670   17.4883 H   0  0  0  0  0  0  0  0  0  0  0  0
    5.4937    0.4574   22.1805 H   0  0  0  0  0  0  0  0  0  0  0  0
    7.5634   -2.8637   26.1037 H   0  0  0  0  0  0  0  0  0  0  0  0
   11.0139   -4.2645   23.9419 H   0  0  0  0  0  0  0  0  0  0  0  0
   10.9765    1.1887   26.4003 H   0  0  0  0  0  0  0  0  0  0  0  0
   13.4583    0.4713   26.8908 H   0  0  0  0  0  0  0  0  0  0  0  0
   12.4941    0.0529   22.4729 H   0  0  0  0  0  0  0  0  0  0  0  0
    8.8672   -6.7417   28.5857 H   0  0  0  0  0  0  0  0  0  0  0  0
    8.5022   -5.3339   29.5851 H   0  0  0  0  0  0  0  0  0  0  0  0
   10.0306   -3.9249   28.2929 H   0  0  0  0  0  0  0  0  0  0  0  0
   10.8879   -5.3863   28.7737 H   0  0  0  0  0  0  0  0  0  0  0  0
    6.7187   -5.8212   27.8726 H   0  0  0  0  0  0  0  0  0  0  0  0
    7.3894   -4.1994   27.7222 H   0  0  0  0  0  0  0  0  0  0  0  0
   11.3009   -4.7698   26.3909 H   0  0  0  0  0  0  0  0  0  0  0  0
   10.5729   -6.3773   26.5464 H   0  0  0  0  0  0  0  0  0  0  0  0
    8.0895   -6.6294   25.9985 H   0  0  0  0  0  0  0  0  0  0  0  0
    7.1981   -5.1804   25.5058 H   0  0  0  0  0  0  0  0  0  0  0  0
    9.3646    1.3888   24.4669 H   0  0  0  0  0  0  0  0  0  0  0  0
   10.1228    1.9057   22.9851 H   0  0  0  0  0  0  0  0  0  0  0  0
   10.7230   -0.4323   22.4284 H   0  0  0  0  0  0  0  0  0  0  0  0
    8.1256   -1.8039   21.3539 H   0  0  0  0  0  0  0  0  0  0  0  0
  1  2  1  0  0  0  0
  1  5  2  0  0  0  0
  2  6  2  0  0  0  0
  3  7  2  0  0  0  0
  3 12  1  0  0  0  0
  4  8  1  0  0  0  0
  4 12  2  0  0  0  0
  5 14  1  0  0  0  0
  6 15  1  0  0  0  0
  7 16  1  0  0  0  0
  8 16  2  0  0  0  0
  9 10  2  0  0  0  0
  9 13  1  0  0  0  0
 10 31  1  0  0  0  0
 11 13  2  0  0  0  0
 11 31  1  0  0  0  0
 12 24  1  0  0  0  0
 13 23  1  0  0  0  0
 14 15  2  0  0  0  0
 14 25  1  0  0  0  0
 15 27  1  0  0  0  0
 16 28  1  0  0  0  0
 17 24  1  1  0  0  0
 17 29  1  0  0  0  0
 17 30  2  0  0  0  0
 18 19  1  0  0  0  0
 18 20  1  0  0  0  0
 19 21  1  0  0  0  0
 20 22  1  0  0  0  0
 21 28  1  0  0  0  0
 22 28  1  0  0  0  0
 23 24  1  0  0  0  0
 25 26  2  0  0  0  0
 26 27  1  0  0  0  0
 27 29  1  0  0  0  0
  1 32  1  0  0  0  0
  2 33  1  0  0  0  0
  3 34  1  0  0  0  0
  4 35  1  0  0  0  0
  5 36  1  0  0  0  0
  6 37  1  0  0  0  0
  7 38  1  0  0  0  0
  8 39  1  0  0  0  0
  9 40  1  0  0  0  0
 10 41  1  0  0  0  0
 11 42  1  0  0  0  0
 18 43  1  0  0  0  0
 18 44  1  0  0  0  0
 19 45  1  0  0  0  0
 19 46  1  0  0  0  0
 20 47  1  0  0  0  0
 20 48  1  0  0  0  0
 21 49  1  0  0  0  0
 21 50  1  0  0  0  0
 22 51  1  0  0  0  0
 22 52  1  0  0  0  0
 23 53  1  0  0  0  0
 23 54  1  0  0  0  0
 24 55  1  0  0  0  0
 29 56  1  0  0  0  0
M  END
> <clash_score>
2.5944047574612092

> <docking_score>
-6.245087623596191

> <overlap_score>
0.9309826493263245

$$$$
BENZO_177_2
  -OEChem-08222022393D

 59 63  0     1  0  0  0  0  0999 V2000
   14.2707    1.3171   23.0515 C   0  0  0  0  0  0  0  0  0  0  0  0
   13.7649    0.5713   24.1162 C   0  0  0  0  0  0  0  0  0  0  0  0
   13.3985    1.9740   22.1835 C   0  0  0  0  0  0  0  0  0  0  0  0
    4.0980    2.1130   19.5350 C   0  0  0  0  0  0  0  0  0  0  0  0
    4.2970    1.6690   20.8430 C   0  0  0  0  0  0  0  0  0  0  0  0
   12.3868    0.4823   24.3128 C   0  0  0  0  0  0  0  0  0  0  0  0
   12.0204    1.8850   22.3801 C   0  0  0  0  0  0  0  0  0  0  0  0
    8.3510   -1.5420   24.6110 C   0  0  0  0  0  0  0  0  0  0  0  0
   10.2760   -2.3270   23.4020 C   0  0  0  0  0  0  0  0  0  0  0  0
    4.9400    1.7060   18.5060 C   0  0  0  0  0  0  0  0  0  0  0  0
    5.3360    0.8000   21.1530 C   0  0  0  0  0  0  0  0  0  0  0  0
    8.3310   -2.7170   25.3430 C   0  0  0  0  0  0  0  0  0  0  0  0
   10.2570   -3.5000   24.1350 C   0  0  0  0  0  0  0  0  0  0  0  0
   11.5145    1.1392   23.4448 C   0  0  0  0  0  0  0  0  0  0  0  0
    9.3300   -1.3350   23.6390 C   0  0  0  0  0  0  0  0  0  0  0  0
    5.9810    0.8330   18.8060 C   0  0  0  0  0  0  0  0  0  0  0  0
    6.1600    0.3870   20.1140 C   0  0  0  0  0  0  0  0  0  0  0  0
    9.2850   -3.7090   25.1090 C   0  0  0  0  0  0  0  0  0  0  0  0
    8.9510    0.1280   21.6880 C   0  0  0  0  0  0  0  0  0  0  0  0
    7.3211   -6.8875   26.5227 C   0  0  0  0  0  0  0  0  0  0  0  0
    7.3523   -5.5278   27.2244 C   0  0  0  0  0  0  0  0  0  0  0  0
    7.9422   -6.8107   25.1261 C   0  0  0  0  0  0  0  0  0  0  0  0
    8.7641   -4.9418   27.2163 C   0  0  0  0  0  0  0  0  0  0  0  0
    9.3411   -6.1879   25.1670 C   0  0  0  0  0  0  0  0  0  0  0  0
   10.0220    1.0430   23.6570 C   0  0  0  0  0  0  0  0  0  0  0  0
    9.4200   -0.0840   22.9530 C   0  0  2  0  0  0  0  0  0  0  0  0
    6.9440    0.2550   18.0100 N   0  0  0  0  0  0  0  0  0  0  0  0
    7.6830   -0.5170   18.7600 N   0  0  0  0  0  0  0  0  0  0  0  0
    7.2210   -0.4620   20.0350 N   0  0  0  0  0  0  0  0  0  0  0  0
    9.2641   -4.8861   25.8398 N   0  0  0  0  0  0  0  0  0  0  0  0
    8.0810   -0.9750   21.0820 N   0  0  0  0  0  0  0  0  0  0  0  0
    9.1870    1.1500   21.0630 O   0  0  0  0  0  0  0  0  0  0  0  0
   15.3438    1.3874   22.8994 H   0  0  0  0  0  0  0  0  0  0  0  0
   14.4439    0.0607   24.7928 H   0  0  0  0  0  0  0  0  0  0  0  0
   13.7920    2.5556   21.3551 H   0  0  0  0  0  0  0  0  0  0  0  0
    3.2714    2.7876   19.3199 H   0  0  0  0  0  0  0  0  0  0  0  0
    3.6283    2.0091   21.6296 H   0  0  0  0  0  0  0  0  0  0  0  0
   12.0016   -0.1012   25.1449 H   0  0  0  0  0  0  0  0  0  0  0  0
   11.3484    2.4000   21.6987 H   0  0  0  0  0  0  0  0  0  0  0  0
    7.5957   -0.7779   24.7973 H   0  0  0  0  0  0  0  0  0  0  0  0
   11.0384   -2.1852   22.6338 H   0  0  0  0  0  0  0  0  0  0  0  0
    4.7824    2.0670   17.4883 H   0  0  0  0  0  0  0  0  0  0  0  0
    5.4937    0.4574   22.1805 H   0  0  0  0  0  0  0  0  0  0  0  0
    7.5634   -2.8637   26.1037 H   0  0  0  0  0  0  0  0  0  0  0  0
   11.0139   -4.2645   23.9419 H   0  0  0  0  0  0  0  0  0  0  0  0
    7.8644   -7.6283   27.1289 H   0  0  0  0  0  0  0  0  0  0  0  0
    6.2830   -7.2423   26.4478 H   0  0  0  0  0  0  0  0  0  0  0  0
    6.6663   -4.8405   26.7221 H   0  0  0  0  0  0  0  0  0  0  0  0
    7.0062   -5.6400   28.2540 H   0  0  0  0  0  0  0  0  0  0  0  0
    8.0018   -7.8160   24.6962 H   0  0  0  0  0  0  0  0  0  0  0  0
    7.2963   -6.2182   24.4678 H   0  0  0  0  0  0  0  0  0  0  0  0
    8.7322   -3.9404   27.6532 H   0  0  0  0  0  0  0  0  0  0  0  0
    9.4260   -5.5610   27.8283 H   0  0  0  0  0  0  0  0  0  0  0  0
   10.0249   -6.8474   25.7028 H   0  0  0  0  0  0  0  0  0  0  0  0
    9.7015   -6.0700   24.1446 H   0  0  0  0  0  0  0  0  0  0  0  0
    9.8382    0.9666   24.7377 H   0  0  0  0  0  0  0  0  0  0  0  0
    9.5448    1.9843   23.3535 H   0  0  0  0  0  0  0  0  0  0  0  0
    8.1249    0.3211   23.4916 H   0  0  0  0  0  0  0  0  0  0  0  0
    8.1256   -1.8039   21.3539 H   0  0  0  0  0  0  0  0  0  0  0  0
  1  2  1  0  0  0  0
  1  3  2  0  0  0  0
  2  6  2  0  0  0  0
  3  7  1  0  0  0  0
  4  5  1  0  0  0  0
  4 10  2  0  0  0  0
  5 11  2  0  0  0  0
  6 14  1  0  0  0  0
  7 14  2  0  0  0  0
  8 12  2  0  0  0  0
  8 15  1  0  0  0  0
  9 13  1  0  0  0  0
  9 15  2  0  0  0  0
 10 16  1  0  0  0  0
 11 17  1  0  0  0  0
 12 18  1  0  0  0  0
 13 18  2  0  0  0  0
 14 25  1  0  0  0  0
 15 26  1  0  0  0  0
 16 17  2  0  0  0  0
 16 27  1  0  0  0  0
 17 29  1  0  0  0  0
 18 30  1  0  0  0  0
 19 26  1  6  0  0  0
 19 31  1  0  0  0  0
 19 32  2  0  0  0  0
 20 21  1  0  0  0  0
 20 22  1  0  0  0  0
 21 23  1  0  0  0  0
 22 24  1  0  0  0  0
 23 30  1  0  0  0  0
 24 30  1  0  0  0  0
 25 26  1  0  0  0  0
 27 28  2  0  0  0  0
 28 29  1  0  0  0  0
 29 31  1  0  0  0  0
  1 33  1  0  0  0  0
  2 34  1  0  0  0  0
  3 35  1  0  0  0  0
  4 36  1  0  0  0  0
  5 37  1  0  0  0  0
  6 38  1  0  0  0  0
  7 39  1  0  0  0  0
  8 40  1  0  0  0  0
  9 41  1  0  0  0  0
 10 42  1  0  0  0  0
 11 43  1  0  0  0  0
 12 44  1  0  0  0  0
 13 45  1  0  0  0  0
 20 46  1  0  0  0  0
 20 47  1  0  0  0  0
 21 48  1  0  0  0  0
 21 49  1  0  0  0  0
 22 50  1  0  0  0  0
 22 51  1  0  0  0  0
 23 52  1  0  0  0  0
 23 53  1  0  0  0  0
 24 54  1  0  0  0  0
 24 55  1  0  0  0  0
 25 56  1  0  0  0  0
 25 57  1  0  0  0  0
 26 58  1  0  0  0  0
 31 59  1  0  0  0  0
M  END
> <clash_score>
0

> <docking_score>
-8.172863960266113

> <overlap_score>
1.0250860452651978

$$$$
BENZO_176_2
  -OEChem-08222022393D

 56 60  0     1  0  0  0  0  0999 V2000
    4.0980    2.1130   19.5350 C   0  0  0  0  0  0  0  0  0  0  0  0
    4.2970    1.6690   20.8430 C   0  0  0  0  0  0  0  0  0  0  0  0
    8.3510   -1.5420   24.6110 C   0  0  0  0  0  0  0  0  0  0  0  0
   10.2760   -2.3270   23.4020 C   0  0  0  0  0  0  0  0  0  0  0  0
    4.9400    1.7060   18.5060 C   0  0  0  0  0  0  0  0  0  0  0  0
    5.3360    0.8000   21.1530 C   0  0  0  0  0  0  0  0  0  0  0  0
    8.3310   -2.7170   25.3430 C   0  0  0  0  0  0  0  0  0  0  0  0
   10.2570   -3.5000   24.1350 C   0  0  0  0  0  0  0  0  0  0  0  0
   12.2339    2.3684   23.4053 C   0  0  0  0  0  0  0  0  0  0  0  0
   13.5816    2.1729   23.1980 C   0  0  0  0  0  0  0  0  0  0  0  0
   12.3400    0.0508   23.2659 C   0  0  0  0  0  0  0  0  0  0  0  0
    9.3300   -1.3350   23.6390 C   0  0  0  0  0  0  0  0  0  0  0  0
   11.5145    1.1392   23.4448 C   0  0  0  0  0  0  0  0  0  0  0  0
    5.9810    0.8330   18.8060 C   0  0  0  0  0  0  0  0  0  0  0  0
    6.1600    0.3870   20.1140 C   0  0  0  0  0  0  0  0  0  0  0  0
    9.2850   -3.7090   25.1090 C   0  0  0  0  0  0  0  0  0  0  0  0
    8.9510    0.1280   21.6880 C   0  0  0  0  0  0  0  0  0  0  0  0
    7.3211   -6.8875   26.5227 C   0  0  0  0  0  0  0  0  0  0  0  0
    7.3523   -5.5278   27.2244 C   0  0  0  0  0  0  0  0  0  0  0  0
    7.9422   -6.8107   25.1261 C   0  0  0  0  0  0  0  0  0  0  0  0
    8.7641   -4.9418   27.2163 C   0  0  0  0  0  0  0  0  0  0  0  0
    9.3411   -6.1879   25.1670 C   0  0  0  0  0  0  0  0  0  0  0  0
   10.0220    1.0430   23.6570 C   0  0  0  0  0  0  0  0  0  0  0  0
    9.4200   -0.0840   22.9530 C   0  0  2  0  0  0  0  0  0  0  0  0
    6.9440    0.2550   18.0100 N   0  0  0  0  0  0  0  0  0  0  0  0
    7.6830   -0.5170   18.7600 N   0  0  0  0  0  0  0  0  0  0  0  0
    7.2210   -0.4620   20.0350 N   0  0  0  0  0  0  0  0  0  0  0  0
    9.2641   -4.8861   25.8398 N   0  0  0  0  0  0  0  0  0  0  0  0
    8.0810   -0.9750   21.0820 N   0  0  0  0  0  0  0  0  0  0  0  0
    9.1870    1.1500   21.0630 O   0  0  0  0  0  0  0  0  0  0  0  0
   13.9749    0.5127   23.0518 S   0  0  0  0  0  0  0  0  0  0  0  0
    3.2714    2.7876   19.3199 H   0  0  0  0  0  0  0  0  0  0  0  0
    3.6283    2.0091   21.6296 H   0  0  0  0  0  0  0  0  0  0  0  0
    7.5957   -0.7779   24.7973 H   0  0  0  0  0  0  0  0  0  0  0  0
   11.0384   -2.1852   22.6338 H   0  0  0  0  0  0  0  0  0  0  0  0
    4.7824    2.0670   17.4883 H   0  0  0  0  0  0  0  0  0  0  0  0
    5.4937    0.4574   22.1805 H   0  0  0  0  0  0  0  0  0  0  0  0
    7.5634   -2.8637   26.1037 H   0  0  0  0  0  0  0  0  0  0  0  0
   11.0139   -4.2645   23.9419 H   0  0  0  0  0  0  0  0  0  0  0  0
   11.7893    3.3487   23.5221 H   0  0  0  0  0  0  0  0  0  0  0  0
   14.3540    2.9254   23.1246 H   0  0  0  0  0  0  0  0  0  0  0  0
   12.0651   -0.9948   23.2488 H   0  0  0  0  0  0  0  0  0  0  0  0
    7.8644   -7.6283   27.1289 H   0  0  0  0  0  0  0  0  0  0  0  0
    6.2830   -7.2423   26.4478 H   0  0  0  0  0  0  0  0  0  0  0  0
    6.6663   -4.8405   26.7221 H   0  0  0  0  0  0  0  0  0  0  0  0
    7.0062   -5.6400   28.2540 H   0  0  0  0  0  0  0  0  0  0  0  0
    8.0018   -7.8160   24.6962 H   0  0  0  0  0  0  0  0  0  0  0  0
    7.2963   -6.2182   24.4678 H   0  0  0  0  0  0  0  0  0  0  0  0
    8.7322   -3.9404   27.6532 H   0  0  0  0  0  0  0  0  0  0  0  0
    9.4260   -5.5610   27.8283 H   0  0  0  0  0  0  0  0  0  0  0  0
   10.0249   -6.8474   25.7028 H   0  0  0  0  0  0  0  0  0  0  0  0
    9.7015   -6.0700   24.1446 H   0  0  0  0  0  0  0  0  0  0  0  0
    9.8382    0.9666   24.7377 H   0  0  0  0  0  0  0  0  0  0  0  0
    9.5448    1.9843   23.3535 H   0  0  0  0  0  0  0  0  0  0  0  0
    8.1249    0.3211   23.4916 H   0  0  0  0  0  0  0  0  0  0  0  0
    8.1256   -1.8039   21.3539 H   0  0  0  0  0  0  0  0  0  0  0  0
  1  2  1  0  0  0  0
  1  5  2  0  0  0  0
  2  6  2  0  0  0  0
  3  7  2  0  0  0  0
  3 12  1  0  0  0  0
  4  8  1  0  0  0  0
  4 12  2  0  0  0  0
  5 14  1  0  0  0  0
  6 15  1  0  0  0  0
  7 16  1  0  0  0  0
  8 16  2  0  0  0  0
  9 10  2  0  0  0  0
  9 13  1  0  0  0  0
 10 31  1  0  0  0  0
 11 13  2  0  0  0  0
 11 31  1  0  0  0  0
 12 24  1  0  0  0  0
 13 23  1  0  0  0  0
 14 15  2  0  0  0  0
 14 25  1  0  0  0  0
 15 27  1  0  0  0  0
 16 28  1  0  0  0  0
 17 24  1  6  0  0  0
 17 29  1  0  0  0  0
 17 30  2  0  0  0  0
 18 19  1  0  0  0  0
 18 20  1  0  0  0  0
 19 21  1  0  0  0  0
 20 22  1  0  0  0  0
 21 28  1  0  0  0  0
 22 28  1  0  0  0  0
 23 24  1  0  0  0  0
 25 26  2  0  0  0  0
 26 27  1  0  0  0  0
 27 29  1  0  0  0  0
  1 32  1  0  0  0  0
  2 33  1  0  0  0  0
  3 34  1  0  0  0  0
  4 35  1  0  0  0  0
  5 36  1  0  0  0  0
  6 37  1  0  0  0  0
  7 38  1  0  0  0  0
  8 39  1  0  0  0  0
  9 40  1  0  0  0  0
 10 41  1  0  0  0  0
 11 42  1  0  0  0  0
 18 43  1  0  0  0  0
 18 44  1  0  0  0  0
 19 45  1  0  0  0  0
 19 46  1  0  0  0  0
 20 47  1  0  0  0  0
 20 48  1  0  0  0  0
 21 49  1  0  0  0  0
 21 50  1  0  0  0  0
 22 51  1  0  0  0  0
 22 52  1  0  0  0  0
 23 53  1  0  0  0  0
 23 54  1  0  0  0  0
 24 55  1  0  0  0  0
 29 56  1  0  0  0  0
M  END
> <clash_score>
0

> <docking_score>
-8.937283515930176

> <overlap_score>
1.0119398832321167

$$$$
BENZO_178_1
  -OEChem-08222022393D

 59 63  0     1  0  0  0  0  0999 V2000
    4.0980    2.1130   19.5350 C   0  0  0  0  0  0  0  0  0  0  0  0
    4.2970    1.6690   20.8430 C   0  0  0  0  0  0  0  0  0  0  0  0
   13.7724    0.5968   24.0732 C   0  0  0  0  0  0  0  0  0  0  0  0
   12.5307    0.9037   23.5168 C   0  0  0  0  0  0  0  0  0  0  0  0
    8.3510   -1.5420   24.6110 C   0  0  0  0  0  0  0  0  0  0  0  0
   10.2760   -2.3270   23.4020 C   0  0  0  0  0  0  0  0  0  0  0  0
    4.9400    1.7060   18.5060 C   0  0  0  0  0  0  0  0  0  0  0  0
    5.3360    0.8000   21.1530 C   0  0  0  0  0  0  0  0  0  0  0  0
    8.3310   -2.7170   25.3430 C   0  0  0  0  0  0  0  0  0  0  0  0
   10.2570   -3.5000   24.1350 C   0  0  0  0  0  0  0  0  0  0  0  0
   13.8498    0.0953   25.3725 C   0  0  0  0  0  0  0  0  0  0  0  0
   11.4436    0.2079   25.5592 C   0  0  0  0  0  0  0  0  0  0  0  0
    9.3300   -1.3350   23.6390 C   0  0  0  0  0  0  0  0  0  0  0  0
   11.3663    0.7092   24.2598 C   0  0  0  0  0  0  0  0  0  0  0  0
    5.9810    0.8330   18.8060 C   0  0  0  0  0  0  0  0  0  0  0  0
    6.1600    0.3870   20.1140 C   0  0  0  0  0  0  0  0  0  0  0  0
    9.2850   -3.7090   25.1090 C   0  0  0  0  0  0  0  0  0  0  0  0
   12.6854   -0.0991   26.1155 C   0  0  0  0  0  0  0  0  0  0  0  0
    8.9510    0.1280   21.6880 C   0  0  0  0  0  0  0  0  0  0  0  0
    7.3211   -6.8875   26.5227 C   0  0  0  0  0  0  0  0  0  0  0  0
    7.3523   -5.5278   27.2244 C   0  0  0  0  0  0  0  0  0  0  0  0
    7.9422   -6.8107   25.1261 C   0  0  0  0  0  0  0  0  0  0  0  0
    8.7641   -4.9418   27.2163 C   0  0  0  0  0  0  0  0  0  0  0  0
    9.3411   -6.1879   25.1670 C   0  0  0  0  0  0  0  0  0  0  0  0
   10.0220    1.0430   23.6570 C   0  0  0  0  0  0  0  0  0  0  0  0
    9.4200   -0.0840   22.9530 C   0  0  1  0  0  0  0  0  0  0  0  0
    6.9440    0.2550   18.0100 N   0  0  0  0  0  0  0  0  0  0  0  0
    7.6830   -0.5170   18.7600 N   0  0  0  0  0  0  0  0  0  0  0  0
    7.2210   -0.4620   20.0350 N   0  0  0  0  0  0  0  0  0  0  0  0
    9.2641   -4.8861   25.8398 N   0  0  0  0  0  0  0  0  0  0  0  0
    8.0810   -0.9750   21.0820 N   0  0  0  0  0  0  0  0  0  0  0  0
    9.1870    1.1500   21.0630 O   0  0  0  0  0  0  0  0  0  0  0  0
   12.7815   -0.7167   27.7190 Cl  0  0  0  0  0  0  0  0  0  0  0  0
    3.2714    2.7876   19.3199 H   0  0  0  0  0  0  0  0  0  0  0  0
    3.6283    2.0091   21.6296 H   0  0  0  0  0  0  0  0  0  0  0  0
   14.6789    0.7484   23.4943 H   0  0  0  0  0  0  0  0  0  0  0  0
   12.4799    1.2940   22.5037 H   0  0  0  0  0  0  0  0  0  0  0  0
    7.5957   -0.7779   24.7973 H   0  0  0  0  0  0  0  0  0  0  0  0
   11.0384   -2.1852   22.6338 H   0  0  0  0  0  0  0  0  0  0  0  0
    4.7824    2.0670   17.4883 H   0  0  0  0  0  0  0  0  0  0  0  0
    5.4937    0.4574   22.1805 H   0  0  0  0  0  0  0  0  0  0  0  0
    7.5634   -2.8637   26.1037 H   0  0  0  0  0  0  0  0  0  0  0  0
   11.0139   -4.2645   23.9419 H   0  0  0  0  0  0  0  0  0  0  0  0
   14.8244   -0.1392   25.7934 H   0  0  0  0  0  0  0  0  0  0  0  0
   10.5328    0.0576   26.1342 H   0  0  0  0  0  0  0  0  0  0  0  0
    7.8644   -7.6283   27.1289 H   0  0  0  0  0  0  0  0  0  0  0  0
    6.2830   -7.2423   26.4478 H   0  0  0  0  0  0  0  0  0  0  0  0
    6.6663   -4.8405   26.7221 H   0  0  0  0  0  0  0  0  0  0  0  0
    7.0062   -5.6400   28.2540 H   0  0  0  0  0  0  0  0  0  0  0  0
    8.0018   -7.8160   24.6962 H   0  0  0  0  0  0  0  0  0  0  0  0
    7.2963   -6.2182   24.4678 H   0  0  0  0  0  0  0  0  0  0  0  0
    8.7322   -3.9404   27.6532 H   0  0  0  0  0  0  0  0  0  0  0  0
    9.4260   -5.5610   27.8283 H   0  0  0  0  0  0  0  0  0  0  0  0
   10.0249   -6.8474   25.7028 H   0  0  0  0  0  0  0  0  0  0  0  0
    9.7015   -6.0700   24.1446 H   0  0  0  0  0  0  0  0  0  0  0  0
    9.3646    1.3888   24.4669 H   0  0  0  0  0  0  0  0  0  0  0  0
   10.1229    1.9057   22.9851 H   0  0  0  0  0  0  0  0  0  0  0  0
   10.7230   -0.4323   22.4284 H   0  0  0  0  0  0  0  0  0  0  0  0
    8.1256   -1.8039   21.3539 H   0  0  0  0  0  0  0  0  0  0  0  0
  1  2  1  0  0  0  0
  1  7  2  0  0  0  0
  2  8  2  0  0  0  0
  3  4  2  0  0  0  0
  3 11  1  0  0  0  0
  4 14  1  0  0  0  0
  5  9  2  0  0  0  0
  5 13  1  0  0  0  0
  6 10  1  0  0  0  0
  6 13  2  0  0  0  0
  7 15  1  0  0  0  0
  8 16  1  0  0  0  0
  9 17  1  0  0  0  0
 10 17  2  0  0  0  0
 11 18  2  0  0  0  0
 12 14  2  0  0  0  0
 12 18  1  0  0  0  0
 13 26  1  0  0  0  0
 14 25  1  0  0  0  0
 15 16  2  0  0  0  0
 15 27  1  0  0  0  0
 16 29  1  0  0  0  0
 17 30  1  0  0  0  0
 18 33  1  0  0  0  0
 19 26  1  1  0  0  0
 19 31  1  0  0  0  0
 19 32  2  0  0  0  0
 20 21  1  0  0  0  0
 20 22  1  0  0  0  0
 21 23  1  0  0  0  0
 22 24  1  0  0  0  0
 23 30  1  0  0  0  0
 24 30  1  0  0  0  0
 25 26  1  0  0  0  0
 27 28  2  0  0  0  0
 28 29  1  0  0  0  0
 29 31  1  0  0  0  0
  1 34  1  0  0  0  0
  2 35  1  0  0  0  0
  3 36  1  0  0  0  0
  4 37  1  0  0  0  0
  5 38  1  0  0  0  0
  6 39  1  0  0  0  0
  7 40  1  0  0  0  0
  8 41  1  0  0  0  0
  9 42  1  0  0  0  0
 10 43  1  0  0  0  0
 11 44  1  0  0  0  0
 12 45  1  0  0  0  0
 20 46  1  0  0  0  0
 20 47  1  0  0  0  0
 21 48  1  0  0  0  0
 21 49  1  0  0  0  0
 22 50  1  0  0  0  0
 22 51  1  0  0  0  0
 23 52  1  0  0  0  0
 23 53  1  0  0  0  0
 24 54  1  0  0  0  0
 24 55  1  0  0  0  0
 25 56  1  0  0  0  0
 25 57  1  0  0  0  0
 26 58  1  0  0  0  0
 31 59  1  0  0  0  0
M  END
> <clash_score>
1.581609324997356

> <docking_score>
-6.343343734741211

> <overlap_score>
0.9483889937400818

$$$$
BENZO_178_2
  -OEChem-08222022393D

 59 63  0     1  0  0  0  0  0999 V2000
    4.0980    2.1130   19.5350 C   0  0  0  0  0  0  0  0  0  0  0  0
    4.2970    1.6690   20.8430 C   0  0  0  0  0  0  0  0  0  0  0  0
   13.7638    0.5686   24.1170 C   0  0  0  0  0  0  0  0  0  0  0  0
   12.3856    0.4811   24.3130 C   0  0  0  0  0  0  0  0  0  0  0  0
    8.3510   -1.5420   24.6110 C   0  0  0  0  0  0  0  0  0  0  0  0
   10.2760   -2.3270   23.4020 C   0  0  0  0  0  0  0  0  0  0  0  0
    4.9400    1.7060   18.5060 C   0  0  0  0  0  0  0  0  0  0  0  0
    5.3360    0.8000   21.1530 C   0  0  0  0  0  0  0  0  0  0  0  0
    8.3310   -2.7170   25.3430 C   0  0  0  0  0  0  0  0  0  0  0  0
   10.2570   -3.5000   24.1350 C   0  0  0  0  0  0  0  0  0  0  0  0
   14.2710    1.3141   23.0527 C   0  0  0  0  0  0  0  0  0  0  0  0
   12.0217    1.8847   22.3805 C   0  0  0  0  0  0  0  0  0  0  0  0
    9.3300   -1.3350   23.6390 C   0  0  0  0  0  0  0  0  0  0  0  0
   11.5145    1.1392   23.4448 C   0  0  0  0  0  0  0  0  0  0  0  0
    5.9810    0.8330   18.8060 C   0  0  0  0  0  0  0  0  0  0  0  0
    6.1600    0.3870   20.1140 C   0  0  0  0  0  0  0  0  0  0  0  0
    9.2850   -3.7090   25.1090 C   0  0  0  0  0  0  0  0  0  0  0  0
   13.3999    1.9722   22.1845 C   0  0  0  0  0  0  0  0  0  0  0  0
    8.9510    0.1280   21.6880 C   0  0  0  0  0  0  0  0  0  0  0  0
    7.3211   -6.8875   26.5227 C   0  0  0  0  0  0  0  0  0  0  0  0
    7.3523   -5.5278   27.2244 C   0  0  0  0  0  0  0  0  0  0  0  0
    7.9422   -6.8107   25.1261 C   0  0  0  0  0  0  0  0  0  0  0  0
    8.7641   -4.9418   27.2163 C   0  0  0  0  0  0  0  0  0  0  0  0
    9.3411   -6.1879   25.1670 C   0  0  0  0  0  0  0  0  0  0  0  0
   10.0220    1.0430   23.6570 C   0  0  0  0  0  0  0  0  0  0  0  0
    9.4200   -0.0840   22.9530 C   0  0  2  0  0  0  0  0  0  0  0  0
    6.9440    0.2550   18.0100 N   0  0  0  0  0  0  0  0  0  0  0  0
    7.6830   -0.5170   18.7600 N   0  0  0  0  0  0  0  0  0  0  0  0
    7.2210   -0.4620   20.0350 N   0  0  0  0  0  0  0  0  0  0  0  0
    9.2641   -4.8861   25.8398 N   0  0  0  0  0  0  0  0  0  0  0  0
    8.0810   -0.9750   21.0820 N   0  0  0  0  0  0  0  0  0  0  0  0
    9.1870    1.1500   21.0630 O   0  0  0  0  0  0  0  0  0  0  0  0
   14.0262    2.8909   20.8709 Cl  0  0  0  0  0  0  0  0  0  0  0  0
    3.2714    2.7876   19.3199 H   0  0  0  0  0  0  0  0  0  0  0  0
    3.6283    2.0091   21.6296 H   0  0  0  0  0  0  0  0  0  0  0  0
   14.4418    0.0559   24.7932 H   0  0  0  0  0  0  0  0  0  0  0  0
   11.9993   -0.1021   25.1449 H   0  0  0  0  0  0  0  0  0  0  0  0
    7.5957   -0.7779   24.7973 H   0  0  0  0  0  0  0  0  0  0  0  0
   11.0384   -2.1852   22.6338 H   0  0  0  0  0  0  0  0  0  0  0  0
    4.7824    2.0670   17.4883 H   0  0  0  0  0  0  0  0  0  0  0  0
    5.4937    0.4574   22.1805 H   0  0  0  0  0  0  0  0  0  0  0  0
    7.5634   -2.8637   26.1037 H   0  0  0  0  0  0  0  0  0  0  0  0
   11.0139   -4.2645   23.9419 H   0  0  0  0  0  0  0  0  0  0  0  0
   15.3475    1.3732   22.9119 H   0  0  0  0  0  0  0  0  0  0  0  0
   11.3384    2.3963   21.7066 H   0  0  0  0  0  0  0  0  0  0  0  0
    7.8644   -7.6283   27.1289 H   0  0  0  0  0  0  0  0  0  0  0  0
    6.2830   -7.2423   26.4478 H   0  0  0  0  0  0  0  0  0  0  0  0
    6.6663   -4.8405   26.7221 H   0  0  0  0  0  0  0  0  0  0  0  0
    7.0062   -5.6400   28.2540 H   0  0  0  0  0  0  0  0  0  0  0  0
    8.0018   -7.8160   24.6962 H   0  0  0  0  0  0  0  0  0  0  0  0
    7.2963   -6.2182   24.4678 H   0  0  0  0  0  0  0  0  0  0  0  0
    8.7322   -3.9404   27.6532 H   0  0  0  0  0  0  0  0  0  0  0  0
    9.4260   -5.5610   27.8283 H   0  0  0  0  0  0  0  0  0  0  0  0
   10.0249   -6.8474   25.7028 H   0  0  0  0  0  0  0  0  0  0  0  0
    9.7015   -6.0700   24.1446 H   0  0  0  0  0  0  0  0  0  0  0  0
    9.8382    0.9666   24.7377 H   0  0  0  0  0  0  0  0  0  0  0  0
    9.5448    1.9843   23.3535 H   0  0  0  0  0  0  0  0  0  0  0  0
    8.1249    0.3211   23.4916 H   0  0  0  0  0  0  0  0  0  0  0  0
    8.1256   -1.8039   21.3539 H   0  0  0  0  0  0  0  0  0  0  0  0
  1  2  1  0  0  0  0
  1  7  2  0  0  0  0
  2  8  2  0  0  0  0
  3  4  2  0  0  0  0
  3 11  1  0  0  0  0
  4 14  1  0  0  0  0
  5  9  2  0  0  0  0
  5 13  1  0  0  0  0
  6 10  1  0  0  0  0
  6 13  2  0  0  0  0
  7 15  1  0  0  0  0
  8 16  1  0  0  0  0
  9 17  1  0  0  0  0
 10 17  2  0  0  0  0
 11 18  2  0  0  0  0
 12 14  2  0  0  0  0
 12 18  1  0  0  0  0
 13 26  1  0  0  0  0
 14 25  1  0  0  0  0
 15 16  2  0  0  0  0
 15 27  1  0  0  0  0
 16 29  1  0  0  0  0
 17 30  1  0  0  0  0
 18 33  1  0  0  0  0
 19 26  1  6  0  0  0
 19 31  1  0  0  0  0
 19 32  2  0  0  0  0
 20 21  1  0  0  0  0
 20 22  1  0  0  0  0
 21 23  1  0  0  0  0
 22 24  1  0  0  0  0
 23 30  1  0  0  0  0
 24 30  1  0  0  0  0
 25 26  1  0  0  0  0
 27 28  2  0  0  0  0
 28 29  1  0  0  0  0
 29 31  1  0  0  0  0
  1 34  1  0  0  0  0
  2 35  1  0  0  0  0
  3 36  1  0  0  0  0
  4 37  1  0  0  0  0
  5 38  1  0  0  0  0
  6 39  1  0  0  0  0
  7 40  1  0  0  0  0
  8 41  1  0  0  0  0
  9 42  1  0  0  0  0
 10 43  1  0  0  0  0
 11 44  1  0  0  0  0
 12 45  1  0  0  0  0
 20 46  1  0  0  0  0
 20 47  1  0  0  0  0
 21 48  1  0  0  0  0
 21 49  1  0  0  0  0
 22 50  1  0  0  0  0
 22 51  1  0  0  0  0
 23 52  1  0  0  0  0
 23 53  1  0  0  0  0
 24 54  1  0  0  0  0
 24 55  1  0  0  0  0
 25 56  1  0  0  0  0
 25 57  1  0  0  0  0
 26 58  1  0  0  0  0
 31 59  1  0  0  0  0
M  END
> <clash_score>
0

> <docking_score>
-7.2896857261657715

> <overlap_score>
1.0283714532852173

$$$$
BENZO_179_2
  -OEChem-08222022393D

 59 63  0     1  0  0  0  0  0999 V2000
    4.0980    2.1130   19.5350 C   0  0  0  0  0  0  0  0  0  0  0  0
    4.2970    1.6690   20.8430 C   0  0  0  0  0  0  0  0  0  0  0  0
    8.3510   -1.5420   24.6110 C   0  0  0  0  0  0  0  0  0  0  0  0
   10.2760   -2.3270   23.4020 C   0  0  0  0  0  0  0  0  0  0  0  0
    4.9400    1.7060   18.5060 C   0  0  0  0  0  0  0  0  0  0  0  0
    5.3360    0.8000   21.1530 C   0  0  0  0  0  0  0  0  0  0  0  0
    8.3310   -2.7170   25.3430 C   0  0  0  0  0  0  0  0  0  0  0  0
   10.2570   -3.5000   24.1350 C   0  0  0  0  0  0  0  0  0  0  0  0
   12.6359    0.8405   23.6658 C   0  0  0  0  0  0  0  0  0  0  0  0
   11.6237    0.2113   25.5137 C   0  0  0  0  0  0  0  0  0  0  0  0
    9.3300   -1.3350   23.6390 C   0  0  0  0  0  0  0  0  0  0  0  0
   11.3663    0.7092   24.2598 C   0  0  0  0  0  0  0  0  0  0  0  0
    5.9810    0.8330   18.8060 C   0  0  0  0  0  0  0  0  0  0  0  0
    6.1600    0.3870   20.1140 C   0  0  0  0  0  0  0  0  0  0  0  0
    9.2850   -3.7090   25.1090 C   0  0  0  0  0  0  0  0  0  0  0  0
    8.9510    0.1280   21.6880 C   0  0  0  0  0  0  0  0  0  0  0  0
    7.3211   -6.8875   26.5227 C   0  0  0  0  0  0  0  0  0  0  0  0
    7.3523   -5.5278   27.2244 C   0  0  0  0  0  0  0  0  0  0  0  0
    7.9422   -6.8107   25.1261 C   0  0  0  0  0  0  0  0  0  0  0  0
    8.7641   -4.9418   27.2163 C   0  0  0  0  0  0  0  0  0  0  0  0
    9.3411   -6.1879   25.1670 C   0  0  0  0  0  0  0  0  0  0  0  0
   13.7282   -0.4085   26.7244 C   0  0  0  0  0  0  0  0  0  0  0  0
   10.0220    1.0430   23.6570 C   0  0  0  0  0  0  0  0  0  0  0  0
    9.4200   -0.0840   22.9530 C   0  0  2  0  0  0  0  0  0  0  0  0
   13.6263    0.4570   24.4758 N   0  0  0  0  0  0  0  0  0  0  0  0
    6.9440    0.2550   18.0100 N   0  0  0  0  0  0  0  0  0  0  0  0
    7.6830   -0.5170   18.7600 N   0  0  0  0  0  0  0  0  0  0  0  0
   12.9790    0.0800   25.5916 N   0  0  0  0  0  0  0  0  0  0  0  0
    7.2210   -0.4620   20.0350 N   0  0  0  0  0  0  0  0  0  0  0  0
    9.2641   -4.8861   25.8398 N   0  0  0  0  0  0  0  0  0  0  0  0
    8.0810   -0.9750   21.0820 N   0  0  0  0  0  0  0  0  0  0  0  0
    9.1870    1.1500   21.0630 O   0  0  0  0  0  0  0  0  0  0  0  0
    3.2714    2.7876   19.3199 H   0  0  0  0  0  0  0  0  0  0  0  0
    3.6283    2.0091   21.6296 H   0  0  0  0  0  0  0  0  0  0  0  0
    7.5957   -0.7779   24.7973 H   0  0  0  0  0  0  0  0  0  0  0  0
   11.0384   -2.1852   22.6338 H   0  0  0  0  0  0  0  0  0  0  0  0
    4.7824    2.0670   17.4883 H   0  0  0  0  0  0  0  0  0  0  0  0
    5.4937    0.4574   22.1805 H   0  0  0  0  0  0  0  0  0  0  0  0
    7.5634   -2.8637   26.1037 H   0  0  0  0  0  0  0  0  0  0  0  0
   11.0139   -4.2645   23.9419 H   0  0  0  0  0  0  0  0  0  0  0  0
   12.8833    1.2002   22.6770 H   0  0  0  0  0  0  0  0  0  0  0  0
   10.9741   -0.0530   26.3371 H   0  0  0  0  0  0  0  0  0  0  0  0
    7.8644   -7.6283   27.1289 H   0  0  0  0  0  0  0  0  0  0  0  0
    6.2830   -7.2423   26.4478 H   0  0  0  0  0  0  0  0  0  0  0  0
    6.6663   -4.8405   26.7221 H   0  0  0  0  0  0  0  0  0  0  0  0
    7.0062   -5.6400   28.2540 H   0  0  0  0  0  0  0  0  0  0  0  0
    8.0018   -7.8160   24.6962 H   0  0  0  0  0  0  0  0  0  0  0  0
    7.2963   -6.2182   24.4678 H   0  0  0  0  0  0  0  0  0  0  0  0
    8.7322   -3.9404   27.6532 H   0  0  0  0  0  0  0  0  0  0  0  0
    9.4260   -5.5610   27.8283 H   0  0  0  0  0  0  0  0  0  0  0  0
   10.0249   -6.8474   25.7028 H   0  0  0  0  0  0  0  0  0  0  0  0
    9.7015   -6.0700   24.1446 H   0  0  0  0  0  0  0  0  0  0  0  0
   13.8306   -1.4918   26.6192 H   0  0  0  0  0  0  0  0  0  0  0  0
   14.7120    0.0685   26.7434 H   0  0  0  0  0  0  0  0  0  0  0  0
   13.1927   -0.1616   27.6454 H   0  0  0  0  0  0  0  0  0  0  0  0
    9.3646    1.3888   24.4669 H   0  0  0  0  0  0  0  0  0  0  0  0
   10.1229    1.9057   22.9851 H   0  0  0  0  0  0  0  0  0  0  0  0
   10.7230   -0.4323   22.4284 H   0  0  0  0  0  0  0  0  0  0  0  0
    8.1256   -1.8039   21.3539 H   0  0  0  0  0  0  0  0  0  0  0  0
  1  2  1  0  0  0  0
  1  5  2  0  0  0  0
  2  6  2  0  0  0  0
  3  7  2  0  0  0  0
  3 11  1  0  0  0  0
  4  8  1  0  0  0  0
  4 11  2  0  0  0  0
  5 13  1  0  0  0  0
  6 14  1  0  0  0  0
  7 15  1  0  0  0  0
  8 15  2  0  0  0  0
  9 12  1  0  0  0  0
  9 25  2  0  0  0  0
 10 12  2  0  0  0  0
 10 28  1  0  0  0  0
 11 24  1  0  0  0  0
 12 23  1  0  0  0  0
 13 14  2  0  0  0  0
 13 26  1  0  0  0  0
 14 29  1  0  0  0  0
 15 30  1  0  0  0  0
 16 24  1  0  0  0  0
 16 31  1  0  0  0  0
 16 32  2  0  0  0  0
 17 18  1  0  0  0  0
 17 19  1  0  0  0  0
 18 20  1  0  0  0  0
 19 21  1  0  0  0  0
 20 30  1  0  0  0  0
 21 30  1  0  0  0  0
 22 28  1  0  0  0  0
 23 24  1  6  0  0  0
 25 28  1  0  0  0  0
 26 27  2  0  0  0  0
 27 29  1  0  0  0  0
 29 31  1  0  0  0  0
  1 33  1  0  0  0  0
  2 34  1  0  0  0  0
  3 35  1  0  0  0  0
  4 36  1  0  0  0  0
  5 37  1  0  0  0  0
  6 38  1  0  0  0  0
  7 39  1  0  0  0  0
  8 40  1  0  0  0  0
  9 41  1  0  0  0  0
 10 42  1  0  0  0  0
 17 43  1  0  0  0  0
 17 44  1  0  0  0  0
 18 45  1  0  0  0  0
 18 46  1  0  0  0  0
 19 47  1  0  0  0  0
 19 48  1  0  0  0  0
 20 49  1  0  0  0  0
 20 50  1  0  0  0  0
 21 51  1  0  0  0  0
 21 52  1  0  0  0  0
 22 53  1  0  0  0  0
 22 54  1  0  0  0  0
 22 55  1  0  0  0  0
 23 56  1  0  0  0  0
 23 57  1  0  0  0  0
 24 58  1  0  0  0  0
 31 59  1  0  0  0  0
M  END
> <clash_score>
0.7305700647928571

> <docking_score>
-7.13938570022583

> <overlap_score>
0.9410896301269531

$$$$
BENZO_180_1
  -OEChem-08222022393D

 44 47  0     1  0  0  0  0  0999 V2000
    4.0980    2.1130   19.5350 C   0  0  0  0  0  0  0  0  0  0  0  0
    4.2970    1.6690   20.8430 C   0  0  0  0  0  0  0  0  0  0  0  0
    8.3310   -2.7170   25.3430 C   0  0  0  0  0  0  0  0  0  0  0  0
   10.2570   -3.5000   24.1350 C   0  0  0  0  0  0  0  0  0  0  0  0
    8.3510   -1.5420   24.6110 C   0  0  0  0  0  0  0  0  0  0  0  0
   10.2760   -2.3270   23.4020 C   0  0  0  0  0  0  0  0  0  0  0  0
    4.9400    1.7060   18.5060 C   0  0  0  0  0  0  0  0  0  0  0  0
    5.3360    0.8000   21.1530 C   0  0  0  0  0  0  0  0  0  0  0  0
   12.2267    2.3852   23.4320 C   0  0  0  0  0  0  0  0  0  0  0  0
   13.5754    2.2012   23.2208 C   0  0  0  0  0  0  0  0  0  0  0  0
   12.3453    0.0714   23.2460 C   0  0  0  0  0  0  0  0  0  0  0  0
    9.2850   -3.7090   25.1090 C   0  0  0  0  0  0  0  0  0  0  0  0
    9.3300   -1.3350   23.6390 C   0  0  0  0  0  0  0  0  0  0  0  0
   11.5140    1.1515   23.4468 C   0  0  0  0  0  0  0  0  0  0  0  0
    5.9810    0.8330   18.8060 C   0  0  0  0  0  0  0  0  0  0  0  0
    6.1600    0.3870   20.1140 C   0  0  0  0  0  0  0  0  0  0  0  0
    8.9510    0.1280   21.6880 C   0  0  0  0  0  0  0  0  0  0  0  0
    9.2618   -4.9724   25.8910 C   0  0  0  0  0  0  0  0  0  0  0  0
   10.0220    1.0430   23.6570 C   0  0  0  0  0  0  0  0  0  0  0  0
    9.4200   -0.0840   22.9530 C   0  0  1  0  0  0  0  0  0  0  0  0
    6.9440    0.2550   18.0100 N   0  0  0  0  0  0  0  0  0  0  0  0
    7.6830   -0.5170   18.7600 N   0  0  0  0  0  0  0  0  0  0  0  0
    7.2210   -0.4620   20.0350 N   0  0  0  0  0  0  0  0  0  0  0  0
    8.0810   -0.9750   21.0820 N   0  0  0  0  0  0  0  0  0  0  0  0
    9.1870    1.1500   21.0630 O   0  0  0  0  0  0  0  0  0  0  0  0
   13.9777    0.5464   23.0413 S   0  0  0  0  0  0  0  0  0  0  0  0
    3.2714    2.7876   19.3199 H   0  0  0  0  0  0  0  0  0  0  0  0
    3.6283    2.0091   21.6296 H   0  0  0  0  0  0  0  0  0  0  0  0
    7.5655   -2.8644   26.1055 H   0  0  0  0  0  0  0  0  0  0  0  0
   11.0125   -4.2662   23.9435 H   0  0  0  0  0  0  0  0  0  0  0  0
    7.5953   -0.7782   24.7971 H   0  0  0  0  0  0  0  0  0  0  0  0
   11.0394   -2.1837   22.6349 H   0  0  0  0  0  0  0  0  0  0  0  0
    4.7824    2.0670   17.4883 H   0  0  0  0  0  0  0  0  0  0  0  0
    5.4937    0.4574   22.1805 H   0  0  0  0  0  0  0  0  0  0  0  0
   11.7767    3.3605   23.5685 H   0  0  0  0  0  0  0  0  0  0  0  0
   14.3436    2.9592   23.1626 H   0  0  0  0  0  0  0  0  0  0  0  0
   12.0761   -0.9751   23.2080 H   0  0  0  0  0  0  0  0  0  0  0  0
    8.6408   -5.7227   25.3864 H   0  0  0  0  0  0  0  0  0  0  0  0
   10.2726   -5.3829   26.0135 H   0  0  0  0  0  0  0  0  0  0  0  0
    8.8606   -4.8102   26.9000 H   0  0  0  0  0  0  0  0  0  0  0  0
    9.8388    0.9439   24.7360 H   0  0  0  0  0  0  0  0  0  0  0  0
    9.5396    1.9876   23.3725 H   0  0  0  0  0  0  0  0  0  0  0  0
    8.1264    0.3141   23.4937 H   0  0  0  0  0  0  0  0  0  0  0  0
    8.1479   -1.8049   21.3777 H   0  0  0  0  0  0  0  0  0  0  0  0
  1  2  1  0  0  0  0
  1  7  2  0  0  0  0
  2  8  2  0  0  0  0
  3  5  2  0  0  0  0
  3 12  1  0  0  0  0
  4  6  1  0  0  0  0
  4 12  2  0  0  0  0
  5 13  1  0  0  0  0
  6 13  2  0  0  0  0
  7 15  1  0  0  0  0
  8 16  1  0  0  0  0
  9 10  2  0  0  0  0
  9 14  1  0  0  0  0
 10 26  1  0  0  0  0
 11 14  2  0  0  0  0
 11 26  1  0  0  0  0
 12 18  1  0  0  0  0
 13 20  1  0  0  0  0
 14 19  1  0  0  0  0
 15 16  2  0  0  0  0
 15 21  1  0  0  0  0
 16 23  1  0  0  0  0
 17 20  1  0  0  0  0
 17 24  1  0  0  0  0
 17 25  2  0  0  0  0
 19 20  1  1  0  0  0
 21 22  2  0  0  0  0
 22 23  1  0  0  0  0
 23 24  1  0  0  0  0
  1 27  1  0  0  0  0
  2 28  1  0  0  0  0
  3 29  1  0  0  0  0
  4 30  1  0  0  0  0
  5 31  1  0  0  0  0
  6 32  1  0  0  0  0
  7 33  1  0  0  0  0
  8 34  1  0  0  0  0
  9 35  1  0  0  0  0
 10 36  1  0  0  0  0
 11 37  1  0  0  0  0
 18 38  1  0  0  0  0
 18 39  1  0  0  0  0
 18 40  1  0  0  0  0
 19 41  1  0  0  0  0
 19 42  1  0  0  0  0
 20 43  1  0  0  0  0
 24 44  1  0  0  0  0
M  END
> <clash_score>
0

> <docking_score>
-9.887198448181152

> <overlap_score>
0.9675723910331726

$$$$
BENZO_181_1
  -OEChem-08222022393D

 47 50  0     1  0  0  0  0  0999 V2000
   14.2691    1.3522   23.0572 C   0  0  0  0  0  0  0  0  0  0  0  0
   13.7679    0.5995   24.1192 C   0  0  0  0  0  0  0  0  0  0  0  0
   13.3927    2.0047   22.1900 C   0  0  0  0  0  0  0  0  0  0  0  0
    4.0980    2.1130   19.5350 C   0  0  0  0  0  0  0  0  0  0  0  0
    4.2970    1.6690   20.8430 C   0  0  0  0  0  0  0  0  0  0  0  0
   12.3904    0.4991   24.3140 C   0  0  0  0  0  0  0  0  0  0  0  0
   12.0152    1.9043   22.3848 C   0  0  0  0  0  0  0  0  0  0  0  0
    8.3310   -2.7170   25.3430 C   0  0  0  0  0  0  0  0  0  0  0  0
   10.2570   -3.5000   24.1350 C   0  0  0  0  0  0  0  0  0  0  0  0
    8.3510   -1.5420   24.6110 C   0  0  0  0  0  0  0  0  0  0  0  0
   10.2760   -2.3270   23.4020 C   0  0  0  0  0  0  0  0  0  0  0  0
    4.9400    1.7060   18.5060 C   0  0  0  0  0  0  0  0  0  0  0  0
    5.3360    0.8000   21.1530 C   0  0  0  0  0  0  0  0  0  0  0  0
    9.2850   -3.7090   25.1090 C   0  0  0  0  0  0  0  0  0  0  0  0
   11.5140    1.1515   23.4468 C   0  0  0  0  0  0  0  0  0  0  0  0
    9.3300   -1.3350   23.6390 C   0  0  0  0  0  0  0  0  0  0  0  0
    5.9810    0.8330   18.8060 C   0  0  0  0  0  0  0  0  0  0  0  0
    6.1600    0.3870   20.1140 C   0  0  0  0  0  0  0  0  0  0  0  0
    8.9510    0.1280   21.6880 C   0  0  0  0  0  0  0  0  0  0  0  0
    9.2618   -4.9724   25.8910 C   0  0  0  0  0  0  0  0  0  0  0  0
   10.0220    1.0430   23.6570 C   0  0  0  0  0  0  0  0  0  0  0  0
    9.4200   -0.0840   22.9530 C   0  0  1  0  0  0  0  0  0  0  0  0
    6.9440    0.2550   18.0100 N   0  0  0  0  0  0  0  0  0  0  0  0
    7.6830   -0.5170   18.7600 N   0  0  0  0  0  0  0  0  0  0  0  0
    7.2210   -0.4620   20.0350 N   0  0  0  0  0  0  0  0  0  0  0  0
    8.0810   -0.9750   21.0820 N   0  0  0  0  0  0  0  0  0  0  0  0
    9.1870    1.1500   21.0630 O   0  0  0  0  0  0  0  0  0  0  0  0
   15.3418    1.4314   22.9065 H   0  0  0  0  0  0  0  0  0  0  0  0
   14.4502    0.0923   24.7952 H   0  0  0  0  0  0  0  0  0  0  0  0
   13.7826    2.5917   21.3638 H   0  0  0  0  0  0  0  0  0  0  0  0
    3.2714    2.7876   19.3199 H   0  0  0  0  0  0  0  0  0  0  0  0
    3.6283    2.0091   21.6296 H   0  0  0  0  0  0  0  0  0  0  0  0
   12.0089   -0.0898   25.1440 H   0  0  0  0  0  0  0  0  0  0  0  0
   11.3399    2.4159   21.7041 H   0  0  0  0  0  0  0  0  0  0  0  0
    7.5655   -2.8644   26.1055 H   0  0  0  0  0  0  0  0  0  0  0  0
   11.0125   -4.2662   23.9435 H   0  0  0  0  0  0  0  0  0  0  0  0
    7.5953   -0.7782   24.7971 H   0  0  0  0  0  0  0  0  0  0  0  0
   11.0394   -2.1837   22.6349 H   0  0  0  0  0  0  0  0  0  0  0  0
    4.7824    2.0670   17.4883 H   0  0  0  0  0  0  0  0  0  0  0  0
    5.4937    0.4574   22.1805 H   0  0  0  0  0  0  0  0  0  0  0  0
    8.6408   -5.7227   25.3864 H   0  0  0  0  0  0  0  0  0  0  0  0
   10.2726   -5.3829   26.0135 H   0  0  0  0  0  0  0  0  0  0  0  0
    8.8606   -4.8102   26.9000 H   0  0  0  0  0  0  0  0  0  0  0  0
    9.8388    0.9439   24.7360 H   0  0  0  0  0  0  0  0  0  0  0  0
    9.5396    1.9876   23.3725 H   0  0  0  0  0  0  0  0  0  0  0  0
    8.1264    0.3141   23.4937 H   0  0  0  0  0  0  0  0  0  0  0  0
    8.1479   -1.8049   21.3777 H   0  0  0  0  0  0  0  0  0  0  0  0
  1  2  1  0  0  0  0
  1  3  2  0  0  0  0
  2  6  2  0  0  0  0
  3  7  1  0  0  0  0
  4  5  1  0  0  0  0
  4 12  2  0  0  0  0
  5 13  2  0  0  0  0
  6 15  1  0  0  0  0
  7 15  2  0  0  0  0
  8 10  2  0  0  0  0
  8 14  1  0  0  0  0
  9 11  1  0  0  0  0
  9 14  2  0  0  0  0
 10 16  1  0  0  0  0
 11 16  2  0  0  0  0
 12 17  1  0  0  0  0
 13 18  1  0  0  0  0
 14 20  1  0  0  0  0
 15 21  1  0  0  0  0
 16 22  1  0  0  0  0
 17 18  2  0  0  0  0
 17 23  1  0  0  0  0
 18 25  1  0  0  0  0
 19 22  1  0  0  0  0
 19 26  1  0  0  0  0
 19 27  2  0  0  0  0
 21 22  1  1  0  0  0
 23 24  2  0  0  0  0
 24 25  1  0  0  0  0
 25 26  1  0  0  0  0
  1 28  1  0  0  0  0
  2 29  1  0  0  0  0
  3 30  1  0  0  0  0
  4 31  1  0  0  0  0
  5 32  1  0  0  0  0
  6 33  1  0  0  0  0
  7 34  1  0  0  0  0
  8 35  1  0  0  0  0
  9 36  1  0  0  0  0
 10 37  1  0  0  0  0
 11 38  1  0  0  0  0
 12 39  1  0  0  0  0
 13 40  1  0  0  0  0
 20 41  1  0  0  0  0
 20 42  1  0  0  0  0
 20 43  1  0  0  0  0
 21 44  1  0  0  0  0
 21 45  1  0  0  0  0
 22 46  1  0  0  0  0
 26 47  1  0  0  0  0
M  END
> <clash_score>
0

> <docking_score>
-9.155228614807129

> <overlap_score>
0.9815404415130615

$$$$
BENZO_179_1
  -OEChem-08222022393D

 59 63  0     1  0  0  0  0  0999 V2000
    4.0980    2.1130   19.5350 C   0  0  0  0  0  0  0  0  0  0  0  0
    4.2970    1.6690   20.8430 C   0  0  0  0  0  0  0  0  0  0  0  0
    8.3510   -1.5420   24.6110 C   0  0  0  0  0  0  0  0  0  0  0  0
   10.2760   -2.3270   23.4020 C   0  0  0  0  0  0  0  0  0  0  0  0
    4.9400    1.7060   18.5060 C   0  0  0  0  0  0  0  0  0  0  0  0
    5.3360    0.8000   21.1530 C   0  0  0  0  0  0  0  0  0  0  0  0
    8.3310   -2.7170   25.3430 C   0  0  0  0  0  0  0  0  0  0  0  0
   10.2570   -3.5000   24.1350 C   0  0  0  0  0  0  0  0  0  0  0  0
   12.3139    2.2980   23.4429 C   0  0  0  0  0  0  0  0  0  0  0  0
   12.3972    0.1128   23.2127 C   0  0  0  0  0  0  0  0  0  0  0  0
    9.3300   -1.3350   23.6390 C   0  0  0  0  0  0  0  0  0  0  0  0
   11.5145    1.1392   23.4448 C   0  0  0  0  0  0  0  0  0  0  0  0
    5.9810    0.8330   18.8060 C   0  0  0  0  0  0  0  0  0  0  0  0
    6.1600    0.3870   20.1140 C   0  0  0  0  0  0  0  0  0  0  0  0
    9.2850   -3.7090   25.1090 C   0  0  0  0  0  0  0  0  0  0  0  0
    8.9510    0.1280   21.6880 C   0  0  0  0  0  0  0  0  0  0  0  0
    7.3211   -6.8875   26.5227 C   0  0  0  0  0  0  0  0  0  0  0  0
    7.3523   -5.5278   27.2244 C   0  0  0  0  0  0  0  0  0  0  0  0
    7.9422   -6.8107   25.1261 C   0  0  0  0  0  0  0  0  0  0  0  0
    8.7641   -4.9418   27.2163 C   0  0  0  0  0  0  0  0  0  0  0  0
    9.3411   -6.1879   25.1670 C   0  0  0  0  0  0  0  0  0  0  0  0
   14.8733    0.0190   22.8400 C   0  0  0  0  0  0  0  0  0  0  0  0
   10.0220    1.0430   23.6570 C   0  0  0  0  0  0  0  0  0  0  0  0
    9.4200   -0.0840   22.9530 C   0  0  1  0  0  0  0  0  0  0  0  0
   13.6051    2.0333   23.2269 N   0  0  0  0  0  0  0  0  0  0  0  0
    6.9440    0.2550   18.0100 N   0  0  0  0  0  0  0  0  0  0  0  0
    7.6830   -0.5170   18.7600 N   0  0  0  0  0  0  0  0  0  0  0  0
   13.6239    0.6964   23.0910 N   0  0  0  0  0  0  0  0  0  0  0  0
    7.2210   -0.4620   20.0350 N   0  0  0  0  0  0  0  0  0  0  0  0
    9.2641   -4.8861   25.8398 N   0  0  0  0  0  0  0  0  0  0  0  0
    8.0810   -0.9750   21.0820 N   0  0  0  0  0  0  0  0  0  0  0  0
    9.1870    1.1500   21.0630 O   0  0  0  0  0  0  0  0  0  0  0  0
    3.2714    2.7876   19.3199 H   0  0  0  0  0  0  0  0  0  0  0  0
    3.6283    2.0091   21.6296 H   0  0  0  0  0  0  0  0  0  0  0  0
    7.5957   -0.7779   24.7973 H   0  0  0  0  0  0  0  0  0  0  0  0
   11.0384   -2.1852   22.6338 H   0  0  0  0  0  0  0  0  0  0  0  0
    4.7824    2.0670   17.4883 H   0  0  0  0  0  0  0  0  0  0  0  0
    5.4937    0.4574   22.1805 H   0  0  0  0  0  0  0  0  0  0  0  0
    7.5634   -2.8637   26.1037 H   0  0  0  0  0  0  0  0  0  0  0  0
   11.0139   -4.2645   23.9419 H   0  0  0  0  0  0  0  0  0  0  0  0
   12.0117    3.3252   23.5906 H   0  0  0  0  0  0  0  0  0  0  0  0
   12.2606   -0.9567   23.1272 H   0  0  0  0  0  0  0  0  0  0  0  0
    7.8644   -7.6283   27.1289 H   0  0  0  0  0  0  0  0  0  0  0  0
    6.2830   -7.2423   26.4478 H   0  0  0  0  0  0  0  0  0  0  0  0
    6.6663   -4.8405   26.7221 H   0  0  0  0  0  0  0  0  0  0  0  0
    7.0062   -5.6400   28.2540 H   0  0  0  0  0  0  0  0  0  0  0  0
    8.0018   -7.8160   24.6962 H   0  0  0  0  0  0  0  0  0  0  0  0
    7.2963   -6.2182   24.4678 H   0  0  0  0  0  0  0  0  0  0  0  0
    8.7322   -3.9404   27.6532 H   0  0  0  0  0  0  0  0  0  0  0  0
    9.4260   -5.5610   27.8283 H   0  0  0  0  0  0  0  0  0  0  0  0
   10.0249   -6.8474   25.7028 H   0  0  0  0  0  0  0  0  0  0  0  0
    9.7015   -6.0700   24.1446 H   0  0  0  0  0  0  0  0  0  0  0  0
   15.0151   -0.0371   21.7575 H   0  0  0  0  0  0  0  0  0  0  0  0
   15.6904    0.5783   23.3041 H   0  0  0  0  0  0  0  0  0  0  0  0
   14.8341   -0.9840   23.2740 H   0  0  0  0  0  0  0  0  0  0  0  0
    9.8382    0.9666   24.7377 H   0  0  0  0  0  0  0  0  0  0  0  0
    9.5448    1.9843   23.3535 H   0  0  0  0  0  0  0  0  0  0  0  0
    8.1249    0.3211   23.4916 H   0  0  0  0  0  0  0  0  0  0  0  0
    8.1256   -1.8039   21.3539 H   0  0  0  0  0  0  0  0  0  0  0  0
  1  2  1  0  0  0  0
  1  5  2  0  0  0  0
  2  6  2  0  0  0  0
  3  7  2  0  0  0  0
  3 11  1  0  0  0  0
  4  8  1  0  0  0  0
  4 11  2  0  0  0  0
  5 13  1  0  0  0  0
  6 14  1  0  0  0  0
  7 15  1  0  0  0  0
  8 15  2  0  0  0  0
  9 12  1  0  0  0  0
  9 25  2  0  0  0  0
 10 12  2  0  0  0  0
 10 28  1  0  0  0  0
 11 24  1  0  0  0  0
 12 23  1  0  0  0  0
 13 14  2  0  0  0  0
 13 26  1  0  0  0  0
 14 29  1  0  0  0  0
 15 30  1  0  0  0  0
 16 24  1  0  0  0  0
 16 31  1  0  0  0  0
 16 32  2  0  0  0  0
 17 18  1  0  0  0  0
 17 19  1  0  0  0  0
 18 20  1  0  0  0  0
 19 21  1  0  0  0  0
 20 30  1  0  0  0  0
 21 30  1  0  0  0  0
 22 28  1  0  0  0  0
 23 24  1  1  0  0  0
 25 28  1  0  0  0  0
 26 27  2  0  0  0  0
 27 29  1  0  0  0  0
 29 31  1  0  0  0  0
  1 33  1  0  0  0  0
  2 34  1  0  0  0  0
  3 35  1  0  0  0  0
  4 36  1  0  0  0  0
  5 37  1  0  0  0  0
  6 38  1  0  0  0  0
  7 39  1  0  0  0  0
  8 40  1  0  0  0  0
  9 41  1  0  0  0  0
 10 42  1  0  0  0  0
 17 43  1  0  0  0  0
 17 44  1  0  0  0  0
 18 45  1  0  0  0  0
 18 46  1  0  0  0  0
 19 47  1  0  0  0  0
 19 48  1  0  0  0  0
 20 49  1  0  0  0  0
 20 50  1  0  0  0  0
 21 51  1  0  0  0  0
 21 52  1  0  0  0  0
 22 53  1  0  0  0  0
 22 54  1  0  0  0  0
 22 55  1  0  0  0  0
 23 56  1  0  0  0  0
 23 57  1  0  0  0  0
 24 58  1  0  0  0  0
 31 59  1  0  0  0  0
M  END
> <clash_score>
0

> <docking_score>
-8.81719970703125

> <overlap_score>
1.0270172357559204

$$$$
BENZO_181_2
  -OEChem-08222022393D

 47 50  0     1  0  0  0  0  0999 V2000
   13.8479    0.1200   25.3901 C   0  0  0  0  0  0  0  0  0  0  0  0
   12.6818   -0.0763   26.1298 C   0  0  0  0  0  0  0  0  0  0  0  0
   13.7730    0.6157   24.0884 C   0  0  0  0  0  0  0  0  0  0  0  0
    4.0980    2.1130   19.5350 C   0  0  0  0  0  0  0  0  0  0  0  0
    4.2970    1.6690   20.8430 C   0  0  0  0  0  0  0  0  0  0  0  0
   11.4407    0.2231   25.5679 C   0  0  0  0  0  0  0  0  0  0  0  0
   12.5319    0.9151   23.5265 C   0  0  0  0  0  0  0  0  0  0  0  0
    8.3310   -2.7170   25.3430 C   0  0  0  0  0  0  0  0  0  0  0  0
   10.2570   -3.5000   24.1350 C   0  0  0  0  0  0  0  0  0  0  0  0
    8.3510   -1.5420   24.6110 C   0  0  0  0  0  0  0  0  0  0  0  0
   10.2760   -2.3270   23.4020 C   0  0  0  0  0  0  0  0  0  0  0  0
    4.9400    1.7060   18.5060 C   0  0  0  0  0  0  0  0  0  0  0  0
    5.3360    0.8000   21.1530 C   0  0  0  0  0  0  0  0  0  0  0  0
    9.2850   -3.7090   25.1090 C   0  0  0  0  0  0  0  0  0  0  0  0
   11.3657    0.7188   24.2662 C   0  0  0  0  0  0  0  0  0  0  0  0
    9.3300   -1.3350   23.6390 C   0  0  0  0  0  0  0  0  0  0  0  0
    5.9810    0.8330   18.8060 C   0  0  0  0  0  0  0  0  0  0  0  0
    6.1600    0.3870   20.1140 C   0  0  0  0  0  0  0  0  0  0  0  0
    8.9510    0.1280   21.6880 C   0  0  0  0  0  0  0  0  0  0  0  0
    9.2618   -4.9724   25.8910 C   0  0  0  0  0  0  0  0  0  0  0  0
   10.0220    1.0430   23.6570 C   0  0  0  0  0  0  0  0  0  0  0  0
    9.4200   -0.0840   22.9530 C   0  0  2  0  0  0  0  0  0  0  0  0
    6.9440    0.2550   18.0100 N   0  0  0  0  0  0  0  0  0  0  0  0
    7.6830   -0.5170   18.7600 N   0  0  0  0  0  0  0  0  0  0  0  0
    7.2210   -0.4620   20.0350 N   0  0  0  0  0  0  0  0  0  0  0  0
    8.0810   -0.9750   21.0820 N   0  0  0  0  0  0  0  0  0  0  0  0
    9.1870    1.1500   21.0630 O   0  0  0  0  0  0  0  0  0  0  0  0
   14.8143   -0.1119   25.8282 H   0  0  0  0  0  0  0  0  0  0  0  0
   12.7400   -0.4613   27.1438 H   0  0  0  0  0  0  0  0  0  0  0  0
   14.6807    0.7697   23.5125 H   0  0  0  0  0  0  0  0  0  0  0  0
    3.2714    2.7876   19.3199 H   0  0  0  0  0  0  0  0  0  0  0  0
    3.6283    2.0091   21.6296 H   0  0  0  0  0  0  0  0  0  0  0  0
   10.5374    0.0668   26.1517 H   0  0  0  0  0  0  0  0  0  0  0  0
   12.4832    1.3008   22.5116 H   0  0  0  0  0  0  0  0  0  0  0  0
    7.5655   -2.8644   26.1055 H   0  0  0  0  0  0  0  0  0  0  0  0
   11.0125   -4.2662   23.9435 H   0  0  0  0  0  0  0  0  0  0  0  0
    7.5953   -0.7782   24.7971 H   0  0  0  0  0  0  0  0  0  0  0  0
   11.0394   -2.1837   22.6349 H   0  0  0  0  0  0  0  0  0  0  0  0
    4.7824    2.0670   17.4883 H   0  0  0  0  0  0  0  0  0  0  0  0
    5.4937    0.4574   22.1805 H   0  0  0  0  0  0  0  0  0  0  0  0
    8.6408   -5.7227   25.3864 H   0  0  0  0  0  0  0  0  0  0  0  0
   10.2726   -5.3829   26.0135 H   0  0  0  0  0  0  0  0  0  0  0  0
    8.8606   -4.8102   26.9000 H   0  0  0  0  0  0  0  0  0  0  0  0
    9.3544    1.3715   24.4657 H   0  0  0  0  0  0  0  0  0  0  0  0
   10.1173    1.9145   22.9956 H   0  0  0  0  0  0  0  0  0  0  0  0
   10.7193   -0.4348   22.4312 H   0  0  0  0  0  0  0  0  0  0  0  0
    8.1479   -1.8049   21.3777 H   0  0  0  0  0  0  0  0  0  0  0  0
  1  2  1  0  0  0  0
  1  3  2  0  0  0  0
  2  6  2  0  0  0  0
  3  7  1  0  0  0  0
  4  5  1  0  0  0  0
  4 12  2  0  0  0  0
  5 13  2  0  0  0  0
  6 15  1  0  0  0  0
  7 15  2  0  0  0  0
  8 10  2  0  0  0  0
  8 14  1  0  0  0  0
  9 11  1  0  0  0  0
  9 14  2  0  0  0  0
 10 16  1  0  0  0  0
 11 16  2  0  0  0  0
 12 17  1  0  0  0  0
 13 18  1  0  0  0  0
 14 20  1  0  0  0  0
 15 21  1  0  0  0  0
 16 22  1  0  0  0  0
 17 18  2  0  0  0  0
 17 23  1  0  0  0  0
 18 25  1  0  0  0  0
 19 22  1  0  0  0  0
 19 26  1  0  0  0  0
 19 27  2  0  0  0  0
 21 22  1  6  0  0  0
 23 24  2  0  0  0  0
 24 25  1  0  0  0  0
 25 26  1  0  0  0  0
  1 28  1  0  0  0  0
  2 29  1  0  0  0  0
  3 30  1  0  0  0  0
  4 31  1  0  0  0  0
  5 32  1  0  0  0  0
  6 33  1  0  0  0  0
  7 34  1  0  0  0  0
  8 35  1  0  0  0  0
  9 36  1  0  0  0  0
 10 37  1  0  0  0  0
 11 38  1  0  0  0  0
 12 39  1  0  0  0  0
 13 40  1  0  0  0  0
 20 41  1  0  0  0  0
 20 42  1  0  0  0  0
 20 43  1  0  0  0  0
 21 44  1  0  0  0  0
 21 45  1  0  0  0  0
 22 46  1  0  0  0  0
 26 47  1  0  0  0  0
M  END
> <clash_score>
0

> <docking_score>
-8.240288734436035

> <overlap_score>
0.9049127101898193

$$$$
BENZO_180_2
  -OEChem-08222022393D

 44 47  0     1  0  0  0  0  0999 V2000
    4.0980    2.1130   19.5350 C   0  0  0  0  0  0  0  0  0  0  0  0
    4.2970    1.6690   20.8430 C   0  0  0  0  0  0  0  0  0  0  0  0
    8.3310   -2.7170   25.3430 C   0  0  0  0  0  0  0  0  0  0  0  0
   10.2570   -3.5000   24.1350 C   0  0  0  0  0  0  0  0  0  0  0  0
    8.3510   -1.5420   24.6110 C   0  0  0  0  0  0  0  0  0  0  0  0
   10.2760   -2.3270   23.4020 C   0  0  0  0  0  0  0  0  0  0  0  0
    4.9400    1.7060   18.5060 C   0  0  0  0  0  0  0  0  0  0  0  0
    5.3360    0.8000   21.1530 C   0  0  0  0  0  0  0  0  0  0  0  0
   12.2547   -0.1045   24.2981 C   0  0  0  0  0  0  0  0  0  0  0  0
   13.0574   -0.3497   25.3904 C   0  0  0  0  0  0  0  0  0  0  0  0
   11.0384    0.9187   25.9941 C   0  0  0  0  0  0  0  0  0  0  0  0
    9.2850   -3.7090   25.1090 C   0  0  0  0  0  0  0  0  0  0  0  0
    9.3300   -1.3350   23.6390 C   0  0  0  0  0  0  0  0  0  0  0  0
   11.0851    0.6304   24.6477 C   0  0  0  0  0  0  0  0  0  0  0  0
    5.9810    0.8330   18.8060 C   0  0  0  0  0  0  0  0  0  0  0  0
    6.1600    0.3870   20.1140 C   0  0  0  0  0  0  0  0  0  0  0  0
    8.9510    0.1280   21.6880 C   0  0  0  0  0  0  0  0  0  0  0  0
    9.2618   -4.9724   25.8910 C   0  0  0  0  0  0  0  0  0  0  0  0
   10.0220    1.0430   23.6570 C   0  0  0  0  0  0  0  0  0  0  0  0
    9.4200   -0.0840   22.9530 C   0  0  2  0  0  0  0  0  0  0  0  0
    6.9440    0.2550   18.0100 N   0  0  0  0  0  0  0  0  0  0  0  0
    7.6830   -0.5170   18.7600 N   0  0  0  0  0  0  0  0  0  0  0  0
    7.2210   -0.4620   20.0350 N   0  0  0  0  0  0  0  0  0  0  0  0
    8.0810   -0.9750   21.0820 N   0  0  0  0  0  0  0  0  0  0  0  0
    9.1870    1.1500   21.0630 O   0  0  0  0  0  0  0  0  0  0  0  0
   12.4008    0.3047   26.8302 S   0  0  0  0  0  0  0  0  0  0  0  0
    3.2714    2.7876   19.3199 H   0  0  0  0  0  0  0  0  0  0  0  0
    3.6283    2.0091   21.6296 H   0  0  0  0  0  0  0  0  0  0  0  0
    7.5655   -2.8644   26.1055 H   0  0  0  0  0  0  0  0  0  0  0  0
   11.0125   -4.2662   23.9435 H   0  0  0  0  0  0  0  0  0  0  0  0
    7.5953   -0.7782   24.7971 H   0  0  0  0  0  0  0  0  0  0  0  0
   11.0394   -2.1837   22.6349 H   0  0  0  0  0  0  0  0  0  0  0  0
    4.7824    2.0670   17.4883 H   0  0  0  0  0  0  0  0  0  0  0  0
    5.4937    0.4574   22.1805 H   0  0  0  0  0  0  0  0  0  0  0  0
   12.4985   -0.4387   23.2976 H   0  0  0  0  0  0  0  0  0  0  0  0
   13.9977   -0.8824   25.4120 H   0  0  0  0  0  0  0  0  0  0  0  0
   10.2710    1.4591   26.5308 H   0  0  0  0  0  0  0  0  0  0  0  0
    8.6408   -5.7227   25.3864 H   0  0  0  0  0  0  0  0  0  0  0  0
   10.2726   -5.3829   26.0135 H   0  0  0  0  0  0  0  0  0  0  0  0
    8.8606   -4.8102   26.9000 H   0  0  0  0  0  0  0  0  0  0  0  0
    9.2444    1.5932   24.2048 H   0  0  0  0  0  0  0  0  0  0  0  0
   10.4399    1.7712   22.9492 H   0  0  0  0  0  0  0  0  0  0  0  0
   10.7193   -0.4348   22.4312 H   0  0  0  0  0  0  0  0  0  0  0  0
    8.1479   -1.8049   21.3777 H   0  0  0  0  0  0  0  0  0  0  0  0
  1  2  1  0  0  0  0
  1  7  2  0  0  0  0
  2  8  2  0  0  0  0
  3  5  2  0  0  0  0
  3 12  1  0  0  0  0
  4  6  1  0  0  0  0
  4 12  2  0  0  0  0
  5 13  1  0  0  0  0
  6 13  2  0  0  0  0
  7 15  1  0  0  0  0
  8 16  1  0  0  0  0
  9 10  2  0  0  0  0
  9 14  1  0  0  0  0
 10 26  1  0  0  0  0
 11 14  2  0  0  0  0
 11 26  1  0  0  0  0
 12 18  1  0  0  0  0
 13 20  1  0  0  0  0
 14 19  1  0  0  0  0
 15 16  2  0  0  0  0
 15 21  1  0  0  0  0
 16 23  1  0  0  0  0
 17 20  1  0  0  0  0
 17 24  1  0  0  0  0
 17 25  2  0  0  0  0
 19 20  1  6  0  0  0
 21 22  2  0  0  0  0
 22 23  1  0  0  0  0
 23 24  1  0  0  0  0
  1 27  1  0  0  0  0
  2 28  1  0  0  0  0
  3 29  1  0  0  0  0
  4 30  1  0  0  0  0
  5 31  1  0  0  0  0
  6 32  1  0  0  0  0
  7 33  1  0  0  0  0
  8 34  1  0  0  0  0
  9 35  1  0  0  0  0
 10 36  1  0  0  0  0
 11 37  1  0  0  0  0
 18 38  1  0  0  0  0
 18 39  1  0  0  0  0
 18 40  1  0  0  0  0
 19 41  1  0  0  0  0
 19 42  1  0  0  0  0
 20 43  1  0  0  0  0
 24 44  1  0  0  0  0
M  END
> <clash_score>
0.6169182314133022

> <docking_score>
-7.207417011260986

> <overlap_score>
0.856644332408905

$$$$
BENZO_182_1
  -OEChem-08222022393D

 47 50  0     1  0  0  0  0  0999 V2000
    4.0980    2.1130   19.5350 C   0  0  0  0  0  0  0  0  0  0  0  0
    4.2970    1.6690   20.8430 C   0  0  0  0  0  0  0  0  0  0  0  0
   13.7669    0.5967   24.1200 C   0  0  0  0  0  0  0  0  0  0  0  0
   12.3892    0.4979   24.3142 C   0  0  0  0  0  0  0  0  0  0  0  0
    8.3310   -2.7170   25.3430 C   0  0  0  0  0  0  0  0  0  0  0  0
   10.2570   -3.5000   24.1350 C   0  0  0  0  0  0  0  0  0  0  0  0
    8.3510   -1.5420   24.6110 C   0  0  0  0  0  0  0  0  0  0  0  0
   10.2760   -2.3270   23.4020 C   0  0  0  0  0  0  0  0  0  0  0  0
    4.9400    1.7060   18.5060 C   0  0  0  0  0  0  0  0  0  0  0  0
    5.3360    0.8000   21.1530 C   0  0  0  0  0  0  0  0  0  0  0  0
   14.2694    1.3493   23.0584 C   0  0  0  0  0  0  0  0  0  0  0  0
   12.0165    1.9040   22.3852 C   0  0  0  0  0  0  0  0  0  0  0  0
    9.2850   -3.7090   25.1090 C   0  0  0  0  0  0  0  0  0  0  0  0
    9.3300   -1.3350   23.6390 C   0  0  0  0  0  0  0  0  0  0  0  0
   11.5140    1.1515   23.4468 C   0  0  0  0  0  0  0  0  0  0  0  0
    5.9810    0.8330   18.8060 C   0  0  0  0  0  0  0  0  0  0  0  0
    6.1600    0.3870   20.1140 C   0  0  0  0  0  0  0  0  0  0  0  0
   13.3942    2.0028   22.1910 C   0  0  0  0  0  0  0  0  0  0  0  0
    8.9510    0.1280   21.6880 C   0  0  0  0  0  0  0  0  0  0  0  0
    9.2618   -4.9724   25.8910 C   0  0  0  0  0  0  0  0  0  0  0  0
   10.0220    1.0430   23.6570 C   0  0  0  0  0  0  0  0  0  0  0  0
    9.4200   -0.0840   22.9530 C   0  0  1  0  0  0  0  0  0  0  0  0
    6.9440    0.2550   18.0100 N   0  0  0  0  0  0  0  0  0  0  0  0
    7.6830   -0.5170   18.7600 N   0  0  0  0  0  0  0  0  0  0  0  0
    7.2210   -0.4620   20.0350 N   0  0  0  0  0  0  0  0  0  0  0  0
    8.0810   -0.9750   21.0820 N   0  0  0  0  0  0  0  0  0  0  0  0
    9.1870    1.1500   21.0630 O   0  0  0  0  0  0  0  0  0  0  0  0
   14.0147    2.9302   20.8808 Cl  0  0  0  0  0  0  0  0  0  0  0  0
    3.2714    2.7876   19.3199 H   0  0  0  0  0  0  0  0  0  0  0  0
    3.6283    2.0091   21.6296 H   0  0  0  0  0  0  0  0  0  0  0  0
   14.4481    0.0875   24.7956 H   0  0  0  0  0  0  0  0  0  0  0  0
   12.0065   -0.0907   25.1439 H   0  0  0  0  0  0  0  0  0  0  0  0
    7.5655   -2.8644   26.1055 H   0  0  0  0  0  0  0  0  0  0  0  0
   11.0125   -4.2662   23.9435 H   0  0  0  0  0  0  0  0  0  0  0  0
    7.5953   -0.7782   24.7971 H   0  0  0  0  0  0  0  0  0  0  0  0
   11.0394   -2.1837   22.6349 H   0  0  0  0  0  0  0  0  0  0  0  0
    4.7824    2.0670   17.4883 H   0  0  0  0  0  0  0  0  0  0  0  0
    5.4937    0.4574   22.1805 H   0  0  0  0  0  0  0  0  0  0  0  0
   15.3456    1.4172   22.9191 H   0  0  0  0  0  0  0  0  0  0  0  0
   11.3299    2.4121   21.7119 H   0  0  0  0  0  0  0  0  0  0  0  0
    8.6408   -5.7227   25.3864 H   0  0  0  0  0  0  0  0  0  0  0  0
   10.2726   -5.3829   26.0135 H   0  0  0  0  0  0  0  0  0  0  0  0
    8.8606   -4.8102   26.9000 H   0  0  0  0  0  0  0  0  0  0  0  0
    9.8388    0.9439   24.7360 H   0  0  0  0  0  0  0  0  0  0  0  0
    9.5396    1.9876   23.3725 H   0  0  0  0  0  0  0  0  0  0  0  0
    8.1264    0.3141   23.4937 H   0  0  0  0  0  0  0  0  0  0  0  0
    8.1479   -1.8049   21.3777 H   0  0  0  0  0  0  0  0  0  0  0  0
  1  2  1  0  0  0  0
  1  9  2  0  0  0  0
  2 10  2  0  0  0  0
  3  4  2  0  0  0  0
  3 11  1  0  0  0  0
  4 15  1  0  0  0  0
  5  7  2  0  0  0  0
  5 13  1  0  0  0  0
  6  8  1  0  0  0  0
  6 13  2  0  0  0  0
  7 14  1  0  0  0  0
  8 14  2  0  0  0  0
  9 16  1  0  0  0  0
 10 17  1  0  0  0  0
 11 18  2  0  0  0  0
 12 15  2  0  0  0  0
 12 18  1  0  0  0  0
 13 20  1  0  0  0  0
 14 22  1  0  0  0  0
 15 21  1  0  0  0  0
 16 17  2  0  0  0  0
 16 23  1  0  0  0  0
 17 25  1  0  0  0  0
 18 28  1  0  0  0  0
 19 22  1  0  0  0  0
 19 26  1  0  0  0  0
 19 27  2  0  0  0  0
 21 22  1  1  0  0  0
 23 24  2  0  0  0  0
 24 25  1  0  0  0  0
 25 26  1  0  0  0  0
  1 29  1  0  0  0  0
  2 30  1  0  0  0  0
  3 31  1  0  0  0  0
  4 32  1  0  0  0  0
  5 33  1  0  0  0  0
  6 34  1  0  0  0  0
  7 35  1  0  0  0  0
  8 36  1  0  0  0  0
  9 37  1  0  0  0  0
 10 38  1  0  0  0  0
 11 39  1  0  0  0  0
 12 40  1  0  0  0  0
 20 41  1  0  0  0  0
 20 42  1  0  0  0  0
 20 43  1  0  0  0  0
 21 44  1  0  0  0  0
 21 45  1  0  0  0  0
 22 46  1  0  0  0  0
 26 47  1  0  0  0  0
M  END
> <clash_score>
0

> <docking_score>
-8.271904945373535

> <overlap_score>
0.9849194884300232

$$$$
BENZO_182_2
  -OEChem-08222022393D

 47 50  0     1  0  0  0  0  0999 V2000
    4.0980    2.1130   19.5350 C   0  0  0  0  0  0  0  0  0  0  0  0
    4.2970    1.6690   20.8430 C   0  0  0  0  0  0  0  0  0  0  0  0
   13.7731    0.6181   24.0892 C   0  0  0  0  0  0  0  0  0  0  0  0
   12.5319    0.9161   23.5268 C   0  0  0  0  0  0  0  0  0  0  0  0
    8.3310   -2.7170   25.3430 C   0  0  0  0  0  0  0  0  0  0  0  0
   10.2570   -3.5000   24.1350 C   0  0  0  0  0  0  0  0  0  0  0  0
    8.3510   -1.5420   24.6110 C   0  0  0  0  0  0  0  0  0  0  0  0
   10.2760   -2.3270   23.4020 C   0  0  0  0  0  0  0  0  0  0  0  0
    4.9400    1.7060   18.5060 C   0  0  0  0  0  0  0  0  0  0  0  0
    5.3360    0.8000   21.1530 C   0  0  0  0  0  0  0  0  0  0  0  0
   13.8481    0.1225   25.3909 C   0  0  0  0  0  0  0  0  0  0  0  0
   11.4407    0.2233   25.5680 C   0  0  0  0  0  0  0  0  0  0  0  0
    9.2850   -3.7090   25.1090 C   0  0  0  0  0  0  0  0  0  0  0  0
    9.3300   -1.3350   23.6390 C   0  0  0  0  0  0  0  0  0  0  0  0
   11.3657    0.7188   24.2662 C   0  0  0  0  0  0  0  0  0  0  0  0
    5.9810    0.8330   18.8060 C   0  0  0  0  0  0  0  0  0  0  0  0
    6.1600    0.3870   20.1140 C   0  0  0  0  0  0  0  0  0  0  0  0
   12.6819   -0.0748   26.1303 C   0  0  0  0  0  0  0  0  0  0  0  0
    8.9510    0.1280   21.6880 C   0  0  0  0  0  0  0  0  0  0  0  0
    9.2618   -4.9724   25.8910 C   0  0  0  0  0  0  0  0  0  0  0  0
   10.0220    1.0430   23.6570 C   0  0  0  0  0  0  0  0  0  0  0  0
    9.4200   -0.0840   22.9530 C   0  0  2  0  0  0  0  0  0  0  0  0
    6.9440    0.2550   18.0100 N   0  0  0  0  0  0  0  0  0  0  0  0
    7.6830   -0.5170   18.7600 N   0  0  0  0  0  0  0  0  0  0  0  0
    7.2210   -0.4620   20.0350 N   0  0  0  0  0  0  0  0  0  0  0  0
    8.0810   -0.9750   21.0820 N   0  0  0  0  0  0  0  0  0  0  0  0
    9.1870    1.1500   21.0630 O   0  0  0  0  0  0  0  0  0  0  0  0
   12.7752   -0.6851   27.7367 Cl  0  0  0  0  0  0  0  0  0  0  0  0
    3.2714    2.7876   19.3199 H   0  0  0  0  0  0  0  0  0  0  0  0
    3.6283    2.0091   21.6296 H   0  0  0  0  0  0  0  0  0  0  0  0
   14.6810    0.7720   23.5131 H   0  0  0  0  0  0  0  0  0  0  0  0
   12.4829    1.3020   22.5119 H   0  0  0  0  0  0  0  0  0  0  0  0
    7.5655   -2.8644   26.1055 H   0  0  0  0  0  0  0  0  0  0  0  0
   11.0125   -4.2662   23.9435 H   0  0  0  0  0  0  0  0  0  0  0  0
    7.5953   -0.7782   24.7971 H   0  0  0  0  0  0  0  0  0  0  0  0
   11.0394   -2.1837   22.6349 H   0  0  0  0  0  0  0  0  0  0  0  0
    4.7824    2.0670   17.4883 H   0  0  0  0  0  0  0  0  0  0  0  0
    5.4937    0.4574   22.1805 H   0  0  0  0  0  0  0  0  0  0  0  0
   14.8224   -0.1052   25.8164 H   0  0  0  0  0  0  0  0  0  0  0  0
   10.5286    0.0707   26.1402 H   0  0  0  0  0  0  0  0  0  0  0  0
    8.6408   -5.7227   25.3864 H   0  0  0  0  0  0  0  0  0  0  0  0
   10.2726   -5.3829   26.0135 H   0  0  0  0  0  0  0  0  0  0  0  0
    8.8606   -4.8102   26.9000 H   0  0  0  0  0  0  0  0  0  0  0  0
    9.3544    1.3715   24.4657 H   0  0  0  0  0  0  0  0  0  0  0  0
   10.1173    1.9145   22.9956 H   0  0  0  0  0  0  0  0  0  0  0  0
   10.7193   -0.4348   22.4312 H   0  0  0  0  0  0  0  0  0  0  0  0
    8.1479   -1.8049   21.3777 H   0  0  0  0  0  0  0  0  0  0  0  0
  1  2  1  0  0  0  0
  1  9  2  0  0  0  0
  2 10  2  0  0  0  0
  3  4  2  0  0  0  0
  3 11  1  0  0  0  0
  4 15  1  0  0  0  0
  5  7  2  0  0  0  0
  5 13  1  0  0  0  0
  6  8  1  0  0  0  0
  6 13  2  0  0  0  0
  7 14  1  0  0  0  0
  8 14  2  0  0  0  0
  9 16  1  0  0  0  0
 10 17  1  0  0  0  0
 11 18  2  0  0  0  0
 12 15  2  0  0  0  0
 12 18  1  0  0  0  0
 13 20  1  0  0  0  0
 14 22  1  0  0  0  0
 15 21  1  0  0  0  0
 16 17  2  0  0  0  0
 16 23  1  0  0  0  0
 17 25  1  0  0  0  0
 18 28  1  0  0  0  0
 19 22  1  0  0  0  0
 19 26  1  0  0  0  0
 19 27  2  0  0  0  0
 21 22  1  6  0  0  0
 23 24  2  0  0  0  0
 24 25  1  0  0  0  0
 25 26  1  0  0  0  0
  1 29  1  0  0  0  0
  2 30  1  0  0  0  0
  3 31  1  0  0  0  0
  4 32  1  0  0  0  0
  5 33  1  0  0  0  0
  6 34  1  0  0  0  0
  7 35  1  0  0  0  0
  8 36  1  0  0  0  0
  9 37  1  0  0  0  0
 10 38  1  0  0  0  0
 11 39  1  0  0  0  0
 12 40  1  0  0  0  0
 20 41  1  0  0  0  0
 20 42  1  0  0  0  0
 20 43  1  0  0  0  0
 21 44  1  0  0  0  0
 21 45  1  0  0  0  0
 22 46  1  0  0  0  0
 26 47  1  0  0  0  0
M  END
> <clash_score>
1.5711885598477204

> <docking_score>
-7.296772480010986

> <overlap_score>
0.9036206007003784

$$$$
BENZO_183_1
  -OEChem-08222022393D

 47 50  0     1  0  0  0  0  0999 V2000
    4.0980    2.1130   19.5350 C   0  0  0  0  0  0  0  0  0  0  0  0
    4.2970    1.6690   20.8430 C   0  0  0  0  0  0  0  0  0  0  0  0
    8.3310   -2.7170   25.3430 C   0  0  0  0  0  0  0  0  0  0  0  0
   10.2570   -3.5000   24.1350 C   0  0  0  0  0  0  0  0  0  0  0  0
    8.3510   -1.5420   24.6110 C   0  0  0  0  0  0  0  0  0  0  0  0
   10.2760   -2.3270   23.4020 C   0  0  0  0  0  0  0  0  0  0  0  0
    4.9400    1.7060   18.5060 C   0  0  0  0  0  0  0  0  0  0  0  0
    5.3360    0.8000   21.1530 C   0  0  0  0  0  0  0  0  0  0  0  0
   12.3042    2.3166   23.4491 C   0  0  0  0  0  0  0  0  0  0  0  0
   12.4050    0.1328   23.2128 C   0  0  0  0  0  0  0  0  0  0  0  0
    9.2850   -3.7090   25.1090 C   0  0  0  0  0  0  0  0  0  0  0  0
    9.3300   -1.3350   23.6390 C   0  0  0  0  0  0  0  0  0  0  0  0
   11.5140    1.1515   23.4468 C   0  0  0  0  0  0  0  0  0  0  0  0
    5.9810    0.8330   18.8060 C   0  0  0  0  0  0  0  0  0  0  0  0
    6.1600    0.3870   20.1140 C   0  0  0  0  0  0  0  0  0  0  0  0
    8.9510    0.1280   21.6880 C   0  0  0  0  0  0  0  0  0  0  0  0
    9.2618   -4.9724   25.8910 C   0  0  0  0  0  0  0  0  0  0  0  0
   14.8822    0.0595   22.8428 C   0  0  0  0  0  0  0  0  0  0  0  0
   10.0220    1.0430   23.6570 C   0  0  0  0  0  0  0  0  0  0  0  0
    9.4200   -0.0840   22.9530 C   0  0  1  0  0  0  0  0  0  0  0  0
   13.5977    2.0627   23.2339 N   0  0  0  0  0  0  0  0  0  0  0  0
    6.9440    0.2550   18.0100 N   0  0  0  0  0  0  0  0  0  0  0  0
    7.6830   -0.5170   18.7600 N   0  0  0  0  0  0  0  0  0  0  0  0
   13.6272    0.7264   23.0942 N   0  0  0  0  0  0  0  0  0  0  0  0
    7.2210   -0.4620   20.0350 N   0  0  0  0  0  0  0  0  0  0  0  0
    8.0810   -0.9750   21.0820 N   0  0  0  0  0  0  0  0  0  0  0  0
    9.1870    1.1500   21.0630 O   0  0  0  0  0  0  0  0  0  0  0  0
    3.2714    2.7876   19.3199 H   0  0  0  0  0  0  0  0  0  0  0  0
    3.6283    2.0091   21.6296 H   0  0  0  0  0  0  0  0  0  0  0  0
    7.5655   -2.8644   26.1055 H   0  0  0  0  0  0  0  0  0  0  0  0
   11.0125   -4.2662   23.9435 H   0  0  0  0  0  0  0  0  0  0  0  0
    7.5953   -0.7782   24.7971 H   0  0  0  0  0  0  0  0  0  0  0  0
   11.0394   -2.1837   22.6349 H   0  0  0  0  0  0  0  0  0  0  0  0
    4.7824    2.0670   17.4883 H   0  0  0  0  0  0  0  0  0  0  0  0
    5.4937    0.4574   22.1805 H   0  0  0  0  0  0  0  0  0  0  0  0
   11.9938    3.3409   23.5993 H   0  0  0  0  0  0  0  0  0  0  0  0
   12.2768   -0.9376   23.1242 H   0  0  0  0  0  0  0  0  0  0  0  0
    8.6408   -5.7227   25.3864 H   0  0  0  0  0  0  0  0  0  0  0  0
   10.2726   -5.3829   26.0135 H   0  0  0  0  0  0  0  0  0  0  0  0
    8.8606   -4.8102   26.9000 H   0  0  0  0  0  0  0  0  0  0  0  0
   15.0256    0.0076   21.7603 H   0  0  0  0  0  0  0  0  0  0  0  0
   15.6943    0.6239   23.3094 H   0  0  0  0  0  0  0  0  0  0  0  0
   14.8503   -0.9450   23.2739 H   0  0  0  0  0  0  0  0  0  0  0  0
    9.8388    0.9439   24.7360 H   0  0  0  0  0  0  0  0  0  0  0  0
    9.5396    1.9876   23.3725 H   0  0  0  0  0  0  0  0  0  0  0  0
    8.1264    0.3141   23.4937 H   0  0  0  0  0  0  0  0  0  0  0  0
    8.1479   -1.8049   21.3777 H   0  0  0  0  0  0  0  0  0  0  0  0
  1  2  1  0  0  0  0
  1  7  2  0  0  0  0
  2  8  2  0  0  0  0
  3  5  2  0  0  0  0
  3 11  1  0  0  0  0
  4  6  1  0  0  0  0
  4 11  2  0  0  0  0
  5 12  1  0  0  0  0
  6 12  2  0  0  0  0
  7 14  1  0  0  0  0
  8 15  1  0  0  0  0
  9 13  1  0  0  0  0
  9 21  2  0  0  0  0
 10 13  2  0  0  0  0
 10 24  1  0  0  0  0
 11 17  1  0  0  0  0
 12 20  1  0  0  0  0
 13 19  1  0  0  0  0
 14 15  2  0  0  0  0
 14 22  1  0  0  0  0
 15 25  1  0  0  0  0
 16 20  1  0  0  0  0
 16 26  1  0  0  0  0
 16 27  2  0  0  0  0
 18 24  1  0  0  0  0
 19 20  1  1  0  0  0
 21 24  1  0  0  0  0
 22 23  2  0  0  0  0
 23 25  1  0  0  0  0
 25 26  1  0  0  0  0
  1 28  1  0  0  0  0
  2 29  1  0  0  0  0
  3 30  1  0  0  0  0
  4 31  1  0  0  0  0
  5 32  1  0  0  0  0
  6 33  1  0  0  0  0
  7 34  1  0  0  0  0
  8 35  1  0  0  0  0
  9 36  1  0  0  0  0
 10 37  1  0  0  0  0
 17 38  1  0  0  0  0
 17 39  1  0  0  0  0
 17 40  1  0  0  0  0
 18 41  1  0  0  0  0
 18 42  1  0  0  0  0
 18 43  1  0  0  0  0
 19 44  1  0  0  0  0
 19 45  1  0  0  0  0
 20 46  1  0  0  0  0
 26 47  1  0  0  0  0
M  END
> <clash_score>
0

> <docking_score>
-9.781067848205566

> <overlap_score>
0.9835365414619446

$$$$
BENZO_183_2
  -OEChem-08222022393D

 47 50  0     1  0  0  0  0  0999 V2000
    4.0980    2.1130   19.5350 C   0  0  0  0  0  0  0  0  0  0  0  0
    4.2970    1.6690   20.8430 C   0  0  0  0  0  0  0  0  0  0  0  0
    8.3310   -2.7170   25.3430 C   0  0  0  0  0  0  0  0  0  0  0  0
   10.2570   -3.5000   24.1350 C   0  0  0  0  0  0  0  0  0  0  0  0
    8.3510   -1.5420   24.6110 C   0  0  0  0  0  0  0  0  0  0  0  0
   10.2760   -2.3270   23.4020 C   0  0  0  0  0  0  0  0  0  0  0  0
    4.9400    1.7060   18.5060 C   0  0  0  0  0  0  0  0  0  0  0  0
    5.3360    0.8000   21.1530 C   0  0  0  0  0  0  0  0  0  0  0  0
   12.4581    1.4918   22.7981 C   0  0  0  0  0  0  0  0  0  0  0  0
   10.9018    2.8185   21.9903 C   0  0  0  0  0  0  0  0  0  0  0  0
    9.2850   -3.7090   25.1090 C   0  0  0  0  0  0  0  0  0  0  0  0
    9.3300   -1.3350   23.6390 C   0  0  0  0  0  0  0  0  0  0  0  0
   11.0769    1.7595   22.8472 C   0  0  0  0  0  0  0  0  0  0  0  0
    5.9810    0.8330   18.8060 C   0  0  0  0  0  0  0  0  0  0  0  0
    6.1600    0.3870   20.1140 C   0  0  0  0  0  0  0  0  0  0  0  0
    8.9510    0.1280   21.6880 C   0  0  0  0  0  0  0  0  0  0  0  0
    9.2618   -4.9724   25.8910 C   0  0  0  0  0  0  0  0  0  0  0  0
   12.4642    4.1525   20.5557 C   0  0  0  0  0  0  0  0  0  0  0  0
   10.0220    1.0430   23.6570 C   0  0  0  0  0  0  0  0  0  0  0  0
    9.4200   -0.0840   22.9530 C   0  0  2  0  0  0  0  0  0  0  0  0
   13.1138    2.3143   21.9750 N   0  0  0  0  0  0  0  0  0  0  0  0
    6.9440    0.2550   18.0100 N   0  0  0  0  0  0  0  0  0  0  0  0
    7.6830   -0.5170   18.7600 N   0  0  0  0  0  0  0  0  0  0  0  0
   12.1404    3.1092   21.4989 N   0  0  0  0  0  0  0  0  0  0  0  0
    7.2210   -0.4620   20.0350 N   0  0  0  0  0  0  0  0  0  0  0  0
    8.0810   -0.9750   21.0820 N   0  0  0  0  0  0  0  0  0  0  0  0
    9.1870    1.1500   21.0630 O   0  0  0  0  0  0  0  0  0  0  0  0
    3.2714    2.7876   19.3199 H   0  0  0  0  0  0  0  0  0  0  0  0
    3.6283    2.0091   21.6296 H   0  0  0  0  0  0  0  0  0  0  0  0
    7.5655   -2.8644   26.1055 H   0  0  0  0  0  0  0  0  0  0  0  0
   11.0125   -4.2662   23.9435 H   0  0  0  0  0  0  0  0  0  0  0  0
    7.5953   -0.7782   24.7971 H   0  0  0  0  0  0  0  0  0  0  0  0
   11.0394   -2.1837   22.6349 H   0  0  0  0  0  0  0  0  0  0  0  0
    4.7824    2.0670   17.4883 H   0  0  0  0  0  0  0  0  0  0  0  0
    5.4937    0.4574   22.1805 H   0  0  0  0  0  0  0  0  0  0  0  0
   13.0162    0.7317   23.3262 H   0  0  0  0  0  0  0  0  0  0  0  0
   10.0229    3.3754   21.6946 H   0  0  0  0  0  0  0  0  0  0  0  0
    8.6408   -5.7227   25.3864 H   0  0  0  0  0  0  0  0  0  0  0  0
   10.2726   -5.3829   26.0135 H   0  0  0  0  0  0  0  0  0  0  0  0
    8.8606   -4.8102   26.9000 H   0  0  0  0  0  0  0  0  0  0  0  0
   12.6964    5.0586   21.1216 H   0  0  0  0  0  0  0  0  0  0  0  0
   13.3249    3.8459   19.9549 H   0  0  0  0  0  0  0  0  0  0  0  0
   11.6087    4.3213   19.8958 H   0  0  0  0  0  0  0  0  0  0  0  0
   10.4908    0.6894   24.5858 H   0  0  0  0  0  0  0  0  0  0  0  0
    9.2554    1.7595   23.9807 H   0  0  0  0  0  0  0  0  0  0  0  0
   10.7193   -0.4348   22.4312 H   0  0  0  0  0  0  0  0  0  0  0  0
    8.1479   -1.8049   21.3777 H   0  0  0  0  0  0  0  0  0  0  0  0
  1  2  1  0  0  0  0
  1  7  2  0  0  0  0
  2  8  2  0  0  0  0
  3  5  2  0  0  0  0
  3 11  1  0  0  0  0
  4  6  1  0  0  0  0
  4 11  2  0  0  0  0
  5 12  1  0  0  0  0
  6 12  2  0  0  0  0
  7 14  1  0  0  0  0
  8 15  1  0  0  0  0
  9 13  1  0  0  0  0
  9 21  2  0  0  0  0
 10 13  2  0  0  0  0
 10 24  1  0  0  0  0
 11 17  1  0  0  0  0
 12 20  1  0  0  0  0
 13 19  1  0  0  0  0
 14 15  2  0  0  0  0
 14 22  1  0  0  0  0
 15 25  1  0  0  0  0
 16 20  1  0  0  0  0
 16 26  1  0  0  0  0
 16 27  2  0  0  0  0
 18 24  1  0  0  0  0
 19 20  1  6  0  0  0
 21 24  1  0  0  0  0
 22 23  2  0  0  0  0
 23 25  1  0  0  0  0
 25 26  1  0  0  0  0
  1 28  1  0  0  0  0
  2 29  1  0  0  0  0
  3 30  1  0  0  0  0
  4 31  1  0  0  0  0
  5 32  1  0  0  0  0
  6 33  1  0  0  0  0
  7 34  1  0  0  0  0
  8 35  1  0  0  0  0
  9 36  1  0  0  0  0
 10 37  1  0  0  0  0
 17 38  1  0  0  0  0
 17 39  1  0  0  0  0
 17 40  1  0  0  0  0
 18 41  1  0  0  0  0
 18 42  1  0  0  0  0
 18 43  1  0  0  0  0
 19 44  1  0  0  0  0
 19 45  1  0  0  0  0
 20 46  1  0  0  0  0
 26 47  1  0  0  0  0
M  END
> <clash_score>
0

> <docking_score>
-8.570197105407715

> <overlap_score>
0.934138298034668

$$$$
BENZO_185_1
  -OEChem-08222022393D

 48 51  0     1  0  0  0  0  0999 V2000
   14.2691    1.3522   23.0572 C   0  0  0  0  0  0  0  0  0  0  0  0
   13.7679    0.5995   24.1192 C   0  0  0  0  0  0  0  0  0  0  0  0
   13.3927    2.0047   22.1900 C   0  0  0  0  0  0  0  0  0  0  0  0
    4.0980    2.1130   19.5350 C   0  0  0  0  0  0  0  0  0  0  0  0
    4.2970    1.6690   20.8430 C   0  0  0  0  0  0  0  0  0  0  0  0
   12.3904    0.4991   24.3140 C   0  0  0  0  0  0  0  0  0  0  0  0
   12.0152    1.9043   22.3848 C   0  0  0  0  0  0  0  0  0  0  0  0
    8.3510   -1.5420   24.6110 C   0  0  0  0  0  0  0  0  0  0  0  0
   10.2760   -2.3270   23.4020 C   0  0  0  0  0  0  0  0  0  0  0  0
    4.9400    1.7060   18.5060 C   0  0  0  0  0  0  0  0  0  0  0  0
    5.3360    0.8000   21.1530 C   0  0  0  0  0  0  0  0  0  0  0  0
    8.3310   -2.7170   25.3430 C   0  0  0  0  0  0  0  0  0  0  0  0
   10.2570   -3.5000   24.1350 C   0  0  0  0  0  0  0  0  0  0  0  0
   11.5140    1.1515   23.4468 C   0  0  0  0  0  0  0  0  0  0  0  0
    9.3300   -1.3350   23.6390 C   0  0  0  0  0  0  0  0  0  0  0  0
    5.9810    0.8330   18.8060 C   0  0  0  0  0  0  0  0  0  0  0  0
    6.1600    0.3870   20.1140 C   0  0  0  0  0  0  0  0  0  0  0  0
    9.2850   -3.7090   25.1090 C   0  0  0  0  0  0  0  0  0  0  0  0
    8.9510    0.1280   21.6880 C   0  0  0  0  0  0  0  0  0  0  0  0
    8.2358   -4.9962   26.8042 C   0  0  0  0  0  0  0  0  0  0  0  0
   10.0220    1.0430   23.6570 C   0  0  0  0  0  0  0  0  0  0  0  0
    9.4200   -0.0840   22.9530 C   0  0  1  0  0  0  0  0  0  0  0  0
    6.9440    0.2550   18.0100 N   0  0  0  0  0  0  0  0  0  0  0  0
    7.6830   -0.5170   18.7600 N   0  0  0  0  0  0  0  0  0  0  0  0
    7.2210   -0.4620   20.0350 N   0  0  0  0  0  0  0  0  0  0  0  0
    8.0810   -0.9750   21.0820 N   0  0  0  0  0  0  0  0  0  0  0  0
    9.1870    1.1500   21.0630 O   0  0  0  0  0  0  0  0  0  0  0  0
    9.2637   -4.8607   25.8240 O   0  0  0  0  0  0  0  0  0  0  0  0
   15.3418    1.4314   22.9065 H   0  0  0  0  0  0  0  0  0  0  0  0
   14.4502    0.0923   24.7952 H   0  0  0  0  0  0  0  0  0  0  0  0
   13.7826    2.5917   21.3638 H   0  0  0  0  0  0  0  0  0  0  0  0
    3.2714    2.7876   19.3199 H   0  0  0  0  0  0  0  0  0  0  0  0
    3.6283    2.0091   21.6296 H   0  0  0  0  0  0  0  0  0  0  0  0
   12.0089   -0.0898   25.1440 H   0  0  0  0  0  0  0  0  0  0  0  0
   11.3399    2.4159   21.7041 H   0  0  0  0  0  0  0  0  0  0  0  0
    7.5962   -0.7776   24.7980 H   0  0  0  0  0  0  0  0  0  0  0  0
   11.0395   -2.1844   22.6346 H   0  0  0  0  0  0  0  0  0  0  0  0
    4.7824    2.0670   17.4883 H   0  0  0  0  0  0  0  0  0  0  0  0
    5.4937    0.4574   22.1805 H   0  0  0  0  0  0  0  0  0  0  0  0
    7.5664   -2.8672   26.1058 H   0  0  0  0  0  0  0  0  0  0  0  0
   11.0120   -4.2666   23.9463 H   0  0  0  0  0  0  0  0  0  0  0  0
    8.3326   -5.9634   27.3035 H   0  0  0  0  0  0  0  0  0  0  0  0
    7.2583   -4.9194   26.3215 H   0  0  0  0  0  0  0  0  0  0  0  0
    8.3398   -4.1963   27.5412 H   0  0  0  0  0  0  0  0  0  0  0  0
    9.8388    0.9439   24.7360 H   0  0  0  0  0  0  0  0  0  0  0  0
    9.5396    1.9876   23.3725 H   0  0  0  0  0  0  0  0  0  0  0  0
    8.1264    0.3141   23.4937 H   0  0  0  0  0  0  0  0  0  0  0  0
    8.1479   -1.8049   21.3777 H   0  0  0  0  0  0  0  0  0  0  0  0
  1  2  1  0  0  0  0
  1  3  2  0  0  0  0
  2  6  2  0  0  0  0
  3  7  1  0  0  0  0
  4  5  1  0  0  0  0
  4 10  2  0  0  0  0
  5 11  2  0  0  0  0
  6 14  1  0  0  0  0
  7 14  2  0  0  0  0
  8 12  2  0  0  0  0
  8 15  1  0  0  0  0
  9 13  1  0  0  0  0
  9 15  2  0  0  0  0
 10 16  1  0  0  0  0
 11 17  1  0  0  0  0
 12 18  1  0  0  0  0
 13 18  2  0  0  0  0
 14 21  1  0  0  0  0
 15 22  1  0  0  0  0
 16 17  2  0  0  0  0
 16 23  1  0  0  0  0
 17 25  1  0  0  0  0
 18 28  1  0  0  0  0
 19 22  1  0  0  0  0
 19 26  1  0  0  0  0
 19 27  2  0  0  0  0
 20 28  1  0  0  0  0
 21 22  1  1  0  0  0
 23 24  2  0  0  0  0
 24 25  1  0  0  0  0
 25 26  1  0  0  0  0
  1 29  1  0  0  0  0
  2 30  1  0  0  0  0
  3 31  1  0  0  0  0
  4 32  1  0  0  0  0
  5 33  1  0  0  0  0
  6 34  1  0  0  0  0
  7 35  1  0  0  0  0
  8 36  1  0  0  0  0
  9 37  1  0  0  0  0
 10 38  1  0  0  0  0
 11 39  1  0  0  0  0
 12 40  1  0  0  0  0
 13 41  1  0  0  0  0
 20 42  1  0  0  0  0
 20 43  1  0  0  0  0
 20 44  1  0  0  0  0
 21 45  1  0  0  0  0
 21 46  1  0  0  0  0
 22 47  1  0  0  0  0
 26 48  1  0  0  0  0
M  END
> <clash_score>
0

> <docking_score>
-8.863513946533203

> <overlap_score>
1.0053975582122803

$$$$
BENZO_185_2
  -OEChem-08222022393D

 48 51  0     1  0  0  0  0  0999 V2000
   13.8479    0.1200   25.3901 C   0  0  0  0  0  0  0  0  0  0  0  0
   12.6818   -0.0763   26.1298 C   0  0  0  0  0  0  0  0  0  0  0  0
   13.7730    0.6157   24.0884 C   0  0  0  0  0  0  0  0  0  0  0  0
    4.0980    2.1130   19.5350 C   0  0  0  0  0  0  0  0  0  0  0  0
    4.2970    1.6690   20.8430 C   0  0  0  0  0  0  0  0  0  0  0  0
   11.4407    0.2231   25.5679 C   0  0  0  0  0  0  0  0  0  0  0  0
   12.5319    0.9151   23.5265 C   0  0  0  0  0  0  0  0  0  0  0  0
    8.3510   -1.5420   24.6110 C   0  0  0  0  0  0  0  0  0  0  0  0
   10.2760   -2.3270   23.4020 C   0  0  0  0  0  0  0  0  0  0  0  0
    4.9400    1.7060   18.5060 C   0  0  0  0  0  0  0  0  0  0  0  0
    5.3360    0.8000   21.1530 C   0  0  0  0  0  0  0  0  0  0  0  0
    8.3310   -2.7170   25.3430 C   0  0  0  0  0  0  0  0  0  0  0  0
   10.2570   -3.5000   24.1350 C   0  0  0  0  0  0  0  0  0  0  0  0
   11.3657    0.7188   24.2662 C   0  0  0  0  0  0  0  0  0  0  0  0
    9.3300   -1.3350   23.6390 C   0  0  0  0  0  0  0  0  0  0  0  0
    5.9810    0.8330   18.8060 C   0  0  0  0  0  0  0  0  0  0  0  0
    6.1600    0.3870   20.1140 C   0  0  0  0  0  0  0  0  0  0  0  0
    9.2850   -3.7090   25.1090 C   0  0  0  0  0  0  0  0  0  0  0  0
    8.9510    0.1280   21.6880 C   0  0  0  0  0  0  0  0  0  0  0  0
    8.2358   -4.9962   26.8042 C   0  0  0  0  0  0  0  0  0  0  0  0
   10.0220    1.0430   23.6570 C   0  0  0  0  0  0  0  0  0  0  0  0
    9.4200   -0.0840   22.9530 C   0  0  2  0  0  0  0  0  0  0  0  0
    6.9440    0.2550   18.0100 N   0  0  0  0  0  0  0  0  0  0  0  0
    7.6830   -0.5170   18.7600 N   0  0  0  0  0  0  0  0  0  0  0  0
    7.2210   -0.4620   20.0350 N   0  0  0  0  0  0  0  0  0  0  0  0
    8.0810   -0.9750   21.0820 N   0  0  0  0  0  0  0  0  0  0  0  0
    9.1870    1.1500   21.0630 O   0  0  0  0  0  0  0  0  0  0  0  0
    9.2637   -4.8607   25.8240 O   0  0  0  0  0  0  0  0  0  0  0  0
   14.8143   -0.1119   25.8282 H   0  0  0  0  0  0  0  0  0  0  0  0
   12.7400   -0.4613   27.1438 H   0  0  0  0  0  0  0  0  0  0  0  0
   14.6807    0.7697   23.5125 H   0  0  0  0  0  0  0  0  0  0  0  0
    3.2714    2.7876   19.3199 H   0  0  0  0  0  0  0  0  0  0  0  0
    3.6283    2.0091   21.6296 H   0  0  0  0  0  0  0  0  0  0  0  0
   10.5374    0.0668   26.1517 H   0  0  0  0  0  0  0  0  0  0  0  0
   12.4832    1.3008   22.5116 H   0  0  0  0  0  0  0  0  0  0  0  0
    7.5962   -0.7776   24.7980 H   0  0  0  0  0  0  0  0  0  0  0  0
   11.0395   -2.1844   22.6346 H   0  0  0  0  0  0  0  0  0  0  0  0
    4.7824    2.0670   17.4883 H   0  0  0  0  0  0  0  0  0  0  0  0
    5.4937    0.4574   22.1805 H   0  0  0  0  0  0  0  0  0  0  0  0
    7.5664   -2.8672   26.1058 H   0  0  0  0  0  0  0  0  0  0  0  0
   11.0120   -4.2666   23.9463 H   0  0  0  0  0  0  0  0  0  0  0  0
    8.3326   -5.9634   27.3035 H   0  0  0  0  0  0  0  0  0  0  0  0
    7.2583   -4.9194   26.3215 H   0  0  0  0  0  0  0  0  0  0  0  0
    8.3398   -4.1963   27.5412 H   0  0  0  0  0  0  0  0  0  0  0  0
    9.3544    1.3715   24.4657 H   0  0  0  0  0  0  0  0  0  0  0  0
   10.1173    1.9145   22.9956 H   0  0  0  0  0  0  0  0  0  0  0  0
   10.7193   -0.4348   22.4312 H   0  0  0  0  0  0  0  0  0  0  0  0
    8.1479   -1.8049   21.3777 H   0  0  0  0  0  0  0  0  0  0  0  0
  1  2  1  0  0  0  0
  1  3  2  0  0  0  0
  2  6  2  0  0  0  0
  3  7  1  0  0  0  0
  4  5  1  0  0  0  0
  4 10  2  0  0  0  0
  5 11  2  0  0  0  0
  6 14  1  0  0  0  0
  7 14  2  0  0  0  0
  8 12  2  0  0  0  0
  8 15  1  0  0  0  0
  9 13  1  0  0  0  0
  9 15  2  0  0  0  0
 10 16  1  0  0  0  0
 11 17  1  0  0  0  0
 12 18  1  0  0  0  0
 13 18  2  0  0  0  0
 14 21  1  0  0  0  0
 15 22  1  0  0  0  0
 16 17  2  0  0  0  0
 16 23  1  0  0  0  0
 17 25  1  0  0  0  0
 18 28  1  0  0  0  0
 19 22  1  0  0  0  0
 19 26  1  0  0  0  0
 19 27  2  0  0  0  0
 20 28  1  0  0  0  0
 21 22  1  6  0  0  0
 23 24  2  0  0  0  0
 24 25  1  0  0  0  0
 25 26  1  0  0  0  0
  1 29  1  0  0  0  0
  2 30  1  0  0  0  0
  3 31  1  0  0  0  0
  4 32  1  0  0  0  0
  5 33  1  0  0  0  0
  6 34  1  0  0  0  0
  7 35  1  0  0  0  0
  8 36  1  0  0  0  0
  9 37  1  0  0  0  0
 10 38  1  0  0  0  0
 11 39  1  0  0  0  0
 12 40  1  0  0  0  0
 13 41  1  0  0  0  0
 20 42  1  0  0  0  0
 20 43  1  0  0  0  0
 20 44  1  0  0  0  0
 21 45  1  0  0  0  0
 21 46  1  0  0  0  0
 22 47  1  0  0  0  0
 26 48  1  0  0  0  0
M  END
> <clash_score>
0

> <docking_score>
-7.948575496673584

> <overlap_score>
0.928915798664093

$$$$
BENZO_184_1
  -OEChem-08222022393D

 45 48  0     1  0  0  0  0  0999 V2000
    4.0980    2.1130   19.5350 C   0  0  0  0  0  0  0  0  0  0  0  0
    4.2970    1.6690   20.8430 C   0  0  0  0  0  0  0  0  0  0  0  0
    8.3510   -1.5420   24.6110 C   0  0  0  0  0  0  0  0  0  0  0  0
   10.2760   -2.3270   23.4020 C   0  0  0  0  0  0  0  0  0  0  0  0
    4.9400    1.7060   18.5060 C   0  0  0  0  0  0  0  0  0  0  0  0
    5.3360    0.8000   21.1530 C   0  0  0  0  0  0  0  0  0  0  0  0
    8.3310   -2.7170   25.3430 C   0  0  0  0  0  0  0  0  0  0  0  0
   10.2570   -3.5000   24.1350 C   0  0  0  0  0  0  0  0  0  0  0  0
   12.2267    2.3852   23.4320 C   0  0  0  0  0  0  0  0  0  0  0  0
   13.5754    2.2012   23.2208 C   0  0  0  0  0  0  0  0  0  0  0  0
   12.3453    0.0714   23.2460 C   0  0  0  0  0  0  0  0  0  0  0  0
    9.3300   -1.3350   23.6390 C   0  0  0  0  0  0  0  0  0  0  0  0
   11.5140    1.1515   23.4468 C   0  0  0  0  0  0  0  0  0  0  0  0
    5.9810    0.8330   18.8060 C   0  0  0  0  0  0  0  0  0  0  0  0
    6.1600    0.3870   20.1140 C   0  0  0  0  0  0  0  0  0  0  0  0
    9.2850   -3.7090   25.1090 C   0  0  0  0  0  0  0  0  0  0  0  0
    8.9510    0.1280   21.6880 C   0  0  0  0  0  0  0  0  0  0  0  0
    8.2358   -4.9962   26.8042 C   0  0  0  0  0  0  0  0  0  0  0  0
   10.0220    1.0430   23.6570 C   0  0  0  0  0  0  0  0  0  0  0  0
    9.4200   -0.0840   22.9530 C   0  0  1  0  0  0  0  0  0  0  0  0
    6.9440    0.2550   18.0100 N   0  0  0  0  0  0  0  0  0  0  0  0
    7.6830   -0.5170   18.7600 N   0  0  0  0  0  0  0  0  0  0  0  0
    7.2210   -0.4620   20.0350 N   0  0  0  0  0  0  0  0  0  0  0  0
    8.0810   -0.9750   21.0820 N   0  0  0  0  0  0  0  0  0  0  0  0
    9.1870    1.1500   21.0630 O   0  0  0  0  0  0  0  0  0  0  0  0
    9.2637   -4.8607   25.8240 O   0  0  0  0  0  0  0  0  0  0  0  0
   13.9777    0.5464   23.0413 S   0  0  0  0  0  0  0  0  0  0  0  0
    3.2714    2.7876   19.3199 H   0  0  0  0  0  0  0  0  0  0  0  0
    3.6283    2.0091   21.6296 H   0  0  0  0  0  0  0  0  0  0  0  0
    7.5962   -0.7776   24.7980 H   0  0  0  0  0  0  0  0  0  0  0  0
   11.0395   -2.1844   22.6346 H   0  0  0  0  0  0  0  0  0  0  0  0
    4.7824    2.0670   17.4883 H   0  0  0  0  0  0  0  0  0  0  0  0
    5.4937    0.4574   22.1805 H   0  0  0  0  0  0  0  0  0  0  0  0
    7.5664   -2.8672   26.1058 H   0  0  0  0  0  0  0  0  0  0  0  0
   11.0120   -4.2666   23.9463 H   0  0  0  0  0  0  0  0  0  0  0  0
   11.7767    3.3605   23.5685 H   0  0  0  0  0  0  0  0  0  0  0  0
   14.3436    2.9592   23.1626 H   0  0  0  0  0  0  0  0  0  0  0  0
   12.0761   -0.9751   23.2080 H   0  0  0  0  0  0  0  0  0  0  0  0
    8.3326   -5.9634   27.3035 H   0  0  0  0  0  0  0  0  0  0  0  0
    7.2583   -4.9194   26.3215 H   0  0  0  0  0  0  0  0  0  0  0  0
    8.3398   -4.1963   27.5412 H   0  0  0  0  0  0  0  0  0  0  0  0
    9.8388    0.9439   24.7360 H   0  0  0  0  0  0  0  0  0  0  0  0
    9.5396    1.9876   23.3725 H   0  0  0  0  0  0  0  0  0  0  0  0
    8.1264    0.3141   23.4937 H   0  0  0  0  0  0  0  0  0  0  0  0
    8.1479   -1.8049   21.3777 H   0  0  0  0  0  0  0  0  0  0  0  0
  1  2  1  0  0  0  0
  1  5  2  0  0  0  0
  2  6  2  0  0  0  0
  3  7  2  0  0  0  0
  3 12  1  0  0  0  0
  4  8  1  0  0  0  0
  4 12  2  0  0  0  0
  5 14  1  0  0  0  0
  6 15  1  0  0  0  0
  7 16  1  0  0  0  0
  8 16  2  0  0  0  0
  9 10  2  0  0  0  0
  9 13  1  0  0  0  0
 10 27  1  0  0  0  0
 11 13  2  0  0  0  0
 11 27  1  0  0  0  0
 12 20  1  0  0  0  0
 13 19  1  0  0  0  0
 14 15  2  0  0  0  0
 14 21  1  0  0  0  0
 15 23  1  0  0  0  0
 16 26  1  0  0  0  0
 17 20  1  0  0  0  0
 17 24  1  0  0  0  0
 17 25  2  0  0  0  0
 18 26  1  0  0  0  0
 19 20  1  1  0  0  0
 21 22  2  0  0  0  0
 22 23  1  0  0  0  0
 23 24  1  0  0  0  0
  1 28  1  0  0  0  0
  2 29  1  0  0  0  0
  3 30  1  0  0  0  0
  4 31  1  0  0  0  0
  5 32  1  0  0  0  0
  6 33  1  0  0  0  0
  7 34  1  0  0  0  0
  8 35  1  0  0  0  0
  9 36  1  0  0  0  0
 10 37  1  0  0  0  0
 11 38  1  0  0  0  0
 18 39  1  0  0  0  0
 18 40  1  0  0  0  0
 18 41  1  0  0  0  0
 19 42  1  0  0  0  0
 19 43  1  0  0  0  0
 20 44  1  0  0  0  0
 24 45  1  0  0  0  0
M  END
> <clash_score>
0

> <docking_score>
-9.595483779907227

> <overlap_score>
0.9915130138397217

$$$$
BENZO_184_2
  -OEChem-08222022393D

 45 48  0     1  0  0  0  0  0999 V2000
    4.0980    2.1130   19.5350 C   0  0  0  0  0  0  0  0  0  0  0  0
    4.2970    1.6690   20.8430 C   0  0  0  0  0  0  0  0  0  0  0  0
    8.3510   -1.5420   24.6110 C   0  0  0  0  0  0  0  0  0  0  0  0
   10.2760   -2.3270   23.4020 C   0  0  0  0  0  0  0  0  0  0  0  0
    4.9400    1.7060   18.5060 C   0  0  0  0  0  0  0  0  0  0  0  0
    5.3360    0.8000   21.1530 C   0  0  0  0  0  0  0  0  0  0  0  0
    8.3310   -2.7170   25.3430 C   0  0  0  0  0  0  0  0  0  0  0  0
   10.2570   -3.5000   24.1350 C   0  0  0  0  0  0  0  0  0  0  0  0
   11.0339    0.9313   26.0395 C   0  0  0  0  0  0  0  0  0  0  0  0
   12.1288    0.4400   26.7157 C   0  0  0  0  0  0  0  0  0  0  0  0
   12.2175   -0.0793   24.3132 C   0  0  0  0  0  0  0  0  0  0  0  0
    9.3300   -1.3350   23.6390 C   0  0  0  0  0  0  0  0  0  0  0  0
   11.0851    0.6304   24.6477 C   0  0  0  0  0  0  0  0  0  0  0  0
    5.9810    0.8330   18.8060 C   0  0  0  0  0  0  0  0  0  0  0  0
    6.1600    0.3870   20.1140 C   0  0  0  0  0  0  0  0  0  0  0  0
    9.2850   -3.7090   25.1090 C   0  0  0  0  0  0  0  0  0  0  0  0
    8.9510    0.1280   21.6880 C   0  0  0  0  0  0  0  0  0  0  0  0
    8.2358   -4.9962   26.8042 C   0  0  0  0  0  0  0  0  0  0  0  0
   10.0220    1.0430   23.6570 C   0  0  0  0  0  0  0  0  0  0  0  0
    9.4200   -0.0840   22.9530 C   0  0  2  0  0  0  0  0  0  0  0  0
    6.9440    0.2550   18.0100 N   0  0  0  0  0  0  0  0  0  0  0  0
    7.6830   -0.5170   18.7600 N   0  0  0  0  0  0  0  0  0  0  0  0
    7.2210   -0.4620   20.0350 N   0  0  0  0  0  0  0  0  0  0  0  0
    8.0810   -0.9750   21.0820 N   0  0  0  0  0  0  0  0  0  0  0  0
    9.1870    1.1500   21.0630 O   0  0  0  0  0  0  0  0  0  0  0  0
    9.2637   -4.8607   25.8240 O   0  0  0  0  0  0  0  0  0  0  0  0
   13.2125   -0.3802   25.6739 S   0  0  0  0  0  0  0  0  0  0  0  0
    3.2714    2.7876   19.3199 H   0  0  0  0  0  0  0  0  0  0  0  0
    3.6283    2.0091   21.6296 H   0  0  0  0  0  0  0  0  0  0  0  0
    7.5962   -0.7776   24.7980 H   0  0  0  0  0  0  0  0  0  0  0  0
   11.0395   -2.1844   22.6346 H   0  0  0  0  0  0  0  0  0  0  0  0
    4.7824    2.0670   17.4883 H   0  0  0  0  0  0  0  0  0  0  0  0
    5.4937    0.4574   22.1805 H   0  0  0  0  0  0  0  0  0  0  0  0
    7.5664   -2.8672   26.1058 H   0  0  0  0  0  0  0  0  0  0  0  0
   11.0120   -4.2666   23.9463 H   0  0  0  0  0  0  0  0  0  0  0  0
   10.2365    1.4803   26.5241 H   0  0  0  0  0  0  0  0  0  0  0  0
   12.3447    0.5240   27.7715 H   0  0  0  0  0  0  0  0  0  0  0  0
   12.5125   -0.4363   23.3361 H   0  0  0  0  0  0  0  0  0  0  0  0
    8.3326   -5.9634   27.3035 H   0  0  0  0  0  0  0  0  0  0  0  0
    7.2583   -4.9194   26.3215 H   0  0  0  0  0  0  0  0  0  0  0  0
    8.3398   -4.1963   27.5412 H   0  0  0  0  0  0  0  0  0  0  0  0
    9.2444    1.5932   24.2048 H   0  0  0  0  0  0  0  0  0  0  0  0
   10.4399    1.7712   22.9492 H   0  0  0  0  0  0  0  0  0  0  0  0
   10.7193   -0.4348   22.4312 H   0  0  0  0  0  0  0  0  0  0  0  0
    8.1479   -1.8049   21.3777 H   0  0  0  0  0  0  0  0  0  0  0  0
  1  2  1  0  0  0  0
  1  5  2  0  0  0  0
  2  6  2  0  0  0  0
  3  7  2  0  0  0  0
  3 12  1  0  0  0  0
  4  8  1  0  0  0  0
  4 12  2  0  0  0  0
  5 14  1  0  0  0  0
  6 15  1  0  0  0  0
  7 16  1  0  0  0  0
  8 16  2  0  0  0  0
  9 10  2  0  0  0  0
  9 13  1  0  0  0  0
 10 27  1  0  0  0  0
 11 13  2  0  0  0  0
 11 27  1  0  0  0  0
 12 20  1  0  0  0  0
 13 19  1  0  0  0  0
 14 15  2  0  0  0  0
 14 21  1  0  0  0  0
 15 23  1  0  0  0  0
 16 26  1  0  0  0  0
 17 20  1  0  0  0  0
 17 24  1  0  0  0  0
 17 25  2  0  0  0  0
 18 26  1  0  0  0  0
 19 20  1  6  0  0  0
 21 22  2  0  0  0  0
 22 23  1  0  0  0  0
 23 24  1  0  0  0  0
  1 28  1  0  0  0  0
  2 29  1  0  0  0  0
  3 30  1  0  0  0  0
  4 31  1  0  0  0  0
  5 32  1  0  0  0  0
  6 33  1  0  0  0  0
  7 34  1  0  0  0  0
  8 35  1  0  0  0  0
  9 36  1  0  0  0  0
 10 37  1  0  0  0  0
 11 38  1  0  0  0  0
 18 39  1  0  0  0  0
 18 40  1  0  0  0  0
 18 41  1  0  0  0  0
 19 42  1  0  0  0  0
 19 43  1  0  0  0  0
 20 44  1  0  0  0  0
 24 45  1  0  0  0  0
M  END
> <clash_score>
0

> <docking_score>
-6.922831058502197

> <overlap_score>
0.8789636492729187

$$$$
BENZO_187_1
  -OEChem-08222022393D

 48 51  0     1  0  0  0  0  0999 V2000
    4.0980    2.1130   19.5350 C   0  0  0  0  0  0  0  0  0  0  0  0
    4.2970    1.6690   20.8430 C   0  0  0  0  0  0  0  0  0  0  0  0
    8.3510   -1.5420   24.6110 C   0  0  0  0  0  0  0  0  0  0  0  0
   10.2760   -2.3270   23.4020 C   0  0  0  0  0  0  0  0  0  0  0  0
    4.9400    1.7060   18.5060 C   0  0  0  0  0  0  0  0  0  0  0  0
    5.3360    0.8000   21.1530 C   0  0  0  0  0  0  0  0  0  0  0  0
    8.3310   -2.7170   25.3430 C   0  0  0  0  0  0  0  0  0  0  0  0
   10.2570   -3.5000   24.1350 C   0  0  0  0  0  0  0  0  0  0  0  0
   12.3042    2.3166   23.4491 C   0  0  0  0  0  0  0  0  0  0  0  0
   12.4050    0.1328   23.2128 C   0  0  0  0  0  0  0  0  0  0  0  0
    9.3300   -1.3350   23.6390 C   0  0  0  0  0  0  0  0  0  0  0  0
   11.5140    1.1515   23.4468 C   0  0  0  0  0  0  0  0  0  0  0  0
    5.9810    0.8330   18.8060 C   0  0  0  0  0  0  0  0  0  0  0  0
    6.1600    0.3870   20.1140 C   0  0  0  0  0  0  0  0  0  0  0  0
    9.2850   -3.7090   25.1090 C   0  0  0  0  0  0  0  0  0  0  0  0
    8.9510    0.1280   21.6880 C   0  0  0  0  0  0  0  0  0  0  0  0
   14.8822    0.0595   22.8428 C   0  0  0  0  0  0  0  0  0  0  0  0
    8.2358   -4.9962   26.8042 C   0  0  0  0  0  0  0  0  0  0  0  0
   10.0220    1.0430   23.6570 C   0  0  0  0  0  0  0  0  0  0  0  0
    9.4200   -0.0840   22.9530 C   0  0  1  0  0  0  0  0  0  0  0  0
   13.5977    2.0627   23.2339 N   0  0  0  0  0  0  0  0  0  0  0  0
    6.9440    0.2550   18.0100 N   0  0  0  0  0  0  0  0  0  0  0  0
    7.6830   -0.5170   18.7600 N   0  0  0  0  0  0  0  0  0  0  0  0
   13.6272    0.7264   23.0942 N   0  0  0  0  0  0  0  0  0  0  0  0
    7.2210   -0.4620   20.0350 N   0  0  0  0  0  0  0  0  0  0  0  0
    8.0810   -0.9750   21.0820 N   0  0  0  0  0  0  0  0  0  0  0  0
    9.1870    1.1500   21.0630 O   0  0  0  0  0  0  0  0  0  0  0  0
    9.2637   -4.8607   25.8240 O   0  0  0  0  0  0  0  0  0  0  0  0
    3.2714    2.7876   19.3199 H   0  0  0  0  0  0  0  0  0  0  0  0
    3.6283    2.0091   21.6296 H   0  0  0  0  0  0  0  0  0  0  0  0
    7.5962   -0.7776   24.7980 H   0  0  0  0  0  0  0  0  0  0  0  0
   11.0395   -2.1844   22.6346 H   0  0  0  0  0  0  0  0  0  0  0  0
    4.7824    2.0670   17.4883 H   0  0  0  0  0  0  0  0  0  0  0  0
    5.4937    0.4574   22.1805 H   0  0  0  0  0  0  0  0  0  0  0  0
    7.5664   -2.8672   26.1058 H   0  0  0  0  0  0  0  0  0  0  0  0
   11.0120   -4.2666   23.9463 H   0  0  0  0  0  0  0  0  0  0  0  0
   11.9938    3.3409   23.5993 H   0  0  0  0  0  0  0  0  0  0  0  0
   12.2768   -0.9376   23.1242 H   0  0  0  0  0  0  0  0  0  0  0  0
   15.0256    0.0076   21.7603 H   0  0  0  0  0  0  0  0  0  0  0  0
   15.6943    0.6239   23.3094 H   0  0  0  0  0  0  0  0  0  0  0  0
   14.8503   -0.9450   23.2739 H   0  0  0  0  0  0  0  0  0  0  0  0
    8.3326   -5.9634   27.3035 H   0  0  0  0  0  0  0  0  0  0  0  0
    7.2583   -4.9194   26.3215 H   0  0  0  0  0  0  0  0  0  0  0  0
    8.3398   -4.1963   27.5412 H   0  0  0  0  0  0  0  0  0  0  0  0
    9.8388    0.9439   24.7360 H   0  0  0  0  0  0  0  0  0  0  0  0
    9.5396    1.9876   23.3725 H   0  0  0  0  0  0  0  0  0  0  0  0
    8.1264    0.3141   23.4937 H   0  0  0  0  0  0  0  0  0  0  0  0
    8.1479   -1.8049   21.3777 H   0  0  0  0  0  0  0  0  0  0  0  0
  1  2  1  0  0  0  0
  1  5  2  0  0  0  0
  2  6  2  0  0  0  0
  3  7  2  0  0  0  0
  3 11  1  0  0  0  0
  4  8  1  0  0  0  0
  4 11  2  0  0  0  0
  5 13  1  0  0  0  0
  6 14  1  0  0  0  0
  7 15  1  0  0  0  0
  8 15  2  0  0  0  0
  9 12  1  0  0  0  0
  9 21  2  0  0  0  0
 10 12  2  0  0  0  0
 10 24  1  0  0  0  0
 11 20  1  0  0  0  0
 12 19  1  0  0  0  0
 13 14  2  0  0  0  0
 13 22  1  0  0  0  0
 14 25  1  0  0  0  0
 15 28  1  0  0  0  0
 16 20  1  0  0  0  0
 16 26  1  0  0  0  0
 16 27  2  0  0  0  0
 17 24  1  0  0  0  0
 18 28  1  0  0  0  0
 19 20  1  1  0  0  0
 21 24  1  0  0  0  0
 22 23  2  0  0  0  0
 23 25  1  0  0  0  0
 25 26  1  0  0  0  0
  1 29  1  0  0  0  0
  2 30  1  0  0  0  0
  3 31  1  0  0  0  0
  4 32  1  0  0  0  0
  5 33  1  0  0  0  0
  6 34  1  0  0  0  0
  7 35  1  0  0  0  0
  8 36  1  0  0  0  0
  9 37  1  0  0  0  0
 10 38  1  0  0  0  0
 17 39  1  0  0  0  0
 17 40  1  0  0  0  0
 17 41  1  0  0  0  0
 18 42  1  0  0  0  0
 18 43  1  0  0  0  0
 18 44  1  0  0  0  0
 19 45  1  0  0  0  0
 19 46  1  0  0  0  0
 20 47  1  0  0  0  0
 26 48  1  0  0  0  0
M  END
> <clash_score>
0

> <docking_score>
-9.48935317993164

> <overlap_score>
1.0073814392089844

$$$$
BENZO_186_1
  -OEChem-08222022393D

 48 51  0     1  0  0  0  0  0999 V2000
    4.0980    2.1130   19.5350 C   0  0  0  0  0  0  0  0  0  0  0  0
    4.2970    1.6690   20.8430 C   0  0  0  0  0  0  0  0  0  0  0  0
   13.7669    0.5967   24.1200 C   0  0  0  0  0  0  0  0  0  0  0  0
   12.3892    0.4979   24.3142 C   0  0  0  0  0  0  0  0  0  0  0  0
    8.3510   -1.5420   24.6110 C   0  0  0  0  0  0  0  0  0  0  0  0
   10.2760   -2.3270   23.4020 C   0  0  0  0  0  0  0  0  0  0  0  0
    4.9400    1.7060   18.5060 C   0  0  0  0  0  0  0  0  0  0  0  0
    5.3360    0.8000   21.1530 C   0  0  0  0  0  0  0  0  0  0  0  0
    8.3310   -2.7170   25.3430 C   0  0  0  0  0  0  0  0  0  0  0  0
   10.2570   -3.5000   24.1350 C   0  0  0  0  0  0  0  0  0  0  0  0
   14.2694    1.3493   23.0584 C   0  0  0  0  0  0  0  0  0  0  0  0
   12.0165    1.9040   22.3852 C   0  0  0  0  0  0  0  0  0  0  0  0
    9.3300   -1.3350   23.6390 C   0  0  0  0  0  0  0  0  0  0  0  0
   11.5140    1.1515   23.4468 C   0  0  0  0  0  0  0  0  0  0  0  0
    5.9810    0.8330   18.8060 C   0  0  0  0  0  0  0  0  0  0  0  0
    6.1600    0.3870   20.1140 C   0  0  0  0  0  0  0  0  0  0  0  0
    9.2850   -3.7090   25.1090 C   0  0  0  0  0  0  0  0  0  0  0  0
   13.3942    2.0028   22.1910 C   0  0  0  0  0  0  0  0  0  0  0  0
    8.9510    0.1280   21.6880 C   0  0  0  0  0  0  0  0  0  0  0  0
    8.2358   -4.9962   26.8042 C   0  0  0  0  0  0  0  0  0  0  0  0
   10.0220    1.0430   23.6570 C   0  0  0  0  0  0  0  0  0  0  0  0
    9.4200   -0.0840   22.9530 C   0  0  1  0  0  0  0  0  0  0  0  0
    6.9440    0.2550   18.0100 N   0  0  0  0  0  0  0  0  0  0  0  0
    7.6830   -0.5170   18.7600 N   0  0  0  0  0  0  0  0  0  0  0  0
    7.2210   -0.4620   20.0350 N   0  0  0  0  0  0  0  0  0  0  0  0
    8.0810   -0.9750   21.0820 N   0  0  0  0  0  0  0  0  0  0  0  0
    9.1870    1.1500   21.0630 O   0  0  0  0  0  0  0  0  0  0  0  0
    9.2637   -4.8607   25.8240 O   0  0  0  0  0  0  0  0  0  0  0  0
   14.0147    2.9302   20.8808 Cl  0  0  0  0  0  0  0  0  0  0  0  0
    3.2714    2.7876   19.3199 H   0  0  0  0  0  0  0  0  0  0  0  0
    3.6283    2.0091   21.6296 H   0  0  0  0  0  0  0  0  0  0  0  0
   14.4481    0.0875   24.7956 H   0  0  0  0  0  0  0  0  0  0  0  0
   12.0065   -0.0907   25.1439 H   0  0  0  0  0  0  0  0  0  0  0  0
    7.5962   -0.7776   24.7980 H   0  0  0  0  0  0  0  0  0  0  0  0
   11.0395   -2.1844   22.6346 H   0  0  0  0  0  0  0  0  0  0  0  0
    4.7824    2.0670   17.4883 H   0  0  0  0  0  0  0  0  0  0  0  0
    5.4937    0.4574   22.1805 H   0  0  0  0  0  0  0  0  0  0  0  0
    7.5664   -2.8672   26.1058 H   0  0  0  0  0  0  0  0  0  0  0  0
   11.0120   -4.2666   23.9463 H   0  0  0  0  0  0  0  0  0  0  0  0
   15.3456    1.4172   22.9191 H   0  0  0  0  0  0  0  0  0  0  0  0
   11.3299    2.4121   21.7119 H   0  0  0  0  0  0  0  0  0  0  0  0
    8.3326   -5.9634   27.3035 H   0  0  0  0  0  0  0  0  0  0  0  0
    7.2583   -4.9194   26.3215 H   0  0  0  0  0  0  0  0  0  0  0  0
    8.3398   -4.1963   27.5412 H   0  0  0  0  0  0  0  0  0  0  0  0
    9.8388    0.9439   24.7360 H   0  0  0  0  0  0  0  0  0  0  0  0
    9.5396    1.9876   23.3725 H   0  0  0  0  0  0  0  0  0  0  0  0
    8.1264    0.3141   23.4937 H   0  0  0  0  0  0  0  0  0  0  0  0
    8.1479   -1.8049   21.3777 H   0  0  0  0  0  0  0  0  0  0  0  0
  1  2  1  0  0  0  0
  1  7  2  0  0  0  0
  2  8  2  0  0  0  0
  3  4  2  0  0  0  0
  3 11  1  0  0  0  0
  4 14  1  0  0  0  0
  5  9  2  0  0  0  0
  5 13  1  0  0  0  0
  6 10  1  0  0  0  0
  6 13  2  0  0  0  0
  7 15  1  0  0  0  0
  8 16  1  0  0  0  0
  9 17  1  0  0  0  0
 10 17  2  0  0  0  0
 11 18  2  0  0  0  0
 12 14  2  0  0  0  0
 12 18  1  0  0  0  0
 13 22  1  0  0  0  0
 14 21  1  0  0  0  0
 15 16  2  0  0  0  0
 15 23  1  0  0  0  0
 16 25  1  0  0  0  0
 17 28  1  0  0  0  0
 18 29  1  0  0  0  0
 19 22  1  0  0  0  0
 19 26  1  0  0  0  0
 19 27  2  0  0  0  0
 20 28  1  0  0  0  0
 21 22  1  1  0  0  0
 23 24  2  0  0  0  0
 24 25  1  0  0  0  0
 25 26  1  0  0  0  0
  1 30  1  0  0  0  0
  2 31  1  0  0  0  0
  3 32  1  0  0  0  0
  4 33  1  0  0  0  0
  5 34  1  0  0  0  0
  6 35  1  0  0  0  0
  7 36  1  0  0  0  0
  8 37  1  0  0  0  0
  9 38  1  0  0  0  0
 10 39  1  0  0  0  0
 11 40  1  0  0  0  0
 12 41  1  0  0  0  0
 20 42  1  0  0  0  0
 20 43  1  0  0  0  0
 20 44  1  0  0  0  0
 21 45  1  0  0  0  0
 21 46  1  0  0  0  0
 22 47  1  0  0  0  0
 26 48  1  0  0  0  0
M  END
> <clash_score>
0

> <docking_score>
-7.980191707611084

> <overlap_score>
1.0087361335754395

$$$$
BENZO_187_2
  -OEChem-08222022393D

 48 51  0     1  0  0  0  0  0999 V2000
    4.0980    2.1130   19.5350 C   0  0  0  0  0  0  0  0  0  0  0  0
    4.2970    1.6690   20.8430 C   0  0  0  0  0  0  0  0  0  0  0  0
    8.3510   -1.5420   24.6110 C   0  0  0  0  0  0  0  0  0  0  0  0
   10.2760   -2.3270   23.4020 C   0  0  0  0  0  0  0  0  0  0  0  0
    4.9400    1.7060   18.5060 C   0  0  0  0  0  0  0  0  0  0  0  0
    5.3360    0.8000   21.1530 C   0  0  0  0  0  0  0  0  0  0  0  0
    8.3310   -2.7170   25.3430 C   0  0  0  0  0  0  0  0  0  0  0  0
   10.2570   -3.5000   24.1350 C   0  0  0  0  0  0  0  0  0  0  0  0
   12.4581    1.4918   22.7981 C   0  0  0  0  0  0  0  0  0  0  0  0
   10.9018    2.8185   21.9903 C   0  0  0  0  0  0  0  0  0  0  0  0
    9.3300   -1.3350   23.6390 C   0  0  0  0  0  0  0  0  0  0  0  0
   11.0769    1.7595   22.8472 C   0  0  0  0  0  0  0  0  0  0  0  0
    5.9810    0.8330   18.8060 C   0  0  0  0  0  0  0  0  0  0  0  0
    6.1600    0.3870   20.1140 C   0  0  0  0  0  0  0  0  0  0  0  0
    9.2850   -3.7090   25.1090 C   0  0  0  0  0  0  0  0  0  0  0  0
    8.9510    0.1280   21.6880 C   0  0  0  0  0  0  0  0  0  0  0  0
   12.4642    4.1525   20.5557 C   0  0  0  0  0  0  0  0  0  0  0  0
    8.2358   -4.9962   26.8042 C   0  0  0  0  0  0  0  0  0  0  0  0
   10.0220    1.0430   23.6570 C   0  0  0  0  0  0  0  0  0  0  0  0
    9.4200   -0.0840   22.9530 C   0  0  2  0  0  0  0  0  0  0  0  0
   13.1138    2.3143   21.9750 N   0  0  0  0  0  0  0  0  0  0  0  0
    6.9440    0.2550   18.0100 N   0  0  0  0  0  0  0  0  0  0  0  0
    7.6830   -0.5170   18.7600 N   0  0  0  0  0  0  0  0  0  0  0  0
   12.1404    3.1092   21.4989 N   0  0  0  0  0  0  0  0  0  0  0  0
    7.2210   -0.4620   20.0350 N   0  0  0  0  0  0  0  0  0  0  0  0
    8.0810   -0.9750   21.0820 N   0  0  0  0  0  0  0  0  0  0  0  0
    9.1870    1.1500   21.0630 O   0  0  0  0  0  0  0  0  0  0  0  0
    9.2637   -4.8607   25.8240 O   0  0  0  0  0  0  0  0  0  0  0  0
    3.2714    2.7876   19.3199 H   0  0  0  0  0  0  0  0  0  0  0  0
    3.6283    2.0091   21.6296 H   0  0  0  0  0  0  0  0  0  0  0  0
    7.5962   -0.7776   24.7980 H   0  0  0  0  0  0  0  0  0  0  0  0
   11.0395   -2.1844   22.6346 H   0  0  0  0  0  0  0  0  0  0  0  0
    4.7824    2.0670   17.4883 H   0  0  0  0  0  0  0  0  0  0  0  0
    5.4937    0.4574   22.1805 H   0  0  0  0  0  0  0  0  0  0  0  0
    7.5664   -2.8672   26.1058 H   0  0  0  0  0  0  0  0  0  0  0  0
   11.0120   -4.2666   23.9463 H   0  0  0  0  0  0  0  0  0  0  0  0
   13.0162    0.7317   23.3262 H   0  0  0  0  0  0  0  0  0  0  0  0
   10.0229    3.3754   21.6946 H   0  0  0  0  0  0  0  0  0  0  0  0
   12.6964    5.0586   21.1216 H   0  0  0  0  0  0  0  0  0  0  0  0
   13.3249    3.8459   19.9549 H   0  0  0  0  0  0  0  0  0  0  0  0
   11.6087    4.3213   19.8958 H   0  0  0  0  0  0  0  0  0  0  0  0
    8.3326   -5.9634   27.3035 H   0  0  0  0  0  0  0  0  0  0  0  0
    7.2583   -4.9194   26.3215 H   0  0  0  0  0  0  0  0  0  0  0  0
    8.3398   -4.1963   27.5412 H   0  0  0  0  0  0  0  0  0  0  0  0
   10.4908    0.6894   24.5858 H   0  0  0  0  0  0  0  0  0  0  0  0
    9.2554    1.7595   23.9807 H   0  0  0  0  0  0  0  0  0  0  0  0
   10.7193   -0.4348   22.4312 H   0  0  0  0  0  0  0  0  0  0  0  0
    8.1479   -1.8049   21.3777 H   0  0  0  0  0  0  0  0  0  0  0  0
  1  2  1  0  0  0  0
  1  5  2  0  0  0  0
  2  6  2  0  0  0  0
  3  7  2  0  0  0  0
  3 11  1  0  0  0  0
  4  8  1  0  0  0  0
  4 11  2  0  0  0  0
  5 13  1  0  0  0  0
  6 14  1  0  0  0  0
  7 15  1  0  0  0  0
  8 15  2  0  0  0  0
  9 12  1  0  0  0  0
  9 21  2  0  0  0  0
 10 12  2  0  0  0  0
 10 24  1  0  0  0  0
 11 20  1  0  0  0  0
 12 19  1  0  0  0  0
 13 14  2  0  0  0  0
 13 22  1  0  0  0  0
 14 25  1  0  0  0  0
 15 28  1  0  0  0  0
 16 20  1  0  0  0  0
 16 26  1  0  0  0  0
 16 27  2  0  0  0  0
 17 24  1  0  0  0  0
 18 28  1  0  0  0  0
 19 20  1  6  0  0  0
 21 24  1  0  0  0  0
 22 23  2  0  0  0  0
 23 25  1  0  0  0  0
 25 26  1  0  0  0  0
  1 29  1  0  0  0  0
  2 30  1  0  0  0  0
  3 31  1  0  0  0  0
  4 32  1  0  0  0  0
  5 33  1  0  0  0  0
  6 34  1  0  0  0  0
  7 35  1  0  0  0  0
  8 36  1  0  0  0  0
  9 37  1  0  0  0  0
 10 38  1  0  0  0  0
 17 39  1  0  0  0  0
 17 40  1  0  0  0  0
 17 41  1  0  0  0  0
 18 42  1  0  0  0  0
 18 43  1  0  0  0  0
 18 44  1  0  0  0  0
 19 45  1  0  0  0  0
 19 46  1  0  0  0  0
 20 47  1  0  0  0  0
 26 48  1  0  0  0  0
M  END
> <clash_score>
0

> <docking_score>
-8.278484344482422

> <overlap_score>
0.9580734968185425

$$$$
BENZO_186_2
  -OEChem-08222022393D

 48 51  0     1  0  0  0  0  0999 V2000
    4.0980    2.1130   19.5350 C   0  0  0  0  0  0  0  0  0  0  0  0
    4.2970    1.6690   20.8430 C   0  0  0  0  0  0  0  0  0  0  0  0
   13.7731    0.6181   24.0892 C   0  0  0  0  0  0  0  0  0  0  0  0
   12.5319    0.9161   23.5268 C   0  0  0  0  0  0  0  0  0  0  0  0
    8.3510   -1.5420   24.6110 C   0  0  0  0  0  0  0  0  0  0  0  0
   10.2760   -2.3270   23.4020 C   0  0  0  0  0  0  0  0  0  0  0  0
    4.9400    1.7060   18.5060 C   0  0  0  0  0  0  0  0  0  0  0  0
    5.3360    0.8000   21.1530 C   0  0  0  0  0  0  0  0  0  0  0  0
    8.3310   -2.7170   25.3430 C   0  0  0  0  0  0  0  0  0  0  0  0
   10.2570   -3.5000   24.1350 C   0  0  0  0  0  0  0  0  0  0  0  0
   13.8481    0.1225   25.3909 C   0  0  0  0  0  0  0  0  0  0  0  0
   11.4407    0.2233   25.5680 C   0  0  0  0  0  0  0  0  0  0  0  0
    9.3300   -1.3350   23.6390 C   0  0  0  0  0  0  0  0  0  0  0  0
   11.3657    0.7188   24.2662 C   0  0  0  0  0  0  0  0  0  0  0  0
    5.9810    0.8330   18.8060 C   0  0  0  0  0  0  0  0  0  0  0  0
    6.1600    0.3870   20.1140 C   0  0  0  0  0  0  0  0  0  0  0  0
    9.2850   -3.7090   25.1090 C   0  0  0  0  0  0  0  0  0  0  0  0
   12.6819   -0.0748   26.1303 C   0  0  0  0  0  0  0  0  0  0  0  0
    8.9510    0.1280   21.6880 C   0  0  0  0  0  0  0  0  0  0  0  0
    8.2358   -4.9962   26.8042 C   0  0  0  0  0  0  0  0  0  0  0  0
   10.0220    1.0430   23.6570 C   0  0  0  0  0  0  0  0  0  0  0  0
    9.4200   -0.0840   22.9530 C   0  0  2  0  0  0  0  0  0  0  0  0
    6.9440    0.2550   18.0100 N   0  0  0  0  0  0  0  0  0  0  0  0
    7.6830   -0.5170   18.7600 N   0  0  0  0  0  0  0  0  0  0  0  0
    7.2210   -0.4620   20.0350 N   0  0  0  0  0  0  0  0  0  0  0  0
    8.0810   -0.9750   21.0820 N   0  0  0  0  0  0  0  0  0  0  0  0
    9.1870    1.1500   21.0630 O   0  0  0  0  0  0  0  0  0  0  0  0
    9.2637   -4.8607   25.8240 O   0  0  0  0  0  0  0  0  0  0  0  0
   12.7752   -0.6851   27.7367 Cl  0  0  0  0  0  0  0  0  0  0  0  0
    3.2714    2.7876   19.3199 H   0  0  0  0  0  0  0  0  0  0  0  0
    3.6283    2.0091   21.6296 H   0  0  0  0  0  0  0  0  0  0  0  0
   14.6810    0.7720   23.5131 H   0  0  0  0  0  0  0  0  0  0  0  0
   12.4829    1.3020   22.5119 H   0  0  0  0  0  0  0  0  0  0  0  0
    7.5962   -0.7776   24.7980 H   0  0  0  0  0  0  0  0  0  0  0  0
   11.0395   -2.1844   22.6346 H   0  0  0  0  0  0  0  0  0  0  0  0
    4.7824    2.0670   17.4883 H   0  0  0  0  0  0  0  0  0  0  0  0
    5.4937    0.4574   22.1805 H   0  0  0  0  0  0  0  0  0  0  0  0
    7.5664   -2.8672   26.1058 H   0  0  0  0  0  0  0  0  0  0  0  0
   11.0120   -4.2666   23.9463 H   0  0  0  0  0  0  0  0  0  0  0  0
   14.8224   -0.1052   25.8164 H   0  0  0  0  0  0  0  0  0  0  0  0
   10.5286    0.0707   26.1402 H   0  0  0  0  0  0  0  0  0  0  0  0
    8.3326   -5.9634   27.3035 H   0  0  0  0  0  0  0  0  0  0  0  0
    7.2583   -4.9194   26.3215 H   0  0  0  0  0  0  0  0  0  0  0  0
    8.3398   -4.1963   27.5412 H   0  0  0  0  0  0  0  0  0  0  0  0
    9.3544    1.3715   24.4657 H   0  0  0  0  0  0  0  0  0  0  0  0
   10.1173    1.9145   22.9956 H   0  0  0  0  0  0  0  0  0  0  0  0
   10.7193   -0.4348   22.4312 H   0  0  0  0  0  0  0  0  0  0  0  0
    8.1479   -1.8049   21.3777 H   0  0  0  0  0  0  0  0  0  0  0  0
  1  2  1  0  0  0  0
  1  7  2  0  0  0  0
  2  8  2  0  0  0  0
  3  4  2  0  0  0  0
  3 11  1  0  0  0  0
  4 14  1  0  0  0  0
  5  9  2  0  0  0  0
  5 13  1  0  0  0  0
  6 10  1  0  0  0  0
  6 13  2  0  0  0  0
  7 15  1  0  0  0  0
  8 16  1  0  0  0  0
  9 17  1  0  0  0  0
 10 17  2  0  0  0  0
 11 18  2  0  0  0  0
 12 14  2  0  0  0  0
 12 18  1  0  0  0  0
 13 22  1  0  0  0  0
 14 21  1  0  0  0  0
 15 16  2  0  0  0  0
 15 23  1  0  0  0  0
 16 25  1  0  0  0  0
 17 28  1  0  0  0  0
 18 29  1  0  0  0  0
 19 22  1  0  0  0  0
 19 26  1  0  0  0  0
 19 27  2  0  0  0  0
 20 28  1  0  0  0  0
 21 22  1  6  0  0  0
 23 24  2  0  0  0  0
 24 25  1  0  0  0  0
 25 26  1  0  0  0  0
  1 30  1  0  0  0  0
  2 31  1  0  0  0  0
  3 32  1  0  0  0  0
  4 33  1  0  0  0  0
  5 34  1  0  0  0  0
  6 35  1  0  0  0  0
  7 36  1  0  0  0  0
  8 37  1  0  0  0  0
  9 38  1  0  0  0  0
 10 39  1  0  0  0  0
 11 40  1  0  0  0  0
 12 41  1  0  0  0  0
 20 42  1  0  0  0  0
 20 43  1  0  0  0  0
 20 44  1  0  0  0  0
 21 45  1  0  0  0  0
 21 46  1  0  0  0  0
 22 47  1  0  0  0  0
 26 48  1  0  0  0  0
M  END
> <clash_score>
1.5711885598477204

> <docking_score>
-7.005058765411377

> <overlap_score>
0.9275916218757629

$$$$
BENZO_189_2
  -OEChem-08222022393D

 58 62  0     1  0  0  0  0  0999 V2000
   14.2707    1.3172   23.0515 C   0  0  0  0  0  0  0  0  0  0  0  0
   13.7649    0.5714   24.1162 C   0  0  0  0  0  0  0  0  0  0  0  0
   13.3984    1.9741   22.1835 C   0  0  0  0  0  0  0  0  0  0  0  0
    4.0980    2.1130   19.5350 C   0  0  0  0  0  0  0  0  0  0  0  0
    4.2970    1.6690   20.8430 C   0  0  0  0  0  0  0  0  0  0  0  0
   12.3868    0.4824   24.3128 C   0  0  0  0  0  0  0  0  0  0  0  0
   12.0204    1.8850   22.3801 C   0  0  0  0  0  0  0  0  0  0  0  0
    8.3510   -1.5420   24.6110 C   0  0  0  0  0  0  0  0  0  0  0  0
   10.2760   -2.3270   23.4020 C   0  0  0  0  0  0  0  0  0  0  0  0
    4.9400    1.7060   18.5060 C   0  0  0  0  0  0  0  0  0  0  0  0
    5.3360    0.8000   21.1530 C   0  0  0  0  0  0  0  0  0  0  0  0
    8.3310   -2.7170   25.3430 C   0  0  0  0  0  0  0  0  0  0  0  0
   10.2570   -3.5000   24.1350 C   0  0  0  0  0  0  0  0  0  0  0  0
   11.5145    1.1392   23.4448 C   0  0  0  0  0  0  0  0  0  0  0  0
    9.3300   -1.3350   23.6390 C   0  0  0  0  0  0  0  0  0  0  0  0
    5.9810    0.8330   18.8060 C   0  0  0  0  0  0  0  0  0  0  0  0
    6.1600    0.3870   20.1140 C   0  0  0  0  0  0  0  0  0  0  0  0
    9.2850   -3.7090   25.1090 C   0  0  0  0  0  0  0  0  0  0  0  0
    8.0643   -5.4721   26.3672 C   0  0  0  0  0  0  0  0  0  0  0  0
    8.9510    0.1280   21.6880 C   0  0  0  0  0  0  0  0  0  0  0  0
    8.2649   -6.7591   27.1477 C   0  0  0  0  0  0  0  0  0  0  0  0
    9.4073   -6.6157   28.1377 C   0  0  0  0  0  0  0  0  0  0  0  0
   10.6967   -6.1489   27.4694 C   0  0  0  0  0  0  0  0  0  0  0  0
   10.4950   -5.7059   26.0212 C   0  0  0  0  0  0  0  0  0  0  0  0
   10.0220    1.0430   23.6570 C   0  0  0  0  0  0  0  0  0  0  0  0
    9.4200   -0.0840   22.9530 C   0  0  2  0  0  0  0  0  0  0  0  0
    6.9440    0.2550   18.0100 N   0  0  0  0  0  0  0  0  0  0  0  0
    7.6830   -0.5170   18.7600 N   0  0  0  0  0  0  0  0  0  0  0  0
    7.2210   -0.4620   20.0350 N   0  0  0  0  0  0  0  0  0  0  0  0
    9.2624   -4.9267   25.8634 N   0  0  0  0  0  0  0  0  0  0  0  0
    8.0810   -0.9750   21.0820 N   0  0  0  0  0  0  0  0  0  0  0  0
    6.9247   -5.0497   26.1749 O   0  0  0  0  0  0  0  0  0  0  0  0
    9.1870    1.1500   21.0630 O   0  0  0  0  0  0  0  0  0  0  0  0
   15.3438    1.3875   22.8994 H   0  0  0  0  0  0  0  0  0  0  0  0
   14.4439    0.0607   24.7928 H   0  0  0  0  0  0  0  0  0  0  0  0
   13.7919    2.5557   21.3551 H   0  0  0  0  0  0  0  0  0  0  0  0
    3.2714    2.7876   19.3199 H   0  0  0  0  0  0  0  0  0  0  0  0
    3.6283    2.0091   21.6296 H   0  0  0  0  0  0  0  0  0  0  0  0
   12.0017   -0.1012   25.1449 H   0  0  0  0  0  0  0  0  0  0  0  0
   11.3484    2.4000   21.6987 H   0  0  0  0  0  0  0  0  0  0  0  0
    7.5948   -0.7783   24.7966 H   0  0  0  0  0  0  0  0  0  0  0  0
   11.0389   -2.1844   22.6342 H   0  0  0  0  0  0  0  0  0  0  0  0
    4.7824    2.0670   17.4883 H   0  0  0  0  0  0  0  0  0  0  0  0
    5.4937    0.4574   22.1805 H   0  0  0  0  0  0  0  0  0  0  0  0
    7.5642   -2.8624   26.1050 H   0  0  0  0  0  0  0  0  0  0  0  0
   11.0137   -4.2649   23.9418 H   0  0  0  0  0  0  0  0  0  0  0  0
    7.3543   -6.9829   27.6818 H   0  0  0  0  0  0  0  0  0  0  0  0
    8.4783   -7.5436   26.4372 H   0  0  0  0  0  0  0  0  0  0  0  0
    9.1257   -5.9021   28.9399 H   0  0  0  0  0  0  0  0  0  0  0  0
    9.5814   -7.5840   28.6486 H   0  0  0  0  0  0  0  0  0  0  0  0
   11.1319   -5.3094   28.0513 H   0  0  0  0  0  0  0  0  0  0  0  0
   11.4591   -6.9570   27.5118 H   0  0  0  0  0  0  0  0  0  0  0  0
   11.3214   -5.0711   25.7158 H   0  0  0  0  0  0  0  0  0  0  0  0
   10.4496   -6.5786   25.3788 H   0  0  0  0  0  0  0  0  0  0  0  0
    9.8382    0.9666   24.7377 H   0  0  0  0  0  0  0  0  0  0  0  0
    9.5447    1.9843   23.3536 H   0  0  0  0  0  0  0  0  0  0  0  0
    8.1249    0.3211   23.4916 H   0  0  0  0  0  0  0  0  0  0  0  0
    8.1256   -1.8039   21.3539 H   0  0  0  0  0  0  0  0  0  0  0  0
  1  2  1  0  0  0  0
  1  3  2  0  0  0  0
  2  6  2  0  0  0  0
  3  7  1  0  0  0  0
  4  5  1  0  0  0  0
  4 10  2  0  0  0  0
  5 11  2  0  0  0  0
  6 14  1  0  0  0  0
  7 14  2  0  0  0  0
  8 12  2  0  0  0  0
  8 15  1  0  0  0  0
  9 13  1  0  0  0  0
  9 15  2  0  0  0  0
 10 16  1  0  0  0  0
 11 17  1  0  0  0  0
 12 18  1  0  0  0  0
 13 18  2  0  0  0  0
 14 25  1  0  0  0  0
 15 26  1  0  0  0  0
 16 17  2  0  0  0  0
 16 27  1  0  0  0  0
 17 29  1  0  0  0  0
 18 30  1  0  0  0  0
 19 21  1  0  0  0  0
 19 30  1  0  0  0  0
 19 32  2  0  0  0  0
 20 26  1  6  0  0  0
 20 31  1  0  0  0  0
 20 33  2  0  0  0  0
 21 22  1  0  0  0  0
 22 23  1  0  0  0  0
 23 24  1  0  0  0  0
 24 30  1  0  0  0  0
 25 26  1  0  0  0  0
 27 28  2  0  0  0  0
 28 29  1  0  0  0  0
 29 31  1  0  0  0  0
  1 34  1  0  0  0  0
  2 35  1  0  0  0  0
  3 36  1  0  0  0  0
  4 37  1  0  0  0  0
  5 38  1  0  0  0  0
  6 39  1  0  0  0  0
  7 40  1  0  0  0  0
  8 41  1  0  0  0  0
  9 42  1  0  0  0  0
 10 43  1  0  0  0  0
 11 44  1  0  0  0  0
 12 45  1  0  0  0  0
 13 46  1  0  0  0  0
 21 47  1  0  0  0  0
 21 48  1  0  0  0  0
 22 49  1  0  0  0  0
 22 50  1  0  0  0  0
 23 51  1  0  0  0  0
 23 52  1  0  0  0  0
 24 53  1  0  0  0  0
 24 54  1  0  0  0  0
 25 55  1  0  0  0  0
 25 56  1  0  0  0  0
 26 57  1  0  0  0  0
 31 58  1  0  0  0  0
M  END
> <clash_score>
1.2728248649063287

> <docking_score>
-7.332020282745361

> <overlap_score>
1.0254168510437012

$$$$
BENZO_189_1
  -OEChem-08222022393D

 58 62  0     1  0  0  0  0  0999 V2000
   13.8495    0.0928   25.3717 C   0  0  0  0  0  0  0  0  0  0  0  0
   12.6852   -0.1005   26.1150 C   0  0  0  0  0  0  0  0  0  0  0  0
   13.7723    0.5944   24.0724 C   0  0  0  0  0  0  0  0  0  0  0  0
    4.0980    2.1130   19.5350 C   0  0  0  0  0  0  0  0  0  0  0  0
    4.2970    1.6690   20.8430 C   0  0  0  0  0  0  0  0  0  0  0  0
   11.4436    0.2077   25.5591 C   0  0  0  0  0  0  0  0  0  0  0  0
   12.5307    0.9026   23.5164 C   0  0  0  0  0  0  0  0  0  0  0  0
    8.3510   -1.5420   24.6110 C   0  0  0  0  0  0  0  0  0  0  0  0
   10.2760   -2.3270   23.4020 C   0  0  0  0  0  0  0  0  0  0  0  0
    4.9400    1.7060   18.5060 C   0  0  0  0  0  0  0  0  0  0  0  0
    5.3360    0.8000   21.1530 C   0  0  0  0  0  0  0  0  0  0  0  0
    8.3310   -2.7170   25.3430 C   0  0  0  0  0  0  0  0  0  0  0  0
   10.2570   -3.5000   24.1350 C   0  0  0  0  0  0  0  0  0  0  0  0
   11.3663    0.7093   24.2598 C   0  0  0  0  0  0  0  0  0  0  0  0
    9.3300   -1.3350   23.6390 C   0  0  0  0  0  0  0  0  0  0  0  0
    5.9810    0.8330   18.8060 C   0  0  0  0  0  0  0  0  0  0  0  0
    6.1600    0.3870   20.1140 C   0  0  0  0  0  0  0  0  0  0  0  0
    9.2850   -3.7090   25.1090 C   0  0  0  0  0  0  0  0  0  0  0  0
    8.0643   -5.4721   26.3672 C   0  0  0  0  0  0  0  0  0  0  0  0
    8.9510    0.1280   21.6880 C   0  0  0  0  0  0  0  0  0  0  0  0
    8.2649   -6.7591   27.1477 C   0  0  0  0  0  0  0  0  0  0  0  0
    9.4073   -6.6157   28.1377 C   0  0  0  0  0  0  0  0  0  0  0  0
   10.6967   -6.1489   27.4694 C   0  0  0  0  0  0  0  0  0  0  0  0
   10.4950   -5.7059   26.0212 C   0  0  0  0  0  0  0  0  0  0  0  0
   10.0220    1.0430   23.6570 C   0  0  0  0  0  0  0  0  0  0  0  0
    9.4200   -0.0840   22.9530 C   0  0  1  0  0  0  0  0  0  0  0  0
    6.9440    0.2550   18.0100 N   0  0  0  0  0  0  0  0  0  0  0  0
    7.6830   -0.5170   18.7600 N   0  0  0  0  0  0  0  0  0  0  0  0
    7.2210   -0.4620   20.0350 N   0  0  0  0  0  0  0  0  0  0  0  0
    9.2624   -4.9267   25.8634 N   0  0  0  0  0  0  0  0  0  0  0  0
    8.0810   -0.9750   21.0820 N   0  0  0  0  0  0  0  0  0  0  0  0
    6.9247   -5.0497   26.1749 O   0  0  0  0  0  0  0  0  0  0  0  0
    9.1870    1.1500   21.0630 O   0  0  0  0  0  0  0  0  0  0  0  0
   14.8163   -0.1459   25.8052 H   0  0  0  0  0  0  0  0  0  0  0  0
   12.7453   -0.4901   27.1271 H   0  0  0  0  0  0  0  0  0  0  0  0
   14.6787    0.7461   23.4938 H   0  0  0  0  0  0  0  0  0  0  0  0
    3.2714    2.7876   19.3199 H   0  0  0  0  0  0  0  0  0  0  0  0
    3.6283    2.0091   21.6296 H   0  0  0  0  0  0  0  0  0  0  0  0
   10.5417    0.0536   26.1456 H   0  0  0  0  0  0  0  0  0  0  0  0
   12.4801    1.2929   22.5034 H   0  0  0  0  0  0  0  0  0  0  0  0
    7.5948   -0.7783   24.7966 H   0  0  0  0  0  0  0  0  0  0  0  0
   11.0389   -2.1844   22.6342 H   0  0  0  0  0  0  0  0  0  0  0  0
    4.7824    2.0670   17.4883 H   0  0  0  0  0  0  0  0  0  0  0  0
    5.4937    0.4574   22.1805 H   0  0  0  0  0  0  0  0  0  0  0  0
    7.5642   -2.8624   26.1050 H   0  0  0  0  0  0  0  0  0  0  0  0
   11.0137   -4.2649   23.9418 H   0  0  0  0  0  0  0  0  0  0  0  0
    7.3543   -6.9829   27.6818 H   0  0  0  0  0  0  0  0  0  0  0  0
    8.4783   -7.5436   26.4372 H   0  0  0  0  0  0  0  0  0  0  0  0
    9.1257   -5.9021   28.9399 H   0  0  0  0  0  0  0  0  0  0  0  0
    9.5814   -7.5840   28.6486 H   0  0  0  0  0  0  0  0  0  0  0  0
   11.1319   -5.3094   28.0513 H   0  0  0  0  0  0  0  0  0  0  0  0
   11.4591   -6.9570   27.5118 H   0  0  0  0  0  0  0  0  0  0  0  0
   11.3214   -5.0711   25.7158 H   0  0  0  0  0  0  0  0  0  0  0  0
   10.4496   -6.5786   25.3788 H   0  0  0  0  0  0  0  0  0  0  0  0
    9.3646    1.3888   24.4669 H   0  0  0  0  0  0  0  0  0  0  0  0
   10.1228    1.9057   22.9851 H   0  0  0  0  0  0  0  0  0  0  0  0
   10.7230   -0.4323   22.4284 H   0  0  0  0  0  0  0  0  0  0  0  0
    8.1256   -1.8039   21.3539 H   0  0  0  0  0  0  0  0  0  0  0  0
  1  2  1  0  0  0  0
  1  3  2  0  0  0  0
  2  6  2  0  0  0  0
  3  7  1  0  0  0  0
  4  5  1  0  0  0  0
  4 10  2  0  0  0  0
  5 11  2  0  0  0  0
  6 14  1  0  0  0  0
  7 14  2  0  0  0  0
  8 12  2  0  0  0  0
  8 15  1  0  0  0  0
  9 13  1  0  0  0  0
  9 15  2  0  0  0  0
 10 16  1  0  0  0  0
 11 17  1  0  0  0  0
 12 18  1  0  0  0  0
 13 18  2  0  0  0  0
 14 25  1  0  0  0  0
 15 26  1  0  0  0  0
 16 17  2  0  0  0  0
 16 27  1  0  0  0  0
 17 29  1  0  0  0  0
 18 30  1  0  0  0  0
 19 21  1  0  0  0  0
 19 30  1  0  0  0  0
 19 32  2  0  0  0  0
 20 26  1  1  0  0  0
 20 31  1  0  0  0  0
 20 33  2  0  0  0  0
 21 22  1  0  0  0  0
 22 23  1  0  0  0  0
 23 24  1  0  0  0  0
 24 30  1  0  0  0  0
 25 26  1  0  0  0  0
 27 28  2  0  0  0  0
 28 29  1  0  0  0  0
 29 31  1  0  0  0  0
  1 34  1  0  0  0  0
  2 35  1  0  0  0  0
  3 36  1  0  0  0  0
  4 37  1  0  0  0  0
  5 38  1  0  0  0  0
  6 39  1  0  0  0  0
  7 40  1  0  0  0  0
  8 41  1  0  0  0  0
  9 42  1  0  0  0  0
 10 43  1  0  0  0  0
 11 44  1  0  0  0  0
 12 45  1  0  0  0  0
 13 46  1  0  0  0  0
 21 47  1  0  0  0  0
 21 48  1  0  0  0  0
 22 49  1  0  0  0  0
 22 50  1  0  0  0  0
 23 51  1  0  0  0  0
 23 52  1  0  0  0  0
 24 53  1  0  0  0  0
 24 54  1  0  0  0  0
 25 55  1  0  0  0  0
 25 56  1  0  0  0  0
 26 57  1  0  0  0  0
 31 58  1  0  0  0  0
M  END
> <clash_score>
1.2728248649063287

> <docking_score>
-6.44674015045166

> <overlap_score>
0.9502190947532654

$$$$
BENZO_188_1
  -OEChem-08222022393D

 55 59  0     1  0  0  0  0  0999 V2000
    4.0980    2.1130   19.5350 C   0  0  0  0  0  0  0  0  0  0  0  0
    4.2970    1.6690   20.8430 C   0  0  0  0  0  0  0  0  0  0  0  0
    8.3510   -1.5420   24.6110 C   0  0  0  0  0  0  0  0  0  0  0  0
   10.2760   -2.3270   23.4020 C   0  0  0  0  0  0  0  0  0  0  0  0
    4.9400    1.7060   18.5060 C   0  0  0  0  0  0  0  0  0  0  0  0
    5.3360    0.8000   21.1530 C   0  0  0  0  0  0  0  0  0  0  0  0
    8.3310   -2.7170   25.3430 C   0  0  0  0  0  0  0  0  0  0  0  0
   10.2570   -3.5000   24.1350 C   0  0  0  0  0  0  0  0  0  0  0  0
   11.0489    0.9303   26.0330 C   0  0  0  0  0  0  0  0  0  0  0  0
   12.1408    0.4261   26.7047 C   0  0  0  0  0  0  0  0  0  0  0  0
   12.2043   -0.1095   24.3049 C   0  0  0  0  0  0  0  0  0  0  0  0
    9.3300   -1.3350   23.6390 C   0  0  0  0  0  0  0  0  0  0  0  0
   11.0855    0.6200   24.6428 C   0  0  0  0  0  0  0  0  0  0  0  0
    5.9810    0.8330   18.8060 C   0  0  0  0  0  0  0  0  0  0  0  0
    6.1600    0.3870   20.1140 C   0  0  0  0  0  0  0  0  0  0  0  0
    9.2850   -3.7090   25.1090 C   0  0  0  0  0  0  0  0  0  0  0  0
    8.0643   -5.4721   26.3672 C   0  0  0  0  0  0  0  0  0  0  0  0
    8.9510    0.1280   21.6880 C   0  0  0  0  0  0  0  0  0  0  0  0
    8.2649   -6.7591   27.1477 C   0  0  0  0  0  0  0  0  0  0  0  0
    9.4073   -6.6157   28.1377 C   0  0  0  0  0  0  0  0  0  0  0  0
   10.6967   -6.1489   27.4694 C   0  0  0  0  0  0  0  0  0  0  0  0
   10.4950   -5.7059   26.0212 C   0  0  0  0  0  0  0  0  0  0  0  0
   10.0220    1.0430   23.6570 C   0  0  0  0  0  0  0  0  0  0  0  0
    9.4200   -0.0840   22.9530 C   0  0  1  0  0  0  0  0  0  0  0  0
    6.9440    0.2550   18.0100 N   0  0  0  0  0  0  0  0  0  0  0  0
    7.6830   -0.5170   18.7600 N   0  0  0  0  0  0  0  0  0  0  0  0
    7.2210   -0.4620   20.0350 N   0  0  0  0  0  0  0  0  0  0  0  0
    9.2624   -4.9267   25.8634 N   0  0  0  0  0  0  0  0  0  0  0  0
    8.0810   -0.9750   21.0820 N   0  0  0  0  0  0  0  0  0  0  0  0
    6.9247   -5.0497   26.1749 O   0  0  0  0  0  0  0  0  0  0  0  0
    9.1870    1.1500   21.0630 O   0  0  0  0  0  0  0  0  0  0  0  0
   13.2041   -0.4175   25.6606 S   0  0  0  0  0  0  0  0  0  0  0  0
    3.2714    2.7876   19.3199 H   0  0  0  0  0  0  0  0  0  0  0  0
    3.6283    2.0091   21.6296 H   0  0  0  0  0  0  0  0  0  0  0  0
    7.5948   -0.7783   24.7966 H   0  0  0  0  0  0  0  0  0  0  0  0
   11.0389   -2.1844   22.6342 H   0  0  0  0  0  0  0  0  0  0  0  0
    4.7824    2.0670   17.4883 H   0  0  0  0  0  0  0  0  0  0  0  0
    5.4937    0.4574   22.1805 H   0  0  0  0  0  0  0  0  0  0  0  0
    7.5642   -2.8624   26.1050 H   0  0  0  0  0  0  0  0  0  0  0  0
   11.0137   -4.2649   23.9418 H   0  0  0  0  0  0  0  0  0  0  0  0
   10.2636    1.4948   26.5197 H   0  0  0  0  0  0  0  0  0  0  0  0
   12.3654    0.5133   27.7583 H   0  0  0  0  0  0  0  0  0  0  0  0
   12.4867   -0.4772   23.3281 H   0  0  0  0  0  0  0  0  0  0  0  0
    7.3543   -6.9829   27.6818 H   0  0  0  0  0  0  0  0  0  0  0  0
    8.4783   -7.5436   26.4372 H   0  0  0  0  0  0  0  0  0  0  0  0
    9.1257   -5.9021   28.9399 H   0  0  0  0  0  0  0  0  0  0  0  0
    9.5814   -7.5840   28.6486 H   0  0  0  0  0  0  0  0  0  0  0  0
   11.1319   -5.3094   28.0513 H   0  0  0  0  0  0  0  0  0  0  0  0
   11.4591   -6.9570   27.5118 H   0  0  0  0  0  0  0  0  0  0  0  0
   11.3214   -5.0711   25.7158 H   0  0  0  0  0  0  0  0  0  0  0  0
   10.4496   -6.5786   25.3788 H   0  0  0  0  0  0  0  0  0  0  0  0
    9.2570    1.6087   24.2068 H   0  0  0  0  0  0  0  0  0  0  0  0
   10.4462    1.7601   22.9417 H   0  0  0  0  0  0  0  0  0  0  0  0
   10.7230   -0.4323   22.4284 H   0  0  0  0  0  0  0  0  0  0  0  0
    8.1256   -1.8039   21.3539 H   0  0  0  0  0  0  0  0  0  0  0  0
  1  2  1  0  0  0  0
  1  5  2  0  0  0  0
  2  6  2  0  0  0  0
  3  7  2  0  0  0  0
  3 12  1  0  0  0  0
  4  8  1  0  0  0  0
  4 12  2  0  0  0  0
  5 14  1  0  0  0  0
  6 15  1  0  0  0  0
  7 16  1  0  0  0  0
  8 16  2  0  0  0  0
  9 10  2  0  0  0  0
  9 13  1  0  0  0  0
 10 32  1  0  0  0  0
 11 13  2  0  0  0  0
 11 32  1  0  0  0  0
 12 24  1  0  0  0  0
 13 23  1  0  0  0  0
 14 15  2  0  0  0  0
 14 25  1  0  0  0  0
 15 27  1  0  0  0  0
 16 28  1  0  0  0  0
 17 19  1  0  0  0  0
 17 28  1  0  0  0  0
 17 30  2  0  0  0  0
 18 24  1  1  0  0  0
 18 29  1  0  0  0  0
 18 31  2  0  0  0  0
 19 20  1  0  0  0  0
 20 21  1  0  0  0  0
 21 22  1  0  0  0  0
 22 28  1  0  0  0  0
 23 24  1  0  0  0  0
 25 26  2  0  0  0  0
 26 27  1  0  0  0  0
 27 29  1  0  0  0  0
  1 33  1  0  0  0  0
  2 34  1  0  0  0  0
  3 35  1  0  0  0  0
  4 36  1  0  0  0  0
  5 37  1  0  0  0  0
  6 38  1  0  0  0  0
  7 39  1  0  0  0  0
  8 40  1  0  0  0  0
  9 41  1  0  0  0  0
 10 42  1  0  0  0  0
 11 43  1  0  0  0  0
 19 44  1  0  0  0  0
 19 45  1  0  0  0  0
 20 46  1  0  0  0  0
 20 47  1  0  0  0  0
 21 48  1  0  0  0  0
 21 49  1  0  0  0  0
 22 50  1  0  0  0  0
 22 51  1  0  0  0  0
 23 52  1  0  0  0  0
 23 53  1  0  0  0  0
 24 54  1  0  0  0  0
 29 55  1  0  0  0  0
M  END
> <clash_score>
1.2728248649063287

> <docking_score>
-5.406623840332031

> <overlap_score>
0.9002819657325745

$$$$
BENZO_188_2
  -OEChem-08222022393D

 55 59  0     1  0  0  0  0  0999 V2000
    4.0980    2.1130   19.5350 C   0  0  0  0  0  0  0  0  0  0  0  0
    4.2970    1.6690   20.8430 C   0  0  0  0  0  0  0  0  0  0  0  0
    8.3510   -1.5420   24.6110 C   0  0  0  0  0  0  0  0  0  0  0  0
   10.2760   -2.3270   23.4020 C   0  0  0  0  0  0  0  0  0  0  0  0
    4.9400    1.7060   18.5060 C   0  0  0  0  0  0  0  0  0  0  0  0
    5.3360    0.8000   21.1530 C   0  0  0  0  0  0  0  0  0  0  0  0
    8.3310   -2.7170   25.3430 C   0  0  0  0  0  0  0  0  0  0  0  0
   10.2570   -3.5000   24.1350 C   0  0  0  0  0  0  0  0  0  0  0  0
   12.2339    2.3685   23.4053 C   0  0  0  0  0  0  0  0  0  0  0  0
   13.5816    2.1729   23.1980 C   0  0  0  0  0  0  0  0  0  0  0  0
   12.3400    0.0508   23.2658 C   0  0  0  0  0  0  0  0  0  0  0  0
    9.3300   -1.3350   23.6390 C   0  0  0  0  0  0  0  0  0  0  0  0
   11.5145    1.1392   23.4448 C   0  0  0  0  0  0  0  0  0  0  0  0
    5.9810    0.8330   18.8060 C   0  0  0  0  0  0  0  0  0  0  0  0
    6.1600    0.3870   20.1140 C   0  0  0  0  0  0  0  0  0  0  0  0
    9.2850   -3.7090   25.1090 C   0  0  0  0  0  0  0  0  0  0  0  0
    8.0643   -5.4721   26.3672 C   0  0  0  0  0  0  0  0  0  0  0  0
    8.9510    0.1280   21.6880 C   0  0  0  0  0  0  0  0  0  0  0  0
    8.2649   -6.7591   27.1477 C   0  0  0  0  0  0  0  0  0  0  0  0
    9.4073   -6.6157   28.1377 C   0  0  0  0  0  0  0  0  0  0  0  0
   10.6967   -6.1489   27.4694 C   0  0  0  0  0  0  0  0  0  0  0  0
   10.4950   -5.7059   26.0212 C   0  0  0  0  0  0  0  0  0  0  0  0
   10.0220    1.0430   23.6570 C   0  0  0  0  0  0  0  0  0  0  0  0
    9.4200   -0.0840   22.9530 C   0  0  2  0  0  0  0  0  0  0  0  0
    6.9440    0.2550   18.0100 N   0  0  0  0  0  0  0  0  0  0  0  0
    7.6830   -0.5170   18.7600 N   0  0  0  0  0  0  0  0  0  0  0  0
    7.2210   -0.4620   20.0350 N   0  0  0  0  0  0  0  0  0  0  0  0
    9.2624   -4.9267   25.8634 N   0  0  0  0  0  0  0  0  0  0  0  0
    8.0810   -0.9750   21.0820 N   0  0  0  0  0  0  0  0  0  0  0  0
    6.9247   -5.0497   26.1749 O   0  0  0  0  0  0  0  0  0  0  0  0
    9.1870    1.1500   21.0630 O   0  0  0  0  0  0  0  0  0  0  0  0
   13.9749    0.5127   23.0518 S   0  0  0  0  0  0  0  0  0  0  0  0
    3.2714    2.7876   19.3199 H   0  0  0  0  0  0  0  0  0  0  0  0
    3.6283    2.0091   21.6296 H   0  0  0  0  0  0  0  0  0  0  0  0
    7.5948   -0.7783   24.7966 H   0  0  0  0  0  0  0  0  0  0  0  0
   11.0389   -2.1844   22.6342 H   0  0  0  0  0  0  0  0  0  0  0  0
    4.7824    2.0670   17.4883 H   0  0  0  0  0  0  0  0  0  0  0  0
    5.4937    0.4574   22.1805 H   0  0  0  0  0  0  0  0  0  0  0  0
    7.5642   -2.8624   26.1050 H   0  0  0  0  0  0  0  0  0  0  0  0
   11.0137   -4.2649   23.9418 H   0  0  0  0  0  0  0  0  0  0  0  0
   11.7892    3.3487   23.5222 H   0  0  0  0  0  0  0  0  0  0  0  0
   14.3539    2.9255   23.1247 H   0  0  0  0  0  0  0  0  0  0  0  0
   12.0651   -0.9948   23.2487 H   0  0  0  0  0  0  0  0  0  0  0  0
    7.3543   -6.9829   27.6818 H   0  0  0  0  0  0  0  0  0  0  0  0
    8.4783   -7.5436   26.4372 H   0  0  0  0  0  0  0  0  0  0  0  0
    9.1257   -5.9021   28.9399 H   0  0  0  0  0  0  0  0  0  0  0  0
    9.5814   -7.5840   28.6486 H   0  0  0  0  0  0  0  0  0  0  0  0
   11.1319   -5.3094   28.0513 H   0  0  0  0  0  0  0  0  0  0  0  0
   11.4591   -6.9570   27.5118 H   0  0  0  0  0  0  0  0  0  0  0  0
   11.3214   -5.0711   25.7158 H   0  0  0  0  0  0  0  0  0  0  0  0
   10.4496   -6.5786   25.3788 H   0  0  0  0  0  0  0  0  0  0  0  0
    9.8382    0.9666   24.7377 H   0  0  0  0  0  0  0  0  0  0  0  0
    9.5447    1.9843   23.3536 H   0  0  0  0  0  0  0  0  0  0  0  0
    8.1249    0.3211   23.4916 H   0  0  0  0  0  0  0  0  0  0  0  0
    8.1256   -1.8039   21.3539 H   0  0  0  0  0  0  0  0  0  0  0  0
  1  2  1  0  0  0  0
  1  5  2  0  0  0  0
  2  6  2  0  0  0  0
  3  7  2  0  0  0  0
  3 12  1  0  0  0  0
  4  8  1  0  0  0  0
  4 12  2  0  0  0  0
  5 14  1  0  0  0  0
  6 15  1  0  0  0  0
  7 16  1  0  0  0  0
  8 16  2  0  0  0  0
  9 10  2  0  0  0  0
  9 13  1  0  0  0  0
 10 32  1  0  0  0  0
 11 13  2  0  0  0  0
 11 32  1  0  0  0  0
 12 24  1  0  0  0  0
 13 23  1  0  0  0  0
 14 15  2  0  0  0  0
 14 25  1  0  0  0  0
 15 27  1  0  0  0  0
 16 28  1  0  0  0  0
 17 19  1  0  0  0  0
 17 28  1  0  0  0  0
 17 30  2  0  0  0  0
 18 24  1  6  0  0  0
 18 29  1  0  0  0  0
 18 31  2  0  0  0  0
 19 20  1  0  0  0  0
 20 21  1  0  0  0  0
 21 22  1  0  0  0  0
 22 28  1  0  0  0  0
 23 24  1  0  0  0  0
 25 26  2  0  0  0  0
 26 27  1  0  0  0  0
 27 29  1  0  0  0  0
  1 33  1  0  0  0  0
  2 34  1  0  0  0  0
  3 35  1  0  0  0  0
  4 36  1  0  0  0  0
  5 37  1  0  0  0  0
  6 38  1  0  0  0  0
  7 39  1  0  0  0  0
  8 40  1  0  0  0  0
  9 41  1  0  0  0  0
 10 42  1  0  0  0  0
 11 43  1  0  0  0  0
 19 44  1  0  0  0  0
 19 45  1  0  0  0  0
 20 46  1  0  0  0  0
 20 47  1  0  0  0  0
 21 48  1  0  0  0  0
 21 49  1  0  0  0  0
 22 50  1  0  0  0  0
 22 51  1  0  0  0  0
 23 52  1  0  0  0  0
 23 53  1  0  0  0  0
 24 54  1  0  0  0  0
 29 55  1  0  0  0  0
M  END
> <clash_score>
1.2728248649063287

> <docking_score>
-8.096400260925293

> <overlap_score>
1.0122982263565063

$$$$
BENZO_191_2
  -OEChem-08222022393D

 58 62  0     1  0  0  0  0  0999 V2000
    4.0980    2.1130   19.5350 C   0  0  0  0  0  0  0  0  0  0  0  0
    4.2970    1.6690   20.8430 C   0  0  0  0  0  0  0  0  0  0  0  0
    8.3510   -1.5420   24.6110 C   0  0  0  0  0  0  0  0  0  0  0  0
   10.2760   -2.3270   23.4020 C   0  0  0  0  0  0  0  0  0  0  0  0
    4.9400    1.7060   18.5060 C   0  0  0  0  0  0  0  0  0  0  0  0
    5.3360    0.8000   21.1530 C   0  0  0  0  0  0  0  0  0  0  0  0
    8.3310   -2.7170   25.3430 C   0  0  0  0  0  0  0  0  0  0  0  0
   10.2570   -3.5000   24.1350 C   0  0  0  0  0  0  0  0  0  0  0  0
   12.6359    0.8405   23.6658 C   0  0  0  0  0  0  0  0  0  0  0  0
   11.6237    0.2113   25.5137 C   0  0  0  0  0  0  0  0  0  0  0  0
    9.3300   -1.3350   23.6390 C   0  0  0  0  0  0  0  0  0  0  0  0
   11.3663    0.7093   24.2598 C   0  0  0  0  0  0  0  0  0  0  0  0
    5.9810    0.8330   18.8060 C   0  0  0  0  0  0  0  0  0  0  0  0
    6.1600    0.3870   20.1140 C   0  0  0  0  0  0  0  0  0  0  0  0
    9.2850   -3.7090   25.1090 C   0  0  0  0  0  0  0  0  0  0  0  0
    8.0643   -5.4721   26.3672 C   0  0  0  0  0  0  0  0  0  0  0  0
    8.9510    0.1280   21.6880 C   0  0  0  0  0  0  0  0  0  0  0  0
    8.2649   -6.7591   27.1477 C   0  0  0  0  0  0  0  0  0  0  0  0
    9.4073   -6.6157   28.1377 C   0  0  0  0  0  0  0  0  0  0  0  0
   10.6967   -6.1489   27.4694 C   0  0  0  0  0  0  0  0  0  0  0  0
   10.4950   -5.7059   26.0212 C   0  0  0  0  0  0  0  0  0  0  0  0
   13.7282   -0.4084   26.7244 C   0  0  0  0  0  0  0  0  0  0  0  0
   10.0220    1.0430   23.6570 C   0  0  0  0  0  0  0  0  0  0  0  0
    9.4200   -0.0840   22.9530 C   0  0  2  0  0  0  0  0  0  0  0  0
   13.6263    0.4571   24.4759 N   0  0  0  0  0  0  0  0  0  0  0  0
    6.9440    0.2550   18.0100 N   0  0  0  0  0  0  0  0  0  0  0  0
    7.6830   -0.5170   18.7600 N   0  0  0  0  0  0  0  0  0  0  0  0
   12.9790    0.0800   25.5917 N   0  0  0  0  0  0  0  0  0  0  0  0
    7.2210   -0.4620   20.0350 N   0  0  0  0  0  0  0  0  0  0  0  0
    9.2624   -4.9267   25.8634 N   0  0  0  0  0  0  0  0  0  0  0  0
    8.0810   -0.9750   21.0820 N   0  0  0  0  0  0  0  0  0  0  0  0
    6.9247   -5.0497   26.1749 O   0  0  0  0  0  0  0  0  0  0  0  0
    9.1870    1.1500   21.0630 O   0  0  0  0  0  0  0  0  0  0  0  0
    3.2714    2.7876   19.3199 H   0  0  0  0  0  0  0  0  0  0  0  0
    3.6283    2.0091   21.6296 H   0  0  0  0  0  0  0  0  0  0  0  0
    7.5948   -0.7783   24.7966 H   0  0  0  0  0  0  0  0  0  0  0  0
   11.0389   -2.1844   22.6342 H   0  0  0  0  0  0  0  0  0  0  0  0
    4.7824    2.0670   17.4883 H   0  0  0  0  0  0  0  0  0  0  0  0
    5.4937    0.4574   22.1805 H   0  0  0  0  0  0  0  0  0  0  0  0
    7.5642   -2.8624   26.1050 H   0  0  0  0  0  0  0  0  0  0  0  0
   11.0137   -4.2649   23.9418 H   0  0  0  0  0  0  0  0  0  0  0  0
   12.8833    1.2002   22.6771 H   0  0  0  0  0  0  0  0  0  0  0  0
   10.9741   -0.0530   26.3371 H   0  0  0  0  0  0  0  0  0  0  0  0
    7.3543   -6.9829   27.6818 H   0  0  0  0  0  0  0  0  0  0  0  0
    8.4783   -7.5436   26.4372 H   0  0  0  0  0  0  0  0  0  0  0  0
    9.1257   -5.9021   28.9399 H   0  0  0  0  0  0  0  0  0  0  0  0
    9.5814   -7.5840   28.6486 H   0  0  0  0  0  0  0  0  0  0  0  0
   11.1319   -5.3094   28.0513 H   0  0  0  0  0  0  0  0  0  0  0  0
   11.4591   -6.9570   27.5118 H   0  0  0  0  0  0  0  0  0  0  0  0
   11.3214   -5.0711   25.7158 H   0  0  0  0  0  0  0  0  0  0  0  0
   10.4496   -6.5786   25.3788 H   0  0  0  0  0  0  0  0  0  0  0  0
   13.8306   -1.4917   26.6193 H   0  0  0  0  0  0  0  0  0  0  0  0
   14.7120    0.0686   26.7434 H   0  0  0  0  0  0  0  0  0  0  0  0
   13.1927   -0.1616   27.6454 H   0  0  0  0  0  0  0  0  0  0  0  0
    9.3646    1.3888   24.4669 H   0  0  0  0  0  0  0  0  0  0  0  0
   10.1228    1.9057   22.9851 H   0  0  0  0  0  0  0  0  0  0  0  0
   10.7230   -0.4323   22.4284 H   0  0  0  0  0  0  0  0  0  0  0  0
    8.1256   -1.8039   21.3539 H   0  0  0  0  0  0  0  0  0  0  0  0
  1  2  1  0  0  0  0
  1  5  2  0  0  0  0
  2  6  2  0  0  0  0
  3  7  2  0  0  0  0
  3 11  1  0  0  0  0
  4  8  1  0  0  0  0
  4 11  2  0  0  0  0
  5 13  1  0  0  0  0
  6 14  1  0  0  0  0
  7 15  1  0  0  0  0
  8 15  2  0  0  0  0
  9 12  1  0  0  0  0
  9 25  2  0  0  0  0
 10 12  2  0  0  0  0
 10 28  1  0  0  0  0
 11 24  1  0  0  0  0
 12 23  1  0  0  0  0
 13 14  2  0  0  0  0
 13 26  1  0  0  0  0
 14 29  1  0  0  0  0
 15 30  1  0  0  0  0
 16 18  1  0  0  0  0
 16 30  1  0  0  0  0
 16 32  2  0  0  0  0
 17 24  1  0  0  0  0
 17 31  1  0  0  0  0
 17 33  2  0  0  0  0
 18 19  1  0  0  0  0
 19 20  1  0  0  0  0
 20 21  1  0  0  0  0
 21 30  1  0  0  0  0
 22 28  1  0  0  0  0
 23 24  1  6  0  0  0
 25 28  1  0  0  0  0
 26 27  2  0  0  0  0
 27 29  1  0  0  0  0
 29 31  1  0  0  0  0
  1 34  1  0  0  0  0
  2 35  1  0  0  0  0
  3 36  1  0  0  0  0
  4 37  1  0  0  0  0
  5 38  1  0  0  0  0
  6 39  1  0  0  0  0
  7 40  1  0  0  0  0
  8 41  1  0  0  0  0
  9 42  1  0  0  0  0
 10 43  1  0  0  0  0
 18 44  1  0  0  0  0
 18 45  1  0  0  0  0
 19 46  1  0  0  0  0
 19 47  1  0  0  0  0
 20 48  1  0  0  0  0
 20 49  1  0  0  0  0
 21 50  1  0  0  0  0
 21 51  1  0  0  0  0
 22 52  1  0  0  0  0
 22 53  1  0  0  0  0
 22 54  1  0  0  0  0
 23 55  1  0  0  0  0
 23 56  1  0  0  0  0
 24 57  1  0  0  0  0
 31 58  1  0  0  0  0
M  END
> <clash_score>
2.0033880901783525

> <docking_score>
-6.298487663269043

> <overlap_score>
0.9415947794914246

$$$$
BENZO_190_1
  -OEChem-08222022393D

 58 62  0     1  0  0  0  0  0999 V2000
    4.0980    2.1130   19.5350 C   0  0  0  0  0  0  0  0  0  0  0  0
    4.2970    1.6690   20.8430 C   0  0  0  0  0  0  0  0  0  0  0  0
   13.7724    0.5968   24.0732 C   0  0  0  0  0  0  0  0  0  0  0  0
   12.5307    0.9037   23.5168 C   0  0  0  0  0  0  0  0  0  0  0  0
    8.3510   -1.5420   24.6110 C   0  0  0  0  0  0  0  0  0  0  0  0
   10.2760   -2.3270   23.4020 C   0  0  0  0  0  0  0  0  0  0  0  0
    4.9400    1.7060   18.5060 C   0  0  0  0  0  0  0  0  0  0  0  0
    5.3360    0.8000   21.1530 C   0  0  0  0  0  0  0  0  0  0  0  0
    8.3310   -2.7170   25.3430 C   0  0  0  0  0  0  0  0  0  0  0  0
   10.2570   -3.5000   24.1350 C   0  0  0  0  0  0  0  0  0  0  0  0
   13.8498    0.0954   25.3725 C   0  0  0  0  0  0  0  0  0  0  0  0
   11.4436    0.2079   25.5592 C   0  0  0  0  0  0  0  0  0  0  0  0
    9.3300   -1.3350   23.6390 C   0  0  0  0  0  0  0  0  0  0  0  0
   11.3663    0.7093   24.2598 C   0  0  0  0  0  0  0  0  0  0  0  0
    5.9810    0.8330   18.8060 C   0  0  0  0  0  0  0  0  0  0  0  0
    6.1600    0.3870   20.1140 C   0  0  0  0  0  0  0  0  0  0  0  0
    9.2850   -3.7090   25.1090 C   0  0  0  0  0  0  0  0  0  0  0  0
   12.6854   -0.0991   26.1155 C   0  0  0  0  0  0  0  0  0  0  0  0
    8.0643   -5.4721   26.3672 C   0  0  0  0  0  0  0  0  0  0  0  0
    8.9510    0.1280   21.6880 C   0  0  0  0  0  0  0  0  0  0  0  0
    8.2649   -6.7591   27.1477 C   0  0  0  0  0  0  0  0  0  0  0  0
    9.4073   -6.6157   28.1377 C   0  0  0  0  0  0  0  0  0  0  0  0
   10.6967   -6.1489   27.4694 C   0  0  0  0  0  0  0  0  0  0  0  0
   10.4950   -5.7059   26.0212 C   0  0  0  0  0  0  0  0  0  0  0  0
   10.0220    1.0430   23.6570 C   0  0  0  0  0  0  0  0  0  0  0  0
    9.4200   -0.0840   22.9530 C   0  0  1  0  0  0  0  0  0  0  0  0
    6.9440    0.2550   18.0100 N   0  0  0  0  0  0  0  0  0  0  0  0
    7.6830   -0.5170   18.7600 N   0  0  0  0  0  0  0  0  0  0  0  0
    7.2210   -0.4620   20.0350 N   0  0  0  0  0  0  0  0  0  0  0  0
    9.2624   -4.9267   25.8634 N   0  0  0  0  0  0  0  0  0  0  0  0
    8.0810   -0.9750   21.0820 N   0  0  0  0  0  0  0  0  0  0  0  0
    6.9247   -5.0497   26.1749 O   0  0  0  0  0  0  0  0  0  0  0  0
    9.1870    1.1500   21.0630 O   0  0  0  0  0  0  0  0  0  0  0  0
   12.7815   -0.7166   27.7190 Cl  0  0  0  0  0  0  0  0  0  0  0  0
    3.2714    2.7876   19.3199 H   0  0  0  0  0  0  0  0  0  0  0  0
    3.6283    2.0091   21.6296 H   0  0  0  0  0  0  0  0  0  0  0  0
   14.6789    0.7485   23.4943 H   0  0  0  0  0  0  0  0  0  0  0  0
   12.4799    1.2940   22.5037 H   0  0  0  0  0  0  0  0  0  0  0  0
    7.5948   -0.7783   24.7966 H   0  0  0  0  0  0  0  0  0  0  0  0
   11.0389   -2.1844   22.6342 H   0  0  0  0  0  0  0  0  0  0  0  0
    4.7824    2.0670   17.4883 H   0  0  0  0  0  0  0  0  0  0  0  0
    5.4937    0.4574   22.1805 H   0  0  0  0  0  0  0  0  0  0  0  0
    7.5642   -2.8624   26.1050 H   0  0  0  0  0  0  0  0  0  0  0  0
   11.0137   -4.2649   23.9418 H   0  0  0  0  0  0  0  0  0  0  0  0
   14.8244   -0.1392   25.7934 H   0  0  0  0  0  0  0  0  0  0  0  0
   10.5328    0.0576   26.1342 H   0  0  0  0  0  0  0  0  0  0  0  0
    7.3543   -6.9829   27.6818 H   0  0  0  0  0  0  0  0  0  0  0  0
    8.4783   -7.5436   26.4372 H   0  0  0  0  0  0  0  0  0  0  0  0
    9.1257   -5.9021   28.9399 H   0  0  0  0  0  0  0  0  0  0  0  0
    9.5814   -7.5840   28.6486 H   0  0  0  0  0  0  0  0  0  0  0  0
   11.1319   -5.3094   28.0513 H   0  0  0  0  0  0  0  0  0  0  0  0
   11.4591   -6.9570   27.5118 H   0  0  0  0  0  0  0  0  0  0  0  0
   11.3214   -5.0711   25.7158 H   0  0  0  0  0  0  0  0  0  0  0  0
   10.4496   -6.5786   25.3788 H   0  0  0  0  0  0  0  0  0  0  0  0
    9.3646    1.3888   24.4669 H   0  0  0  0  0  0  0  0  0  0  0  0
   10.1228    1.9057   22.9851 H   0  0  0  0  0  0  0  0  0  0  0  0
   10.7230   -0.4323   22.4284 H   0  0  0  0  0  0  0  0  0  0  0  0
    8.1256   -1.8039   21.3539 H   0  0  0  0  0  0  0  0  0  0  0  0
  1  2  1  0  0  0  0
  1  7  2  0  0  0  0
  2  8  2  0  0  0  0
  3  4  2  0  0  0  0
  3 11  1  0  0  0  0
  4 14  1  0  0  0  0
  5  9  2  0  0  0  0
  5 13  1  0  0  0  0
  6 10  1  0  0  0  0
  6 13  2  0  0  0  0
  7 15  1  0  0  0  0
  8 16  1  0  0  0  0
  9 17  1  0  0  0  0
 10 17  2  0  0  0  0
 11 18  2  0  0  0  0
 12 14  2  0  0  0  0
 12 18  1  0  0  0  0
 13 26  1  0  0  0  0
 14 25  1  0  0  0  0
 15 16  2  0  0  0  0
 15 27  1  0  0  0  0
 16 29  1  0  0  0  0
 17 30  1  0  0  0  0
 18 34  1  0  0  0  0
 19 21  1  0  0  0  0
 19 30  1  0  0  0  0
 19 32  2  0  0  0  0
 20 26  1  1  0  0  0
 20 31  1  0  0  0  0
 20 33  2  0  0  0  0
 21 22  1  0  0  0  0
 22 23  1  0  0  0  0
 23 24  1  0  0  0  0
 24 30  1  0  0  0  0
 25 26  1  0  0  0  0
 27 28  2  0  0  0  0
 28 29  1  0  0  0  0
 29 31  1  0  0  0  0
  1 35  1  0  0  0  0
  2 36  1  0  0  0  0
  3 37  1  0  0  0  0
  4 38  1  0  0  0  0
  5 39  1  0  0  0  0
  6 40  1  0  0  0  0
  7 41  1  0  0  0  0
  8 42  1  0  0  0  0
  9 43  1  0  0  0  0
 10 44  1  0  0  0  0
 11 45  1  0  0  0  0
 12 46  1  0  0  0  0
 21 47  1  0  0  0  0
 21 48  1  0  0  0  0
 22 49  1  0  0  0  0
 22 50  1  0  0  0  0
 23 51  1  0  0  0  0
 23 52  1  0  0  0  0
 24 53  1  0  0  0  0
 24 54  1  0  0  0  0
 25 55  1  0  0  0  0
 25 56  1  0  0  0  0
 26 57  1  0  0  0  0
 31 58  1  0  0  0  0
M  END
> <clash_score>
2.854423265344999

> <docking_score>
-5.50247049331665

> <overlap_score>
0.9488784074783325

$$$$
BENZO_191_1
  -OEChem-08222022393D

 58 62  0     1  0  0  0  0  0999 V2000
    4.0980    2.1130   19.5350 C   0  0  0  0  0  0  0  0  0  0  0  0
    4.2970    1.6690   20.8430 C   0  0  0  0  0  0  0  0  0  0  0  0
    8.3510   -1.5420   24.6110 C   0  0  0  0  0  0  0  0  0  0  0  0
   10.2760   -2.3270   23.4020 C   0  0  0  0  0  0  0  0  0  0  0  0
    4.9400    1.7060   18.5060 C   0  0  0  0  0  0  0  0  0  0  0  0
    5.3360    0.8000   21.1530 C   0  0  0  0  0  0  0  0  0  0  0  0
    8.3310   -2.7170   25.3430 C   0  0  0  0  0  0  0  0  0  0  0  0
   10.2570   -3.5000   24.1350 C   0  0  0  0  0  0  0  0  0  0  0  0
   12.3139    2.2980   23.4429 C   0  0  0  0  0  0  0  0  0  0  0  0
   12.3972    0.1128   23.2127 C   0  0  0  0  0  0  0  0  0  0  0  0
    9.3300   -1.3350   23.6390 C   0  0  0  0  0  0  0  0  0  0  0  0
   11.5145    1.1392   23.4448 C   0  0  0  0  0  0  0  0  0  0  0  0
    5.9810    0.8330   18.8060 C   0  0  0  0  0  0  0  0  0  0  0  0
    6.1600    0.3870   20.1140 C   0  0  0  0  0  0  0  0  0  0  0  0
    9.2850   -3.7090   25.1090 C   0  0  0  0  0  0  0  0  0  0  0  0
    8.0643   -5.4721   26.3672 C   0  0  0  0  0  0  0  0  0  0  0  0
    8.9510    0.1280   21.6880 C   0  0  0  0  0  0  0  0  0  0  0  0
    8.2649   -6.7591   27.1477 C   0  0  0  0  0  0  0  0  0  0  0  0
    9.4073   -6.6157   28.1377 C   0  0  0  0  0  0  0  0  0  0  0  0
   10.6967   -6.1489   27.4694 C   0  0  0  0  0  0  0  0  0  0  0  0
   10.4950   -5.7059   26.0212 C   0  0  0  0  0  0  0  0  0  0  0  0
   14.8733    0.0191   22.8400 C   0  0  0  0  0  0  0  0  0  0  0  0
   10.0220    1.0430   23.6570 C   0  0  0  0  0  0  0  0  0  0  0  0
    9.4200   -0.0840   22.9530 C   0  0  1  0  0  0  0  0  0  0  0  0
   13.6051    2.0334   23.2269 N   0  0  0  0  0  0  0  0  0  0  0  0
    6.9440    0.2550   18.0100 N   0  0  0  0  0  0  0  0  0  0  0  0
    7.6830   -0.5170   18.7600 N   0  0  0  0  0  0  0  0  0  0  0  0
   13.6239    0.6965   23.0910 N   0  0  0  0  0  0  0  0  0  0  0  0
    7.2210   -0.4620   20.0350 N   0  0  0  0  0  0  0  0  0  0  0  0
    9.2624   -4.9267   25.8634 N   0  0  0  0  0  0  0  0  0  0  0  0
    8.0810   -0.9750   21.0820 N   0  0  0  0  0  0  0  0  0  0  0  0
    6.9247   -5.0497   26.1749 O   0  0  0  0  0  0  0  0  0  0  0  0
    9.1870    1.1500   21.0630 O   0  0  0  0  0  0  0  0  0  0  0  0
    3.2714    2.7876   19.3199 H   0  0  0  0  0  0  0  0  0  0  0  0
    3.6283    2.0091   21.6296 H   0  0  0  0  0  0  0  0  0  0  0  0
    7.5948   -0.7783   24.7966 H   0  0  0  0  0  0  0  0  0  0  0  0
   11.0389   -2.1844   22.6342 H   0  0  0  0  0  0  0  0  0  0  0  0
    4.7824    2.0670   17.4883 H   0  0  0  0  0  0  0  0  0  0  0  0
    5.4937    0.4574   22.1805 H   0  0  0  0  0  0  0  0  0  0  0  0
    7.5642   -2.8624   26.1050 H   0  0  0  0  0  0  0  0  0  0  0  0
   11.0137   -4.2649   23.9418 H   0  0  0  0  0  0  0  0  0  0  0  0
   12.0117    3.3252   23.5906 H   0  0  0  0  0  0  0  0  0  0  0  0
   12.2606   -0.9567   23.1272 H   0  0  0  0  0  0  0  0  0  0  0  0
    7.3543   -6.9829   27.6818 H   0  0  0  0  0  0  0  0  0  0  0  0
    8.4783   -7.5436   26.4372 H   0  0  0  0  0  0  0  0  0  0  0  0
    9.1257   -5.9021   28.9399 H   0  0  0  0  0  0  0  0  0  0  0  0
    9.5814   -7.5840   28.6486 H   0  0  0  0  0  0  0  0  0  0  0  0
   11.1319   -5.3094   28.0513 H   0  0  0  0  0  0  0  0  0  0  0  0
   11.4591   -6.9570   27.5118 H   0  0  0  0  0  0  0  0  0  0  0  0
   11.3214   -5.0711   25.7158 H   0  0  0  0  0  0  0  0  0  0  0  0
   10.4496   -6.5786   25.3788 H   0  0  0  0  0  0  0  0  0  0  0  0
   15.0151   -0.0370   21.7575 H   0  0  0  0  0  0  0  0  0  0  0  0
   15.6904    0.5784   23.3041 H   0  0  0  0  0  0  0  0  0  0  0  0
   14.8341   -0.9839   23.2740 H   0  0  0  0  0  0  0  0  0  0  0  0
    9.8382    0.9666   24.7377 H   0  0  0  0  0  0  0  0  0  0  0  0
    9.5447    1.9843   23.3536 H   0  0  0  0  0  0  0  0  0  0  0  0
    8.1249    0.3211   23.4916 H   0  0  0  0  0  0  0  0  0  0  0  0
    8.1256   -1.8039   21.3539 H   0  0  0  0  0  0  0  0  0  0  0  0
  1  2  1  0  0  0  0
  1  5  2  0  0  0  0
  2  6  2  0  0  0  0
  3  7  2  0  0  0  0
  3 11  1  0  0  0  0
  4  8  1  0  0  0  0
  4 11  2  0  0  0  0
  5 13  1  0  0  0  0
  6 14  1  0  0  0  0
  7 15  1  0  0  0  0
  8 15  2  0  0  0  0
  9 12  1  0  0  0  0
  9 25  2  0  0  0  0
 10 12  2  0  0  0  0
 10 28  1  0  0  0  0
 11 24  1  0  0  0  0
 12 23  1  0  0  0  0
 13 14  2  0  0  0  0
 13 26  1  0  0  0  0
 14 29  1  0  0  0  0
 15 30  1  0  0  0  0
 16 18  1  0  0  0  0
 16 30  1  0  0  0  0
 16 32  2  0  0  0  0
 17 24  1  0  0  0  0
 17 31  1  0  0  0  0
 17 33  2  0  0  0  0
 18 19  1  0  0  0  0
 19 20  1  0  0  0  0
 20 21  1  0  0  0  0
 21 30  1  0  0  0  0
 22 28  1  0  0  0  0
 23 24  1  1  0  0  0
 25 28  1  0  0  0  0
 26 27  2  0  0  0  0
 27 29  1  0  0  0  0
 29 31  1  0  0  0  0
  1 34  1  0  0  0  0
  2 35  1  0  0  0  0
  3 36  1  0  0  0  0
  4 37  1  0  0  0  0
  5 38  1  0  0  0  0
  6 39  1  0  0  0  0
  7 40  1  0  0  0  0
  8 41  1  0  0  0  0
  9 42  1  0  0  0  0
 10 43  1  0  0  0  0
 18 44  1  0  0  0  0
 18 45  1  0  0  0  0
 19 46  1  0  0  0  0
 19 47  1  0  0  0  0
 20 48  1  0  0  0  0
 20 49  1  0  0  0  0
 21 50  1  0  0  0  0
 21 51  1  0  0  0  0
 22 52  1  0  0  0  0
 22 53  1  0  0  0  0
 22 54  1  0  0  0  0
 23 55  1  0  0  0  0
 23 56  1  0  0  0  0
 24 57  1  0  0  0  0
 31 58  1  0  0  0  0
M  END
> <clash_score>
1.2728248649063287

> <docking_score>
-7.976328372955322

> <overlap_score>
1.02734375

$$$$
BENZO_190_2
  -OEChem-08222022393D

 58 62  0     1  0  0  0  0  0999 V2000
    4.0980    2.1130   19.5350 C   0  0  0  0  0  0  0  0  0  0  0  0
    4.2970    1.6690   20.8430 C   0  0  0  0  0  0  0  0  0  0  0  0
   13.7638    0.5686   24.1170 C   0  0  0  0  0  0  0  0  0  0  0  0
   12.3856    0.4812   24.3130 C   0  0  0  0  0  0  0  0  0  0  0  0
    8.3510   -1.5420   24.6110 C   0  0  0  0  0  0  0  0  0  0  0  0
   10.2760   -2.3270   23.4020 C   0  0  0  0  0  0  0  0  0  0  0  0
    4.9400    1.7060   18.5060 C   0  0  0  0  0  0  0  0  0  0  0  0
    5.3360    0.8000   21.1530 C   0  0  0  0  0  0  0  0  0  0  0  0
    8.3310   -2.7170   25.3430 C   0  0  0  0  0  0  0  0  0  0  0  0
   10.2570   -3.5000   24.1350 C   0  0  0  0  0  0  0  0  0  0  0  0
   14.2710    1.3142   23.0527 C   0  0  0  0  0  0  0  0  0  0  0  0
   12.0217    1.8847   22.3805 C   0  0  0  0  0  0  0  0  0  0  0  0
    9.3300   -1.3350   23.6390 C   0  0  0  0  0  0  0  0  0  0  0  0
   11.5145    1.1392   23.4448 C   0  0  0  0  0  0  0  0  0  0  0  0
    5.9810    0.8330   18.8060 C   0  0  0  0  0  0  0  0  0  0  0  0
    6.1600    0.3870   20.1140 C   0  0  0  0  0  0  0  0  0  0  0  0
    9.2850   -3.7090   25.1090 C   0  0  0  0  0  0  0  0  0  0  0  0
   13.3999    1.9722   22.1845 C   0  0  0  0  0  0  0  0  0  0  0  0
    8.2936   -5.1727   26.8573 C   0  0  0  0  0  0  0  0  0  0  0  0
    8.9510    0.1280   21.6880 C   0  0  0  0  0  0  0  0  0  0  0  0
    8.4570   -6.5172   27.5438 C   0  0  0  0  0  0  0  0  0  0  0  0
    9.9041   -6.7452   27.9437 C   0  0  0  0  0  0  0  0  0  0  0  0
   10.8613   -6.5876   26.7664 C   0  0  0  0  0  0  0  0  0  0  0  0
   10.1902   -6.0099   25.5212 C   0  0  0  0  0  0  0  0  0  0  0  0
   10.0220    1.0430   23.6570 C   0  0  0  0  0  0  0  0  0  0  0  0
    9.4200   -0.0840   22.9530 C   0  0  2  0  0  0  0  0  0  0  0  0
    6.9440    0.2550   18.0100 N   0  0  0  0  0  0  0  0  0  0  0  0
    7.6830   -0.5170   18.7600 N   0  0  0  0  0  0  0  0  0  0  0  0
    7.2210   -0.4620   20.0350 N   0  0  0  0  0  0  0  0  0  0  0  0
    9.2624   -4.9267   25.8634 N   0  0  0  0  0  0  0  0  0  0  0  0
    8.0810   -0.9750   21.0820 N   0  0  0  0  0  0  0  0  0  0  0  0
    7.3372   -4.4549   27.1472 O   0  0  0  0  0  0  0  0  0  0  0  0
    9.1870    1.1500   21.0630 O   0  0  0  0  0  0  0  0  0  0  0  0
   14.0262    2.8909   20.8709 Cl  0  0  0  0  0  0  0  0  0  0  0  0
    3.2714    2.7876   19.3199 H   0  0  0  0  0  0  0  0  0  0  0  0
    3.6283    2.0091   21.6296 H   0  0  0  0  0  0  0  0  0  0  0  0
   14.4418    0.0560   24.7933 H   0  0  0  0  0  0  0  0  0  0  0  0
   11.9993   -0.1021   25.1449 H   0  0  0  0  0  0  0  0  0  0  0  0
    7.5948   -0.7783   24.7966 H   0  0  0  0  0  0  0  0  0  0  0  0
   11.0389   -2.1844   22.6342 H   0  0  0  0  0  0  0  0  0  0  0  0
    4.7824    2.0670   17.4883 H   0  0  0  0  0  0  0  0  0  0  0  0
    5.4937    0.4574   22.1805 H   0  0  0  0  0  0  0  0  0  0  0  0
    7.5642   -2.8624   26.1050 H   0  0  0  0  0  0  0  0  0  0  0  0
   11.0137   -4.2649   23.9418 H   0  0  0  0  0  0  0  0  0  0  0  0
   15.3475    1.3733   22.9120 H   0  0  0  0  0  0  0  0  0  0  0  0
   11.3384    2.3964   21.7066 H   0  0  0  0  0  0  0  0  0  0  0  0
    7.8354   -6.5308   28.4258 H   0  0  0  0  0  0  0  0  0  0  0  0
    8.1327   -7.2802   26.8520 H   0  0  0  0  0  0  0  0  0  0  0  0
   10.1894   -6.0388   28.7510 H   0  0  0  0  0  0  0  0  0  0  0  0
   10.0147   -7.7577   28.3814 H   0  0  0  0  0  0  0  0  0  0  0  0
   11.7074   -5.9326   27.0628 H   0  0  0  0  0  0  0  0  0  0  0  0
   11.3252   -7.5678   26.5219 H   0  0  0  0  0  0  0  0  0  0  0  0
   10.9447   -5.5942   24.8603 H   0  0  0  0  0  0  0  0  0  0  0  0
    9.6472   -6.7947   25.0059 H   0  0  0  0  0  0  0  0  0  0  0  0
    9.8382    0.9666   24.7377 H   0  0  0  0  0  0  0  0  0  0  0  0
    9.5447    1.9843   23.3536 H   0  0  0  0  0  0  0  0  0  0  0  0
    8.1249    0.3211   23.4916 H   0  0  0  0  0  0  0  0  0  0  0  0
    8.1256   -1.8039   21.3539 H   0  0  0  0  0  0  0  0  0  0  0  0
  1  2  1  0  0  0  0
  1  7  2  0  0  0  0
  2  8  2  0  0  0  0
  3  4  2  0  0  0  0
  3 11  1  0  0  0  0
  4 14  1  0  0  0  0
  5  9  2  0  0  0  0
  5 13  1  0  0  0  0
  6 10  1  0  0  0  0
  6 13  2  0  0  0  0
  7 15  1  0  0  0  0
  8 16  1  0  0  0  0
  9 17  1  0  0  0  0
 10 17  2  0  0  0  0
 11 18  2  0  0  0  0
 12 14  2  0  0  0  0
 12 18  1  0  0  0  0
 13 26  1  0  0  0  0
 14 25  1  0  0  0  0
 15 16  2  0  0  0  0
 15 27  1  0  0  0  0
 16 29  1  0  0  0  0
 17 30  1  0  0  0  0
 18 34  1  0  0  0  0
 19 21  1  0  0  0  0
 19 30  1  0  0  0  0
 19 32  2  0  0  0  0
 20 26  1  6  0  0  0
 20 31  1  0  0  0  0
 20 33  2  0  0  0  0
 21 22  1  0  0  0  0
 22 23  1  0  0  0  0
 23 24  1  0  0  0  0
 24 30  1  0  0  0  0
 25 26  1  0  0  0  0
 27 28  2  0  0  0  0
 28 29  1  0  0  0  0
 29 31  1  0  0  0  0
  1 35  1  0  0  0  0
  2 36  1  0  0  0  0
  3 37  1  0  0  0  0
  4 38  1  0  0  0  0
  5 39  1  0  0  0  0
  6 40  1  0  0  0  0
  7 41  1  0  0  0  0
  8 42  1  0  0  0  0
  9 43  1  0  0  0  0
 10 44  1  0  0  0  0
 11 45  1  0  0  0  0
 12 46  1  0  0  0  0
 21 47  1  0  0  0  0
 21 48  1  0  0  0  0
 22 49  1  0  0  0  0
 22 50  1  0  0  0  0
 23 51  1  0  0  0  0
 23 52  1  0  0  0  0
 24 53  1  0  0  0  0
 24 54  1  0  0  0  0
 25 55  1  0  0  0  0
 25 56  1  0  0  0  0
 26 57  1  0  0  0  0
 31 58  1  0  0  0  0
M  END
> <clash_score>
2.0601108515385818

> <docking_score>
-6.458879470825195

> <overlap_score>
1.0294201374053955

$$$$
BENZO_193_1
  -OEChem-08222022393D

 57 61  0     1  0  0  0  0  0999 V2000
   13.8495    0.0928   25.3716 C   0  0  0  0  0  0  0  0  0  0  0  0
   12.6852   -0.1006   26.1150 C   0  0  0  0  0  0  0  0  0  0  0  0
   13.7723    0.5944   24.0724 C   0  0  0  0  0  0  0  0  0  0  0  0
    4.0980    2.1130   19.5350 C   0  0  0  0  0  0  0  0  0  0  0  0
    4.2970    1.6690   20.8430 C   0  0  0  0  0  0  0  0  0  0  0  0
   11.4436    0.2076   25.5591 C   0  0  0  0  0  0  0  0  0  0  0  0
   12.5307    0.9026   23.5164 C   0  0  0  0  0  0  0  0  0  0  0  0
    8.3510   -1.5420   24.6110 C   0  0  0  0  0  0  0  0  0  0  0  0
   10.2760   -2.3270   23.4020 C   0  0  0  0  0  0  0  0  0  0  0  0
    4.9400    1.7060   18.5060 C   0  0  0  0  0  0  0  0  0  0  0  0
    5.3360    0.8000   21.1530 C   0  0  0  0  0  0  0  0  0  0  0  0
    8.3310   -2.7170   25.3430 C   0  0  0  0  0  0  0  0  0  0  0  0
   10.2570   -3.5000   24.1350 C   0  0  0  0  0  0  0  0  0  0  0  0
   11.3663    0.7092   24.2598 C   0  0  0  0  0  0  0  0  0  0  0  0
    9.3300   -1.3350   23.6390 C   0  0  0  0  0  0  0  0  0  0  0  0
    5.9810    0.8330   18.8060 C   0  0  0  0  0  0  0  0  0  0  0  0
    6.1600    0.3870   20.1140 C   0  0  0  0  0  0  0  0  0  0  0  0
    9.2850   -3.7090   25.1090 C   0  0  0  0  0  0  0  0  0  0  0  0
    8.9510    0.1280   21.6880 C   0  0  0  0  0  0  0  0  0  0  0  0
    8.7671   -4.9535   27.2147 C   0  0  0  0  0  0  0  0  0  0  0  0
    9.3066   -6.1865   25.1649 C   0  0  0  0  0  0  0  0  0  0  0  0
    7.3847   -5.5970   27.2000 C   0  0  0  0  0  0  0  0  0  0  0  0
    7.9070   -6.7999   25.2264 C   0  0  0  0  0  0  0  0  0  0  0  0
   10.0220    1.0430   23.6570 C   0  0  0  0  0  0  0  0  0  0  0  0
    9.4200   -0.0840   22.9530 C   0  0  1  0  0  0  0  0  0  0  0  0
    6.9440    0.2550   18.0100 N   0  0  0  0  0  0  0  0  0  0  0  0
    7.6830   -0.5170   18.7600 N   0  0  0  0  0  0  0  0  0  0  0  0
    7.2210   -0.4620   20.0350 N   0  0  0  0  0  0  0  0  0  0  0  0
    9.2641   -4.8845   25.8388 N   0  0  0  0  0  0  0  0  0  0  0  0
    8.0810   -0.9750   21.0820 N   0  0  0  0  0  0  0  0  0  0  0  0
    9.1870    1.1500   21.0630 O   0  0  0  0  0  0  0  0  0  0  0  0
    7.4533   -6.8877   26.5818 O   0  0  0  0  0  0  0  0  0  0  0  0
   14.8163   -0.1460   25.8052 H   0  0  0  0  0  0  0  0  0  0  0  0
   12.7453   -0.4901   27.1271 H   0  0  0  0  0  0  0  0  0  0  0  0
   14.6787    0.7461   23.4937 H   0  0  0  0  0  0  0  0  0  0  0  0
    3.2714    2.7876   19.3199 H   0  0  0  0  0  0  0  0  0  0  0  0
    3.6283    2.0091   21.6296 H   0  0  0  0  0  0  0  0  0  0  0  0
   10.5417    0.0536   26.1456 H   0  0  0  0  0  0  0  0  0  0  0  0
   12.4801    1.2928   22.5034 H   0  0  0  0  0  0  0  0  0  0  0  0
    7.5957   -0.7779   24.7973 H   0  0  0  0  0  0  0  0  0  0  0  0
   11.0384   -2.1852   22.6338 H   0  0  0  0  0  0  0  0  0  0  0  0
    4.7824    2.0670   17.4883 H   0  0  0  0  0  0  0  0  0  0  0  0
    5.4937    0.4574   22.1805 H   0  0  0  0  0  0  0  0  0  0  0  0
    7.5634   -2.8637   26.1037 H   0  0  0  0  0  0  0  0  0  0  0  0
   11.0139   -4.2645   23.9419 H   0  0  0  0  0  0  0  0  0  0  0  0
    8.7013   -3.9575   27.6574 H   0  0  0  0  0  0  0  0  0  0  0  0
    9.4480   -5.5636   27.8142 H   0  0  0  0  0  0  0  0  0  0  0  0
   10.0131   -6.8375   25.6814 H   0  0  0  0  0  0  0  0  0  0  0  0
    9.6116   -6.0794   24.1250 H   0  0  0  0  0  0  0  0  0  0  0  0
    7.0306   -5.7388   28.2232 H   0  0  0  0  0  0  0  0  0  0  0  0
    6.6546   -4.9740   26.6757 H   0  0  0  0  0  0  0  0  0  0  0  0
    7.1892   -6.2226   24.6319 H   0  0  0  0  0  0  0  0  0  0  0  0
    7.9315   -7.8151   24.8187 H   0  0  0  0  0  0  0  0  0  0  0  0
    9.3646    1.3888   24.4669 H   0  0  0  0  0  0  0  0  0  0  0  0
   10.1228    1.9057   22.9851 H   0  0  0  0  0  0  0  0  0  0  0  0
   10.7230   -0.4323   22.4284 H   0  0  0  0  0  0  0  0  0  0  0  0
    8.1256   -1.8039   21.3539 H   0  0  0  0  0  0  0  0  0  0  0  0
  1  2  1  0  0  0  0
  1  3  2  0  0  0  0
  2  6  2  0  0  0  0
  3  7  1  0  0  0  0
  4  5  1  0  0  0  0
  4 10  2  0  0  0  0
  5 11  2  0  0  0  0
  6 14  1  0  0  0  0
  7 14  2  0  0  0  0
  8 12  2  0  0  0  0
  8 15  1  0  0  0  0
  9 13  1  0  0  0  0
  9 15  2  0  0  0  0
 10 16  1  0  0  0  0
 11 17  1  0  0  0  0
 12 18  1  0  0  0  0
 13 18  2  0  0  0  0
 14 24  1  0  0  0  0
 15 25  1  0  0  0  0
 16 17  2  0  0  0  0
 16 26  1  0  0  0  0
 17 28  1  0  0  0  0
 18 29  1  0  0  0  0
 19 25  1  1  0  0  0
 19 30  1  0  0  0  0
 19 31  2  0  0  0  0
 20 22  1  0  0  0  0
 20 29  1  0  0  0  0
 21 23  1  0  0  0  0
 21 29  1  0  0  0  0
 22 32  1  0  0  0  0
 23 32  1  0  0  0  0
 24 25  1  0  0  0  0
 26 27  2  0  0  0  0
 27 28  1  0  0  0  0
 28 30  1  0  0  0  0
  1 33  1  0  0  0  0
  2 34  1  0  0  0  0
  3 35  1  0  0  0  0
  4 36  1  0  0  0  0
  5 37  1  0  0  0  0
  6 38  1  0  0  0  0
  7 39  1  0  0  0  0
  8 40  1  0  0  0  0
  9 41  1  0  0  0  0
 10 42  1  0  0  0  0
 11 43  1  0  0  0  0
 12 44  1  0  0  0  0
 13 45  1  0  0  0  0
 20 46  1  0  0  0  0
 20 47  1  0  0  0  0
 21 48  1  0  0  0  0
 21 49  1  0  0  0  0
 22 50  1  0  0  0  0
 22 51  1  0  0  0  0
 23 52  1  0  0  0  0
 23 53  1  0  0  0  0
 24 54  1  0  0  0  0
 24 55  1  0  0  0  0
 25 56  1  0  0  0  0
 30 57  1  0  0  0  0
M  END
> <clash_score>
0

> <docking_score>
-7.682821750640869

> <overlap_score>
0.9506747126579285

$$$$
BENZO_193_2
  -OEChem-08222022393D

 57 61  0     1  0  0  0  0  0999 V2000
   14.2707    1.3171   23.0515 C   0  0  0  0  0  0  0  0  0  0  0  0
   13.7649    0.5713   24.1162 C   0  0  0  0  0  0  0  0  0  0  0  0
   13.3984    1.9740   22.1835 C   0  0  0  0  0  0  0  0  0  0  0  0
    4.0980    2.1130   19.5350 C   0  0  0  0  0  0  0  0  0  0  0  0
    4.2970    1.6690   20.8430 C   0  0  0  0  0  0  0  0  0  0  0  0
   12.3868    0.4823   24.3128 C   0  0  0  0  0  0  0  0  0  0  0  0
   12.0204    1.8850   22.3801 C   0  0  0  0  0  0  0  0  0  0  0  0
    8.3510   -1.5420   24.6110 C   0  0  0  0  0  0  0  0  0  0  0  0
   10.2760   -2.3270   23.4020 C   0  0  0  0  0  0  0  0  0  0  0  0
    4.9400    1.7060   18.5060 C   0  0  0  0  0  0  0  0  0  0  0  0
    5.3360    0.8000   21.1530 C   0  0  0  0  0  0  0  0  0  0  0  0
    8.3310   -2.7170   25.3430 C   0  0  0  0  0  0  0  0  0  0  0  0
   10.2570   -3.5000   24.1350 C   0  0  0  0  0  0  0  0  0  0  0  0
   11.5145    1.1392   23.4448 C   0  0  0  0  0  0  0  0  0  0  0  0
    9.3300   -1.3350   23.6390 C   0  0  0  0  0  0  0  0  0  0  0  0
    5.9810    0.8330   18.8060 C   0  0  0  0  0  0  0  0  0  0  0  0
    6.1600    0.3870   20.1140 C   0  0  0  0  0  0  0  0  0  0  0  0
    9.2850   -3.7090   25.1090 C   0  0  0  0  0  0  0  0  0  0  0  0
    8.9510    0.1280   21.6880 C   0  0  0  0  0  0  0  0  0  0  0  0
    8.7671   -4.9535   27.2147 C   0  0  0  0  0  0  0  0  0  0  0  0
    9.3066   -6.1865   25.1649 C   0  0  0  0  0  0  0  0  0  0  0  0
    7.3847   -5.5970   27.2000 C   0  0  0  0  0  0  0  0  0  0  0  0
    7.9070   -6.7999   25.2264 C   0  0  0  0  0  0  0  0  0  0  0  0
   10.0220    1.0430   23.6570 C   0  0  0  0  0  0  0  0  0  0  0  0
    9.4200   -0.0840   22.9530 C   0  0  2  0  0  0  0  0  0  0  0  0
    6.9440    0.2550   18.0100 N   0  0  0  0  0  0  0  0  0  0  0  0
    7.6830   -0.5170   18.7600 N   0  0  0  0  0  0  0  0  0  0  0  0
    7.2210   -0.4620   20.0350 N   0  0  0  0  0  0  0  0  0  0  0  0
    9.2641   -4.8845   25.8388 N   0  0  0  0  0  0  0  0  0  0  0  0
    8.0810   -0.9750   21.0820 N   0  0  0  0  0  0  0  0  0  0  0  0
    9.1870    1.1500   21.0630 O   0  0  0  0  0  0  0  0  0  0  0  0
    7.4533   -6.8877   26.5818 O   0  0  0  0  0  0  0  0  0  0  0  0
   15.3438    1.3874   22.8993 H   0  0  0  0  0  0  0  0  0  0  0  0
   14.4439    0.0607   24.7928 H   0  0  0  0  0  0  0  0  0  0  0  0
   13.7920    2.5556   21.3551 H   0  0  0  0  0  0  0  0  0  0  0  0
    3.2714    2.7876   19.3199 H   0  0  0  0  0  0  0  0  0  0  0  0
    3.6283    2.0091   21.6296 H   0  0  0  0  0  0  0  0  0  0  0  0
   12.0017   -0.1012   25.1449 H   0  0  0  0  0  0  0  0  0  0  0  0
   11.3484    2.4000   21.6987 H   0  0  0  0  0  0  0  0  0  0  0  0
    7.5957   -0.7779   24.7973 H   0  0  0  0  0  0  0  0  0  0  0  0
   11.0384   -2.1852   22.6338 H   0  0  0  0  0  0  0  0  0  0  0  0
    4.7824    2.0670   17.4883 H   0  0  0  0  0  0  0  0  0  0  0  0
    5.4937    0.4574   22.1805 H   0  0  0  0  0  0  0  0  0  0  0  0
    7.5634   -2.8637   26.1037 H   0  0  0  0  0  0  0  0  0  0  0  0
   11.0139   -4.2645   23.9419 H   0  0  0  0  0  0  0  0  0  0  0  0
    8.7013   -3.9575   27.6574 H   0  0  0  0  0  0  0  0  0  0  0  0
    9.4480   -5.5636   27.8142 H   0  0  0  0  0  0  0  0  0  0  0  0
   10.0131   -6.8375   25.6814 H   0  0  0  0  0  0  0  0  0  0  0  0
    9.6116   -6.0794   24.1250 H   0  0  0  0  0  0  0  0  0  0  0  0
    7.0306   -5.7388   28.2232 H   0  0  0  0  0  0  0  0  0  0  0  0
    6.6546   -4.9740   26.6757 H   0  0  0  0  0  0  0  0  0  0  0  0
    7.1892   -6.2226   24.6319 H   0  0  0  0  0  0  0  0  0  0  0  0
    7.9315   -7.8151   24.8187 H   0  0  0  0  0  0  0  0  0  0  0  0
    9.8382    0.9666   24.7377 H   0  0  0  0  0  0  0  0  0  0  0  0
    9.5448    1.9843   23.3535 H   0  0  0  0  0  0  0  0  0  0  0  0
    8.1249    0.3211   23.4916 H   0  0  0  0  0  0  0  0  0  0  0  0
    8.1256   -1.8039   21.3539 H   0  0  0  0  0  0  0  0  0  0  0  0
  1  2  1  0  0  0  0
  1  3  2  0  0  0  0
  2  6  2  0  0  0  0
  3  7  1  0  0  0  0
  4  5  1  0  0  0  0
  4 10  2  0  0  0  0
  5 11  2  0  0  0  0
  6 14  1  0  0  0  0
  7 14  2  0  0  0  0
  8 12  2  0  0  0  0
  8 15  1  0  0  0  0
  9 13  1  0  0  0  0
  9 15  2  0  0  0  0
 10 16  1  0  0  0  0
 11 17  1  0  0  0  0
 12 18  1  0  0  0  0
 13 18  2  0  0  0  0
 14 24  1  0  0  0  0
 15 25  1  0  0  0  0
 16 17  2  0  0  0  0
 16 26  1  0  0  0  0
 17 28  1  0  0  0  0
 18 29  1  0  0  0  0
 19 25  1  6  0  0  0
 19 30  1  0  0  0  0
 19 31  2  0  0  0  0
 20 22  1  0  0  0  0
 20 29  1  0  0  0  0
 21 23  1  0  0  0  0
 21 29  1  0  0  0  0
 22 32  1  0  0  0  0
 23 32  1  0  0  0  0
 24 25  1  0  0  0  0
 26 27  2  0  0  0  0
 27 28  1  0  0  0  0
 28 30  1  0  0  0  0
  1 33  1  0  0  0  0
  2 34  1  0  0  0  0
  3 35  1  0  0  0  0
  4 36  1  0  0  0  0
  5 37  1  0  0  0  0
  6 38  1  0  0  0  0
  7 39  1  0  0  0  0
  8 40  1  0  0  0  0
  9 41  1  0  0  0  0
 10 42  1  0  0  0  0
 11 43  1  0  0  0  0
 12 44  1  0  0  0  0
 13 45  1  0  0  0  0
 20 46  1  0  0  0  0
 20 47  1  0  0  0  0
 21 48  1  0  0  0  0
 21 49  1  0  0  0  0
 22 50  1  0  0  0  0
 22 51  1  0  0  0  0
 23 52  1  0  0  0  0
 23 53  1  0  0  0  0
 24 54  1  0  0  0  0
 24 55  1  0  0  0  0
 25 56  1  0  0  0  0
 30 57  1  0  0  0  0
M  END
> <clash_score>
0

> <docking_score>
-8.568061828613281

> <overlap_score>
1.026007056236267

$$$$
BENZO_192_2
  -OEChem-08222022393D

 54 58  0     1  0  0  0  0  0999 V2000
    4.0980    2.1130   19.5350 C   0  0  0  0  0  0  0  0  0  0  0  0
    4.2970    1.6690   20.8430 C   0  0  0  0  0  0  0  0  0  0  0  0
    8.3510   -1.5420   24.6110 C   0  0  0  0  0  0  0  0  0  0  0  0
   10.2760   -2.3270   23.4020 C   0  0  0  0  0  0  0  0  0  0  0  0
    4.9400    1.7060   18.5060 C   0  0  0  0  0  0  0  0  0  0  0  0
    5.3360    0.8000   21.1530 C   0  0  0  0  0  0  0  0  0  0  0  0
    8.3310   -2.7170   25.3430 C   0  0  0  0  0  0  0  0  0  0  0  0
   10.2570   -3.5000   24.1350 C   0  0  0  0  0  0  0  0  0  0  0  0
   12.2339    2.3684   23.4053 C   0  0  0  0  0  0  0  0  0  0  0  0
   13.5816    2.1729   23.1980 C   0  0  0  0  0  0  0  0  0  0  0  0
   12.3400    0.0508   23.2659 C   0  0  0  0  0  0  0  0  0  0  0  0
    9.3300   -1.3350   23.6390 C   0  0  0  0  0  0  0  0  0  0  0  0
   11.5145    1.1392   23.4448 C   0  0  0  0  0  0  0  0  0  0  0  0
    5.9810    0.8330   18.8060 C   0  0  0  0  0  0  0  0  0  0  0  0
    6.1600    0.3870   20.1140 C   0  0  0  0  0  0  0  0  0  0  0  0
    9.2850   -3.7090   25.1090 C   0  0  0  0  0  0  0  0  0  0  0  0
    8.9510    0.1280   21.6880 C   0  0  0  0  0  0  0  0  0  0  0  0
    8.7671   -4.9535   27.2147 C   0  0  0  0  0  0  0  0  0  0  0  0
    9.3066   -6.1865   25.1649 C   0  0  0  0  0  0  0  0  0  0  0  0
    7.3847   -5.5970   27.2000 C   0  0  0  0  0  0  0  0  0  0  0  0
    7.9070   -6.7999   25.2264 C   0  0  0  0  0  0  0  0  0  0  0  0
   10.0220    1.0430   23.6570 C   0  0  0  0  0  0  0  0  0  0  0  0
    9.4200   -0.0840   22.9530 C   0  0  2  0  0  0  0  0  0  0  0  0
    6.9440    0.2550   18.0100 N   0  0  0  0  0  0  0  0  0  0  0  0
    7.6830   -0.5170   18.7600 N   0  0  0  0  0  0  0  0  0  0  0  0
    7.2210   -0.4620   20.0350 N   0  0  0  0  0  0  0  0  0  0  0  0
    9.2641   -4.8845   25.8388 N   0  0  0  0  0  0  0  0  0  0  0  0
    8.0810   -0.9750   21.0820 N   0  0  0  0  0  0  0  0  0  0  0  0
    9.1870    1.1500   21.0630 O   0  0  0  0  0  0  0  0  0  0  0  0
    7.4533   -6.8877   26.5818 O   0  0  0  0  0  0  0  0  0  0  0  0
   13.9749    0.5127   23.0518 S   0  0  0  0  0  0  0  0  0  0  0  0
    3.2714    2.7876   19.3199 H   0  0  0  0  0  0  0  0  0  0  0  0
    3.6283    2.0091   21.6296 H   0  0  0  0  0  0  0  0  0  0  0  0
    7.5957   -0.7779   24.7973 H   0  0  0  0  0  0  0  0  0  0  0  0
   11.0384   -2.1852   22.6338 H   0  0  0  0  0  0  0  0  0  0  0  0
    4.7824    2.0670   17.4883 H   0  0  0  0  0  0  0  0  0  0  0  0
    5.4937    0.4574   22.1805 H   0  0  0  0  0  0  0  0  0  0  0  0
    7.5634   -2.8637   26.1037 H   0  0  0  0  0  0  0  0  0  0  0  0
   11.0139   -4.2645   23.9419 H   0  0  0  0  0  0  0  0  0  0  0  0
   11.7893    3.3487   23.5221 H   0  0  0  0  0  0  0  0  0  0  0  0
   14.3540    2.9254   23.1246 H   0  0  0  0  0  0  0  0  0  0  0  0
   12.0651   -0.9948   23.2488 H   0  0  0  0  0  0  0  0  0  0  0  0
    8.7013   -3.9575   27.6574 H   0  0  0  0  0  0  0  0  0  0  0  0
    9.4480   -5.5636   27.8142 H   0  0  0  0  0  0  0  0  0  0  0  0
   10.0131   -6.8375   25.6814 H   0  0  0  0  0  0  0  0  0  0  0  0
    9.6116   -6.0794   24.1250 H   0  0  0  0  0  0  0  0  0  0  0  0
    7.0306   -5.7388   28.2232 H   0  0  0  0  0  0  0  0  0  0  0  0
    6.6546   -4.9740   26.6757 H   0  0  0  0  0  0  0  0  0  0  0  0
    7.1892   -6.2226   24.6319 H   0  0  0  0  0  0  0  0  0  0  0  0
    7.9315   -7.8151   24.8187 H   0  0  0  0  0  0  0  0  0  0  0  0
    9.8382    0.9666   24.7377 H   0  0  0  0  0  0  0  0  0  0  0  0
    9.5448    1.9843   23.3535 H   0  0  0  0  0  0  0  0  0  0  0  0
    8.1249    0.3211   23.4916 H   0  0  0  0  0  0  0  0  0  0  0  0
    8.1256   -1.8039   21.3539 H   0  0  0  0  0  0  0  0  0  0  0  0
  1  2  1  0  0  0  0
  1  5  2  0  0  0  0
  2  6  2  0  0  0  0
  3  7  2  0  0  0  0
  3 12  1  0  0  0  0
  4  8  1  0  0  0  0
  4 12  2  0  0  0  0
  5 14  1  0  0  0  0
  6 15  1  0  0  0  0
  7 16  1  0  0  0  0
  8 16  2  0  0  0  0
  9 10  2  0  0  0  0
  9 13  1  0  0  0  0
 10 31  1  0  0  0  0
 11 13  2  0  0  0  0
 11 31  1  0  0  0  0
 12 23  1  0  0  0  0
 13 22  1  0  0  0  0
 14 15  2  0  0  0  0
 14 24  1  0  0  0  0
 15 26  1  0  0  0  0
 16 27  1  0  0  0  0
 17 23  1  6  0  0  0
 17 28  1  0  0  0  0
 17 29  2  0  0  0  0
 18 20  1  0  0  0  0
 18 27  1  0  0  0  0
 19 21  1  0  0  0  0
 19 27  1  0  0  0  0
 20 30  1  0  0  0  0
 21 30  1  0  0  0  0
 22 23  1  0  0  0  0
 24 25  2  0  0  0  0
 25 26  1  0  0  0  0
 26 28  1  0  0  0  0
  1 32  1  0  0  0  0
  2 33  1  0  0  0  0
  3 34  1  0  0  0  0
  4 35  1  0  0  0  0
  5 36  1  0  0  0  0
  6 37  1  0  0  0  0
  7 38  1  0  0  0  0
  8 39  1  0  0  0  0
  9 40  1  0  0  0  0
 10 41  1  0  0  0  0
 11 42  1  0  0  0  0
 18 43  1  0  0  0  0
 18 44  1  0  0  0  0
 19 45  1  0  0  0  0
 19 46  1  0  0  0  0
 20 47  1  0  0  0  0
 20 48  1  0  0  0  0
 21 49  1  0  0  0  0
 21 50  1  0  0  0  0
 22 51  1  0  0  0  0
 22 52  1  0  0  0  0
 23 53  1  0  0  0  0
 28 54  1  0  0  0  0
M  END
> <clash_score>
0

> <docking_score>
-9.332468032836914

> <overlap_score>
1.0128666162490845

$$$$
BENZO_192_1
  -OEChem-08222022393D

 54 58  0     1  0  0  0  0  0999 V2000
    4.0980    2.1130   19.5350 C   0  0  0  0  0  0  0  0  0  0  0  0
    4.2970    1.6690   20.8430 C   0  0  0  0  0  0  0  0  0  0  0  0
    8.3510   -1.5420   24.6110 C   0  0  0  0  0  0  0  0  0  0  0  0
   10.2760   -2.3270   23.4020 C   0  0  0  0  0  0  0  0  0  0  0  0
    4.9400    1.7060   18.5060 C   0  0  0  0  0  0  0  0  0  0  0  0
    5.3360    0.8000   21.1530 C   0  0  0  0  0  0  0  0  0  0  0  0
    8.3310   -2.7170   25.3430 C   0  0  0  0  0  0  0  0  0  0  0  0
   10.2570   -3.5000   24.1350 C   0  0  0  0  0  0  0  0  0  0  0  0
   12.2409   -0.1354   24.2898 C   0  0  0  0  0  0  0  0  0  0  0  0
   13.0475   -0.3864   25.3779 C   0  0  0  0  0  0  0  0  0  0  0  0
   11.0530    0.9174   25.9876 C   0  0  0  0  0  0  0  0  0  0  0  0
    9.3300   -1.3350   23.6390 C   0  0  0  0  0  0  0  0  0  0  0  0
   11.0855    0.6199   24.6428 C   0  0  0  0  0  0  0  0  0  0  0  0
    5.9810    0.8330   18.8060 C   0  0  0  0  0  0  0  0  0  0  0  0
    6.1600    0.3870   20.1140 C   0  0  0  0  0  0  0  0  0  0  0  0
    9.2850   -3.7090   25.1090 C   0  0  0  0  0  0  0  0  0  0  0  0
    8.9510    0.1280   21.6880 C   0  0  0  0  0  0  0  0  0  0  0  0
    8.7671   -4.9535   27.2147 C   0  0  0  0  0  0  0  0  0  0  0  0
    9.3066   -6.1865   25.1649 C   0  0  0  0  0  0  0  0  0  0  0  0
    7.3847   -5.5970   27.2000 C   0  0  0  0  0  0  0  0  0  0  0  0
    7.9070   -6.7999   25.2264 C   0  0  0  0  0  0  0  0  0  0  0  0
   10.0220    1.0430   23.6570 C   0  0  0  0  0  0  0  0  0  0  0  0
    9.4200   -0.0840   22.9530 C   0  0  1  0  0  0  0  0  0  0  0  0
    6.9440    0.2550   18.0100 N   0  0  0  0  0  0  0  0  0  0  0  0
    7.6830   -0.5170   18.7600 N   0  0  0  0  0  0  0  0  0  0  0  0
    7.2210   -0.4620   20.0350 N   0  0  0  0  0  0  0  0  0  0  0  0
    9.2641   -4.8845   25.8388 N   0  0  0  0  0  0  0  0  0  0  0  0
    8.0810   -0.9750   21.0820 N   0  0  0  0  0  0  0  0  0  0  0  0
    9.1870    1.1500   21.0630 O   0  0  0  0  0  0  0  0  0  0  0  0
    7.4533   -6.8877   26.5818 O   0  0  0  0  0  0  0  0  0  0  0  0
   12.4115    0.2872   26.8180 S   0  0  0  0  0  0  0  0  0  0  0  0
    3.2714    2.7876   19.3199 H   0  0  0  0  0  0  0  0  0  0  0  0
    3.6283    2.0091   21.6296 H   0  0  0  0  0  0  0  0  0  0  0  0
    7.5957   -0.7779   24.7973 H   0  0  0  0  0  0  0  0  0  0  0  0
   11.0384   -2.1852   22.6338 H   0  0  0  0  0  0  0  0  0  0  0  0
    4.7824    2.0670   17.4883 H   0  0  0  0  0  0  0  0  0  0  0  0
    5.4937    0.4574   22.1805 H   0  0  0  0  0  0  0  0  0  0  0  0
    7.5634   -2.8637   26.1037 H   0  0  0  0  0  0  0  0  0  0  0  0
   11.0139   -4.2645   23.9419 H   0  0  0  0  0  0  0  0  0  0  0  0
   12.4724   -0.4797   23.2896 H   0  0  0  0  0  0  0  0  0  0  0  0
   13.9794   -0.9336   25.3962 H   0  0  0  0  0  0  0  0  0  0  0  0
   10.2979    1.4731   26.5262 H   0  0  0  0  0  0  0  0  0  0  0  0
    8.7013   -3.9575   27.6574 H   0  0  0  0  0  0  0  0  0  0  0  0
    9.4480   -5.5636   27.8142 H   0  0  0  0  0  0  0  0  0  0  0  0
   10.0131   -6.8375   25.6814 H   0  0  0  0  0  0  0  0  0  0  0  0
    9.6116   -6.0794   24.1250 H   0  0  0  0  0  0  0  0  0  0  0  0
    7.0306   -5.7388   28.2232 H   0  0  0  0  0  0  0  0  0  0  0  0
    6.6546   -4.9740   26.6757 H   0  0  0  0  0  0  0  0  0  0  0  0
    7.1892   -6.2226   24.6319 H   0  0  0  0  0  0  0  0  0  0  0  0
    7.9315   -7.8151   24.8187 H   0  0  0  0  0  0  0  0  0  0  0  0
    9.2570    1.6088   24.2068 H   0  0  0  0  0  0  0  0  0  0  0  0
   10.4463    1.7601   22.9416 H   0  0  0  0  0  0  0  0  0  0  0  0
   10.7230   -0.4323   22.4284 H   0  0  0  0  0  0  0  0  0  0  0  0
    8.1256   -1.8039   21.3539 H   0  0  0  0  0  0  0  0  0  0  0  0
  1  2  1  0  0  0  0
  1  5  2  0  0  0  0
  2  6  2  0  0  0  0
  3  7  2  0  0  0  0
  3 12  1  0  0  0  0
  4  8  1  0  0  0  0
  4 12  2  0  0  0  0
  5 14  1  0  0  0  0
  6 15  1  0  0  0  0
  7 16  1  0  0  0  0
  8 16  2  0  0  0  0
  9 10  2  0  0  0  0
  9 13  1  0  0  0  0
 10 31  1  0  0  0  0
 11 13  2  0  0  0  0
 11 31  1  0  0  0  0
 12 23  1  0  0  0  0
 13 22  1  0  0  0  0
 14 15  2  0  0  0  0
 14 24  1  0  0  0  0
 15 26  1  0  0  0  0
 16 27  1  0  0  0  0
 17 23  1  1  0  0  0
 17 28  1  0  0  0  0
 17 29  2  0  0  0  0
 18 20  1  0  0  0  0
 18 27  1  0  0  0  0
 19 21  1  0  0  0  0
 19 27  1  0  0  0  0
 20 30  1  0  0  0  0
 21 30  1  0  0  0  0
 22 23  1  0  0  0  0
 24 25  2  0  0  0  0
 25 26  1  0  0  0  0
 26 28  1  0  0  0  0
  1 32  1  0  0  0  0
  2 33  1  0  0  0  0
  3 34  1  0  0  0  0
  4 35  1  0  0  0  0
  5 36  1  0  0  0  0
  6 37  1  0  0  0  0
  7 38  1  0  0  0  0
  8 39  1  0  0  0  0
  9 40  1  0  0  0  0
 10 41  1  0  0  0  0
 11 42  1  0  0  0  0
 18 43  1  0  0  0  0
 18 44  1  0  0  0  0
 19 45  1  0  0  0  0
 19 46  1  0  0  0  0
 20 47  1  0  0  0  0
 20 48  1  0  0  0  0
 21 49  1  0  0  0  0
 21 50  1  0  0  0  0
 22 51  1  0  0  0  0
 22 52  1  0  0  0  0
 23 53  1  0  0  0  0
 28 54  1  0  0  0  0
M  END
> <clash_score>
0.6208372113484875

> <docking_score>
-6.634392261505127

> <overlap_score>
0.9024399518966675

$$$$
BENZO_197_2
  -OEChem-08222022393D

 53 56  0     1  0  0  0  0  0999 V2000
   13.8479    0.1200   25.3901 C   0  0  0  0  0  0  0  0  0  0  0  0
   12.6818   -0.0763   26.1298 C   0  0  0  0  0  0  0  0  0  0  0  0
   13.7730    0.6157   24.0884 C   0  0  0  0  0  0  0  0  0  0  0  0
    4.0980    2.1130   19.5350 C   0  0  0  0  0  0  0  0  0  0  0  0
    4.2970    1.6690   20.8430 C   0  0  0  0  0  0  0  0  0  0  0  0
   11.4407    0.2231   25.5679 C   0  0  0  0  0  0  0  0  0  0  0  0
   12.5319    0.9151   23.5265 C   0  0  0  0  0  0  0  0  0  0  0  0
    8.3510   -1.5420   24.6110 C   0  0  0  0  0  0  0  0  0  0  0  0
   10.2760   -2.3270   23.4020 C   0  0  0  0  0  0  0  0  0  0  0  0
    4.9400    1.7060   18.5060 C   0  0  0  0  0  0  0  0  0  0  0  0
    5.3360    0.8000   21.1530 C   0  0  0  0  0  0  0  0  0  0  0  0
    8.3310   -2.7170   25.3430 C   0  0  0  0  0  0  0  0  0  0  0  0
   10.2570   -3.5000   24.1350 C   0  0  0  0  0  0  0  0  0  0  0  0
    7.6830   -0.5170   18.7600 C   0  0  0  0  0  0  0  0  0  0  0  0
   11.3657    0.7188   24.2662 C   0  0  0  0  0  0  0  0  0  0  0  0
    9.3300   -1.3350   23.6390 C   0  0  0  0  0  0  0  0  0  0  0  0
    5.9810    0.8330   18.8060 C   0  0  0  0  0  0  0  0  0  0  0  0
    6.1600    0.3870   20.1140 C   0  0  0  0  0  0  0  0  0  0  0  0
    9.2850   -3.7090   25.1090 C   0  0  0  0  0  0  0  0  0  0  0  0
    8.9510    0.1280   21.6880 C   0  0  0  0  0  0  0  0  0  0  0  0
    8.2528   -5.1193   26.8656 C   0  0  0  0  0  0  0  0  0  0  0  0
   10.2447   -5.9395   25.5976 C   0  0  0  0  0  0  0  0  0  0  0  0
   10.0220    1.0430   23.6570 C   0  0  0  0  0  0  0  0  0  0  0  0
    9.4200   -0.0840   22.9530 C   0  0  2  0  0  0  0  0  0  0  0  0
    6.9440    0.2550   18.0100 N   0  0  0  0  0  0  0  0  0  0  0  0
    7.2210   -0.4620   20.0350 N   0  0  0  0  0  0  0  0  0  0  0  0
    8.0810   -0.9750   21.0820 N   0  0  0  0  0  0  0  0  0  0  0  0
    9.2638   -4.9025   25.8500 N   0  0  0  0  0  0  0  0  0  0  0  0
    9.1870    1.1500   21.0630 O   0  0  0  0  0  0  0  0  0  0  0  0
   14.8143   -0.1119   25.8282 H   0  0  0  0  0  0  0  0  0  0  0  0
   12.7400   -0.4613   27.1437 H   0  0  0  0  0  0  0  0  0  0  0  0
   14.6807    0.7697   23.5125 H   0  0  0  0  0  0  0  0  0  0  0  0
    3.2711    2.7870   19.3201 H   0  0  0  0  0  0  0  0  0  0  0  0
    3.6262    2.0082   21.6284 H   0  0  0  0  0  0  0  0  0  0  0  0
   10.5374    0.0668   26.1517 H   0  0  0  0  0  0  0  0  0  0  0  0
   12.4832    1.3008   22.5116 H   0  0  0  0  0  0  0  0  0  0  0  0
    7.5957   -0.7779   24.7973 H   0  0  0  0  0  0  0  0  0  0  0  0
   11.0384   -2.1852   22.6338 H   0  0  0  0  0  0  0  0  0  0  0  0
    4.7816    2.0660   17.4901 H   0  0  0  0  0  0  0  0  0  0  0  0
    5.4934    0.4579   22.1787 H   0  0  0  0  0  0  0  0  0  0  0  0
    7.5634   -2.8637   26.1037 H   0  0  0  0  0  0  0  0  0  0  0  0
   11.0139   -4.2645   23.9419 H   0  0  0  0  0  0  0  0  0  0  0  0
    8.5166   -1.1054   18.4533 H   0  0  0  0  0  0  0  0  0  0  0  0
    8.4036   -6.1053   27.3293 H   0  0  0  0  0  0  0  0  0  0  0  0
    8.3319   -4.3367   27.6345 H   0  0  0  0  0  0  0  0  0  0  0  0
    7.2551   -5.0801   26.4039 H   0  0  0  0  0  0  0  0  0  0  0  0
   10.0633   -6.7887   26.2728 H   0  0  0  0  0  0  0  0  0  0  0  0
   10.1613   -6.2767   24.5539 H   0  0  0  0  0  0  0  0  0  0  0  0
   11.2542   -5.5399   25.7743 H   0  0  0  0  0  0  0  0  0  0  0  0
    9.3544    1.3715   24.4657 H   0  0  0  0  0  0  0  0  0  0  0  0
   10.1173    1.9145   22.9956 H   0  0  0  0  0  0  0  0  0  0  0  0
   10.7193   -0.4348   22.4312 H   0  0  0  0  0  0  0  0  0  0  0  0
    8.1515   -1.8050   21.3815 H   0  0  0  0  0  0  0  0  0  0  0  0
  1  2  1  0  0  0  0
  1  3  2  0  0  0  0
  2  6  2  0  0  0  0
  3  7  1  0  0  0  0
  4  5  1  0  0  0  0
  4 10  2  0  0  0  0
  5 11  2  0  0  0  0
  6 15  1  0  0  0  0
  7 15  2  0  0  0  0
  8 12  2  0  0  0  0
  8 16  1  0  0  0  0
  9 13  1  0  0  0  0
  9 16  2  0  0  0  0
 10 17  1  0  0  0  0
 11 18  1  0  0  0  0
 12 19  1  0  0  0  0
 13 19  2  0  0  0  0
 14 25  2  0  0  0  0
 14 26  1  0  0  0  0
 15 23  1  0  0  0  0
 16 24  1  0  0  0  0
 17 18  2  0  0  0  0
 17 25  1  0  0  0  0
 18 26  1  0  0  0  0
 19 28  1  0  0  0  0
 20 24  1  0  0  0  0
 20 27  1  0  0  0  0
 20 29  2  0  0  0  0
 21 28  1  0  0  0  0
 22 28  1  0  0  0  0
 23 24  1  6  0  0  0
 26 27  1  0  0  0  0
  1 30  1  0  0  0  0
  2 31  1  0  0  0  0
  3 32  1  0  0  0  0
  4 33  1  0  0  0  0
  5 34  1  0  0  0  0
  6 35  1  0  0  0  0
  7 36  1  0  0  0  0
  8 37  1  0  0  0  0
  9 38  1  0  0  0  0
 10 39  1  0  0  0  0
 11 40  1  0  0  0  0
 12 41  1  0  0  0  0
 13 42  1  0  0  0  0
 14 43  1  0  0  0  0
 21 44  1  0  0  0  0
 21 45  1  0  0  0  0
 21 46  1  0  0  0  0
 22 47  1  0  0  0  0
 22 48  1  0  0  0  0
 22 49  1  0  0  0  0
 23 50  1  0  0  0  0
 23 51  1  0  0  0  0
 24 52  1  0  0  0  0
 27 53  1  0  0  0  0
M  END
> <clash_score>
0

> <docking_score>
-9.01546859741211

> <overlap_score>
0.936453640460968

$$$$
BENZO_197_1
  -OEChem-08222022393D

 53 56  0     1  0  0  0  0  0999 V2000
   14.2691    1.3522   23.0572 C   0  0  0  0  0  0  0  0  0  0  0  0
   13.7679    0.5995   24.1192 C   0  0  0  0  0  0  0  0  0  0  0  0
   13.3927    2.0047   22.1900 C   0  0  0  0  0  0  0  0  0  0  0  0
    4.0980    2.1130   19.5350 C   0  0  0  0  0  0  0  0  0  0  0  0
    4.2970    1.6690   20.8430 C   0  0  0  0  0  0  0  0  0  0  0  0
   12.3904    0.4991   24.3140 C   0  0  0  0  0  0  0  0  0  0  0  0
   12.0152    1.9043   22.3848 C   0  0  0  0  0  0  0  0  0  0  0  0
    8.3510   -1.5420   24.6110 C   0  0  0  0  0  0  0  0  0  0  0  0
   10.2760   -2.3270   23.4020 C   0  0  0  0  0  0  0  0  0  0  0  0
    4.9400    1.7060   18.5060 C   0  0  0  0  0  0  0  0  0  0  0  0
    5.3360    0.8000   21.1530 C   0  0  0  0  0  0  0  0  0  0  0  0
    8.3310   -2.7170   25.3430 C   0  0  0  0  0  0  0  0  0  0  0  0
   10.2570   -3.5000   24.1350 C   0  0  0  0  0  0  0  0  0  0  0  0
    7.6830   -0.5170   18.7600 C   0  0  0  0  0  0  0  0  0  0  0  0
   11.5140    1.1515   23.4468 C   0  0  0  0  0  0  0  0  0  0  0  0
    9.3300   -1.3350   23.6390 C   0  0  0  0  0  0  0  0  0  0  0  0
    5.9810    0.8330   18.8060 C   0  0  0  0  0  0  0  0  0  0  0  0
    6.1600    0.3870   20.1140 C   0  0  0  0  0  0  0  0  0  0  0  0
    9.2850   -3.7090   25.1090 C   0  0  0  0  0  0  0  0  0  0  0  0
    8.9510    0.1280   21.6880 C   0  0  0  0  0  0  0  0  0  0  0  0
    8.2528   -5.1193   26.8656 C   0  0  0  0  0  0  0  0  0  0  0  0
   10.2447   -5.9395   25.5976 C   0  0  0  0  0  0  0  0  0  0  0  0
   10.0220    1.0430   23.6570 C   0  0  0  0  0  0  0  0  0  0  0  0
    9.4200   -0.0840   22.9530 C   0  0  1  0  0  0  0  0  0  0  0  0
    6.9440    0.2550   18.0100 N   0  0  0  0  0  0  0  0  0  0  0  0
    7.2210   -0.4620   20.0350 N   0  0  0  0  0  0  0  0  0  0  0  0
    8.0810   -0.9750   21.0820 N   0  0  0  0  0  0  0  0  0  0  0  0
    9.2638   -4.9025   25.8500 N   0  0  0  0  0  0  0  0  0  0  0  0
    9.1870    1.1500   21.0630 O   0  0  0  0  0  0  0  0  0  0  0  0
   15.3418    1.4314   22.9065 H   0  0  0  0  0  0  0  0  0  0  0  0
   14.4502    0.0923   24.7952 H   0  0  0  0  0  0  0  0  0  0  0  0
   13.7826    2.5917   21.3638 H   0  0  0  0  0  0  0  0  0  0  0  0
    3.2711    2.7870   19.3201 H   0  0  0  0  0  0  0  0  0  0  0  0
    3.6262    2.0082   21.6284 H   0  0  0  0  0  0  0  0  0  0  0  0
   12.0089   -0.0898   25.1440 H   0  0  0  0  0  0  0  0  0  0  0  0
   11.3399    2.4159   21.7041 H   0  0  0  0  0  0  0  0  0  0  0  0
    7.5957   -0.7779   24.7973 H   0  0  0  0  0  0  0  0  0  0  0  0
   11.0384   -2.1852   22.6338 H   0  0  0  0  0  0  0  0  0  0  0  0
    4.7816    2.0660   17.4901 H   0  0  0  0  0  0  0  0  0  0  0  0
    5.4934    0.4579   22.1787 H   0  0  0  0  0  0  0  0  0  0  0  0
    7.5634   -2.8637   26.1037 H   0  0  0  0  0  0  0  0  0  0  0  0
   11.0139   -4.2645   23.9419 H   0  0  0  0  0  0  0  0  0  0  0  0
    8.5166   -1.1054   18.4533 H   0  0  0  0  0  0  0  0  0  0  0  0
    8.4036   -6.1053   27.3293 H   0  0  0  0  0  0  0  0  0  0  0  0
    8.3319   -4.3367   27.6345 H   0  0  0  0  0  0  0  0  0  0  0  0
    7.2551   -5.0801   26.4039 H   0  0  0  0  0  0  0  0  0  0  0  0
   10.0633   -6.7887   26.2728 H   0  0  0  0  0  0  0  0  0  0  0  0
   10.1613   -6.2767   24.5539 H   0  0  0  0  0  0  0  0  0  0  0  0
   11.2542   -5.5399   25.7743 H   0  0  0  0  0  0  0  0  0  0  0  0
    9.8388    0.9439   24.7360 H   0  0  0  0  0  0  0  0  0  0  0  0
    9.5396    1.9876   23.3725 H   0  0  0  0  0  0  0  0  0  0  0  0
    8.1264    0.3141   23.4937 H   0  0  0  0  0  0  0  0  0  0  0  0
    8.1515   -1.8050   21.3815 H   0  0  0  0  0  0  0  0  0  0  0  0
  1  2  1  0  0  0  0
  1  3  2  0  0  0  0
  2  6  2  0  0  0  0
  3  7  1  0  0  0  0
  4  5  1  0  0  0  0
  4 10  2  0  0  0  0
  5 11  2  0  0  0  0
  6 15  1  0  0  0  0
  7 15  2  0  0  0  0
  8 12  2  0  0  0  0
  8 16  1  0  0  0  0
  9 13  1  0  0  0  0
  9 16  2  0  0  0  0
 10 17  1  0  0  0  0
 11 18  1  0  0  0  0
 12 19  1  0  0  0  0
 13 19  2  0  0  0  0
 14 25  2  0  0  0  0
 14 26  1  0  0  0  0
 15 23  1  0  0  0  0
 16 24  1  0  0  0  0
 17 18  2  0  0  0  0
 17 25  1  0  0  0  0
 18 26  1  0  0  0  0
 19 28  1  0  0  0  0
 20 24  1  0  0  0  0
 20 27  1  0  0  0  0
 20 29  2  0  0  0  0
 21 28  1  0  0  0  0
 22 28  1  0  0  0  0
 23 24  1  1  0  0  0
 26 27  1  0  0  0  0
  1 30  1  0  0  0  0
  2 31  1  0  0  0  0
  3 32  1  0  0  0  0
  4 33  1  0  0  0  0
  5 34  1  0  0  0  0
  6 35  1  0  0  0  0
  7 36  1  0  0  0  0
  8 37  1  0  0  0  0
  9 38  1  0  0  0  0
 10 39  1  0  0  0  0
 11 40  1  0  0  0  0
 12 41  1  0  0  0  0
 13 42  1  0  0  0  0
 14 43  1  0  0  0  0
 21 44  1  0  0  0  0
 21 45  1  0  0  0  0
 21 46  1  0  0  0  0
 22 47  1  0  0  0  0
 22 48  1  0  0  0  0
 22 49  1  0  0  0  0
 23 50  1  0  0  0  0
 23 51  1  0  0  0  0
 24 52  1  0  0  0  0
 27 53  1  0  0  0  0
M  END
> <clash_score>
0

> <docking_score>
-9.930412292480469

> <overlap_score>
1.0128097534179688

$$$$
BENZO_196_1
  -OEChem-08222022393D

 50 53  0     1  0  0  0  0  0999 V2000
    4.0980    2.1130   19.5350 C   0  0  0  0  0  0  0  0  0  0  0  0
    4.2970    1.6690   20.8430 C   0  0  0  0  0  0  0  0  0  0  0  0
    8.3510   -1.5420   24.6110 C   0  0  0  0  0  0  0  0  0  0  0  0
   10.2760   -2.3270   23.4020 C   0  0  0  0  0  0  0  0  0  0  0  0
    4.9400    1.7060   18.5060 C   0  0  0  0  0  0  0  0  0  0  0  0
    5.3360    0.8000   21.1530 C   0  0  0  0  0  0  0  0  0  0  0  0
    8.3310   -2.7170   25.3430 C   0  0  0  0  0  0  0  0  0  0  0  0
   10.2570   -3.5000   24.1350 C   0  0  0  0  0  0  0  0  0  0  0  0
   12.2266    2.3852   23.4320 C   0  0  0  0  0  0  0  0  0  0  0  0
   13.5754    2.2012   23.2208 C   0  0  0  0  0  0  0  0  0  0  0  0
   12.3453    0.0714   23.2461 C   0  0  0  0  0  0  0  0  0  0  0  0
    7.6830   -0.5170   18.7600 C   0  0  0  0  0  0  0  0  0  0  0  0
    9.3300   -1.3350   23.6390 C   0  0  0  0  0  0  0  0  0  0  0  0
   11.5140    1.1515   23.4468 C   0  0  0  0  0  0  0  0  0  0  0  0
    5.9810    0.8330   18.8060 C   0  0  0  0  0  0  0  0  0  0  0  0
    6.1600    0.3870   20.1140 C   0  0  0  0  0  0  0  0  0  0  0  0
    9.2850   -3.7090   25.1090 C   0  0  0  0  0  0  0  0  0  0  0  0
    8.9510    0.1280   21.6880 C   0  0  0  0  0  0  0  0  0  0  0  0
    8.2528   -5.1193   26.8656 C   0  0  0  0  0  0  0  0  0  0  0  0
   10.2447   -5.9395   25.5976 C   0  0  0  0  0  0  0  0  0  0  0  0
   10.0220    1.0430   23.6570 C   0  0  0  0  0  0  0  0  0  0  0  0
    9.4200   -0.0840   22.9530 C   0  0  1  0  0  0  0  0  0  0  0  0
    6.9440    0.2550   18.0100 N   0  0  0  0  0  0  0  0  0  0  0  0
    7.2210   -0.4620   20.0350 N   0  0  0  0  0  0  0  0  0  0  0  0
    8.0810   -0.9750   21.0820 N   0  0  0  0  0  0  0  0  0  0  0  0
    9.2638   -4.9025   25.8500 N   0  0  0  0  0  0  0  0  0  0  0  0
    9.1870    1.1500   21.0630 O   0  0  0  0  0  0  0  0  0  0  0  0
   13.9777    0.5464   23.0413 S   0  0  0  0  0  0  0  0  0  0  0  0
    3.2711    2.7870   19.3201 H   0  0  0  0  0  0  0  0  0  0  0  0
    3.6262    2.0082   21.6284 H   0  0  0  0  0  0  0  0  0  0  0  0
    7.5957   -0.7779   24.7973 H   0  0  0  0  0  0  0  0  0  0  0  0
   11.0384   -2.1852   22.6338 H   0  0  0  0  0  0  0  0  0  0  0  0
    4.7816    2.0660   17.4901 H   0  0  0  0  0  0  0  0  0  0  0  0
    5.4934    0.4579   22.1787 H   0  0  0  0  0  0  0  0  0  0  0  0
    7.5634   -2.8637   26.1037 H   0  0  0  0  0  0  0  0  0  0  0  0
   11.0139   -4.2645   23.9419 H   0  0  0  0  0  0  0  0  0  0  0  0
   11.7767    3.3605   23.5685 H   0  0  0  0  0  0  0  0  0  0  0  0
   14.3436    2.9592   23.1626 H   0  0  0  0  0  0  0  0  0  0  0  0
   12.0761   -0.9751   23.2080 H   0  0  0  0  0  0  0  0  0  0  0  0
    8.5166   -1.1054   18.4533 H   0  0  0  0  0  0  0  0  0  0  0  0
    8.4036   -6.1053   27.3293 H   0  0  0  0  0  0  0  0  0  0  0  0
    8.3319   -4.3367   27.6345 H   0  0  0  0  0  0  0  0  0  0  0  0
    7.2551   -5.0801   26.4039 H   0  0  0  0  0  0  0  0  0  0  0  0
   10.0633   -6.7887   26.2728 H   0  0  0  0  0  0  0  0  0  0  0  0
   10.1613   -6.2767   24.5539 H   0  0  0  0  0  0  0  0  0  0  0  0
   11.2542   -5.5399   25.7743 H   0  0  0  0  0  0  0  0  0  0  0  0
    9.8388    0.9439   24.7360 H   0  0  0  0  0  0  0  0  0  0  0  0
    9.5396    1.9876   23.3725 H   0  0  0  0  0  0  0  0  0  0  0  0
    8.1264    0.3141   23.4937 H   0  0  0  0  0  0  0  0  0  0  0  0
    8.1515   -1.8050   21.3815 H   0  0  0  0  0  0  0  0  0  0  0  0
  1  2  1  0  0  0  0
  1  5  2  0  0  0  0
  2  6  2  0  0  0  0
  3  7  2  0  0  0  0
  3 13  1  0  0  0  0
  4  8  1  0  0  0  0
  4 13  2  0  0  0  0
  5 15  1  0  0  0  0
  6 16  1  0  0  0  0
  7 17  1  0  0  0  0
  8 17  2  0  0  0  0
  9 10  2  0  0  0  0
  9 14  1  0  0  0  0
 10 28  1  0  0  0  0
 11 14  2  0  0  0  0
 11 28  1  0  0  0  0
 12 23  2  0  0  0  0
 12 24  1  0  0  0  0
 13 22  1  0  0  0  0
 14 21  1  0  0  0  0
 15 16  2  0  0  0  0
 15 23  1  0  0  0  0
 16 24  1  0  0  0  0
 17 26  1  0  0  0  0
 18 22  1  0  0  0  0
 18 25  1  0  0  0  0
 18 27  2  0  0  0  0
 19 26  1  0  0  0  0
 20 26  1  0  0  0  0
 21 22  1  1  0  0  0
 24 25  1  0  0  0  0
  1 29  1  0  0  0  0
  2 30  1  0  0  0  0
  3 31  1  0  0  0  0
  4 32  1  0  0  0  0
  5 33  1  0  0  0  0
  6 34  1  0  0  0  0
  7 35  1  0  0  0  0
  8 36  1  0  0  0  0
  9 37  1  0  0  0  0
 10 38  1  0  0  0  0
 11 39  1  0  0  0  0
 12 40  1  0  0  0  0
 19 41  1  0  0  0  0
 19 42  1  0  0  0  0
 19 43  1  0  0  0  0
 20 44  1  0  0  0  0
 20 45  1  0  0  0  0
 20 46  1  0  0  0  0
 21 47  1  0  0  0  0
 21 48  1  0  0  0  0
 22 49  1  0  0  0  0
 25 50  1  0  0  0  0
M  END
> <clash_score>
0

> <docking_score>
-10.662368774414062

> <overlap_score>
0.9989656805992126

$$$$
BENZO_196_2
  -OEChem-08222022393D

 50 53  0     1  0  0  0  0  0999 V2000
    4.0980    2.1130   19.5350 C   0  0  0  0  0  0  0  0  0  0  0  0
    4.2970    1.6690   20.8430 C   0  0  0  0  0  0  0  0  0  0  0  0
    8.3510   -1.5420   24.6110 C   0  0  0  0  0  0  0  0  0  0  0  0
   10.2760   -2.3270   23.4020 C   0  0  0  0  0  0  0  0  0  0  0  0
    4.9400    1.7060   18.5060 C   0  0  0  0  0  0  0  0  0  0  0  0
    5.3360    0.8000   21.1530 C   0  0  0  0  0  0  0  0  0  0  0  0
    8.3310   -2.7170   25.3430 C   0  0  0  0  0  0  0  0  0  0  0  0
   10.2570   -3.5000   24.1350 C   0  0  0  0  0  0  0  0  0  0  0  0
   11.6577    0.8378   25.6558 C   0  0  0  0  0  0  0  0  0  0  0  0
   12.9563    0.4800   25.9442 C   0  0  0  0  0  0  0  0  0  0  0  0
   12.4526    0.2747   23.5454 C   0  0  0  0  0  0  0  0  0  0  0  0
    7.6830   -0.5170   18.7600 C   0  0  0  0  0  0  0  0  0  0  0  0
    9.3300   -1.3350   23.6390 C   0  0  0  0  0  0  0  0  0  0  0  0
   11.3657    0.7188   24.2662 C   0  0  0  0  0  0  0  0  0  0  0  0
    5.9810    0.8330   18.8060 C   0  0  0  0  0  0  0  0  0  0  0  0
    6.1600    0.3870   20.1140 C   0  0  0  0  0  0  0  0  0  0  0  0
    9.2850   -3.7090   25.1090 C   0  0  0  0  0  0  0  0  0  0  0  0
    8.9510    0.1280   21.6880 C   0  0  0  0  0  0  0  0  0  0  0  0
    8.0125   -5.4329   26.3537 C   0  0  0  0  0  0  0  0  0  0  0  0
   10.4925   -5.6272   26.1076 C   0  0  0  0  0  0  0  0  0  0  0  0
   10.0220    1.0430   23.6570 C   0  0  0  0  0  0  0  0  0  0  0  0
    9.4200   -0.0840   22.9530 C   0  0  2  0  0  0  0  0  0  0  0  0
    6.9440    0.2550   18.0100 N   0  0  0  0  0  0  0  0  0  0  0  0
    7.2210   -0.4620   20.0350 N   0  0  0  0  0  0  0  0  0  0  0  0
    8.0810   -0.9750   21.0820 N   0  0  0  0  0  0  0  0  0  0  0  0
    9.2638   -4.9025   25.8500 N   0  0  0  0  0  0  0  0  0  0  0  0
    9.1870    1.1500   21.0630 O   0  0  0  0  0  0  0  0  0  0  0  0
   13.8176    0.0030   24.5431 S   0  0  0  0  0  0  0  0  0  0  0  0
    3.2711    2.7870   19.3201 H   0  0  0  0  0  0  0  0  0  0  0  0
    3.6262    2.0082   21.6284 H   0  0  0  0  0  0  0  0  0  0  0  0
    7.5957   -0.7779   24.7973 H   0  0  0  0  0  0  0  0  0  0  0  0
   11.0384   -2.1852   22.6338 H   0  0  0  0  0  0  0  0  0  0  0  0
    4.7816    2.0660   17.4901 H   0  0  0  0  0  0  0  0  0  0  0  0
    5.4934    0.4579   22.1787 H   0  0  0  0  0  0  0  0  0  0  0  0
    7.5634   -2.8637   26.1037 H   0  0  0  0  0  0  0  0  0  0  0  0
   11.0139   -4.2645   23.9419 H   0  0  0  0  0  0  0  0  0  0  0  0
   10.9540    1.1690   26.4090 H   0  0  0  0  0  0  0  0  0  0  0  0
   13.4407    0.4764   26.9104 H   0  0  0  0  0  0  0  0  0  0  0  0
   12.5149    0.0967   22.4808 H   0  0  0  0  0  0  0  0  0  0  0  0
    8.5166   -1.1054   18.4533 H   0  0  0  0  0  0  0  0  0  0  0  0
    8.2040   -6.3664   26.9030 H   0  0  0  0  0  0  0  0  0  0  0  0
    7.5486   -4.6988   27.0289 H   0  0  0  0  0  0  0  0  0  0  0  0
    7.3348   -5.6357   25.5113 H   0  0  0  0  0  0  0  0  0  0  0  0
   10.2703   -6.5283   26.6981 H   0  0  0  0  0  0  0  0  0  0  0  0
   10.9530   -5.9192   25.1523 H   0  0  0  0  0  0  0  0  0  0  0  0
   11.1869   -4.9839   26.6679 H   0  0  0  0  0  0  0  0  0  0  0  0
    9.3544    1.3715   24.4657 H   0  0  0  0  0  0  0  0  0  0  0  0
   10.1173    1.9145   22.9956 H   0  0  0  0  0  0  0  0  0  0  0  0
   10.7193   -0.4348   22.4312 H   0  0  0  0  0  0  0  0  0  0  0  0
    8.1515   -1.8050   21.3815 H   0  0  0  0  0  0  0  0  0  0  0  0
  1  2  1  0  0  0  0
  1  5  2  0  0  0  0
  2  6  2  0  0  0  0
  3  7  2  0  0  0  0
  3 13  1  0  0  0  0
  4  8  1  0  0  0  0
  4 13  2  0  0  0  0
  5 15  1  0  0  0  0
  6 16  1  0  0  0  0
  7 17  1  0  0  0  0
  8 17  2  0  0  0  0
  9 10  2  0  0  0  0
  9 14  1  0  0  0  0
 10 28  1  0  0  0  0
 11 14  2  0  0  0  0
 11 28  1  0  0  0  0
 12 23  2  0  0  0  0
 12 24  1  0  0  0  0
 13 22  1  0  0  0  0
 14 21  1  0  0  0  0
 15 16  2  0  0  0  0
 15 23  1  0  0  0  0
 16 24  1  0  0  0  0
 17 26  1  0  0  0  0
 18 22  1  0  0  0  0
 18 25  1  0  0  0  0
 18 27  2  0  0  0  0
 19 26  1  0  0  0  0
 20 26  1  0  0  0  0
 21 22  1  6  0  0  0
 24 25  1  0  0  0  0
  1 29  1  0  0  0  0
  2 30  1  0  0  0  0
  3 31  1  0  0  0  0
  4 32  1  0  0  0  0
  5 33  1  0  0  0  0
  6 34  1  0  0  0  0
  7 35  1  0  0  0  0
  8 36  1  0  0  0  0
  9 37  1  0  0  0  0
 10 38  1  0  0  0  0
 11 39  1  0  0  0  0
 12 40  1  0  0  0  0
 19 41  1  0  0  0  0
 19 42  1  0  0  0  0
 19 43  1  0  0  0  0
 20 44  1  0  0  0  0
 20 45  1  0  0  0  0
 20 46  1  0  0  0  0
 21 47  1  0  0  0  0
 21 48  1  0  0  0  0
 22 49  1  0  0  0  0
 25 50  1  0  0  0  0
M  END
> <clash_score>
0

> <docking_score>
-8.739352226257324

> <overlap_score>
0.91927170753479

$$$$
BENZO_195_2
  -OEChem-08222022393D

 57 61  0     1  0  0  0  0  0999 V2000
    4.0980    2.1130   19.5350 C   0  0  0  0  0  0  0  0  0  0  0  0
    4.2970    1.6690   20.8430 C   0  0  0  0  0  0  0  0  0  0  0  0
    8.3510   -1.5420   24.6110 C   0  0  0  0  0  0  0  0  0  0  0  0
   10.2760   -2.3270   23.4020 C   0  0  0  0  0  0  0  0  0  0  0  0
    4.9400    1.7060   18.5060 C   0  0  0  0  0  0  0  0  0  0  0  0
    5.3360    0.8000   21.1530 C   0  0  0  0  0  0  0  0  0  0  0  0
    8.3310   -2.7170   25.3430 C   0  0  0  0  0  0  0  0  0  0  0  0
   10.2570   -3.5000   24.1350 C   0  0  0  0  0  0  0  0  0  0  0  0
   12.6359    0.8405   23.6658 C   0  0  0  0  0  0  0  0  0  0  0  0
   11.6237    0.2113   25.5137 C   0  0  0  0  0  0  0  0  0  0  0  0
    9.3300   -1.3350   23.6390 C   0  0  0  0  0  0  0  0  0  0  0  0
   11.3663    0.7092   24.2598 C   0  0  0  0  0  0  0  0  0  0  0  0
    5.9810    0.8330   18.8060 C   0  0  0  0  0  0  0  0  0  0  0  0
    6.1600    0.3870   20.1140 C   0  0  0  0  0  0  0  0  0  0  0  0
    9.2850   -3.7090   25.1090 C   0  0  0  0  0  0  0  0  0  0  0  0
    8.9510    0.1280   21.6880 C   0  0  0  0  0  0  0  0  0  0  0  0
    8.7671   -4.9535   27.2147 C   0  0  0  0  0  0  0  0  0  0  0  0
    9.3066   -6.1865   25.1649 C   0  0  0  0  0  0  0  0  0  0  0  0
    7.3847   -5.5970   27.2000 C   0  0  0  0  0  0  0  0  0  0  0  0
    7.9070   -6.7999   25.2264 C   0  0  0  0  0  0  0  0  0  0  0  0
   13.7282   -0.4085   26.7244 C   0  0  0  0  0  0  0  0  0  0  0  0
   10.0220    1.0430   23.6570 C   0  0  0  0  0  0  0  0  0  0  0  0
    9.4200   -0.0840   22.9530 C   0  0  2  0  0  0  0  0  0  0  0  0
   13.6263    0.4570   24.4758 N   0  0  0  0  0  0  0  0  0  0  0  0
    6.9440    0.2550   18.0100 N   0  0  0  0  0  0  0  0  0  0  0  0
    7.6830   -0.5170   18.7600 N   0  0  0  0  0  0  0  0  0  0  0  0
   12.9790    0.0800   25.5916 N   0  0  0  0  0  0  0  0  0  0  0  0
    7.2210   -0.4620   20.0350 N   0  0  0  0  0  0  0  0  0  0  0  0
    9.2641   -4.8845   25.8388 N   0  0  0  0  0  0  0  0  0  0  0  0
    8.0810   -0.9750   21.0820 N   0  0  0  0  0  0  0  0  0  0  0  0
    9.1870    1.1500   21.0630 O   0  0  0  0  0  0  0  0  0  0  0  0
    7.4533   -6.8877   26.5818 O   0  0  0  0  0  0  0  0  0  0  0  0
    3.2714    2.7876   19.3199 H   0  0  0  0  0  0  0  0  0  0  0  0
    3.6283    2.0091   21.6296 H   0  0  0  0  0  0  0  0  0  0  0  0
    7.5957   -0.7779   24.7973 H   0  0  0  0  0  0  0  0  0  0  0  0
   11.0384   -2.1852   22.6338 H   0  0  0  0  0  0  0  0  0  0  0  0
    4.7824    2.0670   17.4883 H   0  0  0  0  0  0  0  0  0  0  0  0
    5.4937    0.4574   22.1805 H   0  0  0  0  0  0  0  0  0  0  0  0
    7.5634   -2.8637   26.1037 H   0  0  0  0  0  0  0  0  0  0  0  0
   11.0139   -4.2645   23.9419 H   0  0  0  0  0  0  0  0  0  0  0  0
   12.8833    1.2002   22.6770 H   0  0  0  0  0  0  0  0  0  0  0  0
   10.9741   -0.0530   26.3371 H   0  0  0  0  0  0  0  0  0  0  0  0
    8.7013   -3.9575   27.6574 H   0  0  0  0  0  0  0  0  0  0  0  0
    9.4480   -5.5636   27.8142 H   0  0  0  0  0  0  0  0  0  0  0  0
   10.0131   -6.8375   25.6814 H   0  0  0  0  0  0  0  0  0  0  0  0
    9.6116   -6.0794   24.1250 H   0  0  0  0  0  0  0  0  0  0  0  0
    7.0306   -5.7388   28.2232 H   0  0  0  0  0  0  0  0  0  0  0  0
    6.6546   -4.9740   26.6757 H   0  0  0  0  0  0  0  0  0  0  0  0
    7.1892   -6.2226   24.6319 H   0  0  0  0  0  0  0  0  0  0  0  0
    7.9315   -7.8151   24.8187 H   0  0  0  0  0  0  0  0  0  0  0  0
   13.8306   -1.4918   26.6192 H   0  0  0  0  0  0  0  0  0  0  0  0
   14.7120    0.0685   26.7434 H   0  0  0  0  0  0  0  0  0  0  0  0
   13.1927   -0.1616   27.6454 H   0  0  0  0  0  0  0  0  0  0  0  0
    9.3646    1.3888   24.4669 H   0  0  0  0  0  0  0  0  0  0  0  0
   10.1228    1.9057   22.9851 H   0  0  0  0  0  0  0  0  0  0  0  0
   10.7230   -0.4323   22.4284 H   0  0  0  0  0  0  0  0  0  0  0  0
    8.1256   -1.8039   21.3539 H   0  0  0  0  0  0  0  0  0  0  0  0
  1  2  1  0  0  0  0
  1  5  2  0  0  0  0
  2  6  2  0  0  0  0
  3  7  2  0  0  0  0
  3 11  1  0  0  0  0
  4  8  1  0  0  0  0
  4 11  2  0  0  0  0
  5 13  1  0  0  0  0
  6 14  1  0  0  0  0
  7 15  1  0  0  0  0
  8 15  2  0  0  0  0
  9 12  1  0  0  0  0
  9 24  2  0  0  0  0
 10 12  2  0  0  0  0
 10 27  1  0  0  0  0
 11 23  1  0  0  0  0
 12 22  1  0  0  0  0
 13 14  2  0  0  0  0
 13 25  1  0  0  0  0
 14 28  1  0  0  0  0
 15 29  1  0  0  0  0
 16 23  1  0  0  0  0
 16 30  1  0  0  0  0
 16 31  2  0  0  0  0
 17 19  1  0  0  0  0
 17 29  1  0  0  0  0
 18 20  1  0  0  0  0
 18 29  1  0  0  0  0
 19 32  1  0  0  0  0
 20 32  1  0  0  0  0
 21 27  1  0  0  0  0
 22 23  1  6  0  0  0
 24 27  1  0  0  0  0
 25 26  2  0  0  0  0
 26 28  1  0  0  0  0
 28 30  1  0  0  0  0
  1 33  1  0  0  0  0
  2 34  1  0  0  0  0
  3 35  1  0  0  0  0
  4 36  1  0  0  0  0
  5 37  1  0  0  0  0
  6 38  1  0  0  0  0
  7 39  1  0  0  0  0
  8 40  1  0  0  0  0
  9 41  1  0  0  0  0
 10 42  1  0  0  0  0
 17 43  1  0  0  0  0
 17 44  1  0  0  0  0
 18 45  1  0  0  0  0
 18 46  1  0  0  0  0
 19 47  1  0  0  0  0
 19 48  1  0  0  0  0
 20 49  1  0  0  0  0
 20 50  1  0  0  0  0
 21 51  1  0  0  0  0
 21 52  1  0  0  0  0
 21 53  1  0  0  0  0
 22 54  1  0  0  0  0
 22 55  1  0  0  0  0
 23 56  1  0  0  0  0
 30 57  1  0  0  0  0
M  END
> <clash_score>
0.7305695786537518

> <docking_score>
-7.534589767456055

> <overlap_score>
0.9420347213745117

$$$$
BENZO_194_1
  -OEChem-08222022393D

 57 61  0     1  0  0  0  0  0999 V2000
    4.0980    2.1130   19.5350 C   0  0  0  0  0  0  0  0  0  0  0  0
    4.2970    1.6690   20.8430 C   0  0  0  0  0  0  0  0  0  0  0  0
   13.7724    0.5968   24.0731 C   0  0  0  0  0  0  0  0  0  0  0  0
   12.5307    0.9037   23.5168 C   0  0  0  0  0  0  0  0  0  0  0  0
    8.3510   -1.5420   24.6110 C   0  0  0  0  0  0  0  0  0  0  0  0
   10.2760   -2.3270   23.4020 C   0  0  0  0  0  0  0  0  0  0  0  0
    4.9400    1.7060   18.5060 C   0  0  0  0  0  0  0  0  0  0  0  0
    5.3360    0.8000   21.1530 C   0  0  0  0  0  0  0  0  0  0  0  0
    8.3310   -2.7170   25.3430 C   0  0  0  0  0  0  0  0  0  0  0  0
   10.2570   -3.5000   24.1350 C   0  0  0  0  0  0  0  0  0  0  0  0
   13.8498    0.0953   25.3725 C   0  0  0  0  0  0  0  0  0  0  0  0
   11.4436    0.2079   25.5591 C   0  0  0  0  0  0  0  0  0  0  0  0
    9.3300   -1.3350   23.6390 C   0  0  0  0  0  0  0  0  0  0  0  0
   11.3663    0.7092   24.2598 C   0  0  0  0  0  0  0  0  0  0  0  0
    5.9810    0.8330   18.8060 C   0  0  0  0  0  0  0  0  0  0  0  0
    6.1600    0.3870   20.1140 C   0  0  0  0  0  0  0  0  0  0  0  0
    9.2850   -3.7090   25.1090 C   0  0  0  0  0  0  0  0  0  0  0  0
   12.6854   -0.0991   26.1155 C   0  0  0  0  0  0  0  0  0  0  0  0
    8.9510    0.1280   21.6880 C   0  0  0  0  0  0  0  0  0  0  0  0
    8.7671   -4.9535   27.2147 C   0  0  0  0  0  0  0  0  0  0  0  0
    9.3066   -6.1865   25.1649 C   0  0  0  0  0  0  0  0  0  0  0  0
    7.3847   -5.5970   27.2000 C   0  0  0  0  0  0  0  0  0  0  0  0
    7.9070   -6.7999   25.2264 C   0  0  0  0  0  0  0  0  0  0  0  0
   10.0220    1.0430   23.6570 C   0  0  0  0  0  0  0  0  0  0  0  0
    9.4200   -0.0840   22.9530 C   0  0  1  0  0  0  0  0  0  0  0  0
    6.9440    0.2550   18.0100 N   0  0  0  0  0  0  0  0  0  0  0  0
    7.6830   -0.5170   18.7600 N   0  0  0  0  0  0  0  0  0  0  0  0
    7.2210   -0.4620   20.0350 N   0  0  0  0  0  0  0  0  0  0  0  0
    9.2641   -4.8845   25.8388 N   0  0  0  0  0  0  0  0  0  0  0  0
    8.0810   -0.9750   21.0820 N   0  0  0  0  0  0  0  0  0  0  0  0
    9.1870    1.1500   21.0630 O   0  0  0  0  0  0  0  0  0  0  0  0
    7.4533   -6.8877   26.5818 O   0  0  0  0  0  0  0  0  0  0  0  0
   12.7815   -0.7167   27.7190 Cl  0  0  0  0  0  0  0  0  0  0  0  0
    3.2714    2.7876   19.3199 H   0  0  0  0  0  0  0  0  0  0  0  0
    3.6283    2.0091   21.6296 H   0  0  0  0  0  0  0  0  0  0  0  0
   14.6789    0.7484   23.4943 H   0  0  0  0  0  0  0  0  0  0  0  0
   12.4799    1.2940   22.5037 H   0  0  0  0  0  0  0  0  0  0  0  0
    7.5957   -0.7779   24.7973 H   0  0  0  0  0  0  0  0  0  0  0  0
   11.0384   -2.1852   22.6338 H   0  0  0  0  0  0  0  0  0  0  0  0
    4.7824    2.0670   17.4883 H   0  0  0  0  0  0  0  0  0  0  0  0
    5.4937    0.4574   22.1805 H   0  0  0  0  0  0  0  0  0  0  0  0
    7.5634   -2.8637   26.1037 H   0  0  0  0  0  0  0  0  0  0  0  0
   11.0139   -4.2645   23.9419 H   0  0  0  0  0  0  0  0  0  0  0  0
   14.8244   -0.1392   25.7934 H   0  0  0  0  0  0  0  0  0  0  0  0
   10.5328    0.0576   26.1342 H   0  0  0  0  0  0  0  0  0  0  0  0
    8.7013   -3.9575   27.6574 H   0  0  0  0  0  0  0  0  0  0  0  0
    9.4480   -5.5636   27.8142 H   0  0  0  0  0  0  0  0  0  0  0  0
   10.0131   -6.8375   25.6814 H   0  0  0  0  0  0  0  0  0  0  0  0
    9.6116   -6.0794   24.1250 H   0  0  0  0  0  0  0  0  0  0  0  0
    7.0306   -5.7388   28.2232 H   0  0  0  0  0  0  0  0  0  0  0  0
    6.6546   -4.9740   26.6757 H   0  0  0  0  0  0  0  0  0  0  0  0
    7.1892   -6.2226   24.6319 H   0  0  0  0  0  0  0  0  0  0  0  0
    7.9315   -7.8151   24.8187 H   0  0  0  0  0  0  0  0  0  0  0  0
    9.3646    1.3888   24.4669 H   0  0  0  0  0  0  0  0  0  0  0  0
   10.1228    1.9057   22.9851 H   0  0  0  0  0  0  0  0  0  0  0  0
   10.7230   -0.4323   22.4284 H   0  0  0  0  0  0  0  0  0  0  0  0
    8.1256   -1.8039   21.3539 H   0  0  0  0  0  0  0  0  0  0  0  0
  1  2  1  0  0  0  0
  1  7  2  0  0  0  0
  2  8  2  0  0  0  0
  3  4  2  0  0  0  0
  3 11  1  0  0  0  0
  4 14  1  0  0  0  0
  5  9  2  0  0  0  0
  5 13  1  0  0  0  0
  6 10  1  0  0  0  0
  6 13  2  0  0  0  0
  7 15  1  0  0  0  0
  8 16  1  0  0  0  0
  9 17  1  0  0  0  0
 10 17  2  0  0  0  0
 11 18  2  0  0  0  0
 12 14  2  0  0  0  0
 12 18  1  0  0  0  0
 13 25  1  0  0  0  0
 14 24  1  0  0  0  0
 15 16  2  0  0  0  0
 15 26  1  0  0  0  0
 16 28  1  0  0  0  0
 17 29  1  0  0  0  0
 18 33  1  0  0  0  0
 19 25  1  1  0  0  0
 19 30  1  0  0  0  0
 19 31  2  0  0  0  0
 20 22  1  0  0  0  0
 20 29  1  0  0  0  0
 21 23  1  0  0  0  0
 21 29  1  0  0  0  0
 22 32  1  0  0  0  0
 23 32  1  0  0  0  0
 24 25  1  0  0  0  0
 26 27  2  0  0  0  0
 27 28  1  0  0  0  0
 28 30  1  0  0  0  0
  1 34  1  0  0  0  0
  2 35  1  0  0  0  0
  3 36  1  0  0  0  0
  4 37  1  0  0  0  0
  5 38  1  0  0  0  0
  6 39  1  0  0  0  0
  7 40  1  0  0  0  0
  8 41  1  0  0  0  0
  9 42  1  0  0  0  0
 10 43  1  0  0  0  0
 11 44  1  0  0  0  0
 12 45  1  0  0  0  0
 20 46  1  0  0  0  0
 20 47  1  0  0  0  0
 21 48  1  0  0  0  0
 21 49  1  0  0  0  0
 22 50  1  0  0  0  0
 22 51  1  0  0  0  0
 23 52  1  0  0  0  0
 23 53  1  0  0  0  0
 24 54  1  0  0  0  0
 24 55  1  0  0  0  0
 25 56  1  0  0  0  0
 30 57  1  0  0  0  0
M  END
> <clash_score>
1.5816119700703457

> <docking_score>
-6.738555431365967

> <overlap_score>
0.9493311047554016

$$$$
BENZO_195_1
  -OEChem-08222022393D

 57 61  0     1  0  0  0  0  0999 V2000
    4.0980    2.1130   19.5350 C   0  0  0  0  0  0  0  0  0  0  0  0
    4.2970    1.6690   20.8430 C   0  0  0  0  0  0  0  0  0  0  0  0
    8.3510   -1.5420   24.6110 C   0  0  0  0  0  0  0  0  0  0  0  0
   10.2760   -2.3270   23.4020 C   0  0  0  0  0  0  0  0  0  0  0  0
    4.9400    1.7060   18.5060 C   0  0  0  0  0  0  0  0  0  0  0  0
    5.3360    0.8000   21.1530 C   0  0  0  0  0  0  0  0  0  0  0  0
    8.3310   -2.7170   25.3430 C   0  0  0  0  0  0  0  0  0  0  0  0
   10.2570   -3.5000   24.1350 C   0  0  0  0  0  0  0  0  0  0  0  0
   12.3139    2.2980   23.4429 C   0  0  0  0  0  0  0  0  0  0  0  0
   12.3972    0.1128   23.2127 C   0  0  0  0  0  0  0  0  0  0  0  0
    9.3300   -1.3350   23.6390 C   0  0  0  0  0  0  0  0  0  0  0  0
   11.5145    1.1392   23.4448 C   0  0  0  0  0  0  0  0  0  0  0  0
    5.9810    0.8330   18.8060 C   0  0  0  0  0  0  0  0  0  0  0  0
    6.1600    0.3870   20.1140 C   0  0  0  0  0  0  0  0  0  0  0  0
    9.2850   -3.7090   25.1090 C   0  0  0  0  0  0  0  0  0  0  0  0
    8.9510    0.1280   21.6880 C   0  0  0  0  0  0  0  0  0  0  0  0
    8.7671   -4.9535   27.2147 C   0  0  0  0  0  0  0  0  0  0  0  0
    9.3066   -6.1865   25.1649 C   0  0  0  0  0  0  0  0  0  0  0  0
    7.3847   -5.5970   27.2000 C   0  0  0  0  0  0  0  0  0  0  0  0
    7.9070   -6.7999   25.2264 C   0  0  0  0  0  0  0  0  0  0  0  0
   14.8733    0.0190   22.8400 C   0  0  0  0  0  0  0  0  0  0  0  0
   10.0220    1.0430   23.6570 C   0  0  0  0  0  0  0  0  0  0  0  0
    9.4200   -0.0840   22.9530 C   0  0  1  0  0  0  0  0  0  0  0  0
   13.6051    2.0333   23.2269 N   0  0  0  0  0  0  0  0  0  0  0  0
    6.9440    0.2550   18.0100 N   0  0  0  0  0  0  0  0  0  0  0  0
    7.6830   -0.5170   18.7600 N   0  0  0  0  0  0  0  0  0  0  0  0
   13.6239    0.6965   23.0910 N   0  0  0  0  0  0  0  0  0  0  0  0
    7.2210   -0.4620   20.0350 N   0  0  0  0  0  0  0  0  0  0  0  0
    9.2641   -4.8845   25.8388 N   0  0  0  0  0  0  0  0  0  0  0  0
    8.0810   -0.9750   21.0820 N   0  0  0  0  0  0  0  0  0  0  0  0
    9.1870    1.1500   21.0630 O   0  0  0  0  0  0  0  0  0  0  0  0
    7.4533   -6.8877   26.5818 O   0  0  0  0  0  0  0  0  0  0  0  0
    3.2714    2.7876   19.3199 H   0  0  0  0  0  0  0  0  0  0  0  0
    3.6283    2.0091   21.6296 H   0  0  0  0  0  0  0  0  0  0  0  0
    7.5957   -0.7779   24.7973 H   0  0  0  0  0  0  0  0  0  0  0  0
   11.0384   -2.1852   22.6338 H   0  0  0  0  0  0  0  0  0  0  0  0
    4.7824    2.0670   17.4883 H   0  0  0  0  0  0  0  0  0  0  0  0
    5.4937    0.4574   22.1805 H   0  0  0  0  0  0  0  0  0  0  0  0
    7.5634   -2.8637   26.1037 H   0  0  0  0  0  0  0  0  0  0  0  0
   11.0139   -4.2645   23.9419 H   0  0  0  0  0  0  0  0  0  0  0  0
   12.0117    3.3252   23.5906 H   0  0  0  0  0  0  0  0  0  0  0  0
   12.2606   -0.9567   23.1272 H   0  0  0  0  0  0  0  0  0  0  0  0
    8.7013   -3.9575   27.6574 H   0  0  0  0  0  0  0  0  0  0  0  0
    9.4480   -5.5636   27.8142 H   0  0  0  0  0  0  0  0  0  0  0  0
   10.0131   -6.8375   25.6814 H   0  0  0  0  0  0  0  0  0  0  0  0
    9.6116   -6.0794   24.1250 H   0  0  0  0  0  0  0  0  0  0  0  0
    7.0306   -5.7388   28.2232 H   0  0  0  0  0  0  0  0  0  0  0  0
    6.6546   -4.9740   26.6757 H   0  0  0  0  0  0  0  0  0  0  0  0
    7.1892   -6.2226   24.6319 H   0  0  0  0  0  0  0  0  0  0  0  0
    7.9315   -7.8151   24.8187 H   0  0  0  0  0  0  0  0  0  0  0  0
   15.0151   -0.0371   21.7575 H   0  0  0  0  0  0  0  0  0  0  0  0
   15.6904    0.5783   23.3041 H   0  0  0  0  0  0  0  0  0  0  0  0
   14.8341   -0.9840   23.2740 H   0  0  0  0  0  0  0  0  0  0  0  0
    9.8382    0.9666   24.7377 H   0  0  0  0  0  0  0  0  0  0  0  0
    9.5448    1.9843   23.3535 H   0  0  0  0  0  0  0  0  0  0  0  0
    8.1249    0.3211   23.4916 H   0  0  0  0  0  0  0  0  0  0  0  0
    8.1256   -1.8039   21.3539 H   0  0  0  0  0  0  0  0  0  0  0  0
  1  2  1  0  0  0  0
  1  5  2  0  0  0  0
  2  6  2  0  0  0  0
  3  7  2  0  0  0  0
  3 11  1  0  0  0  0
  4  8  1  0  0  0  0
  4 11  2  0  0  0  0
  5 13  1  0  0  0  0
  6 14  1  0  0  0  0
  7 15  1  0  0  0  0
  8 15  2  0  0  0  0
  9 12  1  0  0  0  0
  9 24  2  0  0  0  0
 10 12  2  0  0  0  0
 10 27  1  0  0  0  0
 11 23  1  0  0  0  0
 12 22  1  0  0  0  0
 13 14  2  0  0  0  0
 13 25  1  0  0  0  0
 14 28  1  0  0  0  0
 15 29  1  0  0  0  0
 16 23  1  0  0  0  0
 16 30  1  0  0  0  0
 16 31  2  0  0  0  0
 17 19  1  0  0  0  0
 17 29  1  0  0  0  0
 18 20  1  0  0  0  0
 18 29  1  0  0  0  0
 19 32  1  0  0  0  0
 20 32  1  0  0  0  0
 21 27  1  0  0  0  0
 22 23  1  1  0  0  0
 24 27  1  0  0  0  0
 25 26  2  0  0  0  0
 26 28  1  0  0  0  0
 28 30  1  0  0  0  0
  1 33  1  0  0  0  0
  2 34  1  0  0  0  0
  3 35  1  0  0  0  0
  4 36  1  0  0  0  0
  5 37  1  0  0  0  0
  6 38  1  0  0  0  0
  7 39  1  0  0  0  0
  8 40  1  0  0  0  0
  9 41  1  0  0  0  0
 10 42  1  0  0  0  0
 17 43  1  0  0  0  0
 17 44  1  0  0  0  0
 18 45  1  0  0  0  0
 18 46  1  0  0  0  0
 19 47  1  0  0  0  0
 19 48  1  0  0  0  0
 20 49  1  0  0  0  0
 20 50  1  0  0  0  0
 21 51  1  0  0  0  0
 21 52  1  0  0  0  0
 21 53  1  0  0  0  0
 22 54  1  0  0  0  0
 22 55  1  0  0  0  0
 23 56  1  0  0  0  0
 30 57  1  0  0  0  0
M  END
> <clash_score>
0

> <docking_score>
-9.212404251098633

> <overlap_score>
1.0279370546340942

$$$$
BENZO_194_2
  -OEChem-08222022393D

 57 61  0     1  0  0  0  0  0999 V2000
    4.0980    2.1130   19.5350 C   0  0  0  0  0  0  0  0  0  0  0  0
    4.2970    1.6690   20.8430 C   0  0  0  0  0  0  0  0  0  0  0  0
   13.7638    0.5686   24.1170 C   0  0  0  0  0  0  0  0  0  0  0  0
   12.3856    0.4811   24.3130 C   0  0  0  0  0  0  0  0  0  0  0  0
    8.3510   -1.5420   24.6110 C   0  0  0  0  0  0  0  0  0  0  0  0
   10.2760   -2.3270   23.4020 C   0  0  0  0  0  0  0  0  0  0  0  0
    4.9400    1.7060   18.5060 C   0  0  0  0  0  0  0  0  0  0  0  0
    5.3360    0.8000   21.1530 C   0  0  0  0  0  0  0  0  0  0  0  0
    8.3310   -2.7170   25.3430 C   0  0  0  0  0  0  0  0  0  0  0  0
   10.2570   -3.5000   24.1350 C   0  0  0  0  0  0  0  0  0  0  0  0
   14.2710    1.3141   23.0527 C   0  0  0  0  0  0  0  0  0  0  0  0
   12.0217    1.8847   22.3805 C   0  0  0  0  0  0  0  0  0  0  0  0
    9.3300   -1.3350   23.6390 C   0  0  0  0  0  0  0  0  0  0  0  0
   11.5145    1.1392   23.4448 C   0  0  0  0  0  0  0  0  0  0  0  0
    5.9810    0.8330   18.8060 C   0  0  0  0  0  0  0  0  0  0  0  0
    6.1600    0.3870   20.1140 C   0  0  0  0  0  0  0  0  0  0  0  0
    9.2850   -3.7090   25.1090 C   0  0  0  0  0  0  0  0  0  0  0  0
   13.3999    1.9721   22.1845 C   0  0  0  0  0  0  0  0  0  0  0  0
    8.9510    0.1280   21.6880 C   0  0  0  0  0  0  0  0  0  0  0  0
    8.7671   -4.9535   27.2147 C   0  0  0  0  0  0  0  0  0  0  0  0
    9.3066   -6.1865   25.1649 C   0  0  0  0  0  0  0  0  0  0  0  0
    7.3847   -5.5970   27.2000 C   0  0  0  0  0  0  0  0  0  0  0  0
    7.9070   -6.7999   25.2264 C   0  0  0  0  0  0  0  0  0  0  0  0
   10.0220    1.0430   23.6570 C   0  0  0  0  0  0  0  0  0  0  0  0
    9.4200   -0.0840   22.9530 C   0  0  2  0  0  0  0  0  0  0  0  0
    6.9440    0.2550   18.0100 N   0  0  0  0  0  0  0  0  0  0  0  0
    7.6830   -0.5170   18.7600 N   0  0  0  0  0  0  0  0  0  0  0  0
    7.2210   -0.4620   20.0350 N   0  0  0  0  0  0  0  0  0  0  0  0
    9.2641   -4.8845   25.8388 N   0  0  0  0  0  0  0  0  0  0  0  0
    8.0810   -0.9750   21.0820 N   0  0  0  0  0  0  0  0  0  0  0  0
    9.1870    1.1500   21.0630 O   0  0  0  0  0  0  0  0  0  0  0  0
    7.4533   -6.8877   26.5818 O   0  0  0  0  0  0  0  0  0  0  0  0
   14.0262    2.8909   20.8709 Cl  0  0  0  0  0  0  0  0  0  0  0  0
    3.2714    2.7876   19.3199 H   0  0  0  0  0  0  0  0  0  0  0  0
    3.6283    2.0091   21.6296 H   0  0  0  0  0  0  0  0  0  0  0  0
   14.4418    0.0559   24.7933 H   0  0  0  0  0  0  0  0  0  0  0  0
   11.9993   -0.1021   25.1449 H   0  0  0  0  0  0  0  0  0  0  0  0
    7.5957   -0.7779   24.7973 H   0  0  0  0  0  0  0  0  0  0  0  0
   11.0384   -2.1852   22.6338 H   0  0  0  0  0  0  0  0  0  0  0  0
    4.7824    2.0670   17.4883 H   0  0  0  0  0  0  0  0  0  0  0  0
    5.4937    0.4574   22.1805 H   0  0  0  0  0  0  0  0  0  0  0  0
    7.5634   -2.8637   26.1037 H   0  0  0  0  0  0  0  0  0  0  0  0
   11.0139   -4.2645   23.9419 H   0  0  0  0  0  0  0  0  0  0  0  0
   15.3475    1.3732   22.9119 H   0  0  0  0  0  0  0  0  0  0  0  0
   11.3384    2.3963   21.7066 H   0  0  0  0  0  0  0  0  0  0  0  0
    8.7013   -3.9575   27.6574 H   0  0  0  0  0  0  0  0  0  0  0  0
    9.4480   -5.5636   27.8142 H   0  0  0  0  0  0  0  0  0  0  0  0
   10.0131   -6.8375   25.6814 H   0  0  0  0  0  0  0  0  0  0  0  0
    9.6116   -6.0794   24.1250 H   0  0  0  0  0  0  0  0  0  0  0  0
    7.0306   -5.7388   28.2232 H   0  0  0  0  0  0  0  0  0  0  0  0
    6.6546   -4.9740   26.6757 H   0  0  0  0  0  0  0  0  0  0  0  0
    7.1892   -6.2226   24.6319 H   0  0  0  0  0  0  0  0  0  0  0  0
    7.9315   -7.8151   24.8187 H   0  0  0  0  0  0  0  0  0  0  0  0
    9.8382    0.9666   24.7377 H   0  0  0  0  0  0  0  0  0  0  0  0
    9.5448    1.9843   23.3535 H   0  0  0  0  0  0  0  0  0  0  0  0
    8.1249    0.3211   23.4916 H   0  0  0  0  0  0  0  0  0  0  0  0
    8.1256   -1.8039   21.3539 H   0  0  0  0  0  0  0  0  0  0  0  0
  1  2  1  0  0  0  0
  1  7  2  0  0  0  0
  2  8  2  0  0  0  0
  3  4  2  0  0  0  0
  3 11  1  0  0  0  0
  4 14  1  0  0  0  0
  5  9  2  0  0  0  0
  5 13  1  0  0  0  0
  6 10  1  0  0  0  0
  6 13  2  0  0  0  0
  7 15  1  0  0  0  0
  8 16  1  0  0  0  0
  9 17  1  0  0  0  0
 10 17  2  0  0  0  0
 11 18  2  0  0  0  0
 12 14  2  0  0  0  0
 12 18  1  0  0  0  0
 13 25  1  0  0  0  0
 14 24  1  0  0  0  0
 15 16  2  0  0  0  0
 15 26  1  0  0  0  0
 16 28  1  0  0  0  0
 17 29  1  0  0  0  0
 18 33  1  0  0  0  0
 19 25  1  6  0  0  0
 19 30  1  0  0  0  0
 19 31  2  0  0  0  0
 20 22  1  0  0  0  0
 20 29  1  0  0  0  0
 21 23  1  0  0  0  0
 21 29  1  0  0  0  0
 22 32  1  0  0  0  0
 23 32  1  0  0  0  0
 24 25  1  0  0  0  0
 26 27  2  0  0  0  0
 27 28  1  0  0  0  0
 28 30  1  0  0  0  0
  1 34  1  0  0  0  0
  2 35  1  0  0  0  0
  3 36  1  0  0  0  0
  4 37  1  0  0  0  0
  5 38  1  0  0  0  0
  6 39  1  0  0  0  0
  7 40  1  0  0  0  0
  8 41  1  0  0  0  0
  9 42  1  0  0  0  0
 10 43  1  0  0  0  0
 11 44  1  0  0  0  0
 12 45  1  0  0  0  0
 20 46  1  0  0  0  0
 20 47  1  0  0  0  0
 21 48  1  0  0  0  0
 21 49  1  0  0  0  0
 22 50  1  0  0  0  0
 22 51  1  0  0  0  0
 23 52  1  0  0  0  0
 23 53  1  0  0  0  0
 24 54  1  0  0  0  0
 24 55  1  0  0  0  0
 25 56  1  0  0  0  0
 30 57  1  0  0  0  0
M  END
> <clash_score>
0

> <docking_score>
-7.6848978996276855

> <overlap_score>
1.0292900800704956

$$$$
BENZO_199_1
  -OEChem-08222022393D

 53 56  0     1  0  0  0  0  0999 V2000
    4.0980    2.1130   19.5350 C   0  0  0  0  0  0  0  0  0  0  0  0
    4.2970    1.6690   20.8430 C   0  0  0  0  0  0  0  0  0  0  0  0
    8.3510   -1.5420   24.6110 C   0  0  0  0  0  0  0  0  0  0  0  0
   10.2760   -2.3270   23.4020 C   0  0  0  0  0  0  0  0  0  0  0  0
    4.9400    1.7060   18.5060 C   0  0  0  0  0  0  0  0  0  0  0  0
    5.3360    0.8000   21.1530 C   0  0  0  0  0  0  0  0  0  0  0  0
    8.3310   -2.7170   25.3430 C   0  0  0  0  0  0  0  0  0  0  0  0
   10.2570   -3.5000   24.1350 C   0  0  0  0  0  0  0  0  0  0  0  0
   12.3042    2.3166   23.4491 C   0  0  0  0  0  0  0  0  0  0  0  0
   12.4050    0.1328   23.2128 C   0  0  0  0  0  0  0  0  0  0  0  0
    7.6830   -0.5170   18.7600 C   0  0  0  0  0  0  0  0  0  0  0  0
    9.3300   -1.3350   23.6390 C   0  0  0  0  0  0  0  0  0  0  0  0
   11.5140    1.1515   23.4468 C   0  0  0  0  0  0  0  0  0  0  0  0
    5.9810    0.8330   18.8060 C   0  0  0  0  0  0  0  0  0  0  0  0
    6.1600    0.3870   20.1140 C   0  0  0  0  0  0  0  0  0  0  0  0
    9.2850   -3.7090   25.1090 C   0  0  0  0  0  0  0  0  0  0  0  0
    8.9510    0.1280   21.6880 C   0  0  0  0  0  0  0  0  0  0  0  0
   14.8822    0.0595   22.8428 C   0  0  0  0  0  0  0  0  0  0  0  0
    8.2528   -5.1193   26.8656 C   0  0  0  0  0  0  0  0  0  0  0  0
   10.2447   -5.9395   25.5976 C   0  0  0  0  0  0  0  0  0  0  0  0
   10.0220    1.0430   23.6570 C   0  0  0  0  0  0  0  0  0  0  0  0
    9.4200   -0.0840   22.9530 C   0  0  1  0  0  0  0  0  0  0  0  0
   13.5977    2.0627   23.2339 N   0  0  0  0  0  0  0  0  0  0  0  0
    6.9440    0.2550   18.0100 N   0  0  0  0  0  0  0  0  0  0  0  0
   13.6272    0.7264   23.0942 N   0  0  0  0  0  0  0  0  0  0  0  0
    7.2210   -0.4620   20.0350 N   0  0  0  0  0  0  0  0  0  0  0  0
    8.0810   -0.9750   21.0820 N   0  0  0  0  0  0  0  0  0  0  0  0
    9.2638   -4.9025   25.8500 N   0  0  0  0  0  0  0  0  0  0  0  0
    9.1870    1.1500   21.0630 O   0  0  0  0  0  0  0  0  0  0  0  0
    3.2711    2.7870   19.3201 H   0  0  0  0  0  0  0  0  0  0  0  0
    3.6262    2.0082   21.6284 H   0  0  0  0  0  0  0  0  0  0  0  0
    7.5957   -0.7779   24.7973 H   0  0  0  0  0  0  0  0  0  0  0  0
   11.0384   -2.1852   22.6338 H   0  0  0  0  0  0  0  0  0  0  0  0
    4.7816    2.0660   17.4901 H   0  0  0  0  0  0  0  0  0  0  0  0
    5.4934    0.4579   22.1787 H   0  0  0  0  0  0  0  0  0  0  0  0
    7.5634   -2.8637   26.1037 H   0  0  0  0  0  0  0  0  0  0  0  0
   11.0139   -4.2645   23.9419 H   0  0  0  0  0  0  0  0  0  0  0  0
   11.9938    3.3409   23.5993 H   0  0  0  0  0  0  0  0  0  0  0  0
   12.2768   -0.9376   23.1242 H   0  0  0  0  0  0  0  0  0  0  0  0
    8.5166   -1.1054   18.4533 H   0  0  0  0  0  0  0  0  0  0  0  0
   15.0256    0.0076   21.7603 H   0  0  0  0  0  0  0  0  0  0  0  0
   15.6943    0.6239   23.3094 H   0  0  0  0  0  0  0  0  0  0  0  0
   14.8503   -0.9450   23.2739 H   0  0  0  0  0  0  0  0  0  0  0  0
    8.4036   -6.1053   27.3293 H   0  0  0  0  0  0  0  0  0  0  0  0
    8.3319   -4.3367   27.6345 H   0  0  0  0  0  0  0  0  0  0  0  0
    7.2551   -5.0801   26.4039 H   0  0  0  0  0  0  0  0  0  0  0  0
   10.0633   -6.7887   26.2728 H   0  0  0  0  0  0  0  0  0  0  0  0
   10.1613   -6.2767   24.5539 H   0  0  0  0  0  0  0  0  0  0  0  0
   11.2542   -5.5399   25.7743 H   0  0  0  0  0  0  0  0  0  0  0  0
    9.8388    0.9439   24.7360 H   0  0  0  0  0  0  0  0  0  0  0  0
    9.5396    1.9876   23.3725 H   0  0  0  0  0  0  0  0  0  0  0  0
    8.1264    0.3141   23.4937 H   0  0  0  0  0  0  0  0  0  0  0  0
    8.1515   -1.8050   21.3815 H   0  0  0  0  0  0  0  0  0  0  0  0
  1  2  1  0  0  0  0
  1  5  2  0  0  0  0
  2  6  2  0  0  0  0
  3  7  2  0  0  0  0
  3 12  1  0  0  0  0
  4  8  1  0  0  0  0
  4 12  2  0  0  0  0
  5 14  1  0  0  0  0
  6 15  1  0  0  0  0
  7 16  1  0  0  0  0
  8 16  2  0  0  0  0
  9 13  1  0  0  0  0
  9 23  2  0  0  0  0
 10 13  2  0  0  0  0
 10 25  1  0  0  0  0
 11 24  2  0  0  0  0
 11 26  1  0  0  0  0
 12 22  1  0  0  0  0
 13 21  1  0  0  0  0
 14 15  2  0  0  0  0
 14 24  1  0  0  0  0
 15 26  1  0  0  0  0
 16 28  1  0  0  0  0
 17 22  1  0  0  0  0
 17 27  1  0  0  0  0
 17 29  2  0  0  0  0
 18 25  1  0  0  0  0
 19 28  1  0  0  0  0
 20 28  1  0  0  0  0
 21 22  1  1  0  0  0
 23 25  1  0  0  0  0
 26 27  1  0  0  0  0
  1 30  1  0  0  0  0
  2 31  1  0  0  0  0
  3 32  1  0  0  0  0
  4 33  1  0  0  0  0
  5 34  1  0  0  0  0
  6 35  1  0  0  0  0
  7 36  1  0  0  0  0
  8 37  1  0  0  0  0
  9 38  1  0  0  0  0
 10 39  1  0  0  0  0
 11 40  1  0  0  0  0
 18 41  1  0  0  0  0
 18 42  1  0  0  0  0
 18 43  1  0  0  0  0
 19 44  1  0  0  0  0
 19 45  1  0  0  0  0
 19 46  1  0  0  0  0
 20 47  1  0  0  0  0
 20 48  1  0  0  0  0
 20 49  1  0  0  0  0
 21 50  1  0  0  0  0
 21 51  1  0  0  0  0
 22 52  1  0  0  0  0
 27 53  1  0  0  0  0
M  END
> <clash_score>
0

> <docking_score>
-10.556229591369629

> <overlap_score>
1.0147875547409058

$$$$
BENZO_199_2
  -OEChem-08222022393D

 53 56  0     1  0  0  0  0  0999 V2000
    4.0980    2.1130   19.5350 C   0  0  0  0  0  0  0  0  0  0  0  0
    4.2970    1.6690   20.8430 C   0  0  0  0  0  0  0  0  0  0  0  0
    8.3510   -1.5420   24.6110 C   0  0  0  0  0  0  0  0  0  0  0  0
   10.2760   -2.3270   23.4020 C   0  0  0  0  0  0  0  0  0  0  0  0
    4.9400    1.7060   18.5060 C   0  0  0  0  0  0  0  0  0  0  0  0
    5.3360    0.8000   21.1530 C   0  0  0  0  0  0  0  0  0  0  0  0
    8.3310   -2.7170   25.3430 C   0  0  0  0  0  0  0  0  0  0  0  0
   10.2570   -3.5000   24.1350 C   0  0  0  0  0  0  0  0  0  0  0  0
   12.4581    1.4918   22.7981 C   0  0  0  0  0  0  0  0  0  0  0  0
   10.9018    2.8185   21.9903 C   0  0  0  0  0  0  0  0  0  0  0  0
    7.6830   -0.5170   18.7600 C   0  0  0  0  0  0  0  0  0  0  0  0
    9.3300   -1.3350   23.6390 C   0  0  0  0  0  0  0  0  0  0  0  0
   11.0769    1.7595   22.8472 C   0  0  0  0  0  0  0  0  0  0  0  0
    5.9810    0.8330   18.8060 C   0  0  0  0  0  0  0  0  0  0  0  0
    6.1600    0.3870   20.1140 C   0  0  0  0  0  0  0  0  0  0  0  0
    9.2850   -3.7090   25.1090 C   0  0  0  0  0  0  0  0  0  0  0  0
    8.9510    0.1280   21.6880 C   0  0  0  0  0  0  0  0  0  0  0  0
   12.4642    4.1525   20.5557 C   0  0  0  0  0  0  0  0  0  0  0  0
    8.2528   -5.1193   26.8656 C   0  0  0  0  0  0  0  0  0  0  0  0
   10.2447   -5.9395   25.5976 C   0  0  0  0  0  0  0  0  0  0  0  0
   10.0220    1.0430   23.6570 C   0  0  0  0  0  0  0  0  0  0  0  0
    9.4200   -0.0840   22.9530 C   0  0  2  0  0  0  0  0  0  0  0  0
   13.1138    2.3143   21.9750 N   0  0  0  0  0  0  0  0  0  0  0  0
    6.9440    0.2550   18.0100 N   0  0  0  0  0  0  0  0  0  0  0  0
   12.1404    3.1092   21.4989 N   0  0  0  0  0  0  0  0  0  0  0  0
    7.2210   -0.4620   20.0350 N   0  0  0  0  0  0  0  0  0  0  0  0
    8.0810   -0.9750   21.0820 N   0  0  0  0  0  0  0  0  0  0  0  0
    9.2638   -4.9025   25.8500 N   0  0  0  0  0  0  0  0  0  0  0  0
    9.1870    1.1500   21.0630 O   0  0  0  0  0  0  0  0  0  0  0  0
    3.2711    2.7870   19.3201 H   0  0  0  0  0  0  0  0  0  0  0  0
    3.6262    2.0082   21.6284 H   0  0  0  0  0  0  0  0  0  0  0  0
    7.5957   -0.7779   24.7973 H   0  0  0  0  0  0  0  0  0  0  0  0
   11.0384   -2.1852   22.6338 H   0  0  0  0  0  0  0  0  0  0  0  0
    4.7816    2.0660   17.4901 H   0  0  0  0  0  0  0  0  0  0  0  0
    5.4934    0.4579   22.1787 H   0  0  0  0  0  0  0  0  0  0  0  0
    7.5634   -2.8637   26.1037 H   0  0  0  0  0  0  0  0  0  0  0  0
   11.0139   -4.2645   23.9419 H   0  0  0  0  0  0  0  0  0  0  0  0
   13.0162    0.7316   23.3262 H   0  0  0  0  0  0  0  0  0  0  0  0
   10.0229    3.3754   21.6946 H   0  0  0  0  0  0  0  0  0  0  0  0
    8.5166   -1.1054   18.4533 H   0  0  0  0  0  0  0  0  0  0  0  0
   12.6964    5.0586   21.1216 H   0  0  0  0  0  0  0  0  0  0  0  0
   13.3249    3.8459   19.9548 H   0  0  0  0  0  0  0  0  0  0  0  0
   11.6087    4.3213   19.8958 H   0  0  0  0  0  0  0  0  0  0  0  0
    8.4036   -6.1053   27.3293 H   0  0  0  0  0  0  0  0  0  0  0  0
    8.3319   -4.3367   27.6345 H   0  0  0  0  0  0  0  0  0  0  0  0
    7.2551   -5.0801   26.4039 H   0  0  0  0  0  0  0  0  0  0  0  0
   10.0633   -6.7887   26.2728 H   0  0  0  0  0  0  0  0  0  0  0  0
   10.1613   -6.2767   24.5539 H   0  0  0  0  0  0  0  0  0  0  0  0
   11.2542   -5.5399   25.7743 H   0  0  0  0  0  0  0  0  0  0  0  0
   10.4909    0.6894   24.5858 H   0  0  0  0  0  0  0  0  0  0  0  0
    9.2554    1.7595   23.9807 H   0  0  0  0  0  0  0  0  0  0  0  0
   10.7193   -0.4348   22.4312 H   0  0  0  0  0  0  0  0  0  0  0  0
    8.1515   -1.8050   21.3815 H   0  0  0  0  0  0  0  0  0  0  0  0
  1  2  1  0  0  0  0
  1  5  2  0  0  0  0
  2  6  2  0  0  0  0
  3  7  2  0  0  0  0
  3 12  1  0  0  0  0
  4  8  1  0  0  0  0
  4 12  2  0  0  0  0
  5 14  1  0  0  0  0
  6 15  1  0  0  0  0
  7 16  1  0  0  0  0
  8 16  2  0  0  0  0
  9 13  1  0  0  0  0
  9 23  2  0  0  0  0
 10 13  2  0  0  0  0
 10 25  1  0  0  0  0
 11 24  2  0  0  0  0
 11 26  1  0  0  0  0
 12 22  1  0  0  0  0
 13 21  1  0  0  0  0
 14 15  2  0  0  0  0
 14 24  1  0  0  0  0
 15 26  1  0  0  0  0
 16 28  1  0  0  0  0
 17 22  1  0  0  0  0
 17 27  1  0  0  0  0
 17 29  2  0  0  0  0
 18 25  1  0  0  0  0
 19 28  1  0  0  0  0
 20 28  1  0  0  0  0
 21 22  1  6  0  0  0
 23 25  1  0  0  0  0
 26 27  1  0  0  0  0
  1 30  1  0  0  0  0
  2 31  1  0  0  0  0
  3 32  1  0  0  0  0
  4 33  1  0  0  0  0
  5 34  1  0  0  0  0
  6 35  1  0  0  0  0
  7 36  1  0  0  0  0
  8 37  1  0  0  0  0
  9 38  1  0  0  0  0
 10 39  1  0  0  0  0
 11 40  1  0  0  0  0
 18 41  1  0  0  0  0
 18 42  1  0  0  0  0
 18 43  1  0  0  0  0
 19 44  1  0  0  0  0
 19 45  1  0  0  0  0
 19 46  1  0  0  0  0
 20 47  1  0  0  0  0
 20 48  1  0  0  0  0
 20 49  1  0  0  0  0
 21 50  1  0  0  0  0
 21 51  1  0  0  0  0
 22 52  1  0  0  0  0
 27 53  1  0  0  0  0
M  END
> <clash_score>
0

> <docking_score>
-9.345352172851562

> <overlap_score>
0.9655594229698181

$$$$
BENZO_198_1
  -OEChem-08222022393D

 53 56  0     1  0  0  0  0  0999 V2000
    4.0980    2.1130   19.5350 C   0  0  0  0  0  0  0  0  0  0  0  0
    4.2970    1.6690   20.8430 C   0  0  0  0  0  0  0  0  0  0  0  0
   13.7669    0.5967   24.1200 C   0  0  0  0  0  0  0  0  0  0  0  0
   12.3892    0.4979   24.3142 C   0  0  0  0  0  0  0  0  0  0  0  0
    8.3510   -1.5420   24.6110 C   0  0  0  0  0  0  0  0  0  0  0  0
   10.2760   -2.3270   23.4020 C   0  0  0  0  0  0  0  0  0  0  0  0
    4.9400    1.7060   18.5060 C   0  0  0  0  0  0  0  0  0  0  0  0
    5.3360    0.8000   21.1530 C   0  0  0  0  0  0  0  0  0  0  0  0
    8.3310   -2.7170   25.3430 C   0  0  0  0  0  0  0  0  0  0  0  0
   10.2570   -3.5000   24.1350 C   0  0  0  0  0  0  0  0  0  0  0  0
   14.2694    1.3493   23.0584 C   0  0  0  0  0  0  0  0  0  0  0  0
   12.0165    1.9040   22.3852 C   0  0  0  0  0  0  0  0  0  0  0  0
    7.6830   -0.5170   18.7600 C   0  0  0  0  0  0  0  0  0  0  0  0
    9.3300   -1.3350   23.6390 C   0  0  0  0  0  0  0  0  0  0  0  0
   11.5140    1.1515   23.4468 C   0  0  0  0  0  0  0  0  0  0  0  0
    5.9810    0.8330   18.8060 C   0  0  0  0  0  0  0  0  0  0  0  0
    6.1600    0.3870   20.1140 C   0  0  0  0  0  0  0  0  0  0  0  0
    9.2850   -3.7090   25.1090 C   0  0  0  0  0  0  0  0  0  0  0  0
   13.3942    2.0028   22.1910 C   0  0  0  0  0  0  0  0  0  0  0  0
    8.9510    0.1280   21.6880 C   0  0  0  0  0  0  0  0  0  0  0  0
    8.2528   -5.1193   26.8656 C   0  0  0  0  0  0  0  0  0  0  0  0
   10.2447   -5.9395   25.5976 C   0  0  0  0  0  0  0  0  0  0  0  0
   10.0220    1.0430   23.6570 C   0  0  0  0  0  0  0  0  0  0  0  0
    9.4200   -0.0840   22.9530 C   0  0  1  0  0  0  0  0  0  0  0  0
    6.9440    0.2550   18.0100 N   0  0  0  0  0  0  0  0  0  0  0  0
    7.2210   -0.4620   20.0350 N   0  0  0  0  0  0  0  0  0  0  0  0
    8.0810   -0.9750   21.0820 N   0  0  0  0  0  0  0  0  0  0  0  0
    9.2638   -4.9025   25.8500 N   0  0  0  0  0  0  0  0  0  0  0  0
    9.1870    1.1500   21.0630 O   0  0  0  0  0  0  0  0  0  0  0  0
   14.0147    2.9302   20.8808 Cl  0  0  0  0  0  0  0  0  0  0  0  0
    3.2711    2.7870   19.3201 H   0  0  0  0  0  0  0  0  0  0  0  0
    3.6262    2.0082   21.6284 H   0  0  0  0  0  0  0  0  0  0  0  0
   14.4481    0.0875   24.7956 H   0  0  0  0  0  0  0  0  0  0  0  0
   12.0065   -0.0907   25.1439 H   0  0  0  0  0  0  0  0  0  0  0  0
    7.5957   -0.7779   24.7973 H   0  0  0  0  0  0  0  0  0  0  0  0
   11.0384   -2.1852   22.6338 H   0  0  0  0  0  0  0  0  0  0  0  0
    4.7816    2.0660   17.4901 H   0  0  0  0  0  0  0  0  0  0  0  0
    5.4934    0.4579   22.1787 H   0  0  0  0  0  0  0  0  0  0  0  0
    7.5634   -2.8637   26.1037 H   0  0  0  0  0  0  0  0  0  0  0  0
   11.0139   -4.2645   23.9419 H   0  0  0  0  0  0  0  0  0  0  0  0
   15.3456    1.4172   22.9191 H   0  0  0  0  0  0  0  0  0  0  0  0
   11.3299    2.4121   21.7119 H   0  0  0  0  0  0  0  0  0  0  0  0
    8.5166   -1.1054   18.4533 H   0  0  0  0  0  0  0  0  0  0  0  0
    8.4036   -6.1053   27.3293 H   0  0  0  0  0  0  0  0  0  0  0  0
    8.3319   -4.3367   27.6345 H   0  0  0  0  0  0  0  0  0  0  0  0
    7.2551   -5.0801   26.4039 H   0  0  0  0  0  0  0  0  0  0  0  0
   10.0633   -6.7887   26.2728 H   0  0  0  0  0  0  0  0  0  0  0  0
   10.1613   -6.2767   24.5539 H   0  0  0  0  0  0  0  0  0  0  0  0
   11.2542   -5.5399   25.7743 H   0  0  0  0  0  0  0  0  0  0  0  0
    9.8388    0.9439   24.7360 H   0  0  0  0  0  0  0  0  0  0  0  0
    9.5396    1.9876   23.3725 H   0  0  0  0  0  0  0  0  0  0  0  0
    8.1264    0.3141   23.4937 H   0  0  0  0  0  0  0  0  0  0  0  0
    8.1515   -1.8050   21.3815 H   0  0  0  0  0  0  0  0  0  0  0  0
  1  2  1  0  0  0  0
  1  7  2  0  0  0  0
  2  8  2  0  0  0  0
  3  4  2  0  0  0  0
  3 11  1  0  0  0  0
  4 15  1  0  0  0  0
  5  9  2  0  0  0  0
  5 14  1  0  0  0  0
  6 10  1  0  0  0  0
  6 14  2  0  0  0  0
  7 16  1  0  0  0  0
  8 17  1  0  0  0  0
  9 18  1  0  0  0  0
 10 18  2  0  0  0  0
 11 19  2  0  0  0  0
 12 15  2  0  0  0  0
 12 19  1  0  0  0  0
 13 25  2  0  0  0  0
 13 26  1  0  0  0  0
 14 24  1  0  0  0  0
 15 23  1  0  0  0  0
 16 17  2  0  0  0  0
 16 25  1  0  0  0  0
 17 26  1  0  0  0  0
 18 28  1  0  0  0  0
 19 30  1  0  0  0  0
 20 24  1  0  0  0  0
 20 27  1  0  0  0  0
 20 29  2  0  0  0  0
 21 28  1  0  0  0  0
 22 28  1  0  0  0  0
 23 24  1  1  0  0  0
 26 27  1  0  0  0  0
  1 31  1  0  0  0  0
  2 32  1  0  0  0  0
  3 33  1  0  0  0  0
  4 34  1  0  0  0  0
  5 35  1  0  0  0  0
  6 36  1  0  0  0  0
  7 37  1  0  0  0  0
  8 38  1  0  0  0  0
  9 39  1  0  0  0  0
 10 40  1  0  0  0  0
 11 41  1  0  0  0  0
 12 42  1  0  0  0  0
 13 43  1  0  0  0  0
 21 44  1  0  0  0  0
 21 45  1  0  0  0  0
 21 46  1  0  0  0  0
 22 47  1  0  0  0  0
 22 48  1  0  0  0  0
 22 49  1  0  0  0  0
 23 50  1  0  0  0  0
 23 51  1  0  0  0  0
 24 52  1  0  0  0  0
 27 53  1  0  0  0  0
M  END
> <clash_score>
0

> <docking_score>
-9.047077178955078

> <overlap_score>
1.0161319971084595

$$$$
BENZO_198_2
  -OEChem-08222022393D

 53 56  0     1  0  0  0  0  0999 V2000
    4.0980    2.1130   19.5350 C   0  0  0  0  0  0  0  0  0  0  0  0
    4.2970    1.6690   20.8430 C   0  0  0  0  0  0  0  0  0  0  0  0
   13.7731    0.6181   24.0892 C   0  0  0  0  0  0  0  0  0  0  0  0
   12.5319    0.9161   23.5268 C   0  0  0  0  0  0  0  0  0  0  0  0
    8.3510   -1.5420   24.6110 C   0  0  0  0  0  0  0  0  0  0  0  0
   10.2760   -2.3270   23.4020 C   0  0  0  0  0  0  0  0  0  0  0  0
    4.9400    1.7060   18.5060 C   0  0  0  0  0  0  0  0  0  0  0  0
    5.3360    0.8000   21.1530 C   0  0  0  0  0  0  0  0  0  0  0  0
    8.3310   -2.7170   25.3430 C   0  0  0  0  0  0  0  0  0  0  0  0
   10.2570   -3.5000   24.1350 C   0  0  0  0  0  0  0  0  0  0  0  0
   13.8481    0.1225   25.3909 C   0  0  0  0  0  0  0  0  0  0  0  0
   11.4407    0.2233   25.5680 C   0  0  0  0  0  0  0  0  0  0  0  0
    7.6830   -0.5170   18.7600 C   0  0  0  0  0  0  0  0  0  0  0  0
    9.3300   -1.3350   23.6390 C   0  0  0  0  0  0  0  0  0  0  0  0
   11.3657    0.7188   24.2662 C   0  0  0  0  0  0  0  0  0  0  0  0
    5.9810    0.8330   18.8060 C   0  0  0  0  0  0  0  0  0  0  0  0
    6.1600    0.3870   20.1140 C   0  0  0  0  0  0  0  0  0  0  0  0
    9.2850   -3.7090   25.1090 C   0  0  0  0  0  0  0  0  0  0  0  0
   12.6819   -0.0748   26.1303 C   0  0  0  0  0  0  0  0  0  0  0  0
    8.9510    0.1280   21.6880 C   0  0  0  0  0  0  0  0  0  0  0  0
    8.2528   -5.1193   26.8656 C   0  0  0  0  0  0  0  0  0  0  0  0
   10.2447   -5.9395   25.5976 C   0  0  0  0  0  0  0  0  0  0  0  0
   10.0220    1.0430   23.6570 C   0  0  0  0  0  0  0  0  0  0  0  0
    9.4200   -0.0840   22.9530 C   0  0  2  0  0  0  0  0  0  0  0  0
    6.9440    0.2550   18.0100 N   0  0  0  0  0  0  0  0  0  0  0  0
    7.2210   -0.4620   20.0350 N   0  0  0  0  0  0  0  0  0  0  0  0
    8.0810   -0.9750   21.0820 N   0  0  0  0  0  0  0  0  0  0  0  0
    9.2638   -4.9025   25.8500 N   0  0  0  0  0  0  0  0  0  0  0  0
    9.1870    1.1500   21.0630 O   0  0  0  0  0  0  0  0  0  0  0  0
   12.7752   -0.6851   27.7367 Cl  0  0  0  0  0  0  0  0  0  0  0  0
    3.2711    2.7870   19.3201 H   0  0  0  0  0  0  0  0  0  0  0  0
    3.6262    2.0082   21.6284 H   0  0  0  0  0  0  0  0  0  0  0  0
   14.6810    0.7720   23.5131 H   0  0  0  0  0  0  0  0  0  0  0  0
   12.4829    1.3020   22.5119 H   0  0  0  0  0  0  0  0  0  0  0  0
    7.5957   -0.7779   24.7973 H   0  0  0  0  0  0  0  0  0  0  0  0
   11.0384   -2.1852   22.6338 H   0  0  0  0  0  0  0  0  0  0  0  0
    4.7816    2.0660   17.4901 H   0  0  0  0  0  0  0  0  0  0  0  0
    5.4934    0.4579   22.1787 H   0  0  0  0  0  0  0  0  0  0  0  0
    7.5634   -2.8637   26.1037 H   0  0  0  0  0  0  0  0  0  0  0  0
   11.0139   -4.2645   23.9419 H   0  0  0  0  0  0  0  0  0  0  0  0
   14.8224   -0.1052   25.8164 H   0  0  0  0  0  0  0  0  0  0  0  0
   10.5286    0.0707   26.1402 H   0  0  0  0  0  0  0  0  0  0  0  0
    8.5166   -1.1054   18.4533 H   0  0  0  0  0  0  0  0  0  0  0  0
    8.4036   -6.1053   27.3293 H   0  0  0  0  0  0  0  0  0  0  0  0
    8.3319   -4.3367   27.6345 H   0  0  0  0  0  0  0  0  0  0  0  0
    7.2551   -5.0801   26.4039 H   0  0  0  0  0  0  0  0  0  0  0  0
   10.0633   -6.7887   26.2728 H   0  0  0  0  0  0  0  0  0  0  0  0
   10.1613   -6.2767   24.5539 H   0  0  0  0  0  0  0  0  0  0  0  0
   11.2542   -5.5399   25.7743 H   0  0  0  0  0  0  0  0  0  0  0  0
    9.3544    1.3715   24.4657 H   0  0  0  0  0  0  0  0  0  0  0  0
   10.1173    1.9145   22.9956 H   0  0  0  0  0  0  0  0  0  0  0  0
   10.7193   -0.4348   22.4312 H   0  0  0  0  0  0  0  0  0  0  0  0
    8.1515   -1.8050   21.3815 H   0  0  0  0  0  0  0  0  0  0  0  0
  1  2  1  0  0  0  0
  1  7  2  0  0  0  0
  2  8  2  0  0  0  0
  3  4  2  0  0  0  0
  3 11  1  0  0  0  0
  4 15  1  0  0  0  0
  5  9  2  0  0  0  0
  5 14  1  0  0  0  0
  6 10  1  0  0  0  0
  6 14  2  0  0  0  0
  7 16  1  0  0  0  0
  8 17  1  0  0  0  0
  9 18  1  0  0  0  0
 10 18  2  0  0  0  0
 11 19  2  0  0  0  0
 12 15  2  0  0  0  0
 12 19  1  0  0  0  0
 13 25  2  0  0  0  0
 13 26  1  0  0  0  0
 14 24  1  0  0  0  0
 15 23  1  0  0  0  0
 16 17  2  0  0  0  0
 16 25  1  0  0  0  0
 17 26  1  0  0  0  0
 18 28  1  0  0  0  0
 19 30  1  0  0  0  0
 20 24  1  0  0  0  0
 20 27  1  0  0  0  0
 20 29  2  0  0  0  0
 21 28  1  0  0  0  0
 22 28  1  0  0  0  0
 23 24  1  6  0  0  0
 26 27  1  0  0  0  0
  1 31  1  0  0  0  0
  2 32  1  0  0  0  0
  3 33  1  0  0  0  0
  4 34  1  0  0  0  0
  5 35  1  0  0  0  0
  6 36  1  0  0  0  0
  7 37  1  0  0  0  0
  8 38  1  0  0  0  0
  9 39  1  0  0  0  0
 10 40  1  0  0  0  0
 11 41  1  0  0  0  0
 12 42  1  0  0  0  0
 13 43  1  0  0  0  0
 21 44  1  0  0  0  0
 21 45  1  0  0  0  0
 21 46  1  0  0  0  0
 22 47  1  0  0  0  0
 22 48  1  0  0  0  0
 22 49  1  0  0  0  0
 23 50  1  0  0  0  0
 23 51  1  0  0  0  0
 24 52  1  0  0  0  0
 27 53  1  0  0  0  0
M  END
> <clash_score>
1.571189693698527

> <docking_score>
-8.071954727172852

> <overlap_score>
0.9351211786270142

$$$$
BENZO_201_1
  -OEChem-08222022393D

 55 58  0     1  0  0  0  0  0999 V2000
   14.2691    1.3522   23.0572 C   0  0  0  0  0  0  0  0  0  0  0  0
   13.7679    0.5995   24.1192 C   0  0  0  0  0  0  0  0  0  0  0  0
   13.3927    2.0047   22.1900 C   0  0  0  0  0  0  0  0  0  0  0  0
    4.0980    2.1130   19.5350 C   0  0  0  0  0  0  0  0  0  0  0  0
    4.2970    1.6690   20.8430 C   0  0  0  0  0  0  0  0  0  0  0  0
   12.3904    0.4991   24.3140 C   0  0  0  0  0  0  0  0  0  0  0  0
   12.0152    1.9043   22.3848 C   0  0  0  0  0  0  0  0  0  0  0  0
    8.3510   -1.5420   24.6110 C   0  0  0  0  0  0  0  0  0  0  0  0
   10.2760   -2.3270   23.4020 C   0  0  0  0  0  0  0  0  0  0  0  0
    4.9400    1.7060   18.5060 C   0  0  0  0  0  0  0  0  0  0  0  0
    5.3360    0.8000   21.1530 C   0  0  0  0  0  0  0  0  0  0  0  0
    8.3310   -2.7170   25.3430 C   0  0  0  0  0  0  0  0  0  0  0  0
   10.2570   -3.5000   24.1350 C   0  0  0  0  0  0  0  0  0  0  0  0
    7.6830   -0.5170   18.7600 C   0  0  0  0  0  0  0  0  0  0  0  0
   11.5140    1.1515   23.4468 C   0  0  0  0  0  0  0  0  0  0  0  0
    9.3300   -1.3350   23.6390 C   0  0  0  0  0  0  0  0  0  0  0  0
    5.9810    0.8330   18.8060 C   0  0  0  0  0  0  0  0  0  0  0  0
    6.1600    0.3870   20.1140 C   0  0  0  0  0  0  0  0  0  0  0  0
    9.2850   -3.7090   25.1090 C   0  0  0  0  0  0  0  0  0  0  0  0
    8.1529   -5.5454   26.3982 C   0  0  0  0  0  0  0  0  0  0  0  0
    8.9510    0.1280   21.6880 C   0  0  0  0  0  0  0  0  0  0  0  0
    9.7880   -7.4746   26.4997 C   0  0  0  0  0  0  0  0  0  0  0  0
   10.0220    1.0430   23.6570 C   0  0  0  0  0  0  0  0  0  0  0  0
    8.5713   -6.8154   27.1241 C   0  0  0  0  0  0  0  0  0  0  0  0
    9.4200   -0.0840   22.9530 C   0  0  1  0  0  0  0  0  0  0  0  0
    6.9440    0.2550   18.0100 N   0  0  0  0  0  0  0  0  0  0  0  0
    7.2210   -0.4620   20.0350 N   0  0  0  0  0  0  0  0  0  0  0  0
    9.2630   -4.8903   25.8409 N   0  0  0  0  0  0  0  0  0  0  0  0
    8.0810   -0.9750   21.0820 N   0  0  0  0  0  0  0  0  0  0  0  0
    6.9816   -5.1865   26.3378 O   0  0  0  0  0  0  0  0  0  0  0  0
    9.1870    1.1500   21.0630 O   0  0  0  0  0  0  0  0  0  0  0  0
   15.3418    1.4314   22.9065 H   0  0  0  0  0  0  0  0  0  0  0  0
   14.4502    0.0923   24.7952 H   0  0  0  0  0  0  0  0  0  0  0  0
   13.7826    2.5917   21.3638 H   0  0  0  0  0  0  0  0  0  0  0  0
    3.2711    2.7870   19.3201 H   0  0  0  0  0  0  0  0  0  0  0  0
    3.6262    2.0082   21.6284 H   0  0  0  0  0  0  0  0  0  0  0  0
   12.0089   -0.0898   25.1440 H   0  0  0  0  0  0  0  0  0  0  0  0
   11.3399    2.4159   21.7041 H   0  0  0  0  0  0  0  0  0  0  0  0
    7.5948   -0.7783   24.7966 H   0  0  0  0  0  0  0  0  0  0  0  0
   11.0389   -2.1844   22.6342 H   0  0  0  0  0  0  0  0  0  0  0  0
    4.7816    2.0660   17.4901 H   0  0  0  0  0  0  0  0  0  0  0  0
    5.4934    0.4579   22.1787 H   0  0  0  0  0  0  0  0  0  0  0  0
    7.5642   -2.8624   26.1050 H   0  0  0  0  0  0  0  0  0  0  0  0
   11.0137   -4.2649   23.9418 H   0  0  0  0  0  0  0  0  0  0  0  0
    8.5166   -1.1054   18.4533 H   0  0  0  0  0  0  0  0  0  0  0  0
    9.5993   -7.7378   25.4538 H   0  0  0  0  0  0  0  0  0  0  0  0
   10.0457   -8.3899   27.0415 H   0  0  0  0  0  0  0  0  0  0  0  0
   10.6547   -6.8058   26.5265 H   0  0  0  0  0  0  0  0  0  0  0  0
    9.8388    0.9439   24.7360 H   0  0  0  0  0  0  0  0  0  0  0  0
    9.5396    1.9876   23.3725 H   0  0  0  0  0  0  0  0  0  0  0  0
    8.7880   -6.5632   28.1686 H   0  0  0  0  0  0  0  0  0  0  0  0
    7.7289   -7.5165   27.1118 H   0  0  0  0  0  0  0  0  0  0  0  0
    8.1264    0.3141   23.4937 H   0  0  0  0  0  0  0  0  0  0  0  0
   10.1693   -5.3469   25.9962 H   0  0  0  0  0  0  0  0  0  0  0  0
    8.1515   -1.8050   21.3815 H   0  0  0  0  0  0  0  0  0  0  0  0
  1  2  1  0  0  0  0
  1  3  2  0  0  0  0
  2  6  2  0  0  0  0
  3  7  1  0  0  0  0
  4  5  1  0  0  0  0
  4 10  2  0  0  0  0
  5 11  2  0  0  0  0
  6 15  1  0  0  0  0
  7 15  2  0  0  0  0
  8 12  2  0  0  0  0
  8 16  1  0  0  0  0
  9 13  1  0  0  0  0
  9 16  2  0  0  0  0
 10 17  1  0  0  0  0
 11 18  1  0  0  0  0
 12 19  1  0  0  0  0
 13 19  2  0  0  0  0
 14 26  2  0  0  0  0
 14 27  1  0  0  0  0
 15 23  1  0  0  0  0
 16 25  1  0  0  0  0
 17 18  2  0  0  0  0
 17 26  1  0  0  0  0
 18 27  1  0  0  0  0
 19 28  1  0  0  0  0
 20 24  1  0  0  0  0
 20 28  1  0  0  0  0
 20 30  2  0  0  0  0
 21 25  1  0  0  0  0
 21 29  1  0  0  0  0
 21 31  2  0  0  0  0
 22 24  1  0  0  0  0
 23 25  1  1  0  0  0
 27 29  1  0  0  0  0
  1 32  1  0  0  0  0
  2 33  1  0  0  0  0
  3 34  1  0  0  0  0
  4 35  1  0  0  0  0
  5 36  1  0  0  0  0
  6 37  1  0  0  0  0
  7 38  1  0  0  0  0
  8 39  1  0  0  0  0
  9 40  1  0  0  0  0
 10 41  1  0  0  0  0
 11 42  1  0  0  0  0
 12 43  1  0  0  0  0
 13 44  1  0  0  0  0
 14 45  1  0  0  0  0
 22 46  1  0  0  0  0
 22 47  1  0  0  0  0
 22 48  1  0  0  0  0
 23 49  1  0  0  0  0
 23 50  1  0  0  0  0
 24 51  1  0  0  0  0
 24 52  1  0  0  0  0
 25 53  1  0  0  0  0
 28 54  1  0  0  0  0
 29 55  1  0  0  0  0
M  END
> <clash_score>
0.7461468267436712

> <docking_score>
-8.03996467590332

> <overlap_score>
1.0186971426010132

$$$$
BENZO_201_2
  -OEChem-08222022393D

 55 58  0     1  0  0  0  0  0999 V2000
   13.8479    0.1200   25.3901 C   0  0  0  0  0  0  0  0  0  0  0  0
   12.6818   -0.0763   26.1298 C   0  0  0  0  0  0  0  0  0  0  0  0
   13.7730    0.6157   24.0884 C   0  0  0  0  0  0  0  0  0  0  0  0
    4.0980    2.1130   19.5350 C   0  0  0  0  0  0  0  0  0  0  0  0
    4.2970    1.6690   20.8430 C   0  0  0  0  0  0  0  0  0  0  0  0
   11.4407    0.2231   25.5679 C   0  0  0  0  0  0  0  0  0  0  0  0
   12.5319    0.9151   23.5265 C   0  0  0  0  0  0  0  0  0  0  0  0
    8.3510   -1.5420   24.6110 C   0  0  0  0  0  0  0  0  0  0  0  0
   10.2760   -2.3270   23.4020 C   0  0  0  0  0  0  0  0  0  0  0  0
    4.9400    1.7060   18.5060 C   0  0  0  0  0  0  0  0  0  0  0  0
    5.3360    0.8000   21.1530 C   0  0  0  0  0  0  0  0  0  0  0  0
    8.3310   -2.7170   25.3430 C   0  0  0  0  0  0  0  0  0  0  0  0
   10.2570   -3.5000   24.1350 C   0  0  0  0  0  0  0  0  0  0  0  0
    7.6830   -0.5170   18.7600 C   0  0  0  0  0  0  0  0  0  0  0  0
   11.3657    0.7188   24.2662 C   0  0  0  0  0  0  0  0  0  0  0  0
    9.3300   -1.3350   23.6390 C   0  0  0  0  0  0  0  0  0  0  0  0
    5.9810    0.8330   18.8060 C   0  0  0  0  0  0  0  0  0  0  0  0
    6.1600    0.3870   20.1140 C   0  0  0  0  0  0  0  0  0  0  0  0
    9.2850   -3.7090   25.1090 C   0  0  0  0  0  0  0  0  0  0  0  0
    8.3641   -5.2686   26.8513 C   0  0  0  0  0  0  0  0  0  0  0  0
    8.9510    0.1280   21.6880 C   0  0  0  0  0  0  0  0  0  0  0  0
    7.9632   -7.7606   26.6654 C   0  0  0  0  0  0  0  0  0  0  0  0
   10.0220    1.0430   23.6570 C   0  0  0  0  0  0  0  0  0  0  0  0
    8.6975   -6.6500   27.3948 C   0  0  0  0  0  0  0  0  0  0  0  0
    9.4200   -0.0840   22.9530 C   0  0  2  0  0  0  0  0  0  0  0  0
    6.9440    0.2550   18.0100 N   0  0  0  0  0  0  0  0  0  0  0  0
    7.2210   -0.4620   20.0350 N   0  0  0  0  0  0  0  0  0  0  0  0
    9.2630   -4.8903   25.8409 N   0  0  0  0  0  0  0  0  0  0  0  0
    8.0810   -0.9750   21.0820 N   0  0  0  0  0  0  0  0  0  0  0  0
    7.4192   -4.6126   27.2772 O   0  0  0  0  0  0  0  0  0  0  0  0
    9.1870    1.1500   21.0630 O   0  0  0  0  0  0  0  0  0  0  0  0
   14.8143   -0.1119   25.8282 H   0  0  0  0  0  0  0  0  0  0  0  0
   12.7400   -0.4613   27.1437 H   0  0  0  0  0  0  0  0  0  0  0  0
   14.6807    0.7697   23.5125 H   0  0  0  0  0  0  0  0  0  0  0  0
    3.2711    2.7870   19.3201 H   0  0  0  0  0  0  0  0  0  0  0  0
    3.6262    2.0082   21.6284 H   0  0  0  0  0  0  0  0  0  0  0  0
   10.5374    0.0668   26.1517 H   0  0  0  0  0  0  0  0  0  0  0  0
   12.4832    1.3008   22.5116 H   0  0  0  0  0  0  0  0  0  0  0  0
    7.5948   -0.7783   24.7966 H   0  0  0  0  0  0  0  0  0  0  0  0
   11.0389   -2.1844   22.6342 H   0  0  0  0  0  0  0  0  0  0  0  0
    4.7816    2.0660   17.4901 H   0  0  0  0  0  0  0  0  0  0  0  0
    5.4934    0.4579   22.1787 H   0  0  0  0  0  0  0  0  0  0  0  0
    7.5642   -2.8624   26.1050 H   0  0  0  0  0  0  0  0  0  0  0  0
   11.0137   -4.2649   23.9418 H   0  0  0  0  0  0  0  0  0  0  0  0
    8.5166   -1.1054   18.4533 H   0  0  0  0  0  0  0  0  0  0  0  0
    6.8786   -7.6289   26.7381 H   0  0  0  0  0  0  0  0  0  0  0  0
    8.2191   -8.7336   27.0960 H   0  0  0  0  0  0  0  0  0  0  0  0
    8.2289   -7.7761   25.6032 H   0  0  0  0  0  0  0  0  0  0  0  0
    9.3544    1.3715   24.4657 H   0  0  0  0  0  0  0  0  0  0  0  0
   10.1173    1.9145   22.9956 H   0  0  0  0  0  0  0  0  0  0  0  0
    9.7786   -6.8068   27.3058 H   0  0  0  0  0  0  0  0  0  0  0  0
    8.4370   -6.6770   28.4592 H   0  0  0  0  0  0  0  0  0  0  0  0
   10.7193   -0.4348   22.4312 H   0  0  0  0  0  0  0  0  0  0  0  0
    9.9927   -5.5775   25.6188 H   0  0  0  0  0  0  0  0  0  0  0  0
    8.1515   -1.8050   21.3815 H   0  0  0  0  0  0  0  0  0  0  0  0
  1  2  1  0  0  0  0
  1  3  2  0  0  0  0
  2  6  2  0  0  0  0
  3  7  1  0  0  0  0
  4  5  1  0  0  0  0
  4 10  2  0  0  0  0
  5 11  2  0  0  0  0
  6 15  1  0  0  0  0
  7 15  2  0  0  0  0
  8 12  2  0  0  0  0
  8 16  1  0  0  0  0
  9 13  1  0  0  0  0
  9 16  2  0  0  0  0
 10 17  1  0  0  0  0
 11 18  1  0  0  0  0
 12 19  1  0  0  0  0
 13 19  2  0  0  0  0
 14 26  2  0  0  0  0
 14 27  1  0  0  0  0
 15 23  1  0  0  0  0
 16 25  1  0  0  0  0
 17 18  2  0  0  0  0
 17 26  1  0  0  0  0
 18 27  1  0  0  0  0
 19 28  1  0  0  0  0
 20 24  1  0  0  0  0
 20 28  1  0  0  0  0
 20 30  2  0  0  0  0
 21 25  1  0  0  0  0
 21 29  1  0  0  0  0
 21 31  2  0  0  0  0
 22 24  1  0  0  0  0
 23 25  1  6  0  0  0
 27 29  1  0  0  0  0
  1 32  1  0  0  0  0
  2 33  1  0  0  0  0
  3 34  1  0  0  0  0
  4 35  1  0  0  0  0
  5 36  1  0  0  0  0
  6 37  1  0  0  0  0
  7 38  1  0  0  0  0
  8 39  1  0  0  0  0
  9 40  1  0  0  0  0
 10 41  1  0  0  0  0
 11 42  1  0  0  0  0
 12 43  1  0  0  0  0
 13 44  1  0  0  0  0
 14 45  1  0  0  0  0
 22 46  1  0  0  0  0
 22 47  1  0  0  0  0
 22 48  1  0  0  0  0
 23 49  1  0  0  0  0
 23 50  1  0  0  0  0
 24 51  1  0  0  0  0
 24 52  1  0  0  0  0
 25 53  1  0  0  0  0
 28 54  1  0  0  0  0
 29 55  1  0  0  0  0
M  END
> <clash_score>
0.7804584097171869

> <docking_score>
-6.847316265106201

> <overlap_score>
0.9435534477233887

$$$$
BENZO_200_1
  -OEChem-08222022393D

 52 55  0     1  0  0  0  0  0999 V2000
    4.0980    2.1130   19.5350 C   0  0  0  0  0  0  0  0  0  0  0  0
    4.2970    1.6690   20.8430 C   0  0  0  0  0  0  0  0  0  0  0  0
    8.3510   -1.5420   24.6110 C   0  0  0  0  0  0  0  0  0  0  0  0
   10.2760   -2.3270   23.4020 C   0  0  0  0  0  0  0  0  0  0  0  0
    4.9400    1.7060   18.5060 C   0  0  0  0  0  0  0  0  0  0  0  0
    5.3360    0.8000   21.1530 C   0  0  0  0  0  0  0  0  0  0  0  0
    8.3310   -2.7170   25.3430 C   0  0  0  0  0  0  0  0  0  0  0  0
   10.2570   -3.5000   24.1350 C   0  0  0  0  0  0  0  0  0  0  0  0
   12.2266    2.3852   23.4320 C   0  0  0  0  0  0  0  0  0  0  0  0
   13.5754    2.2012   23.2208 C   0  0  0  0  0  0  0  0  0  0  0  0
   12.3453    0.0714   23.2461 C   0  0  0  0  0  0  0  0  0  0  0  0
    7.6830   -0.5170   18.7600 C   0  0  0  0  0  0  0  0  0  0  0  0
    9.3300   -1.3350   23.6390 C   0  0  0  0  0  0  0  0  0  0  0  0
   11.5140    1.1515   23.4468 C   0  0  0  0  0  0  0  0  0  0  0  0
    5.9810    0.8330   18.8060 C   0  0  0  0  0  0  0  0  0  0  0  0
    6.1600    0.3870   20.1140 C   0  0  0  0  0  0  0  0  0  0  0  0
    9.2850   -3.7090   25.1090 C   0  0  0  0  0  0  0  0  0  0  0  0
    8.3641   -5.2686   26.8513 C   0  0  0  0  0  0  0  0  0  0  0  0
    8.9510    0.1280   21.6880 C   0  0  0  0  0  0  0  0  0  0  0  0
    7.9632   -7.7606   26.6654 C   0  0  0  0  0  0  0  0  0  0  0  0
   10.0220    1.0430   23.6570 C   0  0  0  0  0  0  0  0  0  0  0  0
    8.6975   -6.6500   27.3948 C   0  0  0  0  0  0  0  0  0  0  0  0
    9.4200   -0.0840   22.9530 C   0  0  1  0  0  0  0  0  0  0  0  0
    6.9440    0.2550   18.0100 N   0  0  0  0  0  0  0  0  0  0  0  0
    7.2210   -0.4620   20.0350 N   0  0  0  0  0  0  0  0  0  0  0  0
    9.2630   -4.8903   25.8409 N   0  0  0  0  0  0  0  0  0  0  0  0
    8.0810   -0.9750   21.0820 N   0  0  0  0  0  0  0  0  0  0  0  0
    7.4192   -4.6126   27.2772 O   0  0  0  0  0  0  0  0  0  0  0  0
    9.1870    1.1500   21.0630 O   0  0  0  0  0  0  0  0  0  0  0  0
   13.9777    0.5464   23.0413 S   0  0  0  0  0  0  0  0  0  0  0  0
    3.2711    2.7870   19.3201 H   0  0  0  0  0  0  0  0  0  0  0  0
    3.6262    2.0082   21.6284 H   0  0  0  0  0  0  0  0  0  0  0  0
    7.5948   -0.7783   24.7966 H   0  0  0  0  0  0  0  0  0  0  0  0
   11.0389   -2.1844   22.6342 H   0  0  0  0  0  0  0  0  0  0  0  0
    4.7816    2.0660   17.4901 H   0  0  0  0  0  0  0  0  0  0  0  0
    5.4934    0.4579   22.1787 H   0  0  0  0  0  0  0  0  0  0  0  0
    7.5642   -2.8624   26.1050 H   0  0  0  0  0  0  0  0  0  0  0  0
   11.0137   -4.2649   23.9418 H   0  0  0  0  0  0  0  0  0  0  0  0
   11.7767    3.3605   23.5685 H   0  0  0  0  0  0  0  0  0  0  0  0
   14.3436    2.9592   23.1626 H   0  0  0  0  0  0  0  0  0  0  0  0
   12.0761   -0.9751   23.2080 H   0  0  0  0  0  0  0  0  0  0  0  0
    8.5166   -1.1054   18.4533 H   0  0  0  0  0  0  0  0  0  0  0  0
    6.8786   -7.6289   26.7381 H   0  0  0  0  0  0  0  0  0  0  0  0
    8.2191   -8.7336   27.0960 H   0  0  0  0  0  0  0  0  0  0  0  0
    8.2289   -7.7761   25.6032 H   0  0  0  0  0  0  0  0  0  0  0  0
    9.8388    0.9439   24.7360 H   0  0  0  0  0  0  0  0  0  0  0  0
    9.5396    1.9876   23.3725 H   0  0  0  0  0  0  0  0  0  0  0  0
    9.7786   -6.8068   27.3058 H   0  0  0  0  0  0  0  0  0  0  0  0
    8.4370   -6.6770   28.4592 H   0  0  0  0  0  0  0  0  0  0  0  0
    8.1264    0.3141   23.4937 H   0  0  0  0  0  0  0  0  0  0  0  0
    9.9927   -5.5775   25.6188 H   0  0  0  0  0  0  0  0  0  0  0  0
    8.1515   -1.8050   21.3815 H   0  0  0  0  0  0  0  0  0  0  0  0
  1  2  1  0  0  0  0
  1  5  2  0  0  0  0
  2  6  2  0  0  0  0
  3  7  2  0  0  0  0
  3 13  1  0  0  0  0
  4  8  1  0  0  0  0
  4 13  2  0  0  0  0
  5 15  1  0  0  0  0
  6 16  1  0  0  0  0
  7 17  1  0  0  0  0
  8 17  2  0  0  0  0
  9 10  2  0  0  0  0
  9 14  1  0  0  0  0
 10 30  1  0  0  0  0
 11 14  2  0  0  0  0
 11 30  1  0  0  0  0
 12 24  2  0  0  0  0
 12 25  1  0  0  0  0
 13 23  1  0  0  0  0
 14 21  1  0  0  0  0
 15 16  2  0  0  0  0
 15 24  1  0  0  0  0
 16 25  1  0  0  0  0
 17 26  1  0  0  0  0
 18 22  1  0  0  0  0
 18 26  1  0  0  0  0
 18 28  2  0  0  0  0
 19 23  1  0  0  0  0
 19 27  1  0  0  0  0
 19 29  2  0  0  0  0
 20 22  1  0  0  0  0
 21 23  1  1  0  0  0
 25 27  1  0  0  0  0
  1 31  1  0  0  0  0
  2 32  1  0  0  0  0
  3 33  1  0  0  0  0
  4 34  1  0  0  0  0
  5 35  1  0  0  0  0
  6 36  1  0  0  0  0
  7 37  1  0  0  0  0
  8 38  1  0  0  0  0
  9 39  1  0  0  0  0
 10 40  1  0  0  0  0
 11 41  1  0  0  0  0
 12 42  1  0  0  0  0
 20 43  1  0  0  0  0
 20 44  1  0  0  0  0
 20 45  1  0  0  0  0
 21 46  1  0  0  0  0
 21 47  1  0  0  0  0
 22 48  1  0  0  0  0
 22 49  1  0  0  0  0
 23 50  1  0  0  0  0
 26 51  1  0  0  0  0
 27 52  1  0  0  0  0
M  END
> <clash_score>
0.7804584097171869

> <docking_score>
-8.49421501159668

> <overlap_score>
1.0058672428131104

$$$$
BENZO_200_2
  -OEChem-08222022393D

 52 55  0     1  0  0  0  0  0999 V2000
    4.0980    2.1130   19.5350 C   0  0  0  0  0  0  0  0  0  0  0  0
    4.2970    1.6690   20.8430 C   0  0  0  0  0  0  0  0  0  0  0  0
    8.3510   -1.5420   24.6110 C   0  0  0  0  0  0  0  0  0  0  0  0
   10.2760   -2.3270   23.4020 C   0  0  0  0  0  0  0  0  0  0  0  0
    4.9400    1.7060   18.5060 C   0  0  0  0  0  0  0  0  0  0  0  0
    5.3360    0.8000   21.1530 C   0  0  0  0  0  0  0  0  0  0  0  0
    8.3310   -2.7170   25.3430 C   0  0  0  0  0  0  0  0  0  0  0  0
   10.2570   -3.5000   24.1350 C   0  0  0  0  0  0  0  0  0  0  0  0
   11.6577    0.8378   25.6558 C   0  0  0  0  0  0  0  0  0  0  0  0
   12.9563    0.4800   25.9442 C   0  0  0  0  0  0  0  0  0  0  0  0
   12.4526    0.2747   23.5454 C   0  0  0  0  0  0  0  0  0  0  0  0
    7.6830   -0.5170   18.7600 C   0  0  0  0  0  0  0  0  0  0  0  0
    9.3300   -1.3350   23.6390 C   0  0  0  0  0  0  0  0  0  0  0  0
   11.3657    0.7188   24.2662 C   0  0  0  0  0  0  0  0  0  0  0  0
    5.9810    0.8330   18.8060 C   0  0  0  0  0  0  0  0  0  0  0  0
    6.1600    0.3870   20.1140 C   0  0  0  0  0  0  0  0  0  0  0  0
    9.2850   -3.7090   25.1090 C   0  0  0  0  0  0  0  0  0  0  0  0
    8.1529   -5.5454   26.3982 C   0  0  0  0  0  0  0  0  0  0  0  0
    8.9510    0.1280   21.6880 C   0  0  0  0  0  0  0  0  0  0  0  0
    8.9289   -6.5692   28.5789 C   0  0  0  0  0  0  0  0  0  0  0  0
   10.0220    1.0430   23.6570 C   0  0  0  0  0  0  0  0  0  0  0  0
    8.5713   -6.8154   27.1241 C   0  0  0  0  0  0  0  0  0  0  0  0
    9.4200   -0.0840   22.9530 C   0  0  2  0  0  0  0  0  0  0  0  0
    6.9440    0.2550   18.0100 N   0  0  0  0  0  0  0  0  0  0  0  0
    7.2210   -0.4620   20.0350 N   0  0  0  0  0  0  0  0  0  0  0  0
    9.2630   -4.8903   25.8409 N   0  0  0  0  0  0  0  0  0  0  0  0
    8.0810   -0.9750   21.0820 N   0  0  0  0  0  0  0  0  0  0  0  0
    6.9816   -5.1865   26.3378 O   0  0  0  0  0  0  0  0  0  0  0  0
    9.1870    1.1500   21.0630 O   0  0  0  0  0  0  0  0  0  0  0  0
   13.8176    0.0030   24.5431 S   0  0  0  0  0  0  0  0  0  0  0  0
    3.2711    2.7870   19.3201 H   0  0  0  0  0  0  0  0  0  0  0  0
    3.6262    2.0082   21.6284 H   0  0  0  0  0  0  0  0  0  0  0  0
    7.5948   -0.7783   24.7966 H   0  0  0  0  0  0  0  0  0  0  0  0
   11.0389   -2.1844   22.6342 H   0  0  0  0  0  0  0  0  0  0  0  0
    4.7816    2.0660   17.4901 H   0  0  0  0  0  0  0  0  0  0  0  0
    5.4934    0.4579   22.1787 H   0  0  0  0  0  0  0  0  0  0  0  0
    7.5642   -2.8624   26.1050 H   0  0  0  0  0  0  0  0  0  0  0  0
   11.0137   -4.2649   23.9418 H   0  0  0  0  0  0  0  0  0  0  0  0
   10.9540    1.1690   26.4090 H   0  0  0  0  0  0  0  0  0  0  0  0
   13.4407    0.4764   26.9104 H   0  0  0  0  0  0  0  0  0  0  0  0
   12.5149    0.0967   22.4808 H   0  0  0  0  0  0  0  0  0  0  0  0
    8.5166   -1.1054   18.4533 H   0  0  0  0  0  0  0  0  0  0  0  0
    9.7514   -5.8516   28.6658 H   0  0  0  0  0  0  0  0  0  0  0  0
    9.2376   -7.5030   29.0588 H   0  0  0  0  0  0  0  0  0  0  0  0
    8.0732   -6.1673   29.1315 H   0  0  0  0  0  0  0  0  0  0  0  0
    9.3544    1.3715   24.4657 H   0  0  0  0  0  0  0  0  0  0  0  0
   10.1173    1.9145   22.9956 H   0  0  0  0  0  0  0  0  0  0  0  0
    7.7471   -7.5357   27.0673 H   0  0  0  0  0  0  0  0  0  0  0  0
    9.4346   -7.2452   26.6032 H   0  0  0  0  0  0  0  0  0  0  0  0
   10.7193   -0.4348   22.4312 H   0  0  0  0  0  0  0  0  0  0  0  0
   10.1693   -5.3469   25.9962 H   0  0  0  0  0  0  0  0  0  0  0  0
    8.1515   -1.8050   21.3815 H   0  0  0  0  0  0  0  0  0  0  0  0
  1  2  1  0  0  0  0
  1  5  2  0  0  0  0
  2  6  2  0  0  0  0
  3  7  2  0  0  0  0
  3 13  1  0  0  0  0
  4  8  1  0  0  0  0
  4 13  2  0  0  0  0
  5 15  1  0  0  0  0
  6 16  1  0  0  0  0
  7 17  1  0  0  0  0
  8 17  2  0  0  0  0
  9 10  2  0  0  0  0
  9 14  1  0  0  0  0
 10 30  1  0  0  0  0
 11 14  2  0  0  0  0
 11 30  1  0  0  0  0
 12 24  2  0  0  0  0
 12 25  1  0  0  0  0
 13 23  1  0  0  0  0
 14 21  1  0  0  0  0
 15 16  2  0  0  0  0
 15 24  1  0  0  0  0
 16 25  1  0  0  0  0
 17 26  1  0  0  0  0
 18 22  1  0  0  0  0
 18 26  1  0  0  0  0
 18 28  2  0  0  0  0
 19 23  1  0  0  0  0
 19 27  1  0  0  0  0
 19 29  2  0  0  0  0
 20 22  1  0  0  0  0
 21 23  1  6  0  0  0
 25 27  1  0  0  0  0
  1 31  1  0  0  0  0
  2 32  1  0  0  0  0
  3 33  1  0  0  0  0
  4 34  1  0  0  0  0
  5 35  1  0  0  0  0
  6 36  1  0  0  0  0
  7 37  1  0  0  0  0
  8 38  1  0  0  0  0
  9 39  1  0  0  0  0
 10 40  1  0  0  0  0
 11 41  1  0  0  0  0
 12 42  1  0  0  0  0
 20 43  1  0  0  0  0
 20 44  1  0  0  0  0
 20 45  1  0  0  0  0
 21 46  1  0  0  0  0
 21 47  1  0  0  0  0
 22 48  1  0  0  0  0
 22 49  1  0  0  0  0
 23 50  1  0  0  0  0
 26 51  1  0  0  0  0
 27 52  1  0  0  0  0
M  END
> <clash_score>
0.6460868287202184

> <docking_score>
-6.711838245391846

> <overlap_score>
0.9262874126434326

$$$$
BENZO_202_1
  -OEChem-08222022403D

 55 58  0     1  0  0  0  0  0999 V2000
    4.0980    2.1130   19.5350 C   0  0  0  0  0  0  0  0  0  0  0  0
    4.2970    1.6690   20.8430 C   0  0  0  0  0  0  0  0  0  0  0  0
   13.6086    2.2802   23.8655 C   0  0  0  0  0  0  0  0  0  0  0  0
   12.2308    2.1801   24.0582 C   0  0  0  0  0  0  0  0  0  0  0  0
    8.3510   -1.5420   24.6110 C   0  0  0  0  0  0  0  0  0  0  0  0
   10.2760   -2.3270   23.4020 C   0  0  0  0  0  0  0  0  0  0  0  0
    4.9400    1.7060   18.5060 C   0  0  0  0  0  0  0  0  0  0  0  0
    5.3360    0.8000   21.1530 C   0  0  0  0  0  0  0  0  0  0  0  0
    8.3310   -2.7170   25.3430 C   0  0  0  0  0  0  0  0  0  0  0  0
   10.2570   -3.5000   24.1350 C   0  0  0  0  0  0  0  0  0  0  0  0
   14.2696    1.3518   23.0612 C   0  0  0  0  0  0  0  0  0  0  0  0
   12.1750    0.2230   22.6425 C   0  0  0  0  0  0  0  0  0  0  0  0
    7.6830   -0.5170   18.7600 C   0  0  0  0  0  0  0  0  0  0  0  0
    9.3300   -1.3350   23.6390 C   0  0  0  0  0  0  0  0  0  0  0  0
   11.5140    1.1515   23.4468 C   0  0  0  0  0  0  0  0  0  0  0  0
    5.9810    0.8330   18.8060 C   0  0  0  0  0  0  0  0  0  0  0  0
    6.1600    0.3870   20.1140 C   0  0  0  0  0  0  0  0  0  0  0  0
    9.2850   -3.7090   25.1090 C   0  0  0  0  0  0  0  0  0  0  0  0
   13.5528    0.3232   22.4498 C   0  0  0  0  0  0  0  0  0  0  0  0
    8.3641   -5.2686   26.8513 C   0  0  0  0  0  0  0  0  0  0  0  0
    8.9510    0.1280   21.6880 C   0  0  0  0  0  0  0  0  0  0  0  0
    7.9632   -7.7606   26.6654 C   0  0  0  0  0  0  0  0  0  0  0  0
   10.0220    1.0430   23.6570 C   0  0  0  0  0  0  0  0  0  0  0  0
    8.6975   -6.6500   27.3948 C   0  0  0  0  0  0  0  0  0  0  0  0
    9.4200   -0.0840   22.9530 C   0  0  1  0  0  0  0  0  0  0  0  0
    6.9440    0.2550   18.0100 N   0  0  0  0  0  0  0  0  0  0  0  0
    7.2210   -0.4620   20.0350 N   0  0  0  0  0  0  0  0  0  0  0  0
    9.2630   -4.8903   25.8409 N   0  0  0  0  0  0  0  0  0  0  0  0
    8.0810   -0.9750   21.0820 N   0  0  0  0  0  0  0  0  0  0  0  0
    7.4192   -4.6126   27.2772 O   0  0  0  0  0  0  0  0  0  0  0  0
    9.1870    1.1500   21.0630 O   0  0  0  0  0  0  0  0  0  0  0  0
   14.3691   -0.8226   21.4585 Cl  0  0  0  0  0  0  0  0  0  0  0  0
    3.2711    2.7870   19.3201 H   0  0  0  0  0  0  0  0  0  0  0  0
    3.6262    2.0082   21.6284 H   0  0  0  0  0  0  0  0  0  0  0  0
   14.1665    3.0812   24.3419 H   0  0  0  0  0  0  0  0  0  0  0  0
   11.7240    2.9078   24.6866 H   0  0  0  0  0  0  0  0  0  0  0  0
    7.5948   -0.7783   24.7966 H   0  0  0  0  0  0  0  0  0  0  0  0
   11.0389   -2.1844   22.6342 H   0  0  0  0  0  0  0  0  0  0  0  0
    4.7816    2.0660   17.4901 H   0  0  0  0  0  0  0  0  0  0  0  0
    5.4934    0.4579   22.1787 H   0  0  0  0  0  0  0  0  0  0  0  0
    7.5642   -2.8624   26.1050 H   0  0  0  0  0  0  0  0  0  0  0  0
   11.0137   -4.2649   23.9418 H   0  0  0  0  0  0  0  0  0  0  0  0
   15.3439    1.4419   22.9201 H   0  0  0  0  0  0  0  0  0  0  0  0
   11.6115   -0.5768   22.1676 H   0  0  0  0  0  0  0  0  0  0  0  0
    8.5166   -1.1054   18.4533 H   0  0  0  0  0  0  0  0  0  0  0  0
    6.8786   -7.6289   26.7381 H   0  0  0  0  0  0  0  0  0  0  0  0
    8.2191   -8.7336   27.0960 H   0  0  0  0  0  0  0  0  0  0  0  0
    8.2289   -7.7761   25.6032 H   0  0  0  0  0  0  0  0  0  0  0  0
    9.8388    0.9439   24.7360 H   0  0  0  0  0  0  0  0  0  0  0  0
    9.5396    1.9876   23.3725 H   0  0  0  0  0  0  0  0  0  0  0  0
    9.7786   -6.8068   27.3058 H   0  0  0  0  0  0  0  0  0  0  0  0
    8.4370   -6.6770   28.4592 H   0  0  0  0  0  0  0  0  0  0  0  0
    8.1264    0.3141   23.4937 H   0  0  0  0  0  0  0  0  0  0  0  0
    9.9927   -5.5775   25.6188 H   0  0  0  0  0  0  0  0  0  0  0  0
    8.1515   -1.8050   21.3815 H   0  0  0  0  0  0  0  0  0  0  0  0
  1  2  1  0  0  0  0
  1  7  2  0  0  0  0
  2  8  2  0  0  0  0
  3  4  2  0  0  0  0
  3 11  1  0  0  0  0
  4 15  1  0  0  0  0
  5  9  2  0  0  0  0
  5 14  1  0  0  0  0
  6 10  1  0  0  0  0
  6 14  2  0  0  0  0
  7 16  1  0  0  0  0
  8 17  1  0  0  0  0
  9 18  1  0  0  0  0
 10 18  2  0  0  0  0
 11 19  2  0  0  0  0
 12 15  2  0  0  0  0
 12 19  1  0  0  0  0
 13 26  2  0  0  0  0
 13 27  1  0  0  0  0
 14 25  1  0  0  0  0
 15 23  1  0  0  0  0
 16 17  2  0  0  0  0
 16 26  1  0  0  0  0
 17 27  1  0  0  0  0
 18 28  1  0  0  0  0
 19 32  1  0  0  0  0
 20 24  1  0  0  0  0
 20 28  1  0  0  0  0
 20 30  2  0  0  0  0
 21 25  1  0  0  0  0
 21 29  1  0  0  0  0
 21 31  2  0  0  0  0
 22 24  1  0  0  0  0
 23 25  1  1  0  0  0
 27 29  1  0  0  0  0
  1 33  1  0  0  0  0
  2 34  1  0  0  0  0
  3 35  1  0  0  0  0
  4 36  1  0  0  0  0
  5 37  1  0  0  0  0
  6 38  1  0  0  0  0
  7 39  1  0  0  0  0
  8 40  1  0  0  0  0
  9 41  1  0  0  0  0
 10 42  1  0  0  0  0
 11 43  1  0  0  0  0
 12 44  1  0  0  0  0
 13 45  1  0  0  0  0
 22 46  1  0  0  0  0
 22 47  1  0  0  0  0
 22 48  1  0  0  0  0
 23 49  1  0  0  0  0
 23 50  1  0  0  0  0
 24 51  1  0  0  0  0
 24 52  1  0  0  0  0
 25 53  1  0  0  0  0
 28 54  1  0  0  0  0
 29 55  1  0  0  0  0
M  END
> <clash_score>
0.7804584097171869

> <docking_score>
-7.347911357879639

> <overlap_score>
1.005083441734314

$$$$
BENZO_204_1
  -OEChem-08222022403D

 57 61  0     1  0  0  0  0  0999 V2000
    4.0980    2.1130   19.5350 C   0  0  0  0  0  0  0  0  0  0  0  0
    4.2970    1.6690   20.8430 C   0  0  0  0  0  0  0  0  0  0  0  0
    8.3510   -1.5420   24.6110 C   0  0  0  0  0  0  0  0  0  0  0  0
   10.2760   -2.3270   23.4020 C   0  0  0  0  0  0  0  0  0  0  0  0
    4.9400    1.7060   18.5060 C   0  0  0  0  0  0  0  0  0  0  0  0
    5.3360    0.8000   21.1530 C   0  0  0  0  0  0  0  0  0  0  0  0
    8.3310   -2.7170   25.3430 C   0  0  0  0  0  0  0  0  0  0  0  0
   10.2570   -3.5000   24.1350 C   0  0  0  0  0  0  0  0  0  0  0  0
   11.6703    0.8403   25.6456 C   0  0  0  0  0  0  0  0  0  0  0  0
   12.9666    0.4699   25.9283 C   0  0  0  0  0  0  0  0  0  0  0  0
   12.4421    0.2438   23.5359 C   0  0  0  0  0  0  0  0  0  0  0  0
    7.6830   -0.5170   18.7600 C   0  0  0  0  0  0  0  0  0  0  0  0
    9.3300   -1.3350   23.6390 C   0  0  0  0  0  0  0  0  0  0  0  0
   11.3663    0.7092   24.2598 C   0  0  0  0  0  0  0  0  0  0  0  0
    5.9810    0.8330   18.8060 C   0  0  0  0  0  0  0  0  0  0  0  0
    6.1600    0.3870   20.1140 C   0  0  0  0  0  0  0  0  0  0  0  0
    9.2850   -3.7090   25.1090 C   0  0  0  0  0  0  0  0  0  0  0  0
    8.9510    0.1280   21.6880 C   0  0  0  0  0  0  0  0  0  0  0  0
    8.7571   -5.6467   28.5622 C   0  0  0  0  0  0  0  0  0  0  0  0
   10.0822   -5.0066   28.1420 C   0  0  0  0  0  0  0  0  0  0  0  0
    7.6235   -5.2642   27.6079 C   0  0  0  0  0  0  0  0  0  0  0  0
   10.3922   -5.3064   26.6756 C   0  0  0  0  0  0  0  0  0  0  0  0
    7.9947   -5.5535   26.1502 C   0  0  0  0  0  0  0  0  0  0  0  0
   10.0220    1.0430   23.6570 C   0  0  0  0  0  0  0  0  0  0  0  0
    9.4200   -0.0840   22.9530 C   0  0  1  0  0  0  0  0  0  0  0  0
    6.9440    0.2550   18.0100 N   0  0  0  0  0  0  0  0  0  0  0  0
    7.2210   -0.4620   20.0350 N   0  0  0  0  0  0  0  0  0  0  0  0
    9.2641   -4.8861   25.8398 N   0  0  0  0  0  0  0  0  0  0  0  0
    8.0810   -0.9750   21.0820 N   0  0  0  0  0  0  0  0  0  0  0  0
    9.1870    1.1500   21.0630 O   0  0  0  0  0  0  0  0  0  0  0  0
   13.8113   -0.0334   24.5263 S   0  0  0  0  0  0  0  0  0  0  0  0
    3.2711    2.7870   19.3201 H   0  0  0  0  0  0  0  0  0  0  0  0
    3.6263    2.0082   21.6285 H   0  0  0  0  0  0  0  0  0  0  0  0
    7.5957   -0.7779   24.7973 H   0  0  0  0  0  0  0  0  0  0  0  0
   11.0384   -2.1852   22.6338 H   0  0  0  0  0  0  0  0  0  0  0  0
    4.7816    2.0660   17.4901 H   0  0  0  0  0  0  0  0  0  0  0  0
    5.4934    0.4579   22.1787 H   0  0  0  0  0  0  0  0  0  0  0  0
    7.5634   -2.8637   26.1037 H   0  0  0  0  0  0  0  0  0  0  0  0
   11.0139   -4.2645   23.9419 H   0  0  0  0  0  0  0  0  0  0  0  0
   10.9765    1.1887   26.4003 H   0  0  0  0  0  0  0  0  0  0  0  0
   13.4583    0.4713   26.8908 H   0  0  0  0  0  0  0  0  0  0  0  0
   12.4941    0.0529   22.4729 H   0  0  0  0  0  0  0  0  0  0  0  0
    8.5166   -1.1054   18.4533 H   0  0  0  0  0  0  0  0  0  0  0  0
    8.8672   -6.7417   28.5857 H   0  0  0  0  0  0  0  0  0  0  0  0
    8.5022   -5.3339   29.5851 H   0  0  0  0  0  0  0  0  0  0  0  0
   10.0306   -3.9249   28.2929 H   0  0  0  0  0  0  0  0  0  0  0  0
   10.8879   -5.3863   28.7737 H   0  0  0  0  0  0  0  0  0  0  0  0
    6.7187   -5.8212   27.8726 H   0  0  0  0  0  0  0  0  0  0  0  0
    7.3894   -4.1994   27.7222 H   0  0  0  0  0  0  0  0  0  0  0  0
   11.3009   -4.7698   26.3909 H   0  0  0  0  0  0  0  0  0  0  0  0
   10.5729   -6.3773   26.5464 H   0  0  0  0  0  0  0  0  0  0  0  0
    8.0895   -6.6294   25.9985 H   0  0  0  0  0  0  0  0  0  0  0  0
    7.1981   -5.1804   25.5058 H   0  0  0  0  0  0  0  0  0  0  0  0
    9.3646    1.3888   24.4669 H   0  0  0  0  0  0  0  0  0  0  0  0
   10.1228    1.9057   22.9851 H   0  0  0  0  0  0  0  0  0  0  0  0
   10.7230   -0.4323   22.4284 H   0  0  0  0  0  0  0  0  0  0  0  0
    8.1256   -1.8039   21.3539 H   0  0  0  0  0  0  0  0  0  0  0  0
  1  2  1  0  0  0  0
  1  5  2  0  0  0  0
  2  6  2  0  0  0  0
  3  7  2  0  0  0  0
  3 13  1  0  0  0  0
  4  8  1  0  0  0  0
  4 13  2  0  0  0  0
  5 15  1  0  0  0  0
  6 16  1  0  0  0  0
  7 17  1  0  0  0  0
  8 17  2  0  0  0  0
  9 10  2  0  0  0  0
  9 14  1  0  0  0  0
 10 31  1  0  0  0  0
 11 14  2  0  0  0  0
 11 31  1  0  0  0  0
 12 26  2  0  0  0  0
 12 27  1  0  0  0  0
 13 25  1  0  0  0  0
 14 24  1  0  0  0  0
 15 16  2  0  0  0  0
 15 26  1  0  0  0  0
 16 27  1  0  0  0  0
 17 28  1  0  0  0  0
 18 25  1  1  0  0  0
 18 29  1  0  0  0  0
 18 30  2  0  0  0  0
 19 20  1  0  0  0  0
 19 21  1  0  0  0  0
 20 22  1  0  0  0  0
 21 23  1  0  0  0  0
 22 28  1  0  0  0  0
 23 28  1  0  0  0  0
 24 25  1  0  0  0  0
 27 29  1  0  0  0  0
  1 32  1  0  0  0  0
  2 33  1  0  0  0  0
  3 34  1  0  0  0  0
  4 35  1  0  0  0  0
  5 36  1  0  0  0  0
  6 37  1  0  0  0  0
  7 38  1  0  0  0  0
  8 39  1  0  0  0  0
  9 40  1  0  0  0  0
 10 41  1  0  0  0  0
 11 42  1  0  0  0  0
 12 43  1  0  0  0  0
 19 44  1  0  0  0  0
 19 45  1  0  0  0  0
 20 46  1  0  0  0  0
 20 47  1  0  0  0  0
 21 48  1  0  0  0  0
 21 49  1  0  0  0  0
 22 50  1  0  0  0  0
 22 51  1  0  0  0  0
 23 52  1  0  0  0  0
 23 53  1  0  0  0  0
 24 54  1  0  0  0  0
 24 55  1  0  0  0  0
 25 56  1  0  0  0  0
 29 57  1  0  0  0  0
M  END
> <clash_score>
2.5944047574612092

> <docking_score>
-6.6906256675720215

> <overlap_score>
0.9309826493263245

$$$$
BENZO_203_2
  -OEChem-08222022403D

 55 58  0     1  0  0  0  0  0999 V2000
    4.0980    2.1130   19.5350 C   0  0  0  0  0  0  0  0  0  0  0  0
    4.2970    1.6690   20.8430 C   0  0  0  0  0  0  0  0  0  0  0  0
    8.3510   -1.5420   24.6110 C   0  0  0  0  0  0  0  0  0  0  0  0
   10.2760   -2.3270   23.4020 C   0  0  0  0  0  0  0  0  0  0  0  0
    4.9400    1.7060   18.5060 C   0  0  0  0  0  0  0  0  0  0  0  0
    5.3360    0.8000   21.1530 C   0  0  0  0  0  0  0  0  0  0  0  0
    8.3310   -2.7170   25.3430 C   0  0  0  0  0  0  0  0  0  0  0  0
   10.2570   -3.5000   24.1350 C   0  0  0  0  0  0  0  0  0  0  0  0
   12.4581    1.4918   22.7981 C   0  0  0  0  0  0  0  0  0  0  0  0
   10.9018    2.8185   21.9903 C   0  0  0  0  0  0  0  0  0  0  0  0
    7.6830   -0.5170   18.7600 C   0  0  0  0  0  0  0  0  0  0  0  0
    9.3300   -1.3350   23.6390 C   0  0  0  0  0  0  0  0  0  0  0  0
   11.0769    1.7595   22.8472 C   0  0  0  0  0  0  0  0  0  0  0  0
    5.9810    0.8330   18.8060 C   0  0  0  0  0  0  0  0  0  0  0  0
    6.1600    0.3870   20.1140 C   0  0  0  0  0  0  0  0  0  0  0  0
    9.2850   -3.7090   25.1090 C   0  0  0  0  0  0  0  0  0  0  0  0
    8.3641   -5.2686   26.8513 C   0  0  0  0  0  0  0  0  0  0  0  0
    8.9510    0.1280   21.6880 C   0  0  0  0  0  0  0  0  0  0  0  0
    7.7670   -7.0804   28.5146 C   0  0  0  0  0  0  0  0  0  0  0  0
   12.4642    4.1525   20.5557 C   0  0  0  0  0  0  0  0  0  0  0  0
   10.0220    1.0430   23.6570 C   0  0  0  0  0  0  0  0  0  0  0  0
    8.6975   -6.6500   27.3948 C   0  0  0  0  0  0  0  0  0  0  0  0
    9.4200   -0.0840   22.9530 C   0  0  2  0  0  0  0  0  0  0  0  0
   13.1138    2.3143   21.9750 N   0  0  0  0  0  0  0  0  0  0  0  0
    6.9440    0.2550   18.0100 N   0  0  0  0  0  0  0  0  0  0  0  0
   12.1404    3.1092   21.4989 N   0  0  0  0  0  0  0  0  0  0  0  0
    7.2210   -0.4620   20.0350 N   0  0  0  0  0  0  0  0  0  0  0  0
    9.2630   -4.8903   25.8409 N   0  0  0  0  0  0  0  0  0  0  0  0
    8.0810   -0.9750   21.0820 N   0  0  0  0  0  0  0  0  0  0  0  0
    7.4192   -4.6126   27.2772 O   0  0  0  0  0  0  0  0  0  0  0  0
    9.1870    1.1500   21.0630 O   0  0  0  0  0  0  0  0  0  0  0  0
    3.2711    2.7870   19.3201 H   0  0  0  0  0  0  0  0  0  0  0  0
    3.6262    2.0082   21.6284 H   0  0  0  0  0  0  0  0  0  0  0  0
    7.5948   -0.7783   24.7966 H   0  0  0  0  0  0  0  0  0  0  0  0
   11.0389   -2.1844   22.6342 H   0  0  0  0  0  0  0  0  0  0  0  0
    4.7816    2.0660   17.4901 H   0  0  0  0  0  0  0  0  0  0  0  0
    5.4934    0.4579   22.1787 H   0  0  0  0  0  0  0  0  0  0  0  0
    7.5642   -2.8624   26.1050 H   0  0  0  0  0  0  0  0  0  0  0  0
   11.0137   -4.2649   23.9418 H   0  0  0  0  0  0  0  0  0  0  0  0
   13.0162    0.7316   23.3262 H   0  0  0  0  0  0  0  0  0  0  0  0
   10.0229    3.3754   21.6946 H   0  0  0  0  0  0  0  0  0  0  0  0
    8.5166   -1.1054   18.4533 H   0  0  0  0  0  0  0  0  0  0  0  0
    7.8076   -6.3763   29.3521 H   0  0  0  0  0  0  0  0  0  0  0  0
    8.0501   -8.0702   28.8860 H   0  0  0  0  0  0  0  0  0  0  0  0
    6.7298   -7.1292   28.1670 H   0  0  0  0  0  0  0  0  0  0  0  0
   12.6964    5.0586   21.1216 H   0  0  0  0  0  0  0  0  0  0  0  0
   13.3249    3.8459   19.9548 H   0  0  0  0  0  0  0  0  0  0  0  0
   11.6087    4.3213   19.8958 H   0  0  0  0  0  0  0  0  0  0  0  0
   10.4909    0.6894   24.5858 H   0  0  0  0  0  0  0  0  0  0  0  0
    9.2554    1.7595   23.9807 H   0  0  0  0  0  0  0  0  0  0  0  0
    8.6367   -7.3712   26.5717 H   0  0  0  0  0  0  0  0  0  0  0  0
    9.7304   -6.6393   27.7615 H   0  0  0  0  0  0  0  0  0  0  0  0
   10.7193   -0.4348   22.4312 H   0  0  0  0  0  0  0  0  0  0  0  0
    9.9927   -5.5775   25.6188 H   0  0  0  0  0  0  0  0  0  0  0  0
    8.1515   -1.8050   21.3815 H   0  0  0  0  0  0  0  0  0  0  0  0
  1  2  1  0  0  0  0
  1  5  2  0  0  0  0
  2  6  2  0  0  0  0
  3  7  2  0  0  0  0
  3 12  1  0  0  0  0
  4  8  1  0  0  0  0
  4 12  2  0  0  0  0
  5 14  1  0  0  0  0
  6 15  1  0  0  0  0
  7 16  1  0  0  0  0
  8 16  2  0  0  0  0
  9 13  1  0  0  0  0
  9 24  2  0  0  0  0
 10 13  2  0  0  0  0
 10 26  1  0  0  0  0
 11 25  2  0  0  0  0
 11 27  1  0  0  0  0
 12 23  1  0  0  0  0
 13 21  1  0  0  0  0
 14 15  2  0  0  0  0
 14 25  1  0  0  0  0
 15 27  1  0  0  0  0
 16 28  1  0  0  0  0
 17 22  1  0  0  0  0
 17 28  1  0  0  0  0
 17 30  2  0  0  0  0
 18 23  1  0  0  0  0
 18 29  1  0  0  0  0
 18 31  2  0  0  0  0
 19 22  1  0  0  0  0
 20 26  1  0  0  0  0
 21 23  1  6  0  0  0
 24 26  1  0  0  0  0
 27 29  1  0  0  0  0
  1 32  1  0  0  0  0
  2 33  1  0  0  0  0
  3 34  1  0  0  0  0
  4 35  1  0  0  0  0
  5 36  1  0  0  0  0
  6 37  1  0  0  0  0
  7 38  1  0  0  0  0
  8 39  1  0  0  0  0
  9 40  1  0  0  0  0
 10 41  1  0  0  0  0
 11 42  1  0  0  0  0
 19 43  1  0  0  0  0
 19 44  1  0  0  0  0
 19 45  1  0  0  0  0
 20 46  1  0  0  0  0
 20 47  1  0  0  0  0
 20 48  1  0  0  0  0
 21 49  1  0  0  0  0
 21 50  1  0  0  0  0
 22 51  1  0  0  0  0
 22 52  1  0  0  0  0
 23 53  1  0  0  0  0
 28 54  1  0  0  0  0
 29 55  1  0  0  0  0
M  END
> <clash_score>
0

> <docking_score>
-7.1733551025390625

> <overlap_score>
0.9720695614814758

$$$$
BENZO_205_2
  -OEChem-08222022403D

 60 64  0     1  0  0  0  0  0999 V2000
   14.2707    1.3171   23.0515 C   0  0  0  0  0  0  0  0  0  0  0  0
   13.7649    0.5713   24.1162 C   0  0  0  0  0  0  0  0  0  0  0  0
   13.3985    1.9740   22.1835 C   0  0  0  0  0  0  0  0  0  0  0  0
    4.0980    2.1130   19.5350 C   0  0  0  0  0  0  0  0  0  0  0  0
    4.2970    1.6690   20.8430 C   0  0  0  0  0  0  0  0  0  0  0  0
   12.3868    0.4823   24.3128 C   0  0  0  0  0  0  0  0  0  0  0  0
   12.0204    1.8850   22.3801 C   0  0  0  0  0  0  0  0  0  0  0  0
    8.3510   -1.5420   24.6110 C   0  0  0  0  0  0  0  0  0  0  0  0
   10.2760   -2.3270   23.4020 C   0  0  0  0  0  0  0  0  0  0  0  0
    4.9400    1.7060   18.5060 C   0  0  0  0  0  0  0  0  0  0  0  0
    5.3360    0.8000   21.1530 C   0  0  0  0  0  0  0  0  0  0  0  0
    8.3310   -2.7170   25.3430 C   0  0  0  0  0  0  0  0  0  0  0  0
   10.2570   -3.5000   24.1350 C   0  0  0  0  0  0  0  0  0  0  0  0
    7.6830   -0.5170   18.7600 C   0  0  0  0  0  0  0  0  0  0  0  0
   11.5145    1.1392   23.4448 C   0  0  0  0  0  0  0  0  0  0  0  0
    9.3300   -1.3350   23.6390 C   0  0  0  0  0  0  0  0  0  0  0  0
    5.9810    0.8330   18.8060 C   0  0  0  0  0  0  0  0  0  0  0  0
    6.1600    0.3870   20.1140 C   0  0  0  0  0  0  0  0  0  0  0  0
    9.2850   -3.7090   25.1090 C   0  0  0  0  0  0  0  0  0  0  0  0
    8.9510    0.1280   21.6880 C   0  0  0  0  0  0  0  0  0  0  0  0
    7.3211   -6.8875   26.5227 C   0  0  0  0  0  0  0  0  0  0  0  0
    7.3523   -5.5278   27.2244 C   0  0  0  0  0  0  0  0  0  0  0  0
    7.9422   -6.8107   25.1261 C   0  0  0  0  0  0  0  0  0  0  0  0
    8.7641   -4.9418   27.2163 C   0  0  0  0  0  0  0  0  0  0  0  0
    9.3411   -6.1879   25.1670 C   0  0  0  0  0  0  0  0  0  0  0  0
   10.0220    1.0430   23.6570 C   0  0  0  0  0  0  0  0  0  0  0  0
    9.4200   -0.0840   22.9530 C   0  0  2  0  0  0  0  0  0  0  0  0
    6.9440    0.2550   18.0100 N   0  0  0  0  0  0  0  0  0  0  0  0
    7.2210   -0.4620   20.0350 N   0  0  0  0  0  0  0  0  0  0  0  0
    9.2641   -4.8861   25.8398 N   0  0  0  0  0  0  0  0  0  0  0  0
    8.0810   -0.9750   21.0820 N   0  0  0  0  0  0  0  0  0  0  0  0
    9.1870    1.1500   21.0630 O   0  0  0  0  0  0  0  0  0  0  0  0
   15.3438    1.3874   22.8994 H   0  0  0  0  0  0  0  0  0  0  0  0
   14.4439    0.0607   24.7928 H   0  0  0  0  0  0  0  0  0  0  0  0
   13.7920    2.5556   21.3551 H   0  0  0  0  0  0  0  0  0  0  0  0
    3.2711    2.7870   19.3201 H   0  0  0  0  0  0  0  0  0  0  0  0
    3.6263    2.0082   21.6284 H   0  0  0  0  0  0  0  0  0  0  0  0
   12.0016   -0.1012   25.1449 H   0  0  0  0  0  0  0  0  0  0  0  0
   11.3484    2.4000   21.6987 H   0  0  0  0  0  0  0  0  0  0  0  0
    7.5957   -0.7779   24.7973 H   0  0  0  0  0  0  0  0  0  0  0  0
   11.0384   -2.1852   22.6338 H   0  0  0  0  0  0  0  0  0  0  0  0
    4.7816    2.0660   17.4901 H   0  0  0  0  0  0  0  0  0  0  0  0
    5.4934    0.4579   22.1787 H   0  0  0  0  0  0  0  0  0  0  0  0
    7.5634   -2.8637   26.1037 H   0  0  0  0  0  0  0  0  0  0  0  0
   11.0139   -4.2645   23.9419 H   0  0  0  0  0  0  0  0  0  0  0  0
    8.5166   -1.1054   18.4533 H   0  0  0  0  0  0  0  0  0  0  0  0
    7.8644   -7.6283   27.1289 H   0  0  0  0  0  0  0  0  0  0  0  0
    6.2830   -7.2423   26.4478 H   0  0  0  0  0  0  0  0  0  0  0  0
    6.6663   -4.8405   26.7221 H   0  0  0  0  0  0  0  0  0  0  0  0
    7.0062   -5.6400   28.2540 H   0  0  0  0  0  0  0  0  0  0  0  0
    8.0018   -7.8160   24.6962 H   0  0  0  0  0  0  0  0  0  0  0  0
    7.2963   -6.2182   24.4678 H   0  0  0  0  0  0  0  0  0  0  0  0
    8.7322   -3.9404   27.6532 H   0  0  0  0  0  0  0  0  0  0  0  0
    9.4260   -5.5610   27.8283 H   0  0  0  0  0  0  0  0  0  0  0  0
   10.0249   -6.8474   25.7028 H   0  0  0  0  0  0  0  0  0  0  0  0
    9.7015   -6.0700   24.1446 H   0  0  0  0  0  0  0  0  0  0  0  0
    9.8382    0.9666   24.7377 H   0  0  0  0  0  0  0  0  0  0  0  0
    9.5448    1.9843   23.3535 H   0  0  0  0  0  0  0  0  0  0  0  0
    8.1249    0.3211   23.4916 H   0  0  0  0  0  0  0  0  0  0  0  0
    8.1256   -1.8039   21.3539 H   0  0  0  0  0  0  0  0  0  0  0  0
  1  2  1  0  0  0  0
  1  3  2  0  0  0  0
  2  6  2  0  0  0  0
  3  7  1  0  0  0  0
  4  5  1  0  0  0  0
  4 10  2  0  0  0  0
  5 11  2  0  0  0  0
  6 15  1  0  0  0  0
  7 15  2  0  0  0  0
  8 12  2  0  0  0  0
  8 16  1  0  0  0  0
  9 13  1  0  0  0  0
  9 16  2  0  0  0  0
 10 17  1  0  0  0  0
 11 18  1  0  0  0  0
 12 19  1  0  0  0  0
 13 19  2  0  0  0  0
 14 28  2  0  0  0  0
 14 29  1  0  0  0  0
 15 26  1  0  0  0  0
 16 27  1  0  0  0  0
 17 18  2  0  0  0  0
 17 28  1  0  0  0  0
 18 29  1  0  0  0  0
 19 30  1  0  0  0  0
 20 27  1  6  0  0  0
 20 31  1  0  0  0  0
 20 32  2  0  0  0  0
 21 22  1  0  0  0  0
 21 23  1  0  0  0  0
 22 24  1  0  0  0  0
 23 25  1  0  0  0  0
 24 30  1  0  0  0  0
 25 30  1  0  0  0  0
 26 27  1  0  0  0  0
 29 31  1  0  0  0  0
  1 33  1  0  0  0  0
  2 34  1  0  0  0  0
  3 35  1  0  0  0  0
  4 36  1  0  0  0  0
  5 37  1  0  0  0  0
  6 38  1  0  0  0  0
  7 39  1  0  0  0  0
  8 40  1  0  0  0  0
  9 41  1  0  0  0  0
 10 42  1  0  0  0  0
 11 43  1  0  0  0  0
 12 44  1  0  0  0  0
 13 45  1  0  0  0  0
 14 46  1  0  0  0  0
 21 47  1  0  0  0  0
 21 48  1  0  0  0  0
 22 49  1  0  0  0  0
 22 50  1  0  0  0  0
 23 51  1  0  0  0  0
 23 52  1  0  0  0  0
 24 53  1  0  0  0  0
 24 54  1  0  0  0  0
 25 55  1  0  0  0  0
 25 56  1  0  0  0  0
 26 57  1  0  0  0  0
 26 58  1  0  0  0  0
 27 59  1  0  0  0  0
 31 60  1  0  0  0  0
M  END
> <clash_score>
0

> <docking_score>
-8.618404388427734

> <overlap_score>
1.0250860452651978

$$$$
BENZO_202_2
  -OEChem-08222022403D

 55 58  0     1  0  0  0  0  0999 V2000
    4.0980    2.1130   19.5350 C   0  0  0  0  0  0  0  0  0  0  0  0
    4.2970    1.6690   20.8430 C   0  0  0  0  0  0  0  0  0  0  0  0
   13.7731    0.6181   24.0892 C   0  0  0  0  0  0  0  0  0  0  0  0
   12.5319    0.9161   23.5268 C   0  0  0  0  0  0  0  0  0  0  0  0
    8.3510   -1.5420   24.6110 C   0  0  0  0  0  0  0  0  0  0  0  0
   10.2760   -2.3270   23.4020 C   0  0  0  0  0  0  0  0  0  0  0  0
    4.9400    1.7060   18.5060 C   0  0  0  0  0  0  0  0  0  0  0  0
    5.3360    0.8000   21.1530 C   0  0  0  0  0  0  0  0  0  0  0  0
    8.3310   -2.7170   25.3430 C   0  0  0  0  0  0  0  0  0  0  0  0
   10.2570   -3.5000   24.1350 C   0  0  0  0  0  0  0  0  0  0  0  0
   13.8481    0.1225   25.3909 C   0  0  0  0  0  0  0  0  0  0  0  0
   11.4407    0.2233   25.5680 C   0  0  0  0  0  0  0  0  0  0  0  0
    7.6830   -0.5170   18.7600 C   0  0  0  0  0  0  0  0  0  0  0  0
    9.3300   -1.3350   23.6390 C   0  0  0  0  0  0  0  0  0  0  0  0
   11.3657    0.7188   24.2662 C   0  0  0  0  0  0  0  0  0  0  0  0
    5.9810    0.8330   18.8060 C   0  0  0  0  0  0  0  0  0  0  0  0
    6.1600    0.3870   20.1140 C   0  0  0  0  0  0  0  0  0  0  0  0
    9.2850   -3.7090   25.1090 C   0  0  0  0  0  0  0  0  0  0  0  0
   12.6819   -0.0748   26.1303 C   0  0  0  0  0  0  0  0  0  0  0  0
    8.3641   -5.2686   26.8513 C   0  0  0  0  0  0  0  0  0  0  0  0
    8.9510    0.1280   21.6880 C   0  0  0  0  0  0  0  0  0  0  0  0
    7.9632   -7.7606   26.6654 C   0  0  0  0  0  0  0  0  0  0  0  0
   10.0220    1.0430   23.6570 C   0  0  0  0  0  0  0  0  0  0  0  0
    8.6975   -6.6500   27.3948 C   0  0  0  0  0  0  0  0  0  0  0  0
    9.4200   -0.0840   22.9530 C   0  0  2  0  0  0  0  0  0  0  0  0
    6.9440    0.2550   18.0100 N   0  0  0  0  0  0  0  0  0  0  0  0
    7.2210   -0.4620   20.0350 N   0  0  0  0  0  0  0  0  0  0  0  0
    9.2630   -4.8903   25.8409 N   0  0  0  0  0  0  0  0  0  0  0  0
    8.0810   -0.9750   21.0820 N   0  0  0  0  0  0  0  0  0  0  0  0
    7.4192   -4.6126   27.2772 O   0  0  0  0  0  0  0  0  0  0  0  0
    9.1870    1.1500   21.0630 O   0  0  0  0  0  0  0  0  0  0  0  0
   12.7752   -0.6851   27.7367 Cl  0  0  0  0  0  0  0  0  0  0  0  0
    3.2711    2.7870   19.3201 H   0  0  0  0  0  0  0  0  0  0  0  0
    3.6262    2.0082   21.6284 H   0  0  0  0  0  0  0  0  0  0  0  0
   14.6810    0.7720   23.5131 H   0  0  0  0  0  0  0  0  0  0  0  0
   12.4829    1.3020   22.5119 H   0  0  0  0  0  0  0  0  0  0  0  0
    7.5948   -0.7783   24.7966 H   0  0  0  0  0  0  0  0  0  0  0  0
   11.0389   -2.1844   22.6342 H   0  0  0  0  0  0  0  0  0  0  0  0
    4.7816    2.0660   17.4901 H   0  0  0  0  0  0  0  0  0  0  0  0
    5.4934    0.4579   22.1787 H   0  0  0  0  0  0  0  0  0  0  0  0
    7.5642   -2.8624   26.1050 H   0  0  0  0  0  0  0  0  0  0  0  0
   11.0137   -4.2649   23.9418 H   0  0  0  0  0  0  0  0  0  0  0  0
   14.8224   -0.1052   25.8164 H   0  0  0  0  0  0  0  0  0  0  0  0
   10.5286    0.0707   26.1402 H   0  0  0  0  0  0  0  0  0  0  0  0
    8.5166   -1.1054   18.4533 H   0  0  0  0  0  0  0  0  0  0  0  0
    6.8786   -7.6289   26.7381 H   0  0  0  0  0  0  0  0  0  0  0  0
    8.2191   -8.7336   27.0960 H   0  0  0  0  0  0  0  0  0  0  0  0
    8.2289   -7.7761   25.6032 H   0  0  0  0  0  0  0  0  0  0  0  0
    9.3544    1.3715   24.4657 H   0  0  0  0  0  0  0  0  0  0  0  0
   10.1173    1.9145   22.9956 H   0  0  0  0  0  0  0  0  0  0  0  0
    9.7786   -6.8068   27.3058 H   0  0  0  0  0  0  0  0  0  0  0  0
    8.4370   -6.6770   28.4592 H   0  0  0  0  0  0  0  0  0  0  0  0
   10.7193   -0.4348   22.4312 H   0  0  0  0  0  0  0  0  0  0  0  0
    9.9927   -5.5775   25.6188 H   0  0  0  0  0  0  0  0  0  0  0  0
    8.1515   -1.8050   21.3815 H   0  0  0  0  0  0  0  0  0  0  0  0
  1  2  1  0  0  0  0
  1  7  2  0  0  0  0
  2  8  2  0  0  0  0
  3  4  2  0  0  0  0
  3 11  1  0  0  0  0
  4 15  1  0  0  0  0
  5  9  2  0  0  0  0
  5 14  1  0  0  0  0
  6 10  1  0  0  0  0
  6 14  2  0  0  0  0
  7 16  1  0  0  0  0
  8 17  1  0  0  0  0
  9 18  1  0  0  0  0
 10 18  2  0  0  0  0
 11 19  2  0  0  0  0
 12 15  2  0  0  0  0
 12 19  1  0  0  0  0
 13 26  2  0  0  0  0
 13 27  1  0  0  0  0
 14 25  1  0  0  0  0
 15 23  1  0  0  0  0
 16 17  2  0  0  0  0
 16 26  1  0  0  0  0
 17 27  1  0  0  0  0
 18 28  1  0  0  0  0
 19 32  1  0  0  0  0
 20 24  1  0  0  0  0
 20 28  1  0  0  0  0
 20 30  2  0  0  0  0
 21 25  1  0  0  0  0
 21 29  1  0  0  0  0
 21 31  2  0  0  0  0
 22 24  1  0  0  0  0
 23 25  1  6  0  0  0
 27 29  1  0  0  0  0
  1 33  1  0  0  0  0
  2 34  1  0  0  0  0
  3 35  1  0  0  0  0
  4 36  1  0  0  0  0
  5 37  1  0  0  0  0
  6 38  1  0  0  0  0
  7 39  1  0  0  0  0
  8 40  1  0  0  0  0
  9 41  1  0  0  0  0
 10 42  1  0  0  0  0
 11 43  1  0  0  0  0
 12 44  1  0  0  0  0
 13 45  1  0  0  0  0
 22 46  1  0  0  0  0
 22 47  1  0  0  0  0
 22 48  1  0  0  0  0
 23 49  1  0  0  0  0
 23 50  1  0  0  0  0
 24 51  1  0  0  0  0
 24 52  1  0  0  0  0
 25 53  1  0  0  0  0
 28 54  1  0  0  0  0
 29 55  1  0  0  0  0
M  END
> <clash_score>
2.351648103415714

> <docking_score>
-5.903801918029785

> <overlap_score>
0.9422154426574707

$$$$
BENZO_205_1
  -OEChem-08222022403D

 60 64  0     1  0  0  0  0  0999 V2000
   13.8495    0.0928   25.3716 C   0  0  0  0  0  0  0  0  0  0  0  0
   12.6852   -0.1006   26.1150 C   0  0  0  0  0  0  0  0  0  0  0  0
   13.7723    0.5944   24.0724 C   0  0  0  0  0  0  0  0  0  0  0  0
    4.0980    2.1130   19.5350 C   0  0  0  0  0  0  0  0  0  0  0  0
    4.2970    1.6690   20.8430 C   0  0  0  0  0  0  0  0  0  0  0  0
   11.4436    0.2076   25.5591 C   0  0  0  0  0  0  0  0  0  0  0  0
   12.5307    0.9026   23.5164 C   0  0  0  0  0  0  0  0  0  0  0  0
    8.3510   -1.5420   24.6110 C   0  0  0  0  0  0  0  0  0  0  0  0
   10.2760   -2.3270   23.4020 C   0  0  0  0  0  0  0  0  0  0  0  0
    4.9400    1.7060   18.5060 C   0  0  0  0  0  0  0  0  0  0  0  0
    5.3360    0.8000   21.1530 C   0  0  0  0  0  0  0  0  0  0  0  0
    8.3310   -2.7170   25.3430 C   0  0  0  0  0  0  0  0  0  0  0  0
   10.2570   -3.5000   24.1350 C   0  0  0  0  0  0  0  0  0  0  0  0
    7.6830   -0.5170   18.7600 C   0  0  0  0  0  0  0  0  0  0  0  0
   11.3663    0.7092   24.2598 C   0  0  0  0  0  0  0  0  0  0  0  0
    9.3300   -1.3350   23.6390 C   0  0  0  0  0  0  0  0  0  0  0  0
    5.9810    0.8330   18.8060 C   0  0  0  0  0  0  0  0  0  0  0  0
    6.1600    0.3870   20.1140 C   0  0  0  0  0  0  0  0  0  0  0  0
    9.2850   -3.7090   25.1090 C   0  0  0  0  0  0  0  0  0  0  0  0
    8.9510    0.1280   21.6880 C   0  0  0  0  0  0  0  0  0  0  0  0
    7.3211   -6.8875   26.5227 C   0  0  0  0  0  0  0  0  0  0  0  0
    7.3523   -5.5278   27.2244 C   0  0  0  0  0  0  0  0  0  0  0  0
    7.9422   -6.8107   25.1261 C   0  0  0  0  0  0  0  0  0  0  0  0
    8.7641   -4.9418   27.2163 C   0  0  0  0  0  0  0  0  0  0  0  0
    9.3411   -6.1879   25.1670 C   0  0  0  0  0  0  0  0  0  0  0  0
   10.0220    1.0430   23.6570 C   0  0  0  0  0  0  0  0  0  0  0  0
    9.4200   -0.0840   22.9530 C   0  0  1  0  0  0  0  0  0  0  0  0
    6.9440    0.2550   18.0100 N   0  0  0  0  0  0  0  0  0  0  0  0
    7.2210   -0.4620   20.0350 N   0  0  0  0  0  0  0  0  0  0  0  0
    9.2641   -4.8861   25.8398 N   0  0  0  0  0  0  0  0  0  0  0  0
    8.0810   -0.9750   21.0820 N   0  0  0  0  0  0  0  0  0  0  0  0
    9.1870    1.1500   21.0630 O   0  0  0  0  0  0  0  0  0  0  0  0
   14.8163   -0.1460   25.8052 H   0  0  0  0  0  0  0  0  0  0  0  0
   12.7453   -0.4901   27.1271 H   0  0  0  0  0  0  0  0  0  0  0  0
   14.6787    0.7461   23.4937 H   0  0  0  0  0  0  0  0  0  0  0  0
    3.2711    2.7870   19.3201 H   0  0  0  0  0  0  0  0  0  0  0  0
    3.6263    2.0082   21.6285 H   0  0  0  0  0  0  0  0  0  0  0  0
   10.5417    0.0536   26.1456 H   0  0  0  0  0  0  0  0  0  0  0  0
   12.4801    1.2928   22.5034 H   0  0  0  0  0  0  0  0  0  0  0  0
    7.5957   -0.7779   24.7973 H   0  0  0  0  0  0  0  0  0  0  0  0
   11.0384   -2.1852   22.6338 H   0  0  0  0  0  0  0  0  0  0  0  0
    4.7816    2.0660   17.4901 H   0  0  0  0  0  0  0  0  0  0  0  0
    5.4934    0.4579   22.1787 H   0  0  0  0  0  0  0  0  0  0  0  0
    7.5634   -2.8637   26.1037 H   0  0  0  0  0  0  0  0  0  0  0  0
   11.0139   -4.2645   23.9419 H   0  0  0  0  0  0  0  0  0  0  0  0
    8.5166   -1.1054   18.4533 H   0  0  0  0  0  0  0  0  0  0  0  0
    7.8644   -7.6283   27.1289 H   0  0  0  0  0  0  0  0  0  0  0  0
    6.2830   -7.2423   26.4478 H   0  0  0  0  0  0  0  0  0  0  0  0
    6.6663   -4.8405   26.7221 H   0  0  0  0  0  0  0  0  0  0  0  0
    7.0062   -5.6400   28.2540 H   0  0  0  0  0  0  0  0  0  0  0  0
    8.0018   -7.8160   24.6962 H   0  0  0  0  0  0  0  0  0  0  0  0
    7.2963   -6.2182   24.4678 H   0  0  0  0  0  0  0  0  0  0  0  0
    8.7322   -3.9404   27.6532 H   0  0  0  0  0  0  0  0  0  0  0  0
    9.4260   -5.5610   27.8283 H   0  0  0  0  0  0  0  0  0  0  0  0
   10.0249   -6.8474   25.7028 H   0  0  0  0  0  0  0  0  0  0  0  0
    9.7015   -6.0700   24.1446 H   0  0  0  0  0  0  0  0  0  0  0  0
    9.3646    1.3888   24.4669 H   0  0  0  0  0  0  0  0  0  0  0  0
   10.1229    1.9057   22.9851 H   0  0  0  0  0  0  0  0  0  0  0  0
   10.7230   -0.4323   22.4284 H   0  0  0  0  0  0  0  0  0  0  0  0
    8.1256   -1.8039   21.3539 H   0  0  0  0  0  0  0  0  0  0  0  0
  1  2  1  0  0  0  0
  1  3  2  0  0  0  0
  2  6  2  0  0  0  0
  3  7  1  0  0  0  0
  4  5  1  0  0  0  0
  4 10  2  0  0  0  0
  5 11  2  0  0  0  0
  6 15  1  0  0  0  0
  7 15  2  0  0  0  0
  8 12  2  0  0  0  0
  8 16  1  0  0  0  0
  9 13  1  0  0  0  0
  9 16  2  0  0  0  0
 10 17  1  0  0  0  0
 11 18  1  0  0  0  0
 12 19  1  0  0  0  0
 13 19  2  0  0  0  0
 14 28  2  0  0  0  0
 14 29  1  0  0  0  0
 15 26  1  0  0  0  0
 16 27  1  0  0  0  0
 17 18  2  0  0  0  0
 17 28  1  0  0  0  0
 18 29  1  0  0  0  0
 19 30  1  0  0  0  0
 20 27  1  1  0  0  0
 20 31  1  0  0  0  0
 20 32  2  0  0  0  0
 21 22  1  0  0  0  0
 21 23  1  0  0  0  0
 22 24  1  0  0  0  0
 23 25  1  0  0  0  0
 24 30  1  0  0  0  0
 25 30  1  0  0  0  0
 26 27  1  0  0  0  0
 29 31  1  0  0  0  0
  1 33  1  0  0  0  0
  2 34  1  0  0  0  0
  3 35  1  0  0  0  0
  4 36  1  0  0  0  0
  5 37  1  0  0  0  0
  6 38  1  0  0  0  0
  7 39  1  0  0  0  0
  8 40  1  0  0  0  0
  9 41  1  0  0  0  0
 10 42  1  0  0  0  0
 11 43  1  0  0  0  0
 12 44  1  0  0  0  0
 13 45  1  0  0  0  0
 14 46  1  0  0  0  0
 21 47  1  0  0  0  0
 21 48  1  0  0  0  0
 22 49  1  0  0  0  0
 22 50  1  0  0  0  0
 23 51  1  0  0  0  0
 23 52  1  0  0  0  0
 24 53  1  0  0  0  0
 24 54  1  0  0  0  0
 25 55  1  0  0  0  0
 25 56  1  0  0  0  0
 26 57  1  0  0  0  0
 26 58  1  0  0  0  0
 27 59  1  0  0  0  0
 31 60  1  0  0  0  0
M  END
> <clash_score>
0

> <docking_score>
-7.733157634735107

> <overlap_score>
0.9497318267822266

$$$$
BENZO_204_2
  -OEChem-08222022403D

 57 61  0     1  0  0  0  0  0999 V2000
    4.0980    2.1130   19.5350 C   0  0  0  0  0  0  0  0  0  0  0  0
    4.2970    1.6690   20.8430 C   0  0  0  0  0  0  0  0  0  0  0  0
    8.3510   -1.5420   24.6110 C   0  0  0  0  0  0  0  0  0  0  0  0
   10.2760   -2.3270   23.4020 C   0  0  0  0  0  0  0  0  0  0  0  0
    4.9400    1.7060   18.5060 C   0  0  0  0  0  0  0  0  0  0  0  0
    5.3360    0.8000   21.1530 C   0  0  0  0  0  0  0  0  0  0  0  0
    8.3310   -2.7170   25.3430 C   0  0  0  0  0  0  0  0  0  0  0  0
   10.2570   -3.5000   24.1350 C   0  0  0  0  0  0  0  0  0  0  0  0
   12.2339    2.3684   23.4053 C   0  0  0  0  0  0  0  0  0  0  0  0
   13.5816    2.1729   23.1980 C   0  0  0  0  0  0  0  0  0  0  0  0
   12.3400    0.0508   23.2659 C   0  0  0  0  0  0  0  0  0  0  0  0
    7.6830   -0.5170   18.7600 C   0  0  0  0  0  0  0  0  0  0  0  0
    9.3300   -1.3350   23.6390 C   0  0  0  0  0  0  0  0  0  0  0  0
   11.5145    1.1392   23.4448 C   0  0  0  0  0  0  0  0  0  0  0  0
    5.9810    0.8330   18.8060 C   0  0  0  0  0  0  0  0  0  0  0  0
    6.1600    0.3870   20.1140 C   0  0  0  0  0  0  0  0  0  0  0  0
    9.2850   -3.7090   25.1090 C   0  0  0  0  0  0  0  0  0  0  0  0
    8.9510    0.1280   21.6880 C   0  0  0  0  0  0  0  0  0  0  0  0
    7.3211   -6.8875   26.5227 C   0  0  0  0  0  0  0  0  0  0  0  0
    7.3523   -5.5278   27.2244 C   0  0  0  0  0  0  0  0  0  0  0  0
    7.9422   -6.8107   25.1261 C   0  0  0  0  0  0  0  0  0  0  0  0
    8.7641   -4.9418   27.2163 C   0  0  0  0  0  0  0  0  0  0  0  0
    9.3411   -6.1879   25.1670 C   0  0  0  0  0  0  0  0  0  0  0  0
   10.0220    1.0430   23.6570 C   0  0  0  0  0  0  0  0  0  0  0  0
    9.4200   -0.0840   22.9530 C   0  0  2  0  0  0  0  0  0  0  0  0
    6.9440    0.2550   18.0100 N   0  0  0  0  0  0  0  0  0  0  0  0
    7.2210   -0.4620   20.0350 N   0  0  0  0  0  0  0  0  0  0  0  0
    9.2641   -4.8861   25.8398 N   0  0  0  0  0  0  0  0  0  0  0  0
    8.0810   -0.9750   21.0820 N   0  0  0  0  0  0  0  0  0  0  0  0
    9.1870    1.1500   21.0630 O   0  0  0  0  0  0  0  0  0  0  0  0
   13.9749    0.5127   23.0518 S   0  0  0  0  0  0  0  0  0  0  0  0
    3.2711    2.7870   19.3201 H   0  0  0  0  0  0  0  0  0  0  0  0
    3.6263    2.0082   21.6284 H   0  0  0  0  0  0  0  0  0  0  0  0
    7.5957   -0.7779   24.7973 H   0  0  0  0  0  0  0  0  0  0  0  0
   11.0384   -2.1852   22.6338 H   0  0  0  0  0  0  0  0  0  0  0  0
    4.7816    2.0660   17.4901 H   0  0  0  0  0  0  0  0  0  0  0  0
    5.4934    0.4579   22.1787 H   0  0  0  0  0  0  0  0  0  0  0  0
    7.5634   -2.8637   26.1037 H   0  0  0  0  0  0  0  0  0  0  0  0
   11.0139   -4.2645   23.9419 H   0  0  0  0  0  0  0  0  0  0  0  0
   11.7893    3.3487   23.5221 H   0  0  0  0  0  0  0  0  0  0  0  0
   14.3540    2.9254   23.1246 H   0  0  0  0  0  0  0  0  0  0  0  0
   12.0651   -0.9948   23.2488 H   0  0  0  0  0  0  0  0  0  0  0  0
    8.5166   -1.1054   18.4533 H   0  0  0  0  0  0  0  0  0  0  0  0
    7.8644   -7.6283   27.1289 H   0  0  0  0  0  0  0  0  0  0  0  0
    6.2830   -7.2423   26.4478 H   0  0  0  0  0  0  0  0  0  0  0  0
    6.6663   -4.8405   26.7221 H   0  0  0  0  0  0  0  0  0  0  0  0
    7.0062   -5.6400   28.2540 H   0  0  0  0  0  0  0  0  0  0  0  0
    8.0018   -7.8160   24.6962 H   0  0  0  0  0  0  0  0  0  0  0  0
    7.2963   -6.2182   24.4678 H   0  0  0  0  0  0  0  0  0  0  0  0
    8.7322   -3.9404   27.6532 H   0  0  0  0  0  0  0  0  0  0  0  0
    9.4260   -5.5610   27.8283 H   0  0  0  0  0  0  0  0  0  0  0  0
   10.0249   -6.8474   25.7028 H   0  0  0  0  0  0  0  0  0  0  0  0
    9.7015   -6.0700   24.1446 H   0  0  0  0  0  0  0  0  0  0  0  0
    9.8382    0.9666   24.7377 H   0  0  0  0  0  0  0  0  0  0  0  0
    9.5448    1.9843   23.3535 H   0  0  0  0  0  0  0  0  0  0  0  0
    8.1249    0.3211   23.4916 H   0  0  0  0  0  0  0  0  0  0  0  0
    8.1256   -1.8039   21.3539 H   0  0  0  0  0  0  0  0  0  0  0  0
  1  2  1  0  0  0  0
  1  5  2  0  0  0  0
  2  6  2  0  0  0  0
  3  7  2  0  0  0  0
  3 13  1  0  0  0  0
  4  8  1  0  0  0  0
  4 13  2  0  0  0  0
  5 15  1  0  0  0  0
  6 16  1  0  0  0  0
  7 17  1  0  0  0  0
  8 17  2  0  0  0  0
  9 10  2  0  0  0  0
  9 14  1  0  0  0  0
 10 31  1  0  0  0  0
 11 14  2  0  0  0  0
 11 31  1  0  0  0  0
 12 26  2  0  0  0  0
 12 27  1  0  0  0  0
 13 25  1  0  0  0  0
 14 24  1  0  0  0  0
 15 16  2  0  0  0  0
 15 26  1  0  0  0  0
 16 27  1  0  0  0  0
 17 28  1  0  0  0  0
 18 25  1  6  0  0  0
 18 29  1  0  0  0  0
 18 30  2  0  0  0  0
 19 20  1  0  0  0  0
 19 21  1  0  0  0  0
 20 22  1  0  0  0  0
 21 23  1  0  0  0  0
 22 28  1  0  0  0  0
 23 28  1  0  0  0  0
 24 25  1  0  0  0  0
 27 29  1  0  0  0  0
  1 32  1  0  0  0  0
  2 33  1  0  0  0  0
  3 34  1  0  0  0  0
  4 35  1  0  0  0  0
  5 36  1  0  0  0  0
  6 37  1  0  0  0  0
  7 38  1  0  0  0  0
  8 39  1  0  0  0  0
  9 40  1  0  0  0  0
 10 41  1  0  0  0  0
 11 42  1  0  0  0  0
 12 43  1  0  0  0  0
 19 44  1  0  0  0  0
 19 45  1  0  0  0  0
 20 46  1  0  0  0  0
 20 47  1  0  0  0  0
 21 48  1  0  0  0  0
 21 49  1  0  0  0  0
 22 50  1  0  0  0  0
 22 51  1  0  0  0  0
 23 52  1  0  0  0  0
 23 53  1  0  0  0  0
 24 54  1  0  0  0  0
 24 55  1  0  0  0  0
 25 56  1  0  0  0  0
 29 57  1  0  0  0  0
M  END
> <clash_score>
0

> <docking_score>
-9.382820129394531

> <overlap_score>
1.0119398832321167

$$$$
BENZO_203_1
  -OEChem-08222022403D

 55 58  0     1  0  0  0  0  0999 V2000
    4.0980    2.1130   19.5350 C   0  0  0  0  0  0  0  0  0  0  0  0
    4.2970    1.6690   20.8430 C   0  0  0  0  0  0  0  0  0  0  0  0
    8.3510   -1.5420   24.6110 C   0  0  0  0  0  0  0  0  0  0  0  0
   10.2760   -2.3270   23.4020 C   0  0  0  0  0  0  0  0  0  0  0  0
    4.9400    1.7060   18.5060 C   0  0  0  0  0  0  0  0  0  0  0  0
    5.3360    0.8000   21.1530 C   0  0  0  0  0  0  0  0  0  0  0  0
    8.3310   -2.7170   25.3430 C   0  0  0  0  0  0  0  0  0  0  0  0
   10.2570   -3.5000   24.1350 C   0  0  0  0  0  0  0  0  0  0  0  0
   12.3042    2.3166   23.4491 C   0  0  0  0  0  0  0  0  0  0  0  0
   12.4050    0.1328   23.2128 C   0  0  0  0  0  0  0  0  0  0  0  0
    7.6830   -0.5170   18.7600 C   0  0  0  0  0  0  0  0  0  0  0  0
    9.3300   -1.3350   23.6390 C   0  0  0  0  0  0  0  0  0  0  0  0
   11.5140    1.1515   23.4468 C   0  0  0  0  0  0  0  0  0  0  0  0
    5.9810    0.8330   18.8060 C   0  0  0  0  0  0  0  0  0  0  0  0
    6.1600    0.3870   20.1140 C   0  0  0  0  0  0  0  0  0  0  0  0
    9.2850   -3.7090   25.1090 C   0  0  0  0  0  0  0  0  0  0  0  0
    8.3641   -5.2686   26.8513 C   0  0  0  0  0  0  0  0  0  0  0  0
    8.9510    0.1280   21.6880 C   0  0  0  0  0  0  0  0  0  0  0  0
    7.9632   -7.7606   26.6654 C   0  0  0  0  0  0  0  0  0  0  0  0
   14.8822    0.0595   22.8428 C   0  0  0  0  0  0  0  0  0  0  0  0
   10.0220    1.0430   23.6570 C   0  0  0  0  0  0  0  0  0  0  0  0
    8.6975   -6.6500   27.3948 C   0  0  0  0  0  0  0  0  0  0  0  0
    9.4200   -0.0840   22.9530 C   0  0  1  0  0  0  0  0  0  0  0  0
   13.5977    2.0627   23.2339 N   0  0  0  0  0  0  0  0  0  0  0  0
    6.9440    0.2550   18.0100 N   0  0  0  0  0  0  0  0  0  0  0  0
   13.6272    0.7264   23.0942 N   0  0  0  0  0  0  0  0  0  0  0  0
    7.2210   -0.4620   20.0350 N   0  0  0  0  0  0  0  0  0  0  0  0
    9.2630   -4.8903   25.8409 N   0  0  0  0  0  0  0  0  0  0  0  0
    8.0810   -0.9750   21.0820 N   0  0  0  0  0  0  0  0  0  0  0  0
    7.4192   -4.6126   27.2772 O   0  0  0  0  0  0  0  0  0  0  0  0
    9.1870    1.1500   21.0630 O   0  0  0  0  0  0  0  0  0  0  0  0
    3.2711    2.7870   19.3201 H   0  0  0  0  0  0  0  0  0  0  0  0
    3.6262    2.0082   21.6284 H   0  0  0  0  0  0  0  0  0  0  0  0
    7.5948   -0.7783   24.7966 H   0  0  0  0  0  0  0  0  0  0  0  0
   11.0389   -2.1844   22.6342 H   0  0  0  0  0  0  0  0  0  0  0  0
    4.7816    2.0660   17.4901 H   0  0  0  0  0  0  0  0  0  0  0  0
    5.4934    0.4579   22.1787 H   0  0  0  0  0  0  0  0  0  0  0  0
    7.5642   -2.8624   26.1050 H   0  0  0  0  0  0  0  0  0  0  0  0
   11.0137   -4.2649   23.9418 H   0  0  0  0  0  0  0  0  0  0  0  0
   11.9938    3.3409   23.5993 H   0  0  0  0  0  0  0  0  0  0  0  0
   12.2768   -0.9376   23.1242 H   0  0  0  0  0  0  0  0  0  0  0  0
    8.5166   -1.1054   18.4533 H   0  0  0  0  0  0  0  0  0  0  0  0
    6.8786   -7.6289   26.7381 H   0  0  0  0  0  0  0  0  0  0  0  0
    8.2191   -8.7336   27.0960 H   0  0  0  0  0  0  0  0  0  0  0  0
    8.2289   -7.7761   25.6032 H   0  0  0  0  0  0  0  0  0  0  0  0
   15.0256    0.0076   21.7603 H   0  0  0  0  0  0  0  0  0  0  0  0
   15.6943    0.6239   23.3094 H   0  0  0  0  0  0  0  0  0  0  0  0
   14.8503   -0.9450   23.2739 H   0  0  0  0  0  0  0  0  0  0  0  0
    9.8388    0.9439   24.7360 H   0  0  0  0  0  0  0  0  0  0  0  0
    9.5396    1.9876   23.3725 H   0  0  0  0  0  0  0  0  0  0  0  0
    9.7786   -6.8068   27.3058 H   0  0  0  0  0  0  0  0  0  0  0  0
    8.4370   -6.6770   28.4592 H   0  0  0  0  0  0  0  0  0  0  0  0
    8.1264    0.3141   23.4937 H   0  0  0  0  0  0  0  0  0  0  0  0
    9.9927   -5.5775   25.6188 H   0  0  0  0  0  0  0  0  0  0  0  0
    8.1515   -1.8050   21.3815 H   0  0  0  0  0  0  0  0  0  0  0  0
  1  2  1  0  0  0  0
  1  5  2  0  0  0  0
  2  6  2  0  0  0  0
  3  7  2  0  0  0  0
  3 12  1  0  0  0  0
  4  8  1  0  0  0  0
  4 12  2  0  0  0  0
  5 14  1  0  0  0  0
  6 15  1  0  0  0  0
  7 16  1  0  0  0  0
  8 16  2  0  0  0  0
  9 13  1  0  0  0  0
  9 24  2  0  0  0  0
 10 13  2  0  0  0  0
 10 26  1  0  0  0  0
 11 25  2  0  0  0  0
 11 27  1  0  0  0  0
 12 23  1  0  0  0  0
 13 21  1  0  0  0  0
 14 15  2  0  0  0  0
 14 25  1  0  0  0  0
 15 27  1  0  0  0  0
 16 28  1  0  0  0  0
 17 22  1  0  0  0  0
 17 28  1  0  0  0  0
 17 30  2  0  0  0  0
 18 23  1  0  0  0  0
 18 29  1  0  0  0  0
 18 31  2  0  0  0  0
 19 22  1  0  0  0  0
 20 26  1  0  0  0  0
 21 23  1  1  0  0  0
 24 26  1  0  0  0  0
 27 29  1  0  0  0  0
  1 32  1  0  0  0  0
  2 33  1  0  0  0  0
  3 34  1  0  0  0  0
  4 35  1  0  0  0  0
  5 36  1  0  0  0  0
  6 37  1  0  0  0  0
  7 38  1  0  0  0  0
  8 39  1  0  0  0  0
  9 40  1  0  0  0  0
 10 41  1  0  0  0  0
 11 42  1  0  0  0  0
 19 43  1  0  0  0  0
 19 44  1  0  0  0  0
 19 45  1  0  0  0  0
 20 46  1  0  0  0  0
 20 47  1  0  0  0  0
 20 48  1  0  0  0  0
 21 49  1  0  0  0  0
 21 50  1  0  0  0  0
 22 51  1  0  0  0  0
 22 52  1  0  0  0  0
 23 53  1  0  0  0  0
 28 54  1  0  0  0  0
 29 55  1  0  0  0  0
M  END
> <clash_score>
0.7804584097171869

> <docking_score>
-8.38807487487793

> <overlap_score>
1.021615982055664

$$$$
BENZO_209_1
  -OEChem-08222022403D

 48 51  0     1  0  0  0  0  0999 V2000
   14.2691    1.3522   23.0572 C   0  0  0  0  0  0  0  0  0  0  0  0
   13.7679    0.5995   24.1192 C   0  0  0  0  0  0  0  0  0  0  0  0
   13.3927    2.0047   22.1900 C   0  0  0  0  0  0  0  0  0  0  0  0
    4.0980    2.1130   19.5350 C   0  0  0  0  0  0  0  0  0  0  0  0
    4.2970    1.6690   20.8430 C   0  0  0  0  0  0  0  0  0  0  0  0
   12.3904    0.4991   24.3140 C   0  0  0  0  0  0  0  0  0  0  0  0
   12.0152    1.9043   22.3848 C   0  0  0  0  0  0  0  0  0  0  0  0
    8.3310   -2.7170   25.3430 C   0  0  0  0  0  0  0  0  0  0  0  0
   10.2570   -3.5000   24.1350 C   0  0  0  0  0  0  0  0  0  0  0  0
    8.3510   -1.5420   24.6110 C   0  0  0  0  0  0  0  0  0  0  0  0
   10.2760   -2.3270   23.4020 C   0  0  0  0  0  0  0  0  0  0  0  0
    4.9400    1.7060   18.5060 C   0  0  0  0  0  0  0  0  0  0  0  0
    5.3360    0.8000   21.1530 C   0  0  0  0  0  0  0  0  0  0  0  0
    7.6830   -0.5170   18.7600 C   0  0  0  0  0  0  0  0  0  0  0  0
    9.2850   -3.7090   25.1090 C   0  0  0  0  0  0  0  0  0  0  0  0
   11.5140    1.1515   23.4468 C   0  0  0  0  0  0  0  0  0  0  0  0
    9.3300   -1.3350   23.6390 C   0  0  0  0  0  0  0  0  0  0  0  0
    5.9810    0.8330   18.8060 C   0  0  0  0  0  0  0  0  0  0  0  0
    6.1600    0.3870   20.1140 C   0  0  0  0  0  0  0  0  0  0  0  0
    8.9510    0.1280   21.6880 C   0  0  0  0  0  0  0  0  0  0  0  0
    9.2618   -4.9724   25.8910 C   0  0  0  0  0  0  0  0  0  0  0  0
   10.0220    1.0430   23.6570 C   0  0  0  0  0  0  0  0  0  0  0  0
    9.4200   -0.0840   22.9530 C   0  0  1  0  0  0  0  0  0  0  0  0
    6.9440    0.2550   18.0100 N   0  0  0  0  0  0  0  0  0  0  0  0
    7.2210   -0.4620   20.0350 N   0  0  0  0  0  0  0  0  0  0  0  0
    8.0810   -0.9750   21.0820 N   0  0  0  0  0  0  0  0  0  0  0  0
    9.1870    1.1500   21.0630 O   0  0  0  0  0  0  0  0  0  0  0  0
   15.3418    1.4314   22.9065 H   0  0  0  0  0  0  0  0  0  0  0  0
   14.4502    0.0923   24.7952 H   0  0  0  0  0  0  0  0  0  0  0  0
   13.7826    2.5917   21.3638 H   0  0  0  0  0  0  0  0  0  0  0  0
    3.2711    2.7870   19.3201 H   0  0  0  0  0  0  0  0  0  0  0  0
    3.6262    2.0082   21.6284 H   0  0  0  0  0  0  0  0  0  0  0  0
   12.0089   -0.0898   25.1440 H   0  0  0  0  0  0  0  0  0  0  0  0
   11.3399    2.4159   21.7041 H   0  0  0  0  0  0  0  0  0  0  0  0
    7.5655   -2.8644   26.1055 H   0  0  0  0  0  0  0  0  0  0  0  0
   11.0125   -4.2662   23.9435 H   0  0  0  0  0  0  0  0  0  0  0  0
    7.5953   -0.7782   24.7971 H   0  0  0  0  0  0  0  0  0  0  0  0
   11.0394   -2.1837   22.6349 H   0  0  0  0  0  0  0  0  0  0  0  0
    4.7816    2.0660   17.4901 H   0  0  0  0  0  0  0  0  0  0  0  0
    5.4934    0.4579   22.1787 H   0  0  0  0  0  0  0  0  0  0  0  0
    8.5166   -1.1054   18.4533 H   0  0  0  0  0  0  0  0  0  0  0  0
    8.6408   -5.7227   25.3864 H   0  0  0  0  0  0  0  0  0  0  0  0
   10.2726   -5.3829   26.0135 H   0  0  0  0  0  0  0  0  0  0  0  0
    8.8606   -4.8102   26.9000 H   0  0  0  0  0  0  0  0  0  0  0  0
    9.8388    0.9439   24.7360 H   0  0  0  0  0  0  0  0  0  0  0  0
    9.5396    1.9876   23.3725 H   0  0  0  0  0  0  0  0  0  0  0  0
    8.1264    0.3141   23.4937 H   0  0  0  0  0  0  0  0  0  0  0  0
    8.1515   -1.8050   21.3815 H   0  0  0  0  0  0  0  0  0  0  0  0
  1  2  1  0  0  0  0
  1  3  2  0  0  0  0
  2  6  2  0  0  0  0
  3  7  1  0  0  0  0
  4  5  1  0  0  0  0
  4 12  2  0  0  0  0
  5 13  2  0  0  0  0
  6 16  1  0  0  0  0
  7 16  2  0  0  0  0
  8 10  2  0  0  0  0
  8 15  1  0  0  0  0
  9 11  1  0  0  0  0
  9 15  2  0  0  0  0
 10 17  1  0  0  0  0
 11 17  2  0  0  0  0
 12 18  1  0  0  0  0
 13 19  1  0  0  0  0
 14 24  2  0  0  0  0
 14 25  1  0  0  0  0
 15 21  1  0  0  0  0
 16 22  1  0  0  0  0
 17 23  1  0  0  0  0
 18 19  2  0  0  0  0
 18 24  1  0  0  0  0
 19 25  1  0  0  0  0
 20 23  1  0  0  0  0
 20 26  1  0  0  0  0
 20 27  2  0  0  0  0
 22 23  1  1  0  0  0
 25 26  1  0  0  0  0
  1 28  1  0  0  0  0
  2 29  1  0  0  0  0
  3 30  1  0  0  0  0
  4 31  1  0  0  0  0
  5 32  1  0  0  0  0
  6 33  1  0  0  0  0
  7 34  1  0  0  0  0
  8 35  1  0  0  0  0
  9 36  1  0  0  0  0
 10 37  1  0  0  0  0
 11 38  1  0  0  0  0
 12 39  1  0  0  0  0
 13 40  1  0  0  0  0
 14 41  1  0  0  0  0
 21 42  1  0  0  0  0
 21 43  1  0  0  0  0
 21 44  1  0  0  0  0
 22 45  1  0  0  0  0
 22 46  1  0  0  0  0
 23 47  1  0  0  0  0
 26 48  1  0  0  0  0
M  END
> <clash_score>
0

> <docking_score>
-9.600774765014648

> <overlap_score>
0.9815404415130615

$$$$
BENZO_209_2
  -OEChem-08222022403D

 48 51  0     1  0  0  0  0  0999 V2000
   13.8479    0.1200   25.3901 C   0  0  0  0  0  0  0  0  0  0  0  0
   12.6818   -0.0763   26.1298 C   0  0  0  0  0  0  0  0  0  0  0  0
   13.7730    0.6157   24.0884 C   0  0  0  0  0  0  0  0  0  0  0  0
    4.0980    2.1130   19.5350 C   0  0  0  0  0  0  0  0  0  0  0  0
    4.2970    1.6690   20.8430 C   0  0  0  0  0  0  0  0  0  0  0  0
   11.4407    0.2231   25.5679 C   0  0  0  0  0  0  0  0  0  0  0  0
   12.5319    0.9151   23.5265 C   0  0  0  0  0  0  0  0  0  0  0  0
    8.3310   -2.7170   25.3430 C   0  0  0  0  0  0  0  0  0  0  0  0
   10.2570   -3.5000   24.1350 C   0  0  0  0  0  0  0  0  0  0  0  0
    8.3510   -1.5420   24.6110 C   0  0  0  0  0  0  0  0  0  0  0  0
   10.2760   -2.3270   23.4020 C   0  0  0  0  0  0  0  0  0  0  0  0
    4.9400    1.7060   18.5060 C   0  0  0  0  0  0  0  0  0  0  0  0
    5.3360    0.8000   21.1530 C   0  0  0  0  0  0  0  0  0  0  0  0
    7.6830   -0.5170   18.7600 C   0  0  0  0  0  0  0  0  0  0  0  0
    9.2850   -3.7090   25.1090 C   0  0  0  0  0  0  0  0  0  0  0  0
   11.3657    0.7188   24.2662 C   0  0  0  0  0  0  0  0  0  0  0  0
    9.3300   -1.3350   23.6390 C   0  0  0  0  0  0  0  0  0  0  0  0
    5.9810    0.8330   18.8060 C   0  0  0  0  0  0  0  0  0  0  0  0
    6.1600    0.3870   20.1140 C   0  0  0  0  0  0  0  0  0  0  0  0
    8.9510    0.1280   21.6880 C   0  0  0  0  0  0  0  0  0  0  0  0
    9.2618   -4.9724   25.8910 C   0  0  0  0  0  0  0  0  0  0  0  0
   10.0220    1.0430   23.6570 C   0  0  0  0  0  0  0  0  0  0  0  0
    9.4200   -0.0840   22.9530 C   0  0  2  0  0  0  0  0  0  0  0  0
    6.9440    0.2550   18.0100 N   0  0  0  0  0  0  0  0  0  0  0  0
    7.2210   -0.4620   20.0350 N   0  0  0  0  0  0  0  0  0  0  0  0
    8.0810   -0.9750   21.0820 N   0  0  0  0  0  0  0  0  0  0  0  0
    9.1870    1.1500   21.0630 O   0  0  0  0  0  0  0  0  0  0  0  0
   14.8143   -0.1119   25.8282 H   0  0  0  0  0  0  0  0  0  0  0  0
   12.7400   -0.4613   27.1437 H   0  0  0  0  0  0  0  0  0  0  0  0
   14.6807    0.7697   23.5125 H   0  0  0  0  0  0  0  0  0  0  0  0
    3.2711    2.7870   19.3201 H   0  0  0  0  0  0  0  0  0  0  0  0
    3.6262    2.0082   21.6284 H   0  0  0  0  0  0  0  0  0  0  0  0
   10.5374    0.0668   26.1517 H   0  0  0  0  0  0  0  0  0  0  0  0
   12.4832    1.3008   22.5116 H   0  0  0  0  0  0  0  0  0  0  0  0
    7.5655   -2.8644   26.1055 H   0  0  0  0  0  0  0  0  0  0  0  0
   11.0125   -4.2662   23.9435 H   0  0  0  0  0  0  0  0  0  0  0  0
    7.5953   -0.7782   24.7971 H   0  0  0  0  0  0  0  0  0  0  0  0
   11.0394   -2.1837   22.6349 H   0  0  0  0  0  0  0  0  0  0  0  0
    4.7816    2.0660   17.4901 H   0  0  0  0  0  0  0  0  0  0  0  0
    5.4934    0.4579   22.1787 H   0  0  0  0  0  0  0  0  0  0  0  0
    8.5166   -1.1054   18.4533 H   0  0  0  0  0  0  0  0  0  0  0  0
    8.6408   -5.7227   25.3864 H   0  0  0  0  0  0  0  0  0  0  0  0
   10.2726   -5.3829   26.0135 H   0  0  0  0  0  0  0  0  0  0  0  0
    8.8606   -4.8102   26.9000 H   0  0  0  0  0  0  0  0  0  0  0  0
    9.3544    1.3715   24.4657 H   0  0  0  0  0  0  0  0  0  0  0  0
   10.1173    1.9145   22.9956 H   0  0  0  0  0  0  0  0  0  0  0  0
   10.7193   -0.4348   22.4312 H   0  0  0  0  0  0  0  0  0  0  0  0
    8.1515   -1.8050   21.3815 H   0  0  0  0  0  0  0  0  0  0  0  0
  1  2  1  0  0  0  0
  1  3  2  0  0  0  0
  2  6  2  0  0  0  0
  3  7  1  0  0  0  0
  4  5  1  0  0  0  0
  4 12  2  0  0  0  0
  5 13  2  0  0  0  0
  6 16  1  0  0  0  0
  7 16  2  0  0  0  0
  8 10  2  0  0  0  0
  8 15  1  0  0  0  0
  9 11  1  0  0  0  0
  9 15  2  0  0  0  0
 10 17  1  0  0  0  0
 11 17  2  0  0  0  0
 12 18  1  0  0  0  0
 13 19  1  0  0  0  0
 14 24  2  0  0  0  0
 14 25  1  0  0  0  0
 15 21  1  0  0  0  0
 16 22  1  0  0  0  0
 17 23  1  0  0  0  0
 18 19  2  0  0  0  0
 18 24  1  0  0  0  0
 19 25  1  0  0  0  0
 20 23  1  0  0  0  0
 20 26  1  0  0  0  0
 20 27  2  0  0  0  0
 22 23  1  6  0  0  0
 25 26  1  0  0  0  0
  1 28  1  0  0  0  0
  2 29  1  0  0  0  0
  3 30  1  0  0  0  0
  4 31  1  0  0  0  0
  5 32  1  0  0  0  0
  6 33  1  0  0  0  0
  7 34  1  0  0  0  0
  8 35  1  0  0  0  0
  9 36  1  0  0  0  0
 10 37  1  0  0  0  0
 11 38  1  0  0  0  0
 12 39  1  0  0  0  0
 13 40  1  0  0  0  0
 14 41  1  0  0  0  0
 21 42  1  0  0  0  0
 21 43  1  0  0  0  0
 21 44  1  0  0  0  0
 22 45  1  0  0  0  0
 22 46  1  0  0  0  0
 23 47  1  0  0  0  0
 26 48  1  0  0  0  0
M  END
> <clash_score>
0

> <docking_score>
-8.685829162597656

> <overlap_score>
0.9049128293991089

$$$$
BENZO_208_1
  -OEChem-08222022403D

 45 48  0     1  0  0  0  0  0999 V2000
    4.0980    2.1130   19.5350 C   0  0  0  0  0  0  0  0  0  0  0  0
    4.2970    1.6690   20.8430 C   0  0  0  0  0  0  0  0  0  0  0  0
    8.3310   -2.7170   25.3430 C   0  0  0  0  0  0  0  0  0  0  0  0
   10.2570   -3.5000   24.1350 C   0  0  0  0  0  0  0  0  0  0  0  0
    8.3510   -1.5420   24.6110 C   0  0  0  0  0  0  0  0  0  0  0  0
   10.2760   -2.3270   23.4020 C   0  0  0  0  0  0  0  0  0  0  0  0
    4.9400    1.7060   18.5060 C   0  0  0  0  0  0  0  0  0  0  0  0
    5.3360    0.8000   21.1530 C   0  0  0  0  0  0  0  0  0  0  0  0
   12.2266    2.3852   23.4320 C   0  0  0  0  0  0  0  0  0  0  0  0
   13.5754    2.2012   23.2208 C   0  0  0  0  0  0  0  0  0  0  0  0
   12.3453    0.0714   23.2461 C   0  0  0  0  0  0  0  0  0  0  0  0
    7.6830   -0.5170   18.7600 C   0  0  0  0  0  0  0  0  0  0  0  0
    9.2850   -3.7090   25.1090 C   0  0  0  0  0  0  0  0  0  0  0  0
    9.3300   -1.3350   23.6390 C   0  0  0  0  0  0  0  0  0  0  0  0
   11.5140    1.1515   23.4468 C   0  0  0  0  0  0  0  0  0  0  0  0
    5.9810    0.8330   18.8060 C   0  0  0  0  0  0  0  0  0  0  0  0
    6.1600    0.3870   20.1140 C   0  0  0  0  0  0  0  0  0  0  0  0
    8.9510    0.1280   21.6880 C   0  0  0  0  0  0  0  0  0  0  0  0
    9.2618   -4.9724   25.8910 C   0  0  0  0  0  0  0  0  0  0  0  0
   10.0220    1.0430   23.6570 C   0  0  0  0  0  0  0  0  0  0  0  0
    9.4200   -0.0840   22.9530 C   0  0  1  0  0  0  0  0  0  0  0  0
    6.9440    0.2550   18.0100 N   0  0  0  0  0  0  0  0  0  0  0  0
    7.2210   -0.4620   20.0350 N   0  0  0  0  0  0  0  0  0  0  0  0
    8.0810   -0.9750   21.0820 N   0  0  0  0  0  0  0  0  0  0  0  0
    9.1870    1.1500   21.0630 O   0  0  0  0  0  0  0  0  0  0  0  0
   13.9777    0.5464   23.0413 S   0  0  0  0  0  0  0  0  0  0  0  0
    3.2711    2.7870   19.3201 H   0  0  0  0  0  0  0  0  0  0  0  0
    3.6262    2.0082   21.6284 H   0  0  0  0  0  0  0  0  0  0  0  0
    7.5655   -2.8644   26.1055 H   0  0  0  0  0  0  0  0  0  0  0  0
   11.0125   -4.2662   23.9435 H   0  0  0  0  0  0  0  0  0  0  0  0
    7.5953   -0.7782   24.7971 H   0  0  0  0  0  0  0  0  0  0  0  0
   11.0394   -2.1837   22.6349 H   0  0  0  0  0  0  0  0  0  0  0  0
    4.7816    2.0660   17.4901 H   0  0  0  0  0  0  0  0  0  0  0  0
    5.4934    0.4579   22.1787 H   0  0  0  0  0  0  0  0  0  0  0  0
   11.7767    3.3605   23.5685 H   0  0  0  0  0  0  0  0  0  0  0  0
   14.3436    2.9592   23.1626 H   0  0  0  0  0  0  0  0  0  0  0  0
   12.0761   -0.9751   23.2080 H   0  0  0  0  0  0  0  0  0  0  0  0
    8.5166   -1.1054   18.4533 H   0  0  0  0  0  0  0  0  0  0  0  0
    8.6408   -5.7227   25.3864 H   0  0  0  0  0  0  0  0  0  0  0  0
   10.2726   -5.3829   26.0135 H   0  0  0  0  0  0  0  0  0  0  0  0
    8.8606   -4.8102   26.9000 H   0  0  0  0  0  0  0  0  0  0  0  0
    9.8388    0.9439   24.7360 H   0  0  0  0  0  0  0  0  0  0  0  0
    9.5396    1.9876   23.3725 H   0  0  0  0  0  0  0  0  0  0  0  0
    8.1264    0.3141   23.4937 H   0  0  0  0  0  0  0  0  0  0  0  0
    8.1515   -1.8050   21.3815 H   0  0  0  0  0  0  0  0  0  0  0  0
  1  2  1  0  0  0  0
  1  7  2  0  0  0  0
  2  8  2  0  0  0  0
  3  5  2  0  0  0  0
  3 13  1  0  0  0  0
  4  6  1  0  0  0  0
  4 13  2  0  0  0  0
  5 14  1  0  0  0  0
  6 14  2  0  0  0  0
  7 16  1  0  0  0  0
  8 17  1  0  0  0  0
  9 10  2  0  0  0  0
  9 15  1  0  0  0  0
 10 26  1  0  0  0  0
 11 15  2  0  0  0  0
 11 26  1  0  0  0  0
 12 22  2  0  0  0  0
 12 23  1  0  0  0  0
 13 19  1  0  0  0  0
 14 21  1  0  0  0  0
 15 20  1  0  0  0  0
 16 17  2  0  0  0  0
 16 22  1  0  0  0  0
 17 23  1  0  0  0  0
 18 21  1  0  0  0  0
 18 24  1  0  0  0  0
 18 25  2  0  0  0  0
 20 21  1  1  0  0  0
 23 24  1  0  0  0  0
  1 27  1  0  0  0  0
  2 28  1  0  0  0  0
  3 29  1  0  0  0  0
  4 30  1  0  0  0  0
  5 31  1  0  0  0  0
  6 32  1  0  0  0  0
  7 33  1  0  0  0  0
  8 34  1  0  0  0  0
  9 35  1  0  0  0  0
 10 36  1  0  0  0  0
 11 37  1  0  0  0  0
 12 38  1  0  0  0  0
 19 39  1  0  0  0  0
 19 40  1  0  0  0  0
 19 41  1  0  0  0  0
 20 42  1  0  0  0  0
 20 43  1  0  0  0  0
 21 44  1  0  0  0  0
 24 45  1  0  0  0  0
M  END
> <clash_score>
0

> <docking_score>
-10.332730293273926

> <overlap_score>
0.9675723910331726

$$$$
BENZO_208_2
  -OEChem-08222022403D

 45 48  0     1  0  0  0  0  0999 V2000
    4.0980    2.1130   19.5350 C   0  0  0  0  0  0  0  0  0  0  0  0
    4.2970    1.6690   20.8430 C   0  0  0  0  0  0  0  0  0  0  0  0
    8.3310   -2.7170   25.3430 C   0  0  0  0  0  0  0  0  0  0  0  0
   10.2570   -3.5000   24.1350 C   0  0  0  0  0  0  0  0  0  0  0  0
    8.3510   -1.5420   24.6110 C   0  0  0  0  0  0  0  0  0  0  0  0
   10.2760   -2.3270   23.4020 C   0  0  0  0  0  0  0  0  0  0  0  0
    4.9400    1.7060   18.5060 C   0  0  0  0  0  0  0  0  0  0  0  0
    5.3360    0.8000   21.1530 C   0  0  0  0  0  0  0  0  0  0  0  0
   12.2547   -0.1045   24.2981 C   0  0  0  0  0  0  0  0  0  0  0  0
   13.0574   -0.3497   25.3904 C   0  0  0  0  0  0  0  0  0  0  0  0
   11.0384    0.9187   25.9941 C   0  0  0  0  0  0  0  0  0  0  0  0
    7.6830   -0.5170   18.7600 C   0  0  0  0  0  0  0  0  0  0  0  0
    9.2850   -3.7090   25.1090 C   0  0  0  0  0  0  0  0  0  0  0  0
    9.3300   -1.3350   23.6390 C   0  0  0  0  0  0  0  0  0  0  0  0
   11.0851    0.6304   24.6477 C   0  0  0  0  0  0  0  0  0  0  0  0
    5.9810    0.8330   18.8060 C   0  0  0  0  0  0  0  0  0  0  0  0
    6.1600    0.3870   20.1140 C   0  0  0  0  0  0  0  0  0  0  0  0
    8.9510    0.1280   21.6880 C   0  0  0  0  0  0  0  0  0  0  0  0
    9.2618   -4.9724   25.8910 C   0  0  0  0  0  0  0  0  0  0  0  0
   10.0220    1.0430   23.6570 C   0  0  0  0  0  0  0  0  0  0  0  0
    9.4200   -0.0840   22.9530 C   0  0  2  0  0  0  0  0  0  0  0  0
    6.9440    0.2550   18.0100 N   0  0  0  0  0  0  0  0  0  0  0  0
    7.2210   -0.4620   20.0350 N   0  0  0  0  0  0  0  0  0  0  0  0
    8.0810   -0.9750   21.0820 N   0  0  0  0  0  0  0  0  0  0  0  0
    9.1870    1.1500   21.0630 O   0  0  0  0  0  0  0  0  0  0  0  0
   12.4008    0.3047   26.8302 S   0  0  0  0  0  0  0  0  0  0  0  0
    3.2711    2.7870   19.3201 H   0  0  0  0  0  0  0  0  0  0  0  0
    3.6262    2.0082   21.6284 H   0  0  0  0  0  0  0  0  0  0  0  0
    7.5655   -2.8644   26.1055 H   0  0  0  0  0  0  0  0  0  0  0  0
   11.0125   -4.2662   23.9435 H   0  0  0  0  0  0  0  0  0  0  0  0
    7.5953   -0.7782   24.7971 H   0  0  0  0  0  0  0  0  0  0  0  0
   11.0394   -2.1837   22.6349 H   0  0  0  0  0  0  0  0  0  0  0  0
    4.7816    2.0660   17.4901 H   0  0  0  0  0  0  0  0  0  0  0  0
    5.4934    0.4579   22.1787 H   0  0  0  0  0  0  0  0  0  0  0  0
   12.4985   -0.4387   23.2976 H   0  0  0  0  0  0  0  0  0  0  0  0
   13.9977   -0.8824   25.4120 H   0  0  0  0  0  0  0  0  0  0  0  0
   10.2710    1.4591   26.5308 H   0  0  0  0  0  0  0  0  0  0  0  0
    8.5166   -1.1054   18.4533 H   0  0  0  0  0  0  0  0  0  0  0  0
    8.6408   -5.7227   25.3864 H   0  0  0  0  0  0  0  0  0  0  0  0
   10.2726   -5.3829   26.0135 H   0  0  0  0  0  0  0  0  0  0  0  0
    8.8606   -4.8102   26.9000 H   0  0  0  0  0  0  0  0  0  0  0  0
    9.2444    1.5932   24.2048 H   0  0  0  0  0  0  0  0  0  0  0  0
   10.4399    1.7712   22.9492 H   0  0  0  0  0  0  0  0  0  0  0  0
   10.7193   -0.4348   22.4312 H   0  0  0  0  0  0  0  0  0  0  0  0
    8.1515   -1.8050   21.3815 H   0  0  0  0  0  0  0  0  0  0  0  0
  1  2  1  0  0  0  0
  1  7  2  0  0  0  0
  2  8  2  0  0  0  0
  3  5  2  0  0  0  0
  3 13  1  0  0  0  0
  4  6  1  0  0  0  0
  4 13  2  0  0  0  0
  5 14  1  0  0  0  0
  6 14  2  0  0  0  0
  7 16  1  0  0  0  0
  8 17  1  0  0  0  0
  9 10  2  0  0  0  0
  9 15  1  0  0  0  0
 10 26  1  0  0  0  0
 11 15  2  0  0  0  0
 11 26  1  0  0  0  0
 12 22  2  0  0  0  0
 12 23  1  0  0  0  0
 13 19  1  0  0  0  0
 14 21  1  0  0  0  0
 15 20  1  0  0  0  0
 16 17  2  0  0  0  0
 16 22  1  0  0  0  0
 17 23  1  0  0  0  0
 18 21  1  0  0  0  0
 18 24  1  0  0  0  0
 18 25  2  0  0  0  0
 20 21  1  6  0  0  0
 23 24  1  0  0  0  0
  1 27  1  0  0  0  0
  2 28  1  0  0  0  0
  3 29  1  0  0  0  0
  4 30  1  0  0  0  0
  5 31  1  0  0  0  0
  6 32  1  0  0  0  0
  7 33  1  0  0  0  0
  8 34  1  0  0  0  0
  9 35  1  0  0  0  0
 10 36  1  0  0  0  0
 11 37  1  0  0  0  0
 12 38  1  0  0  0  0
 19 39  1  0  0  0  0
 19 40  1  0  0  0  0
 19 41  1  0  0  0  0
 20 42  1  0  0  0  0
 20 43  1  0  0  0  0
 21 44  1  0  0  0  0
 24 45  1  0  0  0  0
M  END
> <clash_score>
0.6169175806577704

> <docking_score>
-7.652957439422607

> <overlap_score>
0.856644332408905

$$$$
BENZO_207_2
  -OEChem-08222022403D

 60 64  0     1  0  0  0  0  0999 V2000
    4.0980    2.1130   19.5350 C   0  0  0  0  0  0  0  0  0  0  0  0
    4.2970    1.6690   20.8430 C   0  0  0  0  0  0  0  0  0  0  0  0
    8.3510   -1.5420   24.6110 C   0  0  0  0  0  0  0  0  0  0  0  0
   10.2760   -2.3270   23.4020 C   0  0  0  0  0  0  0  0  0  0  0  0
    4.9400    1.7060   18.5060 C   0  0  0  0  0  0  0  0  0  0  0  0
    5.3360    0.8000   21.1530 C   0  0  0  0  0  0  0  0  0  0  0  0
    8.3310   -2.7170   25.3430 C   0  0  0  0  0  0  0  0  0  0  0  0
   10.2570   -3.5000   24.1350 C   0  0  0  0  0  0  0  0  0  0  0  0
   12.6359    0.8405   23.6658 C   0  0  0  0  0  0  0  0  0  0  0  0
   11.6237    0.2113   25.5137 C   0  0  0  0  0  0  0  0  0  0  0  0
    7.6830   -0.5170   18.7600 C   0  0  0  0  0  0  0  0  0  0  0  0
    9.3300   -1.3350   23.6390 C   0  0  0  0  0  0  0  0  0  0  0  0
   11.3663    0.7092   24.2598 C   0  0  0  0  0  0  0  0  0  0  0  0
    5.9810    0.8330   18.8060 C   0  0  0  0  0  0  0  0  0  0  0  0
    6.1600    0.3870   20.1140 C   0  0  0  0  0  0  0  0  0  0  0  0
    9.2850   -3.7090   25.1090 C   0  0  0  0  0  0  0  0  0  0  0  0
    8.9510    0.1280   21.6880 C   0  0  0  0  0  0  0  0  0  0  0  0
    7.3211   -6.8875   26.5227 C   0  0  0  0  0  0  0  0  0  0  0  0
    7.3523   -5.5278   27.2244 C   0  0  0  0  0  0  0  0  0  0  0  0
    7.9422   -6.8107   25.1261 C   0  0  0  0  0  0  0  0  0  0  0  0
    8.7641   -4.9418   27.2163 C   0  0  0  0  0  0  0  0  0  0  0  0
    9.3411   -6.1879   25.1670 C   0  0  0  0  0  0  0  0  0  0  0  0
   13.7282   -0.4085   26.7244 C   0  0  0  0  0  0  0  0  0  0  0  0
   10.0220    1.0430   23.6570 C   0  0  0  0  0  0  0  0  0  0  0  0
    9.4200   -0.0840   22.9530 C   0  0  2  0  0  0  0  0  0  0  0  0
   13.6263    0.4570   24.4758 N   0  0  0  0  0  0  0  0  0  0  0  0
    6.9440    0.2550   18.0100 N   0  0  0  0  0  0  0  0  0  0  0  0
   12.9790    0.0800   25.5916 N   0  0  0  0  0  0  0  0  0  0  0  0
    7.2210   -0.4620   20.0350 N   0  0  0  0  0  0  0  0  0  0  0  0
    9.2641   -4.8861   25.8398 N   0  0  0  0  0  0  0  0  0  0  0  0
    8.0810   -0.9750   21.0820 N   0  0  0  0  0  0  0  0  0  0  0  0
    9.1870    1.1500   21.0630 O   0  0  0  0  0  0  0  0  0  0  0  0
    3.2711    2.7870   19.3201 H   0  0  0  0  0  0  0  0  0  0  0  0
    3.6263    2.0082   21.6285 H   0  0  0  0  0  0  0  0  0  0  0  0
    7.5957   -0.7779   24.7973 H   0  0  0  0  0  0  0  0  0  0  0  0
   11.0384   -2.1852   22.6338 H   0  0  0  0  0  0  0  0  0  0  0  0
    4.7816    2.0660   17.4901 H   0  0  0  0  0  0  0  0  0  0  0  0
    5.4934    0.4579   22.1787 H   0  0  0  0  0  0  0  0  0  0  0  0
    7.5634   -2.8637   26.1037 H   0  0  0  0  0  0  0  0  0  0  0  0
   11.0139   -4.2645   23.9419 H   0  0  0  0  0  0  0  0  0  0  0  0
   12.8833    1.2002   22.6770 H   0  0  0  0  0  0  0  0  0  0  0  0
   10.9741   -0.0530   26.3371 H   0  0  0  0  0  0  0  0  0  0  0  0
    8.5166   -1.1054   18.4533 H   0  0  0  0  0  0  0  0  0  0  0  0
    7.8644   -7.6283   27.1289 H   0  0  0  0  0  0  0  0  0  0  0  0
    6.2830   -7.2423   26.4478 H   0  0  0  0  0  0  0  0  0  0  0  0
    6.6663   -4.8405   26.7221 H   0  0  0  0  0  0  0  0  0  0  0  0
    7.0062   -5.6400   28.2540 H   0  0  0  0  0  0  0  0  0  0  0  0
    8.0018   -7.8160   24.6962 H   0  0  0  0  0  0  0  0  0  0  0  0
    7.2963   -6.2182   24.4678 H   0  0  0  0  0  0  0  0  0  0  0  0
    8.7322   -3.9404   27.6532 H   0  0  0  0  0  0  0  0  0  0  0  0
    9.4260   -5.5610   27.8283 H   0  0  0  0  0  0  0  0  0  0  0  0
   10.0249   -6.8474   25.7028 H   0  0  0  0  0  0  0  0  0  0  0  0
    9.7015   -6.0700   24.1446 H   0  0  0  0  0  0  0  0  0  0  0  0
   13.8306   -1.4918   26.6192 H   0  0  0  0  0  0  0  0  0  0  0  0
   14.7120    0.0685   26.7434 H   0  0  0  0  0  0  0  0  0  0  0  0
   13.1927   -0.1616   27.6454 H   0  0  0  0  0  0  0  0  0  0  0  0
    9.3646    1.3888   24.4669 H   0  0  0  0  0  0  0  0  0  0  0  0
   10.1229    1.9057   22.9851 H   0  0  0  0  0  0  0  0  0  0  0  0
   10.7230   -0.4323   22.4284 H   0  0  0  0  0  0  0  0  0  0  0  0
    8.1256   -1.8039   21.3539 H   0  0  0  0  0  0  0  0  0  0  0  0
  1  2  1  0  0  0  0
  1  5  2  0  0  0  0
  2  6  2  0  0  0  0
  3  7  2  0  0  0  0
  3 12  1  0  0  0  0
  4  8  1  0  0  0  0
  4 12  2  0  0  0  0
  5 14  1  0  0  0  0
  6 15  1  0  0  0  0
  7 16  1  0  0  0  0
  8 16  2  0  0  0  0
  9 13  1  0  0  0  0
  9 26  2  0  0  0  0
 10 13  2  0  0  0  0
 10 28  1  0  0  0  0
 11 27  2  0  0  0  0
 11 29  1  0  0  0  0
 12 25  1  0  0  0  0
 13 24  1  0  0  0  0
 14 15  2  0  0  0  0
 14 27  1  0  0  0  0
 15 29  1  0  0  0  0
 16 30  1  0  0  0  0
 17 25  1  0  0  0  0
 17 31  1  0  0  0  0
 17 32  2  0  0  0  0
 18 19  1  0  0  0  0
 18 20  1  0  0  0  0
 19 21  1  0  0  0  0
 20 22  1  0  0  0  0
 21 30  1  0  0  0  0
 22 30  1  0  0  0  0
 23 28  1  0  0  0  0
 24 25  1  6  0  0  0
 26 28  1  0  0  0  0
 29 31  1  0  0  0  0
  1 33  1  0  0  0  0
  2 34  1  0  0  0  0
  3 35  1  0  0  0  0
  4 36  1  0  0  0  0
  5 37  1  0  0  0  0
  6 38  1  0  0  0  0
  7 39  1  0  0  0  0
  8 40  1  0  0  0  0
  9 41  1  0  0  0  0
 10 42  1  0  0  0  0
 11 43  1  0  0  0  0
 18 44  1  0  0  0  0
 18 45  1  0  0  0  0
 19 46  1  0  0  0  0
 19 47  1  0  0  0  0
 20 48  1  0  0  0  0
 20 49  1  0  0  0  0
 21 50  1  0  0  0  0
 21 51  1  0  0  0  0
 22 52  1  0  0  0  0
 22 53  1  0  0  0  0
 23 54  1  0  0  0  0
 23 55  1  0  0  0  0
 23 56  1  0  0  0  0
 24 57  1  0  0  0  0
 24 58  1  0  0  0  0
 25 59  1  0  0  0  0
 31 60  1  0  0  0  0
M  END
> <clash_score>
0.7305700647928571

> <docking_score>
-7.584926128387451

> <overlap_score>
0.9410896301269531

$$$$
BENZO_206_1
  -OEChem-08222022403D

 60 64  0     1  0  0  0  0  0999 V2000
    4.0980    2.1130   19.5350 C   0  0  0  0  0  0  0  0  0  0  0  0
    4.2970    1.6690   20.8430 C   0  0  0  0  0  0  0  0  0  0  0  0
   13.7724    0.5968   24.0732 C   0  0  0  0  0  0  0  0  0  0  0  0
   12.5307    0.9037   23.5168 C   0  0  0  0  0  0  0  0  0  0  0  0
    8.3510   -1.5420   24.6110 C   0  0  0  0  0  0  0  0  0  0  0  0
   10.2760   -2.3270   23.4020 C   0  0  0  0  0  0  0  0  0  0  0  0
    4.9400    1.7060   18.5060 C   0  0  0  0  0  0  0  0  0  0  0  0
    5.3360    0.8000   21.1530 C   0  0  0  0  0  0  0  0  0  0  0  0
    8.3310   -2.7170   25.3430 C   0  0  0  0  0  0  0  0  0  0  0  0
   10.2570   -3.5000   24.1350 C   0  0  0  0  0  0  0  0  0  0  0  0
   13.8498    0.0953   25.3725 C   0  0  0  0  0  0  0  0  0  0  0  0
   11.4436    0.2079   25.5592 C   0  0  0  0  0  0  0  0  0  0  0  0
    7.6830   -0.5170   18.7600 C   0  0  0  0  0  0  0  0  0  0  0  0
    9.3300   -1.3350   23.6390 C   0  0  0  0  0  0  0  0  0  0  0  0
   11.3663    0.7092   24.2598 C   0  0  0  0  0  0  0  0  0  0  0  0
    5.9810    0.8330   18.8060 C   0  0  0  0  0  0  0  0  0  0  0  0
    6.1600    0.3870   20.1140 C   0  0  0  0  0  0  0  0  0  0  0  0
    9.2850   -3.7090   25.1090 C   0  0  0  0  0  0  0  0  0  0  0  0
   12.6854   -0.0991   26.1155 C   0  0  0  0  0  0  0  0  0  0  0  0
    8.9510    0.1280   21.6880 C   0  0  0  0  0  0  0  0  0  0  0  0
    7.3211   -6.8875   26.5227 C   0  0  0  0  0  0  0  0  0  0  0  0
    7.3523   -5.5278   27.2244 C   0  0  0  0  0  0  0  0  0  0  0  0
    7.9422   -6.8107   25.1261 C   0  0  0  0  0  0  0  0  0  0  0  0
    8.7641   -4.9418   27.2163 C   0  0  0  0  0  0  0  0  0  0  0  0
    9.3411   -6.1879   25.1670 C   0  0  0  0  0  0  0  0  0  0  0  0
   10.0220    1.0430   23.6570 C   0  0  0  0  0  0  0  0  0  0  0  0
    9.4200   -0.0840   22.9530 C   0  0  1  0  0  0  0  0  0  0  0  0
    6.9440    0.2550   18.0100 N   0  0  0  0  0  0  0  0  0  0  0  0
    7.2210   -0.4620   20.0350 N   0  0  0  0  0  0  0  0  0  0  0  0
    9.2641   -4.8861   25.8398 N   0  0  0  0  0  0  0  0  0  0  0  0
    8.0810   -0.9750   21.0820 N   0  0  0  0  0  0  0  0  0  0  0  0
    9.1870    1.1500   21.0630 O   0  0  0  0  0  0  0  0  0  0  0  0
   12.7815   -0.7167   27.7190 Cl  0  0  0  0  0  0  0  0  0  0  0  0
    3.2711    2.7870   19.3201 H   0  0  0  0  0  0  0  0  0  0  0  0
    3.6263    2.0082   21.6285 H   0  0  0  0  0  0  0  0  0  0  0  0
   14.6789    0.7484   23.4943 H   0  0  0  0  0  0  0  0  0  0  0  0
   12.4799    1.2940   22.5037 H   0  0  0  0  0  0  0  0  0  0  0  0
    7.5957   -0.7779   24.7973 H   0  0  0  0  0  0  0  0  0  0  0  0
   11.0384   -2.1852   22.6338 H   0  0  0  0  0  0  0  0  0  0  0  0
    4.7816    2.0660   17.4901 H   0  0  0  0  0  0  0  0  0  0  0  0
    5.4934    0.4579   22.1787 H   0  0  0  0  0  0  0  0  0  0  0  0
    7.5634   -2.8637   26.1037 H   0  0  0  0  0  0  0  0  0  0  0  0
   11.0139   -4.2645   23.9419 H   0  0  0  0  0  0  0  0  0  0  0  0
   14.8244   -0.1392   25.7934 H   0  0  0  0  0  0  0  0  0  0  0  0
   10.5328    0.0576   26.1342 H   0  0  0  0  0  0  0  0  0  0  0  0
    8.5166   -1.1054   18.4533 H   0  0  0  0  0  0  0  0  0  0  0  0
    7.8644   -7.6283   27.1289 H   0  0  0  0  0  0  0  0  0  0  0  0
    6.2830   -7.2423   26.4478 H   0  0  0  0  0  0  0  0  0  0  0  0
    6.6663   -4.8405   26.7221 H   0  0  0  0  0  0  0  0  0  0  0  0
    7.0062   -5.6400   28.2540 H   0  0  0  0  0  0  0  0  0  0  0  0
    8.0018   -7.8160   24.6962 H   0  0  0  0  0  0  0  0  0  0  0  0
    7.2963   -6.2182   24.4678 H   0  0  0  0  0  0  0  0  0  0  0  0
    8.7322   -3.9404   27.6532 H   0  0  0  0  0  0  0  0  0  0  0  0
    9.4260   -5.5610   27.8283 H   0  0  0  0  0  0  0  0  0  0  0  0
   10.0249   -6.8474   25.7028 H   0  0  0  0  0  0  0  0  0  0  0  0
    9.7015   -6.0700   24.1446 H   0  0  0  0  0  0  0  0  0  0  0  0
    9.3646    1.3888   24.4669 H   0  0  0  0  0  0  0  0  0  0  0  0
   10.1229    1.9057   22.9851 H   0  0  0  0  0  0  0  0  0  0  0  0
   10.7230   -0.4323   22.4284 H   0  0  0  0  0  0  0  0  0  0  0  0
    8.1256   -1.8039   21.3539 H   0  0  0  0  0  0  0  0  0  0  0  0
  1  2  1  0  0  0  0
  1  7  2  0  0  0  0
  2  8  2  0  0  0  0
  3  4  2  0  0  0  0
  3 11  1  0  0  0  0
  4 15  1  0  0  0  0
  5  9  2  0  0  0  0
  5 14  1  0  0  0  0
  6 10  1  0  0  0  0
  6 14  2  0  0  0  0
  7 16  1  0  0  0  0
  8 17  1  0  0  0  0
  9 18  1  0  0  0  0
 10 18  2  0  0  0  0
 11 19  2  0  0  0  0
 12 15  2  0  0  0  0
 12 19  1  0  0  0  0
 13 28  2  0  0  0  0
 13 29  1  0  0  0  0
 14 27  1  0  0  0  0
 15 26  1  0  0  0  0
 16 17  2  0  0  0  0
 16 28  1  0  0  0  0
 17 29  1  0  0  0  0
 18 30  1  0  0  0  0
 19 33  1  0  0  0  0
 20 27  1  1  0  0  0
 20 31  1  0  0  0  0
 20 32  2  0  0  0  0
 21 22  1  0  0  0  0
 21 23  1  0  0  0  0
 22 24  1  0  0  0  0
 23 25  1  0  0  0  0
 24 30  1  0  0  0  0
 25 30  1  0  0  0  0
 26 27  1  0  0  0  0
 29 31  1  0  0  0  0
  1 34  1  0  0  0  0
  2 35  1  0  0  0  0
  3 36  1  0  0  0  0
  4 37  1  0  0  0  0
  5 38  1  0  0  0  0
  6 39  1  0  0  0  0
  7 40  1  0  0  0  0
  8 41  1  0  0  0  0
  9 42  1  0  0  0  0
 10 43  1  0  0  0  0
 11 44  1  0  0  0  0
 12 45  1  0  0  0  0
 13 46  1  0  0  0  0
 21 47  1  0  0  0  0
 21 48  1  0  0  0  0
 22 49  1  0  0  0  0
 22 50  1  0  0  0  0
 23 51  1  0  0  0  0
 23 52  1  0  0  0  0
 24 53  1  0  0  0  0
 24 54  1  0  0  0  0
 25 55  1  0  0  0  0
 25 56  1  0  0  0  0
 26 57  1  0  0  0  0
 26 58  1  0  0  0  0
 27 59  1  0  0  0  0
 31 60  1  0  0  0  0
M  END
> <clash_score>
1.581609324997356

> <docking_score>
-6.788881778717041

> <overlap_score>
0.9483889937400818

$$$$
BENZO_207_1
  -OEChem-08222022403D

 60 64  0     1  0  0  0  0  0999 V2000
    4.0980    2.1130   19.5350 C   0  0  0  0  0  0  0  0  0  0  0  0
    4.2970    1.6690   20.8430 C   0  0  0  0  0  0  0  0  0  0  0  0
    8.3510   -1.5420   24.6110 C   0  0  0  0  0  0  0  0  0  0  0  0
   10.2760   -2.3270   23.4020 C   0  0  0  0  0  0  0  0  0  0  0  0
    4.9400    1.7060   18.5060 C   0  0  0  0  0  0  0  0  0  0  0  0
    5.3360    0.8000   21.1530 C   0  0  0  0  0  0  0  0  0  0  0  0
    8.3310   -2.7170   25.3430 C   0  0  0  0  0  0  0  0  0  0  0  0
   10.2570   -3.5000   24.1350 C   0  0  0  0  0  0  0  0  0  0  0  0
   12.3139    2.2980   23.4429 C   0  0  0  0  0  0  0  0  0  0  0  0
   12.3972    0.1128   23.2127 C   0  0  0  0  0  0  0  0  0  0  0  0
    7.6830   -0.5170   18.7600 C   0  0  0  0  0  0  0  0  0  0  0  0
    9.3300   -1.3350   23.6390 C   0  0  0  0  0  0  0  0  0  0  0  0
   11.5145    1.1392   23.4448 C   0  0  0  0  0  0  0  0  0  0  0  0
    5.9810    0.8330   18.8060 C   0  0  0  0  0  0  0  0  0  0  0  0
    6.1600    0.3870   20.1140 C   0  0  0  0  0  0  0  0  0  0  0  0
    9.2850   -3.7090   25.1090 C   0  0  0  0  0  0  0  0  0  0  0  0
    8.9510    0.1280   21.6880 C   0  0  0  0  0  0  0  0  0  0  0  0
    7.3211   -6.8875   26.5227 C   0  0  0  0  0  0  0  0  0  0  0  0
    7.3523   -5.5278   27.2244 C   0  0  0  0  0  0  0  0  0  0  0  0
    7.9422   -6.8107   25.1261 C   0  0  0  0  0  0  0  0  0  0  0  0
    8.7641   -4.9418   27.2163 C   0  0  0  0  0  0  0  0  0  0  0  0
    9.3411   -6.1879   25.1670 C   0  0  0  0  0  0  0  0  0  0  0  0
   14.8733    0.0190   22.8400 C   0  0  0  0  0  0  0  0  0  0  0  0
   10.0220    1.0430   23.6570 C   0  0  0  0  0  0  0  0  0  0  0  0
    9.4200   -0.0840   22.9530 C   0  0  1  0  0  0  0  0  0  0  0  0
   13.6051    2.0333   23.2269 N   0  0  0  0  0  0  0  0  0  0  0  0
    6.9440    0.2550   18.0100 N   0  0  0  0  0  0  0  0  0  0  0  0
   13.6239    0.6964   23.0910 N   0  0  0  0  0  0  0  0  0  0  0  0
    7.2210   -0.4620   20.0350 N   0  0  0  0  0  0  0  0  0  0  0  0
    9.2641   -4.8861   25.8398 N   0  0  0  0  0  0  0  0  0  0  0  0
    8.0810   -0.9750   21.0820 N   0  0  0  0  0  0  0  0  0  0  0  0
    9.1870    1.1500   21.0630 O   0  0  0  0  0  0  0  0  0  0  0  0
    3.2711    2.7870   19.3201 H   0  0  0  0  0  0  0  0  0  0  0  0
    3.6263    2.0082   21.6284 H   0  0  0  0  0  0  0  0  0  0  0  0
    7.5957   -0.7779   24.7973 H   0  0  0  0  0  0  0  0  0  0  0  0
   11.0384   -2.1852   22.6338 H   0  0  0  0  0  0  0  0  0  0  0  0
    4.7816    2.0660   17.4901 H   0  0  0  0  0  0  0  0  0  0  0  0
    5.4934    0.4579   22.1787 H   0  0  0  0  0  0  0  0  0  0  0  0
    7.5634   -2.8637   26.1037 H   0  0  0  0  0  0  0  0  0  0  0  0
   11.0139   -4.2645   23.9419 H   0  0  0  0  0  0  0  0  0  0  0  0
   12.0117    3.3252   23.5906 H   0  0  0  0  0  0  0  0  0  0  0  0
   12.2606   -0.9567   23.1272 H   0  0  0  0  0  0  0  0  0  0  0  0
    8.5166   -1.1054   18.4533 H   0  0  0  0  0  0  0  0  0  0  0  0
    7.8644   -7.6283   27.1289 H   0  0  0  0  0  0  0  0  0  0  0  0
    6.2830   -7.2423   26.4478 H   0  0  0  0  0  0  0  0  0  0  0  0
    6.6663   -4.8405   26.7221 H   0  0  0  0  0  0  0  0  0  0  0  0
    7.0062   -5.6400   28.2540 H   0  0  0  0  0  0  0  0  0  0  0  0
    8.0018   -7.8160   24.6962 H   0  0  0  0  0  0  0  0  0  0  0  0
    7.2963   -6.2182   24.4678 H   0  0  0  0  0  0  0  0  0  0  0  0
    8.7322   -3.9404   27.6532 H   0  0  0  0  0  0  0  0  0  0  0  0
    9.4260   -5.5610   27.8283 H   0  0  0  0  0  0  0  0  0  0  0  0
   10.0249   -6.8474   25.7028 H   0  0  0  0  0  0  0  0  0  0  0  0
    9.7015   -6.0700   24.1446 H   0  0  0  0  0  0  0  0  0  0  0  0
   15.0151   -0.0371   21.7575 H   0  0  0  0  0  0  0  0  0  0  0  0
   15.6904    0.5783   23.3041 H   0  0  0  0  0  0  0  0  0  0  0  0
   14.8341   -0.9840   23.2740 H   0  0  0  0  0  0  0  0  0  0  0  0
    9.8382    0.9666   24.7377 H   0  0  0  0  0  0  0  0  0  0  0  0
    9.5448    1.9843   23.3535 H   0  0  0  0  0  0  0  0  0  0  0  0
    8.1249    0.3211   23.4916 H   0  0  0  0  0  0  0  0  0  0  0  0
    8.1256   -1.8039   21.3539 H   0  0  0  0  0  0  0  0  0  0  0  0
  1  2  1  0  0  0  0
  1  5  2  0  0  0  0
  2  6  2  0  0  0  0
  3  7  2  0  0  0  0
  3 12  1  0  0  0  0
  4  8  1  0  0  0  0
  4 12  2  0  0  0  0
  5 14  1  0  0  0  0
  6 15  1  0  0  0  0
  7 16  1  0  0  0  0
  8 16  2  0  0  0  0
  9 13  1  0  0  0  0
  9 26  2  0  0  0  0
 10 13  2  0  0  0  0
 10 28  1  0  0  0  0
 11 27  2  0  0  0  0
 11 29  1  0  0  0  0
 12 25  1  0  0  0  0
 13 24  1  0  0  0  0
 14 15  2  0  0  0  0
 14 27  1  0  0  0  0
 15 29  1  0  0  0  0
 16 30  1  0  0  0  0
 17 25  1  0  0  0  0
 17 31  1  0  0  0  0
 17 32  2  0  0  0  0
 18 19  1  0  0  0  0
 18 20  1  0  0  0  0
 19 21  1  0  0  0  0
 20 22  1  0  0  0  0
 21 30  1  0  0  0  0
 22 30  1  0  0  0  0
 23 28  1  0  0  0  0
 24 25  1  1  0  0  0
 26 28  1  0  0  0  0
 29 31  1  0  0  0  0
  1 33  1  0  0  0  0
  2 34  1  0  0  0  0
  3 35  1  0  0  0  0
  4 36  1  0  0  0  0
  5 37  1  0  0  0  0
  6 38  1  0  0  0  0
  7 39  1  0  0  0  0
  8 40  1  0  0  0  0
  9 41  1  0  0  0  0
 10 42  1  0  0  0  0
 11 43  1  0  0  0  0
 18 44  1  0  0  0  0
 18 45  1  0  0  0  0
 19 46  1  0  0  0  0
 19 47  1  0  0  0  0
 20 48  1  0  0  0  0
 20 49  1  0  0  0  0
 21 50  1  0  0  0  0
 21 51  1  0  0  0  0
 22 52  1  0  0  0  0
 22 53  1  0  0  0  0
 23 54  1  0  0  0  0
 23 55  1  0  0  0  0
 23 56  1  0  0  0  0
 24 57  1  0  0  0  0
 24 58  1  0  0  0  0
 25 59  1  0  0  0  0
 31 60  1  0  0  0  0
M  END
> <clash_score>
0

> <docking_score>
-9.262737274169922

> <overlap_score>
1.0270172357559204

$$$$
BENZO_206_2
  -OEChem-08222022403D

 60 64  0     1  0  0  0  0  0999 V2000
    4.0980    2.1130   19.5350 C   0  0  0  0  0  0  0  0  0  0  0  0
    4.2970    1.6690   20.8430 C   0  0  0  0  0  0  0  0  0  0  0  0
   13.7638    0.5686   24.1170 C   0  0  0  0  0  0  0  0  0  0  0  0
   12.3856    0.4811   24.3130 C   0  0  0  0  0  0  0  0  0  0  0  0
    8.3510   -1.5420   24.6110 C   0  0  0  0  0  0  0  0  0  0  0  0
   10.2760   -2.3270   23.4020 C   0  0  0  0  0  0  0  0  0  0  0  0
    4.9400    1.7060   18.5060 C   0  0  0  0  0  0  0  0  0  0  0  0
    5.3360    0.8000   21.1530 C   0  0  0  0  0  0  0  0  0  0  0  0
    8.3310   -2.7170   25.3430 C   0  0  0  0  0  0  0  0  0  0  0  0
   10.2570   -3.5000   24.1350 C   0  0  0  0  0  0  0  0  0  0  0  0
   14.2710    1.3141   23.0527 C   0  0  0  0  0  0  0  0  0  0  0  0
   12.0217    1.8847   22.3805 C   0  0  0  0  0  0  0  0  0  0  0  0
    7.6830   -0.5170   18.7600 C   0  0  0  0  0  0  0  0  0  0  0  0
    9.3300   -1.3350   23.6390 C   0  0  0  0  0  0  0  0  0  0  0  0
   11.5145    1.1392   23.4448 C   0  0  0  0  0  0  0  0  0  0  0  0
    5.9810    0.8330   18.8060 C   0  0  0  0  0  0  0  0  0  0  0  0
    6.1600    0.3870   20.1140 C   0  0  0  0  0  0  0  0  0  0  0  0
    9.2850   -3.7090   25.1090 C   0  0  0  0  0  0  0  0  0  0  0  0
   13.3999    1.9722   22.1845 C   0  0  0  0  0  0  0  0  0  0  0  0
    8.9510    0.1280   21.6880 C   0  0  0  0  0  0  0  0  0  0  0  0
    7.3211   -6.8875   26.5227 C   0  0  0  0  0  0  0  0  0  0  0  0
    7.3523   -5.5278   27.2244 C   0  0  0  0  0  0  0  0  0  0  0  0
    7.9422   -6.8107   25.1261 C   0  0  0  0  0  0  0  0  0  0  0  0
    8.7641   -4.9418   27.2163 C   0  0  0  0  0  0  0  0  0  0  0  0
    9.3411   -6.1879   25.1670 C   0  0  0  0  0  0  0  0  0  0  0  0
   10.0220    1.0430   23.6570 C   0  0  0  0  0  0  0  0  0  0  0  0
    9.4200   -0.0840   22.9530 C   0  0  2  0  0  0  0  0  0  0  0  0
    6.9440    0.2550   18.0100 N   0  0  0  0  0  0  0  0  0  0  0  0
    7.2210   -0.4620   20.0350 N   0  0  0  0  0  0  0  0  0  0  0  0
    9.2641   -4.8861   25.8398 N   0  0  0  0  0  0  0  0  0  0  0  0
    8.0810   -0.9750   21.0820 N   0  0  0  0  0  0  0  0  0  0  0  0
    9.1870    1.1500   21.0630 O   0  0  0  0  0  0  0  0  0  0  0  0
   14.0262    2.8909   20.8709 Cl  0  0  0  0  0  0  0  0  0  0  0  0
    3.2711    2.7870   19.3201 H   0  0  0  0  0  0  0  0  0  0  0  0
    3.6263    2.0082   21.6284 H   0  0  0  0  0  0  0  0  0  0  0  0
   14.4418    0.0559   24.7932 H   0  0  0  0  0  0  0  0  0  0  0  0
   11.9993   -0.1021   25.1449 H   0  0  0  0  0  0  0  0  0  0  0  0
    7.5957   -0.7779   24.7973 H   0  0  0  0  0  0  0  0  0  0  0  0
   11.0384   -2.1852   22.6338 H   0  0  0  0  0  0  0  0  0  0  0  0
    4.7816    2.0660   17.4901 H   0  0  0  0  0  0  0  0  0  0  0  0
    5.4934    0.4579   22.1787 H   0  0  0  0  0  0  0  0  0  0  0  0
    7.5634   -2.8637   26.1037 H   0  0  0  0  0  0  0  0  0  0  0  0
   11.0139   -4.2645   23.9419 H   0  0  0  0  0  0  0  0  0  0  0  0
   15.3475    1.3732   22.9119 H   0  0  0  0  0  0  0  0  0  0  0  0
   11.3384    2.3963   21.7066 H   0  0  0  0  0  0  0  0  0  0  0  0
    8.5166   -1.1054   18.4533 H   0  0  0  0  0  0  0  0  0  0  0  0
    7.8644   -7.6283   27.1289 H   0  0  0  0  0  0  0  0  0  0  0  0
    6.2830   -7.2423   26.4478 H   0  0  0  0  0  0  0  0  0  0  0  0
    6.6663   -4.8405   26.7221 H   0  0  0  0  0  0  0  0  0  0  0  0
    7.0062   -5.6400   28.2540 H   0  0  0  0  0  0  0  0  0  0  0  0
    8.0018   -7.8160   24.6962 H   0  0  0  0  0  0  0  0  0  0  0  0
    7.2963   -6.2182   24.4678 H   0  0  0  0  0  0  0  0  0  0  0  0
    8.7322   -3.9404   27.6532 H   0  0  0  0  0  0  0  0  0  0  0  0
    9.4260   -5.5610   27.8283 H   0  0  0  0  0  0  0  0  0  0  0  0
   10.0249   -6.8474   25.7028 H   0  0  0  0  0  0  0  0  0  0  0  0
    9.7015   -6.0700   24.1446 H   0  0  0  0  0  0  0  0  0  0  0  0
    9.8382    0.9666   24.7377 H   0  0  0  0  0  0  0  0  0  0  0  0
    9.5448    1.9843   23.3535 H   0  0  0  0  0  0  0  0  0  0  0  0
    8.1249    0.3211   23.4916 H   0  0  0  0  0  0  0  0  0  0  0  0
    8.1256   -1.8039   21.3539 H   0  0  0  0  0  0  0  0  0  0  0  0
  1  2  1  0  0  0  0
  1  7  2  0  0  0  0
  2  8  2  0  0  0  0
  3  4  2  0  0  0  0
  3 11  1  0  0  0  0
  4 15  1  0  0  0  0
  5  9  2  0  0  0  0
  5 14  1  0  0  0  0
  6 10  1  0  0  0  0
  6 14  2  0  0  0  0
  7 16  1  0  0  0  0
  8 17  1  0  0  0  0
  9 18  1  0  0  0  0
 10 18  2  0  0  0  0
 11 19  2  0  0  0  0
 12 15  2  0  0  0  0
 12 19  1  0  0  0  0
 13 28  2  0  0  0  0
 13 29  1  0  0  0  0
 14 27  1  0  0  0  0
 15 26  1  0  0  0  0
 16 17  2  0  0  0  0
 16 28  1  0  0  0  0
 17 29  1  0  0  0  0
 18 30  1  0  0  0  0
 19 33  1  0  0  0  0
 20 27  1  6  0  0  0
 20 31  1  0  0  0  0
 20 32  2  0  0  0  0
 21 22  1  0  0  0  0
 21 23  1  0  0  0  0
 22 24  1  0  0  0  0
 23 25  1  0  0  0  0
 24 30  1  0  0  0  0
 25 30  1  0  0  0  0
 26 27  1  0  0  0  0
 29 31  1  0  0  0  0
  1 34  1  0  0  0  0
  2 35  1  0  0  0  0
  3 36  1  0  0  0  0
  4 37  1  0  0  0  0
  5 38  1  0  0  0  0
  6 39  1  0  0  0  0
  7 40  1  0  0  0  0
  8 41  1  0  0  0  0
  9 42  1  0  0  0  0
 10 43  1  0  0  0  0
 11 44  1  0  0  0  0
 12 45  1  0  0  0  0
 13 46  1  0  0  0  0
 21 47  1  0  0  0  0
 21 48  1  0  0  0  0
 22 49  1  0  0  0  0
 22 50  1  0  0  0  0
 23 51  1  0  0  0  0
 23 52  1  0  0  0  0
 24 53  1  0  0  0  0
 24 54  1  0  0  0  0
 25 55  1  0  0  0  0
 25 56  1  0  0  0  0
 26 57  1  0  0  0  0
 26 58  1  0  0  0  0
 27 59  1  0  0  0  0
 31 60  1  0  0  0  0
M  END
> <clash_score>
0

> <docking_score>
-7.735222339630127

> <overlap_score>
1.0283714532852173

$$$$
BENZO_211_1
  -OEChem-08222022403D

 48 51  0     1  0  0  0  0  0999 V2000
    4.0980    2.1130   19.5350 C   0  0  0  0  0  0  0  0  0  0  0  0
    4.2970    1.6690   20.8430 C   0  0  0  0  0  0  0  0  0  0  0  0
    8.3310   -2.7170   25.3430 C   0  0  0  0  0  0  0  0  0  0  0  0
   10.2570   -3.5000   24.1350 C   0  0  0  0  0  0  0  0  0  0  0  0
    8.3510   -1.5420   24.6110 C   0  0  0  0  0  0  0  0  0  0  0  0
   10.2760   -2.3270   23.4020 C   0  0  0  0  0  0  0  0  0  0  0  0
    4.9400    1.7060   18.5060 C   0  0  0  0  0  0  0  0  0  0  0  0
    5.3360    0.8000   21.1530 C   0  0  0  0  0  0  0  0  0  0  0  0
   12.3042    2.3166   23.4491 C   0  0  0  0  0  0  0  0  0  0  0  0
   12.4050    0.1328   23.2128 C   0  0  0  0  0  0  0  0  0  0  0  0
    7.6830   -0.5170   18.7600 C   0  0  0  0  0  0  0  0  0  0  0  0
    9.2850   -3.7090   25.1090 C   0  0  0  0  0  0  0  0  0  0  0  0
    9.3300   -1.3350   23.6390 C   0  0  0  0  0  0  0  0  0  0  0  0
   11.5140    1.1515   23.4468 C   0  0  0  0  0  0  0  0  0  0  0  0
    5.9810    0.8330   18.8060 C   0  0  0  0  0  0  0  0  0  0  0  0
    6.1600    0.3870   20.1140 C   0  0  0  0  0  0  0  0  0  0  0  0
    8.9510    0.1280   21.6880 C   0  0  0  0  0  0  0  0  0  0  0  0
    9.2618   -4.9724   25.8910 C   0  0  0  0  0  0  0  0  0  0  0  0
   14.8822    0.0595   22.8428 C   0  0  0  0  0  0  0  0  0  0  0  0
   10.0220    1.0430   23.6570 C   0  0  0  0  0  0  0  0  0  0  0  0
    9.4200   -0.0840   22.9530 C   0  0  1  0  0  0  0  0  0  0  0  0
   13.5977    2.0627   23.2339 N   0  0  0  0  0  0  0  0  0  0  0  0
    6.9440    0.2550   18.0100 N   0  0  0  0  0  0  0  0  0  0  0  0
   13.6272    0.7264   23.0942 N   0  0  0  0  0  0  0  0  0  0  0  0
    7.2210   -0.4620   20.0350 N   0  0  0  0  0  0  0  0  0  0  0  0
    8.0810   -0.9750   21.0820 N   0  0  0  0  0  0  0  0  0  0  0  0
    9.1870    1.1500   21.0630 O   0  0  0  0  0  0  0  0  0  0  0  0
    3.2711    2.7870   19.3201 H   0  0  0  0  0  0  0  0  0  0  0  0
    3.6262    2.0082   21.6284 H   0  0  0  0  0  0  0  0  0  0  0  0
    7.5655   -2.8644   26.1055 H   0  0  0  0  0  0  0  0  0  0  0  0
   11.0125   -4.2662   23.9435 H   0  0  0  0  0  0  0  0  0  0  0  0
    7.5953   -0.7782   24.7971 H   0  0  0  0  0  0  0  0  0  0  0  0
   11.0394   -2.1837   22.6349 H   0  0  0  0  0  0  0  0  0  0  0  0
    4.7816    2.0660   17.4901 H   0  0  0  0  0  0  0  0  0  0  0  0
    5.4934    0.4579   22.1787 H   0  0  0  0  0  0  0  0  0  0  0  0
   11.9938    3.3409   23.5993 H   0  0  0  0  0  0  0  0  0  0  0  0
   12.2768   -0.9376   23.1242 H   0  0  0  0  0  0  0  0  0  0  0  0
    8.5166   -1.1054   18.4533 H   0  0  0  0  0  0  0  0  0  0  0  0
    8.6408   -5.7227   25.3864 H   0  0  0  0  0  0  0  0  0  0  0  0
   10.2726   -5.3829   26.0135 H   0  0  0  0  0  0  0  0  0  0  0  0
    8.8606   -4.8102   26.9000 H   0  0  0  0  0  0  0  0  0  0  0  0
   15.0256    0.0076   21.7603 H   0  0  0  0  0  0  0  0  0  0  0  0
   15.6943    0.6239   23.3094 H   0  0  0  0  0  0  0  0  0  0  0  0
   14.8503   -0.9450   23.2739 H   0  0  0  0  0  0  0  0  0  0  0  0
    9.8388    0.9439   24.7360 H   0  0  0  0  0  0  0  0  0  0  0  0
    9.5396    1.9876   23.3725 H   0  0  0  0  0  0  0  0  0  0  0  0
    8.1264    0.3141   23.4937 H   0  0  0  0  0  0  0  0  0  0  0  0
    8.1515   -1.8050   21.3815 H   0  0  0  0  0  0  0  0  0  0  0  0
  1  2  1  0  0  0  0
  1  7  2  0  0  0  0
  2  8  2  0  0  0  0
  3  5  2  0  0  0  0
  3 12  1  0  0  0  0
  4  6  1  0  0  0  0
  4 12  2  0  0  0  0
  5 13  1  0  0  0  0
  6 13  2  0  0  0  0
  7 15  1  0  0  0  0
  8 16  1  0  0  0  0
  9 14  1  0  0  0  0
  9 22  2  0  0  0  0
 10 14  2  0  0  0  0
 10 24  1  0  0  0  0
 11 23  2  0  0  0  0
 11 25  1  0  0  0  0
 12 18  1  0  0  0  0
 13 21  1  0  0  0  0
 14 20  1  0  0  0  0
 15 16  2  0  0  0  0
 15 23  1  0  0  0  0
 16 25  1  0  0  0  0
 17 21  1  0  0  0  0
 17 26  1  0  0  0  0
 17 27  2  0  0  0  0
 19 24  1  0  0  0  0
 20 21  1  1  0  0  0
 22 24  1  0  0  0  0
 25 26  1  0  0  0  0
  1 28  1  0  0  0  0
  2 29  1  0  0  0  0
  3 30  1  0  0  0  0
  4 31  1  0  0  0  0
  5 32  1  0  0  0  0
  6 33  1  0  0  0  0
  7 34  1  0  0  0  0
  8 35  1  0  0  0  0
  9 36  1  0  0  0  0
 10 37  1  0  0  0  0
 11 38  1  0  0  0  0
 18 39  1  0  0  0  0
 18 40  1  0  0  0  0
 18 41  1  0  0  0  0
 19 42  1  0  0  0  0
 19 43  1  0  0  0  0
 19 44  1  0  0  0  0
 20 45  1  0  0  0  0
 20 46  1  0  0  0  0
 21 47  1  0  0  0  0
 26 48  1  0  0  0  0
M  END
> <clash_score>
0

> <docking_score>
-10.226590156555176

> <overlap_score>
0.9835363626480103

$$$$
BENZO_211_2
  -OEChem-08222022403D

 48 51  0     1  0  0  0  0  0999 V2000
    4.0980    2.1130   19.5350 C   0  0  0  0  0  0  0  0  0  0  0  0
    4.2970    1.6690   20.8430 C   0  0  0  0  0  0  0  0  0  0  0  0
    8.3310   -2.7170   25.3430 C   0  0  0  0  0  0  0  0  0  0  0  0
   10.2570   -3.5000   24.1350 C   0  0  0  0  0  0  0  0  0  0  0  0
    8.3510   -1.5420   24.6110 C   0  0  0  0  0  0  0  0  0  0  0  0
   10.2760   -2.3270   23.4020 C   0  0  0  0  0  0  0  0  0  0  0  0
    4.9400    1.7060   18.5060 C   0  0  0  0  0  0  0  0  0  0  0  0
    5.3360    0.8000   21.1530 C   0  0  0  0  0  0  0  0  0  0  0  0
   12.4581    1.4918   22.7981 C   0  0  0  0  0  0  0  0  0  0  0  0
   10.9018    2.8185   21.9903 C   0  0  0  0  0  0  0  0  0  0  0  0
    7.6830   -0.5170   18.7600 C   0  0  0  0  0  0  0  0  0  0  0  0
    9.2850   -3.7090   25.1090 C   0  0  0  0  0  0  0  0  0  0  0  0
    9.3300   -1.3350   23.6390 C   0  0  0  0  0  0  0  0  0  0  0  0
   11.0769    1.7595   22.8472 C   0  0  0  0  0  0  0  0  0  0  0  0
    5.9810    0.8330   18.8060 C   0  0  0  0  0  0  0  0  0  0  0  0
    6.1600    0.3870   20.1140 C   0  0  0  0  0  0  0  0  0  0  0  0
    8.9510    0.1280   21.6880 C   0  0  0  0  0  0  0  0  0  0  0  0
    9.2618   -4.9724   25.8910 C   0  0  0  0  0  0  0  0  0  0  0  0
   12.4642    4.1525   20.5557 C   0  0  0  0  0  0  0  0  0  0  0  0
   10.0220    1.0430   23.6570 C   0  0  0  0  0  0  0  0  0  0  0  0
    9.4200   -0.0840   22.9530 C   0  0  2  0  0  0  0  0  0  0  0  0
   13.1138    2.3143   21.9750 N   0  0  0  0  0  0  0  0  0  0  0  0
    6.9440    0.2550   18.0100 N   0  0  0  0  0  0  0  0  0  0  0  0
   12.1404    3.1092   21.4989 N   0  0  0  0  0  0  0  0  0  0  0  0
    7.2210   -0.4620   20.0350 N   0  0  0  0  0  0  0  0  0  0  0  0
    8.0810   -0.9750   21.0820 N   0  0  0  0  0  0  0  0  0  0  0  0
    9.1870    1.1500   21.0630 O   0  0  0  0  0  0  0  0  0  0  0  0
    3.2711    2.7870   19.3201 H   0  0  0  0  0  0  0  0  0  0  0  0
    3.6262    2.0082   21.6284 H   0  0  0  0  0  0  0  0  0  0  0  0
    7.5655   -2.8644   26.1055 H   0  0  0  0  0  0  0  0  0  0  0  0
   11.0125   -4.2662   23.9435 H   0  0  0  0  0  0  0  0  0  0  0  0
    7.5953   -0.7782   24.7971 H   0  0  0  0  0  0  0  0  0  0  0  0
   11.0394   -2.1837   22.6349 H   0  0  0  0  0  0  0  0  0  0  0  0
    4.7816    2.0660   17.4901 H   0  0  0  0  0  0  0  0  0  0  0  0
    5.4934    0.4579   22.1787 H   0  0  0  0  0  0  0  0  0  0  0  0
   13.0162    0.7316   23.3262 H   0  0  0  0  0  0  0  0  0  0  0  0
   10.0229    3.3754   21.6946 H   0  0  0  0  0  0  0  0  0  0  0  0
    8.5166   -1.1054   18.4533 H   0  0  0  0  0  0  0  0  0  0  0  0
    8.6408   -5.7227   25.3864 H   0  0  0  0  0  0  0  0  0  0  0  0
   10.2726   -5.3829   26.0135 H   0  0  0  0  0  0  0  0  0  0  0  0
    8.8606   -4.8102   26.9000 H   0  0  0  0  0  0  0  0  0  0  0  0
   12.6964    5.0586   21.1216 H   0  0  0  0  0  0  0  0  0  0  0  0
   13.3249    3.8459   19.9548 H   0  0  0  0  0  0  0  0  0  0  0  0
   11.6087    4.3213   19.8958 H   0  0  0  0  0  0  0  0  0  0  0  0
   10.4909    0.6894   24.5858 H   0  0  0  0  0  0  0  0  0  0  0  0
    9.2554    1.7595   23.9807 H   0  0  0  0  0  0  0  0  0  0  0  0
   10.7193   -0.4348   22.4312 H   0  0  0  0  0  0  0  0  0  0  0  0
    8.1515   -1.8050   21.3815 H   0  0  0  0  0  0  0  0  0  0  0  0
  1  2  1  0  0  0  0
  1  7  2  0  0  0  0
  2  8  2  0  0  0  0
  3  5  2  0  0  0  0
  3 12  1  0  0  0  0
  4  6  1  0  0  0  0
  4 12  2  0  0  0  0
  5 13  1  0  0  0  0
  6 13  2  0  0  0  0
  7 15  1  0  0  0  0
  8 16  1  0  0  0  0
  9 14  1  0  0  0  0
  9 22  2  0  0  0  0
 10 14  2  0  0  0  0
 10 24  1  0  0  0  0
 11 23  2  0  0  0  0
 11 25  1  0  0  0  0
 12 18  1  0  0  0  0
 13 21  1  0  0  0  0
 14 20  1  0  0  0  0
 15 16  2  0  0  0  0
 15 23  1  0  0  0  0
 16 25  1  0  0  0  0
 17 21  1  0  0  0  0
 17 26  1  0  0  0  0
 17 27  2  0  0  0  0
 19 24  1  0  0  0  0
 20 21  1  6  0  0  0
 22 24  1  0  0  0  0
 25 26  1  0  0  0  0
  1 28  1  0  0  0  0
  2 29  1  0  0  0  0
  3 30  1  0  0  0  0
  4 31  1  0  0  0  0
  5 32  1  0  0  0  0
  6 33  1  0  0  0  0
  7 34  1  0  0  0  0
  8 35  1  0  0  0  0
  9 36  1  0  0  0  0
 10 37  1  0  0  0  0
 11 38  1  0  0  0  0
 18 39  1  0  0  0  0
 18 40  1  0  0  0  0
 18 41  1  0  0  0  0
 19 42  1  0  0  0  0
 19 43  1  0  0  0  0
 19 44  1  0  0  0  0
 20 45  1  0  0  0  0
 20 46  1  0  0  0  0
 21 47  1  0  0  0  0
 26 48  1  0  0  0  0
M  END
> <clash_score>
0

> <docking_score>
-9.015714645385742

> <overlap_score>
0.9341381788253784

$$$$
BENZO_210_1
  -OEChem-08222022403D

 48 51  0     1  0  0  0  0  0999 V2000
    4.0980    2.1130   19.5350 C   0  0  0  0  0  0  0  0  0  0  0  0
    4.2970    1.6690   20.8430 C   0  0  0  0  0  0  0  0  0  0  0  0
   13.7669    0.5967   24.1200 C   0  0  0  0  0  0  0  0  0  0  0  0
   12.3892    0.4979   24.3142 C   0  0  0  0  0  0  0  0  0  0  0  0
    8.3310   -2.7170   25.3430 C   0  0  0  0  0  0  0  0  0  0  0  0
   10.2570   -3.5000   24.1350 C   0  0  0  0  0  0  0  0  0  0  0  0
    8.3510   -1.5420   24.6110 C   0  0  0  0  0  0  0  0  0  0  0  0
   10.2760   -2.3270   23.4020 C   0  0  0  0  0  0  0  0  0  0  0  0
    4.9400    1.7060   18.5060 C   0  0  0  0  0  0  0  0  0  0  0  0
    5.3360    0.8000   21.1530 C   0  0  0  0  0  0  0  0  0  0  0  0
   14.2694    1.3493   23.0584 C   0  0  0  0  0  0  0  0  0  0  0  0
   12.0165    1.9040   22.3852 C   0  0  0  0  0  0  0  0  0  0  0  0
    7.6830   -0.5170   18.7600 C   0  0  0  0  0  0  0  0  0  0  0  0
    9.2850   -3.7090   25.1090 C   0  0  0  0  0  0  0  0  0  0  0  0
    9.3300   -1.3350   23.6390 C   0  0  0  0  0  0  0  0  0  0  0  0
   11.5140    1.1515   23.4468 C   0  0  0  0  0  0  0  0  0  0  0  0
    5.9810    0.8330   18.8060 C   0  0  0  0  0  0  0  0  0  0  0  0
    6.1600    0.3870   20.1140 C   0  0  0  0  0  0  0  0  0  0  0  0
   13.3942    2.0028   22.1910 C   0  0  0  0  0  0  0  0  0  0  0  0
    8.9510    0.1280   21.6880 C   0  0  0  0  0  0  0  0  0  0  0  0
    9.2618   -4.9724   25.8910 C   0  0  0  0  0  0  0  0  0  0  0  0
   10.0220    1.0430   23.6570 C   0  0  0  0  0  0  0  0  0  0  0  0
    9.4200   -0.0840   22.9530 C   0  0  1  0  0  0  0  0  0  0  0  0
    6.9440    0.2550   18.0100 N   0  0  0  0  0  0  0  0  0  0  0  0
    7.2210   -0.4620   20.0350 N   0  0  0  0  0  0  0  0  0  0  0  0
    8.0810   -0.9750   21.0820 N   0  0  0  0  0  0  0  0  0  0  0  0
    9.1870    1.1500   21.0630 O   0  0  0  0  0  0  0  0  0  0  0  0
   14.0147    2.9302   20.8808 Cl  0  0  0  0  0  0  0  0  0  0  0  0
    3.2711    2.7870   19.3201 H   0  0  0  0  0  0  0  0  0  0  0  0
    3.6262    2.0082   21.6284 H   0  0  0  0  0  0  0  0  0  0  0  0
   14.4481    0.0875   24.7956 H   0  0  0  0  0  0  0  0  0  0  0  0
   12.0065   -0.0907   25.1439 H   0  0  0  0  0  0  0  0  0  0  0  0
    7.5655   -2.8644   26.1055 H   0  0  0  0  0  0  0  0  0  0  0  0
   11.0125   -4.2662   23.9435 H   0  0  0  0  0  0  0  0  0  0  0  0
    7.5953   -0.7782   24.7971 H   0  0  0  0  0  0  0  0  0  0  0  0
   11.0394   -2.1837   22.6349 H   0  0  0  0  0  0  0  0  0  0  0  0
    4.7816    2.0660   17.4901 H   0  0  0  0  0  0  0  0  0  0  0  0
    5.4934    0.4579   22.1787 H   0  0  0  0  0  0  0  0  0  0  0  0
   15.3456    1.4172   22.9191 H   0  0  0  0  0  0  0  0  0  0  0  0
   11.3299    2.4121   21.7119 H   0  0  0  0  0  0  0  0  0  0  0  0
    8.5166   -1.1054   18.4533 H   0  0  0  0  0  0  0  0  0  0  0  0
    8.6408   -5.7227   25.3864 H   0  0  0  0  0  0  0  0  0  0  0  0
   10.2726   -5.3829   26.0135 H   0  0  0  0  0  0  0  0  0  0  0  0
    8.8606   -4.8102   26.9000 H   0  0  0  0  0  0  0  0  0  0  0  0
    9.8388    0.9439   24.7360 H   0  0  0  0  0  0  0  0  0  0  0  0
    9.5396    1.9876   23.3725 H   0  0  0  0  0  0  0  0  0  0  0  0
    8.1264    0.3141   23.4937 H   0  0  0  0  0  0  0  0  0  0  0  0
    8.1515   -1.8050   21.3815 H   0  0  0  0  0  0  0  0  0  0  0  0
  1  2  1  0  0  0  0
  1  9  2  0  0  0  0
  2 10  2  0  0  0  0
  3  4  2  0  0  0  0
  3 11  1  0  0  0  0
  4 16  1  0  0  0  0
  5  7  2  0  0  0  0
  5 14  1  0  0  0  0
  6  8  1  0  0  0  0
  6 14  2  0  0  0  0
  7 15  1  0  0  0  0
  8 15  2  0  0  0  0
  9 17  1  0  0  0  0
 10 18  1  0  0  0  0
 11 19  2  0  0  0  0
 12 16  2  0  0  0  0
 12 19  1  0  0  0  0
 13 24  2  0  0  0  0
 13 25  1  0  0  0  0
 14 21  1  0  0  0  0
 15 23  1  0  0  0  0
 16 22  1  0  0  0  0
 17 18  2  0  0  0  0
 17 24  1  0  0  0  0
 18 25  1  0  0  0  0
 19 28  1  0  0  0  0
 20 23  1  0  0  0  0
 20 26  1  0  0  0  0
 20 27  2  0  0  0  0
 22 23  1  1  0  0  0
 25 26  1  0  0  0  0
  1 29  1  0  0  0  0
  2 30  1  0  0  0  0
  3 31  1  0  0  0  0
  4 32  1  0  0  0  0
  5 33  1  0  0  0  0
  6 34  1  0  0  0  0
  7 35  1  0  0  0  0
  8 36  1  0  0  0  0
  9 37  1  0  0  0  0
 10 38  1  0  0  0  0
 11 39  1  0  0  0  0
 12 40  1  0  0  0  0
 13 41  1  0  0  0  0
 21 42  1  0  0  0  0
 21 43  1  0  0  0  0
 21 44  1  0  0  0  0
 22 45  1  0  0  0  0
 22 46  1  0  0  0  0
 23 47  1  0  0  0  0
 26 48  1  0  0  0  0
M  END
> <clash_score>
0

> <docking_score>
-8.717435836791992

> <overlap_score>
0.9849194884300232

$$$$
BENZO_210_2
  -OEChem-08222022403D

 48 51  0     1  0  0  0  0  0999 V2000
    4.0980    2.1130   19.5350 C   0  0  0  0  0  0  0  0  0  0  0  0
    4.2970    1.6690   20.8430 C   0  0  0  0  0  0  0  0  0  0  0  0
   13.7731    0.6181   24.0892 C   0  0  0  0  0  0  0  0  0  0  0  0
   12.5319    0.9161   23.5268 C   0  0  0  0  0  0  0  0  0  0  0  0
    8.3310   -2.7170   25.3430 C   0  0  0  0  0  0  0  0  0  0  0  0
   10.2570   -3.5000   24.1350 C   0  0  0  0  0  0  0  0  0  0  0  0
    8.3510   -1.5420   24.6110 C   0  0  0  0  0  0  0  0  0  0  0  0
   10.2760   -2.3270   23.4020 C   0  0  0  0  0  0  0  0  0  0  0  0
    4.9400    1.7060   18.5060 C   0  0  0  0  0  0  0  0  0  0  0  0
    5.3360    0.8000   21.1530 C   0  0  0  0  0  0  0  0  0  0  0  0
   13.8481    0.1225   25.3909 C   0  0  0  0  0  0  0  0  0  0  0  0
   11.4407    0.2233   25.5680 C   0  0  0  0  0  0  0  0  0  0  0  0
    7.6830   -0.5170   18.7600 C   0  0  0  0  0  0  0  0  0  0  0  0
    9.2850   -3.7090   25.1090 C   0  0  0  0  0  0  0  0  0  0  0  0
    9.3300   -1.3350   23.6390 C   0  0  0  0  0  0  0  0  0  0  0  0
   11.3657    0.7188   24.2662 C   0  0  0  0  0  0  0  0  0  0  0  0
    5.9810    0.8330   18.8060 C   0  0  0  0  0  0  0  0  0  0  0  0
    6.1600    0.3870   20.1140 C   0  0  0  0  0  0  0  0  0  0  0  0
   12.6819   -0.0748   26.1303 C   0  0  0  0  0  0  0  0  0  0  0  0
    8.9510    0.1280   21.6880 C   0  0  0  0  0  0  0  0  0  0  0  0
    9.2618   -4.9724   25.8910 C   0  0  0  0  0  0  0  0  0  0  0  0
   10.0220    1.0430   23.6570 C   0  0  0  0  0  0  0  0  0  0  0  0
    9.4200   -0.0840   22.9530 C   0  0  2  0  0  0  0  0  0  0  0  0
    6.9440    0.2550   18.0100 N   0  0  0  0  0  0  0  0  0  0  0  0
    7.2210   -0.4620   20.0350 N   0  0  0  0  0  0  0  0  0  0  0  0
    8.0810   -0.9750   21.0820 N   0  0  0  0  0  0  0  0  0  0  0  0
    9.1870    1.1500   21.0630 O   0  0  0  0  0  0  0  0  0  0  0  0
   12.7752   -0.6851   27.7367 Cl  0  0  0  0  0  0  0  0  0  0  0  0
    3.2711    2.7870   19.3201 H   0  0  0  0  0  0  0  0  0  0  0  0
    3.6262    2.0082   21.6284 H   0  0  0  0  0  0  0  0  0  0  0  0
   14.6810    0.7720   23.5131 H   0  0  0  0  0  0  0  0  0  0  0  0
   12.4829    1.3020   22.5119 H   0  0  0  0  0  0  0  0  0  0  0  0
    7.5655   -2.8644   26.1055 H   0  0  0  0  0  0  0  0  0  0  0  0
   11.0125   -4.2662   23.9435 H   0  0  0  0  0  0  0  0  0  0  0  0
    7.5953   -0.7782   24.7971 H   0  0  0  0  0  0  0  0  0  0  0  0
   11.0394   -2.1837   22.6349 H   0  0  0  0  0  0  0  0  0  0  0  0
    4.7816    2.0660   17.4901 H   0  0  0  0  0  0  0  0  0  0  0  0
    5.4934    0.4579   22.1787 H   0  0  0  0  0  0  0  0  0  0  0  0
   14.8224   -0.1052   25.8164 H   0  0  0  0  0  0  0  0  0  0  0  0
   10.5286    0.0707   26.1402 H   0  0  0  0  0  0  0  0  0  0  0  0
    8.5166   -1.1054   18.4533 H   0  0  0  0  0  0  0  0  0  0  0  0
    8.6408   -5.7227   25.3864 H   0  0  0  0  0  0  0  0  0  0  0  0
   10.2726   -5.3829   26.0135 H   0  0  0  0  0  0  0  0  0  0  0  0
    8.8606   -4.8102   26.9000 H   0  0  0  0  0  0  0  0  0  0  0  0
    9.3544    1.3715   24.4657 H   0  0  0  0  0  0  0  0  0  0  0  0
   10.1173    1.9145   22.9956 H   0  0  0  0  0  0  0  0  0  0  0  0
   10.7193   -0.4348   22.4312 H   0  0  0  0  0  0  0  0  0  0  0  0
    8.1515   -1.8050   21.3815 H   0  0  0  0  0  0  0  0  0  0  0  0
  1  2  1  0  0  0  0
  1  9  2  0  0  0  0
  2 10  2  0  0  0  0
  3  4  2  0  0  0  0
  3 11  1  0  0  0  0
  4 16  1  0  0  0  0
  5  7  2  0  0  0  0
  5 14  1  0  0  0  0
  6  8  1  0  0  0  0
  6 14  2  0  0  0  0
  7 15  1  0  0  0  0
  8 15  2  0  0  0  0
  9 17  1  0  0  0  0
 10 18  1  0  0  0  0
 11 19  2  0  0  0  0
 12 16  2  0  0  0  0
 12 19  1  0  0  0  0
 13 24  2  0  0  0  0
 13 25  1  0  0  0  0
 14 21  1  0  0  0  0
 15 23  1  0  0  0  0
 16 22  1  0  0  0  0
 17 18  2  0  0  0  0
 17 24  1  0  0  0  0
 18 25  1  0  0  0  0
 19 28  1  0  0  0  0
 20 23  1  0  0  0  0
 20 26  1  0  0  0  0
 20 27  2  0  0  0  0
 22 23  1  6  0  0  0
 25 26  1  0  0  0  0
  1 29  1  0  0  0  0
  2 30  1  0  0  0  0
  3 31  1  0  0  0  0
  4 32  1  0  0  0  0
  5 33  1  0  0  0  0
  6 34  1  0  0  0  0
  7 35  1  0  0  0  0
  8 36  1  0  0  0  0
  9 37  1  0  0  0  0
 10 38  1  0  0  0  0
 11 39  1  0  0  0  0
 12 40  1  0  0  0  0
 13 41  1  0  0  0  0
 21 42  1  0  0  0  0
 21 43  1  0  0  0  0
 21 44  1  0  0  0  0
 22 45  1  0  0  0  0
 22 46  1  0  0  0  0
 23 47  1  0  0  0  0
 26 48  1  0  0  0  0
M  END
> <clash_score>
1.571189693698527

> <docking_score>
-7.742316722869873

> <overlap_score>
0.9036208987236023

$$$$
BENZO_213_1
  -OEChem-08222022403D

 49 52  0     1  0  0  0  0  0999 V2000
   14.2691    1.3522   23.0572 C   0  0  0  0  0  0  0  0  0  0  0  0
   13.7679    0.5995   24.1192 C   0  0  0  0  0  0  0  0  0  0  0  0
   13.3927    2.0047   22.1900 C   0  0  0  0  0  0  0  0  0  0  0  0
    4.0980    2.1130   19.5350 C   0  0  0  0  0  0  0  0  0  0  0  0
    4.2970    1.6690   20.8430 C   0  0  0  0  0  0  0  0  0  0  0  0
   12.3904    0.4991   24.3140 C   0  0  0  0  0  0  0  0  0  0  0  0
   12.0152    1.9043   22.3848 C   0  0  0  0  0  0  0  0  0  0  0  0
    8.3510   -1.5420   24.6110 C   0  0  0  0  0  0  0  0  0  0  0  0
   10.2760   -2.3270   23.4020 C   0  0  0  0  0  0  0  0  0  0  0  0
    4.9400    1.7060   18.5060 C   0  0  0  0  0  0  0  0  0  0  0  0
    5.3360    0.8000   21.1530 C   0  0  0  0  0  0  0  0  0  0  0  0
    8.3310   -2.7170   25.3430 C   0  0  0  0  0  0  0  0  0  0  0  0
   10.2570   -3.5000   24.1350 C   0  0  0  0  0  0  0  0  0  0  0  0
    7.6830   -0.5170   18.7600 C   0  0  0  0  0  0  0  0  0  0  0  0
   11.5140    1.1515   23.4468 C   0  0  0  0  0  0  0  0  0  0  0  0
    9.3300   -1.3350   23.6390 C   0  0  0  0  0  0  0  0  0  0  0  0
    5.9810    0.8330   18.8060 C   0  0  0  0  0  0  0  0  0  0  0  0
    6.1600    0.3870   20.1140 C   0  0  0  0  0  0  0  0  0  0  0  0
    9.2850   -3.7090   25.1090 C   0  0  0  0  0  0  0  0  0  0  0  0
    8.9510    0.1280   21.6880 C   0  0  0  0  0  0  0  0  0  0  0  0
    8.2359   -4.9962   26.8043 C   0  0  0  0  0  0  0  0  0  0  0  0
   10.0220    1.0430   23.6570 C   0  0  0  0  0  0  0  0  0  0  0  0
    9.4200   -0.0840   22.9530 C   0  0  1  0  0  0  0  0  0  0  0  0
    6.9440    0.2550   18.0100 N   0  0  0  0  0  0  0  0  0  0  0  0
    7.2210   -0.4620   20.0350 N   0  0  0  0  0  0  0  0  0  0  0  0
    8.0810   -0.9750   21.0820 N   0  0  0  0  0  0  0  0  0  0  0  0
    9.1870    1.1500   21.0630 O   0  0  0  0  0  0  0  0  0  0  0  0
    9.2637   -4.8607   25.8240 O   0  0  0  0  0  0  0  0  0  0  0  0
   15.3418    1.4314   22.9065 H   0  0  0  0  0  0  0  0  0  0  0  0
   14.4502    0.0923   24.7952 H   0  0  0  0  0  0  0  0  0  0  0  0
   13.7826    2.5917   21.3638 H   0  0  0  0  0  0  0  0  0  0  0  0
    3.2711    2.7870   19.3201 H   0  0  0  0  0  0  0  0  0  0  0  0
    3.6262    2.0082   21.6284 H   0  0  0  0  0  0  0  0  0  0  0  0
   12.0089   -0.0898   25.1440 H   0  0  0  0  0  0  0  0  0  0  0  0
   11.3399    2.4159   21.7041 H   0  0  0  0  0  0  0  0  0  0  0  0
    7.5962   -0.7776   24.7980 H   0  0  0  0  0  0  0  0  0  0  0  0
   11.0395   -2.1844   22.6346 H   0  0  0  0  0  0  0  0  0  0  0  0
    4.7816    2.0660   17.4901 H   0  0  0  0  0  0  0  0  0  0  0  0
    5.4934    0.4579   22.1787 H   0  0  0  0  0  0  0  0  0  0  0  0
    7.5664   -2.8672   26.1058 H   0  0  0  0  0  0  0  0  0  0  0  0
   11.0120   -4.2666   23.9463 H   0  0  0  0  0  0  0  0  0  0  0  0
    8.5166   -1.1054   18.4533 H   0  0  0  0  0  0  0  0  0  0  0  0
    8.3326   -5.9635   27.3034 H   0  0  0  0  0  0  0  0  0  0  0  0
    7.2583   -4.9194   26.3216 H   0  0  0  0  0  0  0  0  0  0  0  0
    8.3399   -4.1965   27.5413 H   0  0  0  0  0  0  0  0  0  0  0  0
    9.8388    0.9439   24.7360 H   0  0  0  0  0  0  0  0  0  0  0  0
    9.5396    1.9876   23.3725 H   0  0  0  0  0  0  0  0  0  0  0  0
    8.1264    0.3141   23.4937 H   0  0  0  0  0  0  0  0  0  0  0  0
    8.1515   -1.8050   21.3815 H   0  0  0  0  0  0  0  0  0  0  0  0
  1  2  1  0  0  0  0
  1  3  2  0  0  0  0
  2  6  2  0  0  0  0
  3  7  1  0  0  0  0
  4  5  1  0  0  0  0
  4 10  2  0  0  0  0
  5 11  2  0  0  0  0
  6 15  1  0  0  0  0
  7 15  2  0  0  0  0
  8 12  2  0  0  0  0
  8 16  1  0  0  0  0
  9 13  1  0  0  0  0
  9 16  2  0  0  0  0
 10 17  1  0  0  0  0
 11 18  1  0  0  0  0
 12 19  1  0  0  0  0
 13 19  2  0  0  0  0
 14 24  2  0  0  0  0
 14 25  1  0  0  0  0
 15 22  1  0  0  0  0
 16 23  1  0  0  0  0
 17 18  2  0  0  0  0
 17 24  1  0  0  0  0
 18 25  1  0  0  0  0
 19 28  1  0  0  0  0
 20 23  1  0  0  0  0
 20 26  1  0  0  0  0
 20 27  2  0  0  0  0
 21 28  1  0  0  0  0
 22 23  1  1  0  0  0
 25 26  1  0  0  0  0
  1 29  1  0  0  0  0
  2 30  1  0  0  0  0
  3 31  1  0  0  0  0
  4 32  1  0  0  0  0
  5 33  1  0  0  0  0
  6 34  1  0  0  0  0
  7 35  1  0  0  0  0
  8 36  1  0  0  0  0
  9 37  1  0  0  0  0
 10 38  1  0  0  0  0
 11 39  1  0  0  0  0
 12 40  1  0  0  0  0
 13 41  1  0  0  0  0
 14 42  1  0  0  0  0
 21 43  1  0  0  0  0
 21 44  1  0  0  0  0
 21 45  1  0  0  0  0
 22 46  1  0  0  0  0
 22 47  1  0  0  0  0
 23 48  1  0  0  0  0
 26 49  1  0  0  0  0
M  END
> <clash_score>
0

> <docking_score>
-9.309082984924316

> <overlap_score>
1.0053976774215698

$$$$
BENZO_213_2
  -OEChem-08222022403D

 49 52  0     1  0  0  0  0  0999 V2000
   13.8479    0.1200   25.3901 C   0  0  0  0  0  0  0  0  0  0  0  0
   12.6818   -0.0763   26.1298 C   0  0  0  0  0  0  0  0  0  0  0  0
   13.7730    0.6157   24.0884 C   0  0  0  0  0  0  0  0  0  0  0  0
    4.0980    2.1130   19.5350 C   0  0  0  0  0  0  0  0  0  0  0  0
    4.2970    1.6690   20.8430 C   0  0  0  0  0  0  0  0  0  0  0  0
   11.4407    0.2231   25.5679 C   0  0  0  0  0  0  0  0  0  0  0  0
   12.5319    0.9151   23.5265 C   0  0  0  0  0  0  0  0  0  0  0  0
    8.3510   -1.5420   24.6110 C   0  0  0  0  0  0  0  0  0  0  0  0
   10.2760   -2.3270   23.4020 C   0  0  0  0  0  0  0  0  0  0  0  0
    4.9400    1.7060   18.5060 C   0  0  0  0  0  0  0  0  0  0  0  0
    5.3360    0.8000   21.1530 C   0  0  0  0  0  0  0  0  0  0  0  0
    8.3310   -2.7170   25.3430 C   0  0  0  0  0  0  0  0  0  0  0  0
   10.2570   -3.5000   24.1350 C   0  0  0  0  0  0  0  0  0  0  0  0
    7.6830   -0.5170   18.7600 C   0  0  0  0  0  0  0  0  0  0  0  0
   11.3657    0.7188   24.2662 C   0  0  0  0  0  0  0  0  0  0  0  0
    9.3300   -1.3350   23.6390 C   0  0  0  0  0  0  0  0  0  0  0  0
    5.9810    0.8330   18.8060 C   0  0  0  0  0  0  0  0  0  0  0  0
    6.1600    0.3870   20.1140 C   0  0  0  0  0  0  0  0  0  0  0  0
    9.2850   -3.7090   25.1090 C   0  0  0  0  0  0  0  0  0  0  0  0
    8.9510    0.1280   21.6880 C   0  0  0  0  0  0  0  0  0  0  0  0
    8.2359   -4.9962   26.8043 C   0  0  0  0  0  0  0  0  0  0  0  0
   10.0220    1.0430   23.6570 C   0  0  0  0  0  0  0  0  0  0  0  0
    9.4200   -0.0840   22.9530 C   0  0  2  0  0  0  0  0  0  0  0  0
    6.9440    0.2550   18.0100 N   0  0  0  0  0  0  0  0  0  0  0  0
    7.2210   -0.4620   20.0350 N   0  0  0  0  0  0  0  0  0  0  0  0
    8.0810   -0.9750   21.0820 N   0  0  0  0  0  0  0  0  0  0  0  0
    9.1870    1.1500   21.0630 O   0  0  0  0  0  0  0  0  0  0  0  0
    9.2637   -4.8607   25.8240 O   0  0  0  0  0  0  0  0  0  0  0  0
   14.8143   -0.1119   25.8282 H   0  0  0  0  0  0  0  0  0  0  0  0
   12.7400   -0.4613   27.1437 H   0  0  0  0  0  0  0  0  0  0  0  0
   14.6807    0.7697   23.5125 H   0  0  0  0  0  0  0  0  0  0  0  0
    3.2711    2.7870   19.3201 H   0  0  0  0  0  0  0  0  0  0  0  0
    3.6262    2.0082   21.6284 H   0  0  0  0  0  0  0  0  0  0  0  0
   10.5374    0.0668   26.1517 H   0  0  0  0  0  0  0  0  0  0  0  0
   12.4832    1.3008   22.5116 H   0  0  0  0  0  0  0  0  0  0  0  0
    7.5962   -0.7776   24.7980 H   0  0  0  0  0  0  0  0  0  0  0  0
   11.0395   -2.1844   22.6346 H   0  0  0  0  0  0  0  0  0  0  0  0
    4.7816    2.0660   17.4901 H   0  0  0  0  0  0  0  0  0  0  0  0
    5.4934    0.4579   22.1787 H   0  0  0  0  0  0  0  0  0  0  0  0
    7.5664   -2.8672   26.1058 H   0  0  0  0  0  0  0  0  0  0  0  0
   11.0120   -4.2666   23.9463 H   0  0  0  0  0  0  0  0  0  0  0  0
    8.5166   -1.1054   18.4533 H   0  0  0  0  0  0  0  0  0  0  0  0
    8.3326   -5.9635   27.3034 H   0  0  0  0  0  0  0  0  0  0  0  0
    7.2583   -4.9194   26.3216 H   0  0  0  0  0  0  0  0  0  0  0  0
    8.3399   -4.1965   27.5413 H   0  0  0  0  0  0  0  0  0  0  0  0
    9.3544    1.3715   24.4657 H   0  0  0  0  0  0  0  0  0  0  0  0
   10.1173    1.9145   22.9956 H   0  0  0  0  0  0  0  0  0  0  0  0
   10.7193   -0.4348   22.4312 H   0  0  0  0  0  0  0  0  0  0  0  0
    8.1515   -1.8050   21.3815 H   0  0  0  0  0  0  0  0  0  0  0  0
  1  2  1  0  0  0  0
  1  3  2  0  0  0  0
  2  6  2  0  0  0  0
  3  7  1  0  0  0  0
  4  5  1  0  0  0  0
  4 10  2  0  0  0  0
  5 11  2  0  0  0  0
  6 15  1  0  0  0  0
  7 15  2  0  0  0  0
  8 12  2  0  0  0  0
  8 16  1  0  0  0  0
  9 13  1  0  0  0  0
  9 16  2  0  0  0  0
 10 17  1  0  0  0  0
 11 18  1  0  0  0  0
 12 19  1  0  0  0  0
 13 19  2  0  0  0  0
 14 24  2  0  0  0  0
 14 25  1  0  0  0  0
 15 22  1  0  0  0  0
 16 23  1  0  0  0  0
 17 18  2  0  0  0  0
 17 24  1  0  0  0  0
 18 25  1  0  0  0  0
 19 28  1  0  0  0  0
 20 23  1  0  0  0  0
 20 26  1  0  0  0  0
 20 27  2  0  0  0  0
 21 28  1  0  0  0  0
 22 23  1  6  0  0  0
 25 26  1  0  0  0  0
  1 29  1  0  0  0  0
  2 30  1  0  0  0  0
  3 31  1  0  0  0  0
  4 32  1  0  0  0  0
  5 33  1  0  0  0  0
  6 34  1  0  0  0  0
  7 35  1  0  0  0  0
  8 36  1  0  0  0  0
  9 37  1  0  0  0  0
 10 38  1  0  0  0  0
 11 39  1  0  0  0  0
 12 40  1  0  0  0  0
 13 41  1  0  0  0  0
 14 42  1  0  0  0  0
 21 43  1  0  0  0  0
 21 44  1  0  0  0  0
 21 45  1  0  0  0  0
 22 46  1  0  0  0  0
 22 47  1  0  0  0  0
 23 48  1  0  0  0  0
 26 49  1  0  0  0  0
M  END
> <clash_score>
0

> <docking_score>
-8.394139289855957

> <overlap_score>
0.928915798664093

$$$$
BENZO_212_1
  -OEChem-08222022403D

 46 49  0     1  0  0  0  0  0999 V2000
    4.0980    2.1130   19.5350 C   0  0  0  0  0  0  0  0  0  0  0  0
    4.2970    1.6690   20.8430 C   0  0  0  0  0  0  0  0  0  0  0  0
    8.3510   -1.5420   24.6110 C   0  0  0  0  0  0  0  0  0  0  0  0
   10.2760   -2.3270   23.4020 C   0  0  0  0  0  0  0  0  0  0  0  0
    4.9400    1.7060   18.5060 C   0  0  0  0  0  0  0  0  0  0  0  0
    5.3360    0.8000   21.1530 C   0  0  0  0  0  0  0  0  0  0  0  0
    8.3310   -2.7170   25.3430 C   0  0  0  0  0  0  0  0  0  0  0  0
   10.2570   -3.5000   24.1350 C   0  0  0  0  0  0  0  0  0  0  0  0
   12.2266    2.3852   23.4320 C   0  0  0  0  0  0  0  0  0  0  0  0
   13.5754    2.2012   23.2208 C   0  0  0  0  0  0  0  0  0  0  0  0
   12.3453    0.0714   23.2461 C   0  0  0  0  0  0  0  0  0  0  0  0
    7.6830   -0.5170   18.7600 C   0  0  0  0  0  0  0  0  0  0  0  0
    9.3300   -1.3350   23.6390 C   0  0  0  0  0  0  0  0  0  0  0  0
   11.5140    1.1515   23.4468 C   0  0  0  0  0  0  0  0  0  0  0  0
    5.9810    0.8330   18.8060 C   0  0  0  0  0  0  0  0  0  0  0  0
    6.1600    0.3870   20.1140 C   0  0  0  0  0  0  0  0  0  0  0  0
    9.2850   -3.7090   25.1090 C   0  0  0  0  0  0  0  0  0  0  0  0
    8.9510    0.1280   21.6880 C   0  0  0  0  0  0  0  0  0  0  0  0
    8.2359   -4.9962   26.8043 C   0  0  0  0  0  0  0  0  0  0  0  0
   10.0220    1.0430   23.6570 C   0  0  0  0  0  0  0  0  0  0  0  0
    9.4200   -0.0840   22.9530 C   0  0  1  0  0  0  0  0  0  0  0  0
    6.9440    0.2550   18.0100 N   0  0  0  0  0  0  0  0  0  0  0  0
    7.2210   -0.4620   20.0350 N   0  0  0  0  0  0  0  0  0  0  0  0
    8.0810   -0.9750   21.0820 N   0  0  0  0  0  0  0  0  0  0  0  0
    9.1870    1.1500   21.0630 O   0  0  0  0  0  0  0  0  0  0  0  0
    9.2637   -4.8607   25.8240 O   0  0  0  0  0  0  0  0  0  0  0  0
   13.9777    0.5464   23.0413 S   0  0  0  0  0  0  0  0  0  0  0  0
    3.2711    2.7870   19.3201 H   0  0  0  0  0  0  0  0  0  0  0  0
    3.6262    2.0082   21.6284 H   0  0  0  0  0  0  0  0  0  0  0  0
    7.5962   -0.7776   24.7980 H   0  0  0  0  0  0  0  0  0  0  0  0
   11.0395   -2.1844   22.6346 H   0  0  0  0  0  0  0  0  0  0  0  0
    4.7816    2.0660   17.4901 H   0  0  0  0  0  0  0  0  0  0  0  0
    5.4934    0.4579   22.1787 H   0  0  0  0  0  0  0  0  0  0  0  0
    7.5664   -2.8672   26.1058 H   0  0  0  0  0  0  0  0  0  0  0  0
   11.0120   -4.2666   23.9463 H   0  0  0  0  0  0  0  0  0  0  0  0
   11.7767    3.3605   23.5685 H   0  0  0  0  0  0  0  0  0  0  0  0
   14.3436    2.9592   23.1626 H   0  0  0  0  0  0  0  0  0  0  0  0
   12.0761   -0.9751   23.2080 H   0  0  0  0  0  0  0  0  0  0  0  0
    8.5166   -1.1054   18.4533 H   0  0  0  0  0  0  0  0  0  0  0  0
    8.3326   -5.9635   27.3034 H   0  0  0  0  0  0  0  0  0  0  0  0
    7.2583   -4.9194   26.3216 H   0  0  0  0  0  0  0  0  0  0  0  0
    8.3399   -4.1965   27.5413 H   0  0  0  0  0  0  0  0  0  0  0  0
    9.8388    0.9439   24.7360 H   0  0  0  0  0  0  0  0  0  0  0  0
    9.5396    1.9876   23.3725 H   0  0  0  0  0  0  0  0  0  0  0  0
    8.1264    0.3141   23.4937 H   0  0  0  0  0  0  0  0  0  0  0  0
    8.1515   -1.8050   21.3815 H   0  0  0  0  0  0  0  0  0  0  0  0
  1  2  1  0  0  0  0
  1  5  2  0  0  0  0
  2  6  2  0  0  0  0
  3  7  2  0  0  0  0
  3 13  1  0  0  0  0
  4  8  1  0  0  0  0
  4 13  2  0  0  0  0
  5 15  1  0  0  0  0
  6 16  1  0  0  0  0
  7 17  1  0  0  0  0
  8 17  2  0  0  0  0
  9 10  2  0  0  0  0
  9 14  1  0  0  0  0
 10 27  1  0  0  0  0
 11 14  2  0  0  0  0
 11 27  1  0  0  0  0
 12 22  2  0  0  0  0
 12 23  1  0  0  0  0
 13 21  1  0  0  0  0
 14 20  1  0  0  0  0
 15 16  2  0  0  0  0
 15 22  1  0  0  0  0
 16 23  1  0  0  0  0
 17 26  1  0  0  0  0
 18 21  1  0  0  0  0
 18 24  1  0  0  0  0
 18 25  2  0  0  0  0
 19 26  1  0  0  0  0
 20 21  1  1  0  0  0
 23 24  1  0  0  0  0
  1 28  1  0  0  0  0
  2 29  1  0  0  0  0
  3 30  1  0  0  0  0
  4 31  1  0  0  0  0
  5 32  1  0  0  0  0
  6 33  1  0  0  0  0
  7 34  1  0  0  0  0
  8 35  1  0  0  0  0
  9 36  1  0  0  0  0
 10 37  1  0  0  0  0
 11 38  1  0  0  0  0
 12 39  1  0  0  0  0
 19 40  1  0  0  0  0
 19 41  1  0  0  0  0
 19 42  1  0  0  0  0
 20 43  1  0  0  0  0
 20 44  1  0  0  0  0
 21 45  1  0  0  0  0
 24 46  1  0  0  0  0
M  END
> <clash_score>
0

> <docking_score>
-10.04103946685791

> <overlap_score>
0.9915130138397217

$$$$
BENZO_212_2
  -OEChem-08222022403D

 46 49  0     1  0  0  0  0  0999 V2000
    4.0980    2.1130   19.5350 C   0  0  0  0  0  0  0  0  0  0  0  0
    4.2970    1.6690   20.8430 C   0  0  0  0  0  0  0  0  0  0  0  0
    8.3510   -1.5420   24.6110 C   0  0  0  0  0  0  0  0  0  0  0  0
   10.2760   -2.3270   23.4020 C   0  0  0  0  0  0  0  0  0  0  0  0
    4.9400    1.7060   18.5060 C   0  0  0  0  0  0  0  0  0  0  0  0
    5.3360    0.8000   21.1530 C   0  0  0  0  0  0  0  0  0  0  0  0
    8.3310   -2.7170   25.3430 C   0  0  0  0  0  0  0  0  0  0  0  0
   10.2570   -3.5000   24.1350 C   0  0  0  0  0  0  0  0  0  0  0  0
   11.0339    0.9313   26.0395 C   0  0  0  0  0  0  0  0  0  0  0  0
   12.1288    0.4400   26.7157 C   0  0  0  0  0  0  0  0  0  0  0  0
   12.2175   -0.0793   24.3132 C   0  0  0  0  0  0  0  0  0  0  0  0
    7.6830   -0.5170   18.7600 C   0  0  0  0  0  0  0  0  0  0  0  0
    9.3300   -1.3350   23.6390 C   0  0  0  0  0  0  0  0  0  0  0  0
   11.0851    0.6304   24.6477 C   0  0  0  0  0  0  0  0  0  0  0  0
    5.9810    0.8330   18.8060 C   0  0  0  0  0  0  0  0  0  0  0  0
    6.1600    0.3870   20.1140 C   0  0  0  0  0  0  0  0  0  0  0  0
    9.2850   -3.7090   25.1090 C   0  0  0  0  0  0  0  0  0  0  0  0
    8.9510    0.1280   21.6880 C   0  0  0  0  0  0  0  0  0  0  0  0
    8.2359   -4.9962   26.8043 C   0  0  0  0  0  0  0  0  0  0  0  0
   10.0220    1.0430   23.6570 C   0  0  0  0  0  0  0  0  0  0  0  0
    9.4200   -0.0840   22.9530 C   0  0  2  0  0  0  0  0  0  0  0  0
    6.9440    0.2550   18.0100 N   0  0  0  0  0  0  0  0  0  0  0  0
    7.2210   -0.4620   20.0350 N   0  0  0  0  0  0  0  0  0  0  0  0
    8.0810   -0.9750   21.0820 N   0  0  0  0  0  0  0  0  0  0  0  0
    9.1870    1.1500   21.0630 O   0  0  0  0  0  0  0  0  0  0  0  0
    9.2637   -4.8607   25.8240 O   0  0  0  0  0  0  0  0  0  0  0  0
   13.2125   -0.3802   25.6739 S   0  0  0  0  0  0  0  0  0  0  0  0
    3.2711    2.7870   19.3201 H   0  0  0  0  0  0  0  0  0  0  0  0
    3.6262    2.0082   21.6284 H   0  0  0  0  0  0  0  0  0  0  0  0
    7.5962   -0.7776   24.7980 H   0  0  0  0  0  0  0  0  0  0  0  0
   11.0395   -2.1844   22.6346 H   0  0  0  0  0  0  0  0  0  0  0  0
    4.7816    2.0660   17.4901 H   0  0  0  0  0  0  0  0  0  0  0  0
    5.4934    0.4579   22.1787 H   0  0  0  0  0  0  0  0  0  0  0  0
    7.5664   -2.8672   26.1058 H   0  0  0  0  0  0  0  0  0  0  0  0
   11.0120   -4.2666   23.9463 H   0  0  0  0  0  0  0  0  0  0  0  0
   10.2365    1.4803   26.5241 H   0  0  0  0  0  0  0  0  0  0  0  0
   12.3447    0.5240   27.7715 H   0  0  0  0  0  0  0  0  0  0  0  0
   12.5125   -0.4363   23.3361 H   0  0  0  0  0  0  0  0  0  0  0  0
    8.5166   -1.1054   18.4533 H   0  0  0  0  0  0  0  0  0  0  0  0
    8.3326   -5.9635   27.3034 H   0  0  0  0  0  0  0  0  0  0  0  0
    7.2583   -4.9194   26.3216 H   0  0  0  0  0  0  0  0  0  0  0  0
    8.3399   -4.1965   27.5413 H   0  0  0  0  0  0  0  0  0  0  0  0
    9.2444    1.5932   24.2048 H   0  0  0  0  0  0  0  0  0  0  0  0
   10.4399    1.7712   22.9492 H   0  0  0  0  0  0  0  0  0  0  0  0
   10.7193   -0.4348   22.4312 H   0  0  0  0  0  0  0  0  0  0  0  0
    8.1515   -1.8050   21.3815 H   0  0  0  0  0  0  0  0  0  0  0  0
  1  2  1  0  0  0  0
  1  5  2  0  0  0  0
  2  6  2  0  0  0  0
  3  7  2  0  0  0  0
  3 13  1  0  0  0  0
  4  8  1  0  0  0  0
  4 13  2  0  0  0  0
  5 15  1  0  0  0  0
  6 16  1  0  0  0  0
  7 17  1  0  0  0  0
  8 17  2  0  0  0  0
  9 10  2  0  0  0  0
  9 14  1  0  0  0  0
 10 27  1  0  0  0  0
 11 14  2  0  0  0  0
 11 27  1  0  0  0  0
 12 22  2  0  0  0  0
 12 23  1  0  0  0  0
 13 21  1  0  0  0  0
 14 20  1  0  0  0  0
 15 16  2  0  0  0  0
 15 22  1  0  0  0  0
 16 23  1  0  0  0  0
 17 26  1  0  0  0  0
 18 21  1  0  0  0  0
 18 24  1  0  0  0  0
 18 25  2  0  0  0  0
 19 26  1  0  0  0  0
 20 21  1  6  0  0  0
 23 24  1  0  0  0  0
  1 28  1  0  0  0  0
  2 29  1  0  0  0  0
  3 30  1  0  0  0  0
  4 31  1  0  0  0  0
  5 32  1  0  0  0  0
  6 33  1  0  0  0  0
  7 34  1  0  0  0  0
  8 35  1  0  0  0  0
  9 36  1  0  0  0  0
 10 37  1  0  0  0  0
 11 38  1  0  0  0  0
 12 39  1  0  0  0  0
 19 40  1  0  0  0  0
 19 41  1  0  0  0  0
 19 42  1  0  0  0  0
 20 43  1  0  0  0  0
 20 44  1  0  0  0  0
 21 45  1  0  0  0  0
 24 46  1  0  0  0  0
M  END
> <clash_score>
0

> <docking_score>
-7.368393421173096

> <overlap_score>
0.8789636492729187

$$$$
BENZO_215_1
  -OEChem-08222022403D

 49 52  0     1  0  0  0  0  0999 V2000
    4.0980    2.1130   19.5350 C   0  0  0  0  0  0  0  0  0  0  0  0
    4.2970    1.6690   20.8430 C   0  0  0  0  0  0  0  0  0  0  0  0
    8.3510   -1.5420   24.6110 C   0  0  0  0  0  0  0  0  0  0  0  0
   10.2760   -2.3270   23.4020 C   0  0  0  0  0  0  0  0  0  0  0  0
    4.9400    1.7060   18.5060 C   0  0  0  0  0  0  0  0  0  0  0  0
    5.3360    0.8000   21.1530 C   0  0  0  0  0  0  0  0  0  0  0  0
    8.3310   -2.7170   25.3430 C   0  0  0  0  0  0  0  0  0  0  0  0
   10.2570   -3.5000   24.1350 C   0  0  0  0  0  0  0  0  0  0  0  0
   12.3042    2.3166   23.4491 C   0  0  0  0  0  0  0  0  0  0  0  0
   12.4050    0.1328   23.2128 C   0  0  0  0  0  0  0  0  0  0  0  0
    7.6830   -0.5170   18.7600 C   0  0  0  0  0  0  0  0  0  0  0  0
    9.3300   -1.3350   23.6390 C   0  0  0  0  0  0  0  0  0  0  0  0
   11.5140    1.1515   23.4468 C   0  0  0  0  0  0  0  0  0  0  0  0
    5.9810    0.8330   18.8060 C   0  0  0  0  0  0  0  0  0  0  0  0
    6.1600    0.3870   20.1140 C   0  0  0  0  0  0  0  0  0  0  0  0
    9.2850   -3.7090   25.1090 C   0  0  0  0  0  0  0  0  0  0  0  0
    8.9510    0.1280   21.6880 C   0  0  0  0  0  0  0  0  0  0  0  0
   14.8822    0.0595   22.8428 C   0  0  0  0  0  0  0  0  0  0  0  0
    8.2359   -4.9962   26.8043 C   0  0  0  0  0  0  0  0  0  0  0  0
   10.0220    1.0430   23.6570 C   0  0  0  0  0  0  0  0  0  0  0  0
    9.4200   -0.0840   22.9530 C   0  0  1  0  0  0  0  0  0  0  0  0
   13.5977    2.0627   23.2339 N   0  0  0  0  0  0  0  0  0  0  0  0
    6.9440    0.2550   18.0100 N   0  0  0  0  0  0  0  0  0  0  0  0
   13.6272    0.7264   23.0942 N   0  0  0  0  0  0  0  0  0  0  0  0
    7.2210   -0.4620   20.0350 N   0  0  0  0  0  0  0  0  0  0  0  0
    8.0810   -0.9750   21.0820 N   0  0  0  0  0  0  0  0  0  0  0  0
    9.1870    1.1500   21.0630 O   0  0  0  0  0  0  0  0  0  0  0  0
    9.2637   -4.8607   25.8240 O   0  0  0  0  0  0  0  0  0  0  0  0
    3.2711    2.7870   19.3201 H   0  0  0  0  0  0  0  0  0  0  0  0
    3.6262    2.0082   21.6284 H   0  0  0  0  0  0  0  0  0  0  0  0
    7.5962   -0.7776   24.7980 H   0  0  0  0  0  0  0  0  0  0  0  0
   11.0395   -2.1844   22.6346 H   0  0  0  0  0  0  0  0  0  0  0  0
    4.7816    2.0660   17.4901 H   0  0  0  0  0  0  0  0  0  0  0  0
    5.4934    0.4579   22.1787 H   0  0  0  0  0  0  0  0  0  0  0  0
    7.5664   -2.8672   26.1058 H   0  0  0  0  0  0  0  0  0  0  0  0
   11.0120   -4.2666   23.9463 H   0  0  0  0  0  0  0  0  0  0  0  0
   11.9938    3.3409   23.5993 H   0  0  0  0  0  0  0  0  0  0  0  0
   12.2768   -0.9376   23.1242 H   0  0  0  0  0  0  0  0  0  0  0  0
    8.5166   -1.1054   18.4533 H   0  0  0  0  0  0  0  0  0  0  0  0
   15.0256    0.0076   21.7603 H   0  0  0  0  0  0  0  0  0  0  0  0
   15.6943    0.6239   23.3094 H   0  0  0  0  0  0  0  0  0  0  0  0
   14.8503   -0.9450   23.2739 H   0  0  0  0  0  0  0  0  0  0  0  0
    8.3326   -5.9635   27.3034 H   0  0  0  0  0  0  0  0  0  0  0  0
    7.2583   -4.9194   26.3216 H   0  0  0  0  0  0  0  0  0  0  0  0
    8.3399   -4.1965   27.5413 H   0  0  0  0  0  0  0  0  0  0  0  0
    9.8388    0.9439   24.7360 H   0  0  0  0  0  0  0  0  0  0  0  0
    9.5396    1.9876   23.3725 H   0  0  0  0  0  0  0  0  0  0  0  0
    8.1264    0.3141   23.4937 H   0  0  0  0  0  0  0  0  0  0  0  0
    8.1515   -1.8050   21.3815 H   0  0  0  0  0  0  0  0  0  0  0  0
  1  2  1  0  0  0  0
  1  5  2  0  0  0  0
  2  6  2  0  0  0  0
  3  7  2  0  0  0  0
  3 12  1  0  0  0  0
  4  8  1  0  0  0  0
  4 12  2  0  0  0  0
  5 14  1  0  0  0  0
  6 15  1  0  0  0  0
  7 16  1  0  0  0  0
  8 16  2  0  0  0  0
  9 13  1  0  0  0  0
  9 22  2  0  0  0  0
 10 13  2  0  0  0  0
 10 24  1  0  0  0  0
 11 23  2  0  0  0  0
 11 25  1  0  0  0  0
 12 21  1  0  0  0  0
 13 20  1  0  0  0  0
 14 15  2  0  0  0  0
 14 23  1  0  0  0  0
 15 25  1  0  0  0  0
 16 28  1  0  0  0  0
 17 21  1  0  0  0  0
 17 26  1  0  0  0  0
 17 27  2  0  0  0  0
 18 24  1  0  0  0  0
 19 28  1  0  0  0  0
 20 21  1  1  0  0  0
 22 24  1  0  0  0  0
 25 26  1  0  0  0  0
  1 29  1  0  0  0  0
  2 30  1  0  0  0  0
  3 31  1  0  0  0  0
  4 32  1  0  0  0  0
  5 33  1  0  0  0  0
  6 34  1  0  0  0  0
  7 35  1  0  0  0  0
  8 36  1  0  0  0  0
  9 37  1  0  0  0  0
 10 38  1  0  0  0  0
 11 39  1  0  0  0  0
 18 40  1  0  0  0  0
 18 41  1  0  0  0  0
 18 42  1  0  0  0  0
 19 43  1  0  0  0  0
 19 44  1  0  0  0  0
 19 45  1  0  0  0  0
 20 46  1  0  0  0  0
 20 47  1  0  0  0  0
 21 48  1  0  0  0  0
 26 49  1  0  0  0  0
M  END
> <clash_score>
0

> <docking_score>
-9.934901237487793

> <overlap_score>
1.0073812007904053

$$$$
BENZO_215_2
  -OEChem-08222022403D

 49 52  0     1  0  0  0  0  0999 V2000
    4.0980    2.1130   19.5350 C   0  0  0  0  0  0  0  0  0  0  0  0
    4.2970    1.6690   20.8430 C   0  0  0  0  0  0  0  0  0  0  0  0
    8.3510   -1.5420   24.6110 C   0  0  0  0  0  0  0  0  0  0  0  0
   10.2760   -2.3270   23.4020 C   0  0  0  0  0  0  0  0  0  0  0  0
    4.9400    1.7060   18.5060 C   0  0  0  0  0  0  0  0  0  0  0  0
    5.3360    0.8000   21.1530 C   0  0  0  0  0  0  0  0  0  0  0  0
    8.3310   -2.7170   25.3430 C   0  0  0  0  0  0  0  0  0  0  0  0
   10.2570   -3.5000   24.1350 C   0  0  0  0  0  0  0  0  0  0  0  0
   12.4581    1.4918   22.7981 C   0  0  0  0  0  0  0  0  0  0  0  0
   10.9018    2.8185   21.9903 C   0  0  0  0  0  0  0  0  0  0  0  0
    7.6830   -0.5170   18.7600 C   0  0  0  0  0  0  0  0  0  0  0  0
    9.3300   -1.3350   23.6390 C   0  0  0  0  0  0  0  0  0  0  0  0
   11.0769    1.7595   22.8472 C   0  0  0  0  0  0  0  0  0  0  0  0
    5.9810    0.8330   18.8060 C   0  0  0  0  0  0  0  0  0  0  0  0
    6.1600    0.3870   20.1140 C   0  0  0  0  0  0  0  0  0  0  0  0
    9.2850   -3.7090   25.1090 C   0  0  0  0  0  0  0  0  0  0  0  0
    8.9510    0.1280   21.6880 C   0  0  0  0  0  0  0  0  0  0  0  0
   12.4642    4.1525   20.5557 C   0  0  0  0  0  0  0  0  0  0  0  0
    8.2359   -4.9962   26.8043 C   0  0  0  0  0  0  0  0  0  0  0  0
   10.0220    1.0430   23.6570 C   0  0  0  0  0  0  0  0  0  0  0  0
    9.4200   -0.0840   22.9530 C   0  0  2  0  0  0  0  0  0  0  0  0
   13.1138    2.3143   21.9750 N   0  0  0  0  0  0  0  0  0  0  0  0
    6.9440    0.2550   18.0100 N   0  0  0  0  0  0  0  0  0  0  0  0
   12.1404    3.1092   21.4989 N   0  0  0  0  0  0  0  0  0  0  0  0
    7.2210   -0.4620   20.0350 N   0  0  0  0  0  0  0  0  0  0  0  0
    8.0810   -0.9750   21.0820 N   0  0  0  0  0  0  0  0  0  0  0  0
    9.1870    1.1500   21.0630 O   0  0  0  0  0  0  0  0  0  0  0  0
    9.2637   -4.8607   25.8240 O   0  0  0  0  0  0  0  0  0  0  0  0
    3.2711    2.7870   19.3201 H   0  0  0  0  0  0  0  0  0  0  0  0
    3.6262    2.0082   21.6284 H   0  0  0  0  0  0  0  0  0  0  0  0
    7.5962   -0.7776   24.7980 H   0  0  0  0  0  0  0  0  0  0  0  0
   11.0395   -2.1844   22.6346 H   0  0  0  0  0  0  0  0  0  0  0  0
    4.7816    2.0660   17.4901 H   0  0  0  0  0  0  0  0  0  0  0  0
    5.4934    0.4579   22.1787 H   0  0  0  0  0  0  0  0  0  0  0  0
    7.5664   -2.8672   26.1058 H   0  0  0  0  0  0  0  0  0  0  0  0
   11.0120   -4.2666   23.9463 H   0  0  0  0  0  0  0  0  0  0  0  0
   13.0162    0.7316   23.3262 H   0  0  0  0  0  0  0  0  0  0  0  0
   10.0229    3.3754   21.6946 H   0  0  0  0  0  0  0  0  0  0  0  0
    8.5166   -1.1054   18.4533 H   0  0  0  0  0  0  0  0  0  0  0  0
   12.6964    5.0586   21.1216 H   0  0  0  0  0  0  0  0  0  0  0  0
   13.3249    3.8459   19.9548 H   0  0  0  0  0  0  0  0  0  0  0  0
   11.6087    4.3213   19.8958 H   0  0  0  0  0  0  0  0  0  0  0  0
    8.3326   -5.9635   27.3034 H   0  0  0  0  0  0  0  0  0  0  0  0
    7.2583   -4.9194   26.3216 H   0  0  0  0  0  0  0  0  0  0  0  0
    8.3399   -4.1965   27.5413 H   0  0  0  0  0  0  0  0  0  0  0  0
   10.4909    0.6894   24.5858 H   0  0  0  0  0  0  0  0  0  0  0  0
    9.2554    1.7595   23.9807 H   0  0  0  0  0  0  0  0  0  0  0  0
   10.7193   -0.4348   22.4312 H   0  0  0  0  0  0  0  0  0  0  0  0
    8.1515   -1.8050   21.3815 H   0  0  0  0  0  0  0  0  0  0  0  0
  1  2  1  0  0  0  0
  1  5  2  0  0  0  0
  2  6  2  0  0  0  0
  3  7  2  0  0  0  0
  3 12  1  0  0  0  0
  4  8  1  0  0  0  0
  4 12  2  0  0  0  0
  5 14  1  0  0  0  0
  6 15  1  0  0  0  0
  7 16  1  0  0  0  0
  8 16  2  0  0  0  0
  9 13  1  0  0  0  0
  9 22  2  0  0  0  0
 10 13  2  0  0  0  0
 10 24  1  0  0  0  0
 11 23  2  0  0  0  0
 11 25  1  0  0  0  0
 12 21  1  0  0  0  0
 13 20  1  0  0  0  0
 14 15  2  0  0  0  0
 14 23  1  0  0  0  0
 15 25  1  0  0  0  0
 16 28  1  0  0  0  0
 17 21  1  0  0  0  0
 17 26  1  0  0  0  0
 17 27  2  0  0  0  0
 18 24  1  0  0  0  0
 19 28  1  0  0  0  0
 20 21  1  6  0  0  0
 22 24  1  0  0  0  0
 25 26  1  0  0  0  0
  1 29  1  0  0  0  0
  2 30  1  0  0  0  0
  3 31  1  0  0  0  0
  4 32  1  0  0  0  0
  5 33  1  0  0  0  0
  6 34  1  0  0  0  0
  7 35  1  0  0  0  0
  8 36  1  0  0  0  0
  9 37  1  0  0  0  0
 10 38  1  0  0  0  0
 11 39  1  0  0  0  0
 18 40  1  0  0  0  0
 18 41  1  0  0  0  0
 18 42  1  0  0  0  0
 19 43  1  0  0  0  0
 19 44  1  0  0  0  0
 19 45  1  0  0  0  0
 20 46  1  0  0  0  0
 20 47  1  0  0  0  0
 21 48  1  0  0  0  0
 26 49  1  0  0  0  0
M  END
> <clash_score>
0

> <docking_score>
-8.724023818969727

> <overlap_score>
0.9580731987953186

$$$$
BENZO_214_2
  -OEChem-08222022403D

 49 52  0     1  0  0  0  0  0999 V2000
    4.0980    2.1130   19.5350 C   0  0  0  0  0  0  0  0  0  0  0  0
    4.2970    1.6690   20.8430 C   0  0  0  0  0  0  0  0  0  0  0  0
   13.7731    0.6181   24.0892 C   0  0  0  0  0  0  0  0  0  0  0  0
   12.5319    0.9161   23.5268 C   0  0  0  0  0  0  0  0  0  0  0  0
    8.3510   -1.5420   24.6110 C   0  0  0  0  0  0  0  0  0  0  0  0
   10.2760   -2.3270   23.4020 C   0  0  0  0  0  0  0  0  0  0  0  0
    4.9400    1.7060   18.5060 C   0  0  0  0  0  0  0  0  0  0  0  0
    5.3360    0.8000   21.1530 C   0  0  0  0  0  0  0  0  0  0  0  0
    8.3310   -2.7170   25.3430 C   0  0  0  0  0  0  0  0  0  0  0  0
   10.2570   -3.5000   24.1350 C   0  0  0  0  0  0  0  0  0  0  0  0
   13.8481    0.1225   25.3909 C   0  0  0  0  0  0  0  0  0  0  0  0
   11.4407    0.2233   25.5680 C   0  0  0  0  0  0  0  0  0  0  0  0
    7.6830   -0.5170   18.7600 C   0  0  0  0  0  0  0  0  0  0  0  0
    9.3300   -1.3350   23.6390 C   0  0  0  0  0  0  0  0  0  0  0  0
   11.3657    0.7188   24.2662 C   0  0  0  0  0  0  0  0  0  0  0  0
    5.9810    0.8330   18.8060 C   0  0  0  0  0  0  0  0  0  0  0  0
    6.1600    0.3870   20.1140 C   0  0  0  0  0  0  0  0  0  0  0  0
    9.2850   -3.7090   25.1090 C   0  0  0  0  0  0  0  0  0  0  0  0
   12.6819   -0.0748   26.1303 C   0  0  0  0  0  0  0  0  0  0  0  0
    8.9510    0.1280   21.6880 C   0  0  0  0  0  0  0  0  0  0  0  0
    8.2359   -4.9962   26.8043 C   0  0  0  0  0  0  0  0  0  0  0  0
   10.0220    1.0430   23.6570 C   0  0  0  0  0  0  0  0  0  0  0  0
    9.4200   -0.0840   22.9530 C   0  0  2  0  0  0  0  0  0  0  0  0
    6.9440    0.2550   18.0100 N   0  0  0  0  0  0  0  0  0  0  0  0
    7.2210   -0.4620   20.0350 N   0  0  0  0  0  0  0  0  0  0  0  0
    8.0810   -0.9750   21.0820 N   0  0  0  0  0  0  0  0  0  0  0  0
    9.1870    1.1500   21.0630 O   0  0  0  0  0  0  0  0  0  0  0  0
    9.2637   -4.8607   25.8240 O   0  0  0  0  0  0  0  0  0  0  0  0
   12.7752   -0.6851   27.7367 Cl  0  0  0  0  0  0  0  0  0  0  0  0
    3.2711    2.7870   19.3201 H   0  0  0  0  0  0  0  0  0  0  0  0
    3.6262    2.0082   21.6284 H   0  0  0  0  0  0  0  0  0  0  0  0
   14.6810    0.7720   23.5131 H   0  0  0  0  0  0  0  0  0  0  0  0
   12.4829    1.3020   22.5119 H   0  0  0  0  0  0  0  0  0  0  0  0
    7.5962   -0.7776   24.7980 H   0  0  0  0  0  0  0  0  0  0  0  0
   11.0395   -2.1844   22.6346 H   0  0  0  0  0  0  0  0  0  0  0  0
    4.7816    2.0660   17.4901 H   0  0  0  0  0  0  0  0  0  0  0  0
    5.4934    0.4579   22.1787 H   0  0  0  0  0  0  0  0  0  0  0  0
    7.5664   -2.8672   26.1058 H   0  0  0  0  0  0  0  0  0  0  0  0
   11.0120   -4.2666   23.9463 H   0  0  0  0  0  0  0  0  0  0  0  0
   14.8224   -0.1052   25.8164 H   0  0  0  0  0  0  0  0  0  0  0  0
   10.5286    0.0707   26.1402 H   0  0  0  0  0  0  0  0  0  0  0  0
    8.5166   -1.1054   18.4533 H   0  0  0  0  0  0  0  0  0  0  0  0
    8.3326   -5.9635   27.3034 H   0  0  0  0  0  0  0  0  0  0  0  0
    7.2583   -4.9194   26.3216 H   0  0  0  0  0  0  0  0  0  0  0  0
    8.3399   -4.1965   27.5413 H   0  0  0  0  0  0  0  0  0  0  0  0
    9.3544    1.3715   24.4657 H   0  0  0  0  0  0  0  0  0  0  0  0
   10.1173    1.9145   22.9956 H   0  0  0  0  0  0  0  0  0  0  0  0
   10.7193   -0.4348   22.4312 H   0  0  0  0  0  0  0  0  0  0  0  0
    8.1515   -1.8050   21.3815 H   0  0  0  0  0  0  0  0  0  0  0  0
  1  2  1  0  0  0  0
  1  7  2  0  0  0  0
  2  8  2  0  0  0  0
  3  4  2  0  0  0  0
  3 11  1  0  0  0  0
  4 15  1  0  0  0  0
  5  9  2  0  0  0  0
  5 14  1  0  0  0  0
  6 10  1  0  0  0  0
  6 14  2  0  0  0  0
  7 16  1  0  0  0  0
  8 17  1  0  0  0  0
  9 18  1  0  0  0  0
 10 18  2  0  0  0  0
 11 19  2  0  0  0  0
 12 15  2  0  0  0  0
 12 19  1  0  0  0  0
 13 24  2  0  0  0  0
 13 25  1  0  0  0  0
 14 23  1  0  0  0  0
 15 22  1  0  0  0  0
 16 17  2  0  0  0  0
 16 24  1  0  0  0  0
 17 25  1  0  0  0  0
 18 28  1  0  0  0  0
 19 29  1  0  0  0  0
 20 23  1  0  0  0  0
 20 26  1  0  0  0  0
 20 27  2  0  0  0  0
 21 28  1  0  0  0  0
 22 23  1  6  0  0  0
 25 26  1  0  0  0  0
  1 30  1  0  0  0  0
  2 31  1  0  0  0  0
  3 32  1  0  0  0  0
  4 33  1  0  0  0  0
  5 34  1  0  0  0  0
  6 35  1  0  0  0  0
  7 36  1  0  0  0  0
  8 37  1  0  0  0  0
  9 38  1  0  0  0  0
 10 39  1  0  0  0  0
 11 40  1  0  0  0  0
 12 41  1  0  0  0  0
 13 42  1  0  0  0  0
 21 43  1  0  0  0  0
 21 44  1  0  0  0  0
 21 45  1  0  0  0  0
 22 46  1  0  0  0  0
 22 47  1  0  0  0  0
 23 48  1  0  0  0  0
 26 49  1  0  0  0  0
M  END
> <clash_score>
1.571189693698527

> <docking_score>
-7.450625896453857

> <overlap_score>
0.9275919198989868

$$$$
BENZO_214_1
  -OEChem-08222022403D

 49 52  0     1  0  0  0  0  0999 V2000
    4.0980    2.1130   19.5350 C   0  0  0  0  0  0  0  0  0  0  0  0
    4.2970    1.6690   20.8430 C   0  0  0  0  0  0  0  0  0  0  0  0
   13.7669    0.5967   24.1200 C   0  0  0  0  0  0  0  0  0  0  0  0
   12.3892    0.4979   24.3142 C   0  0  0  0  0  0  0  0  0  0  0  0
    8.3510   -1.5420   24.6110 C   0  0  0  0  0  0  0  0  0  0  0  0
   10.2760   -2.3270   23.4020 C   0  0  0  0  0  0  0  0  0  0  0  0
    4.9400    1.7060   18.5060 C   0  0  0  0  0  0  0  0  0  0  0  0
    5.3360    0.8000   21.1530 C   0  0  0  0  0  0  0  0  0  0  0  0
    8.3310   -2.7170   25.3430 C   0  0  0  0  0  0  0  0  0  0  0  0
   10.2570   -3.5000   24.1350 C   0  0  0  0  0  0  0  0  0  0  0  0
   14.2694    1.3493   23.0584 C   0  0  0  0  0  0  0  0  0  0  0  0
   12.0165    1.9040   22.3852 C   0  0  0  0  0  0  0  0  0  0  0  0
    7.6830   -0.5170   18.7600 C   0  0  0  0  0  0  0  0  0  0  0  0
    9.3300   -1.3350   23.6390 C   0  0  0  0  0  0  0  0  0  0  0  0
   11.5140    1.1515   23.4468 C   0  0  0  0  0  0  0  0  0  0  0  0
    5.9810    0.8330   18.8060 C   0  0  0  0  0  0  0  0  0  0  0  0
    6.1600    0.3870   20.1140 C   0  0  0  0  0  0  0  0  0  0  0  0
    9.2850   -3.7090   25.1090 C   0  0  0  0  0  0  0  0  0  0  0  0
   13.3942    2.0028   22.1910 C   0  0  0  0  0  0  0  0  0  0  0  0
    8.9510    0.1280   21.6880 C   0  0  0  0  0  0  0  0  0  0  0  0
    8.2359   -4.9962   26.8043 C   0  0  0  0  0  0  0  0  0  0  0  0
   10.0220    1.0430   23.6570 C   0  0  0  0  0  0  0  0  0  0  0  0
    9.4200   -0.0840   22.9530 C   0  0  1  0  0  0  0  0  0  0  0  0
    6.9440    0.2550   18.0100 N   0  0  0  0  0  0  0  0  0  0  0  0
    7.2210   -0.4620   20.0350 N   0  0  0  0  0  0  0  0  0  0  0  0
    8.0810   -0.9750   21.0820 N   0  0  0  0  0  0  0  0  0  0  0  0
    9.1870    1.1500   21.0630 O   0  0  0  0  0  0  0  0  0  0  0  0
    9.2637   -4.8607   25.8240 O   0  0  0  0  0  0  0  0  0  0  0  0
   14.0147    2.9302   20.8808 Cl  0  0  0  0  0  0  0  0  0  0  0  0
    3.2711    2.7870   19.3201 H   0  0  0  0  0  0  0  0  0  0  0  0
    3.6262    2.0082   21.6284 H   0  0  0  0  0  0  0  0  0  0  0  0
   14.4481    0.0875   24.7956 H   0  0  0  0  0  0  0  0  0  0  0  0
   12.0065   -0.0907   25.1439 H   0  0  0  0  0  0  0  0  0  0  0  0
    7.5962   -0.7776   24.7980 H   0  0  0  0  0  0  0  0  0  0  0  0
   11.0395   -2.1844   22.6346 H   0  0  0  0  0  0  0  0  0  0  0  0
    4.7816    2.0660   17.4901 H   0  0  0  0  0  0  0  0  0  0  0  0
    5.4934    0.4579   22.1787 H   0  0  0  0  0  0  0  0  0  0  0  0
    7.5664   -2.8672   26.1058 H   0  0  0  0  0  0  0  0  0  0  0  0
   11.0120   -4.2666   23.9463 H   0  0  0  0  0  0  0  0  0  0  0  0
   15.3456    1.4172   22.9191 H   0  0  0  0  0  0  0  0  0  0  0  0
   11.3299    2.4121   21.7119 H   0  0  0  0  0  0  0  0  0  0  0  0
    8.5166   -1.1054   18.4533 H   0  0  0  0  0  0  0  0  0  0  0  0
    8.3326   -5.9635   27.3034 H   0  0  0  0  0  0  0  0  0  0  0  0
    7.2583   -4.9194   26.3216 H   0  0  0  0  0  0  0  0  0  0  0  0
    8.3399   -4.1965   27.5413 H   0  0  0  0  0  0  0  0  0  0  0  0
    9.8388    0.9439   24.7360 H   0  0  0  0  0  0  0  0  0  0  0  0
    9.5396    1.9876   23.3725 H   0  0  0  0  0  0  0  0  0  0  0  0
    8.1264    0.3141   23.4937 H   0  0  0  0  0  0  0  0  0  0  0  0
    8.1515   -1.8050   21.3815 H   0  0  0  0  0  0  0  0  0  0  0  0
  1  2  1  0  0  0  0
  1  7  2  0  0  0  0
  2  8  2  0  0  0  0
  3  4  2  0  0  0  0
  3 11  1  0  0  0  0
  4 15  1  0  0  0  0
  5  9  2  0  0  0  0
  5 14  1  0  0  0  0
  6 10  1  0  0  0  0
  6 14  2  0  0  0  0
  7 16  1  0  0  0  0
  8 17  1  0  0  0  0
  9 18  1  0  0  0  0
 10 18  2  0  0  0  0
 11 19  2  0  0  0  0
 12 15  2  0  0  0  0
 12 19  1  0  0  0  0
 13 24  2  0  0  0  0
 13 25  1  0  0  0  0
 14 23  1  0  0  0  0
 15 22  1  0  0  0  0
 16 17  2  0  0  0  0
 16 24  1  0  0  0  0
 17 25  1  0  0  0  0
 18 28  1  0  0  0  0
 19 29  1  0  0  0  0
 20 23  1  0  0  0  0
 20 26  1  0  0  0  0
 20 27  2  0  0  0  0
 21 28  1  0  0  0  0
 22 23  1  1  0  0  0
 25 26  1  0  0  0  0
  1 30  1  0  0  0  0
  2 31  1  0  0  0  0
  3 32  1  0  0  0  0
  4 33  1  0  0  0  0
  5 34  1  0  0  0  0
  6 35  1  0  0  0  0
  7 36  1  0  0  0  0
  8 37  1  0  0  0  0
  9 38  1  0  0  0  0
 10 39  1  0  0  0  0
 11 40  1  0  0  0  0
 12 41  1  0  0  0  0
 13 42  1  0  0  0  0
 21 43  1  0  0  0  0
 21 44  1  0  0  0  0
 21 45  1  0  0  0  0
 22 46  1  0  0  0  0
 22 47  1  0  0  0  0
 23 48  1  0  0  0  0
 26 49  1  0  0  0  0
M  END
> <clash_score>
0

> <docking_score>
-8.425745964050293

> <overlap_score>
1.00873601436615

$$$$
BENZO_217_1
  -OEChem-08222022403D

 59 63  0     1  0  0  0  0  0999 V2000
   13.8495    0.0928   25.3717 C   0  0  0  0  0  0  0  0  0  0  0  0
   12.6852   -0.1005   26.1150 C   0  0  0  0  0  0  0  0  0  0  0  0
   13.7723    0.5944   24.0724 C   0  0  0  0  0  0  0  0  0  0  0  0
    4.0980    2.1130   19.5350 C   0  0  0  0  0  0  0  0  0  0  0  0
    4.2970    1.6690   20.8430 C   0  0  0  0  0  0  0  0  0  0  0  0
   11.4436    0.2077   25.5591 C   0  0  0  0  0  0  0  0  0  0  0  0
   12.5307    0.9026   23.5164 C   0  0  0  0  0  0  0  0  0  0  0  0
    8.3510   -1.5420   24.6110 C   0  0  0  0  0  0  0  0  0  0  0  0
   10.2760   -2.3270   23.4020 C   0  0  0  0  0  0  0  0  0  0  0  0
    4.9400    1.7060   18.5060 C   0  0  0  0  0  0  0  0  0  0  0  0
    5.3360    0.8000   21.1530 C   0  0  0  0  0  0  0  0  0  0  0  0
    8.3310   -2.7170   25.3430 C   0  0  0  0  0  0  0  0  0  0  0  0
   10.2570   -3.5000   24.1350 C   0  0  0  0  0  0  0  0  0  0  0  0
    7.6830   -0.5170   18.7600 C   0  0  0  0  0  0  0  0  0  0  0  0
   11.3663    0.7093   24.2598 C   0  0  0  0  0  0  0  0  0  0  0  0
    9.3300   -1.3350   23.6390 C   0  0  0  0  0  0  0  0  0  0  0  0
    5.9810    0.8330   18.8060 C   0  0  0  0  0  0  0  0  0  0  0  0
    6.1600    0.3870   20.1140 C   0  0  0  0  0  0  0  0  0  0  0  0
    9.2850   -3.7090   25.1090 C   0  0  0  0  0  0  0  0  0  0  0  0
    8.0643   -5.4721   26.3672 C   0  0  0  0  0  0  0  0  0  0  0  0
    8.9510    0.1280   21.6880 C   0  0  0  0  0  0  0  0  0  0  0  0
    8.2649   -6.7591   27.1477 C   0  0  0  0  0  0  0  0  0  0  0  0
    9.4073   -6.6157   28.1377 C   0  0  0  0  0  0  0  0  0  0  0  0
   10.6967   -6.1489   27.4694 C   0  0  0  0  0  0  0  0  0  0  0  0
   10.4950   -5.7059   26.0212 C   0  0  0  0  0  0  0  0  0  0  0  0
   10.0220    1.0430   23.6570 C   0  0  0  0  0  0  0  0  0  0  0  0
    9.4200   -0.0840   22.9530 C   0  0  1  0  0  0  0  0  0  0  0  0
    6.9440    0.2550   18.0100 N   0  0  0  0  0  0  0  0  0  0  0  0
    7.2210   -0.4620   20.0350 N   0  0  0  0  0  0  0  0  0  0  0  0
    9.2624   -4.9267   25.8634 N   0  0  0  0  0  0  0  0  0  0  0  0
    8.0810   -0.9750   21.0820 N   0  0  0  0  0  0  0  0  0  0  0  0
    6.9247   -5.0497   26.1749 O   0  0  0  0  0  0  0  0  0  0  0  0
    9.1870    1.1500   21.0630 O   0  0  0  0  0  0  0  0  0  0  0  0
   14.8163   -0.1459   25.8052 H   0  0  0  0  0  0  0  0  0  0  0  0
   12.7453   -0.4901   27.1271 H   0  0  0  0  0  0  0  0  0  0  0  0
   14.6787    0.7461   23.4938 H   0  0  0  0  0  0  0  0  0  0  0  0
    3.2711    2.7870   19.3201 H   0  0  0  0  0  0  0  0  0  0  0  0
    3.6262    2.0082   21.6284 H   0  0  0  0  0  0  0  0  0  0  0  0
   10.5417    0.0536   26.1456 H   0  0  0  0  0  0  0  0  0  0  0  0
   12.4801    1.2929   22.5034 H   0  0  0  0  0  0  0  0  0  0  0  0
    7.5948   -0.7783   24.7966 H   0  0  0  0  0  0  0  0  0  0  0  0
   11.0389   -2.1844   22.6342 H   0  0  0  0  0  0  0  0  0  0  0  0
    4.7816    2.0660   17.4901 H   0  0  0  0  0  0  0  0  0  0  0  0
    5.4934    0.4579   22.1787 H   0  0  0  0  0  0  0  0  0  0  0  0
    7.5642   -2.8624   26.1050 H   0  0  0  0  0  0  0  0  0  0  0  0
   11.0137   -4.2649   23.9418 H   0  0  0  0  0  0  0  0  0  0  0  0
    8.5166   -1.1054   18.4533 H   0  0  0  0  0  0  0  0  0  0  0  0
    7.3543   -6.9829   27.6818 H   0  0  0  0  0  0  0  0  0  0  0  0
    8.4783   -7.5436   26.4372 H   0  0  0  0  0  0  0  0  0  0  0  0
    9.1257   -5.9021   28.9399 H   0  0  0  0  0  0  0  0  0  0  0  0
    9.5814   -7.5840   28.6486 H   0  0  0  0  0  0  0  0  0  0  0  0
   11.1319   -5.3094   28.0513 H   0  0  0  0  0  0  0  0  0  0  0  0
   11.4591   -6.9570   27.5118 H   0  0  0  0  0  0  0  0  0  0  0  0
   11.3214   -5.0711   25.7158 H   0  0  0  0  0  0  0  0  0  0  0  0
   10.4496   -6.5786   25.3788 H   0  0  0  0  0  0  0  0  0  0  0  0
    9.3646    1.3888   24.4669 H   0  0  0  0  0  0  0  0  0  0  0  0
   10.1228    1.9057   22.9851 H   0  0  0  0  0  0  0  0  0  0  0  0
   10.7230   -0.4323   22.4284 H   0  0  0  0  0  0  0  0  0  0  0  0
    8.1256   -1.8039   21.3539 H   0  0  0  0  0  0  0  0  0  0  0  0
  1  2  1  0  0  0  0
  1  3  2  0  0  0  0
  2  6  2  0  0  0  0
  3  7  1  0  0  0  0
  4  5  1  0  0  0  0
  4 10  2  0  0  0  0
  5 11  2  0  0  0  0
  6 15  1  0  0  0  0
  7 15  2  0  0  0  0
  8 12  2  0  0  0  0
  8 16  1  0  0  0  0
  9 13  1  0  0  0  0
  9 16  2  0  0  0  0
 10 17  1  0  0  0  0
 11 18  1  0  0  0  0
 12 19  1  0  0  0  0
 13 19  2  0  0  0  0
 14 28  2  0  0  0  0
 14 29  1  0  0  0  0
 15 26  1  0  0  0  0
 16 27  1  0  0  0  0
 17 18  2  0  0  0  0
 17 28  1  0  0  0  0
 18 29  1  0  0  0  0
 19 30  1  0  0  0  0
 20 22  1  0  0  0  0
 20 30  1  0  0  0  0
 20 32  2  0  0  0  0
 21 27  1  1  0  0  0
 21 31  1  0  0  0  0
 21 33  2  0  0  0  0
 22 23  1  0  0  0  0
 23 24  1  0  0  0  0
 24 25  1  0  0  0  0
 25 30  1  0  0  0  0
 26 27  1  0  0  0  0
 29 31  1  0  0  0  0
  1 34  1  0  0  0  0
  2 35  1  0  0  0  0
  3 36  1  0  0  0  0
  4 37  1  0  0  0  0
  5 38  1  0  0  0  0
  6 39  1  0  0  0  0
  7 40  1  0  0  0  0
  8 41  1  0  0  0  0
  9 42  1  0  0  0  0
 10 43  1  0  0  0  0
 11 44  1  0  0  0  0
 12 45  1  0  0  0  0
 13 46  1  0  0  0  0
 14 47  1  0  0  0  0
 22 48  1  0  0  0  0
 22 49  1  0  0  0  0
 23 50  1  0  0  0  0
 23 51  1  0  0  0  0
 24 52  1  0  0  0  0
 24 53  1  0  0  0  0
 25 54  1  0  0  0  0
 25 55  1  0  0  0  0
 26 56  1  0  0  0  0
 26 57  1  0  0  0  0
 27 58  1  0  0  0  0
 31 59  1  0  0  0  0
M  END
> <clash_score>
1.2728248649063287

> <docking_score>
-6.892278671264648

> <overlap_score>
0.9502190947532654

$$$$
BENZO_217_2
  -OEChem-08222022403D

 59 63  0     1  0  0  0  0  0999 V2000
   14.2707    1.3172   23.0515 C   0  0  0  0  0  0  0  0  0  0  0  0
   13.7649    0.5714   24.1162 C   0  0  0  0  0  0  0  0  0  0  0  0
   13.3984    1.9741   22.1835 C   0  0  0  0  0  0  0  0  0  0  0  0
    4.0980    2.1130   19.5350 C   0  0  0  0  0  0  0  0  0  0  0  0
    4.2970    1.6690   20.8430 C   0  0  0  0  0  0  0  0  0  0  0  0
   12.3868    0.4824   24.3128 C   0  0  0  0  0  0  0  0  0  0  0  0
   12.0204    1.8850   22.3801 C   0  0  0  0  0  0  0  0  0  0  0  0
    8.3510   -1.5420   24.6110 C   0  0  0  0  0  0  0  0  0  0  0  0
   10.2760   -2.3270   23.4020 C   0  0  0  0  0  0  0  0  0  0  0  0
    4.9400    1.7060   18.5060 C   0  0  0  0  0  0  0  0  0  0  0  0
    5.3360    0.8000   21.1530 C   0  0  0  0  0  0  0  0  0  0  0  0
    8.3310   -2.7170   25.3430 C   0  0  0  0  0  0  0  0  0  0  0  0
   10.2570   -3.5000   24.1350 C   0  0  0  0  0  0  0  0  0  0  0  0
    7.6830   -0.5170   18.7600 C   0  0  0  0  0  0  0  0  0  0  0  0
   11.5145    1.1392   23.4448 C   0  0  0  0  0  0  0  0  0  0  0  0
    9.3300   -1.3350   23.6390 C   0  0  0  0  0  0  0  0  0  0  0  0
    5.9810    0.8330   18.8060 C   0  0  0  0  0  0  0  0  0  0  0  0
    6.1600    0.3870   20.1140 C   0  0  0  0  0  0  0  0  0  0  0  0
    9.2850   -3.7090   25.1090 C   0  0  0  0  0  0  0  0  0  0  0  0
    8.0643   -5.4721   26.3672 C   0  0  0  0  0  0  0  0  0  0  0  0
    8.9510    0.1280   21.6880 C   0  0  0  0  0  0  0  0  0  0  0  0
    8.2649   -6.7591   27.1477 C   0  0  0  0  0  0  0  0  0  0  0  0
    9.4073   -6.6157   28.1377 C   0  0  0  0  0  0  0  0  0  0  0  0
   10.6967   -6.1489   27.4694 C   0  0  0  0  0  0  0  0  0  0  0  0
   10.4950   -5.7059   26.0212 C   0  0  0  0  0  0  0  0  0  0  0  0
   10.0220    1.0430   23.6570 C   0  0  0  0  0  0  0  0  0  0  0  0
    9.4200   -0.0840   22.9530 C   0  0  2  0  0  0  0  0  0  0  0  0
    6.9440    0.2550   18.0100 N   0  0  0  0  0  0  0  0  0  0  0  0
    7.2210   -0.4620   20.0350 N   0  0  0  0  0  0  0  0  0  0  0  0
    9.2624   -4.9267   25.8634 N   0  0  0  0  0  0  0  0  0  0  0  0
    8.0810   -0.9750   21.0820 N   0  0  0  0  0  0  0  0  0  0  0  0
    6.9247   -5.0497   26.1749 O   0  0  0  0  0  0  0  0  0  0  0  0
    9.1870    1.1500   21.0630 O   0  0  0  0  0  0  0  0  0  0  0  0
   15.3438    1.3875   22.8994 H   0  0  0  0  0  0  0  0  0  0  0  0
   14.4439    0.0607   24.7928 H   0  0  0  0  0  0  0  0  0  0  0  0
   13.7919    2.5557   21.3551 H   0  0  0  0  0  0  0  0  0  0  0  0
    3.2711    2.7870   19.3201 H   0  0  0  0  0  0  0  0  0  0  0  0
    3.6262    2.0082   21.6285 H   0  0  0  0  0  0  0  0  0  0  0  0
   12.0017   -0.1012   25.1449 H   0  0  0  0  0  0  0  0  0  0  0  0
   11.3484    2.4000   21.6987 H   0  0  0  0  0  0  0  0  0  0  0  0
    7.5948   -0.7783   24.7966 H   0  0  0  0  0  0  0  0  0  0  0  0
   11.0389   -2.1844   22.6342 H   0  0  0  0  0  0  0  0  0  0  0  0
    4.7816    2.0660   17.4901 H   0  0  0  0  0  0  0  0  0  0  0  0
    5.4934    0.4579   22.1787 H   0  0  0  0  0  0  0  0  0  0  0  0
    7.5642   -2.8624   26.1050 H   0  0  0  0  0  0  0  0  0  0  0  0
   11.0137   -4.2649   23.9418 H   0  0  0  0  0  0  0  0  0  0  0  0
    8.5166   -1.1054   18.4533 H   0  0  0  0  0  0  0  0  0  0  0  0
    7.3543   -6.9829   27.6818 H   0  0  0  0  0  0  0  0  0  0  0  0
    8.4783   -7.5436   26.4372 H   0  0  0  0  0  0  0  0  0  0  0  0
    9.1257   -5.9021   28.9399 H   0  0  0  0  0  0  0  0  0  0  0  0
    9.5814   -7.5840   28.6486 H   0  0  0  0  0  0  0  0  0  0  0  0
   11.1319   -5.3094   28.0513 H   0  0  0  0  0  0  0  0  0  0  0  0
   11.4591   -6.9570   27.5118 H   0  0  0  0  0  0  0  0  0  0  0  0
   11.3214   -5.0711   25.7158 H   0  0  0  0  0  0  0  0  0  0  0  0
   10.4496   -6.5786   25.3788 H   0  0  0  0  0  0  0  0  0  0  0  0
    9.8382    0.9666   24.7377 H   0  0  0  0  0  0  0  0  0  0  0  0
    9.5447    1.9843   23.3536 H   0  0  0  0  0  0  0  0  0  0  0  0
    8.1249    0.3211   23.4916 H   0  0  0  0  0  0  0  0  0  0  0  0
    8.1256   -1.8039   21.3539 H   0  0  0  0  0  0  0  0  0  0  0  0
  1  2  1  0  0  0  0
  1  3  2  0  0  0  0
  2  6  2  0  0  0  0
  3  7  1  0  0  0  0
  4  5  1  0  0  0  0
  4 10  2  0  0  0  0
  5 11  2  0  0  0  0
  6 15  1  0  0  0  0
  7 15  2  0  0  0  0
  8 12  2  0  0  0  0
  8 16  1  0  0  0  0
  9 13  1  0  0  0  0
  9 16  2  0  0  0  0
 10 17  1  0  0  0  0
 11 18  1  0  0  0  0
 12 19  1  0  0  0  0
 13 19  2  0  0  0  0
 14 28  2  0  0  0  0
 14 29  1  0  0  0  0
 15 26  1  0  0  0  0
 16 27  1  0  0  0  0
 17 18  2  0  0  0  0
 17 28  1  0  0  0  0
 18 29  1  0  0  0  0
 19 30  1  0  0  0  0
 20 22  1  0  0  0  0
 20 30  1  0  0  0  0
 20 32  2  0  0  0  0
 21 27  1  6  0  0  0
 21 31  1  0  0  0  0
 21 33  2  0  0  0  0
 22 23  1  0  0  0  0
 23 24  1  0  0  0  0
 24 25  1  0  0  0  0
 25 30  1  0  0  0  0
 26 27  1  0  0  0  0
 29 31  1  0  0  0  0
  1 34  1  0  0  0  0
  2 35  1  0  0  0  0
  3 36  1  0  0  0  0
  4 37  1  0  0  0  0
  5 38  1  0  0  0  0
  6 39  1  0  0  0  0
  7 40  1  0  0  0  0
  8 41  1  0  0  0  0
  9 42  1  0  0  0  0
 10 43  1  0  0  0  0
 11 44  1  0  0  0  0
 12 45  1  0  0  0  0
 13 46  1  0  0  0  0
 14 47  1  0  0  0  0
 22 48  1  0  0  0  0
 22 49  1  0  0  0  0
 23 50  1  0  0  0  0
 23 51  1  0  0  0  0
 24 52  1  0  0  0  0
 24 53  1  0  0  0  0
 25 54  1  0  0  0  0
 25 55  1  0  0  0  0
 26 56  1  0  0  0  0
 26 57  1  0  0  0  0
 27 58  1  0  0  0  0
 31 59  1  0  0  0  0
M  END
> <clash_score>
1.2728248649063287

> <docking_score>
-7.777557849884033

> <overlap_score>
1.0254168510437012

$$$$
BENZO_216_2
  -OEChem-08222022403D

 56 60  0     1  0  0  0  0  0999 V2000
    4.0980    2.1130   19.5350 C   0  0  0  0  0  0  0  0  0  0  0  0
    4.2970    1.6690   20.8430 C   0  0  0  0  0  0  0  0  0  0  0  0
    8.3510   -1.5420   24.6110 C   0  0  0  0  0  0  0  0  0  0  0  0
   10.2760   -2.3270   23.4020 C   0  0  0  0  0  0  0  0  0  0  0  0
    4.9400    1.7060   18.5060 C   0  0  0  0  0  0  0  0  0  0  0  0
    5.3360    0.8000   21.1530 C   0  0  0  0  0  0  0  0  0  0  0  0
    8.3310   -2.7170   25.3430 C   0  0  0  0  0  0  0  0  0  0  0  0
   10.2570   -3.5000   24.1350 C   0  0  0  0  0  0  0  0  0  0  0  0
   12.2339    2.3685   23.4053 C   0  0  0  0  0  0  0  0  0  0  0  0
   13.5816    2.1729   23.1980 C   0  0  0  0  0  0  0  0  0  0  0  0
   12.3400    0.0508   23.2658 C   0  0  0  0  0  0  0  0  0  0  0  0
    7.6830   -0.5170   18.7600 C   0  0  0  0  0  0  0  0  0  0  0  0
    9.3300   -1.3350   23.6390 C   0  0  0  0  0  0  0  0  0  0  0  0
   11.5145    1.1392   23.4448 C   0  0  0  0  0  0  0  0  0  0  0  0
    5.9810    0.8330   18.8060 C   0  0  0  0  0  0  0  0  0  0  0  0
    6.1600    0.3870   20.1140 C   0  0  0  0  0  0  0  0  0  0  0  0
    9.2850   -3.7090   25.1090 C   0  0  0  0  0  0  0  0  0  0  0  0
    8.0643   -5.4721   26.3672 C   0  0  0  0  0  0  0  0  0  0  0  0
    8.9510    0.1280   21.6880 C   0  0  0  0  0  0  0  0  0  0  0  0
    8.2649   -6.7591   27.1477 C   0  0  0  0  0  0  0  0  0  0  0  0
    9.4073   -6.6157   28.1377 C   0  0  0  0  0  0  0  0  0  0  0  0
   10.6967   -6.1489   27.4694 C   0  0  0  0  0  0  0  0  0  0  0  0
   10.4950   -5.7059   26.0212 C   0  0  0  0  0  0  0  0  0  0  0  0
   10.0220    1.0430   23.6570 C   0  0  0  0  0  0  0  0  0  0  0  0
    9.4200   -0.0840   22.9530 C   0  0  2  0  0  0  0  0  0  0  0  0
    6.9440    0.2550   18.0100 N   0  0  0  0  0  0  0  0  0  0  0  0
    7.2210   -0.4620   20.0350 N   0  0  0  0  0  0  0  0  0  0  0  0
    9.2624   -4.9267   25.8634 N   0  0  0  0  0  0  0  0  0  0  0  0
    8.0810   -0.9750   21.0820 N   0  0  0  0  0  0  0  0  0  0  0  0
    6.9247   -5.0497   26.1749 O   0  0  0  0  0  0  0  0  0  0  0  0
    9.1870    1.1500   21.0630 O   0  0  0  0  0  0  0  0  0  0  0  0
   13.9749    0.5127   23.0518 S   0  0  0  0  0  0  0  0  0  0  0  0
    3.2711    2.7870   19.3201 H   0  0  0  0  0  0  0  0  0  0  0  0
    3.6262    2.0082   21.6285 H   0  0  0  0  0  0  0  0  0  0  0  0
    7.5948   -0.7783   24.7966 H   0  0  0  0  0  0  0  0  0  0  0  0
   11.0389   -2.1844   22.6342 H   0  0  0  0  0  0  0  0  0  0  0  0
    4.7816    2.0660   17.4901 H   0  0  0  0  0  0  0  0  0  0  0  0
    5.4934    0.4579   22.1787 H   0  0  0  0  0  0  0  0  0  0  0  0
    7.5642   -2.8624   26.1050 H   0  0  0  0  0  0  0  0  0  0  0  0
   11.0137   -4.2649   23.9418 H   0  0  0  0  0  0  0  0  0  0  0  0
   11.7892    3.3487   23.5222 H   0  0  0  0  0  0  0  0  0  0  0  0
   14.3539    2.9255   23.1247 H   0  0  0  0  0  0  0  0  0  0  0  0
   12.0651   -0.9948   23.2487 H   0  0  0  0  0  0  0  0  0  0  0  0
    8.5166   -1.1054   18.4533 H   0  0  0  0  0  0  0  0  0  0  0  0
    7.3543   -6.9829   27.6818 H   0  0  0  0  0  0  0  0  0  0  0  0
    8.4783   -7.5436   26.4372 H   0  0  0  0  0  0  0  0  0  0  0  0
    9.1257   -5.9021   28.9399 H   0  0  0  0  0  0  0  0  0  0  0  0
    9.5814   -7.5840   28.6486 H   0  0  0  0  0  0  0  0  0  0  0  0
   11.1319   -5.3094   28.0513 H   0  0  0  0  0  0  0  0  0  0  0  0
   11.4591   -6.9570   27.5118 H   0  0  0  0  0  0  0  0  0  0  0  0
   11.3214   -5.0711   25.7158 H   0  0  0  0  0  0  0  0  0  0  0  0
   10.4496   -6.5786   25.3788 H   0  0  0  0  0  0  0  0  0  0  0  0
    9.8382    0.9666   24.7377 H   0  0  0  0  0  0  0  0  0  0  0  0
    9.5447    1.9843   23.3536 H   0  0  0  0  0  0  0  0  0  0  0  0
    8.1249    0.3211   23.4916 H   0  0  0  0  0  0  0  0  0  0  0  0
    8.1256   -1.8039   21.3539 H   0  0  0  0  0  0  0  0  0  0  0  0
  1  2  1  0  0  0  0
  1  5  2  0  0  0  0
  2  6  2  0  0  0  0
  3  7  2  0  0  0  0
  3 13  1  0  0  0  0
  4  8  1  0  0  0  0
  4 13  2  0  0  0  0
  5 15  1  0  0  0  0
  6 16  1  0  0  0  0
  7 17  1  0  0  0  0
  8 17  2  0  0  0  0
  9 10  2  0  0  0  0
  9 14  1  0  0  0  0
 10 32  1  0  0  0  0
 11 14  2  0  0  0  0
 11 32  1  0  0  0  0
 12 26  2  0  0  0  0
 12 27  1  0  0  0  0
 13 25  1  0  0  0  0
 14 24  1  0  0  0  0
 15 16  2  0  0  0  0
 15 26  1  0  0  0  0
 16 27  1  0  0  0  0
 17 28  1  0  0  0  0
 18 20  1  0  0  0  0
 18 28  1  0  0  0  0
 18 30  2  0  0  0  0
 19 25  1  6  0  0  0
 19 29  1  0  0  0  0
 19 31  2  0  0  0  0
 20 21  1  0  0  0  0
 21 22  1  0  0  0  0
 22 23  1  0  0  0  0
 23 28  1  0  0  0  0
 24 25  1  0  0  0  0
 27 29  1  0  0  0  0
  1 33  1  0  0  0  0
  2 34  1  0  0  0  0
  3 35  1  0  0  0  0
  4 36  1  0  0  0  0
  5 37  1  0  0  0  0
  6 38  1  0  0  0  0
  7 39  1  0  0  0  0
  8 40  1  0  0  0  0
  9 41  1  0  0  0  0
 10 42  1  0  0  0  0
 11 43  1  0  0  0  0
 12 44  1  0  0  0  0
 20 45  1  0  0  0  0
 20 46  1  0  0  0  0
 21 47  1  0  0  0  0
 21 48  1  0  0  0  0
 22 49  1  0  0  0  0
 22 50  1  0  0  0  0
 23 51  1  0  0  0  0
 23 52  1  0  0  0  0
 24 53  1  0  0  0  0
 24 54  1  0  0  0  0
 25 55  1  0  0  0  0
 29 56  1  0  0  0  0
M  END
> <clash_score>
1.2728248649063287

> <docking_score>
-8.541939735412598

> <overlap_score>
1.0122982263565063

$$$$
BENZO_216_1
  -OEChem-08222022403D

 56 60  0     1  0  0  0  0  0999 V2000
    4.0980    2.1130   19.5350 C   0  0  0  0  0  0  0  0  0  0  0  0
    4.2970    1.6690   20.8430 C   0  0  0  0  0  0  0  0  0  0  0  0
    8.3510   -1.5420   24.6110 C   0  0  0  0  0  0  0  0  0  0  0  0
   10.2760   -2.3270   23.4020 C   0  0  0  0  0  0  0  0  0  0  0  0
    4.9400    1.7060   18.5060 C   0  0  0  0  0  0  0  0  0  0  0  0
    5.3360    0.8000   21.1530 C   0  0  0  0  0  0  0  0  0  0  0  0
    8.3310   -2.7170   25.3430 C   0  0  0  0  0  0  0  0  0  0  0  0
   10.2570   -3.5000   24.1350 C   0  0  0  0  0  0  0  0  0  0  0  0
   11.0489    0.9303   26.0330 C   0  0  0  0  0  0  0  0  0  0  0  0
   12.1408    0.4261   26.7047 C   0  0  0  0  0  0  0  0  0  0  0  0
   12.2043   -0.1095   24.3049 C   0  0  0  0  0  0  0  0  0  0  0  0
    7.6830   -0.5170   18.7600 C   0  0  0  0  0  0  0  0  0  0  0  0
    9.3300   -1.3350   23.6390 C   0  0  0  0  0  0  0  0  0  0  0  0
   11.0855    0.6200   24.6428 C   0  0  0  0  0  0  0  0  0  0  0  0
    5.9810    0.8330   18.8060 C   0  0  0  0  0  0  0  0  0  0  0  0
    6.1600    0.3870   20.1140 C   0  0  0  0  0  0  0  0  0  0  0  0
    9.2850   -3.7090   25.1090 C   0  0  0  0  0  0  0  0  0  0  0  0
    8.0643   -5.4721   26.3672 C   0  0  0  0  0  0  0  0  0  0  0  0
    8.9510    0.1280   21.6880 C   0  0  0  0  0  0  0  0  0  0  0  0
    8.2649   -6.7591   27.1477 C   0  0  0  0  0  0  0  0  0  0  0  0
    9.4073   -6.6157   28.1377 C   0  0  0  0  0  0  0  0  0  0  0  0
   10.6967   -6.1489   27.4694 C   0  0  0  0  0  0  0  0  0  0  0  0
   10.4950   -5.7059   26.0212 C   0  0  0  0  0  0  0  0  0  0  0  0
   10.0220    1.0430   23.6570 C   0  0  0  0  0  0  0  0  0  0  0  0
    9.4200   -0.0840   22.9530 C   0  0  1  0  0  0  0  0  0  0  0  0
    6.9440    0.2550   18.0100 N   0  0  0  0  0  0  0  0  0  0  0  0
    7.2210   -0.4620   20.0350 N   0  0  0  0  0  0  0  0  0  0  0  0
    9.2624   -4.9267   25.8634 N   0  0  0  0  0  0  0  0  0  0  0  0
    8.0810   -0.9750   21.0820 N   0  0  0  0  0  0  0  0  0  0  0  0
    6.9247   -5.0497   26.1749 O   0  0  0  0  0  0  0  0  0  0  0  0
    9.1870    1.1500   21.0630 O   0  0  0  0  0  0  0  0  0  0  0  0
   13.2041   -0.4175   25.6606 S   0  0  0  0  0  0  0  0  0  0  0  0
    3.2711    2.7870   19.3201 H   0  0  0  0  0  0  0  0  0  0  0  0
    3.6262    2.0082   21.6284 H   0  0  0  0  0  0  0  0  0  0  0  0
    7.5948   -0.7783   24.7966 H   0  0  0  0  0  0  0  0  0  0  0  0
   11.0389   -2.1844   22.6342 H   0  0  0  0  0  0  0  0  0  0  0  0
    4.7816    2.0660   17.4901 H   0  0  0  0  0  0  0  0  0  0  0  0
    5.4934    0.4579   22.1787 H   0  0  0  0  0  0  0  0  0  0  0  0
    7.5642   -2.8624   26.1050 H   0  0  0  0  0  0  0  0  0  0  0  0
   11.0137   -4.2649   23.9418 H   0  0  0  0  0  0  0  0  0  0  0  0
   10.2636    1.4948   26.5197 H   0  0  0  0  0  0  0  0  0  0  0  0
   12.3654    0.5133   27.7583 H   0  0  0  0  0  0  0  0  0  0  0  0
   12.4867   -0.4772   23.3281 H   0  0  0  0  0  0  0  0  0  0  0  0
    8.5166   -1.1054   18.4533 H   0  0  0  0  0  0  0  0  0  0  0  0
    7.3543   -6.9829   27.6818 H   0  0  0  0  0  0  0  0  0  0  0  0
    8.4783   -7.5436   26.4372 H   0  0  0  0  0  0  0  0  0  0  0  0
    9.1257   -5.9021   28.9399 H   0  0  0  0  0  0  0  0  0  0  0  0
    9.5814   -7.5840   28.6486 H   0  0  0  0  0  0  0  0  0  0  0  0
   11.1319   -5.3094   28.0513 H   0  0  0  0  0  0  0  0  0  0  0  0
   11.4591   -6.9570   27.5118 H   0  0  0  0  0  0  0  0  0  0  0  0
   11.3214   -5.0711   25.7158 H   0  0  0  0  0  0  0  0  0  0  0  0
   10.4496   -6.5786   25.3788 H   0  0  0  0  0  0  0  0  0  0  0  0
    9.2570    1.6087   24.2068 H   0  0  0  0  0  0  0  0  0  0  0  0
   10.4462    1.7601   22.9417 H   0  0  0  0  0  0  0  0  0  0  0  0
   10.7230   -0.4323   22.4284 H   0  0  0  0  0  0  0  0  0  0  0  0
    8.1256   -1.8039   21.3539 H   0  0  0  0  0  0  0  0  0  0  0  0
  1  2  1  0  0  0  0
  1  5  2  0  0  0  0
  2  6  2  0  0  0  0
  3  7  2  0  0  0  0
  3 13  1  0  0  0  0
  4  8  1  0  0  0  0
  4 13  2  0  0  0  0
  5 15  1  0  0  0  0
  6 16  1  0  0  0  0
  7 17  1  0  0  0  0
  8 17  2  0  0  0  0
  9 10  2  0  0  0  0
  9 14  1  0  0  0  0
 10 32  1  0  0  0  0
 11 14  2  0  0  0  0
 11 32  1  0  0  0  0
 12 26  2  0  0  0  0
 12 27  1  0  0  0  0
 13 25  1  0  0  0  0
 14 24  1  0  0  0  0
 15 16  2  0  0  0  0
 15 26  1  0  0  0  0
 16 27  1  0  0  0  0
 17 28  1  0  0  0  0
 18 20  1  0  0  0  0
 18 28  1  0  0  0  0
 18 30  2  0  0  0  0
 19 25  1  1  0  0  0
 19 29  1  0  0  0  0
 19 31  2  0  0  0  0
 20 21  1  0  0  0  0
 21 22  1  0  0  0  0
 22 23  1  0  0  0  0
 23 28  1  0  0  0  0
 24 25  1  0  0  0  0
 27 29  1  0  0  0  0
  1 33  1  0  0  0  0
  2 34  1  0  0  0  0
  3 35  1  0  0  0  0
  4 36  1  0  0  0  0
  5 37  1  0  0  0  0
  6 38  1  0  0  0  0
  7 39  1  0  0  0  0
  8 40  1  0  0  0  0
  9 41  1  0  0  0  0
 10 42  1  0  0  0  0
 11 43  1  0  0  0  0
 12 44  1  0  0  0  0
 20 45  1  0  0  0  0
 20 46  1  0  0  0  0
 21 47  1  0  0  0  0
 21 48  1  0  0  0  0
 22 49  1  0  0  0  0
 22 50  1  0  0  0  0
 23 51  1  0  0  0  0
 23 52  1  0  0  0  0
 24 53  1  0  0  0  0
 24 54  1  0  0  0  0
 25 55  1  0  0  0  0
 29 56  1  0  0  0  0
M  END
> <clash_score>
1.2728248649063287

> <docking_score>
-5.852161884307861

> <overlap_score>
0.9002819657325745

$$$$
BENZO_219_2
  -OEChem-08222022403D

 59 63  0     1  0  0  0  0  0999 V2000
    4.0980    2.1130   19.5350 C   0  0  0  0  0  0  0  0  0  0  0  0
    4.2970    1.6690   20.8430 C   0  0  0  0  0  0  0  0  0  0  0  0
    8.3510   -1.5420   24.6110 C   0  0  0  0  0  0  0  0  0  0  0  0
   10.2760   -2.3270   23.4020 C   0  0  0  0  0  0  0  0  0  0  0  0
    4.9400    1.7060   18.5060 C   0  0  0  0  0  0  0  0  0  0  0  0
    5.3360    0.8000   21.1530 C   0  0  0  0  0  0  0  0  0  0  0  0
    8.3310   -2.7170   25.3430 C   0  0  0  0  0  0  0  0  0  0  0  0
   10.2570   -3.5000   24.1350 C   0  0  0  0  0  0  0  0  0  0  0  0
   12.6359    0.8405   23.6658 C   0  0  0  0  0  0  0  0  0  0  0  0
   11.6237    0.2113   25.5137 C   0  0  0  0  0  0  0  0  0  0  0  0
    7.6830   -0.5170   18.7600 C   0  0  0  0  0  0  0  0  0  0  0  0
    9.3300   -1.3350   23.6390 C   0  0  0  0  0  0  0  0  0  0  0  0
   11.3663    0.7093   24.2598 C   0  0  0  0  0  0  0  0  0  0  0  0
    5.9810    0.8330   18.8060 C   0  0  0  0  0  0  0  0  0  0  0  0
    6.1600    0.3870   20.1140 C   0  0  0  0  0  0  0  0  0  0  0  0
    9.2850   -3.7090   25.1090 C   0  0  0  0  0  0  0  0  0  0  0  0
    8.0643   -5.4721   26.3672 C   0  0  0  0  0  0  0  0  0  0  0  0
    8.9510    0.1280   21.6880 C   0  0  0  0  0  0  0  0  0  0  0  0
    8.2649   -6.7591   27.1477 C   0  0  0  0  0  0  0  0  0  0  0  0
    9.4073   -6.6157   28.1377 C   0  0  0  0  0  0  0  0  0  0  0  0
   10.6967   -6.1489   27.4694 C   0  0  0  0  0  0  0  0  0  0  0  0
   10.4950   -5.7059   26.0212 C   0  0  0  0  0  0  0  0  0  0  0  0
   13.7282   -0.4084   26.7244 C   0  0  0  0  0  0  0  0  0  0  0  0
   10.0220    1.0430   23.6570 C   0  0  0  0  0  0  0  0  0  0  0  0
    9.4200   -0.0840   22.9530 C   0  0  2  0  0  0  0  0  0  0  0  0
   13.6263    0.4571   24.4759 N   0  0  0  0  0  0  0  0  0  0  0  0
    6.9440    0.2550   18.0100 N   0  0  0  0  0  0  0  0  0  0  0  0
   12.9790    0.0800   25.5917 N   0  0  0  0  0  0  0  0  0  0  0  0
    7.2210   -0.4620   20.0350 N   0  0  0  0  0  0  0  0  0  0  0  0
    9.2624   -4.9267   25.8634 N   0  0  0  0  0  0  0  0  0  0  0  0
    8.0810   -0.9750   21.0820 N   0  0  0  0  0  0  0  0  0  0  0  0
    6.9247   -5.0497   26.1749 O   0  0  0  0  0  0  0  0  0  0  0  0
    9.1870    1.1500   21.0630 O   0  0  0  0  0  0  0  0  0  0  0  0
    3.2711    2.7870   19.3201 H   0  0  0  0  0  0  0  0  0  0  0  0
    3.6262    2.0082   21.6284 H   0  0  0  0  0  0  0  0  0  0  0  0
    7.5948   -0.7783   24.7966 H   0  0  0  0  0  0  0  0  0  0  0  0
   11.0389   -2.1844   22.6342 H   0  0  0  0  0  0  0  0  0  0  0  0
    4.7816    2.0660   17.4901 H   0  0  0  0  0  0  0  0  0  0  0  0
    5.4934    0.4579   22.1787 H   0  0  0  0  0  0  0  0  0  0  0  0
    7.5642   -2.8624   26.1050 H   0  0  0  0  0  0  0  0  0  0  0  0
   11.0137   -4.2649   23.9418 H   0  0  0  0  0  0  0  0  0  0  0  0
   12.8833    1.2002   22.6771 H   0  0  0  0  0  0  0  0  0  0  0  0
   10.9741   -0.0530   26.3371 H   0  0  0  0  0  0  0  0  0  0  0  0
    8.5166   -1.1054   18.4533 H   0  0  0  0  0  0  0  0  0  0  0  0
    7.3543   -6.9829   27.6818 H   0  0  0  0  0  0  0  0  0  0  0  0
    8.4783   -7.5436   26.4372 H   0  0  0  0  0  0  0  0  0  0  0  0
    9.1257   -5.9021   28.9399 H   0  0  0  0  0  0  0  0  0  0  0  0
    9.5814   -7.5840   28.6486 H   0  0  0  0  0  0  0  0  0  0  0  0
   11.1319   -5.3094   28.0513 H   0  0  0  0  0  0  0  0  0  0  0  0
   11.4591   -6.9570   27.5118 H   0  0  0  0  0  0  0  0  0  0  0  0
   11.3214   -5.0711   25.7158 H   0  0  0  0  0  0  0  0  0  0  0  0
   10.4496   -6.5786   25.3788 H   0  0  0  0  0  0  0  0  0  0  0  0
   13.8306   -1.4917   26.6193 H   0  0  0  0  0  0  0  0  0  0  0  0
   14.7120    0.0686   26.7434 H   0  0  0  0  0  0  0  0  0  0  0  0
   13.1927   -0.1616   27.6454 H   0  0  0  0  0  0  0  0  0  0  0  0
    9.3646    1.3888   24.4669 H   0  0  0  0  0  0  0  0  0  0  0  0
   10.1228    1.9057   22.9851 H   0  0  0  0  0  0  0  0  0  0  0  0
   10.7230   -0.4323   22.4284 H   0  0  0  0  0  0  0  0  0  0  0  0
    8.1256   -1.8039   21.3539 H   0  0  0  0  0  0  0  0  0  0  0  0
  1  2  1  0  0  0  0
  1  5  2  0  0  0  0
  2  6  2  0  0  0  0
  3  7  2  0  0  0  0
  3 12  1  0  0  0  0
  4  8  1  0  0  0  0
  4 12  2  0  0  0  0
  5 14  1  0  0  0  0
  6 15  1  0  0  0  0
  7 16  1  0  0  0  0
  8 16  2  0  0  0  0
  9 13  1  0  0  0  0
  9 26  2  0  0  0  0
 10 13  2  0  0  0  0
 10 28  1  0  0  0  0
 11 27  2  0  0  0  0
 11 29  1  0  0  0  0
 12 25  1  0  0  0  0
 13 24  1  0  0  0  0
 14 15  2  0  0  0  0
 14 27  1  0  0  0  0
 15 29  1  0  0  0  0
 16 30  1  0  0  0  0
 17 19  1  0  0  0  0
 17 30  1  0  0  0  0
 17 32  2  0  0  0  0
 18 25  1  0  0  0  0
 18 31  1  0  0  0  0
 18 33  2  0  0  0  0
 19 20  1  0  0  0  0
 20 21  1  0  0  0  0
 21 22  1  0  0  0  0
 22 30  1  0  0  0  0
 23 28  1  0  0  0  0
 24 25  1  6  0  0  0
 26 28  1  0  0  0  0
 29 31  1  0  0  0  0
  1 34  1  0  0  0  0
  2 35  1  0  0  0  0
  3 36  1  0  0  0  0
  4 37  1  0  0  0  0
  5 38  1  0  0  0  0
  6 39  1  0  0  0  0
  7 40  1  0  0  0  0
  8 41  1  0  0  0  0
  9 42  1  0  0  0  0
 10 43  1  0  0  0  0
 11 44  1  0  0  0  0
 19 45  1  0  0  0  0
 19 46  1  0  0  0  0
 20 47  1  0  0  0  0
 20 48  1  0  0  0  0
 21 49  1  0  0  0  0
 21 50  1  0  0  0  0
 22 51  1  0  0  0  0
 22 52  1  0  0  0  0
 23 53  1  0  0  0  0
 23 54  1  0  0  0  0
 23 55  1  0  0  0  0
 24 56  1  0  0  0  0
 24 57  1  0  0  0  0
 25 58  1  0  0  0  0
 31 59  1  0  0  0  0
M  END
> <clash_score>
2.0033880901783525

> <docking_score>
-6.744027614593506

> <overlap_score>
0.9415947794914246

$$$$
BENZO_218_2
  -OEChem-08222022403D

 59 63  0     1  0  0  0  0  0999 V2000
    4.0980    2.1130   19.5350 C   0  0  0  0  0  0  0  0  0  0  0  0
    4.2970    1.6690   20.8430 C   0  0  0  0  0  0  0  0  0  0  0  0
   13.7638    0.5686   24.1170 C   0  0  0  0  0  0  0  0  0  0  0  0
   12.3856    0.4812   24.3130 C   0  0  0  0  0  0  0  0  0  0  0  0
    8.3510   -1.5420   24.6110 C   0  0  0  0  0  0  0  0  0  0  0  0
   10.2760   -2.3270   23.4020 C   0  0  0  0  0  0  0  0  0  0  0  0
    4.9400    1.7060   18.5060 C   0  0  0  0  0  0  0  0  0  0  0  0
    5.3360    0.8000   21.1530 C   0  0  0  0  0  0  0  0  0  0  0  0
    8.3310   -2.7170   25.3430 C   0  0  0  0  0  0  0  0  0  0  0  0
   10.2570   -3.5000   24.1350 C   0  0  0  0  0  0  0  0  0  0  0  0
   14.2710    1.3142   23.0527 C   0  0  0  0  0  0  0  0  0  0  0  0
   12.0217    1.8847   22.3805 C   0  0  0  0  0  0  0  0  0  0  0  0
    7.6830   -0.5170   18.7600 C   0  0  0  0  0  0  0  0  0  0  0  0
    9.3300   -1.3350   23.6390 C   0  0  0  0  0  0  0  0  0  0  0  0
   11.5145    1.1392   23.4448 C   0  0  0  0  0  0  0  0  0  0  0  0
    5.9810    0.8330   18.8060 C   0  0  0  0  0  0  0  0  0  0  0  0
    6.1600    0.3870   20.1140 C   0  0  0  0  0  0  0  0  0  0  0  0
    9.2850   -3.7090   25.1090 C   0  0  0  0  0  0  0  0  0  0  0  0
   13.3999    1.9722   22.1845 C   0  0  0  0  0  0  0  0  0  0  0  0
    8.2936   -5.1727   26.8573 C   0  0  0  0  0  0  0  0  0  0  0  0
    8.9510    0.1280   21.6880 C   0  0  0  0  0  0  0  0  0  0  0  0
    8.4570   -6.5172   27.5438 C   0  0  0  0  0  0  0  0  0  0  0  0
    9.9041   -6.7452   27.9437 C   0  0  0  0  0  0  0  0  0  0  0  0
   10.8613   -6.5876   26.7664 C   0  0  0  0  0  0  0  0  0  0  0  0
   10.1902   -6.0099   25.5212 C   0  0  0  0  0  0  0  0  0  0  0  0
   10.0220    1.0430   23.6570 C   0  0  0  0  0  0  0  0  0  0  0  0
    9.4200   -0.0840   22.9530 C   0  0  2  0  0  0  0  0  0  0  0  0
    6.9440    0.2550   18.0100 N   0  0  0  0  0  0  0  0  0  0  0  0
    7.2210   -0.4620   20.0350 N   0  0  0  0  0  0  0  0  0  0  0  0
    9.2624   -4.9267   25.8634 N   0  0  0  0  0  0  0  0  0  0  0  0
    8.0810   -0.9750   21.0820 N   0  0  0  0  0  0  0  0  0  0  0  0
    7.3372   -4.4549   27.1472 O   0  0  0  0  0  0  0  0  0  0  0  0
    9.1870    1.1500   21.0630 O   0  0  0  0  0  0  0  0  0  0  0  0
   14.0262    2.8909   20.8709 Cl  0  0  0  0  0  0  0  0  0  0  0  0
    3.2711    2.7870   19.3201 H   0  0  0  0  0  0  0  0  0  0  0  0
    3.6262    2.0082   21.6285 H   0  0  0  0  0  0  0  0  0  0  0  0
   14.4418    0.0560   24.7933 H   0  0  0  0  0  0  0  0  0  0  0  0
   11.9993   -0.1021   25.1449 H   0  0  0  0  0  0  0  0  0  0  0  0
    7.5948   -0.7783   24.7966 H   0  0  0  0  0  0  0  0  0  0  0  0
   11.0389   -2.1844   22.6342 H   0  0  0  0  0  0  0  0  0  0  0  0
    4.7816    2.0660   17.4901 H   0  0  0  0  0  0  0  0  0  0  0  0
    5.4934    0.4579   22.1787 H   0  0  0  0  0  0  0  0  0  0  0  0
    7.5642   -2.8624   26.1050 H   0  0  0  0  0  0  0  0  0  0  0  0
   11.0137   -4.2649   23.9418 H   0  0  0  0  0  0  0  0  0  0  0  0
   15.3475    1.3733   22.9120 H   0  0  0  0  0  0  0  0  0  0  0  0
   11.3384    2.3964   21.7066 H   0  0  0  0  0  0  0  0  0  0  0  0
    8.5166   -1.1054   18.4533 H   0  0  0  0  0  0  0  0  0  0  0  0
    7.8354   -6.5308   28.4258 H   0  0  0  0  0  0  0  0  0  0  0  0
    8.1327   -7.2802   26.8520 H   0  0  0  0  0  0  0  0  0  0  0  0
   10.1894   -6.0388   28.7510 H   0  0  0  0  0  0  0  0  0  0  0  0
   10.0147   -7.7577   28.3814 H   0  0  0  0  0  0  0  0  0  0  0  0
   11.7074   -5.9326   27.0628 H   0  0  0  0  0  0  0  0  0  0  0  0
   11.3252   -7.5678   26.5219 H   0  0  0  0  0  0  0  0  0  0  0  0
   10.9447   -5.5942   24.8603 H   0  0  0  0  0  0  0  0  0  0  0  0
    9.6472   -6.7947   25.0059 H   0  0  0  0  0  0  0  0  0  0  0  0
    9.8382    0.9666   24.7377 H   0  0  0  0  0  0  0  0  0  0  0  0
    9.5447    1.9843   23.3536 H   0  0  0  0  0  0  0  0  0  0  0  0
    8.1249    0.3211   23.4916 H   0  0  0  0  0  0  0  0  0  0  0  0
    8.1256   -1.8039   21.3539 H   0  0  0  0  0  0  0  0  0  0  0  0
  1  2  1  0  0  0  0
  1  7  2  0  0  0  0
  2  8  2  0  0  0  0
  3  4  2  0  0  0  0
  3 11  1  0  0  0  0
  4 15  1  0  0  0  0
  5  9  2  0  0  0  0
  5 14  1  0  0  0  0
  6 10  1  0  0  0  0
  6 14  2  0  0  0  0
  7 16  1  0  0  0  0
  8 17  1  0  0  0  0
  9 18  1  0  0  0  0
 10 18  2  0  0  0  0
 11 19  2  0  0  0  0
 12 15  2  0  0  0  0
 12 19  1  0  0  0  0
 13 28  2  0  0  0  0
 13 29  1  0  0  0  0
 14 27  1  0  0  0  0
 15 26  1  0  0  0  0
 16 17  2  0  0  0  0
 16 28  1  0  0  0  0
 17 29  1  0  0  0  0
 18 30  1  0  0  0  0
 19 34  1  0  0  0  0
 20 22  1  0  0  0  0
 20 30  1  0  0  0  0
 20 32  2  0  0  0  0
 21 27  1  6  0  0  0
 21 31  1  0  0  0  0
 21 33  2  0  0  0  0
 22 23  1  0  0  0  0
 23 24  1  0  0  0  0
 24 25  1  0  0  0  0
 25 30  1  0  0  0  0
 26 27  1  0  0  0  0
 29 31  1  0  0  0  0
  1 35  1  0  0  0  0
  2 36  1  0  0  0  0
  3 37  1  0  0  0  0
  4 38  1  0  0  0  0
  5 39  1  0  0  0  0
  6 40  1  0  0  0  0
  7 41  1  0  0  0  0
  8 42  1  0  0  0  0
  9 43  1  0  0  0  0
 10 44  1  0  0  0  0
 11 45  1  0  0  0  0
 12 46  1  0  0  0  0
 13 47  1  0  0  0  0
 22 48  1  0  0  0  0
 22 49  1  0  0  0  0
 23 50  1  0  0  0  0
 23 51  1  0  0  0  0
 24 52  1  0  0  0  0
 24 53  1  0  0  0  0
 25 54  1  0  0  0  0
 25 55  1  0  0  0  0
 26 56  1  0  0  0  0
 26 57  1  0  0  0  0
 27 58  1  0  0  0  0
 31 59  1  0  0  0  0
M  END
> <clash_score>
2.0601108515385818

> <docking_score>
-6.904416561126709

> <overlap_score>
1.0294201374053955

$$$$
BENZO_218_1
  -OEChem-08222022403D

 59 63  0     1  0  0  0  0  0999 V2000
    4.0980    2.1130   19.5350 C   0  0  0  0  0  0  0  0  0  0  0  0
    4.2970    1.6690   20.8430 C   0  0  0  0  0  0  0  0  0  0  0  0
   13.7724    0.5968   24.0732 C   0  0  0  0  0  0  0  0  0  0  0  0
   12.5307    0.9037   23.5168 C   0  0  0  0  0  0  0  0  0  0  0  0
    8.3510   -1.5420   24.6110 C   0  0  0  0  0  0  0  0  0  0  0  0
   10.2760   -2.3270   23.4020 C   0  0  0  0  0  0  0  0  0  0  0  0
    4.9400    1.7060   18.5060 C   0  0  0  0  0  0  0  0  0  0  0  0
    5.3360    0.8000   21.1530 C   0  0  0  0  0  0  0  0  0  0  0  0
    8.3310   -2.7170   25.3430 C   0  0  0  0  0  0  0  0  0  0  0  0
   10.2570   -3.5000   24.1350 C   0  0  0  0  0  0  0  0  0  0  0  0
   13.8498    0.0954   25.3725 C   0  0  0  0  0  0  0  0  0  0  0  0
   11.4436    0.2079   25.5592 C   0  0  0  0  0  0  0  0  0  0  0  0
    7.6830   -0.5170   18.7600 C   0  0  0  0  0  0  0  0  0  0  0  0
    9.3300   -1.3350   23.6390 C   0  0  0  0  0  0  0  0  0  0  0  0
   11.3663    0.7093   24.2598 C   0  0  0  0  0  0  0  0  0  0  0  0
    5.9810    0.8330   18.8060 C   0  0  0  0  0  0  0  0  0  0  0  0
    6.1600    0.3870   20.1140 C   0  0  0  0  0  0  0  0  0  0  0  0
    9.2850   -3.7090   25.1090 C   0  0  0  0  0  0  0  0  0  0  0  0
   12.6854   -0.0991   26.1155 C   0  0  0  0  0  0  0  0  0  0  0  0
    8.0643   -5.4721   26.3672 C   0  0  0  0  0  0  0  0  0  0  0  0
    8.9510    0.1280   21.6880 C   0  0  0  0  0  0  0  0  0  0  0  0
    8.2649   -6.7591   27.1477 C   0  0  0  0  0  0  0  0  0  0  0  0
    9.4073   -6.6157   28.1377 C   0  0  0  0  0  0  0  0  0  0  0  0
   10.6967   -6.1489   27.4694 C   0  0  0  0  0  0  0  0  0  0  0  0
   10.4950   -5.7059   26.0212 C   0  0  0  0  0  0  0  0  0  0  0  0
   10.0220    1.0430   23.6570 C   0  0  0  0  0  0  0  0  0  0  0  0
    9.4200   -0.0840   22.9530 C   0  0  1  0  0  0  0  0  0  0  0  0
    6.9440    0.2550   18.0100 N   0  0  0  0  0  0  0  0  0  0  0  0
    7.2210   -0.4620   20.0350 N   0  0  0  0  0  0  0  0  0  0  0  0
    9.2624   -4.9267   25.8634 N   0  0  0  0  0  0  0  0  0  0  0  0
    8.0810   -0.9750   21.0820 N   0  0  0  0  0  0  0  0  0  0  0  0
    6.9247   -5.0497   26.1749 O   0  0  0  0  0  0  0  0  0  0  0  0
    9.1870    1.1500   21.0630 O   0  0  0  0  0  0  0  0  0  0  0  0
   12.7815   -0.7166   27.7190 Cl  0  0  0  0  0  0  0  0  0  0  0  0
    3.2711    2.7870   19.3201 H   0  0  0  0  0  0  0  0  0  0  0  0
    3.6262    2.0082   21.6284 H   0  0  0  0  0  0  0  0  0  0  0  0
   14.6789    0.7485   23.4943 H   0  0  0  0  0  0  0  0  0  0  0  0
   12.4799    1.2940   22.5037 H   0  0  0  0  0  0  0  0  0  0  0  0
    7.5948   -0.7783   24.7966 H   0  0  0  0  0  0  0  0  0  0  0  0
   11.0389   -2.1844   22.6342 H   0  0  0  0  0  0  0  0  0  0  0  0
    4.7816    2.0660   17.4901 H   0  0  0  0  0  0  0  0  0  0  0  0
    5.4934    0.4579   22.1787 H   0  0  0  0  0  0  0  0  0  0  0  0
    7.5642   -2.8624   26.1050 H   0  0  0  0  0  0  0  0  0  0  0  0
   11.0137   -4.2649   23.9418 H   0  0  0  0  0  0  0  0  0  0  0  0
   14.8244   -0.1392   25.7934 H   0  0  0  0  0  0  0  0  0  0  0  0
   10.5328    0.0576   26.1342 H   0  0  0  0  0  0  0  0  0  0  0  0
    8.5166   -1.1054   18.4533 H   0  0  0  0  0  0  0  0  0  0  0  0
    7.3543   -6.9829   27.6818 H   0  0  0  0  0  0  0  0  0  0  0  0
    8.4783   -7.5436   26.4372 H   0  0  0  0  0  0  0  0  0  0  0  0
    9.1257   -5.9021   28.9399 H   0  0  0  0  0  0  0  0  0  0  0  0
    9.5814   -7.5840   28.6486 H   0  0  0  0  0  0  0  0  0  0  0  0
   11.1319   -5.3094   28.0513 H   0  0  0  0  0  0  0  0  0  0  0  0
   11.4591   -6.9570   27.5118 H   0  0  0  0  0  0  0  0  0  0  0  0
   11.3214   -5.0711   25.7158 H   0  0  0  0  0  0  0  0  0  0  0  0
   10.4496   -6.5786   25.3788 H   0  0  0  0  0  0  0  0  0  0  0  0
    9.3646    1.3888   24.4669 H   0  0  0  0  0  0  0  0  0  0  0  0
   10.1228    1.9057   22.9851 H   0  0  0  0  0  0  0  0  0  0  0  0
   10.7230   -0.4323   22.4284 H   0  0  0  0  0  0  0  0  0  0  0  0
    8.1256   -1.8039   21.3539 H   0  0  0  0  0  0  0  0  0  0  0  0
  1  2  1  0  0  0  0
  1  7  2  0  0  0  0
  2  8  2  0  0  0  0
  3  4  2  0  0  0  0
  3 11  1  0  0  0  0
  4 15  1  0  0  0  0
  5  9  2  0  0  0  0
  5 14  1  0  0  0  0
  6 10  1  0  0  0  0
  6 14  2  0  0  0  0
  7 16  1  0  0  0  0
  8 17  1  0  0  0  0
  9 18  1  0  0  0  0
 10 18  2  0  0  0  0
 11 19  2  0  0  0  0
 12 15  2  0  0  0  0
 12 19  1  0  0  0  0
 13 28  2  0  0  0  0
 13 29  1  0  0  0  0
 14 27  1  0  0  0  0
 15 26  1  0  0  0  0
 16 17  2  0  0  0  0
 16 28  1  0  0  0  0
 17 29  1  0  0  0  0
 18 30  1  0  0  0  0
 19 34  1  0  0  0  0
 20 22  1  0  0  0  0
 20 30  1  0  0  0  0
 20 32  2  0  0  0  0
 21 27  1  1  0  0  0
 21 31  1  0  0  0  0
 21 33  2  0  0  0  0
 22 23  1  0  0  0  0
 23 24  1  0  0  0  0
 24 25  1  0  0  0  0
 25 30  1  0  0  0  0
 26 27  1  0  0  0  0
 29 31  1  0  0  0  0
  1 35  1  0  0  0  0
  2 36  1  0  0  0  0
  3 37  1  0  0  0  0
  4 38  1  0  0  0  0
  5 39  1  0  0  0  0
  6 40  1  0  0  0  0
  7 41  1  0  0  0  0
  8 42  1  0  0  0  0
  9 43  1  0  0  0  0
 10 44  1  0  0  0  0
 11 45  1  0  0  0  0
 12 46  1  0  0  0  0
 13 47  1  0  0  0  0
 22 48  1  0  0  0  0
 22 49  1  0  0  0  0
 23 50  1  0  0  0  0
 23 51  1  0  0  0  0
 24 52  1  0  0  0  0
 24 53  1  0  0  0  0
 25 54  1  0  0  0  0
 25 55  1  0  0  0  0
 26 56  1  0  0  0  0
 26 57  1  0  0  0  0
 27 58  1  0  0  0  0
 31 59  1  0  0  0  0
M  END
> <clash_score>
2.854423265344999

> <docking_score>
-5.948009014129639

> <overlap_score>
0.9488784074783325

$$$$
BENZO_219_1
  -OEChem-08222022403D

 59 63  0     1  0  0  0  0  0999 V2000
    4.0980    2.1130   19.5350 C   0  0  0  0  0  0  0  0  0  0  0  0
    4.2970    1.6690   20.8430 C   0  0  0  0  0  0  0  0  0  0  0  0
    8.3510   -1.5420   24.6110 C   0  0  0  0  0  0  0  0  0  0  0  0
   10.2760   -2.3270   23.4020 C   0  0  0  0  0  0  0  0  0  0  0  0
    4.9400    1.7060   18.5060 C   0  0  0  0  0  0  0  0  0  0  0  0
    5.3360    0.8000   21.1530 C   0  0  0  0  0  0  0  0  0  0  0  0
    8.3310   -2.7170   25.3430 C   0  0  0  0  0  0  0  0  0  0  0  0
   10.2570   -3.5000   24.1350 C   0  0  0  0  0  0  0  0  0  0  0  0
   12.3139    2.2980   23.4429 C   0  0  0  0  0  0  0  0  0  0  0  0
   12.3972    0.1128   23.2127 C   0  0  0  0  0  0  0  0  0  0  0  0
    7.6830   -0.5170   18.7600 C   0  0  0  0  0  0  0  0  0  0  0  0
    9.3300   -1.3350   23.6390 C   0  0  0  0  0  0  0  0  0  0  0  0
   11.5145    1.1392   23.4448 C   0  0  0  0  0  0  0  0  0  0  0  0
    5.9810    0.8330   18.8060 C   0  0  0  0  0  0  0  0  0  0  0  0
    6.1600    0.3870   20.1140 C   0  0  0  0  0  0  0  0  0  0  0  0
    9.2850   -3.7090   25.1090 C   0  0  0  0  0  0  0  0  0  0  0  0
    8.0643   -5.4721   26.3672 C   0  0  0  0  0  0  0  0  0  0  0  0
    8.9510    0.1280   21.6880 C   0  0  0  0  0  0  0  0  0  0  0  0
    8.2649   -6.7591   27.1477 C   0  0  0  0  0  0  0  0  0  0  0  0
    9.4073   -6.6157   28.1377 C   0  0  0  0  0  0  0  0  0  0  0  0
   10.6967   -6.1489   27.4694 C   0  0  0  0  0  0  0  0  0  0  0  0
   10.4950   -5.7059   26.0212 C   0  0  0  0  0  0  0  0  0  0  0  0
   14.8733    0.0191   22.8400 C   0  0  0  0  0  0  0  0  0  0  0  0
   10.0220    1.0430   23.6570 C   0  0  0  0  0  0  0  0  0  0  0  0
    9.4200   -0.0840   22.9530 C   0  0  1  0  0  0  0  0  0  0  0  0
   13.6051    2.0334   23.2269 N   0  0  0  0  0  0  0  0  0  0  0  0
    6.9440    0.2550   18.0100 N   0  0  0  0  0  0  0  0  0  0  0  0
   13.6239    0.6965   23.0910 N   0  0  0  0  0  0  0  0  0  0  0  0
    7.2210   -0.4620   20.0350 N   0  0  0  0  0  0  0  0  0  0  0  0
    9.2624   -4.9267   25.8634 N   0  0  0  0  0  0  0  0  0  0  0  0
    8.0810   -0.9750   21.0820 N   0  0  0  0  0  0  0  0  0  0  0  0
    6.9247   -5.0497   26.1749 O   0  0  0  0  0  0  0  0  0  0  0  0
    9.1870    1.1500   21.0630 O   0  0  0  0  0  0  0  0  0  0  0  0
    3.2711    2.7870   19.3201 H   0  0  0  0  0  0  0  0  0  0  0  0
    3.6262    2.0082   21.6285 H   0  0  0  0  0  0  0  0  0  0  0  0
    7.5948   -0.7783   24.7966 H   0  0  0  0  0  0  0  0  0  0  0  0
   11.0389   -2.1844   22.6342 H   0  0  0  0  0  0  0  0  0  0  0  0
    4.7816    2.0660   17.4901 H   0  0  0  0  0  0  0  0  0  0  0  0
    5.4934    0.4579   22.1787 H   0  0  0  0  0  0  0  0  0  0  0  0
    7.5642   -2.8624   26.1050 H   0  0  0  0  0  0  0  0  0  0  0  0
   11.0137   -4.2649   23.9418 H   0  0  0  0  0  0  0  0  0  0  0  0
   12.0117    3.3252   23.5906 H   0  0  0  0  0  0  0  0  0  0  0  0
   12.2606   -0.9567   23.1272 H   0  0  0  0  0  0  0  0  0  0  0  0
    8.5166   -1.1054   18.4533 H   0  0  0  0  0  0  0  0  0  0  0  0
    7.3543   -6.9829   27.6818 H   0  0  0  0  0  0  0  0  0  0  0  0
    8.4783   -7.5436   26.4372 H   0  0  0  0  0  0  0  0  0  0  0  0
    9.1257   -5.9021   28.9399 H   0  0  0  0  0  0  0  0  0  0  0  0
    9.5814   -7.5840   28.6486 H   0  0  0  0  0  0  0  0  0  0  0  0
   11.1319   -5.3094   28.0513 H   0  0  0  0  0  0  0  0  0  0  0  0
   11.4591   -6.9570   27.5118 H   0  0  0  0  0  0  0  0  0  0  0  0
   11.3214   -5.0711   25.7158 H   0  0  0  0  0  0  0  0  0  0  0  0
   10.4496   -6.5786   25.3788 H   0  0  0  0  0  0  0  0  0  0  0  0
   15.0151   -0.0370   21.7575 H   0  0  0  0  0  0  0  0  0  0  0  0
   15.6904    0.5784   23.3041 H   0  0  0  0  0  0  0  0  0  0  0  0
   14.8341   -0.9839   23.2740 H   0  0  0  0  0  0  0  0  0  0  0  0
    9.8382    0.9666   24.7377 H   0  0  0  0  0  0  0  0  0  0  0  0
    9.5447    1.9843   23.3536 H   0  0  0  0  0  0  0  0  0  0  0  0
    8.1249    0.3211   23.4916 H   0  0  0  0  0  0  0  0  0  0  0  0
    8.1256   -1.8039   21.3539 H   0  0  0  0  0  0  0  0  0  0  0  0
  1  2  1  0  0  0  0
  1  5  2  0  0  0  0
  2  6  2  0  0  0  0
  3  7  2  0  0  0  0
  3 12  1  0  0  0  0
  4  8  1  0  0  0  0
  4 12  2  0  0  0  0
  5 14  1  0  0  0  0
  6 15  1  0  0  0  0
  7 16  1  0  0  0  0
  8 16  2  0  0  0  0
  9 13  1  0  0  0  0
  9 26  2  0  0  0  0
 10 13  2  0  0  0  0
 10 28  1  0  0  0  0
 11 27  2  0  0  0  0
 11 29  1  0  0  0  0
 12 25  1  0  0  0  0
 13 24  1  0  0  0  0
 14 15  2  0  0  0  0
 14 27  1  0  0  0  0
 15 29  1  0  0  0  0
 16 30  1  0  0  0  0
 17 19  1  0  0  0  0
 17 30  1  0  0  0  0
 17 32  2  0  0  0  0
 18 25  1  0  0  0  0
 18 31  1  0  0  0  0
 18 33  2  0  0  0  0
 19 20  1  0  0  0  0
 20 21  1  0  0  0  0
 21 22  1  0  0  0  0
 22 30  1  0  0  0  0
 23 28  1  0  0  0  0
 24 25  1  1  0  0  0
 26 28  1  0  0  0  0
 29 31  1  0  0  0  0
  1 34  1  0  0  0  0
  2 35  1  0  0  0  0
  3 36  1  0  0  0  0
  4 37  1  0  0  0  0
  5 38  1  0  0  0  0
  6 39  1  0  0  0  0
  7 40  1  0  0  0  0
  8 41  1  0  0  0  0
  9 42  1  0  0  0  0
 10 43  1  0  0  0  0
 11 44  1  0  0  0  0
 19 45  1  0  0  0  0
 19 46  1  0  0  0  0
 20 47  1  0  0  0  0
 20 48  1  0  0  0  0
 21 49  1  0  0  0  0
 21 50  1  0  0  0  0
 22 51  1  0  0  0  0
 22 52  1  0  0  0  0
 23 53  1  0  0  0  0
 23 54  1  0  0  0  0
 23 55  1  0  0  0  0
 24 56  1  0  0  0  0
 24 57  1  0  0  0  0
 25 58  1  0  0  0  0
 31 59  1  0  0  0  0
M  END
> <clash_score>
1.2728248649063287

> <docking_score>
-8.42186450958252

> <overlap_score>
1.02734375

$$$$
BENZO_221_1
  -OEChem-08222022403D

 58 62  0     1  0  0  0  0  0999 V2000
   13.8495    0.0928   25.3716 C   0  0  0  0  0  0  0  0  0  0  0  0
   12.6852   -0.1006   26.1150 C   0  0  0  0  0  0  0  0  0  0  0  0
   13.7723    0.5944   24.0724 C   0  0  0  0  0  0  0  0  0  0  0  0
    4.0980    2.1130   19.5350 C   0  0  0  0  0  0  0  0  0  0  0  0
    4.2970    1.6690   20.8430 C   0  0  0  0  0  0  0  0  0  0  0  0
   11.4436    0.2076   25.5591 C   0  0  0  0  0  0  0  0  0  0  0  0
   12.5307    0.9026   23.5164 C   0  0  0  0  0  0  0  0  0  0  0  0
    8.3510   -1.5420   24.6110 C   0  0  0  0  0  0  0  0  0  0  0  0
   10.2760   -2.3270   23.4020 C   0  0  0  0  0  0  0  0  0  0  0  0
    4.9400    1.7060   18.5060 C   0  0  0  0  0  0  0  0  0  0  0  0
    5.3360    0.8000   21.1530 C   0  0  0  0  0  0  0  0  0  0  0  0
    8.3310   -2.7170   25.3430 C   0  0  0  0  0  0  0  0  0  0  0  0
   10.2570   -3.5000   24.1350 C   0  0  0  0  0  0  0  0  0  0  0  0
    7.6830   -0.5170   18.7600 C   0  0  0  0  0  0  0  0  0  0  0  0
   11.3663    0.7092   24.2598 C   0  0  0  0  0  0  0  0  0  0  0  0
    9.3300   -1.3350   23.6390 C   0  0  0  0  0  0  0  0  0  0  0  0
    5.9810    0.8330   18.8060 C   0  0  0  0  0  0  0  0  0  0  0  0
    6.1600    0.3870   20.1140 C   0  0  0  0  0  0  0  0  0  0  0  0
    9.2850   -3.7090   25.1090 C   0  0  0  0  0  0  0  0  0  0  0  0
    8.9510    0.1280   21.6880 C   0  0  0  0  0  0  0  0  0  0  0  0
    8.7671   -4.9535   27.2147 C   0  0  0  0  0  0  0  0  0  0  0  0
    9.3066   -6.1865   25.1649 C   0  0  0  0  0  0  0  0  0  0  0  0
    7.3847   -5.5970   27.2000 C   0  0  0  0  0  0  0  0  0  0  0  0
    7.9070   -6.7999   25.2264 C   0  0  0  0  0  0  0  0  0  0  0  0
   10.0220    1.0430   23.6570 C   0  0  0  0  0  0  0  0  0  0  0  0
    9.4200   -0.0840   22.9530 C   0  0  1  0  0  0  0  0  0  0  0  0
    6.9440    0.2550   18.0100 N   0  0  0  0  0  0  0  0  0  0  0  0
    7.2210   -0.4620   20.0350 N   0  0  0  0  0  0  0  0  0  0  0  0
    9.2641   -4.8845   25.8388 N   0  0  0  0  0  0  0  0  0  0  0  0
    8.0810   -0.9750   21.0820 N   0  0  0  0  0  0  0  0  0  0  0  0
    9.1870    1.1500   21.0630 O   0  0  0  0  0  0  0  0  0  0  0  0
    7.4533   -6.8877   26.5818 O   0  0  0  0  0  0  0  0  0  0  0  0
   14.8163   -0.1460   25.8052 H   0  0  0  0  0  0  0  0  0  0  0  0
   12.7453   -0.4901   27.1271 H   0  0  0  0  0  0  0  0  0  0  0  0
   14.6787    0.7461   23.4937 H   0  0  0  0  0  0  0  0  0  0  0  0
    3.2711    2.7870   19.3201 H   0  0  0  0  0  0  0  0  0  0  0  0
    3.6262    2.0082   21.6284 H   0  0  0  0  0  0  0  0  0  0  0  0
   10.5417    0.0536   26.1456 H   0  0  0  0  0  0  0  0  0  0  0  0
   12.4801    1.2928   22.5034 H   0  0  0  0  0  0  0  0  0  0  0  0
    7.5957   -0.7779   24.7973 H   0  0  0  0  0  0  0  0  0  0  0  0
   11.0384   -2.1852   22.6338 H   0  0  0  0  0  0  0  0  0  0  0  0
    4.7816    2.0660   17.4901 H   0  0  0  0  0  0  0  0  0  0  0  0
    5.4934    0.4579   22.1787 H   0  0  0  0  0  0  0  0  0  0  0  0
    7.5634   -2.8637   26.1037 H   0  0  0  0  0  0  0  0  0  0  0  0
   11.0139   -4.2645   23.9419 H   0  0  0  0  0  0  0  0  0  0  0  0
    8.5166   -1.1054   18.4533 H   0  0  0  0  0  0  0  0  0  0  0  0
    8.7013   -3.9575   27.6574 H   0  0  0  0  0  0  0  0  0  0  0  0
    9.4480   -5.5636   27.8142 H   0  0  0  0  0  0  0  0  0  0  0  0
   10.0131   -6.8375   25.6814 H   0  0  0  0  0  0  0  0  0  0  0  0
    9.6116   -6.0794   24.1250 H   0  0  0  0  0  0  0  0  0  0  0  0
    7.0306   -5.7388   28.2232 H   0  0  0  0  0  0  0  0  0  0  0  0
    6.6546   -4.9740   26.6757 H   0  0  0  0  0  0  0  0  0  0  0  0
    7.1892   -6.2226   24.6319 H   0  0  0  0  0  0  0  0  0  0  0  0
    7.9315   -7.8151   24.8187 H   0  0  0  0  0  0  0  0  0  0  0  0
    9.3646    1.3888   24.4669 H   0  0  0  0  0  0  0  0  0  0  0  0
   10.1228    1.9057   22.9851 H   0  0  0  0  0  0  0  0  0  0  0  0
   10.7230   -0.4323   22.4284 H   0  0  0  0  0  0  0  0  0  0  0  0
    8.1256   -1.8039   21.3539 H   0  0  0  0  0  0  0  0  0  0  0  0
  1  2  1  0  0  0  0
  1  3  2  0  0  0  0
  2  6  2  0  0  0  0
  3  7  1  0  0  0  0
  4  5  1  0  0  0  0
  4 10  2  0  0  0  0
  5 11  2  0  0  0  0
  6 15  1  0  0  0  0
  7 15  2  0  0  0  0
  8 12  2  0  0  0  0
  8 16  1  0  0  0  0
  9 13  1  0  0  0  0
  9 16  2  0  0  0  0
 10 17  1  0  0  0  0
 11 18  1  0  0  0  0
 12 19  1  0  0  0  0
 13 19  2  0  0  0  0
 14 27  2  0  0  0  0
 14 28  1  0  0  0  0
 15 25  1  0  0  0  0
 16 26  1  0  0  0  0
 17 18  2  0  0  0  0
 17 27  1  0  0  0  0
 18 28  1  0  0  0  0
 19 29  1  0  0  0  0
 20 26  1  1  0  0  0
 20 30  1  0  0  0  0
 20 31  2  0  0  0  0
 21 23  1  0  0  0  0
 21 29  1  0  0  0  0
 22 24  1  0  0  0  0
 22 29  1  0  0  0  0
 23 32  1  0  0  0  0
 24 32  1  0  0  0  0
 25 26  1  0  0  0  0
 28 30  1  0  0  0  0
  1 33  1  0  0  0  0
  2 34  1  0  0  0  0
  3 35  1  0  0  0  0
  4 36  1  0  0  0  0
  5 37  1  0  0  0  0
  6 38  1  0  0  0  0
  7 39  1  0  0  0  0
  8 40  1  0  0  0  0
  9 41  1  0  0  0  0
 10 42  1  0  0  0  0
 11 43  1  0  0  0  0
 12 44  1  0  0  0  0
 13 45  1  0  0  0  0
 14 46  1  0  0  0  0
 21 47  1  0  0  0  0
 21 48  1  0  0  0  0
 22 49  1  0  0  0  0
 22 50  1  0  0  0  0
 23 51  1  0  0  0  0
 23 52  1  0  0  0  0
 24 53  1  0  0  0  0
 24 54  1  0  0  0  0
 25 55  1  0  0  0  0
 25 56  1  0  0  0  0
 26 57  1  0  0  0  0
 30 58  1  0  0  0  0
M  END
> <clash_score>
0

> <docking_score>
-8.128362655639648

> <overlap_score>
0.9506747126579285

$$$$
BENZO_221_2
  -OEChem-08222022403D

 58 62  0     1  0  0  0  0  0999 V2000
   14.2707    1.3171   23.0515 C   0  0  0  0  0  0  0  0  0  0  0  0
   13.7649    0.5713   24.1162 C   0  0  0  0  0  0  0  0  0  0  0  0
   13.3984    1.9740   22.1835 C   0  0  0  0  0  0  0  0  0  0  0  0
    4.0980    2.1130   19.5350 C   0  0  0  0  0  0  0  0  0  0  0  0
    4.2970    1.6690   20.8430 C   0  0  0  0  0  0  0  0  0  0  0  0
   12.3868    0.4823   24.3128 C   0  0  0  0  0  0  0  0  0  0  0  0
   12.0204    1.8850   22.3801 C   0  0  0  0  0  0  0  0  0  0  0  0
    8.3510   -1.5420   24.6110 C   0  0  0  0  0  0  0  0  0  0  0  0
   10.2760   -2.3270   23.4020 C   0  0  0  0  0  0  0  0  0  0  0  0
    4.9400    1.7060   18.5060 C   0  0  0  0  0  0  0  0  0  0  0  0
    5.3360    0.8000   21.1530 C   0  0  0  0  0  0  0  0  0  0  0  0
    8.3310   -2.7170   25.3430 C   0  0  0  0  0  0  0  0  0  0  0  0
   10.2570   -3.5000   24.1350 C   0  0  0  0  0  0  0  0  0  0  0  0
    7.6830   -0.5170   18.7600 C   0  0  0  0  0  0  0  0  0  0  0  0
   11.5145    1.1392   23.4448 C   0  0  0  0  0  0  0  0  0  0  0  0
    9.3300   -1.3350   23.6390 C   0  0  0  0  0  0  0  0  0  0  0  0
    5.9810    0.8330   18.8060 C   0  0  0  0  0  0  0  0  0  0  0  0
    6.1600    0.3870   20.1140 C   0  0  0  0  0  0  0  0  0  0  0  0
    9.2850   -3.7090   25.1090 C   0  0  0  0  0  0  0  0  0  0  0  0
    8.9510    0.1280   21.6880 C   0  0  0  0  0  0  0  0  0  0  0  0
    8.7671   -4.9535   27.2147 C   0  0  0  0  0  0  0  0  0  0  0  0
    9.3066   -6.1865   25.1649 C   0  0  0  0  0  0  0  0  0  0  0  0
    7.3847   -5.5970   27.2000 C   0  0  0  0  0  0  0  0  0  0  0  0
    7.9070   -6.7999   25.2264 C   0  0  0  0  0  0  0  0  0  0  0  0
   10.0220    1.0430   23.6570 C   0  0  0  0  0  0  0  0  0  0  0  0
    9.4200   -0.0840   22.9530 C   0  0  2  0  0  0  0  0  0  0  0  0
    6.9440    0.2550   18.0100 N   0  0  0  0  0  0  0  0  0  0  0  0
    7.2210   -0.4620   20.0350 N   0  0  0  0  0  0  0  0  0  0  0  0
    9.2641   -4.8845   25.8388 N   0  0  0  0  0  0  0  0  0  0  0  0
    8.0810   -0.9750   21.0820 N   0  0  0  0  0  0  0  0  0  0  0  0
    9.1870    1.1500   21.0630 O   0  0  0  0  0  0  0  0  0  0  0  0
    7.4533   -6.8877   26.5818 O   0  0  0  0  0  0  0  0  0  0  0  0
   15.3438    1.3874   22.8993 H   0  0  0  0  0  0  0  0  0  0  0  0
   14.4439    0.0607   24.7928 H   0  0  0  0  0  0  0  0  0  0  0  0
   13.7920    2.5556   21.3551 H   0  0  0  0  0  0  0  0  0  0  0  0
    3.2711    2.7870   19.3201 H   0  0  0  0  0  0  0  0  0  0  0  0
    3.6262    2.0082   21.6284 H   0  0  0  0  0  0  0  0  0  0  0  0
   12.0017   -0.1012   25.1449 H   0  0  0  0  0  0  0  0  0  0  0  0
   11.3484    2.4000   21.6987 H   0  0  0  0  0  0  0  0  0  0  0  0
    7.5957   -0.7779   24.7973 H   0  0  0  0  0  0  0  0  0  0  0  0
   11.0384   -2.1852   22.6338 H   0  0  0  0  0  0  0  0  0  0  0  0
    4.7816    2.0660   17.4901 H   0  0  0  0  0  0  0  0  0  0  0  0
    5.4934    0.4579   22.1787 H   0  0  0  0  0  0  0  0  0  0  0  0
    7.5634   -2.8637   26.1037 H   0  0  0  0  0  0  0  0  0  0  0  0
   11.0139   -4.2645   23.9419 H   0  0  0  0  0  0  0  0  0  0  0  0
    8.5166   -1.1054   18.4533 H   0  0  0  0  0  0  0  0  0  0  0  0
    8.7013   -3.9575   27.6574 H   0  0  0  0  0  0  0  0  0  0  0  0
    9.4480   -5.5636   27.8142 H   0  0  0  0  0  0  0  0  0  0  0  0
   10.0131   -6.8375   25.6814 H   0  0  0  0  0  0  0  0  0  0  0  0
    9.6116   -6.0794   24.1250 H   0  0  0  0  0  0  0  0  0  0  0  0
    7.0306   -5.7388   28.2232 H   0  0  0  0  0  0  0  0  0  0  0  0
    6.6546   -4.9740   26.6757 H   0  0  0  0  0  0  0  0  0  0  0  0
    7.1892   -6.2226   24.6319 H   0  0  0  0  0  0  0  0  0  0  0  0
    7.9315   -7.8151   24.8187 H   0  0  0  0  0  0  0  0  0  0  0  0
    9.8382    0.9666   24.7377 H   0  0  0  0  0  0  0  0  0  0  0  0
    9.5448    1.9843   23.3535 H   0  0  0  0  0  0  0  0  0  0  0  0
    8.1249    0.3211   23.4916 H   0  0  0  0  0  0  0  0  0  0  0  0
    8.1256   -1.8039   21.3539 H   0  0  0  0  0  0  0  0  0  0  0  0
  1  2  1  0  0  0  0
  1  3  2  0  0  0  0
  2  6  2  0  0  0  0
  3  7  1  0  0  0  0
  4  5  1  0  0  0  0
  4 10  2  0  0  0  0
  5 11  2  0  0  0  0
  6 15  1  0  0  0  0
  7 15  2  0  0  0  0
  8 12  2  0  0  0  0
  8 16  1  0  0  0  0
  9 13  1  0  0  0  0
  9 16  2  0  0  0  0
 10 17  1  0  0  0  0
 11 18  1  0  0  0  0
 12 19  1  0  0  0  0
 13 19  2  0  0  0  0
 14 27  2  0  0  0  0
 14 28  1  0  0  0  0
 15 25  1  0  0  0  0
 16 26  1  0  0  0  0
 17 18  2  0  0  0  0
 17 27  1  0  0  0  0
 18 28  1  0  0  0  0
 19 29  1  0  0  0  0
 20 26  1  6  0  0  0
 20 30  1  0  0  0  0
 20 31  2  0  0  0  0
 21 23  1  0  0  0  0
 21 29  1  0  0  0  0
 22 24  1  0  0  0  0
 22 29  1  0  0  0  0
 23 32  1  0  0  0  0
 24 32  1  0  0  0  0
 25 26  1  0  0  0  0
 28 30  1  0  0  0  0
  1 33  1  0  0  0  0
  2 34  1  0  0  0  0
  3 35  1  0  0  0  0
  4 36  1  0  0  0  0
  5 37  1  0  0  0  0
  6 38  1  0  0  0  0
  7 39  1  0  0  0  0
  8 40  1  0  0  0  0
  9 41  1  0  0  0  0
 10 42  1  0  0  0  0
 11 43  1  0  0  0  0
 12 44  1  0  0  0  0
 13 45  1  0  0  0  0
 14 46  1  0  0  0  0
 21 47  1  0  0  0  0
 21 48  1  0  0  0  0
 22 49  1  0  0  0  0
 22 50  1  0  0  0  0
 23 51  1  0  0  0  0
 23 52  1  0  0  0  0
 24 53  1  0  0  0  0
 24 54  1  0  0  0  0
 25 55  1  0  0  0  0
 25 56  1  0  0  0  0
 26 57  1  0  0  0  0
 30 58  1  0  0  0  0
M  END
> <clash_score>
0

> <docking_score>
-9.013602256774902

> <overlap_score>
1.026007056236267

$$$$
BENZO_220_1
  -OEChem-08222022403D

 55 59  0     1  0  0  0  0  0999 V2000
    4.0980    2.1130   19.5350 C   0  0  0  0  0  0  0  0  0  0  0  0
    4.2970    1.6690   20.8430 C   0  0  0  0  0  0  0  0  0  0  0  0
    8.3510   -1.5420   24.6110 C   0  0  0  0  0  0  0  0  0  0  0  0
   10.2760   -2.3270   23.4020 C   0  0  0  0  0  0  0  0  0  0  0  0
    4.9400    1.7060   18.5060 C   0  0  0  0  0  0  0  0  0  0  0  0
    5.3360    0.8000   21.1530 C   0  0  0  0  0  0  0  0  0  0  0  0
    8.3310   -2.7170   25.3430 C   0  0  0  0  0  0  0  0  0  0  0  0
   10.2570   -3.5000   24.1350 C   0  0  0  0  0  0  0  0  0  0  0  0
   12.2409   -0.1354   24.2898 C   0  0  0  0  0  0  0  0  0  0  0  0
   13.0475   -0.3864   25.3779 C   0  0  0  0  0  0  0  0  0  0  0  0
   11.0530    0.9174   25.9876 C   0  0  0  0  0  0  0  0  0  0  0  0
    7.6830   -0.5170   18.7600 C   0  0  0  0  0  0  0  0  0  0  0  0
    9.3300   -1.3350   23.6390 C   0  0  0  0  0  0  0  0  0  0  0  0
   11.0855    0.6199   24.6428 C   0  0  0  0  0  0  0  0  0  0  0  0
    5.9810    0.8330   18.8060 C   0  0  0  0  0  0  0  0  0  0  0  0
    6.1600    0.3870   20.1140 C   0  0  0  0  0  0  0  0  0  0  0  0
    9.2850   -3.7090   25.1090 C   0  0  0  0  0  0  0  0  0  0  0  0
    8.9510    0.1280   21.6880 C   0  0  0  0  0  0  0  0  0  0  0  0
    8.7671   -4.9535   27.2147 C   0  0  0  0  0  0  0  0  0  0  0  0
    9.3066   -6.1865   25.1649 C   0  0  0  0  0  0  0  0  0  0  0  0
    7.3847   -5.5970   27.2000 C   0  0  0  0  0  0  0  0  0  0  0  0
    7.9070   -6.7999   25.2264 C   0  0  0  0  0  0  0  0  0  0  0  0
   10.0220    1.0430   23.6570 C   0  0  0  0  0  0  0  0  0  0  0  0
    9.4200   -0.0840   22.9530 C   0  0  1  0  0  0  0  0  0  0  0  0
    6.9440    0.2550   18.0100 N   0  0  0  0  0  0  0  0  0  0  0  0
    7.2210   -0.4620   20.0350 N   0  0  0  0  0  0  0  0  0  0  0  0
    9.2641   -4.8845   25.8388 N   0  0  0  0  0  0  0  0  0  0  0  0
    8.0810   -0.9750   21.0820 N   0  0  0  0  0  0  0  0  0  0  0  0
    9.1870    1.1500   21.0630 O   0  0  0  0  0  0  0  0  0  0  0  0
    7.4533   -6.8877   26.5818 O   0  0  0  0  0  0  0  0  0  0  0  0
   12.4115    0.2872   26.8180 S   0  0  0  0  0  0  0  0  0  0  0  0
    3.2711    2.7870   19.3201 H   0  0  0  0  0  0  0  0  0  0  0  0
    3.6262    2.0082   21.6284 H   0  0  0  0  0  0  0  0  0  0  0  0
    7.5957   -0.7779   24.7973 H   0  0  0  0  0  0  0  0  0  0  0  0
   11.0384   -2.1852   22.6338 H   0  0  0  0  0  0  0  0  0  0  0  0
    4.7816    2.0660   17.4901 H   0  0  0  0  0  0  0  0  0  0  0  0
    5.4934    0.4579   22.1787 H   0  0  0  0  0  0  0  0  0  0  0  0
    7.5634   -2.8637   26.1037 H   0  0  0  0  0  0  0  0  0  0  0  0
   11.0139   -4.2645   23.9419 H   0  0  0  0  0  0  0  0  0  0  0  0
   12.4724   -0.4797   23.2896 H   0  0  0  0  0  0  0  0  0  0  0  0
   13.9794   -0.9336   25.3962 H   0  0  0  0  0  0  0  0  0  0  0  0
   10.2979    1.4731   26.5262 H   0  0  0  0  0  0  0  0  0  0  0  0
    8.5166   -1.1054   18.4533 H   0  0  0  0  0  0  0  0  0  0  0  0
    8.7013   -3.9575   27.6574 H   0  0  0  0  0  0  0  0  0  0  0  0
    9.4480   -5.5636   27.8142 H   0  0  0  0  0  0  0  0  0  0  0  0
   10.0131   -6.8375   25.6814 H   0  0  0  0  0  0  0  0  0  0  0  0
    9.6116   -6.0794   24.1250 H   0  0  0  0  0  0  0  0  0  0  0  0
    7.0306   -5.7388   28.2232 H   0  0  0  0  0  0  0  0  0  0  0  0
    6.6546   -4.9740   26.6757 H   0  0  0  0  0  0  0  0  0  0  0  0
    7.1892   -6.2226   24.6319 H   0  0  0  0  0  0  0  0  0  0  0  0
    7.9315   -7.8151   24.8187 H   0  0  0  0  0  0  0  0  0  0  0  0
    9.2570    1.6088   24.2068 H   0  0  0  0  0  0  0  0  0  0  0  0
   10.4463    1.7601   22.9416 H   0  0  0  0  0  0  0  0  0  0  0  0
   10.7230   -0.4323   22.4284 H   0  0  0  0  0  0  0  0  0  0  0  0
    8.1256   -1.8039   21.3539 H   0  0  0  0  0  0  0  0  0  0  0  0
  1  2  1  0  0  0  0
  1  5  2  0  0  0  0
  2  6  2  0  0  0  0
  3  7  2  0  0  0  0
  3 13  1  0  0  0  0
  4  8  1  0  0  0  0
  4 13  2  0  0  0  0
  5 15  1  0  0  0  0
  6 16  1  0  0  0  0
  7 17  1  0  0  0  0
  8 17  2  0  0  0  0
  9 10  2  0  0  0  0
  9 14  1  0  0  0  0
 10 31  1  0  0  0  0
 11 14  2  0  0  0  0
 11 31  1  0  0  0  0
 12 25  2  0  0  0  0
 12 26  1  0  0  0  0
 13 24  1  0  0  0  0
 14 23  1  0  0  0  0
 15 16  2  0  0  0  0
 15 25  1  0  0  0  0
 16 26  1  0  0  0  0
 17 27  1  0  0  0  0
 18 24  1  1  0  0  0
 18 28  1  0  0  0  0
 18 29  2  0  0  0  0
 19 21  1  0  0  0  0
 19 27  1  0  0  0  0
 20 22  1  0  0  0  0
 20 27  1  0  0  0  0
 21 30  1  0  0  0  0
 22 30  1  0  0  0  0
 23 24  1  0  0  0  0
 26 28  1  0  0  0  0
  1 32  1  0  0  0  0
  2 33  1  0  0  0  0
  3 34  1  0  0  0  0
  4 35  1  0  0  0  0
  5 36  1  0  0  0  0
  6 37  1  0  0  0  0
  7 38  1  0  0  0  0
  8 39  1  0  0  0  0
  9 40  1  0  0  0  0
 10 41  1  0  0  0  0
 11 42  1  0  0  0  0
 12 43  1  0  0  0  0
 19 44  1  0  0  0  0
 19 45  1  0  0  0  0
 20 46  1  0  0  0  0
 20 47  1  0  0  0  0
 21 48  1  0  0  0  0
 21 49  1  0  0  0  0
 22 50  1  0  0  0  0
 22 51  1  0  0  0  0
 23 52  1  0  0  0  0
 23 53  1  0  0  0  0
 24 54  1  0  0  0  0
 28 55  1  0  0  0  0
M  END
> <clash_score>
0.6208372113484875

> <docking_score>
-7.079930305480957

> <overlap_score>
0.9024399518966675

$$$$
BENZO_220_2
  -OEChem-08222022403D

 55 59  0     1  0  0  0  0  0999 V2000
    4.0980    2.1130   19.5350 C   0  0  0  0  0  0  0  0  0  0  0  0
    4.2970    1.6690   20.8430 C   0  0  0  0  0  0  0  0  0  0  0  0
    8.3510   -1.5420   24.6110 C   0  0  0  0  0  0  0  0  0  0  0  0
   10.2760   -2.3270   23.4020 C   0  0  0  0  0  0  0  0  0  0  0  0
    4.9400    1.7060   18.5060 C   0  0  0  0  0  0  0  0  0  0  0  0
    5.3360    0.8000   21.1530 C   0  0  0  0  0  0  0  0  0  0  0  0
    8.3310   -2.7170   25.3430 C   0  0  0  0  0  0  0  0  0  0  0  0
   10.2570   -3.5000   24.1350 C   0  0  0  0  0  0  0  0  0  0  0  0
   12.2339    2.3684   23.4053 C   0  0  0  0  0  0  0  0  0  0  0  0
   13.5816    2.1729   23.1980 C   0  0  0  0  0  0  0  0  0  0  0  0
   12.3400    0.0508   23.2659 C   0  0  0  0  0  0  0  0  0  0  0  0
    7.6830   -0.5170   18.7600 C   0  0  0  0  0  0  0  0  0  0  0  0
    9.3300   -1.3350   23.6390 C   0  0  0  0  0  0  0  0  0  0  0  0
   11.5145    1.1392   23.4448 C   0  0  0  0  0  0  0  0  0  0  0  0
    5.9810    0.8330   18.8060 C   0  0  0  0  0  0  0  0  0  0  0  0
    6.1600    0.3870   20.1140 C   0  0  0  0  0  0  0  0  0  0  0  0
    9.2850   -3.7090   25.1090 C   0  0  0  0  0  0  0  0  0  0  0  0
    8.9510    0.1280   21.6880 C   0  0  0  0  0  0  0  0  0  0  0  0
    8.7671   -4.9535   27.2147 C   0  0  0  0  0  0  0  0  0  0  0  0
    9.3066   -6.1865   25.1649 C   0  0  0  0  0  0  0  0  0  0  0  0
    7.3847   -5.5970   27.2000 C   0  0  0  0  0  0  0  0  0  0  0  0
    7.9070   -6.7999   25.2264 C   0  0  0  0  0  0  0  0  0  0  0  0
   10.0220    1.0430   23.6570 C   0  0  0  0  0  0  0  0  0  0  0  0
    9.4200   -0.0840   22.9530 C   0  0  2  0  0  0  0  0  0  0  0  0
    6.9440    0.2550   18.0100 N   0  0  0  0  0  0  0  0  0  0  0  0
    7.2210   -0.4620   20.0350 N   0  0  0  0  0  0  0  0  0  0  0  0
    9.2641   -4.8845   25.8388 N   0  0  0  0  0  0  0  0  0  0  0  0
    8.0810   -0.9750   21.0820 N   0  0  0  0  0  0  0  0  0  0  0  0
    9.1870    1.1500   21.0630 O   0  0  0  0  0  0  0  0  0  0  0  0
    7.4533   -6.8877   26.5818 O   0  0  0  0  0  0  0  0  0  0  0  0
   13.9749    0.5127   23.0518 S   0  0  0  0  0  0  0  0  0  0  0  0
    3.2711    2.7870   19.3201 H   0  0  0  0  0  0  0  0  0  0  0  0
    3.6262    2.0082   21.6284 H   0  0  0  0  0  0  0  0  0  0  0  0
    7.5957   -0.7779   24.7973 H   0  0  0  0  0  0  0  0  0  0  0  0
   11.0384   -2.1852   22.6338 H   0  0  0  0  0  0  0  0  0  0  0  0
    4.7816    2.0660   17.4901 H   0  0  0  0  0  0  0  0  0  0  0  0
    5.4934    0.4579   22.1787 H   0  0  0  0  0  0  0  0  0  0  0  0
    7.5634   -2.8637   26.1037 H   0  0  0  0  0  0  0  0  0  0  0  0
   11.0139   -4.2645   23.9419 H   0  0  0  0  0  0  0  0  0  0  0  0
   11.7893    3.3487   23.5221 H   0  0  0  0  0  0  0  0  0  0  0  0
   14.3540    2.9254   23.1246 H   0  0  0  0  0  0  0  0  0  0  0  0
   12.0651   -0.9948   23.2488 H   0  0  0  0  0  0  0  0  0  0  0  0
    8.5166   -1.1054   18.4533 H   0  0  0  0  0  0  0  0  0  0  0  0
    8.7013   -3.9575   27.6574 H   0  0  0  0  0  0  0  0  0  0  0  0
    9.4480   -5.5636   27.8142 H   0  0  0  0  0  0  0  0  0  0  0  0
   10.0131   -6.8375   25.6814 H   0  0  0  0  0  0  0  0  0  0  0  0
    9.6116   -6.0794   24.1250 H   0  0  0  0  0  0  0  0  0  0  0  0
    7.0306   -5.7388   28.2232 H   0  0  0  0  0  0  0  0  0  0  0  0
    6.6546   -4.9740   26.6757 H   0  0  0  0  0  0  0  0  0  0  0  0
    7.1892   -6.2226   24.6319 H   0  0  0  0  0  0  0  0  0  0  0  0
    7.9315   -7.8151   24.8187 H   0  0  0  0  0  0  0  0  0  0  0  0
    9.8382    0.9666   24.7377 H   0  0  0  0  0  0  0  0  0  0  0  0
    9.5448    1.9843   23.3535 H   0  0  0  0  0  0  0  0  0  0  0  0
    8.1249    0.3211   23.4916 H   0  0  0  0  0  0  0  0  0  0  0  0
    8.1256   -1.8039   21.3539 H   0  0  0  0  0  0  0  0  0  0  0  0
  1  2  1  0  0  0  0
  1  5  2  0  0  0  0
  2  6  2  0  0  0  0
  3  7  2  0  0  0  0
  3 13  1  0  0  0  0
  4  8  1  0  0  0  0
  4 13  2  0  0  0  0
  5 15  1  0  0  0  0
  6 16  1  0  0  0  0
  7 17  1  0  0  0  0
  8 17  2  0  0  0  0
  9 10  2  0  0  0  0
  9 14  1  0  0  0  0
 10 31  1  0  0  0  0
 11 14  2  0  0  0  0
 11 31  1  0  0  0  0
 12 25  2  0  0  0  0
 12 26  1  0  0  0  0
 13 24  1  0  0  0  0
 14 23  1  0  0  0  0
 15 16  2  0  0  0  0
 15 25  1  0  0  0  0
 16 26  1  0  0  0  0
 17 27  1  0  0  0  0
 18 24  1  6  0  0  0
 18 28  1  0  0  0  0
 18 29  2  0  0  0  0
 19 21  1  0  0  0  0
 19 27  1  0  0  0  0
 20 22  1  0  0  0  0
 20 27  1  0  0  0  0
 21 30  1  0  0  0  0
 22 30  1  0  0  0  0
 23 24  1  0  0  0  0
 26 28  1  0  0  0  0
  1 32  1  0  0  0  0
  2 33  1  0  0  0  0
  3 34  1  0  0  0  0
  4 35  1  0  0  0  0
  5 36  1  0  0  0  0
  6 37  1  0  0  0  0
  7 38  1  0  0  0  0
  8 39  1  0  0  0  0
  9 40  1  0  0  0  0
 10 41  1  0  0  0  0
 11 42  1  0  0  0  0
 12 43  1  0  0  0  0
 19 44  1  0  0  0  0
 19 45  1  0  0  0  0
 20 46  1  0  0  0  0
 20 47  1  0  0  0  0
 21 48  1  0  0  0  0
 21 49  1  0  0  0  0
 22 50  1  0  0  0  0
 22 51  1  0  0  0  0
 23 52  1  0  0  0  0
 23 53  1  0  0  0  0
 24 54  1  0  0  0  0
 28 55  1  0  0  0  0
M  END
> <clash_score>
0

> <docking_score>
-9.778005599975586

> <overlap_score>
1.0128666162490845

$$$$
BENZO_225_1
  -OEChem-08222022403D

 53 56  0     1  0  0  0  0  0999 V2000
   14.2623    1.3345   22.9975 C   0  0  0  0  0  0  0  0  0  0  0  0
    4.2970    1.6690   20.8430 C   0  0  0  0  0  0  0  0  0  0  0  0
   13.7729    0.5817   24.0649 C   0  0  0  0  0  0  0  0  0  0  0  0
   13.3767    1.9928   22.1442 C   0  0  0  0  0  0  0  0  0  0  0  0
    4.0980    2.1130   19.5350 C   0  0  0  0  0  0  0  0  0  0  0  0
    5.3360    0.8000   21.1530 C   0  0  0  0  0  0  0  0  0  0  0  0
   12.3978    0.4871   24.2790 C   0  0  0  0  0  0  0  0  0  0  0  0
   12.0016    1.8982   22.3583 C   0  0  0  0  0  0  0  0  0  0  0  0
    8.3510   -1.5420   24.6110 C   0  0  0  0  0  0  0  0  0  0  0  0
   10.2760   -2.3270   23.4020 C   0  0  0  0  0  0  0  0  0  0  0  0
    4.9400    1.7060   18.5060 C   0  0  0  0  0  0  0  0  0  0  0  0
    8.3310   -2.7170   25.3430 C   0  0  0  0  0  0  0  0  0  0  0  0
   10.2570   -3.5000   24.1350 C   0  0  0  0  0  0  0  0  0  0  0  0
    6.1600    0.3870   20.1140 C   0  0  0  0  0  0  0  0  0  0  0  0
   11.5121    1.1453   23.4257 C   0  0  0  0  0  0  0  0  0  0  0  0
    9.3300   -1.3350   23.6390 C   0  0  0  0  0  0  0  0  0  0  0  0
    5.9810    0.8330   18.8060 C   0  0  0  0  0  0  0  0  0  0  0  0
    9.2850   -3.7090   25.1090 C   0  0  0  0  0  0  0  0  0  0  0  0
    7.2210   -0.4620   20.0350 C   0  0  0  0  0  0  0  0  0  0  0  0
    8.9510    0.1280   21.6880 C   0  0  0  0  0  0  0  0  0  0  0  0
    8.2522   -5.1181   26.8654 C   0  0  0  0  0  0  0  0  0  0  0  0
   10.2439   -5.9404   25.5982 C   0  0  0  0  0  0  0  0  0  0  0  0
   10.0220    1.0430   23.6570 C   0  0  0  0  0  0  0  0  0  0  0  0
    9.4200   -0.0840   22.9530 C   0  0  1  0  0  0  0  0  0  0  0  0
    7.6830   -0.5170   18.7600 N   0  0  0  0  0  0  0  0  0  0  0  0
    6.9440    0.2550   18.0100 N   0  0  0  0  0  0  0  0  0  0  0  0
    8.0810   -0.9750   21.0820 N   0  0  0  0  0  0  0  0  0  0  0  0
    9.2638   -4.9025   25.8500 N   0  0  0  0  0  0  0  0  0  0  0  0
    9.1870    1.1500   21.0630 O   0  0  0  0  0  0  0  0  0  0  0  0
   15.3331    1.4092   22.8317 H   0  0  0  0  0  0  0  0  0  0  0  0
    3.6274    2.0126   21.6300 H   0  0  0  0  0  0  0  0  0  0  0  0
   14.4623    0.0700   24.7300 H   0  0  0  0  0  0  0  0  0  0  0  0
   13.7574    2.5799   21.3138 H   0  0  0  0  0  0  0  0  0  0  0  0
    3.2732    2.7875   19.3199 H   0  0  0  0  0  0  0  0  0  0  0  0
    5.4878    0.4645   22.1722 H   0  0  0  0  0  0  0  0  0  0  0  0
   12.0255   -0.1019   25.1131 H   0  0  0  0  0  0  0  0  0  0  0  0
   11.3191    2.4143   21.6883 H   0  0  0  0  0  0  0  0  0  0  0  0
    7.5957   -0.7779   24.7973 H   0  0  0  0  0  0  0  0  0  0  0  0
   11.0384   -2.1852   22.6338 H   0  0  0  0  0  0  0  0  0  0  0  0
    4.7853    2.0674   17.4815 H   0  0  0  0  0  0  0  0  0  0  0  0
    7.5634   -2.8637   26.1037 H   0  0  0  0  0  0  0  0  0  0  0  0
   11.0139   -4.2645   23.9419 H   0  0  0  0  0  0  0  0  0  0  0  0
    8.4021   -6.1042   27.3293 H   0  0  0  0  0  0  0  0  0  0  0  0
    8.3318   -4.3354   27.6341 H   0  0  0  0  0  0  0  0  0  0  0  0
    7.2548   -5.0782   26.4033 H   0  0  0  0  0  0  0  0  0  0  0  0
   10.0615   -6.7893   26.2735 H   0  0  0  0  0  0  0  0  0  0  0  0
   10.1605   -6.2778   24.5545 H   0  0  0  0  0  0  0  0  0  0  0  0
   11.2537   -5.5417   25.7750 H   0  0  0  0  0  0  0  0  0  0  0  0
    9.8253    0.9889   24.7357 H   0  0  0  0  0  0  0  0  0  0  0  0
    9.5635    1.9845   23.3241 H   0  0  0  0  0  0  0  0  0  0  0  0
    8.1288    0.3205   23.5156 H   0  0  0  0  0  0  0  0  0  0  0  0
    7.1015    0.3608   17.0505 H   0  0  0  0  0  0  0  0  0  0  0  0
    8.1201   -1.8087   21.3560 H   0  0  0  0  0  0  0  0  0  0  0  0
  1  3  1  0  0  0  0
  1  4  2  0  0  0  0
  2  5  1  0  0  0  0
  2  6  2  0  0  0  0
  3  7  2  0  0  0  0
  4  8  1  0  0  0  0
  5 11  2  0  0  0  0
  6 14  1  0  0  0  0
  7 15  1  0  0  0  0
  8 15  2  0  0  0  0
  9 12  2  0  0  0  0
  9 16  1  0  0  0  0
 10 13  1  0  0  0  0
 10 16  2  0  0  0  0
 11 17  1  0  0  0  0
 12 18  1  0  0  0  0
 13 18  2  0  0  0  0
 14 17  2  0  0  0  0
 14 19  1  0  0  0  0
 15 23  1  0  0  0  0
 16 24  1  0  0  0  0
 17 26  1  0  0  0  0
 18 28  1  0  0  0  0
 19 25  2  0  0  0  0
 19 27  1  0  0  0  0
 20 24  1  0  0  0  0
 20 27  1  0  0  0  0
 20 29  2  0  0  0  0
 21 28  1  0  0  0  0
 22 28  1  0  0  0  0
 23 24  1  1  0  0  0
 25 26  1  0  0  0  0
  1 30  1  0  0  0  0
  2 31  1  0  0  0  0
  3 32  1  0  0  0  0
  4 33  1  0  0  0  0
  5 34  1  0  0  0  0
  6 35  1  0  0  0  0
  7 36  1  0  0  0  0
  8 37  1  0  0  0  0
  9 38  1  0  0  0  0
 10 39  1  0  0  0  0
 11 40  1  0  0  0  0
 12 41  1  0  0  0  0
 13 42  1  0  0  0  0
 21 43  1  0  0  0  0
 21 44  1  0  0  0  0
 21 45  1  0  0  0  0
 22 46  1  0  0  0  0
 22 47  1  0  0  0  0
 22 48  1  0  0  0  0
 23 49  1  0  0  0  0
 23 50  1  0  0  0  0
 24 51  1  0  0  0  0
 26 52  1  0  0  0  0
 27 53  1  0  0  0  0
M  END
> <clash_score>
0

> <docking_score>
-8.058469772338867

> <overlap_score>
1.0132735967636108

$$$$
BENZO_223_2
  -OEChem-08222022403D

 58 62  0     1  0  0  0  0  0999 V2000
    4.0980    2.1130   19.5350 C   0  0  0  0  0  0  0  0  0  0  0  0
    4.2970    1.6690   20.8430 C   0  0  0  0  0  0  0  0  0  0  0  0
    8.3510   -1.5420   24.6110 C   0  0  0  0  0  0  0  0  0  0  0  0
   10.2760   -2.3270   23.4020 C   0  0  0  0  0  0  0  0  0  0  0  0
    4.9400    1.7060   18.5060 C   0  0  0  0  0  0  0  0  0  0  0  0
    5.3360    0.8000   21.1530 C   0  0  0  0  0  0  0  0  0  0  0  0
    8.3310   -2.7170   25.3430 C   0  0  0  0  0  0  0  0  0  0  0  0
   10.2570   -3.5000   24.1350 C   0  0  0  0  0  0  0  0  0  0  0  0
   12.6359    0.8405   23.6658 C   0  0  0  0  0  0  0  0  0  0  0  0
   11.6237    0.2113   25.5137 C   0  0  0  0  0  0  0  0  0  0  0  0
    7.6830   -0.5170   18.7600 C   0  0  0  0  0  0  0  0  0  0  0  0
    9.3300   -1.3350   23.6390 C   0  0  0  0  0  0  0  0  0  0  0  0
   11.3663    0.7092   24.2598 C   0  0  0  0  0  0  0  0  0  0  0  0
    5.9810    0.8330   18.8060 C   0  0  0  0  0  0  0  0  0  0  0  0
    6.1600    0.3870   20.1140 C   0  0  0  0  0  0  0  0  0  0  0  0
    9.2850   -3.7090   25.1090 C   0  0  0  0  0  0  0  0  0  0  0  0
    8.9510    0.1280   21.6880 C   0  0  0  0  0  0  0  0  0  0  0  0
    8.7671   -4.9535   27.2147 C   0  0  0  0  0  0  0  0  0  0  0  0
    9.3066   -6.1865   25.1649 C   0  0  0  0  0  0  0  0  0  0  0  0
    7.3847   -5.5970   27.2000 C   0  0  0  0  0  0  0  0  0  0  0  0
    7.9070   -6.7999   25.2264 C   0  0  0  0  0  0  0  0  0  0  0  0
   13.7282   -0.4085   26.7244 C   0  0  0  0  0  0  0  0  0  0  0  0
   10.0220    1.0430   23.6570 C   0  0  0  0  0  0  0  0  0  0  0  0
    9.4200   -0.0840   22.9530 C   0  0  2  0  0  0  0  0  0  0  0  0
   13.6263    0.4570   24.4758 N   0  0  0  0  0  0  0  0  0  0  0  0
    6.9440    0.2550   18.0100 N   0  0  0  0  0  0  0  0  0  0  0  0
   12.9790    0.0800   25.5916 N   0  0  0  0  0  0  0  0  0  0  0  0
    7.2210   -0.4620   20.0350 N   0  0  0  0  0  0  0  0  0  0  0  0
    9.2641   -4.8845   25.8388 N   0  0  0  0  0  0  0  0  0  0  0  0
    8.0810   -0.9750   21.0820 N   0  0  0  0  0  0  0  0  0  0  0  0
    9.1870    1.1500   21.0630 O   0  0  0  0  0  0  0  0  0  0  0  0
    7.4533   -6.8877   26.5818 O   0  0  0  0  0  0  0  0  0  0  0  0
    3.2711    2.7870   19.3201 H   0  0  0  0  0  0  0  0  0  0  0  0
    3.6262    2.0082   21.6284 H   0  0  0  0  0  0  0  0  0  0  0  0
    7.5957   -0.7779   24.7973 H   0  0  0  0  0  0  0  0  0  0  0  0
   11.0384   -2.1852   22.6338 H   0  0  0  0  0  0  0  0  0  0  0  0
    4.7816    2.0660   17.4901 H   0  0  0  0  0  0  0  0  0  0  0  0
    5.4934    0.4579   22.1787 H   0  0  0  0  0  0  0  0  0  0  0  0
    7.5634   -2.8637   26.1037 H   0  0  0  0  0  0  0  0  0  0  0  0
   11.0139   -4.2645   23.9419 H   0  0  0  0  0  0  0  0  0  0  0  0
   12.8833    1.2002   22.6770 H   0  0  0  0  0  0  0  0  0  0  0  0
   10.9741   -0.0530   26.3371 H   0  0  0  0  0  0  0  0  0  0  0  0
    8.5166   -1.1054   18.4533 H   0  0  0  0  0  0  0  0  0  0  0  0
    8.7013   -3.9575   27.6574 H   0  0  0  0  0  0  0  0  0  0  0  0
    9.4480   -5.5636   27.8142 H   0  0  0  0  0  0  0  0  0  0  0  0
   10.0131   -6.8375   25.6814 H   0  0  0  0  0  0  0  0  0  0  0  0
    9.6116   -6.0794   24.1250 H   0  0  0  0  0  0  0  0  0  0  0  0
    7.0306   -5.7388   28.2232 H   0  0  0  0  0  0  0  0  0  0  0  0
    6.6546   -4.9740   26.6757 H   0  0  0  0  0  0  0  0  0  0  0  0
    7.1892   -6.2226   24.6319 H   0  0  0  0  0  0  0  0  0  0  0  0
    7.9315   -7.8151   24.8187 H   0  0  0  0  0  0  0  0  0  0  0  0
   13.8306   -1.4918   26.6192 H   0  0  0  0  0  0  0  0  0  0  0  0
   14.7120    0.0685   26.7434 H   0  0  0  0  0  0  0  0  0  0  0  0
   13.1927   -0.1616   27.6454 H   0  0  0  0  0  0  0  0  0  0  0  0
    9.3646    1.3888   24.4669 H   0  0  0  0  0  0  0  0  0  0  0  0
   10.1228    1.9057   22.9851 H   0  0  0  0  0  0  0  0  0  0  0  0
   10.7230   -0.4323   22.4284 H   0  0  0  0  0  0  0  0  0  0  0  0
    8.1256   -1.8039   21.3539 H   0  0  0  0  0  0  0  0  0  0  0  0
  1  2  1  0  0  0  0
  1  5  2  0  0  0  0
  2  6  2  0  0  0  0
  3  7  2  0  0  0  0
  3 12  1  0  0  0  0
  4  8  1  0  0  0  0
  4 12  2  0  0  0  0
  5 14  1  0  0  0  0
  6 15  1  0  0  0  0
  7 16  1  0  0  0  0
  8 16  2  0  0  0  0
  9 13  1  0  0  0  0
  9 25  2  0  0  0  0
 10 13  2  0  0  0  0
 10 27  1  0  0  0  0
 11 26  2  0  0  0  0
 11 28  1  0  0  0  0
 12 24  1  0  0  0  0
 13 23  1  0  0  0  0
 14 15  2  0  0  0  0
 14 26  1  0  0  0  0
 15 28  1  0  0  0  0
 16 29  1  0  0  0  0
 17 24  1  0  0  0  0
 17 30  1  0  0  0  0
 17 31  2  0  0  0  0
 18 20  1  0  0  0  0
 18 29  1  0  0  0  0
 19 21  1  0  0  0  0
 19 29  1  0  0  0  0
 20 32  1  0  0  0  0
 21 32  1  0  0  0  0
 22 27  1  0  0  0  0
 23 24  1  6  0  0  0
 25 27  1  0  0  0  0
 28 30  1  0  0  0  0
  1 33  1  0  0  0  0
  2 34  1  0  0  0  0
  3 35  1  0  0  0  0
  4 36  1  0  0  0  0
  5 37  1  0  0  0  0
  6 38  1  0  0  0  0
  7 39  1  0  0  0  0
  8 40  1  0  0  0  0
  9 41  1  0  0  0  0
 10 42  1  0  0  0  0
 11 43  1  0  0  0  0
 18 44  1  0  0  0  0
 18 45  1  0  0  0  0
 19 46  1  0  0  0  0
 19 47  1  0  0  0  0
 20 48  1  0  0  0  0
 20 49  1  0  0  0  0
 21 50  1  0  0  0  0
 21 51  1  0  0  0  0
 22 52  1  0  0  0  0
 22 53  1  0  0  0  0
 22 54  1  0  0  0  0
 23 55  1  0  0  0  0
 23 56  1  0  0  0  0
 24 57  1  0  0  0  0
 30 58  1  0  0  0  0
M  END
> <clash_score>
0.7305695786537518

> <docking_score>
-7.980128288269043

> <overlap_score>
0.9420347213745117

$$$$
BENZO_222_1
  -OEChem-08222022403D

 58 62  0     1  0  0  0  0  0999 V2000
    4.0980    2.1130   19.5350 C   0  0  0  0  0  0  0  0  0  0  0  0
    4.2970    1.6690   20.8430 C   0  0  0  0  0  0  0  0  0  0  0  0
   13.7724    0.5968   24.0731 C   0  0  0  0  0  0  0  0  0  0  0  0
   12.5307    0.9037   23.5168 C   0  0  0  0  0  0  0  0  0  0  0  0
    8.3510   -1.5420   24.6110 C   0  0  0  0  0  0  0  0  0  0  0  0
   10.2760   -2.3270   23.4020 C   0  0  0  0  0  0  0  0  0  0  0  0
    4.9400    1.7060   18.5060 C   0  0  0  0  0  0  0  0  0  0  0  0
    5.3360    0.8000   21.1530 C   0  0  0  0  0  0  0  0  0  0  0  0
    8.3310   -2.7170   25.3430 C   0  0  0  0  0  0  0  0  0  0  0  0
   10.2570   -3.5000   24.1350 C   0  0  0  0  0  0  0  0  0  0  0  0
   13.8498    0.0953   25.3725 C   0  0  0  0  0  0  0  0  0  0  0  0
   11.4436    0.2079   25.5591 C   0  0  0  0  0  0  0  0  0  0  0  0
    7.6830   -0.5170   18.7600 C   0  0  0  0  0  0  0  0  0  0  0  0
    9.3300   -1.3350   23.6390 C   0  0  0  0  0  0  0  0  0  0  0  0
   11.3663    0.7092   24.2598 C   0  0  0  0  0  0  0  0  0  0  0  0
    5.9810    0.8330   18.8060 C   0  0  0  0  0  0  0  0  0  0  0  0
    6.1600    0.3870   20.1140 C   0  0  0  0  0  0  0  0  0  0  0  0
    9.2850   -3.7090   25.1090 C   0  0  0  0  0  0  0  0  0  0  0  0
   12.6854   -0.0991   26.1155 C   0  0  0  0  0  0  0  0  0  0  0  0
    8.9510    0.1280   21.6880 C   0  0  0  0  0  0  0  0  0  0  0  0
    8.7671   -4.9535   27.2147 C   0  0  0  0  0  0  0  0  0  0  0  0
    9.3066   -6.1865   25.1649 C   0  0  0  0  0  0  0  0  0  0  0  0
    7.3847   -5.5970   27.2000 C   0  0  0  0  0  0  0  0  0  0  0  0
    7.9070   -6.7999   25.2264 C   0  0  0  0  0  0  0  0  0  0  0  0
   10.0220    1.0430   23.6570 C   0  0  0  0  0  0  0  0  0  0  0  0
    9.4200   -0.0840   22.9530 C   0  0  1  0  0  0  0  0  0  0  0  0
    6.9440    0.2550   18.0100 N   0  0  0  0  0  0  0  0  0  0  0  0
    7.2210   -0.4620   20.0350 N   0  0  0  0  0  0  0  0  0  0  0  0
    9.2641   -4.8845   25.8388 N   0  0  0  0  0  0  0  0  0  0  0  0
    8.0810   -0.9750   21.0820 N   0  0  0  0  0  0  0  0  0  0  0  0
    9.1870    1.1500   21.0630 O   0  0  0  0  0  0  0  0  0  0  0  0
    7.4533   -6.8877   26.5818 O   0  0  0  0  0  0  0  0  0  0  0  0
   12.7815   -0.7167   27.7190 Cl  0  0  0  0  0  0  0  0  0  0  0  0
    3.2711    2.7870   19.3201 H   0  0  0  0  0  0  0  0  0  0  0  0
    3.6262    2.0082   21.6284 H   0  0  0  0  0  0  0  0  0  0  0  0
   14.6789    0.7484   23.4943 H   0  0  0  0  0  0  0  0  0  0  0  0
   12.4799    1.2940   22.5037 H   0  0  0  0  0  0  0  0  0  0  0  0
    7.5957   -0.7779   24.7973 H   0  0  0  0  0  0  0  0  0  0  0  0
   11.0384   -2.1852   22.6338 H   0  0  0  0  0  0  0  0  0  0  0  0
    4.7816    2.0660   17.4901 H   0  0  0  0  0  0  0  0  0  0  0  0
    5.4934    0.4579   22.1787 H   0  0  0  0  0  0  0  0  0  0  0  0
    7.5634   -2.8637   26.1037 H   0  0  0  0  0  0  0  0  0  0  0  0
   11.0139   -4.2645   23.9419 H   0  0  0  0  0  0  0  0  0  0  0  0
   14.8244   -0.1392   25.7934 H   0  0  0  0  0  0  0  0  0  0  0  0
   10.5328    0.0576   26.1342 H   0  0  0  0  0  0  0  0  0  0  0  0
    8.5166   -1.1054   18.4533 H   0  0  0  0  0  0  0  0  0  0  0  0
    8.7013   -3.9575   27.6574 H   0  0  0  0  0  0  0  0  0  0  0  0
    9.4480   -5.5636   27.8142 H   0  0  0  0  0  0  0  0  0  0  0  0
   10.0131   -6.8375   25.6814 H   0  0  0  0  0  0  0  0  0  0  0  0
    9.6116   -6.0794   24.1250 H   0  0  0  0  0  0  0  0  0  0  0  0
    7.0306   -5.7388   28.2232 H   0  0  0  0  0  0  0  0  0  0  0  0
    6.6546   -4.9740   26.6757 H   0  0  0  0  0  0  0  0  0  0  0  0
    7.1892   -6.2226   24.6319 H   0  0  0  0  0  0  0  0  0  0  0  0
    7.9315   -7.8151   24.8187 H   0  0  0  0  0  0  0  0  0  0  0  0
    9.3646    1.3888   24.4669 H   0  0  0  0  0  0  0  0  0  0  0  0
   10.1228    1.9057   22.9851 H   0  0  0  0  0  0  0  0  0  0  0  0
   10.7230   -0.4323   22.4284 H   0  0  0  0  0  0  0  0  0  0  0  0
    8.1256   -1.8039   21.3539 H   0  0  0  0  0  0  0  0  0  0  0  0
  1  2  1  0  0  0  0
  1  7  2  0  0  0  0
  2  8  2  0  0  0  0
  3  4  2  0  0  0  0
  3 11  1  0  0  0  0
  4 15  1  0  0  0  0
  5  9  2  0  0  0  0
  5 14  1  0  0  0  0
  6 10  1  0  0  0  0
  6 14  2  0  0  0  0
  7 16  1  0  0  0  0
  8 17  1  0  0  0  0
  9 18  1  0  0  0  0
 10 18  2  0  0  0  0
 11 19  2  0  0  0  0
 12 15  2  0  0  0  0
 12 19  1  0  0  0  0
 13 27  2  0  0  0  0
 13 28  1  0  0  0  0
 14 26  1  0  0  0  0
 15 25  1  0  0  0  0
 16 17  2  0  0  0  0
 16 27  1  0  0  0  0
 17 28  1  0  0  0  0
 18 29  1  0  0  0  0
 19 33  1  0  0  0  0
 20 26  1  1  0  0  0
 20 30  1  0  0  0  0
 20 31  2  0  0  0  0
 21 23  1  0  0  0  0
 21 29  1  0  0  0  0
 22 24  1  0  0  0  0
 22 29  1  0  0  0  0
 23 32  1  0  0  0  0
 24 32  1  0  0  0  0
 25 26  1  0  0  0  0
 28 30  1  0  0  0  0
  1 34  1  0  0  0  0
  2 35  1  0  0  0  0
  3 36  1  0  0  0  0
  4 37  1  0  0  0  0
  5 38  1  0  0  0  0
  6 39  1  0  0  0  0
  7 40  1  0  0  0  0
  8 41  1  0  0  0  0
  9 42  1  0  0  0  0
 10 43  1  0  0  0  0
 11 44  1  0  0  0  0
 12 45  1  0  0  0  0
 13 46  1  0  0  0  0
 21 47  1  0  0  0  0
 21 48  1  0  0  0  0
 22 49  1  0  0  0  0
 22 50  1  0  0  0  0
 23 51  1  0  0  0  0
 23 52  1  0  0  0  0
 24 53  1  0  0  0  0
 24 54  1  0  0  0  0
 25 55  1  0  0  0  0
 25 56  1  0  0  0  0
 26 57  1  0  0  0  0
 30 58  1  0  0  0  0
M  END
> <clash_score>
1.5816119700703457

> <docking_score>
-7.184093475341797

> <overlap_score>
0.9493311047554016

$$$$
BENZO_223_1
  -OEChem-08222022403D

 58 62  0     1  0  0  0  0  0999 V2000
    4.0980    2.1130   19.5350 C   0  0  0  0  0  0  0  0  0  0  0  0
    4.2970    1.6690   20.8430 C   0  0  0  0  0  0  0  0  0  0  0  0
    8.3510   -1.5420   24.6110 C   0  0  0  0  0  0  0  0  0  0  0  0
   10.2760   -2.3270   23.4020 C   0  0  0  0  0  0  0  0  0  0  0  0
    4.9400    1.7060   18.5060 C   0  0  0  0  0  0  0  0  0  0  0  0
    5.3360    0.8000   21.1530 C   0  0  0  0  0  0  0  0  0  0  0  0
    8.3310   -2.7170   25.3430 C   0  0  0  0  0  0  0  0  0  0  0  0
   10.2570   -3.5000   24.1350 C   0  0  0  0  0  0  0  0  0  0  0  0
   12.3139    2.2980   23.4429 C   0  0  0  0  0  0  0  0  0  0  0  0
   12.3972    0.1128   23.2127 C   0  0  0  0  0  0  0  0  0  0  0  0
    7.6830   -0.5170   18.7600 C   0  0  0  0  0  0  0  0  0  0  0  0
    9.3300   -1.3350   23.6390 C   0  0  0  0  0  0  0  0  0  0  0  0
   11.5145    1.1392   23.4448 C   0  0  0  0  0  0  0  0  0  0  0  0
    5.9810    0.8330   18.8060 C   0  0  0  0  0  0  0  0  0  0  0  0
    6.1600    0.3870   20.1140 C   0  0  0  0  0  0  0  0  0  0  0  0
    9.2850   -3.7090   25.1090 C   0  0  0  0  0  0  0  0  0  0  0  0
    8.9510    0.1280   21.6880 C   0  0  0  0  0  0  0  0  0  0  0  0
    8.7671   -4.9535   27.2147 C   0  0  0  0  0  0  0  0  0  0  0  0
    9.3066   -6.1865   25.1649 C   0  0  0  0  0  0  0  0  0  0  0  0
    7.3847   -5.5970   27.2000 C   0  0  0  0  0  0  0  0  0  0  0  0
    7.9070   -6.7999   25.2264 C   0  0  0  0  0  0  0  0  0  0  0  0
   14.8733    0.0190   22.8400 C   0  0  0  0  0  0  0  0  0  0  0  0
   10.0220    1.0430   23.6570 C   0  0  0  0  0  0  0  0  0  0  0  0
    9.4200   -0.0840   22.9530 C   0  0  1  0  0  0  0  0  0  0  0  0
   13.6051    2.0333   23.2269 N   0  0  0  0  0  0  0  0  0  0  0  0
    6.9440    0.2550   18.0100 N   0  0  0  0  0  0  0  0  0  0  0  0
   13.6239    0.6965   23.0910 N   0  0  0  0  0  0  0  0  0  0  0  0
    7.2210   -0.4620   20.0350 N   0  0  0  0  0  0  0  0  0  0  0  0
    9.2641   -4.8845   25.8388 N   0  0  0  0  0  0  0  0  0  0  0  0
    8.0810   -0.9750   21.0820 N   0  0  0  0  0  0  0  0  0  0  0  0
    9.1870    1.1500   21.0630 O   0  0  0  0  0  0  0  0  0  0  0  0
    7.4533   -6.8877   26.5818 O   0  0  0  0  0  0  0  0  0  0  0  0
    3.2711    2.7870   19.3201 H   0  0  0  0  0  0  0  0  0  0  0  0
    3.6262    2.0082   21.6284 H   0  0  0  0  0  0  0  0  0  0  0  0
    7.5957   -0.7779   24.7973 H   0  0  0  0  0  0  0  0  0  0  0  0
   11.0384   -2.1852   22.6338 H   0  0  0  0  0  0  0  0  0  0  0  0
    4.7816    2.0660   17.4901 H   0  0  0  0  0  0  0  0  0  0  0  0
    5.4934    0.4579   22.1787 H   0  0  0  0  0  0  0  0  0  0  0  0
    7.5634   -2.8637   26.1037 H   0  0  0  0  0  0  0  0  0  0  0  0
   11.0139   -4.2645   23.9419 H   0  0  0  0  0  0  0  0  0  0  0  0
   12.0117    3.3252   23.5906 H   0  0  0  0  0  0  0  0  0  0  0  0
   12.2606   -0.9567   23.1272 H   0  0  0  0  0  0  0  0  0  0  0  0
    8.5166   -1.1054   18.4533 H   0  0  0  0  0  0  0  0  0  0  0  0
    8.7013   -3.9575   27.6574 H   0  0  0  0  0  0  0  0  0  0  0  0
    9.4480   -5.5636   27.8142 H   0  0  0  0  0  0  0  0  0  0  0  0
   10.0131   -6.8375   25.6814 H   0  0  0  0  0  0  0  0  0  0  0  0
    9.6116   -6.0794   24.1250 H   0  0  0  0  0  0  0  0  0  0  0  0
    7.0306   -5.7388   28.2232 H   0  0  0  0  0  0  0  0  0  0  0  0
    6.6546   -4.9740   26.6757 H   0  0  0  0  0  0  0  0  0  0  0  0
    7.1892   -6.2226   24.6319 H   0  0  0  0  0  0  0  0  0  0  0  0
    7.9315   -7.8151   24.8187 H   0  0  0  0  0  0  0  0  0  0  0  0
   15.0151   -0.0371   21.7575 H   0  0  0  0  0  0  0  0  0  0  0  0
   15.6904    0.5783   23.3041 H   0  0  0  0  0  0  0  0  0  0  0  0
   14.8341   -0.9840   23.2740 H   0  0  0  0  0  0  0  0  0  0  0  0
    9.8382    0.9666   24.7377 H   0  0  0  0  0  0  0  0  0  0  0  0
    9.5448    1.9843   23.3535 H   0  0  0  0  0  0  0  0  0  0  0  0
    8.1249    0.3211   23.4916 H   0  0  0  0  0  0  0  0  0  0  0  0
    8.1256   -1.8039   21.3539 H   0  0  0  0  0  0  0  0  0  0  0  0
  1  2  1  0  0  0  0
  1  5  2  0  0  0  0
  2  6  2  0  0  0  0
  3  7  2  0  0  0  0
  3 12  1  0  0  0  0
  4  8  1  0  0  0  0
  4 12  2  0  0  0  0
  5 14  1  0  0  0  0
  6 15  1  0  0  0  0
  7 16  1  0  0  0  0
  8 16  2  0  0  0  0
  9 13  1  0  0  0  0
  9 25  2  0  0  0  0
 10 13  2  0  0  0  0
 10 27  1  0  0  0  0
 11 26  2  0  0  0  0
 11 28  1  0  0  0  0
 12 24  1  0  0  0  0
 13 23  1  0  0  0  0
 14 15  2  0  0  0  0
 14 26  1  0  0  0  0
 15 28  1  0  0  0  0
 16 29  1  0  0  0  0
 17 24  1  0  0  0  0
 17 30  1  0  0  0  0
 17 31  2  0  0  0  0
 18 20  1  0  0  0  0
 18 29  1  0  0  0  0
 19 21  1  0  0  0  0
 19 29  1  0  0  0  0
 20 32  1  0  0  0  0
 21 32  1  0  0  0  0
 22 27  1  0  0  0  0
 23 24  1  1  0  0  0
 25 27  1  0  0  0  0
 28 30  1  0  0  0  0
  1 33  1  0  0  0  0
  2 34  1  0  0  0  0
  3 35  1  0  0  0  0
  4 36  1  0  0  0  0
  5 37  1  0  0  0  0
  6 38  1  0  0  0  0
  7 39  1  0  0  0  0
  8 40  1  0  0  0  0
  9 41  1  0  0  0  0
 10 42  1  0  0  0  0
 11 43  1  0  0  0  0
 18 44  1  0  0  0  0
 18 45  1  0  0  0  0
 19 46  1  0  0  0  0
 19 47  1  0  0  0  0
 20 48  1  0  0  0  0
 20 49  1  0  0  0  0
 21 50  1  0  0  0  0
 21 51  1  0  0  0  0
 22 52  1  0  0  0  0
 22 53  1  0  0  0  0
 22 54  1  0  0  0  0
 23 55  1  0  0  0  0
 23 56  1  0  0  0  0
 24 57  1  0  0  0  0
 30 58  1  0  0  0  0
M  END
> <clash_score>
0

> <docking_score>
-9.657940864562988

> <overlap_score>
1.0279370546340942

$$$$
BENZO_224_1
  -OEChem-08222022403D

 50 53  0     1  0  0  0  0  0999 V2000
    4.2970    1.6690   20.8430 C   0  0  0  0  0  0  0  0  0  0  0  0
    4.0980    2.1130   19.5350 C   0  0  0  0  0  0  0  0  0  0  0  0
    5.3360    0.8000   21.1530 C   0  0  0  0  0  0  0  0  0  0  0  0
    8.3510   -1.5420   24.6110 C   0  0  0  0  0  0  0  0  0  0  0  0
   10.2760   -2.3270   23.4020 C   0  0  0  0  0  0  0  0  0  0  0  0
    4.9400    1.7060   18.5060 C   0  0  0  0  0  0  0  0  0  0  0  0
    8.3310   -2.7170   25.3430 C   0  0  0  0  0  0  0  0  0  0  0  0
   10.2570   -3.5000   24.1350 C   0  0  0  0  0  0  0  0  0  0  0  0
   12.2216    2.3786   23.3498 C   0  0  0  0  0  0  0  0  0  0  0  0
   13.5684    2.1883   23.1319 C   0  0  0  0  0  0  0  0  0  0  0  0
   12.3438    0.0592   23.2626 C   0  0  0  0  0  0  0  0  0  0  0  0
    6.1600    0.3870   20.1140 C   0  0  0  0  0  0  0  0  0  0  0  0
    9.3300   -1.3350   23.6390 C   0  0  0  0  0  0  0  0  0  0  0  0
   11.5121    1.1453   23.4257 C   0  0  0  0  0  0  0  0  0  0  0  0
    5.9810    0.8330   18.8060 C   0  0  0  0  0  0  0  0  0  0  0  0
    9.2850   -3.7090   25.1090 C   0  0  0  0  0  0  0  0  0  0  0  0
    7.2210   -0.4620   20.0350 C   0  0  0  0  0  0  0  0  0  0  0  0
    8.9510    0.1280   21.6880 C   0  0  0  0  0  0  0  0  0  0  0  0
    8.2522   -5.1181   26.8654 C   0  0  0  0  0  0  0  0  0  0  0  0
   10.2439   -5.9404   25.5982 C   0  0  0  0  0  0  0  0  0  0  0  0
   10.0220    1.0430   23.6570 C   0  0  0  0  0  0  0  0  0  0  0  0
    9.4200   -0.0840   22.9530 C   0  0  1  0  0  0  0  0  0  0  0  0
    7.6830   -0.5170   18.7600 N   0  0  0  0  0  0  0  0  0  0  0  0
    6.9440    0.2550   18.0100 N   0  0  0  0  0  0  0  0  0  0  0  0
    8.0810   -0.9750   21.0820 N   0  0  0  0  0  0  0  0  0  0  0  0
    9.2638   -4.9025   25.8500 N   0  0  0  0  0  0  0  0  0  0  0  0
    9.1870    1.1500   21.0630 O   0  0  0  0  0  0  0  0  0  0  0  0
   13.9727    0.5281   23.0196 S   0  0  0  0  0  0  0  0  0  0  0  0
    3.6274    2.0126   21.6300 H   0  0  0  0  0  0  0  0  0  0  0  0
    3.2732    2.7875   19.3199 H   0  0  0  0  0  0  0  0  0  0  0  0
    5.4878    0.4645   22.1722 H   0  0  0  0  0  0  0  0  0  0  0  0
    7.5957   -0.7779   24.7973 H   0  0  0  0  0  0  0  0  0  0  0  0
   11.0384   -2.1852   22.6338 H   0  0  0  0  0  0  0  0  0  0  0  0
    4.7853    2.0674   17.4815 H   0  0  0  0  0  0  0  0  0  0  0  0
    7.5634   -2.8637   26.1037 H   0  0  0  0  0  0  0  0  0  0  0  0
   11.0139   -4.2645   23.9419 H   0  0  0  0  0  0  0  0  0  0  0  0
   11.7708    3.3580   23.4491 H   0  0  0  0  0  0  0  0  0  0  0  0
   14.3341    2.9446   23.0326 H   0  0  0  0  0  0  0  0  0  0  0  0
   12.0768   -0.9885   23.2727 H   0  0  0  0  0  0  0  0  0  0  0  0
    8.4021   -6.1042   27.3293 H   0  0  0  0  0  0  0  0  0  0  0  0
    8.3318   -4.3354   27.6341 H   0  0  0  0  0  0  0  0  0  0  0  0
    7.2548   -5.0782   26.4033 H   0  0  0  0  0  0  0  0  0  0  0  0
   10.0615   -6.7893   26.2735 H   0  0  0  0  0  0  0  0  0  0  0  0
   10.1605   -6.2778   24.5545 H   0  0  0  0  0  0  0  0  0  0  0  0
   11.2537   -5.5417   25.7750 H   0  0  0  0  0  0  0  0  0  0  0  0
    9.8253    0.9889   24.7357 H   0  0  0  0  0  0  0  0  0  0  0  0
    9.5635    1.9845   23.3241 H   0  0  0  0  0  0  0  0  0  0  0  0
    8.1288    0.3205   23.5156 H   0  0  0  0  0  0  0  0  0  0  0  0
    7.1015    0.3608   17.0505 H   0  0  0  0  0  0  0  0  0  0  0  0
    8.1201   -1.8087   21.3560 H   0  0  0  0  0  0  0  0  0  0  0  0
  1  2  1  0  0  0  0
  1  3  2  0  0  0  0
  2  6  2  0  0  0  0
  3 12  1  0  0  0  0
  4  7  2  0  0  0  0
  4 13  1  0  0  0  0
  5  8  1  0  0  0  0
  5 13  2  0  0  0  0
  6 15  1  0  0  0  0
  7 16  1  0  0  0  0
  8 16  2  0  0  0  0
  9 10  2  0  0  0  0
  9 14  1  0  0  0  0
 10 28  1  0  0  0  0
 11 14  2  0  0  0  0
 11 28  1  0  0  0  0
 12 15  2  0  0  0  0
 12 17  1  0  0  0  0
 13 22  1  0  0  0  0
 14 21  1  0  0  0  0
 15 24  1  0  0  0  0
 16 26  1  0  0  0  0
 17 23  2  0  0  0  0
 17 25  1  0  0  0  0
 18 22  1  0  0  0  0
 18 25  1  0  0  0  0
 18 27  2  0  0  0  0
 19 26  1  0  0  0  0
 20 26  1  0  0  0  0
 21 22  1  1  0  0  0
 23 24  1  0  0  0  0
  1 29  1  0  0  0  0
  2 30  1  0  0  0  0
  3 31  1  0  0  0  0
  4 32  1  0  0  0  0
  5 33  1  0  0  0  0
  6 34  1  0  0  0  0
  7 35  1  0  0  0  0
  8 36  1  0  0  0  0
  9 37  1  0  0  0  0
 10 38  1  0  0  0  0
 11 39  1  0  0  0  0
 19 40  1  0  0  0  0
 19 41  1  0  0  0  0
 19 42  1  0  0  0  0
 20 43  1  0  0  0  0
 20 44  1  0  0  0  0
 20 45  1  0  0  0  0
 21 46  1  0  0  0  0
 21 47  1  0  0  0  0
 22 48  1  0  0  0  0
 24 49  1  0  0  0  0
 25 50  1  0  0  0  0
M  END
> <clash_score>
0

> <docking_score>
-8.954734802246094

> <overlap_score>
1.0006929636001587

$$$$
BENZO_225_2
  -OEChem-08222022403D

 53 56  0     1  0  0  0  0  0999 V2000
   13.8295    0.0638   25.4018 C   0  0  0  0  0  0  0  0  0  0  0  0
    4.2970    1.6690   20.8430 C   0  0  0  0  0  0  0  0  0  0  0  0
   12.6583   -0.1175   26.1372 C   0  0  0  0  0  0  0  0  0  0  0  0
   13.7659    0.5627   24.1007 C   0  0  0  0  0  0  0  0  0  0  0  0
    4.0980    2.1130   19.5350 C   0  0  0  0  0  0  0  0  0  0  0  0
    5.3360    0.8000   21.1530 C   0  0  0  0  0  0  0  0  0  0  0  0
   11.4234    0.2001   25.5717 C   0  0  0  0  0  0  0  0  0  0  0  0
   12.5310    0.8802   23.5351 C   0  0  0  0  0  0  0  0  0  0  0  0
    8.3510   -1.5420   24.6110 C   0  0  0  0  0  0  0  0  0  0  0  0
   10.2760   -2.3270   23.4020 C   0  0  0  0  0  0  0  0  0  0  0  0
    4.9400    1.7060   18.5060 C   0  0  0  0  0  0  0  0  0  0  0  0
    8.3310   -2.7170   25.3430 C   0  0  0  0  0  0  0  0  0  0  0  0
   10.2570   -3.5000   24.1350 C   0  0  0  0  0  0  0  0  0  0  0  0
    6.1600    0.3870   20.1140 C   0  0  0  0  0  0  0  0  0  0  0  0
   11.3598    0.6989   24.2706 C   0  0  0  0  0  0  0  0  0  0  0  0
    9.3300   -1.3350   23.6390 C   0  0  0  0  0  0  0  0  0  0  0  0
    5.9810    0.8330   18.8060 C   0  0  0  0  0  0  0  0  0  0  0  0
    9.2850   -3.7090   25.1090 C   0  0  0  0  0  0  0  0  0  0  0  0
    7.2210   -0.4620   20.0350 C   0  0  0  0  0  0  0  0  0  0  0  0
    8.9510    0.1280   21.6880 C   0  0  0  0  0  0  0  0  0  0  0  0
    8.2522   -5.1181   26.8654 C   0  0  0  0  0  0  0  0  0  0  0  0
   10.2439   -5.9404   25.5982 C   0  0  0  0  0  0  0  0  0  0  0  0
   10.0220    1.0430   23.6570 C   0  0  0  0  0  0  0  0  0  0  0  0
    9.4200   -0.0840   22.9530 C   0  0  2  0  0  0  0  0  0  0  0  0
    7.6830   -0.5170   18.7600 N   0  0  0  0  0  0  0  0  0  0  0  0
    6.9440    0.2550   18.0100 N   0  0  0  0  0  0  0  0  0  0  0  0
    8.0810   -0.9750   21.0820 N   0  0  0  0  0  0  0  0  0  0  0  0
    9.2638   -4.9025   25.8500 N   0  0  0  0  0  0  0  0  0  0  0  0
    9.1870    1.1500   21.0630 O   0  0  0  0  0  0  0  0  0  0  0  0
   14.7910   -0.1822   25.8428 H   0  0  0  0  0  0  0  0  0  0  0  0
    3.6274    2.0126   21.6300 H   0  0  0  0  0  0  0  0  0  0  0  0
   12.7077   -0.5049   27.1507 H   0  0  0  0  0  0  0  0  0  0  0  0
   14.6777    0.7050   23.5282 H   0  0  0  0  0  0  0  0  0  0  0  0
    3.2732    2.7875   19.3199 H   0  0  0  0  0  0  0  0  0  0  0  0
    5.4878    0.4645   22.1722 H   0  0  0  0  0  0  0  0  0  0  0  0
   10.5160    0.0554   26.1521 H   0  0  0  0  0  0  0  0  0  0  0  0
   12.4911    1.2683   22.5207 H   0  0  0  0  0  0  0  0  0  0  0  0
    7.5957   -0.7779   24.7973 H   0  0  0  0  0  0  0  0  0  0  0  0
   11.0384   -2.1852   22.6338 H   0  0  0  0  0  0  0  0  0  0  0  0
    4.7853    2.0674   17.4815 H   0  0  0  0  0  0  0  0  0  0  0  0
    7.5634   -2.8637   26.1037 H   0  0  0  0  0  0  0  0  0  0  0  0
   11.0139   -4.2645   23.9419 H   0  0  0  0  0  0  0  0  0  0  0  0
    8.4021   -6.1042   27.3293 H   0  0  0  0  0  0  0  0  0  0  0  0
    8.3318   -4.3354   27.6341 H   0  0  0  0  0  0  0  0  0  0  0  0
    7.2548   -5.0782   26.4033 H   0  0  0  0  0  0  0  0  0  0  0  0
   10.0615   -6.7893   26.2735 H   0  0  0  0  0  0  0  0  0  0  0  0
   10.1605   -6.2778   24.5545 H   0  0  0  0  0  0  0  0  0  0  0  0
   11.2537   -5.5417   25.7750 H   0  0  0  0  0  0  0  0  0  0  0  0
    9.3529    1.4272   24.4380 H   0  0  0  0  0  0  0  0  0  0  0  0
   10.1743    1.8827   22.9648 H   0  0  0  0  0  0  0  0  0  0  0  0
   10.7346   -0.4307   22.4468 H   0  0  0  0  0  0  0  0  0  0  0  0
    7.1015    0.3608   17.0505 H   0  0  0  0  0  0  0  0  0  0  0  0
    8.1201   -1.8087   21.3560 H   0  0  0  0  0  0  0  0  0  0  0  0
  1  3  1  0  0  0  0
  1  4  2  0  0  0  0
  2  5  1  0  0  0  0
  2  6  2  0  0  0  0
  3  7  2  0  0  0  0
  4  8  1  0  0  0  0
  5 11  2  0  0  0  0
  6 14  1  0  0  0  0
  7 15  1  0  0  0  0
  8 15  2  0  0  0  0
  9 12  2  0  0  0  0
  9 16  1  0  0  0  0
 10 13  1  0  0  0  0
 10 16  2  0  0  0  0
 11 17  1  0  0  0  0
 12 18  1  0  0  0  0
 13 18  2  0  0  0  0
 14 17  2  0  0  0  0
 14 19  1  0  0  0  0
 15 23  1  0  0  0  0
 16 24  1  0  0  0  0
 17 26  1  0  0  0  0
 18 28  1  0  0  0  0
 19 25  2  0  0  0  0
 19 27  1  0  0  0  0
 20 24  1  0  0  0  0
 20 27  1  0  0  0  0
 20 29  2  0  0  0  0
 21 28  1  0  0  0  0
 22 28  1  0  0  0  0
 23 24  1  6  0  0  0
 25 26  1  0  0  0  0
  1 30  1  0  0  0  0
  2 31  1  0  0  0  0
  3 32  1  0  0  0  0
  4 33  1  0  0  0  0
  5 34  1  0  0  0  0
  6 35  1  0  0  0  0
  7 36  1  0  0  0  0
  8 37  1  0  0  0  0
  9 38  1  0  0  0  0
 10 39  1  0  0  0  0
 11 40  1  0  0  0  0
 12 41  1  0  0  0  0
 13 42  1  0  0  0  0
 21 43  1  0  0  0  0
 21 44  1  0  0  0  0
 21 45  1  0  0  0  0
 22 46  1  0  0  0  0
 22 47  1  0  0  0  0
 22 48  1  0  0  0  0
 23 49  1  0  0  0  0
 23 50  1  0  0  0  0
 24 51  1  0  0  0  0
 26 52  1  0  0  0  0
 27 53  1  0  0  0  0
M  END
> <clash_score>
0.6066491253205565

> <docking_score>
-7.120943546295166

> <overlap_score>
0.9354807138442993

$$$$
BENZO_224_2
  -OEChem-08222022403D

 50 53  0     1  0  0  0  0  0999 V2000
    4.2970    1.6690   20.8430 C   0  0  0  0  0  0  0  0  0  0  0  0
    4.0980    2.1130   19.5350 C   0  0  0  0  0  0  0  0  0  0  0  0
    5.3360    0.8000   21.1530 C   0  0  0  0  0  0  0  0  0  0  0  0
    8.3510   -1.5420   24.6110 C   0  0  0  0  0  0  0  0  0  0  0  0
   10.2760   -2.3270   23.4020 C   0  0  0  0  0  0  0  0  0  0  0  0
    4.9400    1.7060   18.5060 C   0  0  0  0  0  0  0  0  0  0  0  0
    8.3310   -2.7170   25.3430 C   0  0  0  0  0  0  0  0  0  0  0  0
   10.2570   -3.5000   24.1350 C   0  0  0  0  0  0  0  0  0  0  0  0
   11.0468    0.9536   26.0357 C   0  0  0  0  0  0  0  0  0  0  0  0
   12.1250    0.4349   26.7183 C   0  0  0  0  0  0  0  0  0  0  0  0
   12.1733   -0.1537   24.3307 C   0  0  0  0  0  0  0  0  0  0  0  0
    6.1600    0.3870   20.1140 C   0  0  0  0  0  0  0  0  0  0  0  0
    9.3300   -1.3350   23.6390 C   0  0  0  0  0  0  0  0  0  0  0  0
   11.0747    0.6126   24.6525 C   0  0  0  0  0  0  0  0  0  0  0  0
    5.9810    0.8330   18.8060 C   0  0  0  0  0  0  0  0  0  0  0  0
    9.2850   -3.7090   25.1090 C   0  0  0  0  0  0  0  0  0  0  0  0
    7.2210   -0.4620   20.0350 C   0  0  0  0  0  0  0  0  0  0  0  0
    8.9510    0.1280   21.6880 C   0  0  0  0  0  0  0  0  0  0  0  0
    8.2522   -5.1181   26.8654 C   0  0  0  0  0  0  0  0  0  0  0  0
   10.2439   -5.9404   25.5982 C   0  0  0  0  0  0  0  0  0  0  0  0
   10.0220    1.0430   23.6570 C   0  0  0  0  0  0  0  0  0  0  0  0
    9.4200   -0.0840   22.9530 C   0  0  2  0  0  0  0  0  0  0  0  0
    7.6830   -0.5170   18.7600 N   0  0  0  0  0  0  0  0  0  0  0  0
    6.9440    0.2550   18.0100 N   0  0  0  0  0  0  0  0  0  0  0  0
    8.0810   -0.9750   21.0820 N   0  0  0  0  0  0  0  0  0  0  0  0
    9.2638   -4.9025   25.8500 N   0  0  0  0  0  0  0  0  0  0  0  0
    9.1870    1.1500   21.0630 O   0  0  0  0  0  0  0  0  0  0  0  0
   13.1649   -0.4592   25.6929 S   0  0  0  0  0  0  0  0  0  0  0  0
    3.6274    2.0126   21.6300 H   0  0  0  0  0  0  0  0  0  0  0  0
    3.2732    2.7875   19.3199 H   0  0  0  0  0  0  0  0  0  0  0  0
    5.4878    0.4645   22.1722 H   0  0  0  0  0  0  0  0  0  0  0  0
    7.5957   -0.7779   24.7973 H   0  0  0  0  0  0  0  0  0  0  0  0
   11.0384   -2.1852   22.6338 H   0  0  0  0  0  0  0  0  0  0  0  0
    4.7853    2.0674   17.4815 H   0  0  0  0  0  0  0  0  0  0  0  0
    7.5634   -2.8637   26.1037 H   0  0  0  0  0  0  0  0  0  0  0  0
   11.0139   -4.2645   23.9419 H   0  0  0  0  0  0  0  0  0  0  0  0
   10.2771    1.5493   26.5100 H   0  0  0  0  0  0  0  0  0  0  0  0
   12.3521    0.5386   27.7699 H   0  0  0  0  0  0  0  0  0  0  0  0
   12.4454   -0.5497   23.3621 H   0  0  0  0  0  0  0  0  0  0  0  0
    8.4021   -6.1042   27.3293 H   0  0  0  0  0  0  0  0  0  0  0  0
    8.3318   -4.3354   27.6341 H   0  0  0  0  0  0  0  0  0  0  0  0
    7.2548   -5.0782   26.4033 H   0  0  0  0  0  0  0  0  0  0  0  0
   10.0615   -6.7893   26.2735 H   0  0  0  0  0  0  0  0  0  0  0  0
   10.1605   -6.2778   24.5545 H   0  0  0  0  0  0  0  0  0  0  0  0
   11.2537   -5.5417   25.7750 H   0  0  0  0  0  0  0  0  0  0  0  0
    9.2602    1.6432   24.1714 H   0  0  0  0  0  0  0  0  0  0  0  0
   10.4960    1.7269   22.9392 H   0  0  0  0  0  0  0  0  0  0  0  0
   10.7346   -0.4307   22.4468 H   0  0  0  0  0  0  0  0  0  0  0  0
    7.1015    0.3608   17.0505 H   0  0  0  0  0  0  0  0  0  0  0  0
    8.1201   -1.8087   21.3560 H   0  0  0  0  0  0  0  0  0  0  0  0
  1  2  1  0  0  0  0
  1  3  2  0  0  0  0
  2  6  2  0  0  0  0
  3 12  1  0  0  0  0
  4  7  2  0  0  0  0
  4 13  1  0  0  0  0
  5  8  1  0  0  0  0
  5 13  2  0  0  0  0
  6 15  1  0  0  0  0
  7 16  1  0  0  0  0
  8 16  2  0  0  0  0
  9 10  2  0  0  0  0
  9 14  1  0  0  0  0
 10 28  1  0  0  0  0
 11 14  2  0  0  0  0
 11 28  1  0  0  0  0
 12 15  2  0  0  0  0
 12 17  1  0  0  0  0
 13 22  1  0  0  0  0
 14 21  1  0  0  0  0
 15 24  1  0  0  0  0
 16 26  1  0  0  0  0
 17 23  2  0  0  0  0
 17 25  1  0  0  0  0
 18 22  1  0  0  0  0
 18 25  1  0  0  0  0
 18 27  2  0  0  0  0
 19 26  1  0  0  0  0
 20 26  1  0  0  0  0
 21 22  1  6  0  0  0
 23 24  1  0  0  0  0
  1 29  1  0  0  0  0
  2 30  1  0  0  0  0
  3 31  1  0  0  0  0
  4 32  1  0  0  0  0
  5 33  1  0  0  0  0
  6 34  1  0  0  0  0
  7 35  1  0  0  0  0
  8 36  1  0  0  0  0
  9 37  1  0  0  0  0
 10 38  1  0  0  0  0
 11 39  1  0  0  0  0
 19 40  1  0  0  0  0
 19 41  1  0  0  0  0
 19 42  1  0  0  0  0
 20 43  1  0  0  0  0
 20 44  1  0  0  0  0
 20 45  1  0  0  0  0
 21 46  1  0  0  0  0
 21 47  1  0  0  0  0
 22 48  1  0  0  0  0
 24 49  1  0  0  0  0
 25 50  1  0  0  0  0
M  END
> <clash_score>
0

> <docking_score>
-6.115110874176025

> <overlap_score>
0.8852891325950623

$$$$
BENZO_222_2
  -OEChem-08222022403D

 58 62  0     1  0  0  0  0  0999 V2000
    4.0980    2.1130   19.5350 C   0  0  0  0  0  0  0  0  0  0  0  0
    4.2970    1.6690   20.8430 C   0  0  0  0  0  0  0  0  0  0  0  0
   13.7638    0.5686   24.1170 C   0  0  0  0  0  0  0  0  0  0  0  0
   12.3856    0.4811   24.3130 C   0  0  0  0  0  0  0  0  0  0  0  0
    8.3510   -1.5420   24.6110 C   0  0  0  0  0  0  0  0  0  0  0  0
   10.2760   -2.3270   23.4020 C   0  0  0  0  0  0  0  0  0  0  0  0
    4.9400    1.7060   18.5060 C   0  0  0  0  0  0  0  0  0  0  0  0
    5.3360    0.8000   21.1530 C   0  0  0  0  0  0  0  0  0  0  0  0
    8.3310   -2.7170   25.3430 C   0  0  0  0  0  0  0  0  0  0  0  0
   10.2570   -3.5000   24.1350 C   0  0  0  0  0  0  0  0  0  0  0  0
   14.2710    1.3141   23.0527 C   0  0  0  0  0  0  0  0  0  0  0  0
   12.0217    1.8847   22.3805 C   0  0  0  0  0  0  0  0  0  0  0  0
    7.6830   -0.5170   18.7600 C   0  0  0  0  0  0  0  0  0  0  0  0
    9.3300   -1.3350   23.6390 C   0  0  0  0  0  0  0  0  0  0  0  0
   11.5145    1.1392   23.4448 C   0  0  0  0  0  0  0  0  0  0  0  0
    5.9810    0.8330   18.8060 C   0  0  0  0  0  0  0  0  0  0  0  0
    6.1600    0.3870   20.1140 C   0  0  0  0  0  0  0  0  0  0  0  0
    9.2850   -3.7090   25.1090 C   0  0  0  0  0  0  0  0  0  0  0  0
   13.3999    1.9721   22.1845 C   0  0  0  0  0  0  0  0  0  0  0  0
    8.9510    0.1280   21.6880 C   0  0  0  0  0  0  0  0  0  0  0  0
    8.7671   -4.9535   27.2147 C   0  0  0  0  0  0  0  0  0  0  0  0
    9.3066   -6.1865   25.1649 C   0  0  0  0  0  0  0  0  0  0  0  0
    7.3847   -5.5970   27.2000 C   0  0  0  0  0  0  0  0  0  0  0  0
    7.9070   -6.7999   25.2264 C   0  0  0  0  0  0  0  0  0  0  0  0
   10.0220    1.0430   23.6570 C   0  0  0  0  0  0  0  0  0  0  0  0
    9.4200   -0.0840   22.9530 C   0  0  2  0  0  0  0  0  0  0  0  0
    6.9440    0.2550   18.0100 N   0  0  0  0  0  0  0  0  0  0  0  0
    7.2210   -0.4620   20.0350 N   0  0  0  0  0  0  0  0  0  0  0  0
    9.2641   -4.8845   25.8388 N   0  0  0  0  0  0  0  0  0  0  0  0
    8.0810   -0.9750   21.0820 N   0  0  0  0  0  0  0  0  0  0  0  0
    9.1870    1.1500   21.0630 O   0  0  0  0  0  0  0  0  0  0  0  0
    7.4533   -6.8877   26.5818 O   0  0  0  0  0  0  0  0  0  0  0  0
   14.0262    2.8909   20.8709 Cl  0  0  0  0  0  0  0  0  0  0  0  0
    3.2711    2.7870   19.3201 H   0  0  0  0  0  0  0  0  0  0  0  0
    3.6262    2.0082   21.6284 H   0  0  0  0  0  0  0  0  0  0  0  0
   14.4418    0.0559   24.7933 H   0  0  0  0  0  0  0  0  0  0  0  0
   11.9993   -0.1021   25.1449 H   0  0  0  0  0  0  0  0  0  0  0  0
    7.5957   -0.7779   24.7973 H   0  0  0  0  0  0  0  0  0  0  0  0
   11.0384   -2.1852   22.6338 H   0  0  0  0  0  0  0  0  0  0  0  0
    4.7816    2.0660   17.4901 H   0  0  0  0  0  0  0  0  0  0  0  0
    5.4934    0.4579   22.1787 H   0  0  0  0  0  0  0  0  0  0  0  0
    7.5634   -2.8637   26.1037 H   0  0  0  0  0  0  0  0  0  0  0  0
   11.0139   -4.2645   23.9419 H   0  0  0  0  0  0  0  0  0  0  0  0
   15.3475    1.3732   22.9119 H   0  0  0  0  0  0  0  0  0  0  0  0
   11.3384    2.3963   21.7066 H   0  0  0  0  0  0  0  0  0  0  0  0
    8.5166   -1.1054   18.4533 H   0  0  0  0  0  0  0  0  0  0  0  0
    8.7013   -3.9575   27.6574 H   0  0  0  0  0  0  0  0  0  0  0  0
    9.4480   -5.5636   27.8142 H   0  0  0  0  0  0  0  0  0  0  0  0
   10.0131   -6.8375   25.6814 H   0  0  0  0  0  0  0  0  0  0  0  0
    9.6116   -6.0794   24.1250 H   0  0  0  0  0  0  0  0  0  0  0  0
    7.0306   -5.7388   28.2232 H   0  0  0  0  0  0  0  0  0  0  0  0
    6.6546   -4.9740   26.6757 H   0  0  0  0  0  0  0  0  0  0  0  0
    7.1892   -6.2226   24.6319 H   0  0  0  0  0  0  0  0  0  0  0  0
    7.9315   -7.8151   24.8187 H   0  0  0  0  0  0  0  0  0  0  0  0
    9.8382    0.9666   24.7377 H   0  0  0  0  0  0  0  0  0  0  0  0
    9.5448    1.9843   23.3535 H   0  0  0  0  0  0  0  0  0  0  0  0
    8.1249    0.3211   23.4916 H   0  0  0  0  0  0  0  0  0  0  0  0
    8.1256   -1.8039   21.3539 H   0  0  0  0  0  0  0  0  0  0  0  0
  1  2  1  0  0  0  0
  1  7  2  0  0  0  0
  2  8  2  0  0  0  0
  3  4  2  0  0  0  0
  3 11  1  0  0  0  0
  4 15  1  0  0  0  0
  5  9  2  0  0  0  0
  5 14  1  0  0  0  0
  6 10  1  0  0  0  0
  6 14  2  0  0  0  0
  7 16  1  0  0  0  0
  8 17  1  0  0  0  0
  9 18  1  0  0  0  0
 10 18  2  0  0  0  0
 11 19  2  0  0  0  0
 12 15  2  0  0  0  0
 12 19  1  0  0  0  0
 13 27  2  0  0  0  0
 13 28  1  0  0  0  0
 14 26  1  0  0  0  0
 15 25  1  0  0  0  0
 16 17  2  0  0  0  0
 16 27  1  0  0  0  0
 17 28  1  0  0  0  0
 18 29  1  0  0  0  0
 19 33  1  0  0  0  0
 20 26  1  6  0  0  0
 20 30  1  0  0  0  0
 20 31  2  0  0  0  0
 21 23  1  0  0  0  0
 21 29  1  0  0  0  0
 22 24  1  0  0  0  0
 22 29  1  0  0  0  0
 23 32  1  0  0  0  0
 24 32  1  0  0  0  0
 25 26  1  0  0  0  0
 28 30  1  0  0  0  0
  1 34  1  0  0  0  0
  2 35  1  0  0  0  0
  3 36  1  0  0  0  0
  4 37  1  0  0  0  0
  5 38  1  0  0  0  0
  6 39  1  0  0  0  0
  7 40  1  0  0  0  0
  8 41  1  0  0  0  0
  9 42  1  0  0  0  0
 10 43  1  0  0  0  0
 11 44  1  0  0  0  0
 12 45  1  0  0  0  0
 13 46  1  0  0  0  0
 21 47  1  0  0  0  0
 21 48  1  0  0  0  0
 22 49  1  0  0  0  0
 22 50  1  0  0  0  0
 23 51  1  0  0  0  0
 23 52  1  0  0  0  0
 24 53  1  0  0  0  0
 24 54  1  0  0  0  0
 25 55  1  0  0  0  0
 25 56  1  0  0  0  0
 26 57  1  0  0  0  0
 30 58  1  0  0  0  0
M  END
> <clash_score>
0

> <docking_score>
-8.130435943603516

> <overlap_score>
1.0292900800704956

$$$$
BENZO_227_1
  -OEChem-08222022403D

 53 56  0     1  0  0  0  0  0999 V2000
    4.2970    1.6690   20.8430 C   0  0  0  0  0  0  0  0  0  0  0  0
    4.0980    2.1130   19.5350 C   0  0  0  0  0  0  0  0  0  0  0  0
    5.3360    0.8000   21.1530 C   0  0  0  0  0  0  0  0  0  0  0  0
    8.3510   -1.5420   24.6110 C   0  0  0  0  0  0  0  0  0  0  0  0
   10.2760   -2.3270   23.4020 C   0  0  0  0  0  0  0  0  0  0  0  0
    4.9400    1.7060   18.5060 C   0  0  0  0  0  0  0  0  0  0  0  0
    8.3310   -2.7170   25.3430 C   0  0  0  0  0  0  0  0  0  0  0  0
   10.2570   -3.5000   24.1350 C   0  0  0  0  0  0  0  0  0  0  0  0
   12.3075    2.3068   23.4193 C   0  0  0  0  0  0  0  0  0  0  0  0
   12.3951    0.1231   23.1770 C   0  0  0  0  0  0  0  0  0  0  0  0
    6.1600    0.3870   20.1140 C   0  0  0  0  0  0  0  0  0  0  0  0
    9.3300   -1.3350   23.6390 C   0  0  0  0  0  0  0  0  0  0  0  0
   11.5121    1.1453   23.4257 C   0  0  0  0  0  0  0  0  0  0  0  0
    5.9810    0.8330   18.8060 C   0  0  0  0  0  0  0  0  0  0  0  0
    9.2850   -3.7090   25.1090 C   0  0  0  0  0  0  0  0  0  0  0  0
    7.2210   -0.4620   20.0350 C   0  0  0  0  0  0  0  0  0  0  0  0
    8.9510    0.1280   21.6880 C   0  0  0  0  0  0  0  0  0  0  0  0
   14.8664    0.0395   22.7716 C   0  0  0  0  0  0  0  0  0  0  0  0
    8.2522   -5.1181   26.8654 C   0  0  0  0  0  0  0  0  0  0  0  0
   10.2439   -5.9404   25.5982 C   0  0  0  0  0  0  0  0  0  0  0  0
   10.0220    1.0430   23.6570 C   0  0  0  0  0  0  0  0  0  0  0  0
    9.4200   -0.0840   22.9530 C   0  0  1  0  0  0  0  0  0  0  0  0
   13.5967    2.0476   23.1851 N   0  0  0  0  0  0  0  0  0  0  0  0
    7.6830   -0.5170   18.7600 N   0  0  0  0  0  0  0  0  0  0  0  0
    6.9440    0.2550   18.0100 N   0  0  0  0  0  0  0  0  0  0  0  0
   13.6181    0.7115   23.0422 N   0  0  0  0  0  0  0  0  0  0  0  0
    8.0810   -0.9750   21.0820 N   0  0  0  0  0  0  0  0  0  0  0  0
    9.2638   -4.9025   25.8500 N   0  0  0  0  0  0  0  0  0  0  0  0
    9.1870    1.1500   21.0630 O   0  0  0  0  0  0  0  0  0  0  0  0
    3.6274    2.0126   21.6300 H   0  0  0  0  0  0  0  0  0  0  0  0
    3.2732    2.7875   19.3199 H   0  0  0  0  0  0  0  0  0  0  0  0
    5.4878    0.4645   22.1722 H   0  0  0  0  0  0  0  0  0  0  0  0
    7.5957   -0.7779   24.7973 H   0  0  0  0  0  0  0  0  0  0  0  0
   11.0384   -2.1852   22.6338 H   0  0  0  0  0  0  0  0  0  0  0  0
    4.7853    2.0674   17.4815 H   0  0  0  0  0  0  0  0  0  0  0  0
    7.5634   -2.8637   26.1037 H   0  0  0  0  0  0  0  0  0  0  0  0
   11.0139   -4.2645   23.9419 H   0  0  0  0  0  0  0  0  0  0  0  0
   12.0040    3.3322   23.5761 H   0  0  0  0  0  0  0  0  0  0  0  0
   12.2609   -0.9465   23.0878 H   0  0  0  0  0  0  0  0  0  0  0  0
   14.9942   -0.0107   21.6871 H   0  0  0  0  0  0  0  0  0  0  0  0
   15.6877    0.5992   23.2278 H   0  0  0  0  0  0  0  0  0  0  0  0
   14.8362   -0.9658   23.2010 H   0  0  0  0  0  0  0  0  0  0  0  0
    8.4021   -6.1042   27.3293 H   0  0  0  0  0  0  0  0  0  0  0  0
    8.3318   -4.3354   27.6341 H   0  0  0  0  0  0  0  0  0  0  0  0
    7.2548   -5.0782   26.4033 H   0  0  0  0  0  0  0  0  0  0  0  0
   10.0615   -6.7893   26.2735 H   0  0  0  0  0  0  0  0  0  0  0  0
   10.1605   -6.2778   24.5545 H   0  0  0  0  0  0  0  0  0  0  0  0
   11.2537   -5.5417   25.7750 H   0  0  0  0  0  0  0  0  0  0  0  0
    9.8253    0.9889   24.7357 H   0  0  0  0  0  0  0  0  0  0  0  0
    9.5635    1.9845   23.3241 H   0  0  0  0  0  0  0  0  0  0  0  0
    8.1288    0.3205   23.5156 H   0  0  0  0  0  0  0  0  0  0  0  0
    7.1015    0.3608   17.0505 H   0  0  0  0  0  0  0  0  0  0  0  0
    8.1201   -1.8087   21.3560 H   0  0  0  0  0  0  0  0  0  0  0  0
  1  2  1  0  0  0  0
  1  3  2  0  0  0  0
  2  6  2  0  0  0  0
  3 11  1  0  0  0  0
  4  7  2  0  0  0  0
  4 12  1  0  0  0  0
  5  8  1  0  0  0  0
  5 12  2  0  0  0  0
  6 14  1  0  0  0  0
  7 15  1  0  0  0  0
  8 15  2  0  0  0  0
  9 13  1  0  0  0  0
  9 23  2  0  0  0  0
 10 13  2  0  0  0  0
 10 26  1  0  0  0  0
 11 14  2  0  0  0  0
 11 16  1  0  0  0  0
 12 22  1  0  0  0  0
 13 21  1  0  0  0  0
 14 25  1  0  0  0  0
 15 28  1  0  0  0  0
 16 24  2  0  0  0  0
 16 27  1  0  0  0  0
 17 22  1  0  0  0  0
 17 27  1  0  0  0  0
 17 29  2  0  0  0  0
 18 26  1  0  0  0  0
 19 28  1  0  0  0  0
 20 28  1  0  0  0  0
 21 22  1  1  0  0  0
 23 26  1  0  0  0  0
 24 25  1  0  0  0  0
  1 30  1  0  0  0  0
  2 31  1  0  0  0  0
  3 32  1  0  0  0  0
  4 33  1  0  0  0  0
  5 34  1  0  0  0  0
  6 35  1  0  0  0  0
  7 36  1  0  0  0  0
  8 37  1  0  0  0  0
  9 38  1  0  0  0  0
 10 39  1  0  0  0  0
 18 40  1  0  0  0  0
 18 41  1  0  0  0  0
 18 42  1  0  0  0  0
 19 43  1  0  0  0  0
 19 44  1  0  0  0  0
 19 45  1  0  0  0  0
 20 46  1  0  0  0  0
 20 47  1  0  0  0  0
 20 48  1  0  0  0  0
 21 49  1  0  0  0  0
 21 50  1  0  0  0  0
 22 51  1  0  0  0  0
 25 52  1  0  0  0  0
 27 53  1  0  0  0  0
M  END
> <clash_score>
0

> <docking_score>
-8.850089073181152

> <overlap_score>
1.0153230428695679

$$$$
BENZO_227_2
  -OEChem-08222022403D

 53 56  0     1  0  0  0  0  0999 V2000
    4.2970    1.6690   20.8430 C   0  0  0  0  0  0  0  0  0  0  0  0
    4.0980    2.1130   19.5350 C   0  0  0  0  0  0  0  0  0  0  0  0
    5.3360    0.8000   21.1530 C   0  0  0  0  0  0  0  0  0  0  0  0
    8.3510   -1.5420   24.6110 C   0  0  0  0  0  0  0  0  0  0  0  0
   10.2760   -2.3270   23.4020 C   0  0  0  0  0  0  0  0  0  0  0  0
    4.9400    1.7060   18.5060 C   0  0  0  0  0  0  0  0  0  0  0  0
    8.3310   -2.7170   25.3430 C   0  0  0  0  0  0  0  0  0  0  0  0
   10.2570   -3.5000   24.1350 C   0  0  0  0  0  0  0  0  0  0  0  0
   12.6346    0.8176   23.6854 C   0  0  0  0  0  0  0  0  0  0  0  0
   11.6038    0.2020   25.5275 C   0  0  0  0  0  0  0  0  0  0  0  0
    6.1600    0.3870   20.1140 C   0  0  0  0  0  0  0  0  0  0  0  0
    9.3300   -1.3350   23.6390 C   0  0  0  0  0  0  0  0  0  0  0  0
   11.3597    0.6989   24.2706 C   0  0  0  0  0  0  0  0  0  0  0  0
    5.9810    0.8330   18.8060 C   0  0  0  0  0  0  0  0  0  0  0  0
    9.2850   -3.7090   25.1090 C   0  0  0  0  0  0  0  0  0  0  0  0
    7.2210   -0.4620   20.0350 C   0  0  0  0  0  0  0  0  0  0  0  0
    8.9510    0.1280   21.6880 C   0  0  0  0  0  0  0  0  0  0  0  0
   13.6941   -0.4329   26.7549 C   0  0  0  0  0  0  0  0  0  0  0  0
    8.2522   -5.1181   26.8654 C   0  0  0  0  0  0  0  0  0  0  0  0
   10.2439   -5.9404   25.5982 C   0  0  0  0  0  0  0  0  0  0  0  0
   10.0220    1.0430   23.6570 C   0  0  0  0  0  0  0  0  0  0  0  0
    9.4200   -0.0840   22.9530 C   0  0  2  0  0  0  0  0  0  0  0  0
   13.6158    0.4276   24.5035 N   0  0  0  0  0  0  0  0  0  0  0  0
    7.6830   -0.5170   18.7600 N   0  0  0  0  0  0  0  0  0  0  0  0
    6.9440    0.2550   18.0100 N   0  0  0  0  0  0  0  0  0  0  0  0
   12.9573    0.0592   25.6156 N   0  0  0  0  0  0  0  0  0  0  0  0
    8.0810   -0.9750   21.0820 N   0  0  0  0  0  0  0  0  0  0  0  0
    9.2638   -4.9025   25.8500 N   0  0  0  0  0  0  0  0  0  0  0  0
    9.1870    1.1500   21.0630 O   0  0  0  0  0  0  0  0  0  0  0  0
    3.6274    2.0126   21.6300 H   0  0  0  0  0  0  0  0  0  0  0  0
    3.2732    2.7875   19.3199 H   0  0  0  0  0  0  0  0  0  0  0  0
    5.4878    0.4645   22.1722 H   0  0  0  0  0  0  0  0  0  0  0  0
    7.5957   -0.7779   24.7973 H   0  0  0  0  0  0  0  0  0  0  0  0
   11.0384   -2.1852   22.6338 H   0  0  0  0  0  0  0  0  0  0  0  0
    4.7853    2.0674   17.4815 H   0  0  0  0  0  0  0  0  0  0  0  0
    7.5634   -2.8637   26.1037 H   0  0  0  0  0  0  0  0  0  0  0  0
   11.0139   -4.2645   23.9419 H   0  0  0  0  0  0  0  0  0  0  0  0
   12.8922    1.1725   22.6975 H   0  0  0  0  0  0  0  0  0  0  0  0
   10.9461   -0.0545   26.3470 H   0  0  0  0  0  0  0  0  0  0  0  0
   13.7879   -1.5173   26.6532 H   0  0  0  0  0  0  0  0  0  0  0  0
   14.6819    0.0356   26.7797 H   0  0  0  0  0  0  0  0  0  0  0  0
   13.1542   -0.1790   27.6714 H   0  0  0  0  0  0  0  0  0  0  0  0
    8.4021   -6.1042   27.3293 H   0  0  0  0  0  0  0  0  0  0  0  0
    8.3318   -4.3354   27.6341 H   0  0  0  0  0  0  0  0  0  0  0  0
    7.2548   -5.0782   26.4033 H   0  0  0  0  0  0  0  0  0  0  0  0
   10.0615   -6.7893   26.2735 H   0  0  0  0  0  0  0  0  0  0  0  0
   10.1605   -6.2778   24.5545 H   0  0  0  0  0  0  0  0  0  0  0  0
   11.2537   -5.5417   25.7750 H   0  0  0  0  0  0  0  0  0  0  0  0
    9.3529    1.4272   24.4380 H   0  0  0  0  0  0  0  0  0  0  0  0
   10.1743    1.8827   22.9648 H   0  0  0  0  0  0  0  0  0  0  0  0
   10.7346   -0.4307   22.4468 H   0  0  0  0  0  0  0  0  0  0  0  0
    7.1015    0.3608   17.0505 H   0  0  0  0  0  0  0  0  0  0  0  0
    8.1201   -1.8087   21.3560 H   0  0  0  0  0  0  0  0  0  0  0  0
  1  2  1  0  0  0  0
  1  3  2  0  0  0  0
  2  6  2  0  0  0  0
  3 11  1  0  0  0  0
  4  7  2  0  0  0  0
  4 12  1  0  0  0  0
  5  8  1  0  0  0  0
  5 12  2  0  0  0  0
  6 14  1  0  0  0  0
  7 15  1  0  0  0  0
  8 15  2  0  0  0  0
  9 13  1  0  0  0  0
  9 23  2  0  0  0  0
 10 13  2  0  0  0  0
 10 26  1  0  0  0  0
 11 14  2  0  0  0  0
 11 16  1  0  0  0  0
 12 22  1  0  0  0  0
 13 21  1  0  0  0  0
 14 25  1  0  0  0  0
 15 28  1  0  0  0  0
 16 24  2  0  0  0  0
 16 27  1  0  0  0  0
 17 22  1  0  0  0  0
 17 27  1  0  0  0  0
 17 29  2  0  0  0  0
 18 26  1  0  0  0  0
 19 28  1  0  0  0  0
 20 28  1  0  0  0  0
 21 22  1  6  0  0  0
 23 26  1  0  0  0  0
 24 25  1  0  0  0  0
  1 30  1  0  0  0  0
  2 31  1  0  0  0  0
  3 32  1  0  0  0  0
  4 33  1  0  0  0  0
  5 34  1  0  0  0  0
  6 35  1  0  0  0  0
  7 36  1  0  0  0  0
  8 37  1  0  0  0  0
  9 38  1  0  0  0  0
 10 39  1  0  0  0  0
 18 40  1  0  0  0  0
 18 41  1  0  0  0  0
 18 42  1  0  0  0  0
 19 43  1  0  0  0  0
 19 44  1  0  0  0  0
 19 45  1  0  0  0  0
 20 46  1  0  0  0  0
 20 47  1  0  0  0  0
 20 48  1  0  0  0  0
 21 49  1  0  0  0  0
 21 50  1  0  0  0  0
 22 51  1  0  0  0  0
 25 52  1  0  0  0  0
 27 53  1  0  0  0  0
M  END
> <clash_score>
0.7451142329515432

> <docking_score>
-6.960994243621826

> <overlap_score>
0.926819920539856

$$$$
BENZO_229_1
  -OEChem-08222022403D

 55 58  0     1  0  0  0  0  0999 V2000
   14.2623    1.3345   22.9975 C   0  0  0  0  0  0  0  0  0  0  0  0
    4.2970    1.6690   20.8430 C   0  0  0  0  0  0  0  0  0  0  0  0
   13.7729    0.5817   24.0649 C   0  0  0  0  0  0  0  0  0  0  0  0
   13.3767    1.9928   22.1442 C   0  0  0  0  0  0  0  0  0  0  0  0
    4.0980    2.1130   19.5350 C   0  0  0  0  0  0  0  0  0  0  0  0
    5.3360    0.8000   21.1530 C   0  0  0  0  0  0  0  0  0  0  0  0
   12.3978    0.4871   24.2790 C   0  0  0  0  0  0  0  0  0  0  0  0
   12.0016    1.8982   22.3583 C   0  0  0  0  0  0  0  0  0  0  0  0
    8.3510   -1.5420   24.6110 C   0  0  0  0  0  0  0  0  0  0  0  0
   10.2760   -2.3270   23.4020 C   0  0  0  0  0  0  0  0  0  0  0  0
    4.9400    1.7060   18.5060 C   0  0  0  0  0  0  0  0  0  0  0  0
    8.3310   -2.7170   25.3430 C   0  0  0  0  0  0  0  0  0  0  0  0
   10.2570   -3.5000   24.1350 C   0  0  0  0  0  0  0  0  0  0  0  0
    6.1600    0.3870   20.1140 C   0  0  0  0  0  0  0  0  0  0  0  0
   11.5121    1.1453   23.4257 C   0  0  0  0  0  0  0  0  0  0  0  0
    9.3300   -1.3350   23.6390 C   0  0  0  0  0  0  0  0  0  0  0  0
    5.9810    0.8330   18.8060 C   0  0  0  0  0  0  0  0  0  0  0  0
    9.2850   -3.7090   25.1090 C   0  0  0  0  0  0  0  0  0  0  0  0
    7.2210   -0.4620   20.0350 C   0  0  0  0  0  0  0  0  0  0  0  0
    8.1541   -5.5451   26.4009 C   0  0  0  0  0  0  0  0  0  0  0  0
    8.9510    0.1280   21.6880 C   0  0  0  0  0  0  0  0  0  0  0  0
    9.7887   -7.4749   26.4980 C   0  0  0  0  0  0  0  0  0  0  0  0
   10.0220    1.0430   23.6570 C   0  0  0  0  0  0  0  0  0  0  0  0
    8.5738   -6.8153   27.1256 C   0  0  0  0  0  0  0  0  0  0  0  0
    9.4200   -0.0840   22.9530 C   0  0  1  0  0  0  0  0  0  0  0  0
    7.6830   -0.5170   18.7600 N   0  0  0  0  0  0  0  0  0  0  0  0
    6.9440    0.2550   18.0100 N   0  0  0  0  0  0  0  0  0  0  0  0
    9.2630   -4.8903   25.8409 N   0  0  0  0  0  0  0  0  0  0  0  0
    8.0810   -0.9750   21.0820 N   0  0  0  0  0  0  0  0  0  0  0  0
    6.9827   -5.1857   26.3435 O   0  0  0  0  0  0  0  0  0  0  0  0
    9.1870    1.1500   21.0630 O   0  0  0  0  0  0  0  0  0  0  0  0
   15.3331    1.4092   22.8317 H   0  0  0  0  0  0  0  0  0  0  0  0
    3.6274    2.0126   21.6300 H   0  0  0  0  0  0  0  0  0  0  0  0
   14.4623    0.0700   24.7300 H   0  0  0  0  0  0  0  0  0  0  0  0
   13.7574    2.5799   21.3138 H   0  0  0  0  0  0  0  0  0  0  0  0
    3.2732    2.7875   19.3199 H   0  0  0  0  0  0  0  0  0  0  0  0
    5.4878    0.4645   22.1722 H   0  0  0  0  0  0  0  0  0  0  0  0
   12.0255   -0.1019   25.1131 H   0  0  0  0  0  0  0  0  0  0  0  0
   11.3191    2.4143   21.6883 H   0  0  0  0  0  0  0  0  0  0  0  0
    7.5948   -0.7783   24.7966 H   0  0  0  0  0  0  0  0  0  0  0  0
   11.0389   -2.1844   22.6342 H   0  0  0  0  0  0  0  0  0  0  0  0
    4.7853    2.0674   17.4815 H   0  0  0  0  0  0  0  0  0  0  0  0
    7.5642   -2.8624   26.1050 H   0  0  0  0  0  0  0  0  0  0  0  0
   11.0137   -4.2649   23.9418 H   0  0  0  0  0  0  0  0  0  0  0  0
    9.5973   -7.7379   25.4524 H   0  0  0  0  0  0  0  0  0  0  0  0
   10.0474   -8.3904   27.0390 H   0  0  0  0  0  0  0  0  0  0  0  0
   10.6557   -6.8065   26.5227 H   0  0  0  0  0  0  0  0  0  0  0  0
    9.8253    0.9889   24.7357 H   0  0  0  0  0  0  0  0  0  0  0  0
    9.5635    1.9845   23.3241 H   0  0  0  0  0  0  0  0  0  0  0  0
    8.7933   -6.5634   28.1695 H   0  0  0  0  0  0  0  0  0  0  0  0
    7.7311   -7.5161   27.1152 H   0  0  0  0  0  0  0  0  0  0  0  0
    8.1288    0.3205   23.5156 H   0  0  0  0  0  0  0  0  0  0  0  0
    7.1015    0.3608   17.0505 H   0  0  0  0  0  0  0  0  0  0  0  0
   10.1698   -5.3461   25.9957 H   0  0  0  0  0  0  0  0  0  0  0  0
    8.1201   -1.8087   21.3560 H   0  0  0  0  0  0  0  0  0  0  0  0
  1  3  1  0  0  0  0
  1  4  2  0  0  0  0
  2  5  1  0  0  0  0
  2  6  2  0  0  0  0
  3  7  2  0  0  0  0
  4  8  1  0  0  0  0
  5 11  2  0  0  0  0
  6 14  1  0  0  0  0
  7 15  1  0  0  0  0
  8 15  2  0  0  0  0
  9 12  2  0  0  0  0
  9 16  1  0  0  0  0
 10 13  1  0  0  0  0
 10 16  2  0  0  0  0
 11 17  1  0  0  0  0
 12 18  1  0  0  0  0
 13 18  2  0  0  0  0
 14 17  2  0  0  0  0
 14 19  1  0  0  0  0
 15 23  1  0  0  0  0
 16 25  1  0  0  0  0
 17 27  1  0  0  0  0
 18 28  1  0  0  0  0
 19 26  2  0  0  0  0
 19 29  1  0  0  0  0
 20 24  1  0  0  0  0
 20 28  1  0  0  0  0
 20 30  2  0  0  0  0
 21 25  1  0  0  0  0
 21 29  1  0  0  0  0
 21 31  2  0  0  0  0
 22 24  1  0  0  0  0
 23 25  1  1  0  0  0
 26 27  1  0  0  0  0
  1 32  1  0  0  0  0
  2 33  1  0  0  0  0
  3 34  1  0  0  0  0
  4 35  1  0  0  0  0
  5 36  1  0  0  0  0
  6 37  1  0  0  0  0
  7 38  1  0  0  0  0
  8 39  1  0  0  0  0
  9 40  1  0  0  0  0
 10 41  1  0  0  0  0
 11 42  1  0  0  0  0
 12 43  1  0  0  0  0
 13 44  1  0  0  0  0
 22 45  1  0  0  0  0
 22 46  1  0  0  0  0
 22 47  1  0  0  0  0
 23 48  1  0  0  0  0
 23 49  1  0  0  0  0
 24 50  1  0  0  0  0
 24 51  1  0  0  0  0
 25 52  1  0  0  0  0
 27 53  1  0  0  0  0
 28 54  1  0  0  0  0
 29 55  1  0  0  0  0
M  END
> <clash_score>
0.7458479545038151

> <docking_score>
-6.168718338012695

> <overlap_score>
1.019177794456482

$$$$
BENZO_229_2
  -OEChem-08222022403D

 55 58  0     1  0  0  0  0  0999 V2000
   13.8295    0.0638   25.4018 C   0  0  0  0  0  0  0  0  0  0  0  0
    4.2970    1.6690   20.8430 C   0  0  0  0  0  0  0  0  0  0  0  0
   12.6583   -0.1175   26.1372 C   0  0  0  0  0  0  0  0  0  0  0  0
   13.7659    0.5627   24.1007 C   0  0  0  0  0  0  0  0  0  0  0  0
    4.0980    2.1130   19.5350 C   0  0  0  0  0  0  0  0  0  0  0  0
    5.3360    0.8000   21.1530 C   0  0  0  0  0  0  0  0  0  0  0  0
   11.4234    0.2001   25.5717 C   0  0  0  0  0  0  0  0  0  0  0  0
   12.5310    0.8802   23.5351 C   0  0  0  0  0  0  0  0  0  0  0  0
    8.3510   -1.5420   24.6110 C   0  0  0  0  0  0  0  0  0  0  0  0
   10.2760   -2.3270   23.4020 C   0  0  0  0  0  0  0  0  0  0  0  0
    4.9400    1.7060   18.5060 C   0  0  0  0  0  0  0  0  0  0  0  0
    8.3310   -2.7170   25.3430 C   0  0  0  0  0  0  0  0  0  0  0  0
   10.2570   -3.5000   24.1350 C   0  0  0  0  0  0  0  0  0  0  0  0
    6.1600    0.3870   20.1140 C   0  0  0  0  0  0  0  0  0  0  0  0
   11.3598    0.6989   24.2706 C   0  0  0  0  0  0  0  0  0  0  0  0
    9.3300   -1.3350   23.6390 C   0  0  0  0  0  0  0  0  0  0  0  0
    5.9810    0.8330   18.8060 C   0  0  0  0  0  0  0  0  0  0  0  0
    9.2850   -3.7090   25.1090 C   0  0  0  0  0  0  0  0  0  0  0  0
    7.2210   -0.4620   20.0350 C   0  0  0  0  0  0  0  0  0  0  0  0
    8.3664   -5.2687   26.8533 C   0  0  0  0  0  0  0  0  0  0  0  0
    8.9510    0.1280   21.6880 C   0  0  0  0  0  0  0  0  0  0  0  0
    7.9636   -7.7604   26.6667 C   0  0  0  0  0  0  0  0  0  0  0  0
   10.0220    1.0430   23.6570 C   0  0  0  0  0  0  0  0  0  0  0  0
    8.7003   -6.6507   27.3951 C   0  0  0  0  0  0  0  0  0  0  0  0
    9.4200   -0.0840   22.9530 C   0  0  2  0  0  0  0  0  0  0  0  0
    7.6830   -0.5170   18.7600 N   0  0  0  0  0  0  0  0  0  0  0  0
    6.9440    0.2550   18.0100 N   0  0  0  0  0  0  0  0  0  0  0  0
    9.2630   -4.8903   25.8409 N   0  0  0  0  0  0  0  0  0  0  0  0
    8.0810   -0.9750   21.0820 N   0  0  0  0  0  0  0  0  0  0  0  0
    7.4229   -4.6125   27.2818 O   0  0  0  0  0  0  0  0  0  0  0  0
    9.1870    1.1500   21.0630 O   0  0  0  0  0  0  0  0  0  0  0  0
   14.7910   -0.1822   25.8428 H   0  0  0  0  0  0  0  0  0  0  0  0
    3.6274    2.0126   21.6300 H   0  0  0  0  0  0  0  0  0  0  0  0
   12.7077   -0.5049   27.1507 H   0  0  0  0  0  0  0  0  0  0  0  0
   14.6777    0.7050   23.5282 H   0  0  0  0  0  0  0  0  0  0  0  0
    3.2732    2.7875   19.3199 H   0  0  0  0  0  0  0  0  0  0  0  0
    5.4878    0.4645   22.1722 H   0  0  0  0  0  0  0  0  0  0  0  0
   10.5160    0.0554   26.1521 H   0  0  0  0  0  0  0  0  0  0  0  0
   12.4911    1.2683   22.5207 H   0  0  0  0  0  0  0  0  0  0  0  0
    7.5948   -0.7783   24.7966 H   0  0  0  0  0  0  0  0  0  0  0  0
   11.0389   -2.1844   22.6342 H   0  0  0  0  0  0  0  0  0  0  0  0
    4.7853    2.0674   17.4815 H   0  0  0  0  0  0  0  0  0  0  0  0
    7.5642   -2.8624   26.1050 H   0  0  0  0  0  0  0  0  0  0  0  0
   11.0137   -4.2649   23.9418 H   0  0  0  0  0  0  0  0  0  0  0  0
    6.8793   -7.6281   26.7422 H   0  0  0  0  0  0  0  0  0  0  0  0
    8.2200   -8.7338   27.0961 H   0  0  0  0  0  0  0  0  0  0  0  0
    8.2268   -7.7754   25.6039 H   0  0  0  0  0  0  0  0  0  0  0  0
    9.3529    1.4272   24.4380 H   0  0  0  0  0  0  0  0  0  0  0  0
   10.1743    1.8827   22.9648 H   0  0  0  0  0  0  0  0  0  0  0  0
    9.7811   -6.8081   27.3033 H   0  0  0  0  0  0  0  0  0  0  0  0
    8.4423   -6.6782   28.4600 H   0  0  0  0  0  0  0  0  0  0  0  0
   10.7346   -0.4307   22.4468 H   0  0  0  0  0  0  0  0  0  0  0  0
    7.1015    0.3608   17.0505 H   0  0  0  0  0  0  0  0  0  0  0  0
    9.9931   -5.5768   25.6181 H   0  0  0  0  0  0  0  0  0  0  0  0
    8.1201   -1.8087   21.3560 H   0  0  0  0  0  0  0  0  0  0  0  0
  1  3  1  0  0  0  0
  1  4  2  0  0  0  0
  2  5  1  0  0  0  0
  2  6  2  0  0  0  0
  3  7  2  0  0  0  0
  4  8  1  0  0  0  0
  5 11  2  0  0  0  0
  6 14  1  0  0  0  0
  7 15  1  0  0  0  0
  8 15  2  0  0  0  0
  9 12  2  0  0  0  0
  9 16  1  0  0  0  0
 10 13  1  0  0  0  0
 10 16  2  0  0  0  0
 11 17  1  0  0  0  0
 12 18  1  0  0  0  0
 13 18  2  0  0  0  0
 14 17  2  0  0  0  0
 14 19  1  0  0  0  0
 15 23  1  0  0  0  0
 16 25  1  0  0  0  0
 17 27  1  0  0  0  0
 18 28  1  0  0  0  0
 19 26  2  0  0  0  0
 19 29  1  0  0  0  0
 20 24  1  0  0  0  0
 20 28  1  0  0  0  0
 20 30  2  0  0  0  0
 21 25  1  0  0  0  0
 21 29  1  0  0  0  0
 21 31  2  0  0  0  0
 22 24  1  0  0  0  0
 23 25  1  6  0  0  0
 26 27  1  0  0  0  0
  1 32  1  0  0  0  0
  2 33  1  0  0  0  0
  3 34  1  0  0  0  0
  4 35  1  0  0  0  0
  5 36  1  0  0  0  0
  6 37  1  0  0  0  0
  7 38  1  0  0  0  0
  8 39  1  0  0  0  0
  9 40  1  0  0  0  0
 10 41  1  0  0  0  0
 11 42  1  0  0  0  0
 12 43  1  0  0  0  0
 13 44  1  0  0  0  0
 22 45  1  0  0  0  0
 22 46  1  0  0  0  0
 22 47  1  0  0  0  0
 23 48  1  0  0  0  0
 23 49  1  0  0  0  0
 24 50  1  0  0  0  0
 24 51  1  0  0  0  0
 25 52  1  0  0  0  0
 27 53  1  0  0  0  0
 28 54  1  0  0  0  0
 29 55  1  0  0  0  0
M  END
> <clash_score>
1.3871478280696308

> <docking_score>
-4.944863319396973

> <overlap_score>
0.9425548315048218

$$$$
BENZO_226_1
  -OEChem-08222022403D

 53 56  0     1  0  0  0  0  0999 V2000
    4.2970    1.6690   20.8430 C   0  0  0  0  0  0  0  0  0  0  0  0
    4.0980    2.1130   19.5350 C   0  0  0  0  0  0  0  0  0  0  0  0
   13.7719    0.5789   24.0657 C   0  0  0  0  0  0  0  0  0  0  0  0
    5.3360    0.8000   21.1530 C   0  0  0  0  0  0  0  0  0  0  0  0
   12.3966    0.4859   24.2792 C   0  0  0  0  0  0  0  0  0  0  0  0
    8.3510   -1.5420   24.6110 C   0  0  0  0  0  0  0  0  0  0  0  0
   10.2760   -2.3270   23.4020 C   0  0  0  0  0  0  0  0  0  0  0  0
    4.9400    1.7060   18.5060 C   0  0  0  0  0  0  0  0  0  0  0  0
    8.3310   -2.7170   25.3430 C   0  0  0  0  0  0  0  0  0  0  0  0
   10.2570   -3.5000   24.1350 C   0  0  0  0  0  0  0  0  0  0  0  0
   14.2627    1.3315   22.9987 C   0  0  0  0  0  0  0  0  0  0  0  0
   12.0029    1.8978   22.3587 C   0  0  0  0  0  0  0  0  0  0  0  0
    6.1600    0.3870   20.1140 C   0  0  0  0  0  0  0  0  0  0  0  0
    9.3300   -1.3350   23.6390 C   0  0  0  0  0  0  0  0  0  0  0  0
   11.5121    1.1453   23.4257 C   0  0  0  0  0  0  0  0  0  0  0  0
    5.9810    0.8330   18.8060 C   0  0  0  0  0  0  0  0  0  0  0  0
    9.2850   -3.7090   25.1090 C   0  0  0  0  0  0  0  0  0  0  0  0
   13.3782    1.9909   22.1452 C   0  0  0  0  0  0  0  0  0  0  0  0
    7.2210   -0.4620   20.0350 C   0  0  0  0  0  0  0  0  0  0  0  0
    8.9510    0.1280   21.6880 C   0  0  0  0  0  0  0  0  0  0  0  0
    8.2522   -5.1181   26.8654 C   0  0  0  0  0  0  0  0  0  0  0  0
   10.2439   -5.9404   25.5982 C   0  0  0  0  0  0  0  0  0  0  0  0
   10.0220    1.0430   23.6570 C   0  0  0  0  0  0  0  0  0  0  0  0
    9.4200   -0.0840   22.9530 C   0  0  1  0  0  0  0  0  0  0  0  0
    7.6830   -0.5170   18.7600 N   0  0  0  0  0  0  0  0  0  0  0  0
    6.9440    0.2550   18.0100 N   0  0  0  0  0  0  0  0  0  0  0  0
    8.0810   -0.9750   21.0820 N   0  0  0  0  0  0  0  0  0  0  0  0
    9.2638   -4.9025   25.8500 N   0  0  0  0  0  0  0  0  0  0  0  0
    9.1870    1.1500   21.0630 O   0  0  0  0  0  0  0  0  0  0  0  0
   13.9843    2.9183   20.8282 Cl  0  0  0  0  0  0  0  0  0  0  0  0
    3.6274    2.0126   21.6300 H   0  0  0  0  0  0  0  0  0  0  0  0
    3.2732    2.7875   19.3199 H   0  0  0  0  0  0  0  0  0  0  0  0
   14.4603    0.0652   24.7304 H   0  0  0  0  0  0  0  0  0  0  0  0
    5.4878    0.4645   22.1722 H   0  0  0  0  0  0  0  0  0  0  0  0
   12.0231   -0.1028   25.1130 H   0  0  0  0  0  0  0  0  0  0  0  0
    7.5957   -0.7779   24.7973 H   0  0  0  0  0  0  0  0  0  0  0  0
   11.0384   -2.1852   22.6338 H   0  0  0  0  0  0  0  0  0  0  0  0
    4.7853    2.0674   17.4815 H   0  0  0  0  0  0  0  0  0  0  0  0
    7.5634   -2.8637   26.1037 H   0  0  0  0  0  0  0  0  0  0  0  0
   11.0139   -4.2645   23.9419 H   0  0  0  0  0  0  0  0  0  0  0  0
   15.3370    1.3949   22.8442 H   0  0  0  0  0  0  0  0  0  0  0  0
   11.3092    2.4105   21.6963 H   0  0  0  0  0  0  0  0  0  0  0  0
    8.4021   -6.1042   27.3293 H   0  0  0  0  0  0  0  0  0  0  0  0
    8.3318   -4.3354   27.6341 H   0  0  0  0  0  0  0  0  0  0  0  0
    7.2548   -5.0782   26.4033 H   0  0  0  0  0  0  0  0  0  0  0  0
   10.0615   -6.7893   26.2735 H   0  0  0  0  0  0  0  0  0  0  0  0
   10.1605   -6.2778   24.5545 H   0  0  0  0  0  0  0  0  0  0  0  0
   11.2537   -5.5417   25.7750 H   0  0  0  0  0  0  0  0  0  0  0  0
    9.8253    0.9889   24.7357 H   0  0  0  0  0  0  0  0  0  0  0  0
    9.5635    1.9845   23.3241 H   0  0  0  0  0  0  0  0  0  0  0  0
    8.1288    0.3205   23.5156 H   0  0  0  0  0  0  0  0  0  0  0  0
    7.1015    0.3608   17.0505 H   0  0  0  0  0  0  0  0  0  0  0  0
    8.1201   -1.8087   21.3560 H   0  0  0  0  0  0  0  0  0  0  0  0
  1  2  1  0  0  0  0
  1  4  2  0  0  0  0
  2  8  2  0  0  0  0
  3  5  2  0  0  0  0
  3 11  1  0  0  0  0
  4 13  1  0  0  0  0
  5 15  1  0  0  0  0
  6  9  2  0  0  0  0
  6 14  1  0  0  0  0
  7 10  1  0  0  0  0
  7 14  2  0  0  0  0
  8 16  1  0  0  0  0
  9 17  1  0  0  0  0
 10 17  2  0  0  0  0
 11 18  2  0  0  0  0
 12 15  2  0  0  0  0
 12 18  1  0  0  0  0
 13 16  2  0  0  0  0
 13 19  1  0  0  0  0
 14 24  1  0  0  0  0
 15 23  1  0  0  0  0
 16 26  1  0  0  0  0
 17 28  1  0  0  0  0
 18 30  1  0  0  0  0
 19 25  2  0  0  0  0
 19 27  1  0  0  0  0
 20 24  1  0  0  0  0
 20 27  1  0  0  0  0
 20 29  2  0  0  0  0
 21 28  1  0  0  0  0
 22 28  1  0  0  0  0
 23 24  1  1  0  0  0
 25 26  1  0  0  0  0
  1 31  1  0  0  0  0
  2 32  1  0  0  0  0
  3 33  1  0  0  0  0
  4 34  1  0  0  0  0
  5 35  1  0  0  0  0
  6 36  1  0  0  0  0
  7 37  1  0  0  0  0
  8 38  1  0  0  0  0
  9 39  1  0  0  0  0
 10 40  1  0  0  0  0
 11 41  1  0  0  0  0
 12 42  1  0  0  0  0
 21 43  1  0  0  0  0
 21 44  1  0  0  0  0
 21 45  1  0  0  0  0
 22 46  1  0  0  0  0
 22 47  1  0  0  0  0
 22 48  1  0  0  0  0
 23 49  1  0  0  0  0
 23 50  1  0  0  0  0
 24 51  1  0  0  0  0
 26 52  1  0  0  0  0
 27 53  1  0  0  0  0
M  END
> <clash_score>
0

> <docking_score>
-7.199432849884033

> <overlap_score>
1.0163583755493164

$$$$
BENZO_226_2
  -OEChem-08222022403D

 53 56  0     1  0  0  0  0  0999 V2000
    4.2970    1.6690   20.8430 C   0  0  0  0  0  0  0  0  0  0  0  0
    4.0980    2.1130   19.5350 C   0  0  0  0  0  0  0  0  0  0  0  0
   12.6560   -0.1194   26.1379 C   0  0  0  0  0  0  0  0  0  0  0  0
    5.3360    0.8000   21.1530 C   0  0  0  0  0  0  0  0  0  0  0  0
   11.4219    0.1994   25.5714 C   0  0  0  0  0  0  0  0  0  0  0  0
    8.3510   -1.5420   24.6110 C   0  0  0  0  0  0  0  0  0  0  0  0
   10.2760   -2.3270   23.4020 C   0  0  0  0  0  0  0  0  0  0  0  0
    4.9400    1.7060   18.5060 C   0  0  0  0  0  0  0  0  0  0  0  0
    8.3310   -2.7170   25.3430 C   0  0  0  0  0  0  0  0  0  0  0  0
   10.2570   -3.5000   24.1350 C   0  0  0  0  0  0  0  0  0  0  0  0
   13.8281    0.0614   25.4035 C   0  0  0  0  0  0  0  0  0  0  0  0
   12.5318    0.8798   23.5362 C   0  0  0  0  0  0  0  0  0  0  0  0
    6.1600    0.3870   20.1140 C   0  0  0  0  0  0  0  0  0  0  0  0
    9.3300   -1.3350   23.6390 C   0  0  0  0  0  0  0  0  0  0  0  0
   11.3598    0.6989   24.2706 C   0  0  0  0  0  0  0  0  0  0  0  0
    5.9810    0.8330   18.8060 C   0  0  0  0  0  0  0  0  0  0  0  0
    9.2850   -3.7090   25.1090 C   0  0  0  0  0  0  0  0  0  0  0  0
   13.7660    0.5610   24.1027 C   0  0  0  0  0  0  0  0  0  0  0  0
    7.2210   -0.4620   20.0350 C   0  0  0  0  0  0  0  0  0  0  0  0
    8.9510    0.1280   21.6880 C   0  0  0  0  0  0  0  0  0  0  0  0
    8.2522   -5.1181   26.8654 C   0  0  0  0  0  0  0  0  0  0  0  0
   10.2439   -5.9404   25.5982 C   0  0  0  0  0  0  0  0  0  0  0  0
   10.0220    1.0430   23.6570 C   0  0  0  0  0  0  0  0  0  0  0  0
    9.4200   -0.0840   22.9530 C   0  0  2  0  0  0  0  0  0  0  0  0
    7.6830   -0.5170   18.7600 N   0  0  0  0  0  0  0  0  0  0  0  0
    6.9440    0.2550   18.0100 N   0  0  0  0  0  0  0  0  0  0  0  0
    8.0810   -0.9750   21.0820 N   0  0  0  0  0  0  0  0  0  0  0  0
    9.2638   -4.9025   25.8500 N   0  0  0  0  0  0  0  0  0  0  0  0
    9.1870    1.1500   21.0630 O   0  0  0  0  0  0  0  0  0  0  0  0
   15.2122    0.7829   23.1967 Cl  0  0  0  0  0  0  0  0  0  0  0  0
    3.6274    2.0126   21.6300 H   0  0  0  0  0  0  0  0  0  0  0  0
    3.2732    2.7875   19.3199 H   0  0  0  0  0  0  0  0  0  0  0  0
   12.7039   -0.5086   27.1508 H   0  0  0  0  0  0  0  0  0  0  0  0
    5.4878    0.4645   22.1722 H   0  0  0  0  0  0  0  0  0  0  0  0
   10.5137    0.0551   26.1509 H   0  0  0  0  0  0  0  0  0  0  0  0
    7.5957   -0.7779   24.7973 H   0  0  0  0  0  0  0  0  0  0  0  0
   11.0384   -2.1852   22.6338 H   0  0  0  0  0  0  0  0  0  0  0  0
    4.7853    2.0674   17.4815 H   0  0  0  0  0  0  0  0  0  0  0  0
    7.5634   -2.8637   26.1037 H   0  0  0  0  0  0  0  0  0  0  0  0
   11.0139   -4.2645   23.9419 H   0  0  0  0  0  0  0  0  0  0  0  0
   14.7829   -0.1916   25.8577 H   0  0  0  0  0  0  0  0  0  0  0  0
   12.4781    1.2701   22.5225 H   0  0  0  0  0  0  0  0  0  0  0  0
    8.4021   -6.1042   27.3293 H   0  0  0  0  0  0  0  0  0  0  0  0
    8.3318   -4.3354   27.6341 H   0  0  0  0  0  0  0  0  0  0  0  0
    7.2548   -5.0782   26.4033 H   0  0  0  0  0  0  0  0  0  0  0  0
   10.0615   -6.7893   26.2735 H   0  0  0  0  0  0  0  0  0  0  0  0
   10.1605   -6.2778   24.5545 H   0  0  0  0  0  0  0  0  0  0  0  0
   11.2537   -5.5417   25.7750 H   0  0  0  0  0  0  0  0  0  0  0  0
    9.3529    1.4272   24.4380 H   0  0  0  0  0  0  0  0  0  0  0  0
   10.1743    1.8827   22.9648 H   0  0  0  0  0  0  0  0  0  0  0  0
   10.7346   -0.4307   22.4468 H   0  0  0  0  0  0  0  0  0  0  0  0
    7.1015    0.3608   17.0505 H   0  0  0  0  0  0  0  0  0  0  0  0
    8.1201   -1.8087   21.3560 H   0  0  0  0  0  0  0  0  0  0  0  0
  1  2  1  0  0  0  0
  1  4  2  0  0  0  0
  2  8  2  0  0  0  0
  3  5  2  0  0  0  0
  3 11  1  0  0  0  0
  4 13  1  0  0  0  0
  5 15  1  0  0  0  0
  6  9  2  0  0  0  0
  6 14  1  0  0  0  0
  7 10  1  0  0  0  0
  7 14  2  0  0  0  0
  8 16  1  0  0  0  0
  9 17  1  0  0  0  0
 10 17  2  0  0  0  0
 11 18  2  0  0  0  0
 12 15  2  0  0  0  0
 12 18  1  0  0  0  0
 13 16  2  0  0  0  0
 13 19  1  0  0  0  0
 14 24  1  0  0  0  0
 15 23  1  0  0  0  0
 16 26  1  0  0  0  0
 17 28  1  0  0  0  0
 18 30  1  0  0  0  0
 19 25  2  0  0  0  0
 19 27  1  0  0  0  0
 20 24  1  0  0  0  0
 20 27  1  0  0  0  0
 20 29  2  0  0  0  0
 21 28  1  0  0  0  0
 22 28  1  0  0  0  0
 23 24  1  6  0  0  0
 25 26  1  0  0  0  0
  1 31  1  0  0  0  0
  2 32  1  0  0  0  0
  3 33  1  0  0  0  0
  4 34  1  0  0  0  0
  5 35  1  0  0  0  0
  6 36  1  0  0  0  0
  7 37  1  0  0  0  0
  8 38  1  0  0  0  0
  9 39  1  0  0  0  0
 10 40  1  0  0  0  0
 11 41  1  0  0  0  0
 12 42  1  0  0  0  0
 21 43  1  0  0  0  0
 21 44  1  0  0  0  0
 21 45  1  0  0  0  0
 22 46  1  0  0  0  0
 22 47  1  0  0  0  0
 22 48  1  0  0  0  0
 23 49  1  0  0  0  0
 23 50  1  0  0  0  0
 24 51  1  0  0  0  0
 26 52  1  0  0  0  0
 27 53  1  0  0  0  0
M  END
> <clash_score>
0.6070870017027318

> <docking_score>
-6.1934919357299805

> <overlap_score>
0.9446600675582886

$$$$
BENZO_228_1
  -OEChem-08222022403D

 52 55  0     1  0  0  0  0  0999 V2000
    4.2970    1.6690   20.8430 C   0  0  0  0  0  0  0  0  0  0  0  0
    4.0980    2.1130   19.5350 C   0  0  0  0  0  0  0  0  0  0  0  0
    5.3360    0.8000   21.1530 C   0  0  0  0  0  0  0  0  0  0  0  0
    8.3510   -1.5420   24.6110 C   0  0  0  0  0  0  0  0  0  0  0  0
   10.2760   -2.3270   23.4020 C   0  0  0  0  0  0  0  0  0  0  0  0
    4.9400    1.7060   18.5060 C   0  0  0  0  0  0  0  0  0  0  0  0
    8.3310   -2.7170   25.3430 C   0  0  0  0  0  0  0  0  0  0  0  0
   10.2570   -3.5000   24.1350 C   0  0  0  0  0  0  0  0  0  0  0  0
   12.2216    2.3786   23.3498 C   0  0  0  0  0  0  0  0  0  0  0  0
   13.5684    2.1883   23.1319 C   0  0  0  0  0  0  0  0  0  0  0  0
   12.3438    0.0592   23.2626 C   0  0  0  0  0  0  0  0  0  0  0  0
    6.1600    0.3870   20.1140 C   0  0  0  0  0  0  0  0  0  0  0  0
    9.3300   -1.3350   23.6390 C   0  0  0  0  0  0  0  0  0  0  0  0
   11.5121    1.1453   23.4257 C   0  0  0  0  0  0  0  0  0  0  0  0
    5.9810    0.8330   18.8060 C   0  0  0  0  0  0  0  0  0  0  0  0
    9.2850   -3.7090   25.1090 C   0  0  0  0  0  0  0  0  0  0  0  0
    7.2210   -0.4620   20.0350 C   0  0  0  0  0  0  0  0  0  0  0  0
    8.3664   -5.2687   26.8533 C   0  0  0  0  0  0  0  0  0  0  0  0
    8.9510    0.1280   21.6880 C   0  0  0  0  0  0  0  0  0  0  0  0
    7.9636   -7.7604   26.6667 C   0  0  0  0  0  0  0  0  0  0  0  0
   10.0220    1.0430   23.6570 C   0  0  0  0  0  0  0  0  0  0  0  0
    8.7003   -6.6507   27.3951 C   0  0  0  0  0  0  0  0  0  0  0  0
    9.4200   -0.0840   22.9530 C   0  0  1  0  0  0  0  0  0  0  0  0
    7.6830   -0.5170   18.7600 N   0  0  0  0  0  0  0  0  0  0  0  0
    6.9440    0.2550   18.0100 N   0  0  0  0  0  0  0  0  0  0  0  0
    9.2630   -4.8903   25.8409 N   0  0  0  0  0  0  0  0  0  0  0  0
    8.0810   -0.9750   21.0820 N   0  0  0  0  0  0  0  0  0  0  0  0
    7.4229   -4.6125   27.2818 O   0  0  0  0  0  0  0  0  0  0  0  0
    9.1870    1.1500   21.0630 O   0  0  0  0  0  0  0  0  0  0  0  0
   13.9727    0.5281   23.0196 S   0  0  0  0  0  0  0  0  0  0  0  0
    3.6274    2.0126   21.6300 H   0  0  0  0  0  0  0  0  0  0  0  0
    3.2732    2.7875   19.3199 H   0  0  0  0  0  0  0  0  0  0  0  0
    5.4878    0.4645   22.1722 H   0  0  0  0  0  0  0  0  0  0  0  0
    7.5948   -0.7783   24.7966 H   0  0  0  0  0  0  0  0  0  0  0  0
   11.0389   -2.1844   22.6342 H   0  0  0  0  0  0  0  0  0  0  0  0
    4.7853    2.0674   17.4815 H   0  0  0  0  0  0  0  0  0  0  0  0
    7.5642   -2.8624   26.1050 H   0  0  0  0  0  0  0  0  0  0  0  0
   11.0137   -4.2649   23.9418 H   0  0  0  0  0  0  0  0  0  0  0  0
   11.7708    3.3580   23.4491 H   0  0  0  0  0  0  0  0  0  0  0  0
   14.3341    2.9446   23.0326 H   0  0  0  0  0  0  0  0  0  0  0  0
   12.0768   -0.9885   23.2727 H   0  0  0  0  0  0  0  0  0  0  0  0
    6.8793   -7.6281   26.7422 H   0  0  0  0  0  0  0  0  0  0  0  0
    8.2200   -8.7338   27.0961 H   0  0  0  0  0  0  0  0  0  0  0  0
    8.2268   -7.7754   25.6039 H   0  0  0  0  0  0  0  0  0  0  0  0
    9.8253    0.9889   24.7357 H   0  0  0  0  0  0  0  0  0  0  0  0
    9.5635    1.9845   23.3241 H   0  0  0  0  0  0  0  0  0  0  0  0
    9.7811   -6.8081   27.3033 H   0  0  0  0  0  0  0  0  0  0  0  0
    8.4423   -6.6782   28.4600 H   0  0  0  0  0  0  0  0  0  0  0  0
    8.1288    0.3205   23.5156 H   0  0  0  0  0  0  0  0  0  0  0  0
    7.1015    0.3608   17.0505 H   0  0  0  0  0  0  0  0  0  0  0  0
    9.9931   -5.5768   25.6181 H   0  0  0  0  0  0  0  0  0  0  0  0
    8.1201   -1.8087   21.3560 H   0  0  0  0  0  0  0  0  0  0  0  0
  1  2  1  0  0  0  0
  1  3  2  0  0  0  0
  2  6  2  0  0  0  0
  3 12  1  0  0  0  0
  4  7  2  0  0  0  0
  4 13  1  0  0  0  0
  5  8  1  0  0  0  0
  5 13  2  0  0  0  0
  6 15  1  0  0  0  0
  7 16  1  0  0  0  0
  8 16  2  0  0  0  0
  9 10  2  0  0  0  0
  9 14  1  0  0  0  0
 10 30  1  0  0  0  0
 11 14  2  0  0  0  0
 11 30  1  0  0  0  0
 12 15  2  0  0  0  0
 12 17  1  0  0  0  0
 13 23  1  0  0  0  0
 14 21  1  0  0  0  0
 15 25  1  0  0  0  0
 16 26  1  0  0  0  0
 17 24  2  0  0  0  0
 17 27  1  0  0  0  0
 18 22  1  0  0  0  0
 18 26  1  0  0  0  0
 18 28  2  0  0  0  0
 19 23  1  0  0  0  0
 19 27  1  0  0  0  0
 19 29  2  0  0  0  0
 20 22  1  0  0  0  0
 21 23  1  1  0  0  0
 24 25  1  0  0  0  0
  1 31  1  0  0  0  0
  2 32  1  0  0  0  0
  3 33  1  0  0  0  0
  4 34  1  0  0  0  0
  5 35  1  0  0  0  0
  6 36  1  0  0  0  0
  7 37  1  0  0  0  0
  8 38  1  0  0  0  0
  9 39  1  0  0  0  0
 10 40  1  0  0  0  0
 11 41  1  0  0  0  0
 20 42  1  0  0  0  0
 20 43  1  0  0  0  0
 20 44  1  0  0  0  0
 21 45  1  0  0  0  0
 21 46  1  0  0  0  0
 22 47  1  0  0  0  0
 22 48  1  0  0  0  0
 23 49  1  0  0  0  0
 25 50  1  0  0  0  0
 26 51  1  0  0  0  0
 27 52  1  0  0  0  0
M  END
> <clash_score>
0.7804987027490742

> <docking_score>
-6.778654098510742

> <overlap_score>
1.0075595378875732

$$$$
BENZO_228_2
  -OEChem-08222022403D

 52 55  0     1  0  0  0  0  0999 V2000
    4.2970    1.6690   20.8430 C   0  0  0  0  0  0  0  0  0  0  0  0
    4.0980    2.1130   19.5350 C   0  0  0  0  0  0  0  0  0  0  0  0
    5.3360    0.8000   21.1530 C   0  0  0  0  0  0  0  0  0  0  0  0
    8.3510   -1.5420   24.6110 C   0  0  0  0  0  0  0  0  0  0  0  0
   10.2760   -2.3270   23.4020 C   0  0  0  0  0  0  0  0  0  0  0  0
    4.9400    1.7060   18.5060 C   0  0  0  0  0  0  0  0  0  0  0  0
    8.3310   -2.7170   25.3430 C   0  0  0  0  0  0  0  0  0  0  0  0
   10.2570   -3.5000   24.1350 C   0  0  0  0  0  0  0  0  0  0  0  0
   11.6656    0.8624   25.6525 C   0  0  0  0  0  0  0  0  0  0  0  0
   12.9541    0.4739   25.9468 C   0  0  0  0  0  0  0  0  0  0  0  0
   12.4263    0.1919   23.5611 C   0  0  0  0  0  0  0  0  0  0  0  0
    6.1600    0.3870   20.1140 C   0  0  0  0  0  0  0  0  0  0  0  0
    9.3300   -1.3350   23.6390 C   0  0  0  0  0  0  0  0  0  0  0  0
   11.3597    0.6989   24.2706 C   0  0  0  0  0  0  0  0  0  0  0  0
    5.9810    0.8330   18.8060 C   0  0  0  0  0  0  0  0  0  0  0  0
    9.2850   -3.7090   25.1090 C   0  0  0  0  0  0  0  0  0  0  0  0
    7.2210   -0.4620   20.0350 C   0  0  0  0  0  0  0  0  0  0  0  0
    8.3664   -5.2687   26.8533 C   0  0  0  0  0  0  0  0  0  0  0  0
    8.9510    0.1280   21.6880 C   0  0  0  0  0  0  0  0  0  0  0  0
    7.4812   -7.3834   27.9258 C   0  0  0  0  0  0  0  0  0  0  0  0
   10.0220    1.0430   23.6570 C   0  0  0  0  0  0  0  0  0  0  0  0
    8.7003   -6.6507   27.3951 C   0  0  0  0  0  0  0  0  0  0  0  0
    9.4200   -0.0840   22.9530 C   0  0  2  0  0  0  0  0  0  0  0  0
    7.6830   -0.5170   18.7600 N   0  0  0  0  0  0  0  0  0  0  0  0
    6.9440    0.2550   18.0100 N   0  0  0  0  0  0  0  0  0  0  0  0
    9.2630   -4.8903   25.8409 N   0  0  0  0  0  0  0  0  0  0  0  0
    8.0810   -0.9750   21.0820 N   0  0  0  0  0  0  0  0  0  0  0  0
    7.4229   -4.6125   27.2818 O   0  0  0  0  0  0  0  0  0  0  0  0
    9.1870    1.1500   21.0630 O   0  0  0  0  0  0  0  0  0  0  0  0
   13.7891   -0.0851   24.5602 S   0  0  0  0  0  0  0  0  0  0  0  0
    3.6274    2.0126   21.6300 H   0  0  0  0  0  0  0  0  0  0  0  0
    3.2732    2.7875   19.3199 H   0  0  0  0  0  0  0  0  0  0  0  0
    5.4878    0.4645   22.1722 H   0  0  0  0  0  0  0  0  0  0  0  0
    7.5948   -0.7783   24.7966 H   0  0  0  0  0  0  0  0  0  0  0  0
   11.0389   -2.1844   22.6342 H   0  0  0  0  0  0  0  0  0  0  0  0
    4.7853    2.0674   17.4815 H   0  0  0  0  0  0  0  0  0  0  0  0
    7.5642   -2.8624   26.1050 H   0  0  0  0  0  0  0  0  0  0  0  0
   11.0137   -4.2649   23.9418 H   0  0  0  0  0  0  0  0  0  0  0  0
   10.9786    1.2455   26.3965 H   0  0  0  0  0  0  0  0  0  0  0  0
   13.4452    0.4923   26.9094 H   0  0  0  0  0  0  0  0  0  0  0  0
   12.4750   -0.0294   22.5039 H   0  0  0  0  0  0  0  0  0  0  0  0
    7.0028   -6.8180   28.7324 H   0  0  0  0  0  0  0  0  0  0  0  0
    7.7670   -8.3641   28.3185 H   0  0  0  0  0  0  0  0  0  0  0  0
    6.7384   -7.5345   27.1356 H   0  0  0  0  0  0  0  0  0  0  0  0
    9.3529    1.4272   24.4380 H   0  0  0  0  0  0  0  0  0  0  0  0
   10.1743    1.8827   22.9648 H   0  0  0  0  0  0  0  0  0  0  0  0
    9.1581   -7.2379   26.5907 H   0  0  0  0  0  0  0  0  0  0  0  0
    9.4387   -6.5403   28.1976 H   0  0  0  0  0  0  0  0  0  0  0  0
   10.7346   -0.4307   22.4468 H   0  0  0  0  0  0  0  0  0  0  0  0
    7.1015    0.3608   17.0505 H   0  0  0  0  0  0  0  0  0  0  0  0
    9.9931   -5.5768   25.6181 H   0  0  0  0  0  0  0  0  0  0  0  0
    8.1201   -1.8087   21.3560 H   0  0  0  0  0  0  0  0  0  0  0  0
  1  2  1  0  0  0  0
  1  3  2  0  0  0  0
  2  6  2  0  0  0  0
  3 12  1  0  0  0  0
  4  7  2  0  0  0  0
  4 13  1  0  0  0  0
  5  8  1  0  0  0  0
  5 13  2  0  0  0  0
  6 15  1  0  0  0  0
  7 16  1  0  0  0  0
  8 16  2  0  0  0  0
  9 10  2  0  0  0  0
  9 14  1  0  0  0  0
 10 30  1  0  0  0  0
 11 14  2  0  0  0  0
 11 30  1  0  0  0  0
 12 15  2  0  0  0  0
 12 17  1  0  0  0  0
 13 23  1  0  0  0  0
 14 21  1  0  0  0  0
 15 25  1  0  0  0  0
 16 26  1  0  0  0  0
 17 24  2  0  0  0  0
 17 27  1  0  0  0  0
 18 22  1  0  0  0  0
 18 26  1  0  0  0  0
 18 28  2  0  0  0  0
 19 23  1  0  0  0  0
 19 27  1  0  0  0  0
 19 29  2  0  0  0  0
 20 22  1  0  0  0  0
 21 23  1  6  0  0  0
 24 25  1  0  0  0  0
  1 31  1  0  0  0  0
  2 32  1  0  0  0  0
  3 33  1  0  0  0  0
  4 34  1  0  0  0  0
  5 35  1  0  0  0  0
  6 36  1  0  0  0  0
  7 37  1  0  0  0  0
  8 38  1  0  0  0  0
  9 39  1  0  0  0  0
 10 40  1  0  0  0  0
 11 41  1  0  0  0  0
 20 42  1  0  0  0  0
 20 43  1  0  0  0  0
 20 44  1  0  0  0  0
 21 45  1  0  0  0  0
 21 46  1  0  0  0  0
 22 47  1  0  0  0  0
 22 48  1  0  0  0  0
 23 49  1  0  0  0  0
 25 50  1  0  0  0  0
 26 51  1  0  0  0  0
 27 52  1  0  0  0  0
M  END
> <clash_score>
0

> <docking_score>
-4.5604705810546875

> <overlap_score>
0.9248377680778503

$$$$
BENZO_233_1
  -OEChem-08222022403D

 60 64  0     1  0  0  0  0  0999 V2000
   13.8377    0.1157   25.4121 C   0  0  0  0  0  0  0  0  0  0  0  0
    4.2970    1.6690   20.8430 C   0  0  0  0  0  0  0  0  0  0  0  0
   12.6675   -0.0757   26.1466 C   0  0  0  0  0  0  0  0  0  0  0  0
   13.7705    0.6079   24.1087 C   0  0  0  0  0  0  0  0  0  0  0  0
    4.0980    2.1130   19.5350 C   0  0  0  0  0  0  0  0  0  0  0  0
    5.3360    0.8000   21.1530 C   0  0  0  0  0  0  0  0  0  0  0  0
   11.4299    0.2250   25.5777 C   0  0  0  0  0  0  0  0  0  0  0  0
   12.5329    0.9086   23.5397 C   0  0  0  0  0  0  0  0  0  0  0  0
    8.3510   -1.5420   24.6110 C   0  0  0  0  0  0  0  0  0  0  0  0
   10.2760   -2.3270   23.4020 C   0  0  0  0  0  0  0  0  0  0  0  0
    4.9400    1.7060   18.5060 C   0  0  0  0  0  0  0  0  0  0  0  0
    8.3310   -2.7170   25.3430 C   0  0  0  0  0  0  0  0  0  0  0  0
   10.2570   -3.5000   24.1350 C   0  0  0  0  0  0  0  0  0  0  0  0
    6.1600    0.3870   20.1140 C   0  0  0  0  0  0  0  0  0  0  0  0
   11.3626    0.7172   24.2742 C   0  0  0  0  0  0  0  0  0  0  0  0
    9.3300   -1.3350   23.6390 C   0  0  0  0  0  0  0  0  0  0  0  0
    5.9810    0.8330   18.8060 C   0  0  0  0  0  0  0  0  0  0  0  0
    9.2850   -3.7090   25.1090 C   0  0  0  0  0  0  0  0  0  0  0  0
    7.2210   -0.4620   20.0350 C   0  0  0  0  0  0  0  0  0  0  0  0
    8.9510    0.1280   21.6880 C   0  0  0  0  0  0  0  0  0  0  0  0
    7.3211   -6.8875   26.5227 C   0  0  0  0  0  0  0  0  0  0  0  0
    7.3523   -5.5278   27.2244 C   0  0  0  0  0  0  0  0  0  0  0  0
    7.9422   -6.8107   25.1261 C   0  0  0  0  0  0  0  0  0  0  0  0
    8.7641   -4.9418   27.2163 C   0  0  0  0  0  0  0  0  0  0  0  0
    9.3411   -6.1879   25.1670 C   0  0  0  0  0  0  0  0  0  0  0  0
   10.0220    1.0430   23.6570 C   0  0  0  0  0  0  0  0  0  0  0  0
    9.4200   -0.0840   22.9530 C   0  0  1  0  0  0  0  0  0  0  0  0
    7.6830   -0.5170   18.7600 N   0  0  0  0  0  0  0  0  0  0  0  0
    6.9440    0.2550   18.0100 N   0  0  0  0  0  0  0  0  0  0  0  0
    9.2641   -4.8861   25.8398 N   0  0  0  0  0  0  0  0  0  0  0  0
    8.0810   -0.9750   21.0820 N   0  0  0  0  0  0  0  0  0  0  0  0
    9.1870    1.1500   21.0630 O   0  0  0  0  0  0  0  0  0  0  0  0
   14.8013   -0.1172   25.8558 H   0  0  0  0  0  0  0  0  0  0  0  0
    3.6274    2.0126   21.6300 H   0  0  0  0  0  0  0  0  0  0  0  0
   12.7197   -0.4578   27.1619 H   0  0  0  0  0  0  0  0  0  0  0  0
   14.6814    0.7580   23.5369 H   0  0  0  0  0  0  0  0  0  0  0  0
    3.2732    2.7875   19.3199 H   0  0  0  0  0  0  0  0  0  0  0  0
    5.4878    0.4645   22.1722 H   0  0  0  0  0  0  0  0  0  0  0  0
   10.5233    0.0726   26.1574 H   0  0  0  0  0  0  0  0  0  0  0  0
   12.4902    1.2914   22.5235 H   0  0  0  0  0  0  0  0  0  0  0  0
    7.5957   -0.7779   24.7973 H   0  0  0  0  0  0  0  0  0  0  0  0
   11.0384   -2.1852   22.6338 H   0  0  0  0  0  0  0  0  0  0  0  0
    4.7853    2.0674   17.4815 H   0  0  0  0  0  0  0  0  0  0  0  0
    7.5634   -2.8637   26.1037 H   0  0  0  0  0  0  0  0  0  0  0  0
   11.0139   -4.2645   23.9419 H   0  0  0  0  0  0  0  0  0  0  0  0
    7.8644   -7.6283   27.1289 H   0  0  0  0  0  0  0  0  0  0  0  0
    6.2830   -7.2423   26.4478 H   0  0  0  0  0  0  0  0  0  0  0  0
    6.6663   -4.8405   26.7221 H   0  0  0  0  0  0  0  0  0  0  0  0
    7.0062   -5.6400   28.2540 H   0  0  0  0  0  0  0  0  0  0  0  0
    8.0018   -7.8160   24.6962 H   0  0  0  0  0  0  0  0  0  0  0  0
    7.2963   -6.2182   24.4678 H   0  0  0  0  0  0  0  0  0  0  0  0
    8.7322   -3.9404   27.6532 H   0  0  0  0  0  0  0  0  0  0  0  0
    9.4260   -5.5610   27.8283 H   0  0  0  0  0  0  0  0  0  0  0  0
   10.0249   -6.8474   25.7028 H   0  0  0  0  0  0  0  0  0  0  0  0
    9.7015   -6.0700   24.1446 H   0  0  0  0  0  0  0  0  0  0  0  0
    9.3482    1.4259   24.4346 H   0  0  0  0  0  0  0  0  0  0  0  0
   10.1663    1.8792   22.9588 H   0  0  0  0  0  0  0  0  0  0  0  0
   10.7366   -0.4277   22.4442 H   0  0  0  0  0  0  0  0  0  0  0  0
    7.1015    0.3608   17.0505 H   0  0  0  0  0  0  0  0  0  0  0  0
    8.1354   -1.7990   21.3694 H   0  0  0  0  0  0  0  0  0  0  0  0
  1  3  1  0  0  0  0
  1  4  2  0  0  0  0
  2  5  1  0  0  0  0
  2  6  2  0  0  0  0
  3  7  2  0  0  0  0
  4  8  1  0  0  0  0
  5 11  2  0  0  0  0
  6 14  1  0  0  0  0
  7 15  1  0  0  0  0
  8 15  2  0  0  0  0
  9 12  2  0  0  0  0
  9 16  1  0  0  0  0
 10 13  1  0  0  0  0
 10 16  2  0  0  0  0
 11 17  1  0  0  0  0
 12 18  1  0  0  0  0
 13 18  2  0  0  0  0
 14 17  2  0  0  0  0
 14 19  1  0  0  0  0
 15 26  1  0  0  0  0
 16 27  1  0  0  0  0
 17 29  1  0  0  0  0
 18 30  1  0  0  0  0
 19 28  2  0  0  0  0
 19 31  1  0  0  0  0
 20 27  1  1  0  0  0
 20 31  1  0  0  0  0
 20 32  2  0  0  0  0
 21 22  1  0  0  0  0
 21 23  1  0  0  0  0
 22 24  1  0  0  0  0
 23 25  1  0  0  0  0
 24 30  1  0  0  0  0
 25 30  1  0  0  0  0
 26 27  1  0  0  0  0
 28 29  1  0  0  0  0
  1 33  1  0  0  0  0
  2 34  1  0  0  0  0
  3 35  1  0  0  0  0
  4 36  1  0  0  0  0
  5 37  1  0  0  0  0
  6 38  1  0  0  0  0
  7 39  1  0  0  0  0
  8 40  1  0  0  0  0
  9 41  1  0  0  0  0
 10 42  1  0  0  0  0
 11 43  1  0  0  0  0
 12 44  1  0  0  0  0
 13 45  1  0  0  0  0
 21 46  1  0  0  0  0
 21 47  1  0  0  0  0
 22 48  1  0  0  0  0
 22 49  1  0  0  0  0
 23 50  1  0  0  0  0
 23 51  1  0  0  0  0
 24 52  1  0  0  0  0
 24 53  1  0  0  0  0
 25 54  1  0  0  0  0
 25 55  1  0  0  0  0
 26 56  1  0  0  0  0
 26 57  1  0  0  0  0
 27 58  1  0  0  0  0
 29 59  1  0  0  0  0
 31 60  1  0  0  0  0
M  END
> <clash_score>
0

> <docking_score>
-5.839295387268066

> <overlap_score>
0.9484655857086182

$$$$
BENZO_233_2
  -OEChem-08222022403D

 60 64  0     1  0  0  0  0  0999 V2000
   14.2657    1.3706   23.0373 C   0  0  0  0  0  0  0  0  0  0  0  0
    4.2970    1.6690   20.8430 C   0  0  0  0  0  0  0  0  0  0  0  0
   13.7726    0.6128   24.0995 C   0  0  0  0  0  0  0  0  0  0  0  0
   13.3825    2.0222   22.1763 C   0  0  0  0  0  0  0  0  0  0  0  0
    4.0980    2.1130   19.5350 C   0  0  0  0  0  0  0  0  0  0  0  0
    5.3360    0.8000   21.1530 C   0  0  0  0  0  0  0  0  0  0  0  0
   12.3965    0.5065   24.3007 C   0  0  0  0  0  0  0  0  0  0  0  0
   12.0064    1.9158   22.3775 C   0  0  0  0  0  0  0  0  0  0  0  0
    8.3510   -1.5420   24.6110 C   0  0  0  0  0  0  0  0  0  0  0  0
   10.2760   -2.3270   23.4020 C   0  0  0  0  0  0  0  0  0  0  0  0
    4.9400    1.7060   18.5060 C   0  0  0  0  0  0  0  0  0  0  0  0
    8.3310   -2.7170   25.3430 C   0  0  0  0  0  0  0  0  0  0  0  0
   10.2570   -3.5000   24.1350 C   0  0  0  0  0  0  0  0  0  0  0  0
    6.1600    0.3870   20.1140 C   0  0  0  0  0  0  0  0  0  0  0  0
   11.5133    1.1580   23.4397 C   0  0  0  0  0  0  0  0  0  0  0  0
    9.3300   -1.3350   23.6390 C   0  0  0  0  0  0  0  0  0  0  0  0
    5.9810    0.8330   18.8060 C   0  0  0  0  0  0  0  0  0  0  0  0
    9.2850   -3.7090   25.1090 C   0  0  0  0  0  0  0  0  0  0  0  0
    7.2210   -0.4620   20.0350 C   0  0  0  0  0  0  0  0  0  0  0  0
    8.9510    0.1280   21.6880 C   0  0  0  0  0  0  0  0  0  0  0  0
    7.3211   -6.8875   26.5227 C   0  0  0  0  0  0  0  0  0  0  0  0
    7.3523   -5.5278   27.2244 C   0  0  0  0  0  0  0  0  0  0  0  0
    7.9422   -6.8107   25.1261 C   0  0  0  0  0  0  0  0  0  0  0  0
    8.7641   -4.9418   27.2163 C   0  0  0  0  0  0  0  0  0  0  0  0
    9.3411   -6.1879   25.1670 C   0  0  0  0  0  0  0  0  0  0  0  0
   10.0220    1.0430   23.6570 C   0  0  0  0  0  0  0  0  0  0  0  0
    9.4200   -0.0840   22.9530 C   0  0  2  0  0  0  0  0  0  0  0  0
    7.6830   -0.5170   18.7600 N   0  0  0  0  0  0  0  0  0  0  0  0
    6.9440    0.2550   18.0100 N   0  0  0  0  0  0  0  0  0  0  0  0
    9.2641   -4.8861   25.8398 N   0  0  0  0  0  0  0  0  0  0  0  0
    8.0810   -0.9750   21.0820 N   0  0  0  0  0  0  0  0  0  0  0  0
    9.1870    1.1500   21.0630 O   0  0  0  0  0  0  0  0  0  0  0  0
   15.3373    1.4544   22.8816 H   0  0  0  0  0  0  0  0  0  0  0  0
    3.6274    2.0126   21.6300 H   0  0  0  0  0  0  0  0  0  0  0  0
   14.4602    0.1063   24.7706 H   0  0  0  0  0  0  0  0  0  0  0  0
   13.7661    2.6131   21.3499 H   0  0  0  0  0  0  0  0  0  0  0  0
    3.2732    2.7875   19.3199 H   0  0  0  0  0  0  0  0  0  0  0  0
    5.4878    0.4645   22.1722 H   0  0  0  0  0  0  0  0  0  0  0  0
   12.0213   -0.0863   25.1308 H   0  0  0  0  0  0  0  0  0  0  0  0
   11.3258    2.4268   21.7016 H   0  0  0  0  0  0  0  0  0  0  0  0
    7.5957   -0.7779   24.7973 H   0  0  0  0  0  0  0  0  0  0  0  0
   11.0384   -2.1852   22.6338 H   0  0  0  0  0  0  0  0  0  0  0  0
    4.7853    2.0674   17.4815 H   0  0  0  0  0  0  0  0  0  0  0  0
    7.5634   -2.8637   26.1037 H   0  0  0  0  0  0  0  0  0  0  0  0
   11.0139   -4.2645   23.9419 H   0  0  0  0  0  0  0  0  0  0  0  0
    7.8644   -7.6283   27.1289 H   0  0  0  0  0  0  0  0  0  0  0  0
    6.2830   -7.2423   26.4478 H   0  0  0  0  0  0  0  0  0  0  0  0
    6.6663   -4.8405   26.7221 H   0  0  0  0  0  0  0  0  0  0  0  0
    7.0062   -5.6400   28.2540 H   0  0  0  0  0  0  0  0  0  0  0  0
    8.0018   -7.8160   24.6962 H   0  0  0  0  0  0  0  0  0  0  0  0
    7.2963   -6.2182   24.4678 H   0  0  0  0  0  0  0  0  0  0  0  0
    8.7322   -3.9404   27.6532 H   0  0  0  0  0  0  0  0  0  0  0  0
    9.4260   -5.5610   27.8283 H   0  0  0  0  0  0  0  0  0  0  0  0
   10.0249   -6.8474   25.7028 H   0  0  0  0  0  0  0  0  0  0  0  0
    9.7015   -6.0700   24.1446 H   0  0  0  0  0  0  0  0  0  0  0  0
    9.8155    0.9894   24.7339 H   0  0  0  0  0  0  0  0  0  0  0  0
    9.5584    1.9798   23.3178 H   0  0  0  0  0  0  0  0  0  0  0  0
    8.1278    0.3254   23.5142 H   0  0  0  0  0  0  0  0  0  0  0  0
    7.1015    0.3608   17.0505 H   0  0  0  0  0  0  0  0  0  0  0  0
    8.1354   -1.7990   21.3694 H   0  0  0  0  0  0  0  0  0  0  0  0
  1  3  1  0  0  0  0
  1  4  2  0  0  0  0
  2  5  1  0  0  0  0
  2  6  2  0  0  0  0
  3  7  2  0  0  0  0
  4  8  1  0  0  0  0
  5 11  2  0  0  0  0
  6 14  1  0  0  0  0
  7 15  1  0  0  0  0
  8 15  2  0  0  0  0
  9 12  2  0  0  0  0
  9 16  1  0  0  0  0
 10 13  1  0  0  0  0
 10 16  2  0  0  0  0
 11 17  1  0  0  0  0
 12 18  1  0  0  0  0
 13 18  2  0  0  0  0
 14 17  2  0  0  0  0
 14 19  1  0  0  0  0
 15 26  1  0  0  0  0
 16 27  1  0  0  0  0
 17 29  1  0  0  0  0
 18 30  1  0  0  0  0
 19 28  2  0  0  0  0
 19 31  1  0  0  0  0
 20 27  1  6  0  0  0
 20 31  1  0  0  0  0
 20 32  2  0  0  0  0
 21 22  1  0  0  0  0
 21 23  1  0  0  0  0
 22 24  1  0  0  0  0
 23 25  1  0  0  0  0
 24 30  1  0  0  0  0
 25 30  1  0  0  0  0
 26 27  1  0  0  0  0
 28 29  1  0  0  0  0
  1 33  1  0  0  0  0
  2 34  1  0  0  0  0
  3 35  1  0  0  0  0
  4 36  1  0  0  0  0
  5 37  1  0  0  0  0
  6 38  1  0  0  0  0
  7 39  1  0  0  0  0
  8 40  1  0  0  0  0
  9 41  1  0  0  0  0
 10 42  1  0  0  0  0
 11 43  1  0  0  0  0
 12 44  1  0  0  0  0
 13 45  1  0  0  0  0
 21 46  1  0  0  0  0
 21 47  1  0  0  0  0
 22 48  1  0  0  0  0
 22 49  1  0  0  0  0
 23 50  1  0  0  0  0
 23 51  1  0  0  0  0
 24 52  1  0  0  0  0
 24 53  1  0  0  0  0
 25 54  1  0  0  0  0
 25 55  1  0  0  0  0
 26 56  1  0  0  0  0
 26 57  1  0  0  0  0
 27 58  1  0  0  0  0
 29 59  1  0  0  0  0
 31 60  1  0  0  0  0
M  END
> <clash_score>
0

> <docking_score>
-6.792141437530518

> <overlap_score>
1.0255537033081055

$$$$
BENZO_230_2
  -OEChem-08222022403D

 55 58  0     1  0  0  0  0  0999 V2000
    4.2970    1.6690   20.8430 C   0  0  0  0  0  0  0  0  0  0  0  0
    4.0980    2.1130   19.5350 C   0  0  0  0  0  0  0  0  0  0  0  0
   12.6560   -0.1194   26.1379 C   0  0  0  0  0  0  0  0  0  0  0  0
    5.3360    0.8000   21.1530 C   0  0  0  0  0  0  0  0  0  0  0  0
   11.4219    0.1994   25.5714 C   0  0  0  0  0  0  0  0  0  0  0  0
    8.3510   -1.5420   24.6110 C   0  0  0  0  0  0  0  0  0  0  0  0
   10.2760   -2.3270   23.4020 C   0  0  0  0  0  0  0  0  0  0  0  0
    4.9400    1.7060   18.5060 C   0  0  0  0  0  0  0  0  0  0  0  0
    8.3310   -2.7170   25.3430 C   0  0  0  0  0  0  0  0  0  0  0  0
   10.2570   -3.5000   24.1350 C   0  0  0  0  0  0  0  0  0  0  0  0
   13.8281    0.0614   25.4035 C   0  0  0  0  0  0  0  0  0  0  0  0
   12.5318    0.8798   23.5362 C   0  0  0  0  0  0  0  0  0  0  0  0
    6.1600    0.3870   20.1140 C   0  0  0  0  0  0  0  0  0  0  0  0
    9.3300   -1.3350   23.6390 C   0  0  0  0  0  0  0  0  0  0  0  0
   11.3598    0.6989   24.2706 C   0  0  0  0  0  0  0  0  0  0  0  0
    5.9810    0.8330   18.8060 C   0  0  0  0  0  0  0  0  0  0  0  0
    9.2850   -3.7090   25.1090 C   0  0  0  0  0  0  0  0  0  0  0  0
   13.7660    0.5610   24.1027 C   0  0  0  0  0  0  0  0  0  0  0  0
    7.2210   -0.4620   20.0350 C   0  0  0  0  0  0  0  0  0  0  0  0
    8.3664   -5.2687   26.8533 C   0  0  0  0  0  0  0  0  0  0  0  0
    8.9510    0.1280   21.6880 C   0  0  0  0  0  0  0  0  0  0  0  0
    7.9636   -7.7604   26.6667 C   0  0  0  0  0  0  0  0  0  0  0  0
   10.0220    1.0430   23.6570 C   0  0  0  0  0  0  0  0  0  0  0  0
    8.7003   -6.6507   27.3951 C   0  0  0  0  0  0  0  0  0  0  0  0
    9.4200   -0.0840   22.9530 C   0  0  2  0  0  0  0  0  0  0  0  0
    7.6830   -0.5170   18.7600 N   0  0  0  0  0  0  0  0  0  0  0  0
    6.9440    0.2550   18.0100 N   0  0  0  0  0  0  0  0  0  0  0  0
    9.2630   -4.8903   25.8409 N   0  0  0  0  0  0  0  0  0  0  0  0
    8.0810   -0.9750   21.0820 N   0  0  0  0  0  0  0  0  0  0  0  0
    7.4229   -4.6125   27.2818 O   0  0  0  0  0  0  0  0  0  0  0  0
    9.1870    1.1500   21.0630 O   0  0  0  0  0  0  0  0  0  0  0  0
   15.2122    0.7829   23.1967 Cl  0  0  0  0  0  0  0  0  0  0  0  0
    3.6274    2.0126   21.6300 H   0  0  0  0  0  0  0  0  0  0  0  0
    3.2732    2.7875   19.3199 H   0  0  0  0  0  0  0  0  0  0  0  0
   12.7039   -0.5086   27.1508 H   0  0  0  0  0  0  0  0  0  0  0  0
    5.4878    0.4645   22.1722 H   0  0  0  0  0  0  0  0  0  0  0  0
   10.5137    0.0551   26.1509 H   0  0  0  0  0  0  0  0  0  0  0  0
    7.5948   -0.7783   24.7966 H   0  0  0  0  0  0  0  0  0  0  0  0
   11.0389   -2.1844   22.6342 H   0  0  0  0  0  0  0  0  0  0  0  0
    4.7853    2.0674   17.4815 H   0  0  0  0  0  0  0  0  0  0  0  0
    7.5642   -2.8624   26.1050 H   0  0  0  0  0  0  0  0  0  0  0  0
   11.0137   -4.2649   23.9418 H   0  0  0  0  0  0  0  0  0  0  0  0
   14.7829   -0.1916   25.8577 H   0  0  0  0  0  0  0  0  0  0  0  0
   12.4781    1.2701   22.5225 H   0  0  0  0  0  0  0  0  0  0  0  0
    6.8793   -7.6281   26.7422 H   0  0  0  0  0  0  0  0  0  0  0  0
    8.2200   -8.7338   27.0961 H   0  0  0  0  0  0  0  0  0  0  0  0
    8.2268   -7.7754   25.6039 H   0  0  0  0  0  0  0  0  0  0  0  0
    9.3529    1.4272   24.4380 H   0  0  0  0  0  0  0  0  0  0  0  0
   10.1743    1.8827   22.9648 H   0  0  0  0  0  0  0  0  0  0  0  0
    9.7811   -6.8081   27.3033 H   0  0  0  0  0  0  0  0  0  0  0  0
    8.4423   -6.6782   28.4600 H   0  0  0  0  0  0  0  0  0  0  0  0
   10.7346   -0.4307   22.4468 H   0  0  0  0  0  0  0  0  0  0  0  0
    7.1015    0.3608   17.0505 H   0  0  0  0  0  0  0  0  0  0  0  0
    9.9931   -5.5768   25.6181 H   0  0  0  0  0  0  0  0  0  0  0  0
    8.1201   -1.8087   21.3560 H   0  0  0  0  0  0  0  0  0  0  0  0
  1  2  1  0  0  0  0
  1  4  2  0  0  0  0
  2  8  2  0  0  0  0
  3  5  2  0  0  0  0
  3 11  1  0  0  0  0
  4 13  1  0  0  0  0
  5 15  1  0  0  0  0
  6  9  2  0  0  0  0
  6 14  1  0  0  0  0
  7 10  1  0  0  0  0
  7 14  2  0  0  0  0
  8 16  1  0  0  0  0
  9 17  1  0  0  0  0
 10 17  2  0  0  0  0
 11 18  2  0  0  0  0
 12 15  2  0  0  0  0
 12 18  1  0  0  0  0
 13 16  2  0  0  0  0
 13 19  1  0  0  0  0
 14 25  1  0  0  0  0
 15 23  1  0  0  0  0
 16 27  1  0  0  0  0
 17 28  1  0  0  0  0
 18 32  1  0  0  0  0
 19 26  2  0  0  0  0
 19 29  1  0  0  0  0
 20 24  1  0  0  0  0
 20 28  1  0  0  0  0
 20 30  2  0  0  0  0
 21 25  1  0  0  0  0
 21 29  1  0  0  0  0
 21 31  2  0  0  0  0
 22 24  1  0  0  0  0
 23 25  1  6  0  0  0
 26 27  1  0  0  0  0
  1 33  1  0  0  0  0
  2 34  1  0  0  0  0
  3 35  1  0  0  0  0
  4 36  1  0  0  0  0
  5 37  1  0  0  0  0
  6 38  1  0  0  0  0
  7 39  1  0  0  0  0
  8 40  1  0  0  0  0
  9 41  1  0  0  0  0
 10 42  1  0  0  0  0
 11 43  1  0  0  0  0
 12 44  1  0  0  0  0
 22 45  1  0  0  0  0
 22 46  1  0  0  0  0
 22 47  1  0  0  0  0
 23 48  1  0  0  0  0
 23 49  1  0  0  0  0
 24 50  1  0  0  0  0
 24 51  1  0  0  0  0
 25 52  1  0  0  0  0
 27 53  1  0  0  0  0
 28 54  1  0  0  0  0
 29 55  1  0  0  0  0
M  END
> <clash_score>
1.3875857044518058

> <docking_score>
-4.017409324645996

> <overlap_score>
0.9516925811767578

$$$$
BENZO_230_1
  -OEChem-08222022403D

 55 58  0     1  0  0  0  0  0999 V2000
    4.2970    1.6690   20.8430 C   0  0  0  0  0  0  0  0  0  0  0  0
    4.0980    2.1130   19.5350 C   0  0  0  0  0  0  0  0  0  0  0  0
   13.7719    0.5789   24.0657 C   0  0  0  0  0  0  0  0  0  0  0  0
    5.3360    0.8000   21.1530 C   0  0  0  0  0  0  0  0  0  0  0  0
   12.3966    0.4859   24.2792 C   0  0  0  0  0  0  0  0  0  0  0  0
    8.3510   -1.5420   24.6110 C   0  0  0  0  0  0  0  0  0  0  0  0
   10.2760   -2.3270   23.4020 C   0  0  0  0  0  0  0  0  0  0  0  0
    4.9400    1.7060   18.5060 C   0  0  0  0  0  0  0  0  0  0  0  0
    8.3310   -2.7170   25.3430 C   0  0  0  0  0  0  0  0  0  0  0  0
   10.2570   -3.5000   24.1350 C   0  0  0  0  0  0  0  0  0  0  0  0
   14.2627    1.3315   22.9987 C   0  0  0  0  0  0  0  0  0  0  0  0
   12.0029    1.8978   22.3587 C   0  0  0  0  0  0  0  0  0  0  0  0
    6.1600    0.3870   20.1140 C   0  0  0  0  0  0  0  0  0  0  0  0
    9.3300   -1.3350   23.6390 C   0  0  0  0  0  0  0  0  0  0  0  0
   11.5121    1.1453   23.4257 C   0  0  0  0  0  0  0  0  0  0  0  0
    5.9810    0.8330   18.8060 C   0  0  0  0  0  0  0  0  0  0  0  0
    9.2850   -3.7090   25.1090 C   0  0  0  0  0  0  0  0  0  0  0  0
   13.3782    1.9909   22.1452 C   0  0  0  0  0  0  0  0  0  0  0  0
    7.2210   -0.4620   20.0350 C   0  0  0  0  0  0  0  0  0  0  0  0
    8.1541   -5.5451   26.4009 C   0  0  0  0  0  0  0  0  0  0  0  0
    8.9510    0.1280   21.6880 C   0  0  0  0  0  0  0  0  0  0  0  0
    9.7887   -7.4749   26.4980 C   0  0  0  0  0  0  0  0  0  0  0  0
   10.0220    1.0430   23.6570 C   0  0  0  0  0  0  0  0  0  0  0  0
    8.5738   -6.8153   27.1256 C   0  0  0  0  0  0  0  0  0  0  0  0
    9.4200   -0.0840   22.9530 C   0  0  1  0  0  0  0  0  0  0  0  0
    7.6830   -0.5170   18.7600 N   0  0  0  0  0  0  0  0  0  0  0  0
    6.9440    0.2550   18.0100 N   0  0  0  0  0  0  0  0  0  0  0  0
    9.2630   -4.8903   25.8409 N   0  0  0  0  0  0  0  0  0  0  0  0
    8.0810   -0.9750   21.0820 N   0  0  0  0  0  0  0  0  0  0  0  0
    6.9827   -5.1857   26.3435 O   0  0  0  0  0  0  0  0  0  0  0  0
    9.1870    1.1500   21.0630 O   0  0  0  0  0  0  0  0  0  0  0  0
   13.9843    2.9183   20.8282 Cl  0  0  0  0  0  0  0  0  0  0  0  0
    3.6274    2.0126   21.6300 H   0  0  0  0  0  0  0  0  0  0  0  0
    3.2732    2.7875   19.3199 H   0  0  0  0  0  0  0  0  0  0  0  0
   14.4603    0.0652   24.7304 H   0  0  0  0  0  0  0  0  0  0  0  0
    5.4878    0.4645   22.1722 H   0  0  0  0  0  0  0  0  0  0  0  0
   12.0231   -0.1028   25.1130 H   0  0  0  0  0  0  0  0  0  0  0  0
    7.5948   -0.7783   24.7966 H   0  0  0  0  0  0  0  0  0  0  0  0
   11.0389   -2.1844   22.6342 H   0  0  0  0  0  0  0  0  0  0  0  0
    4.7853    2.0674   17.4815 H   0  0  0  0  0  0  0  0  0  0  0  0
    7.5642   -2.8624   26.1050 H   0  0  0  0  0  0  0  0  0  0  0  0
   11.0137   -4.2649   23.9418 H   0  0  0  0  0  0  0  0  0  0  0  0
   15.3370    1.3949   22.8442 H   0  0  0  0  0  0  0  0  0  0  0  0
   11.3092    2.4105   21.6963 H   0  0  0  0  0  0  0  0  0  0  0  0
    9.5973   -7.7379   25.4524 H   0  0  0  0  0  0  0  0  0  0  0  0
   10.0474   -8.3904   27.0390 H   0  0  0  0  0  0  0  0  0  0  0  0
   10.6557   -6.8065   26.5227 H   0  0  0  0  0  0  0  0  0  0  0  0
    9.8253    0.9889   24.7357 H   0  0  0  0  0  0  0  0  0  0  0  0
    9.5635    1.9845   23.3241 H   0  0  0  0  0  0  0  0  0  0  0  0
    8.7933   -6.5634   28.1695 H   0  0  0  0  0  0  0  0  0  0  0  0
    7.7311   -7.5161   27.1152 H   0  0  0  0  0  0  0  0  0  0  0  0
    8.1288    0.3205   23.5156 H   0  0  0  0  0  0  0  0  0  0  0  0
    7.1015    0.3608   17.0505 H   0  0  0  0  0  0  0  0  0  0  0  0
   10.1698   -5.3461   25.9957 H   0  0  0  0  0  0  0  0  0  0  0  0
    8.1201   -1.8087   21.3560 H   0  0  0  0  0  0  0  0  0  0  0  0
  1  2  1  0  0  0  0
  1  4  2  0  0  0  0
  2  8  2  0  0  0  0
  3  5  2  0  0  0  0
  3 11  1  0  0  0  0
  4 13  1  0  0  0  0
  5 15  1  0  0  0  0
  6  9  2  0  0  0  0
  6 14  1  0  0  0  0
  7 10  1  0  0  0  0
  7 14  2  0  0  0  0
  8 16  1  0  0  0  0
  9 17  1  0  0  0  0
 10 17  2  0  0  0  0
 11 18  2  0  0  0  0
 12 15  2  0  0  0  0
 12 18  1  0  0  0  0
 13 16  2  0  0  0  0
 13 19  1  0  0  0  0
 14 25  1  0  0  0  0
 15 23  1  0  0  0  0
 16 27  1  0  0  0  0
 17 28  1  0  0  0  0
 18 32  1  0  0  0  0
 19 26  2  0  0  0  0
 19 29  1  0  0  0  0
 20 24  1  0  0  0  0
 20 28  1  0  0  0  0
 20 30  2  0  0  0  0
 21 25  1  0  0  0  0
 21 29  1  0  0  0  0
 21 31  2  0  0  0  0
 22 24  1  0  0  0  0
 23 25  1  1  0  0  0
 26 27  1  0  0  0  0
  1 33  1  0  0  0  0
  2 34  1  0  0  0  0
  3 35  1  0  0  0  0
  4 36  1  0  0  0  0
  5 37  1  0  0  0  0
  6 38  1  0  0  0  0
  7 39  1  0  0  0  0
  8 40  1  0  0  0  0
  9 41  1  0  0  0  0
 10 42  1  0  0  0  0
 11 43  1  0  0  0  0
 12 44  1  0  0  0  0
 22 45  1  0  0  0  0
 22 46  1  0  0  0  0
 22 47  1  0  0  0  0
 23 48  1  0  0  0  0
 23 49  1  0  0  0  0
 24 50  1  0  0  0  0
 24 51  1  0  0  0  0
 25 52  1  0  0  0  0
 27 53  1  0  0  0  0
 28 54  1  0  0  0  0
 29 55  1  0  0  0  0
M  END
> <clash_score>
0.7458479545038151

> <docking_score>
-5.309680938720703

> <overlap_score>
1.0222437381744385

$$$$
BENZO_232_2
  -OEChem-08222022403D

 57 61  0     1  0  0  0  0  0999 V2000
    4.2970    1.6690   20.8430 C   0  0  0  0  0  0  0  0  0  0  0  0
    4.0980    2.1130   19.5350 C   0  0  0  0  0  0  0  0  0  0  0  0
    5.3360    0.8000   21.1530 C   0  0  0  0  0  0  0  0  0  0  0  0
    8.3510   -1.5420   24.6110 C   0  0  0  0  0  0  0  0  0  0  0  0
   10.2760   -2.3270   23.4020 C   0  0  0  0  0  0  0  0  0  0  0  0
    4.9400    1.7060   18.5060 C   0  0  0  0  0  0  0  0  0  0  0  0
    8.3310   -2.7170   25.3430 C   0  0  0  0  0  0  0  0  0  0  0  0
   10.2570   -3.5000   24.1350 C   0  0  0  0  0  0  0  0  0  0  0  0
   12.2126    2.3974   23.3680 C   0  0  0  0  0  0  0  0  0  0  0  0
   13.5630    2.2185   23.1633 C   0  0  0  0  0  0  0  0  0  0  0  0
   12.3560    0.0789   23.2869 C   0  0  0  0  0  0  0  0  0  0  0  0
    6.1600    0.3870   20.1140 C   0  0  0  0  0  0  0  0  0  0  0  0
    9.3300   -1.3350   23.6390 C   0  0  0  0  0  0  0  0  0  0  0  0
   11.5133    1.1580   23.4397 C   0  0  0  0  0  0  0  0  0  0  0  0
    5.9810    0.8330   18.8060 C   0  0  0  0  0  0  0  0  0  0  0  0
    9.2850   -3.7090   25.1090 C   0  0  0  0  0  0  0  0  0  0  0  0
    7.2210   -0.4620   20.0350 C   0  0  0  0  0  0  0  0  0  0  0  0
    8.9510    0.1280   21.6880 C   0  0  0  0  0  0  0  0  0  0  0  0
    7.3211   -6.8875   26.5227 C   0  0  0  0  0  0  0  0  0  0  0  0
    7.3523   -5.5278   27.2244 C   0  0  0  0  0  0  0  0  0  0  0  0
    7.9422   -6.8107   25.1261 C   0  0  0  0  0  0  0  0  0  0  0  0
    8.7641   -4.9418   27.2163 C   0  0  0  0  0  0  0  0  0  0  0  0
    9.3411   -6.1879   25.1670 C   0  0  0  0  0  0  0  0  0  0  0  0
   10.0220    1.0430   23.6570 C   0  0  0  0  0  0  0  0  0  0  0  0
    9.4200   -0.0840   22.9530 C   0  0  2  0  0  0  0  0  0  0  0  0
    7.6830   -0.5170   18.7600 N   0  0  0  0  0  0  0  0  0  0  0  0
    6.9440    0.2550   18.0100 N   0  0  0  0  0  0  0  0  0  0  0  0
    9.2641   -4.8861   25.8398 N   0  0  0  0  0  0  0  0  0  0  0  0
    8.0810   -0.9750   21.0820 N   0  0  0  0  0  0  0  0  0  0  0  0
    9.1870    1.1500   21.0630 O   0  0  0  0  0  0  0  0  0  0  0  0
   13.9830    0.5617   23.0583 S   0  0  0  0  0  0  0  0  0  0  0  0
    3.6274    2.0126   21.6300 H   0  0  0  0  0  0  0  0  0  0  0  0
    3.2732    2.7875   19.3199 H   0  0  0  0  0  0  0  0  0  0  0  0
    5.4878    0.4645   22.1722 H   0  0  0  0  0  0  0  0  0  0  0  0
    7.5957   -0.7779   24.7973 H   0  0  0  0  0  0  0  0  0  0  0  0
   11.0384   -2.1852   22.6338 H   0  0  0  0  0  0  0  0  0  0  0  0
    4.7853    2.0674   17.4815 H   0  0  0  0  0  0  0  0  0  0  0  0
    7.5634   -2.8637   26.1037 H   0  0  0  0  0  0  0  0  0  0  0  0
   11.0139   -4.2645   23.9419 H   0  0  0  0  0  0  0  0  0  0  0  0
   11.7522    3.3729   23.4608 H   0  0  0  0  0  0  0  0  0  0  0  0
   14.3229    2.9813   23.0696 H   0  0  0  0  0  0  0  0  0  0  0  0
   12.0982   -0.9711   23.2967 H   0  0  0  0  0  0  0  0  0  0  0  0
    7.8644   -7.6283   27.1289 H   0  0  0  0  0  0  0  0  0  0  0  0
    6.2830   -7.2423   26.4478 H   0  0  0  0  0  0  0  0  0  0  0  0
    6.6663   -4.8405   26.7221 H   0  0  0  0  0  0  0  0  0  0  0  0
    7.0062   -5.6400   28.2540 H   0  0  0  0  0  0  0  0  0  0  0  0
    8.0018   -7.8160   24.6962 H   0  0  0  0  0  0  0  0  0  0  0  0
    7.2963   -6.2182   24.4678 H   0  0  0  0  0  0  0  0  0  0  0  0
    8.7322   -3.9404   27.6532 H   0  0  0  0  0  0  0  0  0  0  0  0
    9.4260   -5.5610   27.8283 H   0  0  0  0  0  0  0  0  0  0  0  0
   10.0249   -6.8474   25.7028 H   0  0  0  0  0  0  0  0  0  0  0  0
    9.7015   -6.0700   24.1446 H   0  0  0  0  0  0  0  0  0  0  0  0
    9.8155    0.9894   24.7339 H   0  0  0  0  0  0  0  0  0  0  0  0
    9.5584    1.9798   23.3178 H   0  0  0  0  0  0  0  0  0  0  0  0
    8.1278    0.3254   23.5142 H   0  0  0  0  0  0  0  0  0  0  0  0
    7.1015    0.3608   17.0505 H   0  0  0  0  0  0  0  0  0  0  0  0
    8.1354   -1.7990   21.3694 H   0  0  0  0  0  0  0  0  0  0  0  0
  1  2  1  0  0  0  0
  1  3  2  0  0  0  0
  2  6  2  0  0  0  0
  3 12  1  0  0  0  0
  4  7  2  0  0  0  0
  4 13  1  0  0  0  0
  5  8  1  0  0  0  0
  5 13  2  0  0  0  0
  6 15  1  0  0  0  0
  7 16  1  0  0  0  0
  8 16  2  0  0  0  0
  9 10  2  0  0  0  0
  9 14  1  0  0  0  0
 10 31  1  0  0  0  0
 11 14  2  0  0  0  0
 11 31  1  0  0  0  0
 12 15  2  0  0  0  0
 12 17  1  0  0  0  0
 13 25  1  0  0  0  0
 14 24  1  0  0  0  0
 15 27  1  0  0  0  0
 16 28  1  0  0  0  0
 17 26  2  0  0  0  0
 17 29  1  0  0  0  0
 18 25  1  6  0  0  0
 18 29  1  0  0  0  0
 18 30  2  0  0  0  0
 19 20  1  0  0  0  0
 19 21  1  0  0  0  0
 20 22  1  0  0  0  0
 21 23  1  0  0  0  0
 22 28  1  0  0  0  0
 23 28  1  0  0  0  0
 24 25  1  0  0  0  0
 26 27  1  0  0  0  0
  1 32  1  0  0  0  0
  2 33  1  0  0  0  0
  3 34  1  0  0  0  0
  4 35  1  0  0  0  0
  5 36  1  0  0  0  0
  6 37  1  0  0  0  0
  7 38  1  0  0  0  0
  8 39  1  0  0  0  0
  9 40  1  0  0  0  0
 10 41  1  0  0  0  0
 11 42  1  0  0  0  0
 19 43  1  0  0  0  0
 19 44  1  0  0  0  0
 20 45  1  0  0  0  0
 20 46  1  0  0  0  0
 21 47  1  0  0  0  0
 21 48  1  0  0  0  0
 22 49  1  0  0  0  0
 22 50  1  0  0  0  0
 23 51  1  0  0  0  0
 23 52  1  0  0  0  0
 24 53  1  0  0  0  0
 24 54  1  0  0  0  0
 25 55  1  0  0  0  0
 27 56  1  0  0  0  0
 29 57  1  0  0  0  0
M  END
> <clash_score>
0

> <docking_score>
-7.60117769241333

> <overlap_score>
1.012872338294983

$$$$
BENZO_232_1
  -OEChem-08222022403D

 57 61  0     1  0  0  0  0  0999 V2000
    4.2970    1.6690   20.8430 C   0  0  0  0  0  0  0  0  0  0  0  0
    4.0980    2.1130   19.5350 C   0  0  0  0  0  0  0  0  0  0  0  0
    5.3360    0.8000   21.1530 C   0  0  0  0  0  0  0  0  0  0  0  0
    8.3510   -1.5420   24.6110 C   0  0  0  0  0  0  0  0  0  0  0  0
   10.2760   -2.3270   23.4020 C   0  0  0  0  0  0  0  0  0  0  0  0
    4.9400    1.7060   18.5060 C   0  0  0  0  0  0  0  0  0  0  0  0
    8.3310   -2.7170   25.3430 C   0  0  0  0  0  0  0  0  0  0  0  0
   10.2570   -3.5000   24.1350 C   0  0  0  0  0  0  0  0  0  0  0  0
   11.0518    0.9847   26.0345 C   0  0  0  0  0  0  0  0  0  0  0  0
   12.1353    0.4811   26.7201 C   0  0  0  0  0  0  0  0  0  0  0  0
   12.1840   -0.1301   24.3381 C   0  0  0  0  0  0  0  0  0  0  0  0
    6.1600    0.3870   20.1140 C   0  0  0  0  0  0  0  0  0  0  0  0
    9.3300   -1.3350   23.6390 C   0  0  0  0  0  0  0  0  0  0  0  0
   11.0798    0.6306   24.6546 C   0  0  0  0  0  0  0  0  0  0  0  0
    5.9810    0.8330   18.8060 C   0  0  0  0  0  0  0  0  0  0  0  0
    9.2850   -3.7090   25.1090 C   0  0  0  0  0  0  0  0  0  0  0  0
    7.2210   -0.4620   20.0350 C   0  0  0  0  0  0  0  0  0  0  0  0
    8.9510    0.1280   21.6880 C   0  0  0  0  0  0  0  0  0  0  0  0
    7.3211   -6.8875   26.5227 C   0  0  0  0  0  0  0  0  0  0  0  0
    7.3523   -5.5278   27.2244 C   0  0  0  0  0  0  0  0  0  0  0  0
    7.9422   -6.8107   25.1261 C   0  0  0  0  0  0  0  0  0  0  0  0
    8.7641   -4.9418   27.2163 C   0  0  0  0  0  0  0  0  0  0  0  0
    9.3411   -6.1879   25.1670 C   0  0  0  0  0  0  0  0  0  0  0  0
   10.0220    1.0430   23.6570 C   0  0  0  0  0  0  0  0  0  0  0  0
    9.4200   -0.0840   22.9530 C   0  0  1  0  0  0  0  0  0  0  0  0
    7.6830   -0.5170   18.7600 N   0  0  0  0  0  0  0  0  0  0  0  0
    6.9440    0.2550   18.0100 N   0  0  0  0  0  0  0  0  0  0  0  0
    9.2641   -4.8861   25.8398 N   0  0  0  0  0  0  0  0  0  0  0  0
    8.0810   -0.9750   21.0820 N   0  0  0  0  0  0  0  0  0  0  0  0
    9.1870    1.1500   21.0630 O   0  0  0  0  0  0  0  0  0  0  0  0
   13.1804   -0.4145   25.7013 S   0  0  0  0  0  0  0  0  0  0  0  0
    3.6274    2.0126   21.6300 H   0  0  0  0  0  0  0  0  0  0  0  0
    3.2732    2.7875   19.3199 H   0  0  0  0  0  0  0  0  0  0  0  0
    5.4878    0.4645   22.1722 H   0  0  0  0  0  0  0  0  0  0  0  0
    7.5957   -0.7779   24.7973 H   0  0  0  0  0  0  0  0  0  0  0  0
   11.0384   -2.1852   22.6338 H   0  0  0  0  0  0  0  0  0  0  0  0
    4.7853    2.0674   17.4815 H   0  0  0  0  0  0  0  0  0  0  0  0
    7.5634   -2.8637   26.1037 H   0  0  0  0  0  0  0  0  0  0  0  0
   11.0139   -4.2645   23.9419 H   0  0  0  0  0  0  0  0  0  0  0  0
   10.2782    1.5788   26.5045 H   0  0  0  0  0  0  0  0  0  0  0  0
   12.3635    0.5968   27.7702 H   0  0  0  0  0  0  0  0  0  0  0  0
   12.4575   -0.5332   23.3728 H   0  0  0  0  0  0  0  0  0  0  0  0
    7.8644   -7.6283   27.1289 H   0  0  0  0  0  0  0  0  0  0  0  0
    6.2830   -7.2423   26.4478 H   0  0  0  0  0  0  0  0  0  0  0  0
    6.6663   -4.8405   26.7221 H   0  0  0  0  0  0  0  0  0  0  0  0
    7.0062   -5.6400   28.2540 H   0  0  0  0  0  0  0  0  0  0  0  0
    8.0018   -7.8160   24.6962 H   0  0  0  0  0  0  0  0  0  0  0  0
    7.2963   -6.2182   24.4678 H   0  0  0  0  0  0  0  0  0  0  0  0
    8.7322   -3.9404   27.6532 H   0  0  0  0  0  0  0  0  0  0  0  0
    9.4260   -5.5610   27.8283 H   0  0  0  0  0  0  0  0  0  0  0  0
   10.0249   -6.8474   25.7028 H   0  0  0  0  0  0  0  0  0  0  0  0
    9.7015   -6.0700   24.1446 H   0  0  0  0  0  0  0  0  0  0  0  0
    9.2564    1.6421   24.1671 H   0  0  0  0  0  0  0  0  0  0  0  0
   10.4892    1.7236   22.9318 H   0  0  0  0  0  0  0  0  0  0  0  0
   10.7366   -0.4277   22.4442 H   0  0  0  0  0  0  0  0  0  0  0  0
    7.1015    0.3608   17.0505 H   0  0  0  0  0  0  0  0  0  0  0  0
    8.1354   -1.7990   21.3694 H   0  0  0  0  0  0  0  0  0  0  0  0
  1  2  1  0  0  0  0
  1  3  2  0  0  0  0
  2  6  2  0  0  0  0
  3 12  1  0  0  0  0
  4  7  2  0  0  0  0
  4 13  1  0  0  0  0
  5  8  1  0  0  0  0
  5 13  2  0  0  0  0
  6 15  1  0  0  0  0
  7 16  1  0  0  0  0
  8 16  2  0  0  0  0
  9 10  2  0  0  0  0
  9 14  1  0  0  0  0
 10 31  1  0  0  0  0
 11 14  2  0  0  0  0
 11 31  1  0  0  0  0
 12 15  2  0  0  0  0
 12 17  1  0  0  0  0
 13 25  1  0  0  0  0
 14 24  1  0  0  0  0
 15 27  1  0  0  0  0
 16 28  1  0  0  0  0
 17 26  2  0  0  0  0
 17 29  1  0  0  0  0
 18 25  1  1  0  0  0
 18 29  1  0  0  0  0
 18 30  2  0  0  0  0
 19 20  1  0  0  0  0
 19 21  1  0  0  0  0
 20 22  1  0  0  0  0
 21 23  1  0  0  0  0
 22 28  1  0  0  0  0
 23 28  1  0  0  0  0
 24 25  1  0  0  0  0
 26 27  1  0  0  0  0
  1 32  1  0  0  0  0
  2 33  1  0  0  0  0
  3 34  1  0  0  0  0
  4 35  1  0  0  0  0
  5 36  1  0  0  0  0
  6 37  1  0  0  0  0
  7 38  1  0  0  0  0
  8 39  1  0  0  0  0
  9 40  1  0  0  0  0
 10 41  1  0  0  0  0
 11 42  1  0  0  0  0
 19 43  1  0  0  0  0
 19 44  1  0  0  0  0
 20 45  1  0  0  0  0
 20 46  1  0  0  0  0
 21 47  1  0  0  0  0
 21 48  1  0  0  0  0
 22 49  1  0  0  0  0
 22 50  1  0  0  0  0
 23 51  1  0  0  0  0
 23 52  1  0  0  0  0
 24 53  1  0  0  0  0
 24 54  1  0  0  0  0
 25 55  1  0  0  0  0
 27 56  1  0  0  0  0
 29 57  1  0  0  0  0
M  END
> <clash_score>
0

> <docking_score>
-4.817623138427734

> <overlap_score>
0.8986520171165466

$$$$
BENZO_231_2
  -OEChem-08222022403D

 55 58  0     1  0  0  0  0  0999 V2000
    4.2970    1.6690   20.8430 C   0  0  0  0  0  0  0  0  0  0  0  0
    4.0980    2.1130   19.5350 C   0  0  0  0  0  0  0  0  0  0  0  0
    5.3360    0.8000   21.1530 C   0  0  0  0  0  0  0  0  0  0  0  0
    8.3510   -1.5420   24.6110 C   0  0  0  0  0  0  0  0  0  0  0  0
   10.2760   -2.3270   23.4020 C   0  0  0  0  0  0  0  0  0  0  0  0
    4.9400    1.7060   18.5060 C   0  0  0  0  0  0  0  0  0  0  0  0
    8.3310   -2.7170   25.3430 C   0  0  0  0  0  0  0  0  0  0  0  0
   10.2570   -3.5000   24.1350 C   0  0  0  0  0  0  0  0  0  0  0  0
   12.6346    0.8176   23.6854 C   0  0  0  0  0  0  0  0  0  0  0  0
   11.6038    0.2020   25.5275 C   0  0  0  0  0  0  0  0  0  0  0  0
    6.1600    0.3870   20.1140 C   0  0  0  0  0  0  0  0  0  0  0  0
    9.3300   -1.3350   23.6390 C   0  0  0  0  0  0  0  0  0  0  0  0
   11.3597    0.6989   24.2706 C   0  0  0  0  0  0  0  0  0  0  0  0
    5.9810    0.8330   18.8060 C   0  0  0  0  0  0  0  0  0  0  0  0
    9.2850   -3.7090   25.1090 C   0  0  0  0  0  0  0  0  0  0  0  0
    7.2210   -0.4620   20.0350 C   0  0  0  0  0  0  0  0  0  0  0  0
    8.3664   -5.2687   26.8533 C   0  0  0  0  0  0  0  0  0  0  0  0
    8.9510    0.1280   21.6880 C   0  0  0  0  0  0  0  0  0  0  0  0
    7.9636   -7.7604   26.6667 C   0  0  0  0  0  0  0  0  0  0  0  0
   13.6941   -0.4329   26.7549 C   0  0  0  0  0  0  0  0  0  0  0  0
   10.0220    1.0430   23.6570 C   0  0  0  0  0  0  0  0  0  0  0  0
    8.7003   -6.6507   27.3951 C   0  0  0  0  0  0  0  0  0  0  0  0
    9.4200   -0.0840   22.9530 C   0  0  2  0  0  0  0  0  0  0  0  0
   13.6158    0.4276   24.5035 N   0  0  0  0  0  0  0  0  0  0  0  0
    7.6830   -0.5170   18.7600 N   0  0  0  0  0  0  0  0  0  0  0  0
    6.9440    0.2550   18.0100 N   0  0  0  0  0  0  0  0  0  0  0  0
   12.9573    0.0592   25.6156 N   0  0  0  0  0  0  0  0  0  0  0  0
    9.2630   -4.8903   25.8409 N   0  0  0  0  0  0  0  0  0  0  0  0
    8.0810   -0.9750   21.0820 N   0  0  0  0  0  0  0  0  0  0  0  0
    7.4229   -4.6125   27.2818 O   0  0  0  0  0  0  0  0  0  0  0  0
    9.1870    1.1500   21.0630 O   0  0  0  0  0  0  0  0  0  0  0  0
    3.6274    2.0126   21.6300 H   0  0  0  0  0  0  0  0  0  0  0  0
    3.2732    2.7875   19.3199 H   0  0  0  0  0  0  0  0  0  0  0  0
    5.4878    0.4645   22.1722 H   0  0  0  0  0  0  0  0  0  0  0  0
    7.5948   -0.7783   24.7966 H   0  0  0  0  0  0  0  0  0  0  0  0
   11.0389   -2.1844   22.6342 H   0  0  0  0  0  0  0  0  0  0  0  0
    4.7853    2.0674   17.4815 H   0  0  0  0  0  0  0  0  0  0  0  0
    7.5642   -2.8624   26.1050 H   0  0  0  0  0  0  0  0  0  0  0  0
   11.0137   -4.2649   23.9418 H   0  0  0  0  0  0  0  0  0  0  0  0
   12.8922    1.1725   22.6975 H   0  0  0  0  0  0  0  0  0  0  0  0
   10.9461   -0.0545   26.3470 H   0  0  0  0  0  0  0  0  0  0  0  0
    6.8793   -7.6281   26.7422 H   0  0  0  0  0  0  0  0  0  0  0  0
    8.2200   -8.7338   27.0961 H   0  0  0  0  0  0  0  0  0  0  0  0
    8.2268   -7.7754   25.6039 H   0  0  0  0  0  0  0  0  0  0  0  0
   13.7879   -1.5173   26.6532 H   0  0  0  0  0  0  0  0  0  0  0  0
   14.6819    0.0356   26.7797 H   0  0  0  0  0  0  0  0  0  0  0  0
   13.1542   -0.1790   27.6714 H   0  0  0  0  0  0  0  0  0  0  0  0
    9.3529    1.4272   24.4380 H   0  0  0  0  0  0  0  0  0  0  0  0
   10.1743    1.8827   22.9648 H   0  0  0  0  0  0  0  0  0  0  0  0
    9.7811   -6.8081   27.3033 H   0  0  0  0  0  0  0  0  0  0  0  0
    8.4423   -6.6782   28.4600 H   0  0  0  0  0  0  0  0  0  0  0  0
   10.7346   -0.4307   22.4468 H   0  0  0  0  0  0  0  0  0  0  0  0
    7.1015    0.3608   17.0505 H   0  0  0  0  0  0  0  0  0  0  0  0
    9.9931   -5.5768   25.6181 H   0  0  0  0  0  0  0  0  0  0  0  0
    8.1201   -1.8087   21.3560 H   0  0  0  0  0  0  0  0  0  0  0  0
  1  2  1  0  0  0  0
  1  3  2  0  0  0  0
  2  6  2  0  0  0  0
  3 11  1  0  0  0  0
  4  7  2  0  0  0  0
  4 12  1  0  0  0  0
  5  8  1  0  0  0  0
  5 12  2  0  0  0  0
  6 14  1  0  0  0  0
  7 15  1  0  0  0  0
  8 15  2  0  0  0  0
  9 13  1  0  0  0  0
  9 24  2  0  0  0  0
 10 13  2  0  0  0  0
 10 27  1  0  0  0  0
 11 14  2  0  0  0  0
 11 16  1  0  0  0  0
 12 23  1  0  0  0  0
 13 21  1  0  0  0  0
 14 26  1  0  0  0  0
 15 28  1  0  0  0  0
 16 25  2  0  0  0  0
 16 29  1  0  0  0  0
 17 22  1  0  0  0  0
 17 28  1  0  0  0  0
 17 30  2  0  0  0  0
 18 23  1  0  0  0  0
 18 29  1  0  0  0  0
 18 31  2  0  0  0  0
 19 22  1  0  0  0  0
 20 27  1  0  0  0  0
 21 23  1  6  0  0  0
 24 27  1  0  0  0  0
 25 26  1  0  0  0  0
  1 32  1  0  0  0  0
  2 33  1  0  0  0  0
  3 34  1  0  0  0  0
  4 35  1  0  0  0  0
  5 36  1  0  0  0  0
  6 37  1  0  0  0  0
  7 38  1  0  0  0  0
  8 39  1  0  0  0  0
  9 40  1  0  0  0  0
 10 41  1  0  0  0  0
 19 42  1  0  0  0  0
 19 43  1  0  0  0  0
 19 44  1  0  0  0  0
 20 45  1  0  0  0  0
 20 46  1  0  0  0  0
 20 47  1  0  0  0  0
 21 48  1  0  0  0  0
 21 49  1  0  0  0  0
 22 50  1  0  0  0  0
 22 51  1  0  0  0  0
 23 52  1  0  0  0  0
 26 53  1  0  0  0  0
 28 54  1  0  0  0  0
 29 55  1  0  0  0  0
M  END
> <clash_score>
1.5256129357006174

> <docking_score>
-4.784913063049316

> <overlap_score>
0.9339213967323303

$$$$
BENZO_231_1
  -OEChem-08222022403D

 55 58  0     1  0  0  0  0  0999 V2000
    4.2970    1.6690   20.8430 C   0  0  0  0  0  0  0  0  0  0  0  0
    4.0980    2.1130   19.5350 C   0  0  0  0  0  0  0  0  0  0  0  0
    5.3360    0.8000   21.1530 C   0  0  0  0  0  0  0  0  0  0  0  0
    8.3510   -1.5420   24.6110 C   0  0  0  0  0  0  0  0  0  0  0  0
   10.2760   -2.3270   23.4020 C   0  0  0  0  0  0  0  0  0  0  0  0
    4.9400    1.7060   18.5060 C   0  0  0  0  0  0  0  0  0  0  0  0
    8.3310   -2.7170   25.3430 C   0  0  0  0  0  0  0  0  0  0  0  0
   10.2570   -3.5000   24.1350 C   0  0  0  0  0  0  0  0  0  0  0  0
   12.3075    2.3068   23.4193 C   0  0  0  0  0  0  0  0  0  0  0  0
   12.3951    0.1231   23.1770 C   0  0  0  0  0  0  0  0  0  0  0  0
    6.1600    0.3870   20.1140 C   0  0  0  0  0  0  0  0  0  0  0  0
    9.3300   -1.3350   23.6390 C   0  0  0  0  0  0  0  0  0  0  0  0
   11.5121    1.1453   23.4257 C   0  0  0  0  0  0  0  0  0  0  0  0
    5.9810    0.8330   18.8060 C   0  0  0  0  0  0  0  0  0  0  0  0
    9.2850   -3.7090   25.1090 C   0  0  0  0  0  0  0  0  0  0  0  0
    7.2210   -0.4620   20.0350 C   0  0  0  0  0  0  0  0  0  0  0  0
    8.3664   -5.2687   26.8533 C   0  0  0  0  0  0  0  0  0  0  0  0
    8.9510    0.1280   21.6880 C   0  0  0  0  0  0  0  0  0  0  0  0
    7.9636   -7.7604   26.6667 C   0  0  0  0  0  0  0  0  0  0  0  0
   14.8664    0.0395   22.7716 C   0  0  0  0  0  0  0  0  0  0  0  0
   10.0220    1.0430   23.6570 C   0  0  0  0  0  0  0  0  0  0  0  0
    8.7003   -6.6507   27.3951 C   0  0  0  0  0  0  0  0  0  0  0  0
    9.4200   -0.0840   22.9530 C   0  0  1  0  0  0  0  0  0  0  0  0
   13.5967    2.0476   23.1851 N   0  0  0  0  0  0  0  0  0  0  0  0
    7.6830   -0.5170   18.7600 N   0  0  0  0  0  0  0  0  0  0  0  0
    6.9440    0.2550   18.0100 N   0  0  0  0  0  0  0  0  0  0  0  0
   13.6181    0.7115   23.0422 N   0  0  0  0  0  0  0  0  0  0  0  0
    9.2630   -4.8903   25.8409 N   0  0  0  0  0  0  0  0  0  0  0  0
    8.0810   -0.9750   21.0820 N   0  0  0  0  0  0  0  0  0  0  0  0
    7.4229   -4.6125   27.2818 O   0  0  0  0  0  0  0  0  0  0  0  0
    9.1870    1.1500   21.0630 O   0  0  0  0  0  0  0  0  0  0  0  0
    3.6274    2.0126   21.6300 H   0  0  0  0  0  0  0  0  0  0  0  0
    3.2732    2.7875   19.3199 H   0  0  0  0  0  0  0  0  0  0  0  0
    5.4878    0.4645   22.1722 H   0  0  0  0  0  0  0  0  0  0  0  0
    7.5948   -0.7783   24.7966 H   0  0  0  0  0  0  0  0  0  0  0  0
   11.0389   -2.1844   22.6342 H   0  0  0  0  0  0  0  0  0  0  0  0
    4.7853    2.0674   17.4815 H   0  0  0  0  0  0  0  0  0  0  0  0
    7.5642   -2.8624   26.1050 H   0  0  0  0  0  0  0  0  0  0  0  0
   11.0137   -4.2649   23.9418 H   0  0  0  0  0  0  0  0  0  0  0  0
   12.0040    3.3322   23.5761 H   0  0  0  0  0  0  0  0  0  0  0  0
   12.2609   -0.9465   23.0878 H   0  0  0  0  0  0  0  0  0  0  0  0
    6.8793   -7.6281   26.7422 H   0  0  0  0  0  0  0  0  0  0  0  0
    8.2200   -8.7338   27.0961 H   0  0  0  0  0  0  0  0  0  0  0  0
    8.2268   -7.7754   25.6039 H   0  0  0  0  0  0  0  0  0  0  0  0
   14.9942   -0.0107   21.6871 H   0  0  0  0  0  0  0  0  0  0  0  0
   15.6877    0.5992   23.2278 H   0  0  0  0  0  0  0  0  0  0  0  0
   14.8362   -0.9658   23.2010 H   0  0  0  0  0  0  0  0  0  0  0  0
    9.8253    0.9889   24.7357 H   0  0  0  0  0  0  0  0  0  0  0  0
    9.5635    1.9845   23.3241 H   0  0  0  0  0  0  0  0  0  0  0  0
    9.7811   -6.8081   27.3033 H   0  0  0  0  0  0  0  0  0  0  0  0
    8.4423   -6.6782   28.4600 H   0  0  0  0  0  0  0  0  0  0  0  0
    8.1288    0.3205   23.5156 H   0  0  0  0  0  0  0  0  0  0  0  0
    7.1015    0.3608   17.0505 H   0  0  0  0  0  0  0  0  0  0  0  0
    9.9931   -5.5768   25.6181 H   0  0  0  0  0  0  0  0  0  0  0  0
    8.1201   -1.8087   21.3560 H   0  0  0  0  0  0  0  0  0  0  0  0
  1  2  1  0  0  0  0
  1  3  2  0  0  0  0
  2  6  2  0  0  0  0
  3 11  1  0  0  0  0
  4  7  2  0  0  0  0
  4 12  1  0  0  0  0
  5  8  1  0  0  0  0
  5 12  2  0  0  0  0
  6 14  1  0  0  0  0
  7 15  1  0  0  0  0
  8 15  2  0  0  0  0
  9 13  1  0  0  0  0
  9 24  2  0  0  0  0
 10 13  2  0  0  0  0
 10 27  1  0  0  0  0
 11 14  2  0  0  0  0
 11 16  1  0  0  0  0
 12 23  1  0  0  0  0
 13 21  1  0  0  0  0
 14 26  1  0  0  0  0
 15 28  1  0  0  0  0
 16 25  2  0  0  0  0
 16 29  1  0  0  0  0
 17 22  1  0  0  0  0
 17 28  1  0  0  0  0
 17 30  2  0  0  0  0
 18 23  1  0  0  0  0
 18 29  1  0  0  0  0
 18 31  2  0  0  0  0
 19 22  1  0  0  0  0
 20 27  1  0  0  0  0
 21 23  1  1  0  0  0
 24 27  1  0  0  0  0
 25 26  1  0  0  0  0
  1 32  1  0  0  0  0
  2 33  1  0  0  0  0
  3 34  1  0  0  0  0
  4 35  1  0  0  0  0
  5 36  1  0  0  0  0
  6 37  1  0  0  0  0
  7 38  1  0  0  0  0
  8 39  1  0  0  0  0
  9 40  1  0  0  0  0
 10 41  1  0  0  0  0
 19 42  1  0  0  0  0
 19 43  1  0  0  0  0
 19 44  1  0  0  0  0
 20 45  1  0  0  0  0
 20 46  1  0  0  0  0
 20 47  1  0  0  0  0
 21 48  1  0  0  0  0
 21 49  1  0  0  0  0
 22 50  1  0  0  0  0
 22 51  1  0  0  0  0
 23 52  1  0  0  0  0
 26 53  1  0  0  0  0
 28 54  1  0  0  0  0
 29 55  1  0  0  0  0
M  END
> <clash_score>
0.7804987027490742

> <docking_score>
-6.674008369445801

> <overlap_score>
1.0221208333969116

$$$$
BENZO_237_1
  -OEChem-08222022403D

 48 51  0     1  0  0  0  0  0999 V2000
   14.2623    1.3345   22.9975 C   0  0  0  0  0  0  0  0  0  0  0  0
    4.2970    1.6690   20.8430 C   0  0  0  0  0  0  0  0  0  0  0  0
   13.7729    0.5817   24.0649 C   0  0  0  0  0  0  0  0  0  0  0  0
   13.3767    1.9928   22.1442 C   0  0  0  0  0  0  0  0  0  0  0  0
    4.0980    2.1130   19.5350 C   0  0  0  0  0  0  0  0  0  0  0  0
    5.3360    0.8000   21.1530 C   0  0  0  0  0  0  0  0  0  0  0  0
   12.3978    0.4871   24.2790 C   0  0  0  0  0  0  0  0  0  0  0  0
   12.0016    1.8982   22.3583 C   0  0  0  0  0  0  0  0  0  0  0  0
    8.3310   -2.7170   25.3430 C   0  0  0  0  0  0  0  0  0  0  0  0
   10.2570   -3.5000   24.1350 C   0  0  0  0  0  0  0  0  0  0  0  0
    8.3510   -1.5420   24.6110 C   0  0  0  0  0  0  0  0  0  0  0  0
   10.2760   -2.3270   23.4020 C   0  0  0  0  0  0  0  0  0  0  0  0
    4.9400    1.7060   18.5060 C   0  0  0  0  0  0  0  0  0  0  0  0
    6.1600    0.3870   20.1140 C   0  0  0  0  0  0  0  0  0  0  0  0
    9.2850   -3.7090   25.1090 C   0  0  0  0  0  0  0  0  0  0  0  0
   11.5121    1.1453   23.4257 C   0  0  0  0  0  0  0  0  0  0  0  0
    9.3300   -1.3350   23.6390 C   0  0  0  0  0  0  0  0  0  0  0  0
    5.9810    0.8330   18.8060 C   0  0  0  0  0  0  0  0  0  0  0  0
    7.2210   -0.4620   20.0350 C   0  0  0  0  0  0  0  0  0  0  0  0
    8.9510    0.1280   21.6880 C   0  0  0  0  0  0  0  0  0  0  0  0
    9.2618   -4.9724   25.8910 C   0  0  0  0  0  0  0  0  0  0  0  0
   10.0220    1.0430   23.6570 C   0  0  0  0  0  0  0  0  0  0  0  0
    9.4200   -0.0840   22.9530 C   0  0  1  0  0  0  0  0  0  0  0  0
    7.6830   -0.5170   18.7600 N   0  0  0  0  0  0  0  0  0  0  0  0
    6.9440    0.2550   18.0100 N   0  0  0  0  0  0  0  0  0  0  0  0
    8.0810   -0.9750   21.0820 N   0  0  0  0  0  0  0  0  0  0  0  0
    9.1870    1.1500   21.0630 O   0  0  0  0  0  0  0  0  0  0  0  0
   15.3331    1.4092   22.8317 H   0  0  0  0  0  0  0  0  0  0  0  0
    3.6274    2.0126   21.6300 H   0  0  0  0  0  0  0  0  0  0  0  0
   14.4623    0.0700   24.7300 H   0  0  0  0  0  0  0  0  0  0  0  0
   13.7574    2.5799   21.3138 H   0  0  0  0  0  0  0  0  0  0  0  0
    3.2732    2.7875   19.3199 H   0  0  0  0  0  0  0  0  0  0  0  0
    5.4878    0.4645   22.1722 H   0  0  0  0  0  0  0  0  0  0  0  0
   12.0255   -0.1019   25.1131 H   0  0  0  0  0  0  0  0  0  0  0  0
   11.3191    2.4143   21.6883 H   0  0  0  0  0  0  0  0  0  0  0  0
    7.5655   -2.8644   26.1055 H   0  0  0  0  0  0  0  0  0  0  0  0
   11.0125   -4.2662   23.9435 H   0  0  0  0  0  0  0  0  0  0  0  0
    7.5953   -0.7782   24.7971 H   0  0  0  0  0  0  0  0  0  0  0  0
   11.0394   -2.1837   22.6349 H   0  0  0  0  0  0  0  0  0  0  0  0
    4.7853    2.0674   17.4815 H   0  0  0  0  0  0  0  0  0  0  0  0
    8.6408   -5.7227   25.3864 H   0  0  0  0  0  0  0  0  0  0  0  0
   10.2726   -5.3829   26.0135 H   0  0  0  0  0  0  0  0  0  0  0  0
    8.8606   -4.8102   26.9000 H   0  0  0  0  0  0  0  0  0  0  0  0
    9.8253    0.9889   24.7357 H   0  0  0  0  0  0  0  0  0  0  0  0
    9.5635    1.9845   23.3241 H   0  0  0  0  0  0  0  0  0  0  0  0
    8.1288    0.3205   23.5156 H   0  0  0  0  0  0  0  0  0  0  0  0
    7.1015    0.3608   17.0505 H   0  0  0  0  0  0  0  0  0  0  0  0
    8.1201   -1.8087   21.3560 H   0  0  0  0  0  0  0  0  0  0  0  0
  1  3  1  0  0  0  0
  1  4  2  0  0  0  0
  2  5  1  0  0  0  0
  2  6  2  0  0  0  0
  3  7  2  0  0  0  0
  4  8  1  0  0  0  0
  5 13  2  0  0  0  0
  6 14  1  0  0  0  0
  7 16  1  0  0  0  0
  8 16  2  0  0  0  0
  9 11  2  0  0  0  0
  9 15  1  0  0  0  0
 10 12  1  0  0  0  0
 10 15  2  0  0  0  0
 11 17  1  0  0  0  0
 12 17  2  0  0  0  0
 13 18  1  0  0  0  0
 14 18  2  0  0  0  0
 14 19  1  0  0  0  0
 15 21  1  0  0  0  0
 16 22  1  0  0  0  0
 17 23  1  0  0  0  0
 18 25  1  0  0  0  0
 19 24  2  0  0  0  0
 19 26  1  0  0  0  0
 20 23  1  0  0  0  0
 20 26  1  0  0  0  0
 20 27  2  0  0  0  0
 22 23  1  1  0  0  0
 24 25  1  0  0  0  0
  1 28  1  0  0  0  0
  2 29  1  0  0  0  0
  3 30  1  0  0  0  0
  4 31  1  0  0  0  0
  5 32  1  0  0  0  0
  6 33  1  0  0  0  0
  7 34  1  0  0  0  0
  8 35  1  0  0  0  0
  9 36  1  0  0  0  0
 10 37  1  0  0  0  0
 11 38  1  0  0  0  0
 12 39  1  0  0  0  0
 13 40  1  0  0  0  0
 21 41  1  0  0  0  0
 21 42  1  0  0  0  0
 21 43  1  0  0  0  0
 22 44  1  0  0  0  0
 22 45  1  0  0  0  0
 23 46  1  0  0  0  0
 25 47  1  0  0  0  0
 26 48  1  0  0  0  0
M  END
> <clash_score>
0

> <docking_score>
-7.7294020652771

> <overlap_score>
0.9820054173469543

$$$$
BENZO_237_2
  -OEChem-08222022403D

 48 51  0     1  0  0  0  0  0999 V2000
   13.8295    0.0638   25.4018 C   0  0  0  0  0  0  0  0  0  0  0  0
    4.2970    1.6690   20.8430 C   0  0  0  0  0  0  0  0  0  0  0  0
   12.6583   -0.1175   26.1372 C   0  0  0  0  0  0  0  0  0  0  0  0
   13.7659    0.5627   24.1007 C   0  0  0  0  0  0  0  0  0  0  0  0
    4.0980    2.1130   19.5350 C   0  0  0  0  0  0  0  0  0  0  0  0
    5.3360    0.8000   21.1530 C   0  0  0  0  0  0  0  0  0  0  0  0
   11.4234    0.2001   25.5717 C   0  0  0  0  0  0  0  0  0  0  0  0
   12.5310    0.8802   23.5351 C   0  0  0  0  0  0  0  0  0  0  0  0
    8.3310   -2.7170   25.3430 C   0  0  0  0  0  0  0  0  0  0  0  0
   10.2570   -3.5000   24.1350 C   0  0  0  0  0  0  0  0  0  0  0  0
    8.3510   -1.5420   24.6110 C   0  0  0  0  0  0  0  0  0  0  0  0
   10.2760   -2.3270   23.4020 C   0  0  0  0  0  0  0  0  0  0  0  0
    4.9400    1.7060   18.5060 C   0  0  0  0  0  0  0  0  0  0  0  0
    6.1600    0.3870   20.1140 C   0  0  0  0  0  0  0  0  0  0  0  0
    9.2850   -3.7090   25.1090 C   0  0  0  0  0  0  0  0  0  0  0  0
   11.3598    0.6989   24.2706 C   0  0  0  0  0  0  0  0  0  0  0  0
    9.3300   -1.3350   23.6390 C   0  0  0  0  0  0  0  0  0  0  0  0
    5.9810    0.8330   18.8060 C   0  0  0  0  0  0  0  0  0  0  0  0
    7.2210   -0.4620   20.0350 C   0  0  0  0  0  0  0  0  0  0  0  0
    8.9510    0.1280   21.6880 C   0  0  0  0  0  0  0  0  0  0  0  0
    9.2618   -4.9724   25.8910 C   0  0  0  0  0  0  0  0  0  0  0  0
   10.0220    1.0430   23.6570 C   0  0  0  0  0  0  0  0  0  0  0  0
    9.4200   -0.0840   22.9530 C   0  0  2  0  0  0  0  0  0  0  0  0
    7.6830   -0.5170   18.7600 N   0  0  0  0  0  0  0  0  0  0  0  0
    6.9440    0.2550   18.0100 N   0  0  0  0  0  0  0  0  0  0  0  0
    8.0810   -0.9750   21.0820 N   0  0  0  0  0  0  0  0  0  0  0  0
    9.1870    1.1500   21.0630 O   0  0  0  0  0  0  0  0  0  0  0  0
   14.7910   -0.1822   25.8428 H   0  0  0  0  0  0  0  0  0  0  0  0
    3.6274    2.0126   21.6300 H   0  0  0  0  0  0  0  0  0  0  0  0
   12.7077   -0.5049   27.1507 H   0  0  0  0  0  0  0  0  0  0  0  0
   14.6777    0.7050   23.5282 H   0  0  0  0  0  0  0  0  0  0  0  0
    3.2732    2.7875   19.3199 H   0  0  0  0  0  0  0  0  0  0  0  0
    5.4878    0.4645   22.1722 H   0  0  0  0  0  0  0  0  0  0  0  0
   10.5160    0.0554   26.1521 H   0  0  0  0  0  0  0  0  0  0  0  0
   12.4911    1.2683   22.5207 H   0  0  0  0  0  0  0  0  0  0  0  0
    7.5655   -2.8644   26.1055 H   0  0  0  0  0  0  0  0  0  0  0  0
   11.0125   -4.2662   23.9435 H   0  0  0  0  0  0  0  0  0  0  0  0
    7.5953   -0.7782   24.7971 H   0  0  0  0  0  0  0  0  0  0  0  0
   11.0394   -2.1837   22.6349 H   0  0  0  0  0  0  0  0  0  0  0  0
    4.7853    2.0674   17.4815 H   0  0  0  0  0  0  0  0  0  0  0  0
    8.6408   -5.7227   25.3864 H   0  0  0  0  0  0  0  0  0  0  0  0
   10.2726   -5.3829   26.0135 H   0  0  0  0  0  0  0  0  0  0  0  0
    8.8606   -4.8102   26.9000 H   0  0  0  0  0  0  0  0  0  0  0  0
    9.3529    1.4272   24.4380 H   0  0  0  0  0  0  0  0  0  0  0  0
   10.1743    1.8827   22.9648 H   0  0  0  0  0  0  0  0  0  0  0  0
   10.7346   -0.4307   22.4468 H   0  0  0  0  0  0  0  0  0  0  0  0
    7.1015    0.3608   17.0505 H   0  0  0  0  0  0  0  0  0  0  0  0
    8.1201   -1.8087   21.3560 H   0  0  0  0  0  0  0  0  0  0  0  0
  1  3  1  0  0  0  0
  1  4  2  0  0  0  0
  2  5  1  0  0  0  0
  2  6  2  0  0  0  0
  3  7  2  0  0  0  0
  4  8  1  0  0  0  0
  5 13  2  0  0  0  0
  6 14  1  0  0  0  0
  7 16  1  0  0  0  0
  8 16  2  0  0  0  0
  9 11  2  0  0  0  0
  9 15  1  0  0  0  0
 10 12  1  0  0  0  0
 10 15  2  0  0  0  0
 11 17  1  0  0  0  0
 12 17  2  0  0  0  0
 13 18  1  0  0  0  0
 14 18  2  0  0  0  0
 14 19  1  0  0  0  0
 15 21  1  0  0  0  0
 16 22  1  0  0  0  0
 17 23  1  0  0  0  0
 18 25  1  0  0  0  0
 19 24  2  0  0  0  0
 19 26  1  0  0  0  0
 20 23  1  0  0  0  0
 20 26  1  0  0  0  0
 20 27  2  0  0  0  0
 22 23  1  6  0  0  0
 24 25  1  0  0  0  0
  1 28  1  0  0  0  0
  2 29  1  0  0  0  0
  3 30  1  0  0  0  0
  4 31  1  0  0  0  0
  5 32  1  0  0  0  0
  6 33  1  0  0  0  0
  7 34  1  0  0  0  0
  8 35  1  0  0  0  0
  9 36  1  0  0  0  0
 10 37  1  0  0  0  0
 11 38  1  0  0  0  0
 12 39  1  0  0  0  0
 13 40  1  0  0  0  0
 21 41  1  0  0  0  0
 21 42  1  0  0  0  0
 21 43  1  0  0  0  0
 22 44  1  0  0  0  0
 22 45  1  0  0  0  0
 23 46  1  0  0  0  0
 25 47  1  0  0  0  0
 26 48  1  0  0  0  0
M  END
> <clash_score>
0.6066491253205565

> <docking_score>
-6.791877269744873

> <overlap_score>
0.9039360284805298

$$$$
BENZO_236_1
  -OEChem-08222022403D

 45 48  0     1  0  0  0  0  0999 V2000
    4.2970    1.6690   20.8430 C   0  0  0  0  0  0  0  0  0  0  0  0
    4.0980    2.1130   19.5350 C   0  0  0  0  0  0  0  0  0  0  0  0
    5.3360    0.8000   21.1530 C   0  0  0  0  0  0  0  0  0  0  0  0
    8.3310   -2.7170   25.3430 C   0  0  0  0  0  0  0  0  0  0  0  0
   10.2570   -3.5000   24.1350 C   0  0  0  0  0  0  0  0  0  0  0  0
    8.3510   -1.5420   24.6110 C   0  0  0  0  0  0  0  0  0  0  0  0
   10.2760   -2.3270   23.4020 C   0  0  0  0  0  0  0  0  0  0  0  0
    4.9400    1.7060   18.5060 C   0  0  0  0  0  0  0  0  0  0  0  0
   12.2216    2.3786   23.3498 C   0  0  0  0  0  0  0  0  0  0  0  0
   13.5684    2.1883   23.1319 C   0  0  0  0  0  0  0  0  0  0  0  0
   12.3438    0.0592   23.2626 C   0  0  0  0  0  0  0  0  0  0  0  0
    6.1600    0.3870   20.1140 C   0  0  0  0  0  0  0  0  0  0  0  0
    9.2850   -3.7090   25.1090 C   0  0  0  0  0  0  0  0  0  0  0  0
    9.3300   -1.3350   23.6390 C   0  0  0  0  0  0  0  0  0  0  0  0
   11.5121    1.1453   23.4257 C   0  0  0  0  0  0  0  0  0  0  0  0
    5.9810    0.8330   18.8060 C   0  0  0  0  0  0  0  0  0  0  0  0
    7.2210   -0.4620   20.0350 C   0  0  0  0  0  0  0  0  0  0  0  0
    8.9510    0.1280   21.6880 C   0  0  0  0  0  0  0  0  0  0  0  0
    9.2618   -4.9724   25.8910 C   0  0  0  0  0  0  0  0  0  0  0  0
   10.0220    1.0430   23.6570 C   0  0  0  0  0  0  0  0  0  0  0  0
    9.4200   -0.0840   22.9530 C   0  0  1  0  0  0  0  0  0  0  0  0
    7.6830   -0.5170   18.7600 N   0  0  0  0  0  0  0  0  0  0  0  0
    6.9440    0.2550   18.0100 N   0  0  0  0  0  0  0  0  0  0  0  0
    8.0810   -0.9750   21.0820 N   0  0  0  0  0  0  0  0  0  0  0  0
    9.1870    1.1500   21.0630 O   0  0  0  0  0  0  0  0  0  0  0  0
   13.9727    0.5281   23.0196 S   0  0  0  0  0  0  0  0  0  0  0  0
    3.6274    2.0126   21.6300 H   0  0  0  0  0  0  0  0  0  0  0  0
    3.2732    2.7875   19.3199 H   0  0  0  0  0  0  0  0  0  0  0  0
    5.4878    0.4645   22.1722 H   0  0  0  0  0  0  0  0  0  0  0  0
    7.5655   -2.8644   26.1055 H   0  0  0  0  0  0  0  0  0  0  0  0
   11.0125   -4.2662   23.9435 H   0  0  0  0  0  0  0  0  0  0  0  0
    7.5953   -0.7782   24.7971 H   0  0  0  0  0  0  0  0  0  0  0  0
   11.0394   -2.1837   22.6349 H   0  0  0  0  0  0  0  0  0  0  0  0
    4.7853    2.0674   17.4815 H   0  0  0  0  0  0  0  0  0  0  0  0
   11.7708    3.3580   23.4491 H   0  0  0  0  0  0  0  0  0  0  0  0
   14.3341    2.9446   23.0326 H   0  0  0  0  0  0  0  0  0  0  0  0
   12.0768   -0.9885   23.2727 H   0  0  0  0  0  0  0  0  0  0  0  0
    8.6408   -5.7227   25.3864 H   0  0  0  0  0  0  0  0  0  0  0  0
   10.2726   -5.3829   26.0135 H   0  0  0  0  0  0  0  0  0  0  0  0
    8.8606   -4.8102   26.9000 H   0  0  0  0  0  0  0  0  0  0  0  0
    9.8253    0.9889   24.7357 H   0  0  0  0  0  0  0  0  0  0  0  0
    9.5635    1.9845   23.3241 H   0  0  0  0  0  0  0  0  0  0  0  0
    8.1288    0.3205   23.5156 H   0  0  0  0  0  0  0  0  0  0  0  0
    7.1015    0.3608   17.0505 H   0  0  0  0  0  0  0  0  0  0  0  0
    8.1201   -1.8087   21.3560 H   0  0  0  0  0  0  0  0  0  0  0  0
  1  2  1  0  0  0  0
  1  3  2  0  0  0  0
  2  8  2  0  0  0  0
  3 12  1  0  0  0  0
  4  6  2  0  0  0  0
  4 13  1  0  0  0  0
  5  7  1  0  0  0  0
  5 13  2  0  0  0  0
  6 14  1  0  0  0  0
  7 14  2  0  0  0  0
  8 16  1  0  0  0  0
  9 10  2  0  0  0  0
  9 15  1  0  0  0  0
 10 26  1  0  0  0  0
 11 15  2  0  0  0  0
 11 26  1  0  0  0  0
 12 16  2  0  0  0  0
 12 17  1  0  0  0  0
 13 19  1  0  0  0  0
 14 21  1  0  0  0  0
 15 20  1  0  0  0  0
 16 23  1  0  0  0  0
 17 22  2  0  0  0  0
 17 24  1  0  0  0  0
 18 21  1  0  0  0  0
 18 24  1  0  0  0  0
 18 25  2  0  0  0  0
 20 21  1  1  0  0  0
 22 23  1  0  0  0  0
  1 27  1  0  0  0  0
  2 28  1  0  0  0  0
  3 29  1  0  0  0  0
  4 30  1  0  0  0  0
  5 31  1  0  0  0  0
  6 32  1  0  0  0  0
  7 33  1  0  0  0  0
  8 34  1  0  0  0  0
  9 35  1  0  0  0  0
 10 36  1  0  0  0  0
 11 37  1  0  0  0  0
 19 38  1  0  0  0  0
 19 39  1  0  0  0  0
 19 40  1  0  0  0  0
 20 41  1  0  0  0  0
 20 42  1  0  0  0  0
 21 43  1  0  0  0  0
 23 44  1  0  0  0  0
 24 45  1  0  0  0  0
M  END
> <clash_score>
0

> <docking_score>
-8.625667572021484

> <overlap_score>
0.9693053364753723

$$$$
BENZO_236_2
  -OEChem-08222022403D

 45 48  0     1  0  0  0  0  0999 V2000
    4.2970    1.6690   20.8430 C   0  0  0  0  0  0  0  0  0  0  0  0
    4.0980    2.1130   19.5350 C   0  0  0  0  0  0  0  0  0  0  0  0
    5.3360    0.8000   21.1530 C   0  0  0  0  0  0  0  0  0  0  0  0
    8.3310   -2.7170   25.3430 C   0  0  0  0  0  0  0  0  0  0  0  0
   10.2570   -3.5000   24.1350 C   0  0  0  0  0  0  0  0  0  0  0  0
    8.3510   -1.5420   24.6110 C   0  0  0  0  0  0  0  0  0  0  0  0
   10.2760   -2.3270   23.4020 C   0  0  0  0  0  0  0  0  0  0  0  0
    4.9400    1.7060   18.5060 C   0  0  0  0  0  0  0  0  0  0  0  0
   12.2093   -0.1809   24.3161 C   0  0  0  0  0  0  0  0  0  0  0  0
   13.0091   -0.4299   25.4096 C   0  0  0  0  0  0  0  0  0  0  0  0
   11.0505    0.9396   25.9906 C   0  0  0  0  0  0  0  0  0  0  0  0
    6.1600    0.3870   20.1140 C   0  0  0  0  0  0  0  0  0  0  0  0
    9.2850   -3.7090   25.1090 C   0  0  0  0  0  0  0  0  0  0  0  0
    9.3300   -1.3350   23.6390 C   0  0  0  0  0  0  0  0  0  0  0  0
   11.0747    0.6126   24.6525 C   0  0  0  0  0  0  0  0  0  0  0  0
    5.9810    0.8330   18.8060 C   0  0  0  0  0  0  0  0  0  0  0  0
    7.2210   -0.4620   20.0350 C   0  0  0  0  0  0  0  0  0  0  0  0
    8.9510    0.1280   21.6880 C   0  0  0  0  0  0  0  0  0  0  0  0
    9.2618   -4.9724   25.8910 C   0  0  0  0  0  0  0  0  0  0  0  0
   10.0220    1.0430   23.6570 C   0  0  0  0  0  0  0  0  0  0  0  0
    9.4200   -0.0840   22.9530 C   0  0  2  0  0  0  0  0  0  0  0  0
    7.6830   -0.5170   18.7600 N   0  0  0  0  0  0  0  0  0  0  0  0
    6.9440    0.2550   18.0100 N   0  0  0  0  0  0  0  0  0  0  0  0
    8.0810   -0.9750   21.0820 N   0  0  0  0  0  0  0  0  0  0  0  0
    9.1870    1.1500   21.0630 O   0  0  0  0  0  0  0  0  0  0  0  0
   12.3918    0.2913   26.8348 S   0  0  0  0  0  0  0  0  0  0  0  0
    3.6274    2.0126   21.6300 H   0  0  0  0  0  0  0  0  0  0  0  0
    3.2732    2.7875   19.3199 H   0  0  0  0  0  0  0  0  0  0  0  0
    5.4878    0.4645   22.1722 H   0  0  0  0  0  0  0  0  0  0  0  0
    7.5655   -2.8644   26.1055 H   0  0  0  0  0  0  0  0  0  0  0  0
   11.0125   -4.2662   23.9435 H   0  0  0  0  0  0  0  0  0  0  0  0
    7.5953   -0.7782   24.7971 H   0  0  0  0  0  0  0  0  0  0  0  0
   11.0394   -2.1837   22.6349 H   0  0  0  0  0  0  0  0  0  0  0  0
    4.7853    2.0674   17.4815 H   0  0  0  0  0  0  0  0  0  0  0  0
   12.4311   -0.5526   23.3237 H   0  0  0  0  0  0  0  0  0  0  0  0
   13.9260   -1.0015   25.4400 H   0  0  0  0  0  0  0  0  0  0  0  0
   10.3107    1.5268   26.5170 H   0  0  0  0  0  0  0  0  0  0  0  0
    8.6408   -5.7227   25.3864 H   0  0  0  0  0  0  0  0  0  0  0  0
   10.2726   -5.3829   26.0135 H   0  0  0  0  0  0  0  0  0  0  0  0
    8.8606   -4.8102   26.9000 H   0  0  0  0  0  0  0  0  0  0  0  0
    9.2602    1.6432   24.1714 H   0  0  0  0  0  0  0  0  0  0  0  0
   10.4960    1.7269   22.9392 H   0  0  0  0  0  0  0  0  0  0  0  0
   10.7346   -0.4307   22.4468 H   0  0  0  0  0  0  0  0  0  0  0  0
    7.1015    0.3608   17.0505 H   0  0  0  0  0  0  0  0  0  0  0  0
    8.1201   -1.8087   21.3560 H   0  0  0  0  0  0  0  0  0  0  0  0
  1  2  1  0  0  0  0
  1  3  2  0  0  0  0
  2  8  2  0  0  0  0
  3 12  1  0  0  0  0
  4  6  2  0  0  0  0
  4 13  1  0  0  0  0
  5  7  1  0  0  0  0
  5 13  2  0  0  0  0
  6 14  1  0  0  0  0
  7 14  2  0  0  0  0
  8 16  1  0  0  0  0
  9 10  2  0  0  0  0
  9 15  1  0  0  0  0
 10 26  1  0  0  0  0
 11 15  2  0  0  0  0
 11 26  1  0  0  0  0
 12 16  2  0  0  0  0
 12 17  1  0  0  0  0
 13 19  1  0  0  0  0
 14 21  1  0  0  0  0
 15 20  1  0  0  0  0
 16 23  1  0  0  0  0
 17 22  2  0  0  0  0
 17 24  1  0  0  0  0
 18 21  1  0  0  0  0
 18 24  1  0  0  0  0
 18 25  2  0  0  0  0
 20 21  1  6  0  0  0
 22 23  1  0  0  0  0
  1 27  1  0  0  0  0
  2 28  1  0  0  0  0
  3 29  1  0  0  0  0
  4 30  1  0  0  0  0
  5 31  1  0  0  0  0
  6 32  1  0  0  0  0
  7 33  1  0  0  0  0
  8 34  1  0  0  0  0
  9 35  1  0  0  0  0
 10 36  1  0  0  0  0
 11 37  1  0  0  0  0
 19 38  1  0  0  0  0
 19 39  1  0  0  0  0
 19 40  1  0  0  0  0
 20 41  1  0  0  0  0
 20 42  1  0  0  0  0
 21 43  1  0  0  0  0
 23 44  1  0  0  0  0
 24 45  1  0  0  0  0
M  END
> <clash_score>
0.6203220320127718

> <docking_score>
-5.780511856079102

> <overlap_score>
0.8551724553108215

$$$$
BENZO_235_2
  -OEChem-08222022403D

 60 64  0     1  0  0  0  0  0999 V2000
    4.2970    1.6690   20.8430 C   0  0  0  0  0  0  0  0  0  0  0  0
    4.0980    2.1130   19.5350 C   0  0  0  0  0  0  0  0  0  0  0  0
    5.3360    0.8000   21.1530 C   0  0  0  0  0  0  0  0  0  0  0  0
    8.3510   -1.5420   24.6110 C   0  0  0  0  0  0  0  0  0  0  0  0
   10.2760   -2.3270   23.4020 C   0  0  0  0  0  0  0  0  0  0  0  0
    4.9400    1.7060   18.5060 C   0  0  0  0  0  0  0  0  0  0  0  0
    8.3310   -2.7170   25.3430 C   0  0  0  0  0  0  0  0  0  0  0  0
   10.2570   -3.5000   24.1350 C   0  0  0  0  0  0  0  0  0  0  0  0
   12.6370    0.8478   23.6905 C   0  0  0  0  0  0  0  0  0  0  0  0
   11.6104    0.2289   25.5338 C   0  0  0  0  0  0  0  0  0  0  0  0
    6.1600    0.3870   20.1140 C   0  0  0  0  0  0  0  0  0  0  0  0
    9.3300   -1.3350   23.6390 C   0  0  0  0  0  0  0  0  0  0  0  0
   11.3626    0.7172   24.2742 C   0  0  0  0  0  0  0  0  0  0  0  0
    5.9810    0.8330   18.8060 C   0  0  0  0  0  0  0  0  0  0  0  0
    9.2850   -3.7090   25.1090 C   0  0  0  0  0  0  0  0  0  0  0  0
    7.2210   -0.4620   20.0350 C   0  0  0  0  0  0  0  0  0  0  0  0
    8.9510    0.1280   21.6880 C   0  0  0  0  0  0  0  0  0  0  0  0
    7.3211   -6.8875   26.5227 C   0  0  0  0  0  0  0  0  0  0  0  0
    7.3523   -5.5278   27.2244 C   0  0  0  0  0  0  0  0  0  0  0  0
    7.9422   -6.8107   25.1261 C   0  0  0  0  0  0  0  0  0  0  0  0
    8.7641   -4.9418   27.2163 C   0  0  0  0  0  0  0  0  0  0  0  0
    9.3411   -6.1879   25.1670 C   0  0  0  0  0  0  0  0  0  0  0  0
   13.7059   -0.3763   26.7673 C   0  0  0  0  0  0  0  0  0  0  0  0
   10.0220    1.0430   23.6570 C   0  0  0  0  0  0  0  0  0  0  0  0
    9.4200   -0.0840   22.9530 C   0  0  2  0  0  0  0  0  0  0  0  0
   13.6213    0.4729   24.5118 N   0  0  0  0  0  0  0  0  0  0  0  0
    7.6830   -0.5170   18.7600 N   0  0  0  0  0  0  0  0  0  0  0  0
    6.9440    0.2550   18.0100 N   0  0  0  0  0  0  0  0  0  0  0  0
   12.9653    0.1020   25.6246 N   0  0  0  0  0  0  0  0  0  0  0  0
    9.2641   -4.8861   25.8398 N   0  0  0  0  0  0  0  0  0  0  0  0
    8.0810   -0.9750   21.0820 N   0  0  0  0  0  0  0  0  0  0  0  0
    9.1870    1.1500   21.0630 O   0  0  0  0  0  0  0  0  0  0  0  0
    3.6274    2.0126   21.6300 H   0  0  0  0  0  0  0  0  0  0  0  0
    3.2732    2.7875   19.3199 H   0  0  0  0  0  0  0  0  0  0  0  0
    5.4878    0.4645   22.1722 H   0  0  0  0  0  0  0  0  0  0  0  0
    7.5957   -0.7779   24.7973 H   0  0  0  0  0  0  0  0  0  0  0  0
   11.0384   -2.1852   22.6338 H   0  0  0  0  0  0  0  0  0  0  0  0
    4.7853    2.0674   17.4815 H   0  0  0  0  0  0  0  0  0  0  0  0
    7.5634   -2.8637   26.1037 H   0  0  0  0  0  0  0  0  0  0  0  0
   11.0139   -4.2645   23.9419 H   0  0  0  0  0  0  0  0  0  0  0  0
   12.8920    1.2011   22.7014 H   0  0  0  0  0  0  0  0  0  0  0  0
   10.9544   -0.0314   26.3534 H   0  0  0  0  0  0  0  0  0  0  0  0
    7.8644   -7.6283   27.1289 H   0  0  0  0  0  0  0  0  0  0  0  0
    6.2830   -7.2423   26.4478 H   0  0  0  0  0  0  0  0  0  0  0  0
    6.6663   -4.8405   26.7221 H   0  0  0  0  0  0  0  0  0  0  0  0
    7.0062   -5.6400   28.2540 H   0  0  0  0  0  0  0  0  0  0  0  0
    8.0018   -7.8160   24.6962 H   0  0  0  0  0  0  0  0  0  0  0  0
    7.2963   -6.2182   24.4678 H   0  0  0  0  0  0  0  0  0  0  0  0
    8.7322   -3.9404   27.6532 H   0  0  0  0  0  0  0  0  0  0  0  0
    9.4260   -5.5610   27.8283 H   0  0  0  0  0  0  0  0  0  0  0  0
   10.0249   -6.8474   25.7028 H   0  0  0  0  0  0  0  0  0  0  0  0
    9.7015   -6.0700   24.1446 H   0  0  0  0  0  0  0  0  0  0  0  0
   13.8123   -1.4600   26.6708 H   0  0  0  0  0  0  0  0  0  0  0  0
   14.6882    0.1037   26.7915 H   0  0  0  0  0  0  0  0  0  0  0  0
   13.1616   -0.1244   27.6818 H   0  0  0  0  0  0  0  0  0  0  0  0
    9.3482    1.4259   24.4346 H   0  0  0  0  0  0  0  0  0  0  0  0
   10.1663    1.8792   22.9588 H   0  0  0  0  0  0  0  0  0  0  0  0
   10.7366   -0.4277   22.4442 H   0  0  0  0  0  0  0  0  0  0  0  0
    7.1015    0.3608   17.0505 H   0  0  0  0  0  0  0  0  0  0  0  0
    8.1354   -1.7990   21.3694 H   0  0  0  0  0  0  0  0  0  0  0  0
  1  2  1  0  0  0  0
  1  3  2  0  0  0  0
  2  6  2  0  0  0  0
  3 11  1  0  0  0  0
  4  7  2  0  0  0  0
  4 12  1  0  0  0  0
  5  8  1  0  0  0  0
  5 12  2  0  0  0  0
  6 14  1  0  0  0  0
  7 15  1  0  0  0  0
  8 15  2  0  0  0  0
  9 13  1  0  0  0  0
  9 26  2  0  0  0  0
 10 13  2  0  0  0  0
 10 29  1  0  0  0  0
 11 14  2  0  0  0  0
 11 16  1  0  0  0  0
 12 25  1  0  0  0  0
 13 24  1  0  0  0  0
 14 28  1  0  0  0  0
 15 30  1  0  0  0  0
 16 27  2  0  0  0  0
 16 31  1  0  0  0  0
 17 25  1  0  0  0  0
 17 31  1  0  0  0  0
 17 32  2  0  0  0  0
 18 19  1  0  0  0  0
 18 20  1  0  0  0  0
 19 21  1  0  0  0  0
 20 22  1  0  0  0  0
 21 30  1  0  0  0  0
 22 30  1  0  0  0  0
 23 29  1  0  0  0  0
 24 25  1  6  0  0  0
 26 29  1  0  0  0  0
 27 28  1  0  0  0  0
  1 33  1  0  0  0  0
  2 34  1  0  0  0  0
  3 35  1  0  0  0  0
  4 36  1  0  0  0  0
  5 37  1  0  0  0  0
  6 38  1  0  0  0  0
  7 39  1  0  0  0  0
  8 40  1  0  0  0  0
  9 41  1  0  0  0  0
 10 42  1  0  0  0  0
 18 43  1  0  0  0  0
 18 44  1  0  0  0  0
 19 45  1  0  0  0  0
 19 46  1  0  0  0  0
 20 47  1  0  0  0  0
 20 48  1  0  0  0  0
 21 49  1  0  0  0  0
 21 50  1  0  0  0  0
 22 51  1  0  0  0  0
 22 52  1  0  0  0  0
 23 53  1  0  0  0  0
 23 54  1  0  0  0  0
 23 55  1  0  0  0  0
 24 56  1  0  0  0  0
 24 57  1  0  0  0  0
 25 58  1  0  0  0  0
 28 59  1  0  0  0  0
 31 60  1  0  0  0  0
M  END
> <clash_score>
0.7348697102430726

> <docking_score>
-5.6621246337890625

> <overlap_score>
0.9397954344749451

$$$$
BENZO_235_1
  -OEChem-08222022403D

 60 64  0     1  0  0  0  0  0999 V2000
    4.2970    1.6690   20.8430 C   0  0  0  0  0  0  0  0  0  0  0  0
    4.0980    2.1130   19.5350 C   0  0  0  0  0  0  0  0  0  0  0  0
    5.3360    0.8000   21.1530 C   0  0  0  0  0  0  0  0  0  0  0  0
    8.3510   -1.5420   24.6110 C   0  0  0  0  0  0  0  0  0  0  0  0
   10.2760   -2.3270   23.4020 C   0  0  0  0  0  0  0  0  0  0  0  0
    4.9400    1.7060   18.5060 C   0  0  0  0  0  0  0  0  0  0  0  0
    8.3310   -2.7170   25.3430 C   0  0  0  0  0  0  0  0  0  0  0  0
   10.2570   -3.5000   24.1350 C   0  0  0  0  0  0  0  0  0  0  0  0
   12.2990    2.3261   23.4416 C   0  0  0  0  0  0  0  0  0  0  0  0
   12.4071    0.1434   23.1984 C   0  0  0  0  0  0  0  0  0  0  0  0
    6.1600    0.3870   20.1140 C   0  0  0  0  0  0  0  0  0  0  0  0
    9.3300   -1.3350   23.6390 C   0  0  0  0  0  0  0  0  0  0  0  0
   11.5133    1.1580   23.4397 C   0  0  0  0  0  0  0  0  0  0  0  0
    5.9810    0.8330   18.8060 C   0  0  0  0  0  0  0  0  0  0  0  0
    9.2850   -3.7090   25.1090 C   0  0  0  0  0  0  0  0  0  0  0  0
    7.2210   -0.4620   20.0350 C   0  0  0  0  0  0  0  0  0  0  0  0
    8.9510    0.1280   21.6880 C   0  0  0  0  0  0  0  0  0  0  0  0
    7.3211   -6.8875   26.5227 C   0  0  0  0  0  0  0  0  0  0  0  0
    7.3523   -5.5278   27.2244 C   0  0  0  0  0  0  0  0  0  0  0  0
    7.9422   -6.8107   25.1261 C   0  0  0  0  0  0  0  0  0  0  0  0
    8.7641   -4.9418   27.2163 C   0  0  0  0  0  0  0  0  0  0  0  0
    9.3411   -6.1879   25.1670 C   0  0  0  0  0  0  0  0  0  0  0  0
   14.8827    0.0809   22.8160 C   0  0  0  0  0  0  0  0  0  0  0  0
   10.0220    1.0430   23.6570 C   0  0  0  0  0  0  0  0  0  0  0  0
    9.4200   -0.0840   22.9530 C   0  0  1  0  0  0  0  0  0  0  0  0
   13.5924    2.0779   23.2193 N   0  0  0  0  0  0  0  0  0  0  0  0
    7.6830   -0.5170   18.7600 N   0  0  0  0  0  0  0  0  0  0  0  0
    6.9440    0.2550   18.0100 N   0  0  0  0  0  0  0  0  0  0  0  0
   13.6264    0.7422   23.0755 N   0  0  0  0  0  0  0  0  0  0  0  0
    9.2641   -4.8861   25.8398 N   0  0  0  0  0  0  0  0  0  0  0  0
    8.0810   -0.9750   21.0820 N   0  0  0  0  0  0  0  0  0  0  0  0
    9.1870    1.1500   21.0630 O   0  0  0  0  0  0  0  0  0  0  0  0
    3.6274    2.0126   21.6300 H   0  0  0  0  0  0  0  0  0  0  0  0
    3.2732    2.7875   19.3199 H   0  0  0  0  0  0  0  0  0  0  0  0
    5.4878    0.4645   22.1722 H   0  0  0  0  0  0  0  0  0  0  0  0
    7.5957   -0.7779   24.7973 H   0  0  0  0  0  0  0  0  0  0  0  0
   11.0384   -2.1852   22.6338 H   0  0  0  0  0  0  0  0  0  0  0  0
    4.7853    2.0674   17.4815 H   0  0  0  0  0  0  0  0  0  0  0  0
    7.5634   -2.8637   26.1037 H   0  0  0  0  0  0  0  0  0  0  0  0
   11.0139   -4.2645   23.9419 H   0  0  0  0  0  0  0  0  0  0  0  0
   11.9854    3.3488   23.5963 H   0  0  0  0  0  0  0  0  0  0  0  0
   12.2827   -0.9271   23.1072 H   0  0  0  0  0  0  0  0  0  0  0  0
    7.8644   -7.6283   27.1289 H   0  0  0  0  0  0  0  0  0  0  0  0
    6.2830   -7.2423   26.4478 H   0  0  0  0  0  0  0  0  0  0  0  0
    6.6663   -4.8405   26.7221 H   0  0  0  0  0  0  0  0  0  0  0  0
    7.0062   -5.6400   28.2540 H   0  0  0  0  0  0  0  0  0  0  0  0
    8.0018   -7.8160   24.6962 H   0  0  0  0  0  0  0  0  0  0  0  0
    7.2963   -6.2182   24.4678 H   0  0  0  0  0  0  0  0  0  0  0  0
    8.7322   -3.9404   27.6532 H   0  0  0  0  0  0  0  0  0  0  0  0
    9.4260   -5.5610   27.8283 H   0  0  0  0  0  0  0  0  0  0  0  0
   10.0249   -6.8474   25.7028 H   0  0  0  0  0  0  0  0  0  0  0  0
    9.7015   -6.0700   24.1446 H   0  0  0  0  0  0  0  0  0  0  0  0
   15.0211    0.0327   21.7327 H   0  0  0  0  0  0  0  0  0  0  0  0
   15.6949    0.6471   23.2804 H   0  0  0  0  0  0  0  0  0  0  0  0
   14.8569   -0.9250   23.2444 H   0  0  0  0  0  0  0  0  0  0  0  0
    9.8155    0.9894   24.7339 H   0  0  0  0  0  0  0  0  0  0  0  0
    9.5584    1.9798   23.3178 H   0  0  0  0  0  0  0  0  0  0  0  0
    8.1278    0.3254   23.5142 H   0  0  0  0  0  0  0  0  0  0  0  0
    7.1015    0.3608   17.0505 H   0  0  0  0  0  0  0  0  0  0  0  0
    8.1354   -1.7990   21.3694 H   0  0  0  0  0  0  0  0  0  0  0  0
  1  2  1  0  0  0  0
  1  3  2  0  0  0  0
  2  6  2  0  0  0  0
  3 11  1  0  0  0  0
  4  7  2  0  0  0  0
  4 12  1  0  0  0  0
  5  8  1  0  0  0  0
  5 12  2  0  0  0  0
  6 14  1  0  0  0  0
  7 15  1  0  0  0  0
  8 15  2  0  0  0  0
  9 13  1  0  0  0  0
  9 26  2  0  0  0  0
 10 13  2  0  0  0  0
 10 29  1  0  0  0  0
 11 14  2  0  0  0  0
 11 16  1  0  0  0  0
 12 25  1  0  0  0  0
 13 24  1  0  0  0  0
 14 28  1  0  0  0  0
 15 30  1  0  0  0  0
 16 27  2  0  0  0  0
 16 31  1  0  0  0  0
 17 25  1  0  0  0  0
 17 31  1  0  0  0  0
 17 32  2  0  0  0  0
 18 19  1  0  0  0  0
 18 20  1  0  0  0  0
 19 21  1  0  0  0  0
 20 22  1  0  0  0  0
 21 30  1  0  0  0  0
 22 30  1  0  0  0  0
 23 29  1  0  0  0  0
 24 25  1  1  0  0  0
 26 29  1  0  0  0  0
 27 28  1  0  0  0  0
  1 33  1  0  0  0  0
  2 34  1  0  0  0  0
  3 35  1  0  0  0  0
  4 36  1  0  0  0  0
  5 37  1  0  0  0  0
  6 38  1  0  0  0  0
  7 39  1  0  0  0  0
  8 40  1  0  0  0  0
  9 41  1  0  0  0  0
 10 42  1  0  0  0  0
 18 43  1  0  0  0  0
 18 44  1  0  0  0  0
 19 45  1  0  0  0  0
 19 46  1  0  0  0  0
 20 47  1  0  0  0  0
 20 48  1  0  0  0  0
 21 49  1  0  0  0  0
 21 50  1  0  0  0  0
 22 51  1  0  0  0  0
 22 52  1  0  0  0  0
 23 53  1  0  0  0  0
 23 54  1  0  0  0  0
 23 55  1  0  0  0  0
 24 56  1  0  0  0  0
 24 57  1  0  0  0  0
 25 58  1  0  0  0  0
 28 59  1  0  0  0  0
 31 60  1  0  0  0  0
M  END
> <clash_score>
0

> <docking_score>
-7.483460426330566

> <overlap_score>
1.0275722742080688

$$$$
BENZO_234_2
  -OEChem-08222022403D

 60 64  0     1  0  0  0  0  0999 V2000
    4.2970    1.6690   20.8430 C   0  0  0  0  0  0  0  0  0  0  0  0
    4.0980    2.1130   19.5350 C   0  0  0  0  0  0  0  0  0  0  0  0
   13.7717    0.6100   24.1003 C   0  0  0  0  0  0  0  0  0  0  0  0
    5.3360    0.8000   21.1530 C   0  0  0  0  0  0  0  0  0  0  0  0
   12.3953    0.5053   24.3009 C   0  0  0  0  0  0  0  0  0  0  0  0
    8.3510   -1.5420   24.6110 C   0  0  0  0  0  0  0  0  0  0  0  0
   10.2760   -2.3270   23.4020 C   0  0  0  0  0  0  0  0  0  0  0  0
    4.9400    1.7060   18.5060 C   0  0  0  0  0  0  0  0  0  0  0  0
    8.3310   -2.7170   25.3430 C   0  0  0  0  0  0  0  0  0  0  0  0
   10.2570   -3.5000   24.1350 C   0  0  0  0  0  0  0  0  0  0  0  0
   14.2661    1.3676   23.0385 C   0  0  0  0  0  0  0  0  0  0  0  0
   12.0077    1.9155   22.3779 C   0  0  0  0  0  0  0  0  0  0  0  0
    6.1600    0.3870   20.1140 C   0  0  0  0  0  0  0  0  0  0  0  0
    9.3300   -1.3350   23.6390 C   0  0  0  0  0  0  0  0  0  0  0  0
   11.5133    1.1580   23.4397 C   0  0  0  0  0  0  0  0  0  0  0  0
    5.9810    0.8330   18.8060 C   0  0  0  0  0  0  0  0  0  0  0  0
    9.2850   -3.7090   25.1090 C   0  0  0  0  0  0  0  0  0  0  0  0
   13.3841    2.0203   22.1773 C   0  0  0  0  0  0  0  0  0  0  0  0
    7.2210   -0.4620   20.0350 C   0  0  0  0  0  0  0  0  0  0  0  0
    8.9510    0.1280   21.6880 C   0  0  0  0  0  0  0  0  0  0  0  0
    7.3211   -6.8875   26.5227 C   0  0  0  0  0  0  0  0  0  0  0  0
    7.3523   -5.5278   27.2244 C   0  0  0  0  0  0  0  0  0  0  0  0
    7.9422   -6.8107   25.1261 C   0  0  0  0  0  0  0  0  0  0  0  0
    8.7641   -4.9418   27.2163 C   0  0  0  0  0  0  0  0  0  0  0  0
    9.3411   -6.1879   25.1670 C   0  0  0  0  0  0  0  0  0  0  0  0
   10.0220    1.0430   23.6570 C   0  0  0  0  0  0  0  0  0  0  0  0
    9.4200   -0.0840   22.9530 C   0  0  2  0  0  0  0  0  0  0  0  0
    7.6830   -0.5170   18.7600 N   0  0  0  0  0  0  0  0  0  0  0  0
    6.9440    0.2550   18.0100 N   0  0  0  0  0  0  0  0  0  0  0  0
    9.2641   -4.8861   25.8398 N   0  0  0  0  0  0  0  0  0  0  0  0
    8.0810   -0.9750   21.0820 N   0  0  0  0  0  0  0  0  0  0  0  0
    9.1870    1.1500   21.0630 O   0  0  0  0  0  0  0  0  0  0  0  0
   13.9946    2.9539   20.8668 Cl  0  0  0  0  0  0  0  0  0  0  0  0
    3.6274    2.0126   21.6300 H   0  0  0  0  0  0  0  0  0  0  0  0
    3.2732    2.7875   19.3199 H   0  0  0  0  0  0  0  0  0  0  0  0
   14.4581    0.1015   24.7710 H   0  0  0  0  0  0  0  0  0  0  0  0
    5.4878    0.4645   22.1722 H   0  0  0  0  0  0  0  0  0  0  0  0
   12.0190   -0.0873   25.1307 H   0  0  0  0  0  0  0  0  0  0  0  0
    7.5957   -0.7779   24.7973 H   0  0  0  0  0  0  0  0  0  0  0  0
   11.0384   -2.1852   22.6338 H   0  0  0  0  0  0  0  0  0  0  0  0
    4.7853    2.0674   17.4815 H   0  0  0  0  0  0  0  0  0  0  0  0
    7.5634   -2.8637   26.1037 H   0  0  0  0  0  0  0  0  0  0  0  0
   11.0139   -4.2645   23.9419 H   0  0  0  0  0  0  0  0  0  0  0  0
   15.3412    1.4401   22.8941 H   0  0  0  0  0  0  0  0  0  0  0  0
   11.3159    2.4230   21.7095 H   0  0  0  0  0  0  0  0  0  0  0  0
    7.8644   -7.6283   27.1289 H   0  0  0  0  0  0  0  0  0  0  0  0
    6.2830   -7.2423   26.4478 H   0  0  0  0  0  0  0  0  0  0  0  0
    6.6663   -4.8405   26.7221 H   0  0  0  0  0  0  0  0  0  0  0  0
    7.0062   -5.6400   28.2540 H   0  0  0  0  0  0  0  0  0  0  0  0
    8.0018   -7.8160   24.6962 H   0  0  0  0  0  0  0  0  0  0  0  0
    7.2963   -6.2182   24.4678 H   0  0  0  0  0  0  0  0  0  0  0  0
    8.7322   -3.9404   27.6532 H   0  0  0  0  0  0  0  0  0  0  0  0
    9.4260   -5.5610   27.8283 H   0  0  0  0  0  0  0  0  0  0  0  0
   10.0249   -6.8474   25.7028 H   0  0  0  0  0  0  0  0  0  0  0  0
    9.7015   -6.0700   24.1446 H   0  0  0  0  0  0  0  0  0  0  0  0
    9.8155    0.9894   24.7339 H   0  0  0  0  0  0  0  0  0  0  0  0
    9.5584    1.9798   23.3178 H   0  0  0  0  0  0  0  0  0  0  0  0
    8.1278    0.3254   23.5142 H   0  0  0  0  0  0  0  0  0  0  0  0
    7.1015    0.3608   17.0505 H   0  0  0  0  0  0  0  0  0  0  0  0
    8.1354   -1.7990   21.3694 H   0  0  0  0  0  0  0  0  0  0  0  0
  1  2  1  0  0  0  0
  1  4  2  0  0  0  0
  2  8  2  0  0  0  0
  3  5  2  0  0  0  0
  3 11  1  0  0  0  0
  4 13  1  0  0  0  0
  5 15  1  0  0  0  0
  6  9  2  0  0  0  0
  6 14  1  0  0  0  0
  7 10  1  0  0  0  0
  7 14  2  0  0  0  0
  8 16  1  0  0  0  0
  9 17  1  0  0  0  0
 10 17  2  0  0  0  0
 11 18  2  0  0  0  0
 12 15  2  0  0  0  0
 12 18  1  0  0  0  0
 13 16  2  0  0  0  0
 13 19  1  0  0  0  0
 14 27  1  0  0  0  0
 15 26  1  0  0  0  0
 16 29  1  0  0  0  0
 17 30  1  0  0  0  0
 18 33  1  0  0  0  0
 19 28  2  0  0  0  0
 19 31  1  0  0  0  0
 20 27  1  6  0  0  0
 20 31  1  0  0  0  0
 20 32  2  0  0  0  0
 21 22  1  0  0  0  0
 21 23  1  0  0  0  0
 22 24  1  0  0  0  0
 23 25  1  0  0  0  0
 24 30  1  0  0  0  0
 25 30  1  0  0  0  0
 26 27  1  0  0  0  0
 28 29  1  0  0  0  0
  1 34  1  0  0  0  0
  2 35  1  0  0  0  0
  3 36  1  0  0  0  0
  4 37  1  0  0  0  0
  5 38  1  0  0  0  0
  6 39  1  0  0  0  0
  7 40  1  0  0  0  0
  8 41  1  0  0  0  0
  9 42  1  0  0  0  0
 10 43  1  0  0  0  0
 11 44  1  0  0  0  0
 12 45  1  0  0  0  0
 21 46  1  0  0  0  0
 21 47  1  0  0  0  0
 22 48  1  0  0  0  0
 22 49  1  0  0  0  0
 23 50  1  0  0  0  0
 23 51  1  0  0  0  0
 24 52  1  0  0  0  0
 24 53  1  0  0  0  0
 25 54  1  0  0  0  0
 25 55  1  0  0  0  0
 26 56  1  0  0  0  0
 26 57  1  0  0  0  0
 27 58  1  0  0  0  0
 29 59  1  0  0  0  0
 31 60  1  0  0  0  0
M  END
> <clash_score>
0

> <docking_score>
-5.917950630187988

> <overlap_score>
1.0287415981292725

$$$$
BENZO_234_1
  -OEChem-08222022403D

 60 64  0     1  0  0  0  0  0999 V2000
    4.2970    1.6690   20.8430 C   0  0  0  0  0  0  0  0  0  0  0  0
    4.0980    2.1130   19.5350 C   0  0  0  0  0  0  0  0  0  0  0  0
   13.7706    0.6102   24.1095 C   0  0  0  0  0  0  0  0  0  0  0  0
    5.3360    0.8000   21.1530 C   0  0  0  0  0  0  0  0  0  0  0  0
   12.5330    0.9096   23.5401 C   0  0  0  0  0  0  0  0  0  0  0  0
    8.3510   -1.5420   24.6110 C   0  0  0  0  0  0  0  0  0  0  0  0
   10.2760   -2.3270   23.4020 C   0  0  0  0  0  0  0  0  0  0  0  0
    4.9400    1.7060   18.5060 C   0  0  0  0  0  0  0  0  0  0  0  0
    8.3310   -2.7170   25.3430 C   0  0  0  0  0  0  0  0  0  0  0  0
   10.2570   -3.5000   24.1350 C   0  0  0  0  0  0  0  0  0  0  0  0
   13.8379    0.1183   25.4130 C   0  0  0  0  0  0  0  0  0  0  0  0
   11.4299    0.2253   25.5778 C   0  0  0  0  0  0  0  0  0  0  0  0
    6.1600    0.3870   20.1140 C   0  0  0  0  0  0  0  0  0  0  0  0
    9.3300   -1.3350   23.6390 C   0  0  0  0  0  0  0  0  0  0  0  0
   11.3626    0.7172   24.2742 C   0  0  0  0  0  0  0  0  0  0  0  0
    5.9810    0.8330   18.8060 C   0  0  0  0  0  0  0  0  0  0  0  0
    9.2850   -3.7090   25.1090 C   0  0  0  0  0  0  0  0  0  0  0  0
   12.6676   -0.0742   26.1471 C   0  0  0  0  0  0  0  0  0  0  0  0
    7.2210   -0.4620   20.0350 C   0  0  0  0  0  0  0  0  0  0  0  0
    8.9510    0.1280   21.6880 C   0  0  0  0  0  0  0  0  0  0  0  0
    7.3211   -6.8875   26.5227 C   0  0  0  0  0  0  0  0  0  0  0  0
    7.3523   -5.5278   27.2244 C   0  0  0  0  0  0  0  0  0  0  0  0
    7.9422   -6.8107   25.1261 C   0  0  0  0  0  0  0  0  0  0  0  0
    8.7641   -4.9418   27.2163 C   0  0  0  0  0  0  0  0  0  0  0  0
    9.3411   -6.1879   25.1670 C   0  0  0  0  0  0  0  0  0  0  0  0
   10.0220    1.0430   23.6570 C   0  0  0  0  0  0  0  0  0  0  0  0
    9.4200   -0.0840   22.9530 C   0  0  1  0  0  0  0  0  0  0  0  0
    7.6830   -0.5170   18.7600 N   0  0  0  0  0  0  0  0  0  0  0  0
    6.9440    0.2550   18.0100 N   0  0  0  0  0  0  0  0  0  0  0  0
    9.2641   -4.8861   25.8398 N   0  0  0  0  0  0  0  0  0  0  0  0
    8.0810   -0.9750   21.0820 N   0  0  0  0  0  0  0  0  0  0  0  0
    9.1870    1.1500   21.0630 O   0  0  0  0  0  0  0  0  0  0  0  0
   12.7514   -0.6800   27.7558 Cl  0  0  0  0  0  0  0  0  0  0  0  0
    3.6274    2.0126   21.6300 H   0  0  0  0  0  0  0  0  0  0  0  0
    3.2732    2.7875   19.3199 H   0  0  0  0  0  0  0  0  0  0  0  0
   14.6817    0.7603   23.5375 H   0  0  0  0  0  0  0  0  0  0  0  0
    5.4878    0.4645   22.1722 H   0  0  0  0  0  0  0  0  0  0  0  0
   12.4900    1.2926   22.5238 H   0  0  0  0  0  0  0  0  0  0  0  0
    7.5957   -0.7779   24.7973 H   0  0  0  0  0  0  0  0  0  0  0  0
   11.0384   -2.1852   22.6338 H   0  0  0  0  0  0  0  0  0  0  0  0
    4.7853    2.0674   17.4815 H   0  0  0  0  0  0  0  0  0  0  0  0
    7.5634   -2.8637   26.1037 H   0  0  0  0  0  0  0  0  0  0  0  0
   11.0139   -4.2645   23.9419 H   0  0  0  0  0  0  0  0  0  0  0  0
   14.8095   -0.1105   25.8440 H   0  0  0  0  0  0  0  0  0  0  0  0
   10.5146    0.0765   26.1458 H   0  0  0  0  0  0  0  0  0  0  0  0
    7.8644   -7.6283   27.1289 H   0  0  0  0  0  0  0  0  0  0  0  0
    6.2830   -7.2423   26.4478 H   0  0  0  0  0  0  0  0  0  0  0  0
    6.6663   -4.8405   26.7221 H   0  0  0  0  0  0  0  0  0  0  0  0
    7.0062   -5.6400   28.2540 H   0  0  0  0  0  0  0  0  0  0  0  0
    8.0018   -7.8160   24.6962 H   0  0  0  0  0  0  0  0  0  0  0  0
    7.2963   -6.2182   24.4678 H   0  0  0  0  0  0  0  0  0  0  0  0
    8.7322   -3.9404   27.6532 H   0  0  0  0  0  0  0  0  0  0  0  0
    9.4260   -5.5610   27.8283 H   0  0  0  0  0  0  0  0  0  0  0  0
   10.0249   -6.8474   25.7028 H   0  0  0  0  0  0  0  0  0  0  0  0
    9.7015   -6.0700   24.1446 H   0  0  0  0  0  0  0  0  0  0  0  0
    9.3482    1.4259   24.4346 H   0  0  0  0  0  0  0  0  0  0  0  0
   10.1663    1.8792   22.9588 H   0  0  0  0  0  0  0  0  0  0  0  0
   10.7366   -0.4277   22.4442 H   0  0  0  0  0  0  0  0  0  0  0  0
    7.1015    0.3608   17.0505 H   0  0  0  0  0  0  0  0  0  0  0  0
    8.1354   -1.7990   21.3694 H   0  0  0  0  0  0  0  0  0  0  0  0
  1  2  1  0  0  0  0
  1  4  2  0  0  0  0
  2  8  2  0  0  0  0
  3  5  2  0  0  0  0
  3 11  1  0  0  0  0
  4 13  1  0  0  0  0
  5 15  1  0  0  0  0
  6  9  2  0  0  0  0
  6 14  1  0  0  0  0
  7 10  1  0  0  0  0
  7 14  2  0  0  0  0
  8 16  1  0  0  0  0
  9 17  1  0  0  0  0
 10 17  2  0  0  0  0
 11 18  2  0  0  0  0
 12 15  2  0  0  0  0
 12 18  1  0  0  0  0
 13 16  2  0  0  0  0
 13 19  1  0  0  0  0
 14 27  1  0  0  0  0
 15 26  1  0  0  0  0
 16 29  1  0  0  0  0
 17 30  1  0  0  0  0
 18 33  1  0  0  0  0
 19 28  2  0  0  0  0
 19 31  1  0  0  0  0
 20 27  1  1  0  0  0
 20 31  1  0  0  0  0
 20 32  2  0  0  0  0
 21 22  1  0  0  0  0
 21 23  1  0  0  0  0
 22 24  1  0  0  0  0
 23 25  1  0  0  0  0
 24 30  1  0  0  0  0
 25 30  1  0  0  0  0
 26 27  1  0  0  0  0
 28 29  1  0  0  0  0
  1 34  1  0  0  0  0
  2 35  1  0  0  0  0
  3 36  1  0  0  0  0
  4 37  1  0  0  0  0
  5 38  1  0  0  0  0
  6 39  1  0  0  0  0
  7 40  1  0  0  0  0
  8 41  1  0  0  0  0
  9 42  1  0  0  0  0
 10 43  1  0  0  0  0
 11 44  1  0  0  0  0
 12 45  1  0  0  0  0
 21 46  1  0  0  0  0
 21 47  1  0  0  0  0
 22 48  1  0  0  0  0
 22 49  1  0  0  0  0
 23 50  1  0  0  0  0
 23 51  1  0  0  0  0
 24 52  1  0  0  0  0
 24 53  1  0  0  0  0
 25 54  1  0  0  0  0
 25 55  1  0  0  0  0
 26 56  1  0  0  0  0
 26 57  1  0  0  0  0
 27 58  1  0  0  0  0
 29 59  1  0  0  0  0
 31 60  1  0  0  0  0
M  END
> <clash_score>
1.5650085706569739

> <docking_score>
-4.899506568908691

> <overlap_score>
0.9471225738525391

$$$$
BENZO_238_1
  -OEChem-08222022403D

 48 51  0     1  0  0  0  0  0999 V2000
    4.2970    1.6690   20.8430 C   0  0  0  0  0  0  0  0  0  0  0  0
    4.0980    2.1130   19.5350 C   0  0  0  0  0  0  0  0  0  0  0  0
   13.7719    0.5789   24.0657 C   0  0  0  0  0  0  0  0  0  0  0  0
    5.3360    0.8000   21.1530 C   0  0  0  0  0  0  0  0  0  0  0  0
   12.3966    0.4859   24.2792 C   0  0  0  0  0  0  0  0  0  0  0  0
    8.3310   -2.7170   25.3430 C   0  0  0  0  0  0  0  0  0  0  0  0
   10.2570   -3.5000   24.1350 C   0  0  0  0  0  0  0  0  0  0  0  0
    8.3510   -1.5420   24.6110 C   0  0  0  0  0  0  0  0  0  0  0  0
   10.2760   -2.3270   23.4020 C   0  0  0  0  0  0  0  0  0  0  0  0
    4.9400    1.7060   18.5060 C   0  0  0  0  0  0  0  0  0  0  0  0
   14.2627    1.3315   22.9987 C   0  0  0  0  0  0  0  0  0  0  0  0
   12.0029    1.8978   22.3587 C   0  0  0  0  0  0  0  0  0  0  0  0
    6.1600    0.3870   20.1140 C   0  0  0  0  0  0  0  0  0  0  0  0
    9.2850   -3.7090   25.1090 C   0  0  0  0  0  0  0  0  0  0  0  0
    9.3300   -1.3350   23.6390 C   0  0  0  0  0  0  0  0  0  0  0  0
   11.5121    1.1453   23.4257 C   0  0  0  0  0  0  0  0  0  0  0  0
    5.9810    0.8330   18.8060 C   0  0  0  0  0  0  0  0  0  0  0  0
   13.3782    1.9909   22.1452 C   0  0  0  0  0  0  0  0  0  0  0  0
    7.2210   -0.4620   20.0350 C   0  0  0  0  0  0  0  0  0  0  0  0
    8.9510    0.1280   21.6880 C   0  0  0  0  0  0  0  0  0  0  0  0
    9.2618   -4.9724   25.8910 C   0  0  0  0  0  0  0  0  0  0  0  0
   10.0220    1.0430   23.6570 C   0  0  0  0  0  0  0  0  0  0  0  0
    9.4200   -0.0840   22.9530 C   0  0  1  0  0  0  0  0  0  0  0  0
    7.6830   -0.5170   18.7600 N   0  0  0  0  0  0  0  0  0  0  0  0
    6.9440    0.2550   18.0100 N   0  0  0  0  0  0  0  0  0  0  0  0
    8.0810   -0.9750   21.0820 N   0  0  0  0  0  0  0  0  0  0  0  0
    9.1870    1.1500   21.0630 O   0  0  0  0  0  0  0  0  0  0  0  0
   13.9843    2.9183   20.8282 Cl  0  0  0  0  0  0  0  0  0  0  0  0
    3.6274    2.0126   21.6300 H   0  0  0  0  0  0  0  0  0  0  0  0
    3.2732    2.7875   19.3199 H   0  0  0  0  0  0  0  0  0  0  0  0
   14.4603    0.0652   24.7304 H   0  0  0  0  0  0  0  0  0  0  0  0
    5.4878    0.4645   22.1722 H   0  0  0  0  0  0  0  0  0  0  0  0
   12.0231   -0.1028   25.1130 H   0  0  0  0  0  0  0  0  0  0  0  0
    7.5655   -2.8644   26.1055 H   0  0  0  0  0  0  0  0  0  0  0  0
   11.0125   -4.2662   23.9435 H   0  0  0  0  0  0  0  0  0  0  0  0
    7.5953   -0.7782   24.7971 H   0  0  0  0  0  0  0  0  0  0  0  0
   11.0394   -2.1837   22.6349 H   0  0  0  0  0  0  0  0  0  0  0  0
    4.7853    2.0674   17.4815 H   0  0  0  0  0  0  0  0  0  0  0  0
   15.3370    1.3949   22.8442 H   0  0  0  0  0  0  0  0  0  0  0  0
   11.3092    2.4105   21.6963 H   0  0  0  0  0  0  0  0  0  0  0  0
    8.6408   -5.7227   25.3864 H   0  0  0  0  0  0  0  0  0  0  0  0
   10.2726   -5.3829   26.0135 H   0  0  0  0  0  0  0  0  0  0  0  0
    8.8606   -4.8102   26.9000 H   0  0  0  0  0  0  0  0  0  0  0  0
    9.8253    0.9889   24.7357 H   0  0  0  0  0  0  0  0  0  0  0  0
    9.5635    1.9845   23.3241 H   0  0  0  0  0  0  0  0  0  0  0  0
    8.1288    0.3205   23.5156 H   0  0  0  0  0  0  0  0  0  0  0  0
    7.1015    0.3608   17.0505 H   0  0  0  0  0  0  0  0  0  0  0  0
    8.1201   -1.8087   21.3560 H   0  0  0  0  0  0  0  0  0  0  0  0
  1  2  1  0  0  0  0
  1  4  2  0  0  0  0
  2 10  2  0  0  0  0
  3  5  2  0  0  0  0
  3 11  1  0  0  0  0
  4 13  1  0  0  0  0
  5 16  1  0  0  0  0
  6  8  2  0  0  0  0
  6 14  1  0  0  0  0
  7  9  1  0  0  0  0
  7 14  2  0  0  0  0
  8 15  1  0  0  0  0
  9 15  2  0  0  0  0
 10 17  1  0  0  0  0
 11 18  2  0  0  0  0
 12 16  2  0  0  0  0
 12 18  1  0  0  0  0
 13 17  2  0  0  0  0
 13 19  1  0  0  0  0
 14 21  1  0  0  0  0
 15 23  1  0  0  0  0
 16 22  1  0  0  0  0
 17 25  1  0  0  0  0
 18 28  1  0  0  0  0
 19 24  2  0  0  0  0
 19 26  1  0  0  0  0
 20 23  1  0  0  0  0
 20 26  1  0  0  0  0
 20 27  2  0  0  0  0
 22 23  1  1  0  0  0
 24 25  1  0  0  0  0
  1 29  1  0  0  0  0
  2 30  1  0  0  0  0
  3 31  1  0  0  0  0
  4 32  1  0  0  0  0
  5 33  1  0  0  0  0
  6 34  1  0  0  0  0
  7 35  1  0  0  0  0
  8 36  1  0  0  0  0
  9 37  1  0  0  0  0
 10 38  1  0  0  0  0
 11 39  1  0  0  0  0
 12 40  1  0  0  0  0
 21 41  1  0  0  0  0
 21 42  1  0  0  0  0
 21 43  1  0  0  0  0
 22 44  1  0  0  0  0
 22 45  1  0  0  0  0
 23 46  1  0  0  0  0
 25 47  1  0  0  0  0
 26 48  1  0  0  0  0
M  END
> <clash_score>
0

> <docking_score>
-6.870364665985107

> <overlap_score>
0.9851461052894592

$$$$
BENZO_238_2
  -OEChem-08222022403D

 48 51  0     1  0  0  0  0  0999 V2000
    4.2970    1.6690   20.8430 C   0  0  0  0  0  0  0  0  0  0  0  0
    4.0980    2.1130   19.5350 C   0  0  0  0  0  0  0  0  0  0  0  0
   12.6560   -0.1194   26.1379 C   0  0  0  0  0  0  0  0  0  0  0  0
    5.3360    0.8000   21.1530 C   0  0  0  0  0  0  0  0  0  0  0  0
   11.4219    0.1994   25.5714 C   0  0  0  0  0  0  0  0  0  0  0  0
    8.3310   -2.7170   25.3430 C   0  0  0  0  0  0  0  0  0  0  0  0
   10.2570   -3.5000   24.1350 C   0  0  0  0  0  0  0  0  0  0  0  0
    8.3510   -1.5420   24.6110 C   0  0  0  0  0  0  0  0  0  0  0  0
   10.2760   -2.3270   23.4020 C   0  0  0  0  0  0  0  0  0  0  0  0
    4.9400    1.7060   18.5060 C   0  0  0  0  0  0  0  0  0  0  0  0
   13.8281    0.0614   25.4035 C   0  0  0  0  0  0  0  0  0  0  0  0
   12.5318    0.8798   23.5362 C   0  0  0  0  0  0  0  0  0  0  0  0
    6.1600    0.3870   20.1140 C   0  0  0  0  0  0  0  0  0  0  0  0
    9.2850   -3.7090   25.1090 C   0  0  0  0  0  0  0  0  0  0  0  0
    9.3300   -1.3350   23.6390 C   0  0  0  0  0  0  0  0  0  0  0  0
   11.3598    0.6989   24.2706 C   0  0  0  0  0  0  0  0  0  0  0  0
    5.9810    0.8330   18.8060 C   0  0  0  0  0  0  0  0  0  0  0  0
   13.7660    0.5610   24.1027 C   0  0  0  0  0  0  0  0  0  0  0  0
    7.2210   -0.4620   20.0350 C   0  0  0  0  0  0  0  0  0  0  0  0
    8.9510    0.1280   21.6880 C   0  0  0  0  0  0  0  0  0  0  0  0
    9.2618   -4.9724   25.8910 C   0  0  0  0  0  0  0  0  0  0  0  0
   10.0220    1.0430   23.6570 C   0  0  0  0  0  0  0  0  0  0  0  0
    9.4200   -0.0840   22.9530 C   0  0  2  0  0  0  0  0  0  0  0  0
    7.6830   -0.5170   18.7600 N   0  0  0  0  0  0  0  0  0  0  0  0
    6.9440    0.2550   18.0100 N   0  0  0  0  0  0  0  0  0  0  0  0
    8.0810   -0.9750   21.0820 N   0  0  0  0  0  0  0  0  0  0  0  0
    9.1870    1.1500   21.0630 O   0  0  0  0  0  0  0  0  0  0  0  0
   15.2122    0.7829   23.1967 Cl  0  0  0  0  0  0  0  0  0  0  0  0
    3.6274    2.0126   21.6300 H   0  0  0  0  0  0  0  0  0  0  0  0
    3.2732    2.7875   19.3199 H   0  0  0  0  0  0  0  0  0  0  0  0
   12.7039   -0.5086   27.1508 H   0  0  0  0  0  0  0  0  0  0  0  0
    5.4878    0.4645   22.1722 H   0  0  0  0  0  0  0  0  0  0  0  0
   10.5137    0.0551   26.1509 H   0  0  0  0  0  0  0  0  0  0  0  0
    7.5655   -2.8644   26.1055 H   0  0  0  0  0  0  0  0  0  0  0  0
   11.0125   -4.2662   23.9435 H   0  0  0  0  0  0  0  0  0  0  0  0
    7.5953   -0.7782   24.7971 H   0  0  0  0  0  0  0  0  0  0  0  0
   11.0394   -2.1837   22.6349 H   0  0  0  0  0  0  0  0  0  0  0  0
    4.7853    2.0674   17.4815 H   0  0  0  0  0  0  0  0  0  0  0  0
   14.7829   -0.1916   25.8577 H   0  0  0  0  0  0  0  0  0  0  0  0
   12.4781    1.2701   22.5225 H   0  0  0  0  0  0  0  0  0  0  0  0
    8.6408   -5.7227   25.3864 H   0  0  0  0  0  0  0  0  0  0  0  0
   10.2726   -5.3829   26.0135 H   0  0  0  0  0  0  0  0  0  0  0  0
    8.8606   -4.8102   26.9000 H   0  0  0  0  0  0  0  0  0  0  0  0
    9.3529    1.4272   24.4380 H   0  0  0  0  0  0  0  0  0  0  0  0
   10.1743    1.8827   22.9648 H   0  0  0  0  0  0  0  0  0  0  0  0
   10.7346   -0.4307   22.4468 H   0  0  0  0  0  0  0  0  0  0  0  0
    7.1015    0.3608   17.0505 H   0  0  0  0  0  0  0  0  0  0  0  0
    8.1201   -1.8087   21.3560 H   0  0  0  0  0  0  0  0  0  0  0  0
  1  2  1  0  0  0  0
  1  4  2  0  0  0  0
  2 10  2  0  0  0  0
  3  5  2  0  0  0  0
  3 11  1  0  0  0  0
  4 13  1  0  0  0  0
  5 16  1  0  0  0  0
  6  8  2  0  0  0  0
  6 14  1  0  0  0  0
  7  9  1  0  0  0  0
  7 14  2  0  0  0  0
  8 15  1  0  0  0  0
  9 15  2  0  0  0  0
 10 17  1  0  0  0  0
 11 18  2  0  0  0  0
 12 16  2  0  0  0  0
 12 18  1  0  0  0  0
 13 17  2  0  0  0  0
 13 19  1  0  0  0  0
 14 21  1  0  0  0  0
 15 23  1  0  0  0  0
 16 22  1  0  0  0  0
 17 25  1  0  0  0  0
 18 28  1  0  0  0  0
 19 24  2  0  0  0  0
 19 26  1  0  0  0  0
 20 23  1  0  0  0  0
 20 26  1  0  0  0  0
 20 27  2  0  0  0  0
 22 23  1  6  0  0  0
 24 25  1  0  0  0  0
  1 29  1  0  0  0  0
  2 30  1  0  0  0  0
  3 31  1  0  0  0  0
  4 32  1  0  0  0  0
  5 33  1  0  0  0  0
  6 34  1  0  0  0  0
  7 35  1  0  0  0  0
  8 36  1  0  0  0  0
  9 37  1  0  0  0  0
 10 38  1  0  0  0  0
 11 39  1  0  0  0  0
 12 40  1  0  0  0  0
 21 41  1  0  0  0  0
 21 42  1  0  0  0  0
 21 43  1  0  0  0  0
 22 44  1  0  0  0  0
 22 45  1  0  0  0  0
 23 46  1  0  0  0  0
 25 47  1  0  0  0  0
 26 48  1  0  0  0  0
M  END
> <clash_score>
0.6070870017027318

> <docking_score>
-5.864427089691162

> <overlap_score>
0.9131933450698853

$$$$
BENZO_239_1
  -OEChem-08222022403D

 48 51  0     1  0  0  0  0  0999 V2000
    4.2970    1.6690   20.8430 C   0  0  0  0  0  0  0  0  0  0  0  0
    4.0980    2.1130   19.5350 C   0  0  0  0  0  0  0  0  0  0  0  0
    5.3360    0.8000   21.1530 C   0  0  0  0  0  0  0  0  0  0  0  0
    8.3310   -2.7170   25.3430 C   0  0  0  0  0  0  0  0  0  0  0  0
   10.2570   -3.5000   24.1350 C   0  0  0  0  0  0  0  0  0  0  0  0
    8.3510   -1.5420   24.6110 C   0  0  0  0  0  0  0  0  0  0  0  0
   10.2760   -2.3270   23.4020 C   0  0  0  0  0  0  0  0  0  0  0  0
    4.9400    1.7060   18.5060 C   0  0  0  0  0  0  0  0  0  0  0  0
   12.3075    2.3068   23.4193 C   0  0  0  0  0  0  0  0  0  0  0  0
   12.3951    0.1231   23.1770 C   0  0  0  0  0  0  0  0  0  0  0  0
    6.1600    0.3870   20.1140 C   0  0  0  0  0  0  0  0  0  0  0  0
    9.2850   -3.7090   25.1090 C   0  0  0  0  0  0  0  0  0  0  0  0
    9.3300   -1.3350   23.6390 C   0  0  0  0  0  0  0  0  0  0  0  0
   11.5121    1.1453   23.4257 C   0  0  0  0  0  0  0  0  0  0  0  0
    5.9810    0.8330   18.8060 C   0  0  0  0  0  0  0  0  0  0  0  0
    7.2210   -0.4620   20.0350 C   0  0  0  0  0  0  0  0  0  0  0  0
    8.9510    0.1280   21.6880 C   0  0  0  0  0  0  0  0  0  0  0  0
    9.2618   -4.9724   25.8910 C   0  0  0  0  0  0  0  0  0  0  0  0
   14.8664    0.0395   22.7716 C   0  0  0  0  0  0  0  0  0  0  0  0
   10.0220    1.0430   23.6570 C   0  0  0  0  0  0  0  0  0  0  0  0
    9.4200   -0.0840   22.9530 C   0  0  1  0  0  0  0  0  0  0  0  0
   13.5967    2.0476   23.1851 N   0  0  0  0  0  0  0  0  0  0  0  0
    7.6830   -0.5170   18.7600 N   0  0  0  0  0  0  0  0  0  0  0  0
    6.9440    0.2550   18.0100 N   0  0  0  0  0  0  0  0  0  0  0  0
   13.6181    0.7115   23.0422 N   0  0  0  0  0  0  0  0  0  0  0  0
    8.0810   -0.9750   21.0820 N   0  0  0  0  0  0  0  0  0  0  0  0
    9.1870    1.1500   21.0630 O   0  0  0  0  0  0  0  0  0  0  0  0
    3.6274    2.0126   21.6300 H   0  0  0  0  0  0  0  0  0  0  0  0
    3.2732    2.7875   19.3199 H   0  0  0  0  0  0  0  0  0  0  0  0
    5.4878    0.4645   22.1722 H   0  0  0  0  0  0  0  0  0  0  0  0
    7.5655   -2.8644   26.1055 H   0  0  0  0  0  0  0  0  0  0  0  0
   11.0125   -4.2662   23.9435 H   0  0  0  0  0  0  0  0  0  0  0  0
    7.5953   -0.7782   24.7971 H   0  0  0  0  0  0  0  0  0  0  0  0
   11.0394   -2.1837   22.6349 H   0  0  0  0  0  0  0  0  0  0  0  0
    4.7853    2.0674   17.4815 H   0  0  0  0  0  0  0  0  0  0  0  0
   12.0040    3.3322   23.5761 H   0  0  0  0  0  0  0  0  0  0  0  0
   12.2609   -0.9465   23.0878 H   0  0  0  0  0  0  0  0  0  0  0  0
    8.6408   -5.7227   25.3864 H   0  0  0  0  0  0  0  0  0  0  0  0
   10.2726   -5.3829   26.0135 H   0  0  0  0  0  0  0  0  0  0  0  0
    8.8606   -4.8102   26.9000 H   0  0  0  0  0  0  0  0  0  0  0  0
   14.9942   -0.0107   21.6871 H   0  0  0  0  0  0  0  0  0  0  0  0
   15.6877    0.5992   23.2278 H   0  0  0  0  0  0  0  0  0  0  0  0
   14.8362   -0.9658   23.2010 H   0  0  0  0  0  0  0  0  0  0  0  0
    9.8253    0.9889   24.7357 H   0  0  0  0  0  0  0  0  0  0  0  0
    9.5635    1.9845   23.3241 H   0  0  0  0  0  0  0  0  0  0  0  0
    8.1288    0.3205   23.5156 H   0  0  0  0  0  0  0  0  0  0  0  0
    7.1015    0.3608   17.0505 H   0  0  0  0  0  0  0  0  0  0  0  0
    8.1201   -1.8087   21.3560 H   0  0  0  0  0  0  0  0  0  0  0  0
  1  2  1  0  0  0  0
  1  3  2  0  0  0  0
  2  8  2  0  0  0  0
  3 11  1  0  0  0  0
  4  6  2  0  0  0  0
  4 12  1  0  0  0  0
  5  7  1  0  0  0  0
  5 12  2  0  0  0  0
  6 13  1  0  0  0  0
  7 13  2  0  0  0  0
  8 15  1  0  0  0  0
  9 14  1  0  0  0  0
  9 22  2  0  0  0  0
 10 14  2  0  0  0  0
 10 25  1  0  0  0  0
 11 15  2  0  0  0  0
 11 16  1  0  0  0  0
 12 18  1  0  0  0  0
 13 21  1  0  0  0  0
 14 20  1  0  0  0  0
 15 24  1  0  0  0  0
 16 23  2  0  0  0  0
 16 26  1  0  0  0  0
 17 21  1  0  0  0  0
 17 26  1  0  0  0  0
 17 27  2  0  0  0  0
 19 25  1  0  0  0  0
 20 21  1  1  0  0  0
 22 25  1  0  0  0  0
 23 24  1  0  0  0  0
  1 28  1  0  0  0  0
  2 29  1  0  0  0  0
  3 30  1  0  0  0  0
  4 31  1  0  0  0  0
  5 32  1  0  0  0  0
  6 33  1  0  0  0  0
  7 34  1  0  0  0  0
  8 35  1  0  0  0  0
  9 36  1  0  0  0  0
 10 37  1  0  0  0  0
 18 38  1  0  0  0  0
 18 39  1  0  0  0  0
 18 40  1  0  0  0  0
 19 41  1  0  0  0  0
 19 42  1  0  0  0  0
 19 43  1  0  0  0  0
 20 44  1  0  0  0  0
 20 45  1  0  0  0  0
 21 46  1  0  0  0  0
 24 47  1  0  0  0  0
 26 48  1  0  0  0  0
M  END
> <clash_score>
0

> <docking_score>
-8.521021842956543

> <overlap_score>
0.9840735197067261

$$$$
BENZO_239_2
  -OEChem-08222022403D

 48 51  0     1  0  0  0  0  0999 V2000
    4.2970    1.6690   20.8430 C   0  0  0  0  0  0  0  0  0  0  0  0
    4.0980    2.1130   19.5350 C   0  0  0  0  0  0  0  0  0  0  0  0
    5.3360    0.8000   21.1530 C   0  0  0  0  0  0  0  0  0  0  0  0
    8.3310   -2.7170   25.3430 C   0  0  0  0  0  0  0  0  0  0  0  0
   10.2570   -3.5000   24.1350 C   0  0  0  0  0  0  0  0  0  0  0  0
    8.3510   -1.5420   24.6110 C   0  0  0  0  0  0  0  0  0  0  0  0
   10.2760   -2.3270   23.4020 C   0  0  0  0  0  0  0  0  0  0  0  0
    4.9400    1.7060   18.5060 C   0  0  0  0  0  0  0  0  0  0  0  0
   10.9173    2.8198   21.9486 C   0  0  0  0  0  0  0  0  0  0  0  0
   12.4283    1.4668   22.7978 C   0  0  0  0  0  0  0  0  0  0  0  0
    6.1600    0.3870   20.1140 C   0  0  0  0  0  0  0  0  0  0  0  0
    9.2850   -3.7090   25.1090 C   0  0  0  0  0  0  0  0  0  0  0  0
    9.3300   -1.3350   23.6390 C   0  0  0  0  0  0  0  0  0  0  0  0
   11.0832    1.7414   22.8382 C   0  0  0  0  0  0  0  0  0  0  0  0
    5.9810    0.8330   18.8060 C   0  0  0  0  0  0  0  0  0  0  0  0
    7.2210   -0.4620   20.0350 C   0  0  0  0  0  0  0  0  0  0  0  0
    8.9510    0.1280   21.6880 C   0  0  0  0  0  0  0  0  0  0  0  0
    9.2618   -4.9724   25.8910 C   0  0  0  0  0  0  0  0  0  0  0  0
   14.3557    2.4668   21.5472 C   0  0  0  0  0  0  0  0  0  0  0  0
   10.0220    1.0430   23.6570 C   0  0  0  0  0  0  0  0  0  0  0  0
    9.4200   -0.0840   22.9530 C   0  0  2  0  0  0  0  0  0  0  0  0
   12.0654    3.2041   21.3845 N   0  0  0  0  0  0  0  0  0  0  0  0
    7.6830   -0.5170   18.7600 N   0  0  0  0  0  0  0  0  0  0  0  0
    6.9440    0.2550   18.0100 N   0  0  0  0  0  0  0  0  0  0  0  0
   12.9656    2.3627   21.9209 N   0  0  0  0  0  0  0  0  0  0  0  0
    8.0810   -0.9750   21.0820 N   0  0  0  0  0  0  0  0  0  0  0  0
    9.1870    1.1500   21.0630 O   0  0  0  0  0  0  0  0  0  0  0  0
    3.6274    2.0126   21.6300 H   0  0  0  0  0  0  0  0  0  0  0  0
    3.2732    2.7875   19.3199 H   0  0  0  0  0  0  0  0  0  0  0  0
    5.4878    0.4645   22.1722 H   0  0  0  0  0  0  0  0  0  0  0  0
    7.5655   -2.8644   26.1055 H   0  0  0  0  0  0  0  0  0  0  0  0
   11.0125   -4.2662   23.9435 H   0  0  0  0  0  0  0  0  0  0  0  0
    7.5953   -0.7782   24.7971 H   0  0  0  0  0  0  0  0  0  0  0  0
   11.0394   -2.1837   22.6349 H   0  0  0  0  0  0  0  0  0  0  0  0
    4.7853    2.0674   17.4815 H   0  0  0  0  0  0  0  0  0  0  0  0
   10.0090    3.3439   21.6870 H   0  0  0  0  0  0  0  0  0  0  0  0
   13.0342    0.7293   23.3067 H   0  0  0  0  0  0  0  0  0  0  0  0
    8.6408   -5.7227   25.3864 H   0  0  0  0  0  0  0  0  0  0  0  0
   10.2726   -5.3829   26.0135 H   0  0  0  0  0  0  0  0  0  0  0  0
    8.8606   -4.8102   26.9000 H   0  0  0  0  0  0  0  0  0  0  0  0
   14.5208    1.8229   20.6793 H   0  0  0  0  0  0  0  0  0  0  0  0
   14.5900    3.5064   21.3020 H   0  0  0  0  0  0  0  0  0  0  0  0
   14.9803    2.1472   22.3860 H   0  0  0  0  0  0  0  0  0  0  0  0
   10.4530    0.7282   24.6164 H   0  0  0  0  0  0  0  0  0  0  0  0
    9.2514    1.7835   23.9128 H   0  0  0  0  0  0  0  0  0  0  0  0
   10.7346   -0.4307   22.4468 H   0  0  0  0  0  0  0  0  0  0  0  0
    7.1015    0.3608   17.0505 H   0  0  0  0  0  0  0  0  0  0  0  0
    8.1201   -1.8087   21.3560 H   0  0  0  0  0  0  0  0  0  0  0  0
  1  2  1  0  0  0  0
  1  3  2  0  0  0  0
  2  8  2  0  0  0  0
  3 11  1  0  0  0  0
  4  6  2  0  0  0  0
  4 12  1  0  0  0  0
  5  7  1  0  0  0  0
  5 12  2  0  0  0  0
  6 13  1  0  0  0  0
  7 13  2  0  0  0  0
  8 15  1  0  0  0  0
  9 14  1  0  0  0  0
  9 22  2  0  0  0  0
 10 14  2  0  0  0  0
 10 25  1  0  0  0  0
 11 15  2  0  0  0  0
 11 16  1  0  0  0  0
 12 18  1  0  0  0  0
 13 21  1  0  0  0  0
 14 20  1  0  0  0  0
 15 24  1  0  0  0  0
 16 23  2  0  0  0  0
 16 26  1  0  0  0  0
 17 21  1  0  0  0  0
 17 26  1  0  0  0  0
 17 27  2  0  0  0  0
 19 25  1  0  0  0  0
 20 21  1  6  0  0  0
 22 25  1  0  0  0  0
 23 24  1  0  0  0  0
  1 28  1  0  0  0  0
  2 29  1  0  0  0  0
  3 30  1  0  0  0  0
  4 31  1  0  0  0  0
  5 32  1  0  0  0  0
  6 33  1  0  0  0  0
  7 34  1  0  0  0  0
  8 35  1  0  0  0  0
  9 36  1  0  0  0  0
 10 37  1  0  0  0  0
 18 38  1  0  0  0  0
 18 39  1  0  0  0  0
 18 40  1  0  0  0  0
 19 41  1  0  0  0  0
 19 42  1  0  0  0  0
 19 43  1  0  0  0  0
 20 44  1  0  0  0  0
 20 45  1  0  0  0  0
 21 46  1  0  0  0  0
 24 47  1  0  0  0  0
 26 48  1  0  0  0  0
M  END
> <clash_score>
0

> <docking_score>
-6.461736679077148

> <overlap_score>
0.9399560689926147

$$$$
BENZO_241_2
  -OEChem-08222022403D

 49 52  0     1  0  0  0  0  0999 V2000
   13.8295    0.0638   25.4018 C   0  0  0  0  0  0  0  0  0  0  0  0
    4.2970    1.6690   20.8430 C   0  0  0  0  0  0  0  0  0  0  0  0
   12.6583   -0.1175   26.1372 C   0  0  0  0  0  0  0  0  0  0  0  0
   13.7659    0.5627   24.1007 C   0  0  0  0  0  0  0  0  0  0  0  0
    4.0980    2.1130   19.5350 C   0  0  0  0  0  0  0  0  0  0  0  0
    5.3360    0.8000   21.1530 C   0  0  0  0  0  0  0  0  0  0  0  0
   11.4234    0.2001   25.5717 C   0  0  0  0  0  0  0  0  0  0  0  0
   12.5310    0.8802   23.5351 C   0  0  0  0  0  0  0  0  0  0  0  0
    8.3510   -1.5420   24.6110 C   0  0  0  0  0  0  0  0  0  0  0  0
   10.2760   -2.3270   23.4020 C   0  0  0  0  0  0  0  0  0  0  0  0
    4.9400    1.7060   18.5060 C   0  0  0  0  0  0  0  0  0  0  0  0
    8.3310   -2.7170   25.3430 C   0  0  0  0  0  0  0  0  0  0  0  0
   10.2570   -3.5000   24.1350 C   0  0  0  0  0  0  0  0  0  0  0  0
    6.1600    0.3870   20.1140 C   0  0  0  0  0  0  0  0  0  0  0  0
   11.3598    0.6989   24.2706 C   0  0  0  0  0  0  0  0  0  0  0  0
    9.3300   -1.3350   23.6390 C   0  0  0  0  0  0  0  0  0  0  0  0
    5.9810    0.8330   18.8060 C   0  0  0  0  0  0  0  0  0  0  0  0
    9.2850   -3.7090   25.1090 C   0  0  0  0  0  0  0  0  0  0  0  0
    7.2210   -0.4620   20.0350 C   0  0  0  0  0  0  0  0  0  0  0  0
    8.9510    0.1280   21.6880 C   0  0  0  0  0  0  0  0  0  0  0  0
    8.2361   -4.9968   26.8044 C   0  0  0  0  0  0  0  0  0  0  0  0
   10.0220    1.0430   23.6570 C   0  0  0  0  0  0  0  0  0  0  0  0
    9.4200   -0.0840   22.9530 C   0  0  2  0  0  0  0  0  0  0  0  0
    7.6830   -0.5170   18.7600 N   0  0  0  0  0  0  0  0  0  0  0  0
    6.9440    0.2550   18.0100 N   0  0  0  0  0  0  0  0  0  0  0  0
    8.0810   -0.9750   21.0820 N   0  0  0  0  0  0  0  0  0  0  0  0
    9.1870    1.1500   21.0630 O   0  0  0  0  0  0  0  0  0  0  0  0
    9.2637   -4.8607   25.8240 O   0  0  0  0  0  0  0  0  0  0  0  0
   14.7910   -0.1822   25.8428 H   0  0  0  0  0  0  0  0  0  0  0  0
    3.6274    2.0126   21.6300 H   0  0  0  0  0  0  0  0  0  0  0  0
   12.7077   -0.5049   27.1507 H   0  0  0  0  0  0  0  0  0  0  0  0
   14.6777    0.7050   23.5282 H   0  0  0  0  0  0  0  0  0  0  0  0
    3.2732    2.7875   19.3199 H   0  0  0  0  0  0  0  0  0  0  0  0
    5.4878    0.4645   22.1722 H   0  0  0  0  0  0  0  0  0  0  0  0
   10.5160    0.0554   26.1521 H   0  0  0  0  0  0  0  0  0  0  0  0
   12.4911    1.2683   22.5207 H   0  0  0  0  0  0  0  0  0  0  0  0
    7.5962   -0.7776   24.7980 H   0  0  0  0  0  0  0  0  0  0  0  0
   11.0395   -2.1844   22.6346 H   0  0  0  0  0  0  0  0  0  0  0  0
    4.7853    2.0674   17.4815 H   0  0  0  0  0  0  0  0  0  0  0  0
    7.5664   -2.8672   26.1058 H   0  0  0  0  0  0  0  0  0  0  0  0
   11.0120   -4.2666   23.9463 H   0  0  0  0  0  0  0  0  0  0  0  0
    8.3330   -5.9643   27.3030 H   0  0  0  0  0  0  0  0  0  0  0  0
    7.2584   -4.9198   26.3219 H   0  0  0  0  0  0  0  0  0  0  0  0
    8.3402   -4.1974   27.5418 H   0  0  0  0  0  0  0  0  0  0  0  0
    9.3529    1.4272   24.4380 H   0  0  0  0  0  0  0  0  0  0  0  0
   10.1743    1.8827   22.9648 H   0  0  0  0  0  0  0  0  0  0  0  0
   10.7346   -0.4307   22.4468 H   0  0  0  0  0  0  0  0  0  0  0  0
    7.1015    0.3608   17.0505 H   0  0  0  0  0  0  0  0  0  0  0  0
    8.1201   -1.8087   21.3560 H   0  0  0  0  0  0  0  0  0  0  0  0
  1  3  1  0  0  0  0
  1  4  2  0  0  0  0
  2  5  1  0  0  0  0
  2  6  2  0  0  0  0
  3  7  2  0  0  0  0
  4  8  1  0  0  0  0
  5 11  2  0  0  0  0
  6 14  1  0  0  0  0
  7 15  1  0  0  0  0
  8 15  2  0  0  0  0
  9 12  2  0  0  0  0
  9 16  1  0  0  0  0
 10 13  1  0  0  0  0
 10 16  2  0  0  0  0
 11 17  1  0  0  0  0
 12 18  1  0  0  0  0
 13 18  2  0  0  0  0
 14 17  2  0  0  0  0
 14 19  1  0  0  0  0
 15 22  1  0  0  0  0
 16 23  1  0  0  0  0
 17 25  1  0  0  0  0
 18 28  1  0  0  0  0
 19 24  2  0  0  0  0
 19 26  1  0  0  0  0
 20 23  1  0  0  0  0
 20 26  1  0  0  0  0
 20 27  2  0  0  0  0
 21 28  1  0  0  0  0
 22 23  1  6  0  0  0
 24 25  1  0  0  0  0
  1 29  1  0  0  0  0
  2 30  1  0  0  0  0
  3 31  1  0  0  0  0
  4 32  1  0  0  0  0
  5 33  1  0  0  0  0
  6 34  1  0  0  0  0
  7 35  1  0  0  0  0
  8 36  1  0  0  0  0
  9 37  1  0  0  0  0
 10 38  1  0  0  0  0
 11 39  1  0  0  0  0
 12 40  1  0  0  0  0
 13 41  1  0  0  0  0
 21 42  1  0  0  0  0
 21 43  1  0  0  0  0
 21 44  1  0  0  0  0
 22 45  1  0  0  0  0
 22 46  1  0  0  0  0
 23 47  1  0  0  0  0
 25 48  1  0  0  0  0
 26 49  1  0  0  0  0
M  END
> <clash_score>
0.6066491253205565

> <docking_score>
-6.500317573547363

> <overlap_score>
0.9279406070709229

$$$$
BENZO_241_1
  -OEChem-08222022403D

 49 52  0     1  0  0  0  0  0999 V2000
   14.2623    1.3345   22.9975 C   0  0  0  0  0  0  0  0  0  0  0  0
    4.2970    1.6690   20.8430 C   0  0  0  0  0  0  0  0  0  0  0  0
   13.7729    0.5817   24.0649 C   0  0  0  0  0  0  0  0  0  0  0  0
   13.3767    1.9928   22.1442 C   0  0  0  0  0  0  0  0  0  0  0  0
    4.0980    2.1130   19.5350 C   0  0  0  0  0  0  0  0  0  0  0  0
    5.3360    0.8000   21.1530 C   0  0  0  0  0  0  0  0  0  0  0  0
   12.3978    0.4871   24.2790 C   0  0  0  0  0  0  0  0  0  0  0  0
   12.0016    1.8982   22.3583 C   0  0  0  0  0  0  0  0  0  0  0  0
    8.3510   -1.5420   24.6110 C   0  0  0  0  0  0  0  0  0  0  0  0
   10.2760   -2.3270   23.4020 C   0  0  0  0  0  0  0  0  0  0  0  0
    4.9400    1.7060   18.5060 C   0  0  0  0  0  0  0  0  0  0  0  0
    8.3310   -2.7170   25.3430 C   0  0  0  0  0  0  0  0  0  0  0  0
   10.2570   -3.5000   24.1350 C   0  0  0  0  0  0  0  0  0  0  0  0
    6.1600    0.3870   20.1140 C   0  0  0  0  0  0  0  0  0  0  0  0
   11.5121    1.1453   23.4257 C   0  0  0  0  0  0  0  0  0  0  0  0
    9.3300   -1.3350   23.6390 C   0  0  0  0  0  0  0  0  0  0  0  0
    5.9810    0.8330   18.8060 C   0  0  0  0  0  0  0  0  0  0  0  0
    9.2850   -3.7090   25.1090 C   0  0  0  0  0  0  0  0  0  0  0  0
    7.2210   -0.4620   20.0350 C   0  0  0  0  0  0  0  0  0  0  0  0
    8.9510    0.1280   21.6880 C   0  0  0  0  0  0  0  0  0  0  0  0
    8.2361   -4.9968   26.8044 C   0  0  0  0  0  0  0  0  0  0  0  0
   10.0220    1.0430   23.6570 C   0  0  0  0  0  0  0  0  0  0  0  0
    9.4200   -0.0840   22.9530 C   0  0  1  0  0  0  0  0  0  0  0  0
    7.6830   -0.5170   18.7600 N   0  0  0  0  0  0  0  0  0  0  0  0
    6.9440    0.2550   18.0100 N   0  0  0  0  0  0  0  0  0  0  0  0
    8.0810   -0.9750   21.0820 N   0  0  0  0  0  0  0  0  0  0  0  0
    9.1870    1.1500   21.0630 O   0  0  0  0  0  0  0  0  0  0  0  0
    9.2637   -4.8607   25.8240 O   0  0  0  0  0  0  0  0  0  0  0  0
   15.3331    1.4092   22.8317 H   0  0  0  0  0  0  0  0  0  0  0  0
    3.6274    2.0126   21.6300 H   0  0  0  0  0  0  0  0  0  0  0  0
   14.4623    0.0700   24.7300 H   0  0  0  0  0  0  0  0  0  0  0  0
   13.7574    2.5799   21.3138 H   0  0  0  0  0  0  0  0  0  0  0  0
    3.2732    2.7875   19.3199 H   0  0  0  0  0  0  0  0  0  0  0  0
    5.4878    0.4645   22.1722 H   0  0  0  0  0  0  0  0  0  0  0  0
   12.0255   -0.1019   25.1131 H   0  0  0  0  0  0  0  0  0  0  0  0
   11.3191    2.4143   21.6883 H   0  0  0  0  0  0  0  0  0  0  0  0
    7.5962   -0.7776   24.7980 H   0  0  0  0  0  0  0  0  0  0  0  0
   11.0395   -2.1844   22.6346 H   0  0  0  0  0  0  0  0  0  0  0  0
    4.7853    2.0674   17.4815 H   0  0  0  0  0  0  0  0  0  0  0  0
    7.5664   -2.8672   26.1058 H   0  0  0  0  0  0  0  0  0  0  0  0
   11.0120   -4.2666   23.9463 H   0  0  0  0  0  0  0  0  0  0  0  0
    8.3330   -5.9643   27.3030 H   0  0  0  0  0  0  0  0  0  0  0  0
    7.2584   -4.9198   26.3219 H   0  0  0  0  0  0  0  0  0  0  0  0
    8.3402   -4.1974   27.5418 H   0  0  0  0  0  0  0  0  0  0  0  0
    9.8253    0.9889   24.7357 H   0  0  0  0  0  0  0  0  0  0  0  0
    9.5635    1.9845   23.3241 H   0  0  0  0  0  0  0  0  0  0  0  0
    8.1288    0.3205   23.5156 H   0  0  0  0  0  0  0  0  0  0  0  0
    7.1015    0.3608   17.0505 H   0  0  0  0  0  0  0  0  0  0  0  0
    8.1201   -1.8087   21.3560 H   0  0  0  0  0  0  0  0  0  0  0  0
  1  3  1  0  0  0  0
  1  4  2  0  0  0  0
  2  5  1  0  0  0  0
  2  6  2  0  0  0  0
  3  7  2  0  0  0  0
  4  8  1  0  0  0  0
  5 11  2  0  0  0  0
  6 14  1  0  0  0  0
  7 15  1  0  0  0  0
  8 15  2  0  0  0  0
  9 12  2  0  0  0  0
  9 16  1  0  0  0  0
 10 13  1  0  0  0  0
 10 16  2  0  0  0  0
 11 17  1  0  0  0  0
 12 18  1  0  0  0  0
 13 18  2  0  0  0  0
 14 17  2  0  0  0  0
 14 19  1  0  0  0  0
 15 22  1  0  0  0  0
 16 23  1  0  0  0  0
 17 25  1  0  0  0  0
 18 28  1  0  0  0  0
 19 24  2  0  0  0  0
 19 26  1  0  0  0  0
 20 23  1  0  0  0  0
 20 26  1  0  0  0  0
 20 27  2  0  0  0  0
 21 28  1  0  0  0  0
 22 23  1  1  0  0  0
 24 25  1  0  0  0  0
  1 29  1  0  0  0  0
  2 30  1  0  0  0  0
  3 31  1  0  0  0  0
  4 32  1  0  0  0  0
  5 33  1  0  0  0  0
  6 34  1  0  0  0  0
  7 35  1  0  0  0  0
  8 36  1  0  0  0  0
  9 37  1  0  0  0  0
 10 38  1  0  0  0  0
 11 39  1  0  0  0  0
 12 40  1  0  0  0  0
 13 41  1  0  0  0  0
 21 42  1  0  0  0  0
 21 43  1  0  0  0  0
 21 44  1  0  0  0  0
 22 45  1  0  0  0  0
 22 46  1  0  0  0  0
 23 47  1  0  0  0  0
 25 48  1  0  0  0  0
 26 49  1  0  0  0  0
M  END
> <clash_score>
0

> <docking_score>
-7.437844276428223

> <overlap_score>
1.0058616399765015

$$$$
BENZO_240_1
  -OEChem-08222022403D

 46 49  0     1  0  0  0  0  0999 V2000
    4.2970    1.6690   20.8430 C   0  0  0  0  0  0  0  0  0  0  0  0
    4.0980    2.1130   19.5350 C   0  0  0  0  0  0  0  0  0  0  0  0
    5.3360    0.8000   21.1530 C   0  0  0  0  0  0  0  0  0  0  0  0
    8.3510   -1.5420   24.6110 C   0  0  0  0  0  0  0  0  0  0  0  0
   10.2760   -2.3270   23.4020 C   0  0  0  0  0  0  0  0  0  0  0  0
    4.9400    1.7060   18.5060 C   0  0  0  0  0  0  0  0  0  0  0  0
    8.3310   -2.7170   25.3430 C   0  0  0  0  0  0  0  0  0  0  0  0
   10.2570   -3.5000   24.1350 C   0  0  0  0  0  0  0  0  0  0  0  0
   12.2216    2.3786   23.3498 C   0  0  0  0  0  0  0  0  0  0  0  0
   13.5684    2.1883   23.1319 C   0  0  0  0  0  0  0  0  0  0  0  0
   12.3438    0.0592   23.2626 C   0  0  0  0  0  0  0  0  0  0  0  0
    6.1600    0.3870   20.1140 C   0  0  0  0  0  0  0  0  0  0  0  0
    9.3300   -1.3350   23.6390 C   0  0  0  0  0  0  0  0  0  0  0  0
   11.5121    1.1453   23.4257 C   0  0  0  0  0  0  0  0  0  0  0  0
    5.9810    0.8330   18.8060 C   0  0  0  0  0  0  0  0  0  0  0  0
    9.2850   -3.7090   25.1090 C   0  0  0  0  0  0  0  0  0  0  0  0
    7.2210   -0.4620   20.0350 C   0  0  0  0  0  0  0  0  0  0  0  0
    8.9510    0.1280   21.6880 C   0  0  0  0  0  0  0  0  0  0  0  0
    8.2361   -4.9968   26.8044 C   0  0  0  0  0  0  0  0  0  0  0  0
   10.0220    1.0430   23.6570 C   0  0  0  0  0  0  0  0  0  0  0  0
    9.4200   -0.0840   22.9530 C   0  0  1  0  0  0  0  0  0  0  0  0
    7.6830   -0.5170   18.7600 N   0  0  0  0  0  0  0  0  0  0  0  0
    6.9440    0.2550   18.0100 N   0  0  0  0  0  0  0  0  0  0  0  0
    8.0810   -0.9750   21.0820 N   0  0  0  0  0  0  0  0  0  0  0  0
    9.1870    1.1500   21.0630 O   0  0  0  0  0  0  0  0  0  0  0  0
    9.2637   -4.8607   25.8240 O   0  0  0  0  0  0  0  0  0  0  0  0
   13.9727    0.5281   23.0196 S   0  0  0  0  0  0  0  0  0  0  0  0
    3.6274    2.0126   21.6300 H   0  0  0  0  0  0  0  0  0  0  0  0
    3.2732    2.7875   19.3199 H   0  0  0  0  0  0  0  0  0  0  0  0
    5.4878    0.4645   22.1722 H   0  0  0  0  0  0  0  0  0  0  0  0
    7.5962   -0.7776   24.7980 H   0  0  0  0  0  0  0  0  0  0  0  0
   11.0395   -2.1844   22.6346 H   0  0  0  0  0  0  0  0  0  0  0  0
    4.7853    2.0674   17.4815 H   0  0  0  0  0  0  0  0  0  0  0  0
    7.5664   -2.8672   26.1058 H   0  0  0  0  0  0  0  0  0  0  0  0
   11.0120   -4.2666   23.9463 H   0  0  0  0  0  0  0  0  0  0  0  0
   11.7708    3.3580   23.4491 H   0  0  0  0  0  0  0  0  0  0  0  0
   14.3341    2.9446   23.0326 H   0  0  0  0  0  0  0  0  0  0  0  0
   12.0768   -0.9885   23.2727 H   0  0  0  0  0  0  0  0  0  0  0  0
    8.3330   -5.9643   27.3030 H   0  0  0  0  0  0  0  0  0  0  0  0
    7.2584   -4.9198   26.3219 H   0  0  0  0  0  0  0  0  0  0  0  0
    8.3402   -4.1974   27.5418 H   0  0  0  0  0  0  0  0  0  0  0  0
    9.8253    0.9889   24.7357 H   0  0  0  0  0  0  0  0  0  0  0  0
    9.5635    1.9845   23.3241 H   0  0  0  0  0  0  0  0  0  0  0  0
    8.1288    0.3205   23.5156 H   0  0  0  0  0  0  0  0  0  0  0  0
    7.1015    0.3608   17.0505 H   0  0  0  0  0  0  0  0  0  0  0  0
    8.1201   -1.8087   21.3560 H   0  0  0  0  0  0  0  0  0  0  0  0
  1  2  1  0  0  0  0
  1  3  2  0  0  0  0
  2  6  2  0  0  0  0
  3 12  1  0  0  0  0
  4  7  2  0  0  0  0
  4 13  1  0  0  0  0
  5  8  1  0  0  0  0
  5 13  2  0  0  0  0
  6 15  1  0  0  0  0
  7 16  1  0  0  0  0
  8 16  2  0  0  0  0
  9 10  2  0  0  0  0
  9 14  1  0  0  0  0
 10 27  1  0  0  0  0
 11 14  2  0  0  0  0
 11 27  1  0  0  0  0
 12 15  2  0  0  0  0
 12 17  1  0  0  0  0
 13 21  1  0  0  0  0
 14 20  1  0  0  0  0
 15 23  1  0  0  0  0
 16 26  1  0  0  0  0
 17 22  2  0  0  0  0
 17 24  1  0  0  0  0
 18 21  1  0  0  0  0
 18 24  1  0  0  0  0
 18 25  2  0  0  0  0
 19 26  1  0  0  0  0
 20 21  1  1  0  0  0
 22 23  1  0  0  0  0
  1 28  1  0  0  0  0
  2 29  1  0  0  0  0
  3 30  1  0  0  0  0
  4 31  1  0  0  0  0
  5 32  1  0  0  0  0
  6 33  1  0  0  0  0
  7 34  1  0  0  0  0
  8 35  1  0  0  0  0
  9 36  1  0  0  0  0
 10 37  1  0  0  0  0
 11 38  1  0  0  0  0
 19 39  1  0  0  0  0
 19 40  1  0  0  0  0
 19 41  1  0  0  0  0
 20 42  1  0  0  0  0
 20 43  1  0  0  0  0
 21 44  1  0  0  0  0
 23 45  1  0  0  0  0
 24 46  1  0  0  0  0
M  END
> <clash_score>
0

> <docking_score>
-8.33410930633545

> <overlap_score>
0.9932426810264587

$$$$
BENZO_240_2
  -OEChem-08222022403D

 46 49  0     1  0  0  0  0  0999 V2000
    4.2970    1.6690   20.8430 C   0  0  0  0  0  0  0  0  0  0  0  0
    4.0980    2.1130   19.5350 C   0  0  0  0  0  0  0  0  0  0  0  0
    5.3360    0.8000   21.1530 C   0  0  0  0  0  0  0  0  0  0  0  0
    8.3510   -1.5420   24.6110 C   0  0  0  0  0  0  0  0  0  0  0  0
   10.2760   -2.3270   23.4020 C   0  0  0  0  0  0  0  0  0  0  0  0
    4.9400    1.7060   18.5060 C   0  0  0  0  0  0  0  0  0  0  0  0
    8.3310   -2.7170   25.3430 C   0  0  0  0  0  0  0  0  0  0  0  0
   10.2570   -3.5000   24.1350 C   0  0  0  0  0  0  0  0  0  0  0  0
   11.0468    0.9536   26.0357 C   0  0  0  0  0  0  0  0  0  0  0  0
   12.1250    0.4349   26.7183 C   0  0  0  0  0  0  0  0  0  0  0  0
   12.1733   -0.1537   24.3307 C   0  0  0  0  0  0  0  0  0  0  0  0
    6.1600    0.3870   20.1140 C   0  0  0  0  0  0  0  0  0  0  0  0
    9.3300   -1.3350   23.6390 C   0  0  0  0  0  0  0  0  0  0  0  0
   11.0747    0.6126   24.6525 C   0  0  0  0  0  0  0  0  0  0  0  0
    5.9810    0.8330   18.8060 C   0  0  0  0  0  0  0  0  0  0  0  0
    9.2850   -3.7090   25.1090 C   0  0  0  0  0  0  0  0  0  0  0  0
    7.2210   -0.4620   20.0350 C   0  0  0  0  0  0  0  0  0  0  0  0
    8.9510    0.1280   21.6880 C   0  0  0  0  0  0  0  0  0  0  0  0
    8.2361   -4.9968   26.8044 C   0  0  0  0  0  0  0  0  0  0  0  0
   10.0220    1.0430   23.6570 C   0  0  0  0  0  0  0  0  0  0  0  0
    9.4200   -0.0840   22.9530 C   0  0  2  0  0  0  0  0  0  0  0  0
    7.6830   -0.5170   18.7600 N   0  0  0  0  0  0  0  0  0  0  0  0
    6.9440    0.2550   18.0100 N   0  0  0  0  0  0  0  0  0  0  0  0
    8.0810   -0.9750   21.0820 N   0  0  0  0  0  0  0  0  0  0  0  0
    9.1870    1.1500   21.0630 O   0  0  0  0  0  0  0  0  0  0  0  0
    9.2637   -4.8607   25.8240 O   0  0  0  0  0  0  0  0  0  0  0  0
   13.1649   -0.4592   25.6929 S   0  0  0  0  0  0  0  0  0  0  0  0
    3.6274    2.0126   21.6300 H   0  0  0  0  0  0  0  0  0  0  0  0
    3.2732    2.7875   19.3199 H   0  0  0  0  0  0  0  0  0  0  0  0
    5.4878    0.4645   22.1722 H   0  0  0  0  0  0  0  0  0  0  0  0
    7.5962   -0.7776   24.7980 H   0  0  0  0  0  0  0  0  0  0  0  0
   11.0395   -2.1844   22.6346 H   0  0  0  0  0  0  0  0  0  0  0  0
    4.7853    2.0674   17.4815 H   0  0  0  0  0  0  0  0  0  0  0  0
    7.5664   -2.8672   26.1058 H   0  0  0  0  0  0  0  0  0  0  0  0
   11.0120   -4.2666   23.9463 H   0  0  0  0  0  0  0  0  0  0  0  0
   10.2771    1.5493   26.5100 H   0  0  0  0  0  0  0  0  0  0  0  0
   12.3521    0.5386   27.7699 H   0  0  0  0  0  0  0  0  0  0  0  0
   12.4454   -0.5497   23.3621 H   0  0  0  0  0  0  0  0  0  0  0  0
    8.3330   -5.9643   27.3030 H   0  0  0  0  0  0  0  0  0  0  0  0
    7.2584   -4.9198   26.3219 H   0  0  0  0  0  0  0  0  0  0  0  0
    8.3402   -4.1974   27.5418 H   0  0  0  0  0  0  0  0  0  0  0  0
    9.2602    1.6432   24.1714 H   0  0  0  0  0  0  0  0  0  0  0  0
   10.4960    1.7269   22.9392 H   0  0  0  0  0  0  0  0  0  0  0  0
   10.7346   -0.4307   22.4468 H   0  0  0  0  0  0  0  0  0  0  0  0
    7.1015    0.3608   17.0505 H   0  0  0  0  0  0  0  0  0  0  0  0
    8.1201   -1.8087   21.3560 H   0  0  0  0  0  0  0  0  0  0  0  0
  1  2  1  0  0  0  0
  1  3  2  0  0  0  0
  2  6  2  0  0  0  0
  3 12  1  0  0  0  0
  4  7  2  0  0  0  0
  4 13  1  0  0  0  0
  5  8  1  0  0  0  0
  5 13  2  0  0  0  0
  6 15  1  0  0  0  0
  7 16  1  0  0  0  0
  8 16  2  0  0  0  0
  9 10  2  0  0  0  0
  9 14  1  0  0  0  0
 10 27  1  0  0  0  0
 11 14  2  0  0  0  0
 11 27  1  0  0  0  0
 12 15  2  0  0  0  0
 12 17  1  0  0  0  0
 13 21  1  0  0  0  0
 14 20  1  0  0  0  0
 15 23  1  0  0  0  0
 16 26  1  0  0  0  0
 17 22  2  0  0  0  0
 17 24  1  0  0  0  0
 18 21  1  0  0  0  0
 18 24  1  0  0  0  0
 18 25  2  0  0  0  0
 19 26  1  0  0  0  0
 20 21  1  6  0  0  0
 22 23  1  0  0  0  0
  1 28  1  0  0  0  0
  2 29  1  0  0  0  0
  3 30  1  0  0  0  0
  4 31  1  0  0  0  0
  5 32  1  0  0  0  0
  6 33  1  0  0  0  0
  7 34  1  0  0  0  0
  8 35  1  0  0  0  0
  9 36  1  0  0  0  0
 10 37  1  0  0  0  0
 11 38  1  0  0  0  0
 19 39  1  0  0  0  0
 19 40  1  0  0  0  0
 19 41  1  0  0  0  0
 20 42  1  0  0  0  0
 20 43  1  0  0  0  0
 21 44  1  0  0  0  0
 23 45  1  0  0  0  0
 24 46  1  0  0  0  0
M  END
> <clash_score>
0

> <docking_score>
-5.494485378265381

> <overlap_score>
0.8776484727859497

$$$$
BENZO_242_1
  -OEChem-08222022403D

 49 52  0     1  0  0  0  0  0999 V2000
    4.2970    1.6690   20.8430 C   0  0  0  0  0  0  0  0  0  0  0  0
    4.0980    2.1130   19.5350 C   0  0  0  0  0  0  0  0  0  0  0  0
   13.7719    0.5789   24.0657 C   0  0  0  0  0  0  0  0  0  0  0  0
    5.3360    0.8000   21.1530 C   0  0  0  0  0  0  0  0  0  0  0  0
   12.3966    0.4859   24.2792 C   0  0  0  0  0  0  0  0  0  0  0  0
    8.3510   -1.5420   24.6110 C   0  0  0  0  0  0  0  0  0  0  0  0
   10.2760   -2.3270   23.4020 C   0  0  0  0  0  0  0  0  0  0  0  0
    4.9400    1.7060   18.5060 C   0  0  0  0  0  0  0  0  0  0  0  0
    8.3310   -2.7170   25.3430 C   0  0  0  0  0  0  0  0  0  0  0  0
   10.2570   -3.5000   24.1350 C   0  0  0  0  0  0  0  0  0  0  0  0
   14.2627    1.3315   22.9987 C   0  0  0  0  0  0  0  0  0  0  0  0
   12.0029    1.8978   22.3587 C   0  0  0  0  0  0  0  0  0  0  0  0
    6.1600    0.3870   20.1140 C   0  0  0  0  0  0  0  0  0  0  0  0
    9.3300   -1.3350   23.6390 C   0  0  0  0  0  0  0  0  0  0  0  0
   11.5121    1.1453   23.4257 C   0  0  0  0  0  0  0  0  0  0  0  0
    5.9810    0.8330   18.8060 C   0  0  0  0  0  0  0  0  0  0  0  0
    9.2850   -3.7090   25.1090 C   0  0  0  0  0  0  0  0  0  0  0  0
   13.3782    1.9909   22.1452 C   0  0  0  0  0  0  0  0  0  0  0  0
    7.2210   -0.4620   20.0350 C   0  0  0  0  0  0  0  0  0  0  0  0
    8.9510    0.1280   21.6880 C   0  0  0  0  0  0  0  0  0  0  0  0
    8.2361   -4.9968   26.8044 C   0  0  0  0  0  0  0  0  0  0  0  0
   10.0220    1.0430   23.6570 C   0  0  0  0  0  0  0  0  0  0  0  0
    9.4200   -0.0840   22.9530 C   0  0  1  0  0  0  0  0  0  0  0  0
    7.6830   -0.5170   18.7600 N   0  0  0  0  0  0  0  0  0  0  0  0
    6.9440    0.2550   18.0100 N   0  0  0  0  0  0  0  0  0  0  0  0
    8.0810   -0.9750   21.0820 N   0  0  0  0  0  0  0  0  0  0  0  0
    9.1870    1.1500   21.0630 O   0  0  0  0  0  0  0  0  0  0  0  0
    9.2637   -4.8607   25.8240 O   0  0  0  0  0  0  0  0  0  0  0  0
   13.9843    2.9183   20.8282 Cl  0  0  0  0  0  0  0  0  0  0  0  0
    3.6274    2.0126   21.6300 H   0  0  0  0  0  0  0  0  0  0  0  0
    3.2732    2.7875   19.3199 H   0  0  0  0  0  0  0  0  0  0  0  0
   14.4603    0.0652   24.7304 H   0  0  0  0  0  0  0  0  0  0  0  0
    5.4878    0.4645   22.1722 H   0  0  0  0  0  0  0  0  0  0  0  0
   12.0231   -0.1028   25.1130 H   0  0  0  0  0  0  0  0  0  0  0  0
    7.5962   -0.7776   24.7980 H   0  0  0  0  0  0  0  0  0  0  0  0
   11.0395   -2.1844   22.6346 H   0  0  0  0  0  0  0  0  0  0  0  0
    4.7853    2.0674   17.4815 H   0  0  0  0  0  0  0  0  0  0  0  0
    7.5664   -2.8672   26.1058 H   0  0  0  0  0  0  0  0  0  0  0  0
   11.0120   -4.2666   23.9463 H   0  0  0  0  0  0  0  0  0  0  0  0
   15.3370    1.3949   22.8442 H   0  0  0  0  0  0  0  0  0  0  0  0
   11.3092    2.4105   21.6963 H   0  0  0  0  0  0  0  0  0  0  0  0
    8.3330   -5.9643   27.3030 H   0  0  0  0  0  0  0  0  0  0  0  0
    7.2584   -4.9198   26.3219 H   0  0  0  0  0  0  0  0  0  0  0  0
    8.3402   -4.1974   27.5418 H   0  0  0  0  0  0  0  0  0  0  0  0
    9.8253    0.9889   24.7357 H   0  0  0  0  0  0  0  0  0  0  0  0
    9.5635    1.9845   23.3241 H   0  0  0  0  0  0  0  0  0  0  0  0
    8.1288    0.3205   23.5156 H   0  0  0  0  0  0  0  0  0  0  0  0
    7.1015    0.3608   17.0505 H   0  0  0  0  0  0  0  0  0  0  0  0
    8.1201   -1.8087   21.3560 H   0  0  0  0  0  0  0  0  0  0  0  0
  1  2  1  0  0  0  0
  1  4  2  0  0  0  0
  2  8  2  0  0  0  0
  3  5  2  0  0  0  0
  3 11  1  0  0  0  0
  4 13  1  0  0  0  0
  5 15  1  0  0  0  0
  6  9  2  0  0  0  0
  6 14  1  0  0  0  0
  7 10  1  0  0  0  0
  7 14  2  0  0  0  0
  8 16  1  0  0  0  0
  9 17  1  0  0  0  0
 10 17  2  0  0  0  0
 11 18  2  0  0  0  0
 12 15  2  0  0  0  0
 12 18  1  0  0  0  0
 13 16  2  0  0  0  0
 13 19  1  0  0  0  0
 14 23  1  0  0  0  0
 15 22  1  0  0  0  0
 16 25  1  0  0  0  0
 17 28  1  0  0  0  0
 18 29  1  0  0  0  0
 19 24  2  0  0  0  0
 19 26  1  0  0  0  0
 20 23  1  0  0  0  0
 20 26  1  0  0  0  0
 20 27  2  0  0  0  0
 21 28  1  0  0  0  0
 22 23  1  1  0  0  0
 24 25  1  0  0  0  0
  1 30  1  0  0  0  0
  2 31  1  0  0  0  0
  3 32  1  0  0  0  0
  4 33  1  0  0  0  0
  5 34  1  0  0  0  0
  6 35  1  0  0  0  0
  7 36  1  0  0  0  0
  8 37  1  0  0  0  0
  9 38  1  0  0  0  0
 10 39  1  0  0  0  0
 11 40  1  0  0  0  0
 12 41  1  0  0  0  0
 21 42  1  0  0  0  0
 21 43  1  0  0  0  0
 21 44  1  0  0  0  0
 22 45  1  0  0  0  0
 22 46  1  0  0  0  0
 23 47  1  0  0  0  0
 25 48  1  0  0  0  0
 26 49  1  0  0  0  0
M  END
> <clash_score>
0

> <docking_score>
-6.578804016113281

> <overlap_score>
1.0089622735977173

$$$$
BENZO_242_2
  -OEChem-08222022403D

 49 52  0     1  0  0  0  0  0999 V2000
    4.2970    1.6690   20.8430 C   0  0  0  0  0  0  0  0  0  0  0  0
    4.0980    2.1130   19.5350 C   0  0  0  0  0  0  0  0  0  0  0  0
   12.6560   -0.1194   26.1379 C   0  0  0  0  0  0  0  0  0  0  0  0
    5.3360    0.8000   21.1530 C   0  0  0  0  0  0  0  0  0  0  0  0
   11.4219    0.1994   25.5714 C   0  0  0  0  0  0  0  0  0  0  0  0
    8.3510   -1.5420   24.6110 C   0  0  0  0  0  0  0  0  0  0  0  0
   10.2760   -2.3270   23.4020 C   0  0  0  0  0  0  0  0  0  0  0  0
    4.9400    1.7060   18.5060 C   0  0  0  0  0  0  0  0  0  0  0  0
    8.3310   -2.7170   25.3430 C   0  0  0  0  0  0  0  0  0  0  0  0
   10.2570   -3.5000   24.1350 C   0  0  0  0  0  0  0  0  0  0  0  0
   13.8281    0.0614   25.4035 C   0  0  0  0  0  0  0  0  0  0  0  0
   12.5318    0.8798   23.5362 C   0  0  0  0  0  0  0  0  0  0  0  0
    6.1600    0.3870   20.1140 C   0  0  0  0  0  0  0  0  0  0  0  0
    9.3300   -1.3350   23.6390 C   0  0  0  0  0  0  0  0  0  0  0  0
   11.3598    0.6989   24.2706 C   0  0  0  0  0  0  0  0  0  0  0  0
    5.9810    0.8330   18.8060 C   0  0  0  0  0  0  0  0  0  0  0  0
    9.2850   -3.7090   25.1090 C   0  0  0  0  0  0  0  0  0  0  0  0
   13.7660    0.5610   24.1027 C   0  0  0  0  0  0  0  0  0  0  0  0
    7.2210   -0.4620   20.0350 C   0  0  0  0  0  0  0  0  0  0  0  0
    8.9510    0.1280   21.6880 C   0  0  0  0  0  0  0  0  0  0  0  0
    8.2361   -4.9968   26.8044 C   0  0  0  0  0  0  0  0  0  0  0  0
   10.0220    1.0430   23.6570 C   0  0  0  0  0  0  0  0  0  0  0  0
    9.4200   -0.0840   22.9530 C   0  0  2  0  0  0  0  0  0  0  0  0
    7.6830   -0.5170   18.7600 N   0  0  0  0  0  0  0  0  0  0  0  0
    6.9440    0.2550   18.0100 N   0  0  0  0  0  0  0  0  0  0  0  0
    8.0810   -0.9750   21.0820 N   0  0  0  0  0  0  0  0  0  0  0  0
    9.1870    1.1500   21.0630 O   0  0  0  0  0  0  0  0  0  0  0  0
    9.2637   -4.8607   25.8240 O   0  0  0  0  0  0  0  0  0  0  0  0
   15.2122    0.7829   23.1967 Cl  0  0  0  0  0  0  0  0  0  0  0  0
    3.6274    2.0126   21.6300 H   0  0  0  0  0  0  0  0  0  0  0  0
    3.2732    2.7875   19.3199 H   0  0  0  0  0  0  0  0  0  0  0  0
   12.7039   -0.5086   27.1508 H   0  0  0  0  0  0  0  0  0  0  0  0
    5.4878    0.4645   22.1722 H   0  0  0  0  0  0  0  0  0  0  0  0
   10.5137    0.0551   26.1509 H   0  0  0  0  0  0  0  0  0  0  0  0
    7.5962   -0.7776   24.7980 H   0  0  0  0  0  0  0  0  0  0  0  0
   11.0395   -2.1844   22.6346 H   0  0  0  0  0  0  0  0  0  0  0  0
    4.7853    2.0674   17.4815 H   0  0  0  0  0  0  0  0  0  0  0  0
    7.5664   -2.8672   26.1058 H   0  0  0  0  0  0  0  0  0  0  0  0
   11.0120   -4.2666   23.9463 H   0  0  0  0  0  0  0  0  0  0  0  0
   14.7829   -0.1916   25.8577 H   0  0  0  0  0  0  0  0  0  0  0  0
   12.4781    1.2701   22.5225 H   0  0  0  0  0  0  0  0  0  0  0  0
    8.3330   -5.9643   27.3030 H   0  0  0  0  0  0  0  0  0  0  0  0
    7.2584   -4.9198   26.3219 H   0  0  0  0  0  0  0  0  0  0  0  0
    8.3402   -4.1974   27.5418 H   0  0  0  0  0  0  0  0  0  0  0  0
    9.3529    1.4272   24.4380 H   0  0  0  0  0  0  0  0  0  0  0  0
   10.1743    1.8827   22.9648 H   0  0  0  0  0  0  0  0  0  0  0  0
   10.7346   -0.4307   22.4468 H   0  0  0  0  0  0  0  0  0  0  0  0
    7.1015    0.3608   17.0505 H   0  0  0  0  0  0  0  0  0  0  0  0
    8.1201   -1.8087   21.3560 H   0  0  0  0  0  0  0  0  0  0  0  0
  1  2  1  0  0  0  0
  1  4  2  0  0  0  0
  2  8  2  0  0  0  0
  3  5  2  0  0  0  0
  3 11  1  0  0  0  0
  4 13  1  0  0  0  0
  5 15  1  0  0  0  0
  6  9  2  0  0  0  0
  6 14  1  0  0  0  0
  7 10  1  0  0  0  0
  7 14  2  0  0  0  0
  8 16  1  0  0  0  0
  9 17  1  0  0  0  0
 10 17  2  0  0  0  0
 11 18  2  0  0  0  0
 12 15  2  0  0  0  0
 12 18  1  0  0  0  0
 13 16  2  0  0  0  0
 13 19  1  0  0  0  0
 14 23  1  0  0  0  0
 15 22  1  0  0  0  0
 16 25  1  0  0  0  0
 17 28  1  0  0  0  0
 18 29  1  0  0  0  0
 19 24  2  0  0  0  0
 19 26  1  0  0  0  0
 20 23  1  0  0  0  0
 20 26  1  0  0  0  0
 20 27  2  0  0  0  0
 21 28  1  0  0  0  0
 22 23  1  6  0  0  0
 24 25  1  0  0  0  0
  1 30  1  0  0  0  0
  2 31  1  0  0  0  0
  3 32  1  0  0  0  0
  4 33  1  0  0  0  0
  5 34  1  0  0  0  0
  6 35  1  0  0  0  0
  7 36  1  0  0  0  0
  8 37  1  0  0  0  0
  9 38  1  0  0  0  0
 10 39  1  0  0  0  0
 11 40  1  0  0  0  0
 12 41  1  0  0  0  0
 21 42  1  0  0  0  0
 21 43  1  0  0  0  0
 21 44  1  0  0  0  0
 22 45  1  0  0  0  0
 22 46  1  0  0  0  0
 23 47  1  0  0  0  0
 25 48  1  0  0  0  0
 26 49  1  0  0  0  0
M  END
> <clash_score>
0.6070870017027318

> <docking_score>
-5.572865009307861

> <overlap_score>
0.9371458888053894

$$$$
BENZO_243_1
  -OEChem-08222022403D

 49 52  0     1  0  0  0  0  0999 V2000
    4.2970    1.6690   20.8430 C   0  0  0  0  0  0  0  0  0  0  0  0
    4.0980    2.1130   19.5350 C   0  0  0  0  0  0  0  0  0  0  0  0
    5.3360    0.8000   21.1530 C   0  0  0  0  0  0  0  0  0  0  0  0
    8.3510   -1.5420   24.6110 C   0  0  0  0  0  0  0  0  0  0  0  0
   10.2760   -2.3270   23.4020 C   0  0  0  0  0  0  0  0  0  0  0  0
    4.9400    1.7060   18.5060 C   0  0  0  0  0  0  0  0  0  0  0  0
    8.3310   -2.7170   25.3430 C   0  0  0  0  0  0  0  0  0  0  0  0
   10.2570   -3.5000   24.1350 C   0  0  0  0  0  0  0  0  0  0  0  0
   12.3075    2.3068   23.4193 C   0  0  0  0  0  0  0  0  0  0  0  0
   12.3951    0.1231   23.1770 C   0  0  0  0  0  0  0  0  0  0  0  0
    6.1600    0.3870   20.1140 C   0  0  0  0  0  0  0  0  0  0  0  0
    9.3300   -1.3350   23.6390 C   0  0  0  0  0  0  0  0  0  0  0  0
   11.5121    1.1453   23.4257 C   0  0  0  0  0  0  0  0  0  0  0  0
    5.9810    0.8330   18.8060 C   0  0  0  0  0  0  0  0  0  0  0  0
    9.2850   -3.7090   25.1090 C   0  0  0  0  0  0  0  0  0  0  0  0
    7.2210   -0.4620   20.0350 C   0  0  0  0  0  0  0  0  0  0  0  0
    8.9510    0.1280   21.6880 C   0  0  0  0  0  0  0  0  0  0  0  0
   14.8664    0.0395   22.7716 C   0  0  0  0  0  0  0  0  0  0  0  0
    8.2361   -4.9968   26.8044 C   0  0  0  0  0  0  0  0  0  0  0  0
   10.0220    1.0430   23.6570 C   0  0  0  0  0  0  0  0  0  0  0  0
    9.4200   -0.0840   22.9530 C   0  0  1  0  0  0  0  0  0  0  0  0
   13.5967    2.0476   23.1851 N   0  0  0  0  0  0  0  0  0  0  0  0
    7.6830   -0.5170   18.7600 N   0  0  0  0  0  0  0  0  0  0  0  0
    6.9440    0.2550   18.0100 N   0  0  0  0  0  0  0  0  0  0  0  0
   13.6181    0.7115   23.0422 N   0  0  0  0  0  0  0  0  0  0  0  0
    8.0810   -0.9750   21.0820 N   0  0  0  0  0  0  0  0  0  0  0  0
    9.1870    1.1500   21.0630 O   0  0  0  0  0  0  0  0  0  0  0  0
    9.2637   -4.8607   25.8240 O   0  0  0  0  0  0  0  0  0  0  0  0
    3.6274    2.0126   21.6300 H   0  0  0  0  0  0  0  0  0  0  0  0
    3.2732    2.7875   19.3199 H   0  0  0  0  0  0  0  0  0  0  0  0
    5.4878    0.4645   22.1722 H   0  0  0  0  0  0  0  0  0  0  0  0
    7.5962   -0.7776   24.7980 H   0  0  0  0  0  0  0  0  0  0  0  0
   11.0395   -2.1844   22.6346 H   0  0  0  0  0  0  0  0  0  0  0  0
    4.7853    2.0674   17.4815 H   0  0  0  0  0  0  0  0  0  0  0  0
    7.5664   -2.8672   26.1058 H   0  0  0  0  0  0  0  0  0  0  0  0
   11.0120   -4.2666   23.9463 H   0  0  0  0  0  0  0  0  0  0  0  0
   12.0040    3.3322   23.5761 H   0  0  0  0  0  0  0  0  0  0  0  0
   12.2609   -0.9465   23.0878 H   0  0  0  0  0  0  0  0  0  0  0  0
   14.9942   -0.0107   21.6871 H   0  0  0  0  0  0  0  0  0  0  0  0
   15.6877    0.5992   23.2278 H   0  0  0  0  0  0  0  0  0  0  0  0
   14.8362   -0.9658   23.2010 H   0  0  0  0  0  0  0  0  0  0  0  0
    8.3330   -5.9643   27.3030 H   0  0  0  0  0  0  0  0  0  0  0  0
    7.2584   -4.9198   26.3219 H   0  0  0  0  0  0  0  0  0  0  0  0
    8.3402   -4.1974   27.5418 H   0  0  0  0  0  0  0  0  0  0  0  0
    9.8253    0.9889   24.7357 H   0  0  0  0  0  0  0  0  0  0  0  0
    9.5635    1.9845   23.3241 H   0  0  0  0  0  0  0  0  0  0  0  0
    8.1288    0.3205   23.5156 H   0  0  0  0  0  0  0  0  0  0  0  0
    7.1015    0.3608   17.0505 H   0  0  0  0  0  0  0  0  0  0  0  0
    8.1201   -1.8087   21.3560 H   0  0  0  0  0  0  0  0  0  0  0  0
  1  2  1  0  0  0  0
  1  3  2  0  0  0  0
  2  6  2  0  0  0  0
  3 11  1  0  0  0  0
  4  7  2  0  0  0  0
  4 12  1  0  0  0  0
  5  8  1  0  0  0  0
  5 12  2  0  0  0  0
  6 14  1  0  0  0  0
  7 15  1  0  0  0  0
  8 15  2  0  0  0  0
  9 13  1  0  0  0  0
  9 22  2  0  0  0  0
 10 13  2  0  0  0  0
 10 25  1  0  0  0  0
 11 14  2  0  0  0  0
 11 16  1  0  0  0  0
 12 21  1  0  0  0  0
 13 20  1  0  0  0  0
 14 24  1  0  0  0  0
 15 28  1  0  0  0  0
 16 23  2  0  0  0  0
 16 26  1  0  0  0  0
 17 21  1  0  0  0  0
 17 26  1  0  0  0  0
 17 27  2  0  0  0  0
 18 25  1  0  0  0  0
 19 28  1  0  0  0  0
 20 21  1  1  0  0  0
 22 25  1  0  0  0  0
 23 24  1  0  0  0  0
  1 29  1  0  0  0  0
  2 30  1  0  0  0  0
  3 31  1  0  0  0  0
  4 32  1  0  0  0  0
  5 33  1  0  0  0  0
  6 34  1  0  0  0  0
  7 35  1  0  0  0  0
  8 36  1  0  0  0  0
  9 37  1  0  0  0  0
 10 38  1  0  0  0  0
 18 39  1  0  0  0  0
 18 40  1  0  0  0  0
 18 41  1  0  0  0  0
 19 42  1  0  0  0  0
 19 43  1  0  0  0  0
 19 44  1  0  0  0  0
 20 45  1  0  0  0  0
 20 46  1  0  0  0  0
 21 47  1  0  0  0  0
 24 48  1  0  0  0  0
 26 49  1  0  0  0  0
M  END
> <clash_score>
0

> <docking_score>
-8.229461669921875

> <overlap_score>
1.0079172849655151

$$$$
BENZO_243_2
  -OEChem-08222022403D

 49 52  0     1  0  0  0  0  0999 V2000
    4.2970    1.6690   20.8430 C   0  0  0  0  0  0  0  0  0  0  0  0
    4.0980    2.1130   19.5350 C   0  0  0  0  0  0  0  0  0  0  0  0
    5.3360    0.8000   21.1530 C   0  0  0  0  0  0  0  0  0  0  0  0
    8.3510   -1.5420   24.6110 C   0  0  0  0  0  0  0  0  0  0  0  0
   10.2760   -2.3270   23.4020 C   0  0  0  0  0  0  0  0  0  0  0  0
    4.9400    1.7060   18.5060 C   0  0  0  0  0  0  0  0  0  0  0  0
    8.3310   -2.7170   25.3430 C   0  0  0  0  0  0  0  0  0  0  0  0
   10.2570   -3.5000   24.1350 C   0  0  0  0  0  0  0  0  0  0  0  0
   10.9173    2.8198   21.9486 C   0  0  0  0  0  0  0  0  0  0  0  0
   12.4283    1.4668   22.7978 C   0  0  0  0  0  0  0  0  0  0  0  0
    6.1600    0.3870   20.1140 C   0  0  0  0  0  0  0  0  0  0  0  0
    9.3300   -1.3350   23.6390 C   0  0  0  0  0  0  0  0  0  0  0  0
   11.0832    1.7414   22.8382 C   0  0  0  0  0  0  0  0  0  0  0  0
    5.9810    0.8330   18.8060 C   0  0  0  0  0  0  0  0  0  0  0  0
    9.2850   -3.7090   25.1090 C   0  0  0  0  0  0  0  0  0  0  0  0
    7.2210   -0.4620   20.0350 C   0  0  0  0  0  0  0  0  0  0  0  0
    8.9510    0.1280   21.6880 C   0  0  0  0  0  0  0  0  0  0  0  0
   14.3557    2.4668   21.5472 C   0  0  0  0  0  0  0  0  0  0  0  0
    8.2361   -4.9968   26.8044 C   0  0  0  0  0  0  0  0  0  0  0  0
   10.0220    1.0430   23.6570 C   0  0  0  0  0  0  0  0  0  0  0  0
    9.4200   -0.0840   22.9530 C   0  0  2  0  0  0  0  0  0  0  0  0
   12.0654    3.2041   21.3845 N   0  0  0  0  0  0  0  0  0  0  0  0
    7.6830   -0.5170   18.7600 N   0  0  0  0  0  0  0  0  0  0  0  0
    6.9440    0.2550   18.0100 N   0  0  0  0  0  0  0  0  0  0  0  0
   12.9656    2.3627   21.9209 N   0  0  0  0  0  0  0  0  0  0  0  0
    8.0810   -0.9750   21.0820 N   0  0  0  0  0  0  0  0  0  0  0  0
    9.1870    1.1500   21.0630 O   0  0  0  0  0  0  0  0  0  0  0  0
    9.2637   -4.8607   25.8240 O   0  0  0  0  0  0  0  0  0  0  0  0
    3.6274    2.0126   21.6300 H   0  0  0  0  0  0  0  0  0  0  0  0
    3.2732    2.7875   19.3199 H   0  0  0  0  0  0  0  0  0  0  0  0
    5.4878    0.4645   22.1722 H   0  0  0  0  0  0  0  0  0  0  0  0
    7.5962   -0.7776   24.7980 H   0  0  0  0  0  0  0  0  0  0  0  0
   11.0395   -2.1844   22.6346 H   0  0  0  0  0  0  0  0  0  0  0  0
    4.7853    2.0674   17.4815 H   0  0  0  0  0  0  0  0  0  0  0  0
    7.5664   -2.8672   26.1058 H   0  0  0  0  0  0  0  0  0  0  0  0
   11.0120   -4.2666   23.9463 H   0  0  0  0  0  0  0  0  0  0  0  0
   10.0090    3.3439   21.6870 H   0  0  0  0  0  0  0  0  0  0  0  0
   13.0342    0.7293   23.3067 H   0  0  0  0  0  0  0  0  0  0  0  0
   14.5208    1.8229   20.6793 H   0  0  0  0  0  0  0  0  0  0  0  0
   14.5900    3.5064   21.3020 H   0  0  0  0  0  0  0  0  0  0  0  0
   14.9803    2.1472   22.3860 H   0  0  0  0  0  0  0  0  0  0  0  0
    8.3330   -5.9643   27.3030 H   0  0  0  0  0  0  0  0  0  0  0  0
    7.2584   -4.9198   26.3219 H   0  0  0  0  0  0  0  0  0  0  0  0
    8.3402   -4.1974   27.5418 H   0  0  0  0  0  0  0  0  0  0  0  0
   10.4530    0.7282   24.6164 H   0  0  0  0  0  0  0  0  0  0  0  0
    9.2514    1.7835   23.9128 H   0  0  0  0  0  0  0  0  0  0  0  0
   10.7346   -0.4307   22.4468 H   0  0  0  0  0  0  0  0  0  0  0  0
    7.1015    0.3608   17.0505 H   0  0  0  0  0  0  0  0  0  0  0  0
    8.1201   -1.8087   21.3560 H   0  0  0  0  0  0  0  0  0  0  0  0
  1  2  1  0  0  0  0
  1  3  2  0  0  0  0
  2  6  2  0  0  0  0
  3 11  1  0  0  0  0
  4  7  2  0  0  0  0
  4 12  1  0  0  0  0
  5  8  1  0  0  0  0
  5 12  2  0  0  0  0
  6 14  1  0  0  0  0
  7 15  1  0  0  0  0
  8 15  2  0  0  0  0
  9 13  1  0  0  0  0
  9 22  2  0  0  0  0
 10 13  2  0  0  0  0
 10 25  1  0  0  0  0
 11 14  2  0  0  0  0
 11 16  1  0  0  0  0
 12 21  1  0  0  0  0
 13 20  1  0  0  0  0
 14 24  1  0  0  0  0
 15 28  1  0  0  0  0
 16 23  2  0  0  0  0
 16 26  1  0  0  0  0
 17 21  1  0  0  0  0
 17 26  1  0  0  0  0
 17 27  2  0  0  0  0
 18 25  1  0  0  0  0
 19 28  1  0  0  0  0
 20 21  1  6  0  0  0
 22 25  1  0  0  0  0
 23 24  1  0  0  0  0
  1 29  1  0  0  0  0
  2 30  1  0  0  0  0
  3 31  1  0  0  0  0
  4 32  1  0  0  0  0
  5 33  1  0  0  0  0
  6 34  1  0  0  0  0
  7 35  1  0  0  0  0
  8 36  1  0  0  0  0
  9 37  1  0  0  0  0
 10 38  1  0  0  0  0
 18 39  1  0  0  0  0
 18 40  1  0  0  0  0
 18 41  1  0  0  0  0
 19 42  1  0  0  0  0
 19 43  1  0  0  0  0
 19 44  1  0  0  0  0
 20 45  1  0  0  0  0
 20 46  1  0  0  0  0
 21 47  1  0  0  0  0
 24 48  1  0  0  0  0
 26 49  1  0  0  0  0
M  END
> <clash_score>
0

> <docking_score>
-6.170175075531006

> <overlap_score>
0.9638800024986267

$$$$
BENZO_245_1
  -OEChem-08222022403D

 59 63  0     1  0  0  0  0  0999 V2000
   13.8377    0.1156   25.4121 C   0  0  0  0  0  0  0  0  0  0  0  0
    4.2970    1.6690   20.8430 C   0  0  0  0  0  0  0  0  0  0  0  0
   12.6675   -0.0758   26.1466 C   0  0  0  0  0  0  0  0  0  0  0  0
   13.7705    0.6078   24.1087 C   0  0  0  0  0  0  0  0  0  0  0  0
    4.0980    2.1130   19.5350 C   0  0  0  0  0  0  0  0  0  0  0  0
    5.3360    0.8000   21.1530 C   0  0  0  0  0  0  0  0  0  0  0  0
   11.4299    0.2250   25.5777 C   0  0  0  0  0  0  0  0  0  0  0  0
   12.5329    0.9085   23.5397 C   0  0  0  0  0  0  0  0  0  0  0  0
    8.3510   -1.5420   24.6110 C   0  0  0  0  0  0  0  0  0  0  0  0
   10.2760   -2.3270   23.4020 C   0  0  0  0  0  0  0  0  0  0  0  0
    4.9400    1.7060   18.5060 C   0  0  0  0  0  0  0  0  0  0  0  0
    8.3310   -2.7170   25.3430 C   0  0  0  0  0  0  0  0  0  0  0  0
   10.2570   -3.5000   24.1350 C   0  0  0  0  0  0  0  0  0  0  0  0
    6.1600    0.3870   20.1140 C   0  0  0  0  0  0  0  0  0  0  0  0
   11.3626    0.7171   24.2742 C   0  0  0  0  0  0  0  0  0  0  0  0
    9.3300   -1.3350   23.6390 C   0  0  0  0  0  0  0  0  0  0  0  0
    5.9810    0.8330   18.8060 C   0  0  0  0  0  0  0  0  0  0  0  0
    9.2850   -3.7090   25.1090 C   0  0  0  0  0  0  0  0  0  0  0  0
    7.2210   -0.4620   20.0350 C   0  0  0  0  0  0  0  0  0  0  0  0
    8.0643   -5.4721   26.3672 C   0  0  0  0  0  0  0  0  0  0  0  0
    8.9510    0.1280   21.6880 C   0  0  0  0  0  0  0  0  0  0  0  0
    8.2649   -6.7591   27.1477 C   0  0  0  0  0  0  0  0  0  0  0  0
    9.4073   -6.6157   28.1377 C   0  0  0  0  0  0  0  0  0  0  0  0
   10.6967   -6.1489   27.4694 C   0  0  0  0  0  0  0  0  0  0  0  0
   10.4950   -5.7059   26.0212 C   0  0  0  0  0  0  0  0  0  0  0  0
   10.0220    1.0430   23.6570 C   0  0  0  0  0  0  0  0  0  0  0  0
    9.4200   -0.0840   22.9530 C   0  0  1  0  0  0  0  0  0  0  0  0
    7.6830   -0.5170   18.7600 N   0  0  0  0  0  0  0  0  0  0  0  0
    6.9440    0.2550   18.0100 N   0  0  0  0  0  0  0  0  0  0  0  0
    9.2624   -4.9267   25.8634 N   0  0  0  0  0  0  0  0  0  0  0  0
    8.0810   -0.9750   21.0820 N   0  0  0  0  0  0  0  0  0  0  0  0
    6.9247   -5.0497   26.1749 O   0  0  0  0  0  0  0  0  0  0  0  0
    9.1870    1.1500   21.0630 O   0  0  0  0  0  0  0  0  0  0  0  0
   14.8013   -0.1174   25.8558 H   0  0  0  0  0  0  0  0  0  0  0  0
    3.6274    2.0126   21.6300 H   0  0  0  0  0  0  0  0  0  0  0  0
   12.7197   -0.4579   27.1619 H   0  0  0  0  0  0  0  0  0  0  0  0
   14.6814    0.7579   23.5369 H   0  0  0  0  0  0  0  0  0  0  0  0
    3.2732    2.7875   19.3199 H   0  0  0  0  0  0  0  0  0  0  0  0
    5.4878    0.4645   22.1722 H   0  0  0  0  0  0  0  0  0  0  0  0
   10.5233    0.0726   26.1574 H   0  0  0  0  0  0  0  0  0  0  0  0
   12.4902    1.2914   22.5235 H   0  0  0  0  0  0  0  0  0  0  0  0
    7.5948   -0.7783   24.7966 H   0  0  0  0  0  0  0  0  0  0  0  0
   11.0389   -2.1844   22.6342 H   0  0  0  0  0  0  0  0  0  0  0  0
    4.7853    2.0674   17.4815 H   0  0  0  0  0  0  0  0  0  0  0  0
    7.5642   -2.8624   26.1050 H   0  0  0  0  0  0  0  0  0  0  0  0
   11.0137   -4.2649   23.9418 H   0  0  0  0  0  0  0  0  0  0  0  0
    7.3543   -6.9829   27.6818 H   0  0  0  0  0  0  0  0  0  0  0  0
    8.4783   -7.5436   26.4372 H   0  0  0  0  0  0  0  0  0  0  0  0
    9.1257   -5.9021   28.9399 H   0  0  0  0  0  0  0  0  0  0  0  0
    9.5814   -7.5840   28.6486 H   0  0  0  0  0  0  0  0  0  0  0  0
   11.1319   -5.3094   28.0513 H   0  0  0  0  0  0  0  0  0  0  0  0
   11.4591   -6.9570   27.5118 H   0  0  0  0  0  0  0  0  0  0  0  0
   11.3214   -5.0711   25.7158 H   0  0  0  0  0  0  0  0  0  0  0  0
   10.4496   -6.5786   25.3788 H   0  0  0  0  0  0  0  0  0  0  0  0
    9.3482    1.4259   24.4346 H   0  0  0  0  0  0  0  0  0  0  0  0
   10.1663    1.8793   22.9589 H   0  0  0  0  0  0  0  0  0  0  0  0
   10.7366   -0.4277   22.4442 H   0  0  0  0  0  0  0  0  0  0  0  0
    7.1015    0.3608   17.0505 H   0  0  0  0  0  0  0  0  0  0  0  0
    8.1354   -1.7990   21.3694 H   0  0  0  0  0  0  0  0  0  0  0  0
  1  3  1  0  0  0  0
  1  4  2  0  0  0  0
  2  5  1  0  0  0  0
  2  6  2  0  0  0  0
  3  7  2  0  0  0  0
  4  8  1  0  0  0  0
  5 11  2  0  0  0  0
  6 14  1  0  0  0  0
  7 15  1  0  0  0  0
  8 15  2  0  0  0  0
  9 12  2  0  0  0  0
  9 16  1  0  0  0  0
 10 13  1  0  0  0  0
 10 16  2  0  0  0  0
 11 17  1  0  0  0  0
 12 18  1  0  0  0  0
 13 18  2  0  0  0  0
 14 17  2  0  0  0  0
 14 19  1  0  0  0  0
 15 26  1  0  0  0  0
 16 27  1  0  0  0  0
 17 29  1  0  0  0  0
 18 30  1  0  0  0  0
 19 28  2  0  0  0  0
 19 31  1  0  0  0  0
 20 22  1  0  0  0  0
 20 30  1  0  0  0  0
 20 32  2  0  0  0  0
 21 27  1  1  0  0  0
 21 31  1  0  0  0  0
 21 33  2  0  0  0  0
 22 23  1  0  0  0  0
 23 24  1  0  0  0  0
 24 25  1  0  0  0  0
 25 30  1  0  0  0  0
 26 27  1  0  0  0  0
 28 29  1  0  0  0  0
  1 34  1  0  0  0  0
  2 35  1  0  0  0  0
  3 36  1  0  0  0  0
  4 37  1  0  0  0  0
  5 38  1  0  0  0  0
  6 39  1  0  0  0  0
  7 40  1  0  0  0  0
  8 41  1  0  0  0  0
  9 42  1  0  0  0  0
 10 43  1  0  0  0  0
 11 44  1  0  0  0  0
 12 45  1  0  0  0  0
 13 46  1  0  0  0  0
 22 47  1  0  0  0  0
 22 48  1  0  0  0  0
 23 49  1  0  0  0  0
 23 50  1  0  0  0  0
 24 51  1  0  0  0  0
 24 52  1  0  0  0  0
 25 53  1  0  0  0  0
 25 54  1  0  0  0  0
 26 55  1  0  0  0  0
 26 56  1  0  0  0  0
 27 57  1  0  0  0  0
 29 58  1  0  0  0  0
 31 59  1  0  0  0  0
M  END
> <clash_score>
1.2728248649063287

> <docking_score>
-4.998410701751709

> <overlap_score>
0.9489558935165405

$$$$
BENZO_245_2
  -OEChem-08222022403D

 59 63  0     1  0  0  0  0  0999 V2000
   14.2657    1.3705   23.0372 C   0  0  0  0  0  0  0  0  0  0  0  0
    4.2970    1.6690   20.8430 C   0  0  0  0  0  0  0  0  0  0  0  0
   13.7726    0.6127   24.0994 C   0  0  0  0  0  0  0  0  0  0  0  0
   13.3825    2.0221   22.1763 C   0  0  0  0  0  0  0  0  0  0  0  0
    4.0980    2.1130   19.5350 C   0  0  0  0  0  0  0  0  0  0  0  0
    5.3360    0.8000   21.1530 C   0  0  0  0  0  0  0  0  0  0  0  0
   12.3965    0.5064   24.3006 C   0  0  0  0  0  0  0  0  0  0  0  0
   12.0064    1.9158   22.3775 C   0  0  0  0  0  0  0  0  0  0  0  0
    8.3510   -1.5420   24.6110 C   0  0  0  0  0  0  0  0  0  0  0  0
   10.2760   -2.3270   23.4020 C   0  0  0  0  0  0  0  0  0  0  0  0
    4.9400    1.7060   18.5060 C   0  0  0  0  0  0  0  0  0  0  0  0
    8.3310   -2.7170   25.3430 C   0  0  0  0  0  0  0  0  0  0  0  0
   10.2570   -3.5000   24.1350 C   0  0  0  0  0  0  0  0  0  0  0  0
    6.1600    0.3870   20.1140 C   0  0  0  0  0  0  0  0  0  0  0  0
   11.5133    1.1580   23.4397 C   0  0  0  0  0  0  0  0  0  0  0  0
    9.3300   -1.3350   23.6390 C   0  0  0  0  0  0  0  0  0  0  0  0
    5.9810    0.8330   18.8060 C   0  0  0  0  0  0  0  0  0  0  0  0
    9.2850   -3.7090   25.1090 C   0  0  0  0  0  0  0  0  0  0  0  0
    7.2210   -0.4620   20.0350 C   0  0  0  0  0  0  0  0  0  0  0  0
    8.0643   -5.4721   26.3672 C   0  0  0  0  0  0  0  0  0  0  0  0
    8.9510    0.1280   21.6880 C   0  0  0  0  0  0  0  0  0  0  0  0
    8.2649   -6.7591   27.1477 C   0  0  0  0  0  0  0  0  0  0  0  0
    9.4073   -6.6157   28.1377 C   0  0  0  0  0  0  0  0  0  0  0  0
   10.6967   -6.1489   27.4694 C   0  0  0  0  0  0  0  0  0  0  0  0
   10.4950   -5.7059   26.0212 C   0  0  0  0  0  0  0  0  0  0  0  0
   10.0220    1.0430   23.6570 C   0  0  0  0  0  0  0  0  0  0  0  0
    9.4200   -0.0840   22.9530 C   0  0  2  0  0  0  0  0  0  0  0  0
    7.6830   -0.5170   18.7600 N   0  0  0  0  0  0  0  0  0  0  0  0
    6.9440    0.2550   18.0100 N   0  0  0  0  0  0  0  0  0  0  0  0
    9.2624   -4.9267   25.8634 N   0  0  0  0  0  0  0  0  0  0  0  0
    8.0810   -0.9750   21.0820 N   0  0  0  0  0  0  0  0  0  0  0  0
    6.9247   -5.0497   26.1749 O   0  0  0  0  0  0  0  0  0  0  0  0
    9.1870    1.1500   21.0630 O   0  0  0  0  0  0  0  0  0  0  0  0
   15.3373    1.4543   22.8814 H   0  0  0  0  0  0  0  0  0  0  0  0
    3.6274    2.0126   21.6300 H   0  0  0  0  0  0  0  0  0  0  0  0
   14.4602    0.1062   24.7705 H   0  0  0  0  0  0  0  0  0  0  0  0
   13.7661    2.6131   21.3498 H   0  0  0  0  0  0  0  0  0  0  0  0
    3.2732    2.7875   19.3199 H   0  0  0  0  0  0  0  0  0  0  0  0
    5.4878    0.4645   22.1722 H   0  0  0  0  0  0  0  0  0  0  0  0
   12.0214   -0.0864   25.1308 H   0  0  0  0  0  0  0  0  0  0  0  0
   11.3258    2.4268   21.7016 H   0  0  0  0  0  0  0  0  0  0  0  0
    7.5948   -0.7783   24.7966 H   0  0  0  0  0  0  0  0  0  0  0  0
   11.0389   -2.1844   22.6342 H   0  0  0  0  0  0  0  0  0  0  0  0
    4.7853    2.0674   17.4815 H   0  0  0  0  0  0  0  0  0  0  0  0
    7.5642   -2.8624   26.1050 H   0  0  0  0  0  0  0  0  0  0  0  0
   11.0137   -4.2649   23.9418 H   0  0  0  0  0  0  0  0  0  0  0  0
    7.3543   -6.9829   27.6818 H   0  0  0  0  0  0  0  0  0  0  0  0
    8.4783   -7.5436   26.4372 H   0  0  0  0  0  0  0  0  0  0  0  0
    9.1257   -5.9021   28.9399 H   0  0  0  0  0  0  0  0  0  0  0  0
    9.5814   -7.5840   28.6486 H   0  0  0  0  0  0  0  0  0  0  0  0
   11.1319   -5.3094   28.0513 H   0  0  0  0  0  0  0  0  0  0  0  0
   11.4591   -6.9570   27.5118 H   0  0  0  0  0  0  0  0  0  0  0  0
   11.3214   -5.0711   25.7158 H   0  0  0  0  0  0  0  0  0  0  0  0
   10.4496   -6.5786   25.3788 H   0  0  0  0  0  0  0  0  0  0  0  0
    9.8155    0.9894   24.7339 H   0  0  0  0  0  0  0  0  0  0  0  0
    9.5584    1.9798   23.3178 H   0  0  0  0  0  0  0  0  0  0  0  0
    8.1278    0.3254   23.5142 H   0  0  0  0  0  0  0  0  0  0  0  0
    7.1015    0.3608   17.0505 H   0  0  0  0  0  0  0  0  0  0  0  0
    8.1354   -1.7990   21.3694 H   0  0  0  0  0  0  0  0  0  0  0  0
  1  3  1  0  0  0  0
  1  4  2  0  0  0  0
  2  5  1  0  0  0  0
  2  6  2  0  0  0  0
  3  7  2  0  0  0  0
  4  8  1  0  0  0  0
  5 11  2  0  0  0  0
  6 14  1  0  0  0  0
  7 15  1  0  0  0  0
  8 15  2  0  0  0  0
  9 12  2  0  0  0  0
  9 16  1  0  0  0  0
 10 13  1  0  0  0  0
 10 16  2  0  0  0  0
 11 17  1  0  0  0  0
 12 18  1  0  0  0  0
 13 18  2  0  0  0  0
 14 17  2  0  0  0  0
 14 19  1  0  0  0  0
 15 26  1  0  0  0  0
 16 27  1  0  0  0  0
 17 29  1  0  0  0  0
 18 30  1  0  0  0  0
 19 28  2  0  0  0  0
 19 31  1  0  0  0  0
 20 22  1  0  0  0  0
 20 30  1  0  0  0  0
 20 32  2  0  0  0  0
 21 27  1  6  0  0  0
 21 31  1  0  0  0  0
 21 33  2  0  0  0  0
 22 23  1  0  0  0  0
 23 24  1  0  0  0  0
 24 25  1  0  0  0  0
 25 30  1  0  0  0  0
 26 27  1  0  0  0  0
 28 29  1  0  0  0  0
  1 34  1  0  0  0  0
  2 35  1  0  0  0  0
  3 36  1  0  0  0  0
  4 37  1  0  0  0  0
  5 38  1  0  0  0  0
  6 39  1  0  0  0  0
  7 40  1  0  0  0  0
  8 41  1  0  0  0  0
  9 42  1  0  0  0  0
 10 43  1  0  0  0  0
 11 44  1  0  0  0  0
 12 45  1  0  0  0  0
 13 46  1  0  0  0  0
 22 47  1  0  0  0  0
 22 48  1  0  0  0  0
 23 49  1  0  0  0  0
 23 50  1  0  0  0  0
 24 51  1  0  0  0  0
 24 52  1  0  0  0  0
 25 53  1  0  0  0  0
 25 54  1  0  0  0  0
 26 55  1  0  0  0  0
 26 56  1  0  0  0  0
 27 57  1  0  0  0  0
 29 58  1  0  0  0  0
 31 59  1  0  0  0  0
M  END
> <clash_score>
1.2728248649063287

> <docking_score>
-5.9512224197387695

> <overlap_score>
1.0258839130401611

$$$$
BENZO_244_2
  -OEChem-08222022403D

 56 60  0     1  0  0  0  0  0999 V2000
    4.2970    1.6690   20.8430 C   0  0  0  0  0  0  0  0  0  0  0  0
    4.0980    2.1130   19.5350 C   0  0  0  0  0  0  0  0  0  0  0  0
    5.3360    0.8000   21.1530 C   0  0  0  0  0  0  0  0  0  0  0  0
    8.3510   -1.5420   24.6110 C   0  0  0  0  0  0  0  0  0  0  0  0
   10.2760   -2.3270   23.4020 C   0  0  0  0  0  0  0  0  0  0  0  0
    4.9400    1.7060   18.5060 C   0  0  0  0  0  0  0  0  0  0  0  0
    8.3310   -2.7170   25.3430 C   0  0  0  0  0  0  0  0  0  0  0  0
   10.2570   -3.5000   24.1350 C   0  0  0  0  0  0  0  0  0  0  0  0
   12.2126    2.3973   23.3679 C   0  0  0  0  0  0  0  0  0  0  0  0
   13.5630    2.2184   23.1632 C   0  0  0  0  0  0  0  0  0  0  0  0
   12.3560    0.0789   23.2868 C   0  0  0  0  0  0  0  0  0  0  0  0
    6.1600    0.3870   20.1140 C   0  0  0  0  0  0  0  0  0  0  0  0
    9.3300   -1.3350   23.6390 C   0  0  0  0  0  0  0  0  0  0  0  0
   11.5133    1.1580   23.4397 C   0  0  0  0  0  0  0  0  0  0  0  0
    5.9810    0.8330   18.8060 C   0  0  0  0  0  0  0  0  0  0  0  0
    9.2850   -3.7090   25.1090 C   0  0  0  0  0  0  0  0  0  0  0  0
    7.2210   -0.4620   20.0350 C   0  0  0  0  0  0  0  0  0  0  0  0
    8.0643   -5.4721   26.3672 C   0  0  0  0  0  0  0  0  0  0  0  0
    8.9510    0.1280   21.6880 C   0  0  0  0  0  0  0  0  0  0  0  0
    8.2649   -6.7591   27.1477 C   0  0  0  0  0  0  0  0  0  0  0  0
    9.4073   -6.6157   28.1377 C   0  0  0  0  0  0  0  0  0  0  0  0
   10.6967   -6.1489   27.4694 C   0  0  0  0  0  0  0  0  0  0  0  0
   10.4950   -5.7059   26.0212 C   0  0  0  0  0  0  0  0  0  0  0  0
   10.0220    1.0430   23.6570 C   0  0  0  0  0  0  0  0  0  0  0  0
    9.4200   -0.0840   22.9530 C   0  0  2  0  0  0  0  0  0  0  0  0
    7.6830   -0.5170   18.7600 N   0  0  0  0  0  0  0  0  0  0  0  0
    6.9440    0.2550   18.0100 N   0  0  0  0  0  0  0  0  0  0  0  0
    9.2624   -4.9267   25.8634 N   0  0  0  0  0  0  0  0  0  0  0  0
    8.0810   -0.9750   21.0820 N   0  0  0  0  0  0  0  0  0  0  0  0
    6.9247   -5.0497   26.1749 O   0  0  0  0  0  0  0  0  0  0  0  0
    9.1870    1.1500   21.0630 O   0  0  0  0  0  0  0  0  0  0  0  0
   13.9830    0.5616   23.0583 S   0  0  0  0  0  0  0  0  0  0  0  0
    3.6274    2.0126   21.6300 H   0  0  0  0  0  0  0  0  0  0  0  0
    3.2732    2.7875   19.3199 H   0  0  0  0  0  0  0  0  0  0  0  0
    5.4878    0.4645   22.1722 H   0  0  0  0  0  0  0  0  0  0  0  0
    7.5948   -0.7783   24.7966 H   0  0  0  0  0  0  0  0  0  0  0  0
   11.0389   -2.1844   22.6342 H   0  0  0  0  0  0  0  0  0  0  0  0
    4.7853    2.0674   17.4815 H   0  0  0  0  0  0  0  0  0  0  0  0
    7.5642   -2.8624   26.1050 H   0  0  0  0  0  0  0  0  0  0  0  0
   11.0137   -4.2649   23.9418 H   0  0  0  0  0  0  0  0  0  0  0  0
   11.7523    3.3729   23.4608 H   0  0  0  0  0  0  0  0  0  0  0  0
   14.3230    2.9812   23.0695 H   0  0  0  0  0  0  0  0  0  0  0  0
   12.0981   -0.9711   23.2966 H   0  0  0  0  0  0  0  0  0  0  0  0
    7.3543   -6.9829   27.6818 H   0  0  0  0  0  0  0  0  0  0  0  0
    8.4783   -7.5436   26.4372 H   0  0  0  0  0  0  0  0  0  0  0  0
    9.1257   -5.9021   28.9399 H   0  0  0  0  0  0  0  0  0  0  0  0
    9.5814   -7.5840   28.6486 H   0  0  0  0  0  0  0  0  0  0  0  0
   11.1319   -5.3094   28.0513 H   0  0  0  0  0  0  0  0  0  0  0  0
   11.4591   -6.9570   27.5118 H   0  0  0  0  0  0  0  0  0  0  0  0
   11.3214   -5.0711   25.7158 H   0  0  0  0  0  0  0  0  0  0  0  0
   10.4496   -6.5786   25.3788 H   0  0  0  0  0  0  0  0  0  0  0  0
    9.8155    0.9894   24.7339 H   0  0  0  0  0  0  0  0  0  0  0  0
    9.5584    1.9798   23.3178 H   0  0  0  0  0  0  0  0  0  0  0  0
    8.1278    0.3254   23.5142 H   0  0  0  0  0  0  0  0  0  0  0  0
    7.1015    0.3608   17.0505 H   0  0  0  0  0  0  0  0  0  0  0  0
    8.1354   -1.7990   21.3694 H   0  0  0  0  0  0  0  0  0  0  0  0
  1  2  1  0  0  0  0
  1  3  2  0  0  0  0
  2  6  2  0  0  0  0
  3 12  1  0  0  0  0
  4  7  2  0  0  0  0
  4 13  1  0  0  0  0
  5  8  1  0  0  0  0
  5 13  2  0  0  0  0
  6 15  1  0  0  0  0
  7 16  1  0  0  0  0
  8 16  2  0  0  0  0
  9 10  2  0  0  0  0
  9 14  1  0  0  0  0
 10 32  1  0  0  0  0
 11 14  2  0  0  0  0
 11 32  1  0  0  0  0
 12 15  2  0  0  0  0
 12 17  1  0  0  0  0
 13 25  1  0  0  0  0
 14 24  1  0  0  0  0
 15 27  1  0  0  0  0
 16 28  1  0  0  0  0
 17 26  2  0  0  0  0
 17 29  1  0  0  0  0
 18 20  1  0  0  0  0
 18 28  1  0  0  0  0
 18 30  2  0  0  0  0
 19 25  1  6  0  0  0
 19 29  1  0  0  0  0
 19 31  2  0  0  0  0
 20 21  1  0  0  0  0
 21 22  1  0  0  0  0
 22 23  1  0  0  0  0
 23 28  1  0  0  0  0
 24 25  1  0  0  0  0
 26 27  1  0  0  0  0
  1 33  1  0  0  0  0
  2 34  1  0  0  0  0
  3 35  1  0  0  0  0
  4 36  1  0  0  0  0
  5 37  1  0  0  0  0
  6 38  1  0  0  0  0
  7 39  1  0  0  0  0
  8 40  1  0  0  0  0
  9 41  1  0  0  0  0
 10 42  1  0  0  0  0
 11 43  1  0  0  0  0
 20 44  1  0  0  0  0
 20 45  1  0  0  0  0
 21 46  1  0  0  0  0
 21 47  1  0  0  0  0
 22 48  1  0  0  0  0
 22 49  1  0  0  0  0
 23 50  1  0  0  0  0
 23 51  1  0  0  0  0
 24 52  1  0  0  0  0
 24 53  1  0  0  0  0
 25 54  1  0  0  0  0
 27 55  1  0  0  0  0
 29 56  1  0  0  0  0
M  END
> <clash_score>
1.2728248649063287

> <docking_score>
-6.76043701171875

> <overlap_score>
1.0132300853729248

$$$$
BENZO_244_1
  -OEChem-08222022403D

 56 60  0     1  0  0  0  0  0999 V2000
    4.2970    1.6690   20.8430 C   0  0  0  0  0  0  0  0  0  0  0  0
    4.0980    2.1130   19.5350 C   0  0  0  0  0  0  0  0  0  0  0  0
    5.3360    0.8000   21.1530 C   0  0  0  0  0  0  0  0  0  0  0  0
    8.3510   -1.5420   24.6110 C   0  0  0  0  0  0  0  0  0  0  0  0
   10.2760   -2.3270   23.4020 C   0  0  0  0  0  0  0  0  0  0  0  0
    4.9400    1.7060   18.5060 C   0  0  0  0  0  0  0  0  0  0  0  0
    8.3310   -2.7170   25.3430 C   0  0  0  0  0  0  0  0  0  0  0  0
   10.2570   -3.5000   24.1350 C   0  0  0  0  0  0  0  0  0  0  0  0
   11.0518    0.9846   26.0345 C   0  0  0  0  0  0  0  0  0  0  0  0
   12.1353    0.4810   26.7201 C   0  0  0  0  0  0  0  0  0  0  0  0
   12.1840   -0.1301   24.3381 C   0  0  0  0  0  0  0  0  0  0  0  0
    6.1600    0.3870   20.1140 C   0  0  0  0  0  0  0  0  0  0  0  0
    9.3300   -1.3350   23.6390 C   0  0  0  0  0  0  0  0  0  0  0  0
   11.0798    0.6306   24.6546 C   0  0  0  0  0  0  0  0  0  0  0  0
    5.9810    0.8330   18.8060 C   0  0  0  0  0  0  0  0  0  0  0  0
    9.2850   -3.7090   25.1090 C   0  0  0  0  0  0  0  0  0  0  0  0
    7.2210   -0.4620   20.0350 C   0  0  0  0  0  0  0  0  0  0  0  0
    8.0643   -5.4721   26.3672 C   0  0  0  0  0  0  0  0  0  0  0  0
    8.9510    0.1280   21.6880 C   0  0  0  0  0  0  0  0  0  0  0  0
    8.2649   -6.7591   27.1477 C   0  0  0  0  0  0  0  0  0  0  0  0
    9.4073   -6.6157   28.1377 C   0  0  0  0  0  0  0  0  0  0  0  0
   10.6967   -6.1489   27.4694 C   0  0  0  0  0  0  0  0  0  0  0  0
   10.4950   -5.7059   26.0212 C   0  0  0  0  0  0  0  0  0  0  0  0
   10.0220    1.0430   23.6570 C   0  0  0  0  0  0  0  0  0  0  0  0
    9.4200   -0.0840   22.9530 C   0  0  1  0  0  0  0  0  0  0  0  0
    7.6830   -0.5170   18.7600 N   0  0  0  0  0  0  0  0  0  0  0  0
    6.9440    0.2550   18.0100 N   0  0  0  0  0  0  0  0  0  0  0  0
    9.2624   -4.9267   25.8634 N   0  0  0  0  0  0  0  0  0  0  0  0
    8.0810   -0.9750   21.0820 N   0  0  0  0  0  0  0  0  0  0  0  0
    6.9247   -5.0497   26.1749 O   0  0  0  0  0  0  0  0  0  0  0  0
    9.1870    1.1500   21.0630 O   0  0  0  0  0  0  0  0  0  0  0  0
   13.1804   -0.4146   25.7013 S   0  0  0  0  0  0  0  0  0  0  0  0
    3.6274    2.0126   21.6300 H   0  0  0  0  0  0  0  0  0  0  0  0
    3.2732    2.7875   19.3199 H   0  0  0  0  0  0  0  0  0  0  0  0
    5.4878    0.4645   22.1722 H   0  0  0  0  0  0  0  0  0  0  0  0
    7.5948   -0.7783   24.7966 H   0  0  0  0  0  0  0  0  0  0  0  0
   11.0389   -2.1844   22.6342 H   0  0  0  0  0  0  0  0  0  0  0  0
    4.7853    2.0674   17.4815 H   0  0  0  0  0  0  0  0  0  0  0  0
    7.5642   -2.8624   26.1050 H   0  0  0  0  0  0  0  0  0  0  0  0
   11.0137   -4.2649   23.9418 H   0  0  0  0  0  0  0  0  0  0  0  0
   10.2782    1.5788   26.5045 H   0  0  0  0  0  0  0  0  0  0  0  0
   12.3635    0.5966   27.7702 H   0  0  0  0  0  0  0  0  0  0  0  0
   12.4574   -0.5333   23.3728 H   0  0  0  0  0  0  0  0  0  0  0  0
    7.3543   -6.9829   27.6818 H   0  0  0  0  0  0  0  0  0  0  0  0
    8.4783   -7.5436   26.4372 H   0  0  0  0  0  0  0  0  0  0  0  0
    9.1257   -5.9021   28.9399 H   0  0  0  0  0  0  0  0  0  0  0  0
    9.5814   -7.5840   28.6486 H   0  0  0  0  0  0  0  0  0  0  0  0
   11.1319   -5.3094   28.0513 H   0  0  0  0  0  0  0  0  0  0  0  0
   11.4591   -6.9570   27.5118 H   0  0  0  0  0  0  0  0  0  0  0  0
   11.3214   -5.0711   25.7158 H   0  0  0  0  0  0  0  0  0  0  0  0
   10.4496   -6.5786   25.3788 H   0  0  0  0  0  0  0  0  0  0  0  0
    9.2564    1.6421   24.1671 H   0  0  0  0  0  0  0  0  0  0  0  0
   10.4893    1.7237   22.9318 H   0  0  0  0  0  0  0  0  0  0  0  0
   10.7366   -0.4277   22.4442 H   0  0  0  0  0  0  0  0  0  0  0  0
    7.1015    0.3608   17.0505 H   0  0  0  0  0  0  0  0  0  0  0  0
    8.1354   -1.7990   21.3694 H   0  0  0  0  0  0  0  0  0  0  0  0
  1  2  1  0  0  0  0
  1  3  2  0  0  0  0
  2  6  2  0  0  0  0
  3 12  1  0  0  0  0
  4  7  2  0  0  0  0
  4 13  1  0  0  0  0
  5  8  1  0  0  0  0
  5 13  2  0  0  0  0
  6 15  1  0  0  0  0
  7 16  1  0  0  0  0
  8 16  2  0  0  0  0
  9 10  2  0  0  0  0
  9 14  1  0  0  0  0
 10 32  1  0  0  0  0
 11 14  2  0  0  0  0
 11 32  1  0  0  0  0
 12 15  2  0  0  0  0
 12 17  1  0  0  0  0
 13 25  1  0  0  0  0
 14 24  1  0  0  0  0
 15 27  1  0  0  0  0
 16 28  1  0  0  0  0
 17 26  2  0  0  0  0
 17 29  1  0  0  0  0
 18 20  1  0  0  0  0
 18 28  1  0  0  0  0
 18 30  2  0  0  0  0
 19 25  1  1  0  0  0
 19 29  1  0  0  0  0
 19 31  2  0  0  0  0
 20 21  1  0  0  0  0
 21 22  1  0  0  0  0
 22 23  1  0  0  0  0
 23 28  1  0  0  0  0
 24 25  1  0  0  0  0
 26 27  1  0  0  0  0
  1 33  1  0  0  0  0
  2 34  1  0  0  0  0
  3 35  1  0  0  0  0
  4 36  1  0  0  0  0
  5 37  1  0  0  0  0
  6 38  1  0  0  0  0
  7 39  1  0  0  0  0
  8 40  1  0  0  0  0
  9 41  1  0  0  0  0
 10 42  1  0  0  0  0
 11 43  1  0  0  0  0
 20 44  1  0  0  0  0
 20 45  1  0  0  0  0
 21 46  1  0  0  0  0
 21 47  1  0  0  0  0
 22 48  1  0  0  0  0
 22 49  1  0  0  0  0
 23 50  1  0  0  0  0
 23 51  1  0  0  0  0
 24 52  1  0  0  0  0
 24 53  1  0  0  0  0
 25 54  1  0  0  0  0
 27 55  1  0  0  0  0
 29 56  1  0  0  0  0
M  END
> <clash_score>
1.2728248649063287

> <docking_score>
-3.9767751693725586

> <overlap_score>
0.8992475271224976

$$$$
BENZO_246_1
  -OEChem-08222022403D

 59 63  0     1  0  0  0  0  0999 V2000
    4.2970    1.6690   20.8430 C   0  0  0  0  0  0  0  0  0  0  0  0
    4.0980    2.1130   19.5350 C   0  0  0  0  0  0  0  0  0  0  0  0
   13.7706    0.6101   24.1094 C   0  0  0  0  0  0  0  0  0  0  0  0
    5.3360    0.8000   21.1530 C   0  0  0  0  0  0  0  0  0  0  0  0
   12.5330    0.9096   23.5401 C   0  0  0  0  0  0  0  0  0  0  0  0
    8.3510   -1.5420   24.6110 C   0  0  0  0  0  0  0  0  0  0  0  0
   10.2760   -2.3270   23.4020 C   0  0  0  0  0  0  0  0  0  0  0  0
    4.9400    1.7060   18.5060 C   0  0  0  0  0  0  0  0  0  0  0  0
    8.3310   -2.7170   25.3430 C   0  0  0  0  0  0  0  0  0  0  0  0
   10.2570   -3.5000   24.1350 C   0  0  0  0  0  0  0  0  0  0  0  0
   13.8379    0.1181   25.4130 C   0  0  0  0  0  0  0  0  0  0  0  0
   11.4299    0.2252   25.5777 C   0  0  0  0  0  0  0  0  0  0  0  0
    6.1600    0.3870   20.1140 C   0  0  0  0  0  0  0  0  0  0  0  0
    9.3300   -1.3350   23.6390 C   0  0  0  0  0  0  0  0  0  0  0  0
   11.3626    0.7171   24.2742 C   0  0  0  0  0  0  0  0  0  0  0  0
    5.9810    0.8330   18.8060 C   0  0  0  0  0  0  0  0  0  0  0  0
    9.2850   -3.7090   25.1090 C   0  0  0  0  0  0  0  0  0  0  0  0
   12.6676   -0.0743   26.1471 C   0  0  0  0  0  0  0  0  0  0  0  0
    7.2210   -0.4620   20.0350 C   0  0  0  0  0  0  0  0  0  0  0  0
    8.0643   -5.4721   26.3672 C   0  0  0  0  0  0  0  0  0  0  0  0
    8.9510    0.1280   21.6880 C   0  0  0  0  0  0  0  0  0  0  0  0
    8.2649   -6.7591   27.1477 C   0  0  0  0  0  0  0  0  0  0  0  0
    9.4073   -6.6157   28.1377 C   0  0  0  0  0  0  0  0  0  0  0  0
   10.6967   -6.1489   27.4694 C   0  0  0  0  0  0  0  0  0  0  0  0
   10.4950   -5.7059   26.0212 C   0  0  0  0  0  0  0  0  0  0  0  0
   10.0220    1.0430   23.6570 C   0  0  0  0  0  0  0  0  0  0  0  0
    9.4200   -0.0840   22.9530 C   0  0  1  0  0  0  0  0  0  0  0  0
    7.6830   -0.5170   18.7600 N   0  0  0  0  0  0  0  0  0  0  0  0
    6.9440    0.2550   18.0100 N   0  0  0  0  0  0  0  0  0  0  0  0
    9.2624   -4.9267   25.8634 N   0  0  0  0  0  0  0  0  0  0  0  0
    8.0810   -0.9750   21.0820 N   0  0  0  0  0  0  0  0  0  0  0  0
    6.9247   -5.0497   26.1749 O   0  0  0  0  0  0  0  0  0  0  0  0
    9.1870    1.1500   21.0630 O   0  0  0  0  0  0  0  0  0  0  0  0
   12.7514   -0.6802   27.7557 Cl  0  0  0  0  0  0  0  0  0  0  0  0
    3.6274    2.0126   21.6300 H   0  0  0  0  0  0  0  0  0  0  0  0
    3.2732    2.7875   19.3199 H   0  0  0  0  0  0  0  0  0  0  0  0
   14.6817    0.7602   23.5375 H   0  0  0  0  0  0  0  0  0  0  0  0
    5.4878    0.4645   22.1722 H   0  0  0  0  0  0  0  0  0  0  0  0
   12.4900    1.2926   22.5238 H   0  0  0  0  0  0  0  0  0  0  0  0
    7.5948   -0.7783   24.7966 H   0  0  0  0  0  0  0  0  0  0  0  0
   11.0389   -2.1844   22.6342 H   0  0  0  0  0  0  0  0  0  0  0  0
    4.7853    2.0674   17.4815 H   0  0  0  0  0  0  0  0  0  0  0  0
    7.5642   -2.8624   26.1050 H   0  0  0  0  0  0  0  0  0  0  0  0
   11.0137   -4.2649   23.9418 H   0  0  0  0  0  0  0  0  0  0  0  0
   14.8095   -0.1107   25.8440 H   0  0  0  0  0  0  0  0  0  0  0  0
   10.5145    0.0764   26.1458 H   0  0  0  0  0  0  0  0  0  0  0  0
    7.3543   -6.9829   27.6818 H   0  0  0  0  0  0  0  0  0  0  0  0
    8.4783   -7.5436   26.4372 H   0  0  0  0  0  0  0  0  0  0  0  0
    9.1257   -5.9021   28.9399 H   0  0  0  0  0  0  0  0  0  0  0  0
    9.5814   -7.5840   28.6486 H   0  0  0  0  0  0  0  0  0  0  0  0
   11.1319   -5.3094   28.0513 H   0  0  0  0  0  0  0  0  0  0  0  0
   11.4591   -6.9570   27.5118 H   0  0  0  0  0  0  0  0  0  0  0  0
   11.3214   -5.0711   25.7158 H   0  0  0  0  0  0  0  0  0  0  0  0
   10.4496   -6.5786   25.3788 H   0  0  0  0  0  0  0  0  0  0  0  0
    9.3482    1.4259   24.4346 H   0  0  0  0  0  0  0  0  0  0  0  0
   10.1663    1.8793   22.9589 H   0  0  0  0  0  0  0  0  0  0  0  0
   10.7366   -0.4277   22.4442 H   0  0  0  0  0  0  0  0  0  0  0  0
    7.1015    0.3608   17.0505 H   0  0  0  0  0  0  0  0  0  0  0  0
    8.1354   -1.7990   21.3694 H   0  0  0  0  0  0  0  0  0  0  0  0
  1  2  1  0  0  0  0
  1  4  2  0  0  0  0
  2  8  2  0  0  0  0
  3  5  2  0  0  0  0
  3 11  1  0  0  0  0
  4 13  1  0  0  0  0
  5 15  1  0  0  0  0
  6  9  2  0  0  0  0
  6 14  1  0  0  0  0
  7 10  1  0  0  0  0
  7 14  2  0  0  0  0
  8 16  1  0  0  0  0
  9 17  1  0  0  0  0
 10 17  2  0  0  0  0
 11 18  2  0  0  0  0
 12 15  2  0  0  0  0
 12 18  1  0  0  0  0
 13 16  2  0  0  0  0
 13 19  1  0  0  0  0
 14 27  1  0  0  0  0
 15 26  1  0  0  0  0
 16 29  1  0  0  0  0
 17 30  1  0  0  0  0
 18 34  1  0  0  0  0
 19 28  2  0  0  0  0
 19 31  1  0  0  0  0
 20 22  1  0  0  0  0
 20 30  1  0  0  0  0
 20 32  2  0  0  0  0
 21 27  1  1  0  0  0
 21 31  1  0  0  0  0
 21 33  2  0  0  0  0
 22 23  1  0  0  0  0
 23 24  1  0  0  0  0
 24 25  1  0  0  0  0
 25 30  1  0  0  0  0
 26 27  1  0  0  0  0
 28 29  1  0  0  0  0
  1 35  1  0  0  0  0
  2 36  1  0  0  0  0
  3 37  1  0  0  0  0
  4 38  1  0  0  0  0
  5 39  1  0  0  0  0
  6 40  1  0  0  0  0
  7 41  1  0  0  0  0
  8 42  1  0  0  0  0
  9 43  1  0  0  0  0
 10 44  1  0  0  0  0
 11 45  1  0  0  0  0
 12 46  1  0  0  0  0
 22 47  1  0  0  0  0
 22 48  1  0  0  0  0
 23 49  1  0  0  0  0
 23 50  1  0  0  0  0
 24 51  1  0  0  0  0
 24 52  1  0  0  0  0
 25 53  1  0  0  0  0
 25 54  1  0  0  0  0
 26 55  1  0  0  0  0
 26 56  1  0  0  0  0
 27 57  1  0  0  0  0
 29 58  1  0  0  0  0
 31 59  1  0  0  0  0
M  END
> <clash_score>
2.837865166907086

> <docking_score>
-4.058631420135498

> <overlap_score>
0.9476150870323181

$$$$
BENZO_247_1
  -OEChem-08222022403D

 59 63  0     1  0  0  0  0  0999 V2000
    4.2970    1.6690   20.8430 C   0  0  0  0  0  0  0  0  0  0  0  0
    4.0980    2.1130   19.5350 C   0  0  0  0  0  0  0  0  0  0  0  0
    5.3360    0.8000   21.1530 C   0  0  0  0  0  0  0  0  0  0  0  0
    8.3510   -1.5420   24.6110 C   0  0  0  0  0  0  0  0  0  0  0  0
   10.2760   -2.3270   23.4020 C   0  0  0  0  0  0  0  0  0  0  0  0
    4.9400    1.7060   18.5060 C   0  0  0  0  0  0  0  0  0  0  0  0
    8.3310   -2.7170   25.3430 C   0  0  0  0  0  0  0  0  0  0  0  0
   10.2570   -3.5000   24.1350 C   0  0  0  0  0  0  0  0  0  0  0  0
   12.2990    2.3261   23.4415 C   0  0  0  0  0  0  0  0  0  0  0  0
   12.4071    0.1434   23.1983 C   0  0  0  0  0  0  0  0  0  0  0  0
    6.1600    0.3870   20.1140 C   0  0  0  0  0  0  0  0  0  0  0  0
    9.3300   -1.3350   23.6390 C   0  0  0  0  0  0  0  0  0  0  0  0
   11.5133    1.1580   23.4397 C   0  0  0  0  0  0  0  0  0  0  0  0
    5.9810    0.8330   18.8060 C   0  0  0  0  0  0  0  0  0  0  0  0
    9.2850   -3.7090   25.1090 C   0  0  0  0  0  0  0  0  0  0  0  0
    7.2210   -0.4620   20.0350 C   0  0  0  0  0  0  0  0  0  0  0  0
    8.0643   -5.4721   26.3672 C   0  0  0  0  0  0  0  0  0  0  0  0
    8.9510    0.1280   21.6880 C   0  0  0  0  0  0  0  0  0  0  0  0
    8.2649   -6.7591   27.1477 C   0  0  0  0  0  0  0  0  0  0  0  0
    9.4073   -6.6157   28.1377 C   0  0  0  0  0  0  0  0  0  0  0  0
   10.6967   -6.1489   27.4694 C   0  0  0  0  0  0  0  0  0  0  0  0
   10.4950   -5.7059   26.0212 C   0  0  0  0  0  0  0  0  0  0  0  0
   14.8827    0.0808   22.8159 C   0  0  0  0  0  0  0  0  0  0  0  0
   10.0220    1.0430   23.6570 C   0  0  0  0  0  0  0  0  0  0  0  0
    9.4200   -0.0840   22.9530 C   0  0  1  0  0  0  0  0  0  0  0  0
   13.5924    2.0778   23.2192 N   0  0  0  0  0  0  0  0  0  0  0  0
    7.6830   -0.5170   18.7600 N   0  0  0  0  0  0  0  0  0  0  0  0
    6.9440    0.2550   18.0100 N   0  0  0  0  0  0  0  0  0  0  0  0
   13.6264    0.7421   23.0755 N   0  0  0  0  0  0  0  0  0  0  0  0
    9.2624   -4.9267   25.8634 N   0  0  0  0  0  0  0  0  0  0  0  0
    8.0810   -0.9750   21.0820 N   0  0  0  0  0  0  0  0  0  0  0  0
    6.9247   -5.0497   26.1749 O   0  0  0  0  0  0  0  0  0  0  0  0
    9.1870    1.1500   21.0630 O   0  0  0  0  0  0  0  0  0  0  0  0
    3.6274    2.0126   21.6300 H   0  0  0  0  0  0  0  0  0  0  0  0
    3.2732    2.7875   19.3199 H   0  0  0  0  0  0  0  0  0  0  0  0
    5.4878    0.4645   22.1722 H   0  0  0  0  0  0  0  0  0  0  0  0
    7.5948   -0.7783   24.7966 H   0  0  0  0  0  0  0  0  0  0  0  0
   11.0389   -2.1844   22.6342 H   0  0  0  0  0  0  0  0  0  0  0  0
    4.7853    2.0674   17.4815 H   0  0  0  0  0  0  0  0  0  0  0  0
    7.5642   -2.8624   26.1050 H   0  0  0  0  0  0  0  0  0  0  0  0
   11.0137   -4.2649   23.9418 H   0  0  0  0  0  0  0  0  0  0  0  0
   11.9854    3.3488   23.5963 H   0  0  0  0  0  0  0  0  0  0  0  0
   12.2826   -0.9272   23.1071 H   0  0  0  0  0  0  0  0  0  0  0  0
    7.3543   -6.9829   27.6818 H   0  0  0  0  0  0  0  0  0  0  0  0
    8.4783   -7.5436   26.4372 H   0  0  0  0  0  0  0  0  0  0  0  0
    9.1257   -5.9021   28.9399 H   0  0  0  0  0  0  0  0  0  0  0  0
    9.5814   -7.5840   28.6486 H   0  0  0  0  0  0  0  0  0  0  0  0
   11.1319   -5.3094   28.0513 H   0  0  0  0  0  0  0  0  0  0  0  0
   11.4591   -6.9570   27.5118 H   0  0  0  0  0  0  0  0  0  0  0  0
   11.3214   -5.0711   25.7158 H   0  0  0  0  0  0  0  0  0  0  0  0
   10.4496   -6.5786   25.3788 H   0  0  0  0  0  0  0  0  0  0  0  0
   15.0210    0.0326   21.7326 H   0  0  0  0  0  0  0  0  0  0  0  0
   15.6949    0.6470   23.2802 H   0  0  0  0  0  0  0  0  0  0  0  0
   14.8568   -0.9251   23.2443 H   0  0  0  0  0  0  0  0  0  0  0  0
    9.8155    0.9894   24.7339 H   0  0  0  0  0  0  0  0  0  0  0  0
    9.5584    1.9798   23.3178 H   0  0  0  0  0  0  0  0  0  0  0  0
    8.1278    0.3254   23.5142 H   0  0  0  0  0  0  0  0  0  0  0  0
    7.1015    0.3608   17.0505 H   0  0  0  0  0  0  0  0  0  0  0  0
    8.1354   -1.7990   21.3694 H   0  0  0  0  0  0  0  0  0  0  0  0
  1  2  1  0  0  0  0
  1  3  2  0  0  0  0
  2  6  2  0  0  0  0
  3 11  1  0  0  0  0
  4  7  2  0  0  0  0
  4 12  1  0  0  0  0
  5  8  1  0  0  0  0
  5 12  2  0  0  0  0
  6 14  1  0  0  0  0
  7 15  1  0  0  0  0
  8 15  2  0  0  0  0
  9 13  1  0  0  0  0
  9 26  2  0  0  0  0
 10 13  2  0  0  0  0
 10 29  1  0  0  0  0
 11 14  2  0  0  0  0
 11 16  1  0  0  0  0
 12 25  1  0  0  0  0
 13 24  1  0  0  0  0
 14 28  1  0  0  0  0
 15 30  1  0  0  0  0
 16 27  2  0  0  0  0
 16 31  1  0  0  0  0
 17 19  1  0  0  0  0
 17 30  1  0  0  0  0
 17 32  2  0  0  0  0
 18 25  1  0  0  0  0
 18 31  1  0  0  0  0
 18 33  2  0  0  0  0
 19 20  1  0  0  0  0
 20 21  1  0  0  0  0
 21 22  1  0  0  0  0
 22 30  1  0  0  0  0
 23 29  1  0  0  0  0
 24 25  1  1  0  0  0
 26 29  1  0  0  0  0
 27 28  1  0  0  0  0
  1 34  1  0  0  0  0
  2 35  1  0  0  0  0
  3 36  1  0  0  0  0
  4 37  1  0  0  0  0
  5 38  1  0  0  0  0
  6 39  1  0  0  0  0
  7 40  1  0  0  0  0
  8 41  1  0  0  0  0
  9 42  1  0  0  0  0
 10 43  1  0  0  0  0
 19 44  1  0  0  0  0
 19 45  1  0  0  0  0
 20 46  1  0  0  0  0
 20 47  1  0  0  0  0
 21 48  1  0  0  0  0
 21 49  1  0  0  0  0
 22 50  1  0  0  0  0
 22 51  1  0  0  0  0
 23 52  1  0  0  0  0
 23 53  1  0  0  0  0
 23 54  1  0  0  0  0
 24 55  1  0  0  0  0
 24 56  1  0  0  0  0
 25 57  1  0  0  0  0
 28 58  1  0  0  0  0
 31 59  1  0  0  0  0
M  END
> <clash_score>
1.2728248649063287

> <docking_score>
-6.642751693725586

> <overlap_score>
1.0278980731964111

$$$$
BENZO_246_2
  -OEChem-08222022403D

 59 63  0     1  0  0  0  0  0999 V2000
    4.2970    1.6690   20.8430 C   0  0  0  0  0  0  0  0  0  0  0  0
    4.0980    2.1130   19.5350 C   0  0  0  0  0  0  0  0  0  0  0  0
   13.7717    0.6099   24.1002 C   0  0  0  0  0  0  0  0  0  0  0  0
    5.3360    0.8000   21.1530 C   0  0  0  0  0  0  0  0  0  0  0  0
   12.3953    0.5052   24.3009 C   0  0  0  0  0  0  0  0  0  0  0  0
    8.3510   -1.5420   24.6110 C   0  0  0  0  0  0  0  0  0  0  0  0
   10.2760   -2.3270   23.4020 C   0  0  0  0  0  0  0  0  0  0  0  0
    4.9400    1.7060   18.5060 C   0  0  0  0  0  0  0  0  0  0  0  0
    8.3310   -2.7170   25.3430 C   0  0  0  0  0  0  0  0  0  0  0  0
   10.2570   -3.5000   24.1350 C   0  0  0  0  0  0  0  0  0  0  0  0
   14.2660    1.3675   23.0384 C   0  0  0  0  0  0  0  0  0  0  0  0
   12.0077    1.9155   22.3778 C   0  0  0  0  0  0  0  0  0  0  0  0
    6.1600    0.3870   20.1140 C   0  0  0  0  0  0  0  0  0  0  0  0
    9.3300   -1.3350   23.6390 C   0  0  0  0  0  0  0  0  0  0  0  0
   11.5133    1.1580   23.4397 C   0  0  0  0  0  0  0  0  0  0  0  0
    5.9810    0.8330   18.8060 C   0  0  0  0  0  0  0  0  0  0  0  0
    9.2850   -3.7090   25.1090 C   0  0  0  0  0  0  0  0  0  0  0  0
   13.3840    2.0203   22.1772 C   0  0  0  0  0  0  0  0  0  0  0  0
    7.2210   -0.4620   20.0350 C   0  0  0  0  0  0  0  0  0  0  0  0
    8.2936   -5.1727   26.8573 C   0  0  0  0  0  0  0  0  0  0  0  0
    8.9510    0.1280   21.6880 C   0  0  0  0  0  0  0  0  0  0  0  0
    8.4570   -6.5172   27.5438 C   0  0  0  0  0  0  0  0  0  0  0  0
    9.9041   -6.7452   27.9437 C   0  0  0  0  0  0  0  0  0  0  0  0
   10.8613   -6.5876   26.7664 C   0  0  0  0  0  0  0  0  0  0  0  0
   10.1902   -6.0099   25.5212 C   0  0  0  0  0  0  0  0  0  0  0  0
   10.0220    1.0430   23.6570 C   0  0  0  0  0  0  0  0  0  0  0  0
    9.4200   -0.0840   22.9530 C   0  0  2  0  0  0  0  0  0  0  0  0
    7.6830   -0.5170   18.7600 N   0  0  0  0  0  0  0  0  0  0  0  0
    6.9440    0.2550   18.0100 N   0  0  0  0  0  0  0  0  0  0  0  0
    9.2624   -4.9267   25.8634 N   0  0  0  0  0  0  0  0  0  0  0  0
    8.0810   -0.9750   21.0820 N   0  0  0  0  0  0  0  0  0  0  0  0
    7.3372   -4.4549   27.1472 O   0  0  0  0  0  0  0  0  0  0  0  0
    9.1870    1.1500   21.0630 O   0  0  0  0  0  0  0  0  0  0  0  0
   13.9945    2.9538   20.8667 Cl  0  0  0  0  0  0  0  0  0  0  0  0
    3.6274    2.0126   21.6300 H   0  0  0  0  0  0  0  0  0  0  0  0
    3.2732    2.7875   19.3199 H   0  0  0  0  0  0  0  0  0  0  0  0
   14.4581    0.1014   24.7709 H   0  0  0  0  0  0  0  0  0  0  0  0
    5.4878    0.4645   22.1722 H   0  0  0  0  0  0  0  0  0  0  0  0
   12.0190   -0.0873   25.1307 H   0  0  0  0  0  0  0  0  0  0  0  0
    7.5948   -0.7783   24.7966 H   0  0  0  0  0  0  0  0  0  0  0  0
   11.0389   -2.1844   22.6342 H   0  0  0  0  0  0  0  0  0  0  0  0
    4.7853    2.0674   17.4815 H   0  0  0  0  0  0  0  0  0  0  0  0
    7.5642   -2.8624   26.1050 H   0  0  0  0  0  0  0  0  0  0  0  0
   11.0137   -4.2649   23.9418 H   0  0  0  0  0  0  0  0  0  0  0  0
   15.3412    1.4401   22.8940 H   0  0  0  0  0  0  0  0  0  0  0  0
   11.3158    2.4230   21.7095 H   0  0  0  0  0  0  0  0  0  0  0  0
    7.8354   -6.5308   28.4258 H   0  0  0  0  0  0  0  0  0  0  0  0
    8.1327   -7.2802   26.8520 H   0  0  0  0  0  0  0  0  0  0  0  0
   10.1894   -6.0388   28.7510 H   0  0  0  0  0  0  0  0  0  0  0  0
   10.0147   -7.7577   28.3814 H   0  0  0  0  0  0  0  0  0  0  0  0
   11.7074   -5.9326   27.0628 H   0  0  0  0  0  0  0  0  0  0  0  0
   11.3252   -7.5678   26.5219 H   0  0  0  0  0  0  0  0  0  0  0  0
   10.9447   -5.5942   24.8603 H   0  0  0  0  0  0  0  0  0  0  0  0
    9.6472   -6.7947   25.0059 H   0  0  0  0  0  0  0  0  0  0  0  0
    9.8155    0.9894   24.7339 H   0  0  0  0  0  0  0  0  0  0  0  0
    9.5584    1.9798   23.3178 H   0  0  0  0  0  0  0  0  0  0  0  0
    8.1278    0.3254   23.5142 H   0  0  0  0  0  0  0  0  0  0  0  0
    7.1015    0.3608   17.0505 H   0  0  0  0  0  0  0  0  0  0  0  0
    8.1354   -1.7990   21.3694 H   0  0  0  0  0  0  0  0  0  0  0  0
  1  2  1  0  0  0  0
  1  4  2  0  0  0  0
  2  8  2  0  0  0  0
  3  5  2  0  0  0  0
  3 11  1  0  0  0  0
  4 13  1  0  0  0  0
  5 15  1  0  0  0  0
  6  9  2  0  0  0  0
  6 14  1  0  0  0  0
  7 10  1  0  0  0  0
  7 14  2  0  0  0  0
  8 16  1  0  0  0  0
  9 17  1  0  0  0  0
 10 17  2  0  0  0  0
 11 18  2  0  0  0  0
 12 15  2  0  0  0  0
 12 18  1  0  0  0  0
 13 16  2  0  0  0  0
 13 19  1  0  0  0  0
 14 27  1  0  0  0  0
 15 26  1  0  0  0  0
 16 29  1  0  0  0  0
 17 30  1  0  0  0  0
 18 34  1  0  0  0  0
 19 28  2  0  0  0  0
 19 31  1  0  0  0  0
 20 22  1  0  0  0  0
 20 30  1  0  0  0  0
 20 32  2  0  0  0  0
 21 27  1  6  0  0  0
 21 31  1  0  0  0  0
 21 33  2  0  0  0  0
 22 23  1  0  0  0  0
 23 24  1  0  0  0  0
 24 25  1  0  0  0  0
 25 30  1  0  0  0  0
 26 27  1  0  0  0  0
 28 29  1  0  0  0  0
  1 35  1  0  0  0  0
  2 36  1  0  0  0  0
  3 37  1  0  0  0  0
  4 38  1  0  0  0  0
  5 39  1  0  0  0  0
  6 40  1  0  0  0  0
  7 41  1  0  0  0  0
  8 42  1  0  0  0  0
  9 43  1  0  0  0  0
 10 44  1  0  0  0  0
 11 45  1  0  0  0  0
 12 46  1  0  0  0  0
 22 47  1  0  0  0  0
 22 48  1  0  0  0  0
 23 49  1  0  0  0  0
 23 50  1  0  0  0  0
 24 51  1  0  0  0  0
 24 52  1  0  0  0  0
 25 53  1  0  0  0  0
 25 54  1  0  0  0  0
 26 55  1  0  0  0  0
 26 56  1  0  0  0  0
 27 57  1  0  0  0  0
 29 58  1  0  0  0  0
 31 59  1  0  0  0  0
M  END
> <clash_score>
2.0601108515385818

> <docking_score>
-5.087080001831055

> <overlap_score>
1.0297893285751343

$$$$
BENZO_247_2
  -OEChem-08222022403D

 59 63  0     1  0  0  0  0  0999 V2000
    4.2970    1.6690   20.8430 C   0  0  0  0  0  0  0  0  0  0  0  0
    4.0980    2.1130   19.5350 C   0  0  0  0  0  0  0  0  0  0  0  0
    5.3360    0.8000   21.1530 C   0  0  0  0  0  0  0  0  0  0  0  0
    8.3510   -1.5420   24.6110 C   0  0  0  0  0  0  0  0  0  0  0  0
   10.2760   -2.3270   23.4020 C   0  0  0  0  0  0  0  0  0  0  0  0
    4.9400    1.7060   18.5060 C   0  0  0  0  0  0  0  0  0  0  0  0
    8.3310   -2.7170   25.3430 C   0  0  0  0  0  0  0  0  0  0  0  0
   10.2570   -3.5000   24.1350 C   0  0  0  0  0  0  0  0  0  0  0  0
   12.6370    0.8477   23.6904 C   0  0  0  0  0  0  0  0  0  0  0  0
   11.6104    0.2288   25.5338 C   0  0  0  0  0  0  0  0  0  0  0  0
    6.1600    0.3870   20.1140 C   0  0  0  0  0  0  0  0  0  0  0  0
    9.3300   -1.3350   23.6390 C   0  0  0  0  0  0  0  0  0  0  0  0
   11.3626    0.7171   24.2742 C   0  0  0  0  0  0  0  0  0  0  0  0
    5.9810    0.8330   18.8060 C   0  0  0  0  0  0  0  0  0  0  0  0
    9.2850   -3.7090   25.1090 C   0  0  0  0  0  0  0  0  0  0  0  0
    7.2210   -0.4620   20.0350 C   0  0  0  0  0  0  0  0  0  0  0  0
    8.0643   -5.4721   26.3672 C   0  0  0  0  0  0  0  0  0  0  0  0
    8.9510    0.1280   21.6880 C   0  0  0  0  0  0  0  0  0  0  0  0
    8.2649   -6.7591   27.1477 C   0  0  0  0  0  0  0  0  0  0  0  0
    9.4073   -6.6157   28.1377 C   0  0  0  0  0  0  0  0  0  0  0  0
   10.6967   -6.1489   27.4694 C   0  0  0  0  0  0  0  0  0  0  0  0
   10.4950   -5.7059   26.0212 C   0  0  0  0  0  0  0  0  0  0  0  0
   13.7058   -0.3764   26.7673 C   0  0  0  0  0  0  0  0  0  0  0  0
   10.0220    1.0430   23.6570 C   0  0  0  0  0  0  0  0  0  0  0  0
    9.4200   -0.0840   22.9530 C   0  0  2  0  0  0  0  0  0  0  0  0
   13.6213    0.4728   24.5118 N   0  0  0  0  0  0  0  0  0  0  0  0
    7.6830   -0.5170   18.7600 N   0  0  0  0  0  0  0  0  0  0  0  0
    6.9440    0.2550   18.0100 N   0  0  0  0  0  0  0  0  0  0  0  0
   12.9653    0.1019   25.6246 N   0  0  0  0  0  0  0  0  0  0  0  0
    9.2624   -4.9267   25.8634 N   0  0  0  0  0  0  0  0  0  0  0  0
    8.0810   -0.9750   21.0820 N   0  0  0  0  0  0  0  0  0  0  0  0
    6.9247   -5.0497   26.1749 O   0  0  0  0  0  0  0  0  0  0  0  0
    9.1870    1.1500   21.0630 O   0  0  0  0  0  0  0  0  0  0  0  0
    3.6274    2.0126   21.6300 H   0  0  0  0  0  0  0  0  0  0  0  0
    3.2732    2.7875   19.3199 H   0  0  0  0  0  0  0  0  0  0  0  0
    5.4878    0.4645   22.1722 H   0  0  0  0  0  0  0  0  0  0  0  0
    7.5948   -0.7783   24.7966 H   0  0  0  0  0  0  0  0  0  0  0  0
   11.0389   -2.1844   22.6342 H   0  0  0  0  0  0  0  0  0  0  0  0
    4.7853    2.0674   17.4815 H   0  0  0  0  0  0  0  0  0  0  0  0
    7.5642   -2.8624   26.1050 H   0  0  0  0  0  0  0  0  0  0  0  0
   11.0137   -4.2649   23.9418 H   0  0  0  0  0  0  0  0  0  0  0  0
   12.8920    1.2011   22.7013 H   0  0  0  0  0  0  0  0  0  0  0  0
   10.9543   -0.0315   26.3534 H   0  0  0  0  0  0  0  0  0  0  0  0
    7.3543   -6.9829   27.6818 H   0  0  0  0  0  0  0  0  0  0  0  0
    8.4783   -7.5436   26.4372 H   0  0  0  0  0  0  0  0  0  0  0  0
    9.1257   -5.9021   28.9399 H   0  0  0  0  0  0  0  0  0  0  0  0
    9.5814   -7.5840   28.6486 H   0  0  0  0  0  0  0  0  0  0  0  0
   11.1319   -5.3094   28.0513 H   0  0  0  0  0  0  0  0  0  0  0  0
   11.4591   -6.9570   27.5118 H   0  0  0  0  0  0  0  0  0  0  0  0
   11.3214   -5.0711   25.7158 H   0  0  0  0  0  0  0  0  0  0  0  0
   10.4496   -6.5786   25.3788 H   0  0  0  0  0  0  0  0  0  0  0  0
   13.8122   -1.4601   26.6708 H   0  0  0  0  0  0  0  0  0  0  0  0
   14.6882    0.1035   26.7915 H   0  0  0  0  0  0  0  0  0  0  0  0
   13.1616   -0.1245   27.6818 H   0  0  0  0  0  0  0  0  0  0  0  0
    9.3482    1.4259   24.4346 H   0  0  0  0  0  0  0  0  0  0  0  0
   10.1663    1.8793   22.9589 H   0  0  0  0  0  0  0  0  0  0  0  0
   10.7366   -0.4277   22.4442 H   0  0  0  0  0  0  0  0  0  0  0  0
    7.1015    0.3608   17.0505 H   0  0  0  0  0  0  0  0  0  0  0  0
    8.1354   -1.7990   21.3694 H   0  0  0  0  0  0  0  0  0  0  0  0
  1  2  1  0  0  0  0
  1  3  2  0  0  0  0
  2  6  2  0  0  0  0
  3 11  1  0  0  0  0
  4  7  2  0  0  0  0
  4 12  1  0  0  0  0
  5  8  1  0  0  0  0
  5 12  2  0  0  0  0
  6 14  1  0  0  0  0
  7 15  1  0  0  0  0
  8 15  2  0  0  0  0
  9 13  1  0  0  0  0
  9 26  2  0  0  0  0
 10 13  2  0  0  0  0
 10 29  1  0  0  0  0
 11 14  2  0  0  0  0
 11 16  1  0  0  0  0
 12 25  1  0  0  0  0
 13 24  1  0  0  0  0
 14 28  1  0  0  0  0
 15 30  1  0  0  0  0
 16 27  2  0  0  0  0
 16 31  1  0  0  0  0
 17 19  1  0  0  0  0
 17 30  1  0  0  0  0
 17 32  2  0  0  0  0
 18 25  1  0  0  0  0
 18 31  1  0  0  0  0
 18 33  2  0  0  0  0
 19 20  1  0  0  0  0
 20 21  1  0  0  0  0
 21 22  1  0  0  0  0
 22 30  1  0  0  0  0
 23 29  1  0  0  0  0
 24 25  1  6  0  0  0
 26 29  1  0  0  0  0
 27 28  1  0  0  0  0
  1 34  1  0  0  0  0
  2 35  1  0  0  0  0
  3 36  1  0  0  0  0
  4 37  1  0  0  0  0
  5 38  1  0  0  0  0
  6 39  1  0  0  0  0
  7 40  1  0  0  0  0
  8 41  1  0  0  0  0
  9 42  1  0  0  0  0
 10 43  1  0  0  0  0
 19 44  1  0  0  0  0
 19 45  1  0  0  0  0
 20 46  1  0  0  0  0
 20 47  1  0  0  0  0
 21 48  1  0  0  0  0
 21 49  1  0  0  0  0
 22 50  1  0  0  0  0
 22 51  1  0  0  0  0
 23 52  1  0  0  0  0
 23 53  1  0  0  0  0
 23 54  1  0  0  0  0
 24 55  1  0  0  0  0
 24 56  1  0  0  0  0
 25 57  1  0  0  0  0
 28 58  1  0  0  0  0
 31 59  1  0  0  0  0
M  END
> <clash_score>
2.007716923079976

> <docking_score>
-4.821295738220215

> <overlap_score>
0.9403040409088135

$$$$
BENZO_249_1
  -OEChem-08222022403D

 58 62  0     1  0  0  0  0  0999 V2000
   13.8377    0.1157   25.4121 C   0  0  0  0  0  0  0  0  0  0  0  0
    4.2970    1.6690   20.8430 C   0  0  0  0  0  0  0  0  0  0  0  0
   12.6675   -0.0757   26.1466 C   0  0  0  0  0  0  0  0  0  0  0  0
   13.7705    0.6079   24.1087 C   0  0  0  0  0  0  0  0  0  0  0  0
    4.0980    2.1130   19.5350 C   0  0  0  0  0  0  0  0  0  0  0  0
    5.3360    0.8000   21.1530 C   0  0  0  0  0  0  0  0  0  0  0  0
   11.4299    0.2251   25.5777 C   0  0  0  0  0  0  0  0  0  0  0  0
   12.5329    0.9086   23.5397 C   0  0  0  0  0  0  0  0  0  0  0  0
    8.3510   -1.5420   24.6110 C   0  0  0  0  0  0  0  0  0  0  0  0
   10.2760   -2.3270   23.4020 C   0  0  0  0  0  0  0  0  0  0  0  0
    4.9400    1.7060   18.5060 C   0  0  0  0  0  0  0  0  0  0  0  0
    8.3310   -2.7170   25.3430 C   0  0  0  0  0  0  0  0  0  0  0  0
   10.2570   -3.5000   24.1350 C   0  0  0  0  0  0  0  0  0  0  0  0
    6.1600    0.3870   20.1140 C   0  0  0  0  0  0  0  0  0  0  0  0
   11.3626    0.7172   24.2742 C   0  0  0  0  0  0  0  0  0  0  0  0
    9.3300   -1.3350   23.6390 C   0  0  0  0  0  0  0  0  0  0  0  0
    5.9810    0.8330   18.8060 C   0  0  0  0  0  0  0  0  0  0  0  0
    9.2850   -3.7090   25.1090 C   0  0  0  0  0  0  0  0  0  0  0  0
    7.2210   -0.4620   20.0350 C   0  0  0  0  0  0  0  0  0  0  0  0
    8.9510    0.1280   21.6880 C   0  0  0  0  0  0  0  0  0  0  0  0
    8.7671   -4.9535   27.2147 C   0  0  0  0  0  0  0  0  0  0  0  0
    9.3066   -6.1865   25.1649 C   0  0  0  0  0  0  0  0  0  0  0  0
    7.3847   -5.5970   27.2000 C   0  0  0  0  0  0  0  0  0  0  0  0
    7.9070   -6.7999   25.2264 C   0  0  0  0  0  0  0  0  0  0  0  0
   10.0220    1.0430   23.6570 C   0  0  0  0  0  0  0  0  0  0  0  0
    9.4200   -0.0840   22.9530 C   0  0  1  0  0  0  0  0  0  0  0  0
    7.6830   -0.5170   18.7600 N   0  0  0  0  0  0  0  0  0  0  0  0
    6.9440    0.2550   18.0100 N   0  0  0  0  0  0  0  0  0  0  0  0
    9.2641   -4.8845   25.8388 N   0  0  0  0  0  0  0  0  0  0  0  0
    8.0810   -0.9750   21.0820 N   0  0  0  0  0  0  0  0  0  0  0  0
    9.1870    1.1500   21.0630 O   0  0  0  0  0  0  0  0  0  0  0  0
    7.4533   -6.8877   26.5818 O   0  0  0  0  0  0  0  0  0  0  0  0
   14.8013   -0.1172   25.8558 H   0  0  0  0  0  0  0  0  0  0  0  0
    3.6274    2.0126   21.6300 H   0  0  0  0  0  0  0  0  0  0  0  0
   12.7197   -0.4578   27.1619 H   0  0  0  0  0  0  0  0  0  0  0  0
   14.6814    0.7580   23.5370 H   0  0  0  0  0  0  0  0  0  0  0  0
    3.2732    2.7875   19.3199 H   0  0  0  0  0  0  0  0  0  0  0  0
    5.4878    0.4645   22.1722 H   0  0  0  0  0  0  0  0  0  0  0  0
   10.5233    0.0726   26.1574 H   0  0  0  0  0  0  0  0  0  0  0  0
   12.4902    1.2914   22.5235 H   0  0  0  0  0  0  0  0  0  0  0  0
    7.5957   -0.7779   24.7973 H   0  0  0  0  0  0  0  0  0  0  0  0
   11.0384   -2.1852   22.6338 H   0  0  0  0  0  0  0  0  0  0  0  0
    4.7853    2.0674   17.4815 H   0  0  0  0  0  0  0  0  0  0  0  0
    7.5634   -2.8637   26.1037 H   0  0  0  0  0  0  0  0  0  0  0  0
   11.0139   -4.2645   23.9419 H   0  0  0  0  0  0  0  0  0  0  0  0
    8.7013   -3.9575   27.6574 H   0  0  0  0  0  0  0  0  0  0  0  0
    9.4480   -5.5636   27.8142 H   0  0  0  0  0  0  0  0  0  0  0  0
   10.0131   -6.8375   25.6814 H   0  0  0  0  0  0  0  0  0  0  0  0
    9.6116   -6.0794   24.1250 H   0  0  0  0  0  0  0  0  0  0  0  0
    7.0306   -5.7388   28.2232 H   0  0  0  0  0  0  0  0  0  0  0  0
    6.6546   -4.9740   26.6757 H   0  0  0  0  0  0  0  0  0  0  0  0
    7.1892   -6.2226   24.6319 H   0  0  0  0  0  0  0  0  0  0  0  0
    7.9315   -7.8151   24.8187 H   0  0  0  0  0  0  0  0  0  0  0  0
    9.3482    1.4259   24.4346 H   0  0  0  0  0  0  0  0  0  0  0  0
   10.1663    1.8792   22.9588 H   0  0  0  0  0  0  0  0  0  0  0  0
   10.7366   -0.4277   22.4442 H   0  0  0  0  0  0  0  0  0  0  0  0
    7.1015    0.3608   17.0505 H   0  0  0  0  0  0  0  0  0  0  0  0
    8.1354   -1.7990   21.3694 H   0  0  0  0  0  0  0  0  0  0  0  0
  1  3  1  0  0  0  0
  1  4  2  0  0  0  0
  2  5  1  0  0  0  0
  2  6  2  0  0  0  0
  3  7  2  0  0  0  0
  4  8  1  0  0  0  0
  5 11  2  0  0  0  0
  6 14  1  0  0  0  0
  7 15  1  0  0  0  0
  8 15  2  0  0  0  0
  9 12  2  0  0  0  0
  9 16  1  0  0  0  0
 10 13  1  0  0  0  0
 10 16  2  0  0  0  0
 11 17  1  0  0  0  0
 12 18  1  0  0  0  0
 13 18  2  0  0  0  0
 14 17  2  0  0  0  0
 14 19  1  0  0  0  0
 15 25  1  0  0  0  0
 16 26  1  0  0  0  0
 17 28  1  0  0  0  0
 18 29  1  0  0  0  0
 19 27  2  0  0  0  0
 19 30  1  0  0  0  0
 20 26  1  1  0  0  0
 20 30  1  0  0  0  0
 20 31  2  0  0  0  0
 21 23  1  0  0  0  0
 21 29  1  0  0  0  0
 22 24  1  0  0  0  0
 22 29  1  0  0  0  0
 23 32  1  0  0  0  0
 24 32  1  0  0  0  0
 25 26  1  0  0  0  0
 27 28  1  0  0  0  0
  1 33  1  0  0  0  0
  2 34  1  0  0  0  0
  3 35  1  0  0  0  0
  4 36  1  0  0  0  0
  5 37  1  0  0  0  0
  6 38  1  0  0  0  0
  7 39  1  0  0  0  0
  8 40  1  0  0  0  0
  9 41  1  0  0  0  0
 10 42  1  0  0  0  0
 11 43  1  0  0  0  0
 12 44  1  0  0  0  0
 13 45  1  0  0  0  0
 21 46  1  0  0  0  0
 21 47  1  0  0  0  0
 22 48  1  0  0  0  0
 22 49  1  0  0  0  0
 23 50  1  0  0  0  0
 23 51  1  0  0  0  0
 24 52  1  0  0  0  0
 24 53  1  0  0  0  0
 25 54  1  0  0  0  0
 25 55  1  0  0  0  0
 26 56  1  0  0  0  0
 28 57  1  0  0  0  0
 30 58  1  0  0  0  0
M  END
> <clash_score>
0

> <docking_score>
-6.234496593475342

> <overlap_score>
0.9494087100028992

$$$$
BENZO_249_2
  -OEChem-08222022403D

 58 62  0     1  0  0  0  0  0999 V2000
   14.2657    1.3706   23.0373 C   0  0  0  0  0  0  0  0  0  0  0  0
    4.2970    1.6690   20.8430 C   0  0  0  0  0  0  0  0  0  0  0  0
   13.7726    0.6128   24.0995 C   0  0  0  0  0  0  0  0  0  0  0  0
   13.3825    2.0222   22.1763 C   0  0  0  0  0  0  0  0  0  0  0  0
    4.0980    2.1130   19.5350 C   0  0  0  0  0  0  0  0  0  0  0  0
    5.3360    0.8000   21.1530 C   0  0  0  0  0  0  0  0  0  0  0  0
   12.3965    0.5065   24.3007 C   0  0  0  0  0  0  0  0  0  0  0  0
   12.0064    1.9158   22.3775 C   0  0  0  0  0  0  0  0  0  0  0  0
    8.3510   -1.5420   24.6110 C   0  0  0  0  0  0  0  0  0  0  0  0
   10.2760   -2.3270   23.4020 C   0  0  0  0  0  0  0  0  0  0  0  0
    4.9400    1.7060   18.5060 C   0  0  0  0  0  0  0  0  0  0  0  0
    8.3310   -2.7170   25.3430 C   0  0  0  0  0  0  0  0  0  0  0  0
   10.2570   -3.5000   24.1350 C   0  0  0  0  0  0  0  0  0  0  0  0
    6.1600    0.3870   20.1140 C   0  0  0  0  0  0  0  0  0  0  0  0
   11.5133    1.1580   23.4397 C   0  0  0  0  0  0  0  0  0  0  0  0
    9.3300   -1.3350   23.6390 C   0  0  0  0  0  0  0  0  0  0  0  0
    5.9810    0.8330   18.8060 C   0  0  0  0  0  0  0  0  0  0  0  0
    9.2850   -3.7090   25.1090 C   0  0  0  0  0  0  0  0  0  0  0  0
    7.2210   -0.4620   20.0350 C   0  0  0  0  0  0  0  0  0  0  0  0
    8.9510    0.1280   21.6880 C   0  0  0  0  0  0  0  0  0  0  0  0
    8.7671   -4.9535   27.2147 C   0  0  0  0  0  0  0  0  0  0  0  0
    9.3066   -6.1865   25.1649 C   0  0  0  0  0  0  0  0  0  0  0  0
    7.3847   -5.5970   27.2000 C   0  0  0  0  0  0  0  0  0  0  0  0
    7.9070   -6.7999   25.2264 C   0  0  0  0  0  0  0  0  0  0  0  0
   10.0220    1.0430   23.6570 C   0  0  0  0  0  0  0  0  0  0  0  0
    9.4200   -0.0840   22.9530 C   0  0  2  0  0  0  0  0  0  0  0  0
    7.6830   -0.5170   18.7600 N   0  0  0  0  0  0  0  0  0  0  0  0
    6.9440    0.2550   18.0100 N   0  0  0  0  0  0  0  0  0  0  0  0
    9.2641   -4.8845   25.8388 N   0  0  0  0  0  0  0  0  0  0  0  0
    8.0810   -0.9750   21.0820 N   0  0  0  0  0  0  0  0  0  0  0  0
    9.1870    1.1500   21.0630 O   0  0  0  0  0  0  0  0  0  0  0  0
    7.4533   -6.8877   26.5818 O   0  0  0  0  0  0  0  0  0  0  0  0
   15.3373    1.4544   22.8816 H   0  0  0  0  0  0  0  0  0  0  0  0
    3.6274    2.0126   21.6300 H   0  0  0  0  0  0  0  0  0  0  0  0
   14.4602    0.1063   24.7706 H   0  0  0  0  0  0  0  0  0  0  0  0
   13.7661    2.6131   21.3499 H   0  0  0  0  0  0  0  0  0  0  0  0
    3.2732    2.7875   19.3199 H   0  0  0  0  0  0  0  0  0  0  0  0
    5.4878    0.4645   22.1722 H   0  0  0  0  0  0  0  0  0  0  0  0
   12.0213   -0.0863   25.1308 H   0  0  0  0  0  0  0  0  0  0  0  0
   11.3258    2.4268   21.7016 H   0  0  0  0  0  0  0  0  0  0  0  0
    7.5957   -0.7779   24.7973 H   0  0  0  0  0  0  0  0  0  0  0  0
   11.0384   -2.1852   22.6338 H   0  0  0  0  0  0  0  0  0  0  0  0
    4.7853    2.0674   17.4815 H   0  0  0  0  0  0  0  0  0  0  0  0
    7.5634   -2.8637   26.1037 H   0  0  0  0  0  0  0  0  0  0  0  0
   11.0139   -4.2645   23.9419 H   0  0  0  0  0  0  0  0  0  0  0  0
    8.7013   -3.9575   27.6574 H   0  0  0  0  0  0  0  0  0  0  0  0
    9.4480   -5.5636   27.8142 H   0  0  0  0  0  0  0  0  0  0  0  0
   10.0131   -6.8375   25.6814 H   0  0  0  0  0  0  0  0  0  0  0  0
    9.6116   -6.0794   24.1250 H   0  0  0  0  0  0  0  0  0  0  0  0
    7.0306   -5.7388   28.2232 H   0  0  0  0  0  0  0  0  0  0  0  0
    6.6546   -4.9740   26.6757 H   0  0  0  0  0  0  0  0  0  0  0  0
    7.1892   -6.2226   24.6319 H   0  0  0  0  0  0  0  0  0  0  0  0
    7.9315   -7.8151   24.8187 H   0  0  0  0  0  0  0  0  0  0  0  0
    9.8155    0.9894   24.7339 H   0  0  0  0  0  0  0  0  0  0  0  0
    9.5584    1.9798   23.3178 H   0  0  0  0  0  0  0  0  0  0  0  0
    8.1278    0.3254   23.5142 H   0  0  0  0  0  0  0  0  0  0  0  0
    7.1015    0.3608   17.0505 H   0  0  0  0  0  0  0  0  0  0  0  0
    8.1354   -1.7990   21.3694 H   0  0  0  0  0  0  0  0  0  0  0  0
  1  3  1  0  0  0  0
  1  4  2  0  0  0  0
  2  5  1  0  0  0  0
  2  6  2  0  0  0  0
  3  7  2  0  0  0  0
  4  8  1  0  0  0  0
  5 11  2  0  0  0  0
  6 14  1  0  0  0  0
  7 15  1  0  0  0  0
  8 15  2  0  0  0  0
  9 12  2  0  0  0  0
  9 16  1  0  0  0  0
 10 13  1  0  0  0  0
 10 16  2  0  0  0  0
 11 17  1  0  0  0  0
 12 18  1  0  0  0  0
 13 18  2  0  0  0  0
 14 17  2  0  0  0  0
 14 19  1  0  0  0  0
 15 25  1  0  0  0  0
 16 26  1  0  0  0  0
 17 28  1  0  0  0  0
 18 29  1  0  0  0  0
 19 27  2  0  0  0  0
 19 30  1  0  0  0  0
 20 26  1  6  0  0  0
 20 30  1  0  0  0  0
 20 31  2  0  0  0  0
 21 23  1  0  0  0  0
 21 29  1  0  0  0  0
 22 24  1  0  0  0  0
 22 29  1  0  0  0  0
 23 32  1  0  0  0  0
 24 32  1  0  0  0  0
 25 26  1  0  0  0  0
 27 28  1  0  0  0  0
  1 33  1  0  0  0  0
  2 34  1  0  0  0  0
  3 35  1  0  0  0  0
  4 36  1  0  0  0  0
  5 37  1  0  0  0  0
  6 38  1  0  0  0  0
  7 39  1  0  0  0  0
  8 40  1  0  0  0  0
  9 41  1  0  0  0  0
 10 42  1  0  0  0  0
 11 43  1  0  0  0  0
 12 44  1  0  0  0  0
 13 45  1  0  0  0  0
 21 46  1  0  0  0  0
 21 47  1  0  0  0  0
 22 48  1  0  0  0  0
 22 49  1  0  0  0  0
 23 50  1  0  0  0  0
 23 51  1  0  0  0  0
 24 52  1  0  0  0  0
 24 53  1  0  0  0  0
 25 54  1  0  0  0  0
 25 55  1  0  0  0  0
 26 56  1  0  0  0  0
 28 57  1  0  0  0  0
 30 58  1  0  0  0  0
M  END
> <clash_score>
0

> <docking_score>
-7.187356472015381

> <overlap_score>
1.0264744758605957

$$$$
BENZO_248_1
  -OEChem-08222022403D

 55 59  0     1  0  0  0  0  0999 V2000
    4.2970    1.6690   20.8430 C   0  0  0  0  0  0  0  0  0  0  0  0
    4.0980    2.1130   19.5350 C   0  0  0  0  0  0  0  0  0  0  0  0
    5.3360    0.8000   21.1530 C   0  0  0  0  0  0  0  0  0  0  0  0
    8.3510   -1.5420   24.6110 C   0  0  0  0  0  0  0  0  0  0  0  0
   10.2760   -2.3270   23.4020 C   0  0  0  0  0  0  0  0  0  0  0  0
    4.9400    1.7060   18.5060 C   0  0  0  0  0  0  0  0  0  0  0  0
    8.3310   -2.7170   25.3430 C   0  0  0  0  0  0  0  0  0  0  0  0
   10.2570   -3.5000   24.1350 C   0  0  0  0  0  0  0  0  0  0  0  0
   11.0518    0.9847   26.0345 C   0  0  0  0  0  0  0  0  0  0  0  0
   12.1353    0.4811   26.7201 C   0  0  0  0  0  0  0  0  0  0  0  0
   12.1840   -0.1301   24.3381 C   0  0  0  0  0  0  0  0  0  0  0  0
    6.1600    0.3870   20.1140 C   0  0  0  0  0  0  0  0  0  0  0  0
    9.3300   -1.3350   23.6390 C   0  0  0  0  0  0  0  0  0  0  0  0
   11.0798    0.6306   24.6546 C   0  0  0  0  0  0  0  0  0  0  0  0
    5.9810    0.8330   18.8060 C   0  0  0  0  0  0  0  0  0  0  0  0
    9.2850   -3.7090   25.1090 C   0  0  0  0  0  0  0  0  0  0  0  0
    7.2210   -0.4620   20.0350 C   0  0  0  0  0  0  0  0  0  0  0  0
    8.9510    0.1280   21.6880 C   0  0  0  0  0  0  0  0  0  0  0  0
    8.7671   -4.9535   27.2147 C   0  0  0  0  0  0  0  0  0  0  0  0
    9.3066   -6.1865   25.1649 C   0  0  0  0  0  0  0  0  0  0  0  0
    7.3847   -5.5970   27.2000 C   0  0  0  0  0  0  0  0  0  0  0  0
    7.9070   -6.7999   25.2264 C   0  0  0  0  0  0  0  0  0  0  0  0
   10.0220    1.0430   23.6570 C   0  0  0  0  0  0  0  0  0  0  0  0
    9.4200   -0.0840   22.9530 C   0  0  1  0  0  0  0  0  0  0  0  0
    7.6830   -0.5170   18.7600 N   0  0  0  0  0  0  0  0  0  0  0  0
    6.9440    0.2550   18.0100 N   0  0  0  0  0  0  0  0  0  0  0  0
    9.2641   -4.8845   25.8388 N   0  0  0  0  0  0  0  0  0  0  0  0
    8.0810   -0.9750   21.0820 N   0  0  0  0  0  0  0  0  0  0  0  0
    9.1870    1.1500   21.0630 O   0  0  0  0  0  0  0  0  0  0  0  0
    7.4533   -6.8877   26.5818 O   0  0  0  0  0  0  0  0  0  0  0  0
   13.1805   -0.4145   25.7013 S   0  0  0  0  0  0  0  0  0  0  0  0
    3.6274    2.0126   21.6300 H   0  0  0  0  0  0  0  0  0  0  0  0
    3.2732    2.7875   19.3199 H   0  0  0  0  0  0  0  0  0  0  0  0
    5.4878    0.4645   22.1722 H   0  0  0  0  0  0  0  0  0  0  0  0
    7.5957   -0.7779   24.7973 H   0  0  0  0  0  0  0  0  0  0  0  0
   11.0384   -2.1852   22.6338 H   0  0  0  0  0  0  0  0  0  0  0  0
    4.7853    2.0674   17.4815 H   0  0  0  0  0  0  0  0  0  0  0  0
    7.5634   -2.8637   26.1037 H   0  0  0  0  0  0  0  0  0  0  0  0
   11.0139   -4.2645   23.9419 H   0  0  0  0  0  0  0  0  0  0  0  0
   10.2782    1.5788   26.5045 H   0  0  0  0  0  0  0  0  0  0  0  0
   12.3635    0.5968   27.7702 H   0  0  0  0  0  0  0  0  0  0  0  0
   12.4575   -0.5332   23.3728 H   0  0  0  0  0  0  0  0  0  0  0  0
    8.7013   -3.9575   27.6574 H   0  0  0  0  0  0  0  0  0  0  0  0
    9.4480   -5.5636   27.8142 H   0  0  0  0  0  0  0  0  0  0  0  0
   10.0131   -6.8375   25.6814 H   0  0  0  0  0  0  0  0  0  0  0  0
    9.6116   -6.0794   24.1250 H   0  0  0  0  0  0  0  0  0  0  0  0
    7.0306   -5.7388   28.2232 H   0  0  0  0  0  0  0  0  0  0  0  0
    6.6546   -4.9740   26.6757 H   0  0  0  0  0  0  0  0  0  0  0  0
    7.1892   -6.2226   24.6319 H   0  0  0  0  0  0  0  0  0  0  0  0
    7.9315   -7.8151   24.8187 H   0  0  0  0  0  0  0  0  0  0  0  0
    9.2564    1.6421   24.1671 H   0  0  0  0  0  0  0  0  0  0  0  0
   10.4892    1.7236   22.9318 H   0  0  0  0  0  0  0  0  0  0  0  0
   10.7366   -0.4277   22.4442 H   0  0  0  0  0  0  0  0  0  0  0  0
    7.1015    0.3608   17.0505 H   0  0  0  0  0  0  0  0  0  0  0  0
    8.1354   -1.7990   21.3694 H   0  0  0  0  0  0  0  0  0  0  0  0
  1  2  1  0  0  0  0
  1  3  2  0  0  0  0
  2  6  2  0  0  0  0
  3 12  1  0  0  0  0
  4  7  2  0  0  0  0
  4 13  1  0  0  0  0
  5  8  1  0  0  0  0
  5 13  2  0  0  0  0
  6 15  1  0  0  0  0
  7 16  1  0  0  0  0
  8 16  2  0  0  0  0
  9 10  2  0  0  0  0
  9 14  1  0  0  0  0
 10 31  1  0  0  0  0
 11 14  2  0  0  0  0
 11 31  1  0  0  0  0
 12 15  2  0  0  0  0
 12 17  1  0  0  0  0
 13 24  1  0  0  0  0
 14 23  1  0  0  0  0
 15 26  1  0  0  0  0
 16 27  1  0  0  0  0
 17 25  2  0  0  0  0
 17 28  1  0  0  0  0
 18 24  1  1  0  0  0
 18 28  1  0  0  0  0
 18 29  2  0  0  0  0
 19 21  1  0  0  0  0
 19 27  1  0  0  0  0
 20 22  1  0  0  0  0
 20 27  1  0  0  0  0
 21 30  1  0  0  0  0
 22 30  1  0  0  0  0
 23 24  1  0  0  0  0
 25 26  1  0  0  0  0
  1 32  1  0  0  0  0
  2 33  1  0  0  0  0
  3 34  1  0  0  0  0
  4 35  1  0  0  0  0
  5 36  1  0  0  0  0
  6 37  1  0  0  0  0
  7 38  1  0  0  0  0
  8 39  1  0  0  0  0
  9 40  1  0  0  0  0
 10 41  1  0  0  0  0
 11 42  1  0  0  0  0
 19 43  1  0  0  0  0
 19 44  1  0  0  0  0
 20 45  1  0  0  0  0
 20 46  1  0  0  0  0
 21 47  1  0  0  0  0
 21 48  1  0  0  0  0
 22 49  1  0  0  0  0
 22 50  1  0  0  0  0
 23 51  1  0  0  0  0
 23 52  1  0  0  0  0
 24 53  1  0  0  0  0
 26 54  1  0  0  0  0
 28 55  1  0  0  0  0
M  END
> <clash_score>
0

> <docking_score>
-5.212830066680908

> <overlap_score>
0.8996121287345886

$$$$
BENZO_248_2
  -OEChem-08222022403D

 55 59  0     1  0  0  0  0  0999 V2000
    4.2970    1.6690   20.8430 C   0  0  0  0  0  0  0  0  0  0  0  0
    4.0980    2.1130   19.5350 C   0  0  0  0  0  0  0  0  0  0  0  0
    5.3360    0.8000   21.1530 C   0  0  0  0  0  0  0  0  0  0  0  0
    8.3510   -1.5420   24.6110 C   0  0  0  0  0  0  0  0  0  0  0  0
   10.2760   -2.3270   23.4020 C   0  0  0  0  0  0  0  0  0  0  0  0
    4.9400    1.7060   18.5060 C   0  0  0  0  0  0  0  0  0  0  0  0
    8.3310   -2.7170   25.3430 C   0  0  0  0  0  0  0  0  0  0  0  0
   10.2570   -3.5000   24.1350 C   0  0  0  0  0  0  0  0  0  0  0  0
   12.2126    2.3974   23.3680 C   0  0  0  0  0  0  0  0  0  0  0  0
   13.5630    2.2185   23.1633 C   0  0  0  0  0  0  0  0  0  0  0  0
   12.3560    0.0789   23.2869 C   0  0  0  0  0  0  0  0  0  0  0  0
    6.1600    0.3870   20.1140 C   0  0  0  0  0  0  0  0  0  0  0  0
    9.3300   -1.3350   23.6390 C   0  0  0  0  0  0  0  0  0  0  0  0
   11.5133    1.1580   23.4397 C   0  0  0  0  0  0  0  0  0  0  0  0
    5.9810    0.8330   18.8060 C   0  0  0  0  0  0  0  0  0  0  0  0
    9.2850   -3.7090   25.1090 C   0  0  0  0  0  0  0  0  0  0  0  0
    7.2210   -0.4620   20.0350 C   0  0  0  0  0  0  0  0  0  0  0  0
    8.9510    0.1280   21.6880 C   0  0  0  0  0  0  0  0  0  0  0  0
    8.7671   -4.9535   27.2147 C   0  0  0  0  0  0  0  0  0  0  0  0
    9.3066   -6.1865   25.1649 C   0  0  0  0  0  0  0  0  0  0  0  0
    7.3847   -5.5970   27.2000 C   0  0  0  0  0  0  0  0  0  0  0  0
    7.9070   -6.7999   25.2264 C   0  0  0  0  0  0  0  0  0  0  0  0
   10.0220    1.0430   23.6570 C   0  0  0  0  0  0  0  0  0  0  0  0
    9.4200   -0.0840   22.9530 C   0  0  2  0  0  0  0  0  0  0  0  0
    7.6830   -0.5170   18.7600 N   0  0  0  0  0  0  0  0  0  0  0  0
    6.9440    0.2550   18.0100 N   0  0  0  0  0  0  0  0  0  0  0  0
    9.2641   -4.8845   25.8388 N   0  0  0  0  0  0  0  0  0  0  0  0
    8.0810   -0.9750   21.0820 N   0  0  0  0  0  0  0  0  0  0  0  0
    9.1870    1.1500   21.0630 O   0  0  0  0  0  0  0  0  0  0  0  0
    7.4533   -6.8877   26.5818 O   0  0  0  0  0  0  0  0  0  0  0  0
   13.9830    0.5617   23.0584 S   0  0  0  0  0  0  0  0  0  0  0  0
    3.6274    2.0126   21.6300 H   0  0  0  0  0  0  0  0  0  0  0  0
    3.2732    2.7875   19.3199 H   0  0  0  0  0  0  0  0  0  0  0  0
    5.4878    0.4645   22.1722 H   0  0  0  0  0  0  0  0  0  0  0  0
    7.5957   -0.7779   24.7973 H   0  0  0  0  0  0  0  0  0  0  0  0
   11.0384   -2.1852   22.6338 H   0  0  0  0  0  0  0  0  0  0  0  0
    4.7853    2.0674   17.4815 H   0  0  0  0  0  0  0  0  0  0  0  0
    7.5634   -2.8637   26.1037 H   0  0  0  0  0  0  0  0  0  0  0  0
   11.0139   -4.2645   23.9419 H   0  0  0  0  0  0  0  0  0  0  0  0
   11.7522    3.3730   23.4608 H   0  0  0  0  0  0  0  0  0  0  0  0
   14.3229    2.9813   23.0696 H   0  0  0  0  0  0  0  0  0  0  0  0
   12.0982   -0.9711   23.2967 H   0  0  0  0  0  0  0  0  0  0  0  0
    8.7013   -3.9575   27.6574 H   0  0  0  0  0  0  0  0  0  0  0  0
    9.4480   -5.5636   27.8142 H   0  0  0  0  0  0  0  0  0  0  0  0
   10.0131   -6.8375   25.6814 H   0  0  0  0  0  0  0  0  0  0  0  0
    9.6116   -6.0794   24.1250 H   0  0  0  0  0  0  0  0  0  0  0  0
    7.0306   -5.7388   28.2232 H   0  0  0  0  0  0  0  0  0  0  0  0
    6.6546   -4.9740   26.6757 H   0  0  0  0  0  0  0  0  0  0  0  0
    7.1892   -6.2226   24.6319 H   0  0  0  0  0  0  0  0  0  0  0  0
    7.9315   -7.8151   24.8187 H   0  0  0  0  0  0  0  0  0  0  0  0
    9.8155    0.9894   24.7339 H   0  0  0  0  0  0  0  0  0  0  0  0
    9.5584    1.9798   23.3178 H   0  0  0  0  0  0  0  0  0  0  0  0
    8.1278    0.3254   23.5142 H   0  0  0  0  0  0  0  0  0  0  0  0
    7.1015    0.3608   17.0505 H   0  0  0  0  0  0  0  0  0  0  0  0
    8.1354   -1.7990   21.3694 H   0  0  0  0  0  0  0  0  0  0  0  0
  1  2  1  0  0  0  0
  1  3  2  0  0  0  0
  2  6  2  0  0  0  0
  3 12  1  0  0  0  0
  4  7  2  0  0  0  0
  4 13  1  0  0  0  0
  5  8  1  0  0  0  0
  5 13  2  0  0  0  0
  6 15  1  0  0  0  0
  7 16  1  0  0  0  0
  8 16  2  0  0  0  0
  9 10  2  0  0  0  0
  9 14  1  0  0  0  0
 10 31  1  0  0  0  0
 11 14  2  0  0  0  0
 11 31  1  0  0  0  0
 12 15  2  0  0  0  0
 12 17  1  0  0  0  0
 13 24  1  0  0  0  0
 14 23  1  0  0  0  0
 15 26  1  0  0  0  0
 16 27  1  0  0  0  0
 17 25  2  0  0  0  0
 17 28  1  0  0  0  0
 18 24  1  6  0  0  0
 18 28  1  0  0  0  0
 18 29  2  0  0  0  0
 19 21  1  0  0  0  0
 19 27  1  0  0  0  0
 20 22  1  0  0  0  0
 20 27  1  0  0  0  0
 21 30  1  0  0  0  0
 22 30  1  0  0  0  0
 23 24  1  0  0  0  0
 25 26  1  0  0  0  0
  1 32  1  0  0  0  0
  2 33  1  0  0  0  0
  3 34  1  0  0  0  0
  4 35  1  0  0  0  0
  5 36  1  0  0  0  0
  6 37  1  0  0  0  0
  7 38  1  0  0  0  0
  8 39  1  0  0  0  0
  9 40  1  0  0  0  0
 10 41  1  0  0  0  0
 11 42  1  0  0  0  0
 19 43  1  0  0  0  0
 19 44  1  0  0  0  0
 20 45  1  0  0  0  0
 20 46  1  0  0  0  0
 21 47  1  0  0  0  0
 21 48  1  0  0  0  0
 22 49  1  0  0  0  0
 22 50  1  0  0  0  0
 23 51  1  0  0  0  0
 23 52  1  0  0  0  0
 24 53  1  0  0  0  0
 26 54  1  0  0  0  0
 28 55  1  0  0  0  0
M  END
> <clash_score>
0

> <docking_score>
-7.996373653411865

> <overlap_score>
1.0137988328933716

$$$$
BENZO_251_2
  -OEChem-08222022403D

 58 62  0     1  0  0  0  0  0999 V2000
    4.2970    1.6690   20.8430 C   0  0  0  0  0  0  0  0  0  0  0  0
    4.0980    2.1130   19.5350 C   0  0  0  0  0  0  0  0  0  0  0  0
    5.3360    0.8000   21.1530 C   0  0  0  0  0  0  0  0  0  0  0  0
    8.3510   -1.5420   24.6110 C   0  0  0  0  0  0  0  0  0  0  0  0
   10.2760   -2.3270   23.4020 C   0  0  0  0  0  0  0  0  0  0  0  0
    4.9400    1.7060   18.5060 C   0  0  0  0  0  0  0  0  0  0  0  0
    8.3310   -2.7170   25.3430 C   0  0  0  0  0  0  0  0  0  0  0  0
   10.2570   -3.5000   24.1350 C   0  0  0  0  0  0  0  0  0  0  0  0
   12.6370    0.8478   23.6905 C   0  0  0  0  0  0  0  0  0  0  0  0
   11.6104    0.2289   25.5338 C   0  0  0  0  0  0  0  0  0  0  0  0
    6.1600    0.3870   20.1140 C   0  0  0  0  0  0  0  0  0  0  0  0
    9.3300   -1.3350   23.6390 C   0  0  0  0  0  0  0  0  0  0  0  0
   11.3626    0.7172   24.2742 C   0  0  0  0  0  0  0  0  0  0  0  0
    5.9810    0.8330   18.8060 C   0  0  0  0  0  0  0  0  0  0  0  0
    9.2850   -3.7090   25.1090 C   0  0  0  0  0  0  0  0  0  0  0  0
    7.2210   -0.4620   20.0350 C   0  0  0  0  0  0  0  0  0  0  0  0
    8.9510    0.1280   21.6880 C   0  0  0  0  0  0  0  0  0  0  0  0
    8.7671   -4.9535   27.2147 C   0  0  0  0  0  0  0  0  0  0  0  0
    9.3066   -6.1865   25.1649 C   0  0  0  0  0  0  0  0  0  0  0  0
    7.3847   -5.5970   27.2000 C   0  0  0  0  0  0  0  0  0  0  0  0
    7.9070   -6.7999   25.2264 C   0  0  0  0  0  0  0  0  0  0  0  0
   13.7059   -0.3763   26.7673 C   0  0  0  0  0  0  0  0  0  0  0  0
   10.0220    1.0430   23.6570 C   0  0  0  0  0  0  0  0  0  0  0  0
    9.4200   -0.0840   22.9530 C   0  0  2  0  0  0  0  0  0  0  0  0
   13.6213    0.4729   24.5118 N   0  0  0  0  0  0  0  0  0  0  0  0
    7.6830   -0.5170   18.7600 N   0  0  0  0  0  0  0  0  0  0  0  0
    6.9440    0.2550   18.0100 N   0  0  0  0  0  0  0  0  0  0  0  0
   12.9653    0.1020   25.6246 N   0  0  0  0  0  0  0  0  0  0  0  0
    9.2641   -4.8845   25.8388 N   0  0  0  0  0  0  0  0  0  0  0  0
    8.0810   -0.9750   21.0820 N   0  0  0  0  0  0  0  0  0  0  0  0
    9.1870    1.1500   21.0630 O   0  0  0  0  0  0  0  0  0  0  0  0
    7.4533   -6.8877   26.5818 O   0  0  0  0  0  0  0  0  0  0  0  0
    3.6274    2.0126   21.6300 H   0  0  0  0  0  0  0  0  0  0  0  0
    3.2732    2.7875   19.3199 H   0  0  0  0  0  0  0  0  0  0  0  0
    5.4878    0.4645   22.1722 H   0  0  0  0  0  0  0  0  0  0  0  0
    7.5957   -0.7779   24.7973 H   0  0  0  0  0  0  0  0  0  0  0  0
   11.0384   -2.1852   22.6338 H   0  0  0  0  0  0  0  0  0  0  0  0
    4.7853    2.0674   17.4815 H   0  0  0  0  0  0  0  0  0  0  0  0
    7.5634   -2.8637   26.1037 H   0  0  0  0  0  0  0  0  0  0  0  0
   11.0139   -4.2645   23.9419 H   0  0  0  0  0  0  0  0  0  0  0  0
   12.8920    1.2011   22.7014 H   0  0  0  0  0  0  0  0  0  0  0  0
   10.9544   -0.0314   26.3534 H   0  0  0  0  0  0  0  0  0  0  0  0
    8.7013   -3.9575   27.6574 H   0  0  0  0  0  0  0  0  0  0  0  0
    9.4480   -5.5636   27.8142 H   0  0  0  0  0  0  0  0  0  0  0  0
   10.0131   -6.8375   25.6814 H   0  0  0  0  0  0  0  0  0  0  0  0
    9.6116   -6.0794   24.1250 H   0  0  0  0  0  0  0  0  0  0  0  0
    7.0306   -5.7388   28.2232 H   0  0  0  0  0  0  0  0  0  0  0  0
    6.6546   -4.9740   26.6757 H   0  0  0  0  0  0  0  0  0  0  0  0
    7.1892   -6.2226   24.6319 H   0  0  0  0  0  0  0  0  0  0  0  0
    7.9315   -7.8151   24.8187 H   0  0  0  0  0  0  0  0  0  0  0  0
   13.8123   -1.4600   26.6708 H   0  0  0  0  0  0  0  0  0  0  0  0
   14.6882    0.1037   26.7915 H   0  0  0  0  0  0  0  0  0  0  0  0
   13.1616   -0.1244   27.6818 H   0  0  0  0  0  0  0  0  0  0  0  0
    9.3482    1.4259   24.4346 H   0  0  0  0  0  0  0  0  0  0  0  0
   10.1663    1.8792   22.9588 H   0  0  0  0  0  0  0  0  0  0  0  0
   10.7366   -0.4277   22.4442 H   0  0  0  0  0  0  0  0  0  0  0  0
    7.1015    0.3608   17.0505 H   0  0  0  0  0  0  0  0  0  0  0  0
    8.1354   -1.7990   21.3694 H   0  0  0  0  0  0  0  0  0  0  0  0
  1  2  1  0  0  0  0
  1  3  2  0  0  0  0
  2  6  2  0  0  0  0
  3 11  1  0  0  0  0
  4  7  2  0  0  0  0
  4 12  1  0  0  0  0
  5  8  1  0  0  0  0
  5 12  2  0  0  0  0
  6 14  1  0  0  0  0
  7 15  1  0  0  0  0
  8 15  2  0  0  0  0
  9 13  1  0  0  0  0
  9 25  2  0  0  0  0
 10 13  2  0  0  0  0
 10 28  1  0  0  0  0
 11 14  2  0  0  0  0
 11 16  1  0  0  0  0
 12 24  1  0  0  0  0
 13 23  1  0  0  0  0
 14 27  1  0  0  0  0
 15 29  1  0  0  0  0
 16 26  2  0  0  0  0
 16 30  1  0  0  0  0
 17 24  1  0  0  0  0
 17 30  1  0  0  0  0
 17 31  2  0  0  0  0
 18 20  1  0  0  0  0
 18 29  1  0  0  0  0
 19 21  1  0  0  0  0
 19 29  1  0  0  0  0
 20 32  1  0  0  0  0
 21 32  1  0  0  0  0
 22 28  1  0  0  0  0
 23 24  1  6  0  0  0
 25 28  1  0  0  0  0
 26 27  1  0  0  0  0
  1 33  1  0  0  0  0
  2 34  1  0  0  0  0
  3 35  1  0  0  0  0
  4 36  1  0  0  0  0
  5 37  1  0  0  0  0
  6 38  1  0  0  0  0
  7 39  1  0  0  0  0
  8 40  1  0  0  0  0
  9 41  1  0  0  0  0
 10 42  1  0  0  0  0
 18 43  1  0  0  0  0
 18 44  1  0  0  0  0
 19 45  1  0  0  0  0
 19 46  1  0  0  0  0
 20 47  1  0  0  0  0
 20 48  1  0  0  0  0
 21 49  1  0  0  0  0
 21 50  1  0  0  0  0
 22 51  1  0  0  0  0
 22 52  1  0  0  0  0
 22 53  1  0  0  0  0
 23 54  1  0  0  0  0
 23 55  1  0  0  0  0
 24 56  1  0  0  0  0
 27 57  1  0  0  0  0
 30 58  1  0  0  0  0
M  END
> <clash_score>
0.7348700883676778

> <docking_score>
-6.057341575622559

> <overlap_score>
0.9407410621643066

$$$$
BENZO_252_1
  -OEChem-08222022403D

 49 52  0     1  0  0  0  0  0999 V2000
    8.3510   -1.5420   24.6110 C   0  0  0  0  0  0  0  0  0  0  0  0
   10.2760   -2.3270   23.4020 C   0  0  0  0  0  0  0  0  0  0  0  0
    8.3310   -2.7170   25.3430 C   0  0  0  0  0  0  0  0  0  0  0  0
   10.2570   -3.5000   24.1350 C   0  0  0  0  0  0  0  0  0  0  0  0
   12.2216    2.3786   23.3498 C   0  0  0  0  0  0  0  0  0  0  0  0
   13.5684    2.1883   23.1319 C   0  0  0  0  0  0  0  0  0  0  0  0
   12.3438    0.0592   23.2626 C   0  0  0  0  0  0  0  0  0  0  0  0
    9.3300   -1.3350   23.6390 C   0  0  0  0  0  0  0  0  0  0  0  0
   11.5121    1.1453   23.4257 C   0  0  0  0  0  0  0  0  0  0  0  0
    9.2850   -3.7090   25.1090 C   0  0  0  0  0  0  0  0  0  0  0  0
    6.1600    0.3870   20.1140 C   0  0  0  0  0  0  0  0  0  0  0  0
    7.2210   -0.4620   20.0350 C   0  0  0  0  0  0  0  0  0  0  0  0
    5.3360    0.8000   21.1530 C   0  0  0  0  0  0  0  0  0  0  0  0
    4.2970    1.6690   20.8430 C   0  0  0  0  0  0  0  0  0  0  0  0
    4.0980    2.1130   19.5350 C   0  0  0  0  0  0  0  0  0  0  0  0
    4.9400    1.7060   18.5060 C   0  0  0  0  0  0  0  0  0  0  0  0
    8.9510    0.1280   21.6880 C   0  0  0  0  0  0  0  0  0  0  0  0
    8.2517   -5.1170   26.8651 C   0  0  0  0  0  0  0  0  0  0  0  0
   10.2445   -5.9404   25.6004 C   0  0  0  0  0  0  0  0  0  0  0  0
   10.0220    1.0430   23.6570 C   0  0  0  0  0  0  0  0  0  0  0  0
    9.4200   -0.0840   22.9530 C   0  0  1  0  0  0  0  0  0  0  0  0
    7.6830   -0.5170   18.7600 N   0  0  0  0  0  0  0  0  0  0  0  0
    6.9440    0.2550   18.0100 N   0  0  0  0  0  0  0  0  0  0  0  0
    5.9810    0.8330   18.8060 N   0  0  0  0  0  0  0  0  0  0  0  0
    8.0810   -0.9750   21.0820 N   0  0  0  0  0  0  0  0  0  0  0  0
    9.2638   -4.9025   25.8500 N   0  0  0  0  0  0  0  0  0  0  0  0
    9.1870    1.1500   21.0630 O   0  0  0  0  0  0  0  0  0  0  0  0
   13.9727    0.5281   23.0196 S   0  0  0  0  0  0  0  0  0  0  0  0
    7.5957   -0.7779   24.7973 H   0  0  0  0  0  0  0  0  0  0  0  0
   11.0384   -2.1852   22.6338 H   0  0  0  0  0  0  0  0  0  0  0  0
    7.5634   -2.8637   26.1037 H   0  0  0  0  0  0  0  0  0  0  0  0
   11.0139   -4.2645   23.9419 H   0  0  0  0  0  0  0  0  0  0  0  0
   11.7708    3.3580   23.4491 H   0  0  0  0  0  0  0  0  0  0  0  0
   14.3341    2.9446   23.0326 H   0  0  0  0  0  0  0  0  0  0  0  0
   12.0768   -0.9885   23.2727 H   0  0  0  0  0  0  0  0  0  0  0  0
    5.4735    0.4758   22.1644 H   0  0  0  0  0  0  0  0  0  0  0  0
    3.6415    1.9967   21.6408 H   0  0  0  0  0  0  0  0  0  0  0  0
    3.2720    2.7926   19.2921 H   0  0  0  0  0  0  0  0  0  0  0  0
    4.8119    2.0418   17.5005 H   0  0  0  0  0  0  0  0  0  0  0  0
    8.4017   -6.1022   27.3308 H   0  0  0  0  0  0  0  0  0  0  0  0
    8.3305   -4.3329   27.6326 H   0  0  0  0  0  0  0  0  0  0  0  0
    7.2545   -5.0782   26.4024 H   0  0  0  0  0  0  0  0  0  0  0  0
   10.0621   -6.7882   26.2771 H   0  0  0  0  0  0  0  0  0  0  0  0
   10.1619   -6.2795   24.5573 H   0  0  0  0  0  0  0  0  0  0  0  0
   11.2540   -5.5409   25.7773 H   0  0  0  0  0  0  0  0  0  0  0  0
    9.8253    0.9889   24.7357 H   0  0  0  0  0  0  0  0  0  0  0  0
    9.5635    1.9845   23.3241 H   0  0  0  0  0  0  0  0  0  0  0  0
    8.1288    0.3205   23.5156 H   0  0  0  0  0  0  0  0  0  0  0  0
    8.1159   -1.8115   21.3524 H   0  0  0  0  0  0  0  0  0  0  0  0
  1  3  2  0  0  0  0
  1  8  1  0  0  0  0
  2  4  1  0  0  0  0
  2  8  2  0  0  0  0
  3 10  1  0  0  0  0
  4 10  2  0  0  0  0
  5  6  2  0  0  0  0
  5  9  1  0  0  0  0
  6 28  1  0  0  0  0
  7  9  2  0  0  0  0
  7 28  1  0  0  0  0
  8 21  1  0  0  0  0
  9 20  1  0  0  0  0
 10 26  1  0  0  0  0
 11 12  2  0  0  0  0
 11 13  1  0  0  0  0
 11 24  1  0  0  0  0
 12 22  1  0  0  0  0
 12 25  1  0  0  0  0
 13 14  2  0  0  0  0
 14 15  1  0  0  0  0
 15 16  2  0  0  0  0
 16 24  1  0  0  0  0
 17 21  1  0  0  0  0
 17 25  1  0  0  0  0
 17 27  2  0  0  0  0
 18 26  1  0  0  0  0
 19 26  1  0  0  0  0
 20 21  1  1  0  0  0
 22 23  2  0  0  0  0
 23 24  1  0  0  0  0
  1 29  1  0  0  0  0
  2 30  1  0  0  0  0
  3 31  1  0  0  0  0
  4 32  1  0  0  0  0
  5 33  1  0  0  0  0
  6 34  1  0  0  0  0
  7 35  1  0  0  0  0
 13 36  1  0  0  0  0
 14 37  1  0  0  0  0
 15 38  1  0  0  0  0
 16 39  1  0  0  0  0
 18 40  1  0  0  0  0
 18 41  1  0  0  0  0
 18 42  1  0  0  0  0
 19 43  1  0  0  0  0
 19 44  1  0  0  0  0
 19 45  1  0  0  0  0
 20 46  1  0  0  0  0
 20 47  1  0  0  0  0
 21 48  1  0  0  0  0
 25 49  1  0  0  0  0
M  END
> <clash_score>
0

> <docking_score>
-10.254193305969238

> <overlap_score>
1.0006918907165527

$$$$
BENZO_253_1
  -OEChem-08222022403D

 52 55  0     1  0  0  0  0  0999 V2000
   14.2623    1.3345   22.9975 C   0  0  0  0  0  0  0  0  0  0  0  0
   13.7729    0.5817   24.0649 C   0  0  0  0  0  0  0  0  0  0  0  0
   13.3767    1.9928   22.1442 C   0  0  0  0  0  0  0  0  0  0  0  0
   12.3978    0.4871   24.2790 C   0  0  0  0  0  0  0  0  0  0  0  0
   12.0016    1.8982   22.3583 C   0  0  0  0  0  0  0  0  0  0  0  0
    8.3510   -1.5420   24.6110 C   0  0  0  0  0  0  0  0  0  0  0  0
   10.2760   -2.3270   23.4020 C   0  0  0  0  0  0  0  0  0  0  0  0
    8.3310   -2.7170   25.3430 C   0  0  0  0  0  0  0  0  0  0  0  0
   10.2570   -3.5000   24.1350 C   0  0  0  0  0  0  0  0  0  0  0  0
   11.5121    1.1453   23.4257 C   0  0  0  0  0  0  0  0  0  0  0  0
    9.3300   -1.3350   23.6390 C   0  0  0  0  0  0  0  0  0  0  0  0
    9.2850   -3.7090   25.1090 C   0  0  0  0  0  0  0  0  0  0  0  0
    6.1600    0.3870   20.1140 C   0  0  0  0  0  0  0  0  0  0  0  0
    7.2210   -0.4620   20.0350 C   0  0  0  0  0  0  0  0  0  0  0  0
    5.3360    0.8000   21.1530 C   0  0  0  0  0  0  0  0  0  0  0  0
    4.2970    1.6690   20.8430 C   0  0  0  0  0  0  0  0  0  0  0  0
    4.0980    2.1130   19.5350 C   0  0  0  0  0  0  0  0  0  0  0  0
    4.9400    1.7060   18.5060 C   0  0  0  0  0  0  0  0  0  0  0  0
    8.9510    0.1280   21.6880 C   0  0  0  0  0  0  0  0  0  0  0  0
    8.2517   -5.1170   26.8651 C   0  0  0  0  0  0  0  0  0  0  0  0
   10.2445   -5.9404   25.6004 C   0  0  0  0  0  0  0  0  0  0  0  0
   10.0220    1.0430   23.6570 C   0  0  0  0  0  0  0  0  0  0  0  0
    9.4200   -0.0840   22.9530 C   0  0  1  0  0  0  0  0  0  0  0  0
    7.6830   -0.5170   18.7600 N   0  0  0  0  0  0  0  0  0  0  0  0
    6.9440    0.2550   18.0100 N   0  0  0  0  0  0  0  0  0  0  0  0
    5.9810    0.8330   18.8060 N   0  0  0  0  0  0  0  0  0  0  0  0
    8.0810   -0.9750   21.0820 N   0  0  0  0  0  0  0  0  0  0  0  0
    9.2638   -4.9025   25.8500 N   0  0  0  0  0  0  0  0  0  0  0  0
    9.1870    1.1500   21.0630 O   0  0  0  0  0  0  0  0  0  0  0  0
   15.3331    1.4092   22.8317 H   0  0  0  0  0  0  0  0  0  0  0  0
   14.4623    0.0700   24.7300 H   0  0  0  0  0  0  0  0  0  0  0  0
   13.7574    2.5799   21.3138 H   0  0  0  0  0  0  0  0  0  0  0  0
   12.0255   -0.1019   25.1131 H   0  0  0  0  0  0  0  0  0  0  0  0
   11.3191    2.4143   21.6883 H   0  0  0  0  0  0  0  0  0  0  0  0
    7.5957   -0.7779   24.7973 H   0  0  0  0  0  0  0  0  0  0  0  0
   11.0384   -2.1852   22.6338 H   0  0  0  0  0  0  0  0  0  0  0  0
    7.5634   -2.8637   26.1037 H   0  0  0  0  0  0  0  0  0  0  0  0
   11.0139   -4.2645   23.9419 H   0  0  0  0  0  0  0  0  0  0  0  0
    5.4735    0.4758   22.1644 H   0  0  0  0  0  0  0  0  0  0  0  0
    3.6415    1.9967   21.6408 H   0  0  0  0  0  0  0  0  0  0  0  0
    3.2720    2.7926   19.2921 H   0  0  0  0  0  0  0  0  0  0  0  0
    4.8119    2.0418   17.5005 H   0  0  0  0  0  0  0  0  0  0  0  0
    8.4017   -6.1022   27.3308 H   0  0  0  0  0  0  0  0  0  0  0  0
    8.3305   -4.3329   27.6326 H   0  0  0  0  0  0  0  0  0  0  0  0
    7.2545   -5.0782   26.4024 H   0  0  0  0  0  0  0  0  0  0  0  0
   10.0621   -6.7882   26.2771 H   0  0  0  0  0  0  0  0  0  0  0  0
   10.1619   -6.2795   24.5573 H   0  0  0  0  0  0  0  0  0  0  0  0
   11.2540   -5.5409   25.7773 H   0  0  0  0  0  0  0  0  0  0  0  0
    9.8253    0.9889   24.7357 H   0  0  0  0  0  0  0  0  0  0  0  0
    9.5635    1.9845   23.3241 H   0  0  0  0  0  0  0  0  0  0  0  0
    8.1288    0.3205   23.5156 H   0  0  0  0  0  0  0  0  0  0  0  0
    8.1159   -1.8115   21.3524 H   0  0  0  0  0  0  0  0  0  0  0  0
  1  2  1  0  0  0  0
  1  3  2  0  0  0  0
  2  4  2  0  0  0  0
  3  5  1  0  0  0  0
  4 10  1  0  0  0  0
  5 10  2  0  0  0  0
  6  8  2  0  0  0  0
  6 11  1  0  0  0  0
  7  9  1  0  0  0  0
  7 11  2  0  0  0  0
  8 12  1  0  0  0  0
  9 12  2  0  0  0  0
 10 22  1  0  0  0  0
 11 23  1  0  0  0  0
 12 28  1  0  0  0  0
 13 14  2  0  0  0  0
 13 15  1  0  0  0  0
 13 26  1  0  0  0  0
 14 24  1  0  0  0  0
 14 27  1  0  0  0  0
 15 16  2  0  0  0  0
 16 17  1  0  0  0  0
 17 18  2  0  0  0  0
 18 26  1  0  0  0  0
 19 23  1  0  0  0  0
 19 27  1  0  0  0  0
 19 29  2  0  0  0  0
 20 28  1  0  0  0  0
 21 28  1  0  0  0  0
 22 23  1  1  0  0  0
 24 25  2  0  0  0  0
 25 26  1  0  0  0  0
  1 30  1  0  0  0  0
  2 31  1  0  0  0  0
  3 32  1  0  0  0  0
  4 33  1  0  0  0  0
  5 34  1  0  0  0  0
  6 35  1  0  0  0  0
  7 36  1  0  0  0  0
  8 37  1  0  0  0  0
  9 38  1  0  0  0  0
 15 39  1  0  0  0  0
 16 40  1  0  0  0  0
 17 41  1  0  0  0  0
 18 42  1  0  0  0  0
 20 43  1  0  0  0  0
 20 44  1  0  0  0  0
 20 45  1  0  0  0  0
 21 46  1  0  0  0  0
 21 47  1  0  0  0  0
 21 48  1  0  0  0  0
 22 49  1  0  0  0  0
 22 50  1  0  0  0  0
 23 51  1  0  0  0  0
 27 52  1  0  0  0  0
M  END
> <clash_score>
0

> <docking_score>
-9.357948303222656

> <overlap_score>
1.0132724046707153

$$$$
BENZO_251_1
  -OEChem-08222022403D

 58 62  0     1  0  0  0  0  0999 V2000
    4.2970    1.6690   20.8430 C   0  0  0  0  0  0  0  0  0  0  0  0
    4.0980    2.1130   19.5350 C   0  0  0  0  0  0  0  0  0  0  0  0
    5.3360    0.8000   21.1530 C   0  0  0  0  0  0  0  0  0  0  0  0
    8.3510   -1.5420   24.6110 C   0  0  0  0  0  0  0  0  0  0  0  0
   10.2760   -2.3270   23.4020 C   0  0  0  0  0  0  0  0  0  0  0  0
    4.9400    1.7060   18.5060 C   0  0  0  0  0  0  0  0  0  0  0  0
    8.3310   -2.7170   25.3430 C   0  0  0  0  0  0  0  0  0  0  0  0
   10.2570   -3.5000   24.1350 C   0  0  0  0  0  0  0  0  0  0  0  0
   12.2990    2.3261   23.4416 C   0  0  0  0  0  0  0  0  0  0  0  0
   12.4071    0.1434   23.1984 C   0  0  0  0  0  0  0  0  0  0  0  0
    6.1600    0.3870   20.1140 C   0  0  0  0  0  0  0  0  0  0  0  0
    9.3300   -1.3350   23.6390 C   0  0  0  0  0  0  0  0  0  0  0  0
   11.5133    1.1580   23.4397 C   0  0  0  0  0  0  0  0  0  0  0  0
    5.9810    0.8330   18.8060 C   0  0  0  0  0  0  0  0  0  0  0  0
    9.2850   -3.7090   25.1090 C   0  0  0  0  0  0  0  0  0  0  0  0
    7.2210   -0.4620   20.0350 C   0  0  0  0  0  0  0  0  0  0  0  0
    8.9510    0.1280   21.6880 C   0  0  0  0  0  0  0  0  0  0  0  0
    8.7671   -4.9535   27.2147 C   0  0  0  0  0  0  0  0  0  0  0  0
    9.3066   -6.1865   25.1649 C   0  0  0  0  0  0  0  0  0  0  0  0
    7.3847   -5.5970   27.2000 C   0  0  0  0  0  0  0  0  0  0  0  0
    7.9070   -6.7999   25.2264 C   0  0  0  0  0  0  0  0  0  0  0  0
   14.8827    0.0809   22.8160 C   0  0  0  0  0  0  0  0  0  0  0  0
   10.0220    1.0430   23.6570 C   0  0  0  0  0  0  0  0  0  0  0  0
    9.4200   -0.0840   22.9530 C   0  0  1  0  0  0  0  0  0  0  0  0
   13.5924    2.0779   23.2193 N   0  0  0  0  0  0  0  0  0  0  0  0
    7.6830   -0.5170   18.7600 N   0  0  0  0  0  0  0  0  0  0  0  0
    6.9440    0.2550   18.0100 N   0  0  0  0  0  0  0  0  0  0  0  0
   13.6264    0.7422   23.0755 N   0  0  0  0  0  0  0  0  0  0  0  0
    9.2641   -4.8845   25.8388 N   0  0  0  0  0  0  0  0  0  0  0  0
    8.0810   -0.9750   21.0820 N   0  0  0  0  0  0  0  0  0  0  0  0
    9.1870    1.1500   21.0630 O   0  0  0  0  0  0  0  0  0  0  0  0
    7.4533   -6.8877   26.5818 O   0  0  0  0  0  0  0  0  0  0  0  0
    3.6274    2.0126   21.6300 H   0  0  0  0  0  0  0  0  0  0  0  0
    3.2732    2.7875   19.3199 H   0  0  0  0  0  0  0  0  0  0  0  0
    5.4878    0.4645   22.1722 H   0  0  0  0  0  0  0  0  0  0  0  0
    7.5957   -0.7779   24.7973 H   0  0  0  0  0  0  0  0  0  0  0  0
   11.0384   -2.1852   22.6338 H   0  0  0  0  0  0  0  0  0  0  0  0
    4.7853    2.0674   17.4815 H   0  0  0  0  0  0  0  0  0  0  0  0
    7.5634   -2.8637   26.1037 H   0  0  0  0  0  0  0  0  0  0  0  0
   11.0139   -4.2645   23.9419 H   0  0  0  0  0  0  0  0  0  0  0  0
   11.9854    3.3488   23.5963 H   0  0  0  0  0  0  0  0  0  0  0  0
   12.2827   -0.9271   23.1072 H   0  0  0  0  0  0  0  0  0  0  0  0
    8.7013   -3.9575   27.6574 H   0  0  0  0  0  0  0  0  0  0  0  0
    9.4480   -5.5636   27.8142 H   0  0  0  0  0  0  0  0  0  0  0  0
   10.0131   -6.8375   25.6814 H   0  0  0  0  0  0  0  0  0  0  0  0
    9.6116   -6.0794   24.1250 H   0  0  0  0  0  0  0  0  0  0  0  0
    7.0306   -5.7388   28.2232 H   0  0  0  0  0  0  0  0  0  0  0  0
    6.6546   -4.9740   26.6757 H   0  0  0  0  0  0  0  0  0  0  0  0
    7.1892   -6.2226   24.6319 H   0  0  0  0  0  0  0  0  0  0  0  0
    7.9315   -7.8151   24.8187 H   0  0  0  0  0  0  0  0  0  0  0  0
   15.0211    0.0327   21.7327 H   0  0  0  0  0  0  0  0  0  0  0  0
   15.6949    0.6471   23.2804 H   0  0  0  0  0  0  0  0  0  0  0  0
   14.8569   -0.9250   23.2444 H   0  0  0  0  0  0  0  0  0  0  0  0
    9.8155    0.9894   24.7339 H   0  0  0  0  0  0  0  0  0  0  0  0
    9.5584    1.9798   23.3178 H   0  0  0  0  0  0  0  0  0  0  0  0
    8.1278    0.3254   23.5142 H   0  0  0  0  0  0  0  0  0  0  0  0
    7.1015    0.3608   17.0505 H   0  0  0  0  0  0  0  0  0  0  0  0
    8.1354   -1.7990   21.3694 H   0  0  0  0  0  0  0  0  0  0  0  0
  1  2  1  0  0  0  0
  1  3  2  0  0  0  0
  2  6  2  0  0  0  0
  3 11  1  0  0  0  0
  4  7  2  0  0  0  0
  4 12  1  0  0  0  0
  5  8  1  0  0  0  0
  5 12  2  0  0  0  0
  6 14  1  0  0  0  0
  7 15  1  0  0  0  0
  8 15  2  0  0  0  0
  9 13  1  0  0  0  0
  9 25  2  0  0  0  0
 10 13  2  0  0  0  0
 10 28  1  0  0  0  0
 11 14  2  0  0  0  0
 11 16  1  0  0  0  0
 12 24  1  0  0  0  0
 13 23  1  0  0  0  0
 14 27  1  0  0  0  0
 15 29  1  0  0  0  0
 16 26  2  0  0  0  0
 16 30  1  0  0  0  0
 17 24  1  0  0  0  0
 17 30  1  0  0  0  0
 17 31  2  0  0  0  0
 18 20  1  0  0  0  0
 18 29  1  0  0  0  0
 19 21  1  0  0  0  0
 19 29  1  0  0  0  0
 20 32  1  0  0  0  0
 21 32  1  0  0  0  0
 22 28  1  0  0  0  0
 23 24  1  1  0  0  0
 25 28  1  0  0  0  0
 26 27  1  0  0  0  0
  1 33  1  0  0  0  0
  2 34  1  0  0  0  0
  3 35  1  0  0  0  0
  4 36  1  0  0  0  0
  5 37  1  0  0  0  0
  6 38  1  0  0  0  0
  7 39  1  0  0  0  0
  8 40  1  0  0  0  0
  9 41  1  0  0  0  0
 10 42  1  0  0  0  0
 18 43  1  0  0  0  0
 18 44  1  0  0  0  0
 19 45  1  0  0  0  0
 19 46  1  0  0  0  0
 20 47  1  0  0  0  0
 20 48  1  0  0  0  0
 21 49  1  0  0  0  0
 21 50  1  0  0  0  0
 22 51  1  0  0  0  0
 22 52  1  0  0  0  0
 22 53  1  0  0  0  0
 23 54  1  0  0  0  0
 23 55  1  0  0  0  0
 24 56  1  0  0  0  0
 27 57  1  0  0  0  0
 30 58  1  0  0  0  0
M  END
> <clash_score>
0

> <docking_score>
-7.878659248352051

> <overlap_score>
1.0284920930862427

$$$$
BENZO_252_2
  -OEChem-08222022403D

 49 52  0     1  0  0  0  0  0999 V2000
    8.3510   -1.5420   24.6110 C   0  0  0  0  0  0  0  0  0  0  0  0
   10.2760   -2.3270   23.4020 C   0  0  0  0  0  0  0  0  0  0  0  0
    8.3310   -2.7170   25.3430 C   0  0  0  0  0  0  0  0  0  0  0  0
   10.2570   -3.5000   24.1350 C   0  0  0  0  0  0  0  0  0  0  0  0
   11.0468    0.9536   26.0357 C   0  0  0  0  0  0  0  0  0  0  0  0
   12.1250    0.4348   26.7183 C   0  0  0  0  0  0  0  0  0  0  0  0
   12.1733   -0.1537   24.3307 C   0  0  0  0  0  0  0  0  0  0  0  0
    9.3300   -1.3350   23.6390 C   0  0  0  0  0  0  0  0  0  0  0  0
   11.0747    0.6126   24.6525 C   0  0  0  0  0  0  0  0  0  0  0  0
    9.2850   -3.7090   25.1090 C   0  0  0  0  0  0  0  0  0  0  0  0
    6.1600    0.3870   20.1140 C   0  0  0  0  0  0  0  0  0  0  0  0
    7.2210   -0.4620   20.0350 C   0  0  0  0  0  0  0  0  0  0  0  0
    5.3360    0.8000   21.1530 C   0  0  0  0  0  0  0  0  0  0  0  0
    4.2970    1.6690   20.8430 C   0  0  0  0  0  0  0  0  0  0  0  0
    4.0980    2.1130   19.5350 C   0  0  0  0  0  0  0  0  0  0  0  0
    4.9400    1.7060   18.5060 C   0  0  0  0  0  0  0  0  0  0  0  0
    8.9510    0.1280   21.6880 C   0  0  0  0  0  0  0  0  0  0  0  0
    8.2517   -5.1170   26.8651 C   0  0  0  0  0  0  0  0  0  0  0  0
   10.2445   -5.9404   25.6004 C   0  0  0  0  0  0  0  0  0  0  0  0
   10.0220    1.0430   23.6570 C   0  0  0  0  0  0  0  0  0  0  0  0
    9.4200   -0.0840   22.9530 C   0  0  2  0  0  0  0  0  0  0  0  0
    7.6830   -0.5170   18.7600 N   0  0  0  0  0  0  0  0  0  0  0  0
    6.9440    0.2550   18.0100 N   0  0  0  0  0  0  0  0  0  0  0  0
    5.9810    0.8330   18.8060 N   0  0  0  0  0  0  0  0  0  0  0  0
    8.0810   -0.9750   21.0820 N   0  0  0  0  0  0  0  0  0  0  0  0
    9.2638   -4.9025   25.8500 N   0  0  0  0  0  0  0  0  0  0  0  0
    9.1870    1.1500   21.0630 O   0  0  0  0  0  0  0  0  0  0  0  0
   13.1649   -0.4592   25.6929 S   0  0  0  0  0  0  0  0  0  0  0  0
    7.5957   -0.7779   24.7973 H   0  0  0  0  0  0  0  0  0  0  0  0
   11.0384   -2.1852   22.6338 H   0  0  0  0  0  0  0  0  0  0  0  0
    7.5634   -2.8637   26.1037 H   0  0  0  0  0  0  0  0  0  0  0  0
   11.0139   -4.2645   23.9419 H   0  0  0  0  0  0  0  0  0  0  0  0
   10.2771    1.5493   26.5100 H   0  0  0  0  0  0  0  0  0  0  0  0
   12.3521    0.5386   27.7699 H   0  0  0  0  0  0  0  0  0  0  0  0
   12.4454   -0.5497   23.3621 H   0  0  0  0  0  0  0  0  0  0  0  0
    5.4735    0.4758   22.1644 H   0  0  0  0  0  0  0  0  0  0  0  0
    3.6415    1.9967   21.6408 H   0  0  0  0  0  0  0  0  0  0  0  0
    3.2720    2.7926   19.2921 H   0  0  0  0  0  0  0  0  0  0  0  0
    4.8119    2.0418   17.5005 H   0  0  0  0  0  0  0  0  0  0  0  0
    8.4017   -6.1022   27.3308 H   0  0  0  0  0  0  0  0  0  0  0  0
    8.3305   -4.3329   27.6326 H   0  0  0  0  0  0  0  0  0  0  0  0
    7.2545   -5.0782   26.4024 H   0  0  0  0  0  0  0  0  0  0  0  0
   10.0621   -6.7882   26.2771 H   0  0  0  0  0  0  0  0  0  0  0  0
   10.1619   -6.2795   24.5573 H   0  0  0  0  0  0  0  0  0  0  0  0
   11.2540   -5.5409   25.7773 H   0  0  0  0  0  0  0  0  0  0  0  0
    9.2602    1.6432   24.1714 H   0  0  0  0  0  0  0  0  0  0  0  0
   10.4960    1.7269   22.9392 H   0  0  0  0  0  0  0  0  0  0  0  0
   10.7346   -0.4307   22.4468 H   0  0  0  0  0  0  0  0  0  0  0  0
    8.1159   -1.8115   21.3524 H   0  0  0  0  0  0  0  0  0  0  0  0
  1  3  2  0  0  0  0
  1  8  1  0  0  0  0
  2  4  1  0  0  0  0
  2  8  2  0  0  0  0
  3 10  1  0  0  0  0
  4 10  2  0  0  0  0
  5  6  2  0  0  0  0
  5  9  1  0  0  0  0
  6 28  1  0  0  0  0
  7  9  2  0  0  0  0
  7 28  1  0  0  0  0
  8 21  1  0  0  0  0
  9 20  1  0  0  0  0
 10 26  1  0  0  0  0
 11 12  2  0  0  0  0
 11 13  1  0  0  0  0
 11 24  1  0  0  0  0
 12 22  1  0  0  0  0
 12 25  1  0  0  0  0
 13 14  2  0  0  0  0
 14 15  1  0  0  0  0
 15 16  2  0  0  0  0
 16 24  1  0  0  0  0
 17 21  1  0  0  0  0
 17 25  1  0  0  0  0
 17 27  2  0  0  0  0
 18 26  1  0  0  0  0
 19 26  1  0  0  0  0
 20 21  1  6  0  0  0
 22 23  2  0  0  0  0
 23 24  1  0  0  0  0
  1 29  1  0  0  0  0
  2 30  1  0  0  0  0
  3 31  1  0  0  0  0
  4 32  1  0  0  0  0
  5 33  1  0  0  0  0
  6 34  1  0  0  0  0
  7 35  1  0  0  0  0
 13 36  1  0  0  0  0
 14 37  1  0  0  0  0
 15 38  1  0  0  0  0
 16 39  1  0  0  0  0
 18 40  1  0  0  0  0
 18 41  1  0  0  0  0
 18 42  1  0  0  0  0
 19 43  1  0  0  0  0
 19 44  1  0  0  0  0
 19 45  1  0  0  0  0
 20 46  1  0  0  0  0
 20 47  1  0  0  0  0
 21 48  1  0  0  0  0
 25 49  1  0  0  0  0
M  END
> <clash_score>
0

> <docking_score>
-7.414575576782227

> <overlap_score>
0.8852878212928772

$$$$
BENZO_250_2
  -OEChem-08222022403D

 58 62  0     1  0  0  0  0  0999 V2000
    4.2970    1.6690   20.8430 C   0  0  0  0  0  0  0  0  0  0  0  0
    4.0980    2.1130   19.5350 C   0  0  0  0  0  0  0  0  0  0  0  0
   13.7717    0.6100   24.1003 C   0  0  0  0  0  0  0  0  0  0  0  0
    5.3360    0.8000   21.1530 C   0  0  0  0  0  0  0  0  0  0  0  0
   12.3953    0.5053   24.3009 C   0  0  0  0  0  0  0  0  0  0  0  0
    8.3510   -1.5420   24.6110 C   0  0  0  0  0  0  0  0  0  0  0  0
   10.2760   -2.3270   23.4020 C   0  0  0  0  0  0  0  0  0  0  0  0
    4.9400    1.7060   18.5060 C   0  0  0  0  0  0  0  0  0  0  0  0
    8.3310   -2.7170   25.3430 C   0  0  0  0  0  0  0  0  0  0  0  0
   10.2570   -3.5000   24.1350 C   0  0  0  0  0  0  0  0  0  0  0  0
   14.2661    1.3676   23.0385 C   0  0  0  0  0  0  0  0  0  0  0  0
   12.0077    1.9155   22.3779 C   0  0  0  0  0  0  0  0  0  0  0  0
    6.1600    0.3870   20.1140 C   0  0  0  0  0  0  0  0  0  0  0  0
    9.3300   -1.3350   23.6390 C   0  0  0  0  0  0  0  0  0  0  0  0
   11.5133    1.1580   23.4397 C   0  0  0  0  0  0  0  0  0  0  0  0
    5.9810    0.8330   18.8060 C   0  0  0  0  0  0  0  0  0  0  0  0
    9.2850   -3.7090   25.1090 C   0  0  0  0  0  0  0  0  0  0  0  0
   13.3841    2.0203   22.1773 C   0  0  0  0  0  0  0  0  0  0  0  0
    7.2210   -0.4620   20.0350 C   0  0  0  0  0  0  0  0  0  0  0  0
    8.9510    0.1280   21.6880 C   0  0  0  0  0  0  0  0  0  0  0  0
    8.7671   -4.9535   27.2147 C   0  0  0  0  0  0  0  0  0  0  0  0
    9.3066   -6.1865   25.1649 C   0  0  0  0  0  0  0  0  0  0  0  0
    7.3847   -5.5970   27.2000 C   0  0  0  0  0  0  0  0  0  0  0  0
    7.9070   -6.7999   25.2264 C   0  0  0  0  0  0  0  0  0  0  0  0
   10.0220    1.0430   23.6570 C   0  0  0  0  0  0  0  0  0  0  0  0
    9.4200   -0.0840   22.9530 C   0  0  2  0  0  0  0  0  0  0  0  0
    7.6830   -0.5170   18.7600 N   0  0  0  0  0  0  0  0  0  0  0  0
    6.9440    0.2550   18.0100 N   0  0  0  0  0  0  0  0  0  0  0  0
    9.2641   -4.8845   25.8388 N   0  0  0  0  0  0  0  0  0  0  0  0
    8.0810   -0.9750   21.0820 N   0  0  0  0  0  0  0  0  0  0  0  0
    9.1870    1.1500   21.0630 O   0  0  0  0  0  0  0  0  0  0  0  0
    7.4533   -6.8877   26.5818 O   0  0  0  0  0  0  0  0  0  0  0  0
   13.9946    2.9539   20.8668 Cl  0  0  0  0  0  0  0  0  0  0  0  0
    3.6274    2.0126   21.6300 H   0  0  0  0  0  0  0  0  0  0  0  0
    3.2732    2.7875   19.3199 H   0  0  0  0  0  0  0  0  0  0  0  0
   14.4581    0.1015   24.7710 H   0  0  0  0  0  0  0  0  0  0  0  0
    5.4878    0.4645   22.1722 H   0  0  0  0  0  0  0  0  0  0  0  0
   12.0190   -0.0873   25.1307 H   0  0  0  0  0  0  0  0  0  0  0  0
    7.5957   -0.7779   24.7973 H   0  0  0  0  0  0  0  0  0  0  0  0
   11.0384   -2.1852   22.6338 H   0  0  0  0  0  0  0  0  0  0  0  0
    4.7853    2.0674   17.4815 H   0  0  0  0  0  0  0  0  0  0  0  0
    7.5634   -2.8637   26.1037 H   0  0  0  0  0  0  0  0  0  0  0  0
   11.0139   -4.2645   23.9419 H   0  0  0  0  0  0  0  0  0  0  0  0
   15.3412    1.4401   22.8941 H   0  0  0  0  0  0  0  0  0  0  0  0
   11.3159    2.4230   21.7095 H   0  0  0  0  0  0  0  0  0  0  0  0
    8.7013   -3.9575   27.6574 H   0  0  0  0  0  0  0  0  0  0  0  0
    9.4480   -5.5636   27.8142 H   0  0  0  0  0  0  0  0  0  0  0  0
   10.0131   -6.8375   25.6814 H   0  0  0  0  0  0  0  0  0  0  0  0
    9.6116   -6.0794   24.1250 H   0  0  0  0  0  0  0  0  0  0  0  0
    7.0306   -5.7388   28.2232 H   0  0  0  0  0  0  0  0  0  0  0  0
    6.6546   -4.9740   26.6757 H   0  0  0  0  0  0  0  0  0  0  0  0
    7.1892   -6.2226   24.6319 H   0  0  0  0  0  0  0  0  0  0  0  0
    7.9315   -7.8151   24.8187 H   0  0  0  0  0  0  0  0  0  0  0  0
    9.8155    0.9894   24.7339 H   0  0  0  0  0  0  0  0  0  0  0  0
    9.5584    1.9798   23.3178 H   0  0  0  0  0  0  0  0  0  0  0  0
    8.1278    0.3254   23.5142 H   0  0  0  0  0  0  0  0  0  0  0  0
    7.1015    0.3608   17.0505 H   0  0  0  0  0  0  0  0  0  0  0  0
    8.1354   -1.7990   21.3694 H   0  0  0  0  0  0  0  0  0  0  0  0
  1  2  1  0  0  0  0
  1  4  2  0  0  0  0
  2  8  2  0  0  0  0
  3  5  2  0  0  0  0
  3 11  1  0  0  0  0
  4 13  1  0  0  0  0
  5 15  1  0  0  0  0
  6  9  2  0  0  0  0
  6 14  1  0  0  0  0
  7 10  1  0  0  0  0
  7 14  2  0  0  0  0
  8 16  1  0  0  0  0
  9 17  1  0  0  0  0
 10 17  2  0  0  0  0
 11 18  2  0  0  0  0
 12 15  2  0  0  0  0
 12 18  1  0  0  0  0
 13 16  2  0  0  0  0
 13 19  1  0  0  0  0
 14 26  1  0  0  0  0
 15 25  1  0  0  0  0
 16 28  1  0  0  0  0
 17 29  1  0  0  0  0
 18 33  1  0  0  0  0
 19 27  2  0  0  0  0
 19 30  1  0  0  0  0
 20 26  1  6  0  0  0
 20 30  1  0  0  0  0
 20 31  2  0  0  0  0
 21 23  1  0  0  0  0
 21 29  1  0  0  0  0
 22 24  1  0  0  0  0
 22 29  1  0  0  0  0
 23 32  1  0  0  0  0
 24 32  1  0  0  0  0
 25 26  1  0  0  0  0
 27 28  1  0  0  0  0
  1 34  1  0  0  0  0
  2 35  1  0  0  0  0
  3 36  1  0  0  0  0
  4 37  1  0  0  0  0
  5 38  1  0  0  0  0
  6 39  1  0  0  0  0
  7 40  1  0  0  0  0
  8 41  1  0  0  0  0
  9 42  1  0  0  0  0
 10 43  1  0  0  0  0
 11 44  1  0  0  0  0
 12 45  1  0  0  0  0
 21 46  1  0  0  0  0
 21 47  1  0  0  0  0
 22 48  1  0  0  0  0
 22 49  1  0  0  0  0
 23 50  1  0  0  0  0
 23 51  1  0  0  0  0
 24 52  1  0  0  0  0
 24 53  1  0  0  0  0
 25 54  1  0  0  0  0
 25 55  1  0  0  0  0
 26 56  1  0  0  0  0
 28 57  1  0  0  0  0
 30 58  1  0  0  0  0
M  END
> <clash_score>
0

> <docking_score>
-6.31315803527832

> <overlap_score>
1.0296601057052612

$$$$
BENZO_253_2
  -OEChem-08222022403D

 52 55  0     1  0  0  0  0  0999 V2000
   13.8295    0.0638   25.4018 C   0  0  0  0  0  0  0  0  0  0  0  0
   12.6583   -0.1175   26.1373 C   0  0  0  0  0  0  0  0  0  0  0  0
   13.7659    0.5627   24.1007 C   0  0  0  0  0  0  0  0  0  0  0  0
   11.4234    0.2001   25.5717 C   0  0  0  0  0  0  0  0  0  0  0  0
   12.5310    0.8802   23.5351 C   0  0  0  0  0  0  0  0  0  0  0  0
    8.3510   -1.5420   24.6110 C   0  0  0  0  0  0  0  0  0  0  0  0
   10.2760   -2.3270   23.4020 C   0  0  0  0  0  0  0  0  0  0  0  0
    8.3310   -2.7170   25.3430 C   0  0  0  0  0  0  0  0  0  0  0  0
   10.2570   -3.5000   24.1350 C   0  0  0  0  0  0  0  0  0  0  0  0
   11.3598    0.6989   24.2706 C   0  0  0  0  0  0  0  0  0  0  0  0
    9.3300   -1.3350   23.6390 C   0  0  0  0  0  0  0  0  0  0  0  0
    9.2850   -3.7090   25.1090 C   0  0  0  0  0  0  0  0  0  0  0  0
    6.1600    0.3870   20.1140 C   0  0  0  0  0  0  0  0  0  0  0  0
    7.2210   -0.4620   20.0350 C   0  0  0  0  0  0  0  0  0  0  0  0
    5.3360    0.8000   21.1530 C   0  0  0  0  0  0  0  0  0  0  0  0
    4.2970    1.6690   20.8430 C   0  0  0  0  0  0  0  0  0  0  0  0
    4.0980    2.1130   19.5350 C   0  0  0  0  0  0  0  0  0  0  0  0
    4.9400    1.7060   18.5060 C   0  0  0  0  0  0  0  0  0  0  0  0
    8.9510    0.1280   21.6880 C   0  0  0  0  0  0  0  0  0  0  0  0
    8.2517   -5.1170   26.8651 C   0  0  0  0  0  0  0  0  0  0  0  0
   10.2445   -5.9404   25.6004 C   0  0  0  0  0  0  0  0  0  0  0  0
   10.0220    1.0430   23.6570 C   0  0  0  0  0  0  0  0  0  0  0  0
    9.4200   -0.0840   22.9530 C   0  0  2  0  0  0  0  0  0  0  0  0
    7.6830   -0.5170   18.7600 N   0  0  0  0  0  0  0  0  0  0  0  0
    6.9440    0.2550   18.0100 N   0  0  0  0  0  0  0  0  0  0  0  0
    5.9810    0.8330   18.8060 N   0  0  0  0  0  0  0  0  0  0  0  0
    8.0810   -0.9750   21.0820 N   0  0  0  0  0  0  0  0  0  0  0  0
    9.2638   -4.9025   25.8500 N   0  0  0  0  0  0  0  0  0  0  0  0
    9.1870    1.1500   21.0630 O   0  0  0  0  0  0  0  0  0  0  0  0
   14.7910   -0.1822   25.8428 H   0  0  0  0  0  0  0  0  0  0  0  0
   12.7077   -0.5049   27.1507 H   0  0  0  0  0  0  0  0  0  0  0  0
   14.6777    0.7050   23.5282 H   0  0  0  0  0  0  0  0  0  0  0  0
   10.5160    0.0554   26.1521 H   0  0  0  0  0  0  0  0  0  0  0  0
   12.4911    1.2683   22.5207 H   0  0  0  0  0  0  0  0  0  0  0  0
    7.5957   -0.7779   24.7973 H   0  0  0  0  0  0  0  0  0  0  0  0
   11.0384   -2.1852   22.6338 H   0  0  0  0  0  0  0  0  0  0  0  0
    7.5634   -2.8637   26.1037 H   0  0  0  0  0  0  0  0  0  0  0  0
   11.0139   -4.2645   23.9419 H   0  0  0  0  0  0  0  0  0  0  0  0
    5.4735    0.4758   22.1644 H   0  0  0  0  0  0  0  0  0  0  0  0
    3.6415    1.9967   21.6408 H   0  0  0  0  0  0  0  0  0  0  0  0
    3.2720    2.7926   19.2921 H   0  0  0  0  0  0  0  0  0  0  0  0
    4.8119    2.0418   17.5005 H   0  0  0  0  0  0  0  0  0  0  0  0
    8.4017   -6.1022   27.3308 H   0  0  0  0  0  0  0  0  0  0  0  0
    8.3305   -4.3329   27.6326 H   0  0  0  0  0  0  0  0  0  0  0  0
    7.2545   -5.0782   26.4024 H   0  0  0  0  0  0  0  0  0  0  0  0
   10.0621   -6.7882   26.2771 H   0  0  0  0  0  0  0  0  0  0  0  0
   10.1619   -6.2795   24.5573 H   0  0  0  0  0  0  0  0  0  0  0  0
   11.2540   -5.5409   25.7773 H   0  0  0  0  0  0  0  0  0  0  0  0
    9.3529    1.4272   24.4380 H   0  0  0  0  0  0  0  0  0  0  0  0
   10.1743    1.8827   22.9648 H   0  0  0  0  0  0  0  0  0  0  0  0
   10.7346   -0.4307   22.4468 H   0  0  0  0  0  0  0  0  0  0  0  0
    8.1159   -1.8115   21.3524 H   0  0  0  0  0  0  0  0  0  0  0  0
  1  2  1  0  0  0  0
  1  3  2  0  0  0  0
  2  4  2  0  0  0  0
  3  5  1  0  0  0  0
  4 10  1  0  0  0  0
  5 10  2  0  0  0  0
  6  8  2  0  0  0  0
  6 11  1  0  0  0  0
  7  9  1  0  0  0  0
  7 11  2  0  0  0  0
  8 12  1  0  0  0  0
  9 12  2  0  0  0  0
 10 22  1  0  0  0  0
 11 23  1  0  0  0  0
 12 28  1  0  0  0  0
 13 14  2  0  0  0  0
 13 15  1  0  0  0  0
 13 26  1  0  0  0  0
 14 24  1  0  0  0  0
 14 27  1  0  0  0  0
 15 16  2  0  0  0  0
 16 17  1  0  0  0  0
 17 18  2  0  0  0  0
 18 26  1  0  0  0  0
 19 23  1  0  0  0  0
 19 27  1  0  0  0  0
 19 29  2  0  0  0  0
 20 28  1  0  0  0  0
 21 28  1  0  0  0  0
 22 23  1  6  0  0  0
 24 25  2  0  0  0  0
 25 26  1  0  0  0  0
  1 30  1  0  0  0  0
  2 31  1  0  0  0  0
  3 32  1  0  0  0  0
  4 33  1  0  0  0  0
  5 34  1  0  0  0  0
  6 35  1  0  0  0  0
  7 36  1  0  0  0  0
  8 37  1  0  0  0  0
  9 38  1  0  0  0  0
 15 39  1  0  0  0  0
 16 40  1  0  0  0  0
 17 41  1  0  0  0  0
 18 42  1  0  0  0  0
 20 43  1  0  0  0  0
 20 44  1  0  0  0  0
 20 45  1  0  0  0  0
 21 46  1  0  0  0  0
 21 47  1  0  0  0  0
 21 48  1  0  0  0  0
 22 49  1  0  0  0  0
 22 50  1  0  0  0  0
 23 51  1  0  0  0  0
 27 52  1  0  0  0  0
M  END
> <clash_score>
0.6066494260958748

> <docking_score>
-8.420402526855469

> <overlap_score>
0.9354792833328247

$$$$
BENZO_250_1
  -OEChem-08222022403D

 58 62  0     1  0  0  0  0  0999 V2000
    4.2970    1.6690   20.8430 C   0  0  0  0  0  0  0  0  0  0  0  0
    4.0980    2.1130   19.5350 C   0  0  0  0  0  0  0  0  0  0  0  0
   13.7706    0.6102   24.1095 C   0  0  0  0  0  0  0  0  0  0  0  0
    5.3360    0.8000   21.1530 C   0  0  0  0  0  0  0  0  0  0  0  0
   12.5330    0.9096   23.5401 C   0  0  0  0  0  0  0  0  0  0  0  0
    8.3510   -1.5420   24.6110 C   0  0  0  0  0  0  0  0  0  0  0  0
   10.2760   -2.3270   23.4020 C   0  0  0  0  0  0  0  0  0  0  0  0
    4.9400    1.7060   18.5060 C   0  0  0  0  0  0  0  0  0  0  0  0
    8.3310   -2.7170   25.3430 C   0  0  0  0  0  0  0  0  0  0  0  0
   10.2570   -3.5000   24.1350 C   0  0  0  0  0  0  0  0  0  0  0  0
   13.8379    0.1183   25.4130 C   0  0  0  0  0  0  0  0  0  0  0  0
   11.4299    0.2253   25.5778 C   0  0  0  0  0  0  0  0  0  0  0  0
    6.1600    0.3870   20.1140 C   0  0  0  0  0  0  0  0  0  0  0  0
    9.3300   -1.3350   23.6390 C   0  0  0  0  0  0  0  0  0  0  0  0
   11.3626    0.7172   24.2742 C   0  0  0  0  0  0  0  0  0  0  0  0
    5.9810    0.8330   18.8060 C   0  0  0  0  0  0  0  0  0  0  0  0
    9.2850   -3.7090   25.1090 C   0  0  0  0  0  0  0  0  0  0  0  0
   12.6676   -0.0742   26.1471 C   0  0  0  0  0  0  0  0  0  0  0  0
    7.2210   -0.4620   20.0350 C   0  0  0  0  0  0  0  0  0  0  0  0
    8.9510    0.1280   21.6880 C   0  0  0  0  0  0  0  0  0  0  0  0
    8.7671   -4.9535   27.2147 C   0  0  0  0  0  0  0  0  0  0  0  0
    9.3066   -6.1865   25.1649 C   0  0  0  0  0  0  0  0  0  0  0  0
    7.3847   -5.5970   27.2000 C   0  0  0  0  0  0  0  0  0  0  0  0
    7.9070   -6.7999   25.2264 C   0  0  0  0  0  0  0  0  0  0  0  0
   10.0220    1.0430   23.6570 C   0  0  0  0  0  0  0  0  0  0  0  0
    9.4200   -0.0840   22.9530 C   0  0  1  0  0  0  0  0  0  0  0  0
    7.6830   -0.5170   18.7600 N   0  0  0  0  0  0  0  0  0  0  0  0
    6.9440    0.2550   18.0100 N   0  0  0  0  0  0  0  0  0  0  0  0
    9.2641   -4.8845   25.8388 N   0  0  0  0  0  0  0  0  0  0  0  0
    8.0810   -0.9750   21.0820 N   0  0  0  0  0  0  0  0  0  0  0  0
    9.1870    1.1500   21.0630 O   0  0  0  0  0  0  0  0  0  0  0  0
    7.4533   -6.8877   26.5818 O   0  0  0  0  0  0  0  0  0  0  0  0
   12.7514   -0.6800   27.7557 Cl  0  0  0  0  0  0  0  0  0  0  0  0
    3.6274    2.0126   21.6300 H   0  0  0  0  0  0  0  0  0  0  0  0
    3.2732    2.7875   19.3199 H   0  0  0  0  0  0  0  0  0  0  0  0
   14.6817    0.7603   23.5375 H   0  0  0  0  0  0  0  0  0  0  0  0
    5.4878    0.4645   22.1722 H   0  0  0  0  0  0  0  0  0  0  0  0
   12.4900    1.2926   22.5238 H   0  0  0  0  0  0  0  0  0  0  0  0
    7.5957   -0.7779   24.7973 H   0  0  0  0  0  0  0  0  0  0  0  0
   11.0384   -2.1852   22.6338 H   0  0  0  0  0  0  0  0  0  0  0  0
    4.7853    2.0674   17.4815 H   0  0  0  0  0  0  0  0  0  0  0  0
    7.5634   -2.8637   26.1037 H   0  0  0  0  0  0  0  0  0  0  0  0
   11.0139   -4.2645   23.9419 H   0  0  0  0  0  0  0  0  0  0  0  0
   14.8095   -0.1105   25.8440 H   0  0  0  0  0  0  0  0  0  0  0  0
   10.5146    0.0765   26.1458 H   0  0  0  0  0  0  0  0  0  0  0  0
    8.7013   -3.9575   27.6574 H   0  0  0  0  0  0  0  0  0  0  0  0
    9.4480   -5.5636   27.8142 H   0  0  0  0  0  0  0  0  0  0  0  0
   10.0131   -6.8375   25.6814 H   0  0  0  0  0  0  0  0  0  0  0  0
    9.6116   -6.0794   24.1250 H   0  0  0  0  0  0  0  0  0  0  0  0
    7.0306   -5.7388   28.2232 H   0  0  0  0  0  0  0  0  0  0  0  0
    6.6546   -4.9740   26.6757 H   0  0  0  0  0  0  0  0  0  0  0  0
    7.1892   -6.2226   24.6319 H   0  0  0  0  0  0  0  0  0  0  0  0
    7.9315   -7.8151   24.8187 H   0  0  0  0  0  0  0  0  0  0  0  0
    9.3482    1.4259   24.4346 H   0  0  0  0  0  0  0  0  0  0  0  0
   10.1663    1.8792   22.9588 H   0  0  0  0  0  0  0  0  0  0  0  0
   10.7366   -0.4277   22.4442 H   0  0  0  0  0  0  0  0  0  0  0  0
    7.1015    0.3608   17.0505 H   0  0  0  0  0  0  0  0  0  0  0  0
    8.1354   -1.7990   21.3694 H   0  0  0  0  0  0  0  0  0  0  0  0
  1  2  1  0  0  0  0
  1  4  2  0  0  0  0
  2  8  2  0  0  0  0
  3  5  2  0  0  0  0
  3 11  1  0  0  0  0
  4 13  1  0  0  0  0
  5 15  1  0  0  0  0
  6  9  2  0  0  0  0
  6 14  1  0  0  0  0
  7 10  1  0  0  0  0
  7 14  2  0  0  0  0
  8 16  1  0  0  0  0
  9 17  1  0  0  0  0
 10 17  2  0  0  0  0
 11 18  2  0  0  0  0
 12 15  2  0  0  0  0
 12 18  1  0  0  0  0
 13 16  2  0  0  0  0
 13 19  1  0  0  0  0
 14 26  1  0  0  0  0
 15 25  1  0  0  0  0
 16 28  1  0  0  0  0
 17 29  1  0  0  0  0
 18 33  1  0  0  0  0
 19 27  2  0  0  0  0
 19 30  1  0  0  0  0
 20 26  1  1  0  0  0
 20 30  1  0  0  0  0
 20 31  2  0  0  0  0
 21 23  1  0  0  0  0
 21 29  1  0  0  0  0
 22 24  1  0  0  0  0
 22 29  1  0  0  0  0
 23 32  1  0  0  0  0
 24 32  1  0  0  0  0
 25 26  1  0  0  0  0
 27 28  1  0  0  0  0
  1 34  1  0  0  0  0
  2 35  1  0  0  0  0
  3 36  1  0  0  0  0
  4 37  1  0  0  0  0
  5 38  1  0  0  0  0
  6 39  1  0  0  0  0
  7 40  1  0  0  0  0
  8 41  1  0  0  0  0
  9 42  1  0  0  0  0
 10 43  1  0  0  0  0
 11 44  1  0  0  0  0
 12 45  1  0  0  0  0
 21 46  1  0  0  0  0
 21 47  1  0  0  0  0
 22 48  1  0  0  0  0
 22 49  1  0  0  0  0
 23 50  1  0  0  0  0
 23 51  1  0  0  0  0
 24 52  1  0  0  0  0
 24 53  1  0  0  0  0
 25 54  1  0  0  0  0
 25 55  1  0  0  0  0
 26 56  1  0  0  0  0
 28 57  1  0  0  0  0
 30 58  1  0  0  0  0
M  END
> <clash_score>
1.5650094966294676

> <docking_score>
-5.2947187423706055

> <overlap_score>
0.9480651021003723

$$$$
BENZO_255_2
  -OEChem-08222022403D

 52 55  0     1  0  0  0  0  0999 V2000
    8.3510   -1.5420   24.6110 C   0  0  0  0  0  0  0  0  0  0  0  0
   10.2760   -2.3270   23.4020 C   0  0  0  0  0  0  0  0  0  0  0  0
    8.3310   -2.7170   25.3430 C   0  0  0  0  0  0  0  0  0  0  0  0
   10.2570   -3.5000   24.1350 C   0  0  0  0  0  0  0  0  0  0  0  0
   12.6346    0.8176   23.6854 C   0  0  0  0  0  0  0  0  0  0  0  0
   11.6038    0.2020   25.5275 C   0  0  0  0  0  0  0  0  0  0  0  0
    9.3300   -1.3350   23.6390 C   0  0  0  0  0  0  0  0  0  0  0  0
   11.3598    0.6989   24.2706 C   0  0  0  0  0  0  0  0  0  0  0  0
    9.2850   -3.7090   25.1090 C   0  0  0  0  0  0  0  0  0  0  0  0
    6.1600    0.3870   20.1140 C   0  0  0  0  0  0  0  0  0  0  0  0
    7.2210   -0.4620   20.0350 C   0  0  0  0  0  0  0  0  0  0  0  0
    5.3360    0.8000   21.1530 C   0  0  0  0  0  0  0  0  0  0  0  0
    4.2970    1.6690   20.8430 C   0  0  0  0  0  0  0  0  0  0  0  0
    4.0980    2.1130   19.5350 C   0  0  0  0  0  0  0  0  0  0  0  0
    4.9400    1.7060   18.5060 C   0  0  0  0  0  0  0  0  0  0  0  0
    8.9510    0.1280   21.6880 C   0  0  0  0  0  0  0  0  0  0  0  0
   13.6941   -0.4329   26.7549 C   0  0  0  0  0  0  0  0  0  0  0  0
    8.2517   -5.1170   26.8651 C   0  0  0  0  0  0  0  0  0  0  0  0
   10.2445   -5.9404   25.6004 C   0  0  0  0  0  0  0  0  0  0  0  0
   10.0220    1.0430   23.6570 C   0  0  0  0  0  0  0  0  0  0  0  0
    9.4200   -0.0840   22.9530 C   0  0  2  0  0  0  0  0  0  0  0  0
   13.6158    0.4277   24.5035 N   0  0  0  0  0  0  0  0  0  0  0  0
    7.6830   -0.5170   18.7600 N   0  0  0  0  0  0  0  0  0  0  0  0
    6.9440    0.2550   18.0100 N   0  0  0  0  0  0  0  0  0  0  0  0
   12.9573    0.0592   25.6156 N   0  0  0  0  0  0  0  0  0  0  0  0
    5.9810    0.8330   18.8060 N   0  0  0  0  0  0  0  0  0  0  0  0
    8.0810   -0.9750   21.0820 N   0  0  0  0  0  0  0  0  0  0  0  0
    9.2638   -4.9025   25.8500 N   0  0  0  0  0  0  0  0  0  0  0  0
    9.1870    1.1500   21.0630 O   0  0  0  0  0  0  0  0  0  0  0  0
    7.5957   -0.7779   24.7973 H   0  0  0  0  0  0  0  0  0  0  0  0
   11.0384   -2.1852   22.6338 H   0  0  0  0  0  0  0  0  0  0  0  0
    7.5634   -2.8637   26.1037 H   0  0  0  0  0  0  0  0  0  0  0  0
   11.0139   -4.2645   23.9419 H   0  0  0  0  0  0  0  0  0  0  0  0
   12.8922    1.1725   22.6975 H   0  0  0  0  0  0  0  0  0  0  0  0
   10.9461   -0.0545   26.3470 H   0  0  0  0  0  0  0  0  0  0  0  0
    5.4735    0.4758   22.1644 H   0  0  0  0  0  0  0  0  0  0  0  0
    3.6415    1.9967   21.6408 H   0  0  0  0  0  0  0  0  0  0  0  0
    3.2720    2.7926   19.2921 H   0  0  0  0  0  0  0  0  0  0  0  0
    4.8119    2.0418   17.5005 H   0  0  0  0  0  0  0  0  0  0  0  0
   13.7879   -1.5173   26.6532 H   0  0  0  0  0  0  0  0  0  0  0  0
   14.6819    0.0356   26.7797 H   0  0  0  0  0  0  0  0  0  0  0  0
   13.1542   -0.1790   27.6714 H   0  0  0  0  0  0  0  0  0  0  0  0
    8.4017   -6.1022   27.3308 H   0  0  0  0  0  0  0  0  0  0  0  0
    8.3305   -4.3329   27.6326 H   0  0  0  0  0  0  0  0  0  0  0  0
    7.2545   -5.0782   26.4024 H   0  0  0  0  0  0  0  0  0  0  0  0
   10.0621   -6.7882   26.2771 H   0  0  0  0  0  0  0  0  0  0  0  0
   10.1619   -6.2795   24.5573 H   0  0  0  0  0  0  0  0  0  0  0  0
   11.2540   -5.5409   25.7773 H   0  0  0  0  0  0  0  0  0  0  0  0
    9.3529    1.4272   24.4380 H   0  0  0  0  0  0  0  0  0  0  0  0
   10.1743    1.8827   22.9648 H   0  0  0  0  0  0  0  0  0  0  0  0
   10.7346   -0.4307   22.4468 H   0  0  0  0  0  0  0  0  0  0  0  0
    8.1159   -1.8115   21.3524 H   0  0  0  0  0  0  0  0  0  0  0  0
  1  3  2  0  0  0  0
  1  7  1  0  0  0  0
  2  4  1  0  0  0  0
  2  7  2  0  0  0  0
  3  9  1  0  0  0  0
  4  9  2  0  0  0  0
  5  8  1  0  0  0  0
  5 22  2  0  0  0  0
  6  8  2  0  0  0  0
  6 25  1  0  0  0  0
  7 21  1  0  0  0  0
  8 20  1  0  0  0  0
  9 28  1  0  0  0  0
 10 11  2  0  0  0  0
 10 12  1  0  0  0  0
 10 26  1  0  0  0  0
 11 23  1  0  0  0  0
 11 27  1  0  0  0  0
 12 13  2  0  0  0  0
 13 14  1  0  0  0  0
 14 15  2  0  0  0  0
 15 26  1  0  0  0  0
 16 21  1  0  0  0  0
 16 27  1  0  0  0  0
 16 29  2  0  0  0  0
 17 25  1  0  0  0  0
 18 28  1  0  0  0  0
 19 28  1  0  0  0  0
 20 21  1  6  0  0  0
 22 25  1  0  0  0  0
 23 24  2  0  0  0  0
 24 26  1  0  0  0  0
  1 30  1  0  0  0  0
  2 31  1  0  0  0  0
  3 32  1  0  0  0  0
  4 33  1  0  0  0  0
  5 34  1  0  0  0  0
  6 35  1  0  0  0  0
 12 36  1  0  0  0  0
 13 37  1  0  0  0  0
 14 38  1  0  0  0  0
 15 39  1  0  0  0  0
 17 40  1  0  0  0  0
 17 41  1  0  0  0  0
 17 42  1  0  0  0  0
 18 43  1  0  0  0  0
 18 44  1  0  0  0  0
 18 45  1  0  0  0  0
 19 46  1  0  0  0  0
 19 47  1  0  0  0  0
 19 48  1  0  0  0  0
 20 49  1  0  0  0  0
 20 50  1  0  0  0  0
 21 51  1  0  0  0  0
 27 52  1  0  0  0  0
M  END
> <clash_score>
0.7451124426551353

> <docking_score>
-8.260458946228027

> <overlap_score>
0.9268186688423157

$$$$
BENZO_255_1
  -OEChem-08222022403D

 52 55  0     1  0  0  0  0  0999 V2000
    8.3510   -1.5420   24.6110 C   0  0  0  0  0  0  0  0  0  0  0  0
   10.2760   -2.3270   23.4020 C   0  0  0  0  0  0  0  0  0  0  0  0
    8.3310   -2.7170   25.3430 C   0  0  0  0  0  0  0  0  0  0  0  0
   10.2570   -3.5000   24.1350 C   0  0  0  0  0  0  0  0  0  0  0  0
   12.3075    2.3068   23.4193 C   0  0  0  0  0  0  0  0  0  0  0  0
   12.3951    0.1231   23.1769 C   0  0  0  0  0  0  0  0  0  0  0  0
    9.3300   -1.3350   23.6390 C   0  0  0  0  0  0  0  0  0  0  0  0
   11.5121    1.1453   23.4257 C   0  0  0  0  0  0  0  0  0  0  0  0
    9.2850   -3.7090   25.1090 C   0  0  0  0  0  0  0  0  0  0  0  0
    6.1600    0.3870   20.1140 C   0  0  0  0  0  0  0  0  0  0  0  0
    7.2210   -0.4620   20.0350 C   0  0  0  0  0  0  0  0  0  0  0  0
    5.3360    0.8000   21.1530 C   0  0  0  0  0  0  0  0  0  0  0  0
    4.2970    1.6690   20.8430 C   0  0  0  0  0  0  0  0  0  0  0  0
    4.0980    2.1130   19.5350 C   0  0  0  0  0  0  0  0  0  0  0  0
    4.9400    1.7060   18.5060 C   0  0  0  0  0  0  0  0  0  0  0  0
    8.9510    0.1280   21.6880 C   0  0  0  0  0  0  0  0  0  0  0  0
   14.8664    0.0395   22.7716 C   0  0  0  0  0  0  0  0  0  0  0  0
    8.2517   -5.1170   26.8651 C   0  0  0  0  0  0  0  0  0  0  0  0
   10.2445   -5.9404   25.6004 C   0  0  0  0  0  0  0  0  0  0  0  0
   10.0220    1.0430   23.6570 C   0  0  0  0  0  0  0  0  0  0  0  0
    9.4200   -0.0840   22.9530 C   0  0  1  0  0  0  0  0  0  0  0  0
   13.5967    2.0476   23.1851 N   0  0  0  0  0  0  0  0  0  0  0  0
    7.6830   -0.5170   18.7600 N   0  0  0  0  0  0  0  0  0  0  0  0
    6.9440    0.2550   18.0100 N   0  0  0  0  0  0  0  0  0  0  0  0
   13.6181    0.7115   23.0422 N   0  0  0  0  0  0  0  0  0  0  0  0
    5.9810    0.8330   18.8060 N   0  0  0  0  0  0  0  0  0  0  0  0
    8.0810   -0.9750   21.0820 N   0  0  0  0  0  0  0  0  0  0  0  0
    9.2638   -4.9025   25.8500 N   0  0  0  0  0  0  0  0  0  0  0  0
    9.1870    1.1500   21.0630 O   0  0  0  0  0  0  0  0  0  0  0  0
    7.5957   -0.7779   24.7973 H   0  0  0  0  0  0  0  0  0  0  0  0
   11.0384   -2.1852   22.6338 H   0  0  0  0  0  0  0  0  0  0  0  0
    7.5634   -2.8637   26.1037 H   0  0  0  0  0  0  0  0  0  0  0  0
   11.0139   -4.2645   23.9419 H   0  0  0  0  0  0  0  0  0  0  0  0
   12.0040    3.3322   23.5761 H   0  0  0  0  0  0  0  0  0  0  0  0
   12.2609   -0.9465   23.0878 H   0  0  0  0  0  0  0  0  0  0  0  0
    5.4735    0.4758   22.1644 H   0  0  0  0  0  0  0  0  0  0  0  0
    3.6415    1.9967   21.6408 H   0  0  0  0  0  0  0  0  0  0  0  0
    3.2720    2.7926   19.2921 H   0  0  0  0  0  0  0  0  0  0  0  0
    4.8119    2.0418   17.5005 H   0  0  0  0  0  0  0  0  0  0  0  0
   14.9942   -0.0107   21.6871 H   0  0  0  0  0  0  0  0  0  0  0  0
   15.6877    0.5992   23.2278 H   0  0  0  0  0  0  0  0  0  0  0  0
   14.8362   -0.9658   23.2010 H   0  0  0  0  0  0  0  0  0  0  0  0
    8.4017   -6.1022   27.3308 H   0  0  0  0  0  0  0  0  0  0  0  0
    8.3305   -4.3329   27.6326 H   0  0  0  0  0  0  0  0  0  0  0  0
    7.2545   -5.0782   26.4024 H   0  0  0  0  0  0  0  0  0  0  0  0
   10.0621   -6.7882   26.2771 H   0  0  0  0  0  0  0  0  0  0  0  0
   10.1619   -6.2795   24.5573 H   0  0  0  0  0  0  0  0  0  0  0  0
   11.2540   -5.5409   25.7773 H   0  0  0  0  0  0  0  0  0  0  0  0
    9.8253    0.9889   24.7357 H   0  0  0  0  0  0  0  0  0  0  0  0
    9.5635    1.9845   23.3241 H   0  0  0  0  0  0  0  0  0  0  0  0
    8.1288    0.3205   23.5156 H   0  0  0  0  0  0  0  0  0  0  0  0
    8.1159   -1.8115   21.3524 H   0  0  0  0  0  0  0  0  0  0  0  0
  1  3  2  0  0  0  0
  1  7  1  0  0  0  0
  2  4  1  0  0  0  0
  2  7  2  0  0  0  0
  3  9  1  0  0  0  0
  4  9  2  0  0  0  0
  5  8  1  0  0  0  0
  5 22  2  0  0  0  0
  6  8  2  0  0  0  0
  6 25  1  0  0  0  0
  7 21  1  0  0  0  0
  8 20  1  0  0  0  0
  9 28  1  0  0  0  0
 10 11  2  0  0  0  0
 10 12  1  0  0  0  0
 10 26  1  0  0  0  0
 11 23  1  0  0  0  0
 11 27  1  0  0  0  0
 12 13  2  0  0  0  0
 13 14  1  0  0  0  0
 14 15  2  0  0  0  0
 15 26  1  0  0  0  0
 16 21  1  0  0  0  0
 16 27  1  0  0  0  0
 16 29  2  0  0  0  0
 17 25  1  0  0  0  0
 18 28  1  0  0  0  0
 19 28  1  0  0  0  0
 20 21  1  1  0  0  0
 22 25  1  0  0  0  0
 23 24  2  0  0  0  0
 24 26  1  0  0  0  0
  1 30  1  0  0  0  0
  2 31  1  0  0  0  0
  3 32  1  0  0  0  0
  4 33  1  0  0  0  0
  5 34  1  0  0  0  0
  6 35  1  0  0  0  0
 12 36  1  0  0  0  0
 13 37  1  0  0  0  0
 14 38  1  0  0  0  0
 15 39  1  0  0  0  0
 17 40  1  0  0  0  0
 17 41  1  0  0  0  0
 17 42  1  0  0  0  0
 18 43  1  0  0  0  0
 18 44  1  0  0  0  0
 18 45  1  0  0  0  0
 19 46  1  0  0  0  0
 19 47  1  0  0  0  0
 19 48  1  0  0  0  0
 20 49  1  0  0  0  0
 20 50  1  0  0  0  0
 21 51  1  0  0  0  0
 27 52  1  0  0  0  0
M  END
> <clash_score>
0

> <docking_score>
-10.127164840698242

> <overlap_score>
1.015321969985962

$$$$
BENZO_254_1
  -OEChem-08222022403D

 52 55  0     1  0  0  0  0  0999 V2000
   13.7719    0.5789   24.0657 C   0  0  0  0  0  0  0  0  0  0  0  0
   12.3966    0.4859   24.2792 C   0  0  0  0  0  0  0  0  0  0  0  0
    8.3510   -1.5420   24.6110 C   0  0  0  0  0  0  0  0  0  0  0  0
   10.2760   -2.3270   23.4020 C   0  0  0  0  0  0  0  0  0  0  0  0
    8.3310   -2.7170   25.3430 C   0  0  0  0  0  0  0  0  0  0  0  0
   10.2570   -3.5000   24.1350 C   0  0  0  0  0  0  0  0  0  0  0  0
   14.2627    1.3315   22.9987 C   0  0  0  0  0  0  0  0  0  0  0  0
   12.0029    1.8978   22.3587 C   0  0  0  0  0  0  0  0  0  0  0  0
    9.3300   -1.3350   23.6390 C   0  0  0  0  0  0  0  0  0  0  0  0
   11.5121    1.1453   23.4257 C   0  0  0  0  0  0  0  0  0  0  0  0
    9.2850   -3.7090   25.1090 C   0  0  0  0  0  0  0  0  0  0  0  0
   13.3782    1.9909   22.1452 C   0  0  0  0  0  0  0  0  0  0  0  0
    6.1600    0.3870   20.1140 C   0  0  0  0  0  0  0  0  0  0  0  0
    7.2210   -0.4620   20.0350 C   0  0  0  0  0  0  0  0  0  0  0  0
    5.3360    0.8000   21.1530 C   0  0  0  0  0  0  0  0  0  0  0  0
    4.2970    1.6690   20.8430 C   0  0  0  0  0  0  0  0  0  0  0  0
    4.0980    2.1130   19.5350 C   0  0  0  0  0  0  0  0  0  0  0  0
    4.9400    1.7060   18.5060 C   0  0  0  0  0  0  0  0  0  0  0  0
    8.9510    0.1280   21.6880 C   0  0  0  0  0  0  0  0  0  0  0  0
    8.2517   -5.1170   26.8651 C   0  0  0  0  0  0  0  0  0  0  0  0
   10.2445   -5.9404   25.6004 C   0  0  0  0  0  0  0  0  0  0  0  0
   10.0220    1.0430   23.6570 C   0  0  0  0  0  0  0  0  0  0  0  0
    9.4200   -0.0840   22.9530 C   0  0  1  0  0  0  0  0  0  0  0  0
    7.6830   -0.5170   18.7600 N   0  0  0  0  0  0  0  0  0  0  0  0
    6.9440    0.2550   18.0100 N   0  0  0  0  0  0  0  0  0  0  0  0
    5.9810    0.8330   18.8060 N   0  0  0  0  0  0  0  0  0  0  0  0
    8.0810   -0.9750   21.0820 N   0  0  0  0  0  0  0  0  0  0  0  0
    9.2638   -4.9025   25.8500 N   0  0  0  0  0  0  0  0  0  0  0  0
    9.1870    1.1500   21.0630 O   0  0  0  0  0  0  0  0  0  0  0  0
   13.9842    2.9183   20.8282 Cl  0  0  0  0  0  0  0  0  0  0  0  0
   14.4603    0.0652   24.7304 H   0  0  0  0  0  0  0  0  0  0  0  0
   12.0231   -0.1028   25.1130 H   0  0  0  0  0  0  0  0  0  0  0  0
    7.5957   -0.7779   24.7973 H   0  0  0  0  0  0  0  0  0  0  0  0
   11.0384   -2.1852   22.6338 H   0  0  0  0  0  0  0  0  0  0  0  0
    7.5634   -2.8637   26.1037 H   0  0  0  0  0  0  0  0  0  0  0  0
   11.0139   -4.2645   23.9419 H   0  0  0  0  0  0  0  0  0  0  0  0
   15.3370    1.3949   22.8442 H   0  0  0  0  0  0  0  0  0  0  0  0
   11.3092    2.4105   21.6963 H   0  0  0  0  0  0  0  0  0  0  0  0
    5.4735    0.4758   22.1644 H   0  0  0  0  0  0  0  0  0  0  0  0
    3.6415    1.9967   21.6408 H   0  0  0  0  0  0  0  0  0  0  0  0
    3.2720    2.7926   19.2921 H   0  0  0  0  0  0  0  0  0  0  0  0
    4.8119    2.0418   17.5005 H   0  0  0  0  0  0  0  0  0  0  0  0
    8.4017   -6.1022   27.3308 H   0  0  0  0  0  0  0  0  0  0  0  0
    8.3305   -4.3329   27.6326 H   0  0  0  0  0  0  0  0  0  0  0  0
    7.2545   -5.0782   26.4024 H   0  0  0  0  0  0  0  0  0  0  0  0
   10.0621   -6.7882   26.2771 H   0  0  0  0  0  0  0  0  0  0  0  0
   10.1619   -6.2795   24.5573 H   0  0  0  0  0  0  0  0  0  0  0  0
   11.2540   -5.5409   25.7773 H   0  0  0  0  0  0  0  0  0  0  0  0
    9.8253    0.9889   24.7357 H   0  0  0  0  0  0  0  0  0  0  0  0
    9.5635    1.9845   23.3241 H   0  0  0  0  0  0  0  0  0  0  0  0
    8.1288    0.3205   23.5156 H   0  0  0  0  0  0  0  0  0  0  0  0
    8.1159   -1.8115   21.3524 H   0  0  0  0  0  0  0  0  0  0  0  0
  1  2  2  0  0  0  0
  1  7  1  0  0  0  0
  2 10  1  0  0  0  0
  3  5  2  0  0  0  0
  3  9  1  0  0  0  0
  4  6  1  0  0  0  0
  4  9  2  0  0  0  0
  5 11  1  0  0  0  0
  6 11  2  0  0  0  0
  7 12  2  0  0  0  0
  8 10  2  0  0  0  0
  8 12  1  0  0  0  0
  9 23  1  0  0  0  0
 10 22  1  0  0  0  0
 11 28  1  0  0  0  0
 12 30  1  0  0  0  0
 13 14  2  0  0  0  0
 13 15  1  0  0  0  0
 13 26  1  0  0  0  0
 14 24  1  0  0  0  0
 14 27  1  0  0  0  0
 15 16  2  0  0  0  0
 16 17  1  0  0  0  0
 17 18  2  0  0  0  0
 18 26  1  0  0  0  0
 19 23  1  0  0  0  0
 19 27  1  0  0  0  0
 19 29  2  0  0  0  0
 20 28  1  0  0  0  0
 21 28  1  0  0  0  0
 22 23  1  1  0  0  0
 24 25  2  0  0  0  0
 25 26  1  0  0  0  0
  1 31  1  0  0  0  0
  2 32  1  0  0  0  0
  3 33  1  0  0  0  0
  4 34  1  0  0  0  0
  5 35  1  0  0  0  0
  6 36  1  0  0  0  0
  7 37  1  0  0  0  0
  8 38  1  0  0  0  0
 15 39  1  0  0  0  0
 16 40  1  0  0  0  0
 17 41  1  0  0  0  0
 18 42  1  0  0  0  0
 20 43  1  0  0  0  0
 20 44  1  0  0  0  0
 20 45  1  0  0  0  0
 21 46  1  0  0  0  0
 21 47  1  0  0  0  0
 21 48  1  0  0  0  0
 22 49  1  0  0  0  0
 22 50  1  0  0  0  0
 23 51  1  0  0  0  0
 27 52  1  0  0  0  0
M  END
> <clash_score>
0

> <docking_score>
-8.498893737792969

> <overlap_score>
1.0163570642471313

$$$$
BENZO_254_2
  -OEChem-08222022403D

 52 55  0     1  0  0  0  0  0999 V2000
   12.6560   -0.1194   26.1378 C   0  0  0  0  0  0  0  0  0  0  0  0
   11.4219    0.1994   25.5714 C   0  0  0  0  0  0  0  0  0  0  0  0
    8.3510   -1.5420   24.6110 C   0  0  0  0  0  0  0  0  0  0  0  0
   10.2760   -2.3270   23.4020 C   0  0  0  0  0  0  0  0  0  0  0  0
    8.3310   -2.7170   25.3430 C   0  0  0  0  0  0  0  0  0  0  0  0
   10.2570   -3.5000   24.1350 C   0  0  0  0  0  0  0  0  0  0  0  0
   13.8281    0.0614   25.4035 C   0  0  0  0  0  0  0  0  0  0  0  0
   12.5318    0.8798   23.5362 C   0  0  0  0  0  0  0  0  0  0  0  0
    9.3300   -1.3350   23.6390 C   0  0  0  0  0  0  0  0  0  0  0  0
   11.3598    0.6989   24.2706 C   0  0  0  0  0  0  0  0  0  0  0  0
    9.2850   -3.7090   25.1090 C   0  0  0  0  0  0  0  0  0  0  0  0
   13.7660    0.5610   24.1026 C   0  0  0  0  0  0  0  0  0  0  0  0
    6.1600    0.3870   20.1140 C   0  0  0  0  0  0  0  0  0  0  0  0
    7.2210   -0.4620   20.0350 C   0  0  0  0  0  0  0  0  0  0  0  0
    5.3360    0.8000   21.1530 C   0  0  0  0  0  0  0  0  0  0  0  0
    4.2970    1.6690   20.8430 C   0  0  0  0  0  0  0  0  0  0  0  0
    4.0980    2.1130   19.5350 C   0  0  0  0  0  0  0  0  0  0  0  0
    4.9400    1.7060   18.5060 C   0  0  0  0  0  0  0  0  0  0  0  0
    8.9510    0.1280   21.6880 C   0  0  0  0  0  0  0  0  0  0  0  0
    8.2517   -5.1170   26.8651 C   0  0  0  0  0  0  0  0  0  0  0  0
   10.2445   -5.9404   25.6004 C   0  0  0  0  0  0  0  0  0  0  0  0
   10.0220    1.0430   23.6570 C   0  0  0  0  0  0  0  0  0  0  0  0
    9.4200   -0.0840   22.9530 C   0  0  2  0  0  0  0  0  0  0  0  0
    7.6830   -0.5170   18.7600 N   0  0  0  0  0  0  0  0  0  0  0  0
    6.9440    0.2550   18.0100 N   0  0  0  0  0  0  0  0  0  0  0  0
    5.9810    0.8330   18.8060 N   0  0  0  0  0  0  0  0  0  0  0  0
    8.0810   -0.9750   21.0820 N   0  0  0  0  0  0  0  0  0  0  0  0
    9.2638   -4.9025   25.8500 N   0  0  0  0  0  0  0  0  0  0  0  0
    9.1870    1.1500   21.0630 O   0  0  0  0  0  0  0  0  0  0  0  0
   15.2122    0.7829   23.1967 Cl  0  0  0  0  0  0  0  0  0  0  0  0
   12.7039   -0.5086   27.1508 H   0  0  0  0  0  0  0  0  0  0  0  0
   10.5137    0.0551   26.1509 H   0  0  0  0  0  0  0  0  0  0  0  0
    7.5957   -0.7779   24.7973 H   0  0  0  0  0  0  0  0  0  0  0  0
   11.0384   -2.1852   22.6338 H   0  0  0  0  0  0  0  0  0  0  0  0
    7.5634   -2.8637   26.1037 H   0  0  0  0  0  0  0  0  0  0  0  0
   11.0139   -4.2645   23.9419 H   0  0  0  0  0  0  0  0  0  0  0  0
   14.7829   -0.1916   25.8577 H   0  0  0  0  0  0  0  0  0  0  0  0
   12.4781    1.2701   22.5225 H   0  0  0  0  0  0  0  0  0  0  0  0
    5.4735    0.4758   22.1644 H   0  0  0  0  0  0  0  0  0  0  0  0
    3.6415    1.9967   21.6408 H   0  0  0  0  0  0  0  0  0  0  0  0
    3.2720    2.7926   19.2921 H   0  0  0  0  0  0  0  0  0  0  0  0
    4.8119    2.0418   17.5005 H   0  0  0  0  0  0  0  0  0  0  0  0
    8.4017   -6.1022   27.3308 H   0  0  0  0  0  0  0  0  0  0  0  0
    8.3305   -4.3329   27.6326 H   0  0  0  0  0  0  0  0  0  0  0  0
    7.2545   -5.0782   26.4024 H   0  0  0  0  0  0  0  0  0  0  0  0
   10.0621   -6.7882   26.2771 H   0  0  0  0  0  0  0  0  0  0  0  0
   10.1619   -6.2795   24.5573 H   0  0  0  0  0  0  0  0  0  0  0  0
   11.2540   -5.5409   25.7773 H   0  0  0  0  0  0  0  0  0  0  0  0
    9.3529    1.4272   24.4380 H   0  0  0  0  0  0  0  0  0  0  0  0
   10.1743    1.8827   22.9648 H   0  0  0  0  0  0  0  0  0  0  0  0
   10.7346   -0.4307   22.4468 H   0  0  0  0  0  0  0  0  0  0  0  0
    8.1159   -1.8115   21.3524 H   0  0  0  0  0  0  0  0  0  0  0  0
  1  2  2  0  0  0  0
  1  7  1  0  0  0  0
  2 10  1  0  0  0  0
  3  5  2  0  0  0  0
  3  9  1  0  0  0  0
  4  6  1  0  0  0  0
  4  9  2  0  0  0  0
  5 11  1  0  0  0  0
  6 11  2  0  0  0  0
  7 12  2  0  0  0  0
  8 10  2  0  0  0  0
  8 12  1  0  0  0  0
  9 23  1  0  0  0  0
 10 22  1  0  0  0  0
 11 28  1  0  0  0  0
 12 30  1  0  0  0  0
 13 14  2  0  0  0  0
 13 15  1  0  0  0  0
 13 26  1  0  0  0  0
 14 24  1  0  0  0  0
 14 27  1  0  0  0  0
 15 16  2  0  0  0  0
 16 17  1  0  0  0  0
 17 18  2  0  0  0  0
 18 26  1  0  0  0  0
 19 23  1  0  0  0  0
 19 27  1  0  0  0  0
 19 29  2  0  0  0  0
 20 28  1  0  0  0  0
 21 28  1  0  0  0  0
 22 23  1  6  0  0  0
 24 25  2  0  0  0  0
 25 26  1  0  0  0  0
  1 31  1  0  0  0  0
  2 32  1  0  0  0  0
  3 33  1  0  0  0  0
  4 34  1  0  0  0  0
  5 35  1  0  0  0  0
  6 36  1  0  0  0  0
  7 37  1  0  0  0  0
  8 38  1  0  0  0  0
 15 39  1  0  0  0  0
 16 40  1  0  0  0  0
 17 41  1  0  0  0  0
 18 42  1  0  0  0  0
 20 43  1  0  0  0  0
 20 44  1  0  0  0  0
 20 45  1  0  0  0  0
 21 46  1  0  0  0  0
 21 47  1  0  0  0  0
 21 48  1  0  0  0  0
 22 49  1  0  0  0  0
 22 50  1  0  0  0  0
 23 51  1  0  0  0  0
 27 52  1  0  0  0  0
M  END
> <clash_score>
0.6070842632629044

> <docking_score>
-7.4929656982421875

> <overlap_score>
0.9446591734886169

$$$$
BENZO_257_1
  -OEChem-08222022403D

 54 57  0     1  0  0  0  0  0999 V2000
   14.2623    1.3345   22.9975 C   0  0  0  0  0  0  0  0  0  0  0  0
   13.7729    0.5817   24.0649 C   0  0  0  0  0  0  0  0  0  0  0  0
   13.3767    1.9928   22.1442 C   0  0  0  0  0  0  0  0  0  0  0  0
   12.3978    0.4871   24.2790 C   0  0  0  0  0  0  0  0  0  0  0  0
   12.0016    1.8982   22.3583 C   0  0  0  0  0  0  0  0  0  0  0  0
    8.3510   -1.5420   24.6110 C   0  0  0  0  0  0  0  0  0  0  0  0
   10.2760   -2.3270   23.4020 C   0  0  0  0  0  0  0  0  0  0  0  0
    8.3310   -2.7170   25.3430 C   0  0  0  0  0  0  0  0  0  0  0  0
   10.2570   -3.5000   24.1350 C   0  0  0  0  0  0  0  0  0  0  0  0
   11.5121    1.1453   23.4257 C   0  0  0  0  0  0  0  0  0  0  0  0
    9.3300   -1.3350   23.6390 C   0  0  0  0  0  0  0  0  0  0  0  0
    9.2850   -3.7090   25.1090 C   0  0  0  0  0  0  0  0  0  0  0  0
    6.1600    0.3870   20.1140 C   0  0  0  0  0  0  0  0  0  0  0  0
    7.2210   -0.4620   20.0350 C   0  0  0  0  0  0  0  0  0  0  0  0
    5.3360    0.8000   21.1530 C   0  0  0  0  0  0  0  0  0  0  0  0
    4.2970    1.6690   20.8430 C   0  0  0  0  0  0  0  0  0  0  0  0
    4.0980    2.1130   19.5350 C   0  0  0  0  0  0  0  0  0  0  0  0
    4.9400    1.7060   18.5060 C   0  0  0  0  0  0  0  0  0  0  0  0
    8.1545   -5.5464   26.4002 C   0  0  0  0  0  0  0  0  0  0  0  0
    8.9510    0.1280   21.6880 C   0  0  0  0  0  0  0  0  0  0  0  0
    9.7914   -7.4743   26.4981 C   0  0  0  0  0  0  0  0  0  0  0  0
   10.0220    1.0430   23.6570 C   0  0  0  0  0  0  0  0  0  0  0  0
    8.5753   -6.8162   27.1251 C   0  0  0  0  0  0  0  0  0  0  0  0
    9.4200   -0.0840   22.9530 C   0  0  1  0  0  0  0  0  0  0  0  0
    7.6830   -0.5170   18.7600 N   0  0  0  0  0  0  0  0  0  0  0  0
    6.9440    0.2550   18.0100 N   0  0  0  0  0  0  0  0  0  0  0  0
    5.9810    0.8330   18.8060 N   0  0  0  0  0  0  0  0  0  0  0  0
    9.2630   -4.8903   25.8409 N   0  0  0  0  0  0  0  0  0  0  0  0
    8.0810   -0.9750   21.0820 N   0  0  0  0  0  0  0  0  0  0  0  0
    6.9828   -5.1884   26.3422 O   0  0  0  0  0  0  0  0  0  0  0  0
    9.1870    1.1500   21.0630 O   0  0  0  0  0  0  0  0  0  0  0  0
   15.3331    1.4092   22.8317 H   0  0  0  0  0  0  0  0  0  0  0  0
   14.4623    0.0700   24.7300 H   0  0  0  0  0  0  0  0  0  0  0  0
   13.7574    2.5799   21.3138 H   0  0  0  0  0  0  0  0  0  0  0  0
   12.0255   -0.1019   25.1131 H   0  0  0  0  0  0  0  0  0  0  0  0
   11.3191    2.4143   21.6883 H   0  0  0  0  0  0  0  0  0  0  0  0
    7.5948   -0.7783   24.7966 H   0  0  0  0  0  0  0  0  0  0  0  0
   11.0389   -2.1844   22.6342 H   0  0  0  0  0  0  0  0  0  0  0  0
    7.5642   -2.8624   26.1050 H   0  0  0  0  0  0  0  0  0  0  0  0
   11.0137   -4.2649   23.9418 H   0  0  0  0  0  0  0  0  0  0  0  0
    5.4735    0.4758   22.1644 H   0  0  0  0  0  0  0  0  0  0  0  0
    3.6415    1.9967   21.6408 H   0  0  0  0  0  0  0  0  0  0  0  0
    3.2720    2.7926   19.2921 H   0  0  0  0  0  0  0  0  0  0  0  0
    4.8119    2.0418   17.5005 H   0  0  0  0  0  0  0  0  0  0  0  0
    9.6008   -7.7374   25.4525 H   0  0  0  0  0  0  0  0  0  0  0  0
   10.0508   -8.3895   27.0392 H   0  0  0  0  0  0  0  0  0  0  0  0
   10.6575   -6.8049   26.5234 H   0  0  0  0  0  0  0  0  0  0  0  0
    9.8253    0.9889   24.7357 H   0  0  0  0  0  0  0  0  0  0  0  0
    9.5635    1.9845   23.3241 H   0  0  0  0  0  0  0  0  0  0  0  0
    8.7939   -6.5641   28.1692 H   0  0  0  0  0  0  0  0  0  0  0  0
    7.7334   -7.5179   27.1142 H   0  0  0  0  0  0  0  0  0  0  0  0
    8.1288    0.3205   23.5156 H   0  0  0  0  0  0  0  0  0  0  0  0
   10.1701   -5.3456   25.9953 H   0  0  0  0  0  0  0  0  0  0  0  0
    8.1159   -1.8115   21.3524 H   0  0  0  0  0  0  0  0  0  0  0  0
  1  2  1  0  0  0  0
  1  3  2  0  0  0  0
  2  4  2  0  0  0  0
  3  5  1  0  0  0  0
  4 10  1  0  0  0  0
  5 10  2  0  0  0  0
  6  8  2  0  0  0  0
  6 11  1  0  0  0  0
  7  9  1  0  0  0  0
  7 11  2  0  0  0  0
  8 12  1  0  0  0  0
  9 12  2  0  0  0  0
 10 22  1  0  0  0  0
 11 24  1  0  0  0  0
 12 28  1  0  0  0  0
 13 14  2  0  0  0  0
 13 15  1  0  0  0  0
 13 27  1  0  0  0  0
 14 25  1  0  0  0  0
 14 29  1  0  0  0  0
 15 16  2  0  0  0  0
 16 17  1  0  0  0  0
 17 18  2  0  0  0  0
 18 27  1  0  0  0  0
 19 23  1  0  0  0  0
 19 28  1  0  0  0  0
 19 30  2  0  0  0  0
 20 24  1  0  0  0  0
 20 29  1  0  0  0  0
 20 31  2  0  0  0  0
 21 23  1  0  0  0  0
 22 24  1  1  0  0  0
 25 26  2  0  0  0  0
 26 27  1  0  0  0  0
  1 32  1  0  0  0  0
  2 33  1  0  0  0  0
  3 34  1  0  0  0  0
  4 35  1  0  0  0  0
  5 36  1  0  0  0  0
  6 37  1  0  0  0  0
  7 38  1  0  0  0  0
  8 39  1  0  0  0  0
  9 40  1  0  0  0  0
 15 41  1  0  0  0  0
 16 42  1  0  0  0  0
 17 43  1  0  0  0  0
 18 44  1  0  0  0  0
 21 45  1  0  0  0  0
 21 46  1  0  0  0  0
 21 47  1  0  0  0  0
 22 48  1  0  0  0  0
 22 49  1  0  0  0  0
 23 50  1  0  0  0  0
 23 51  1  0  0  0  0
 24 52  1  0  0  0  0
 28 53  1  0  0  0  0
 29 54  1  0  0  0  0
M  END
> <clash_score>
0.7461187281511344

> <docking_score>
-7.468233108520508

> <overlap_score>
1.019158124923706

$$$$
BENZO_257_2
  -OEChem-08222022403D

 54 57  0     1  0  0  0  0  0999 V2000
   13.8295    0.0638   25.4018 C   0  0  0  0  0  0  0  0  0  0  0  0
   12.6583   -0.1175   26.1373 C   0  0  0  0  0  0  0  0  0  0  0  0
   13.7659    0.5627   24.1007 C   0  0  0  0  0  0  0  0  0  0  0  0
   11.4234    0.2001   25.5717 C   0  0  0  0  0  0  0  0  0  0  0  0
   12.5310    0.8802   23.5351 C   0  0  0  0  0  0  0  0  0  0  0  0
    8.3510   -1.5420   24.6110 C   0  0  0  0  0  0  0  0  0  0  0  0
   10.2760   -2.3270   23.4020 C   0  0  0  0  0  0  0  0  0  0  0  0
    8.3310   -2.7170   25.3430 C   0  0  0  0  0  0  0  0  0  0  0  0
   10.2570   -3.5000   24.1350 C   0  0  0  0  0  0  0  0  0  0  0  0
   11.3598    0.6989   24.2706 C   0  0  0  0  0  0  0  0  0  0  0  0
    9.3300   -1.3350   23.6390 C   0  0  0  0  0  0  0  0  0  0  0  0
    9.2850   -3.7090   25.1090 C   0  0  0  0  0  0  0  0  0  0  0  0
    6.1600    0.3870   20.1140 C   0  0  0  0  0  0  0  0  0  0  0  0
    7.2210   -0.4620   20.0350 C   0  0  0  0  0  0  0  0  0  0  0  0
    5.3360    0.8000   21.1530 C   0  0  0  0  0  0  0  0  0  0  0  0
    4.2970    1.6690   20.8430 C   0  0  0  0  0  0  0  0  0  0  0  0
    4.0980    2.1130   19.5350 C   0  0  0  0  0  0  0  0  0  0  0  0
    4.9400    1.7060   18.5060 C   0  0  0  0  0  0  0  0  0  0  0  0
    8.3661   -5.2701   26.8525 C   0  0  0  0  0  0  0  0  0  0  0  0
    8.9510    0.1280   21.6880 C   0  0  0  0  0  0  0  0  0  0  0  0
    7.9661   -7.7622   26.6647 C   0  0  0  0  0  0  0  0  0  0  0  0
   10.0220    1.0430   23.6570 C   0  0  0  0  0  0  0  0  0  0  0  0
    8.7012   -6.6519   27.3940 C   0  0  0  0  0  0  0  0  0  0  0  0
    9.4200   -0.0840   22.9530 C   0  0  2  0  0  0  0  0  0  0  0  0
    7.6830   -0.5170   18.7600 N   0  0  0  0  0  0  0  0  0  0  0  0
    6.9440    0.2550   18.0100 N   0  0  0  0  0  0  0  0  0  0  0  0
    5.9810    0.8330   18.8060 N   0  0  0  0  0  0  0  0  0  0  0  0
    9.2630   -4.8903   25.8409 N   0  0  0  0  0  0  0  0  0  0  0  0
    8.0810   -0.9750   21.0820 N   0  0  0  0  0  0  0  0  0  0  0  0
    7.4216   -4.6151   27.2807 O   0  0  0  0  0  0  0  0  0  0  0  0
    9.1870    1.1500   21.0630 O   0  0  0  0  0  0  0  0  0  0  0  0
   14.7910   -0.1822   25.8428 H   0  0  0  0  0  0  0  0  0  0  0  0
   12.7077   -0.5049   27.1507 H   0  0  0  0  0  0  0  0  0  0  0  0
   14.6777    0.7050   23.5282 H   0  0  0  0  0  0  0  0  0  0  0  0
   10.5160    0.0554   26.1521 H   0  0  0  0  0  0  0  0  0  0  0  0
   12.4911    1.2683   22.5207 H   0  0  0  0  0  0  0  0  0  0  0  0
    7.5948   -0.7783   24.7966 H   0  0  0  0  0  0  0  0  0  0  0  0
   11.0389   -2.1844   22.6342 H   0  0  0  0  0  0  0  0  0  0  0  0
    7.5642   -2.8624   26.1050 H   0  0  0  0  0  0  0  0  0  0  0  0
   11.0137   -4.2649   23.9418 H   0  0  0  0  0  0  0  0  0  0  0  0
    5.4735    0.4758   22.1644 H   0  0  0  0  0  0  0  0  0  0  0  0
    3.6415    1.9967   21.6408 H   0  0  0  0  0  0  0  0  0  0  0  0
    3.2720    2.7926   19.2921 H   0  0  0  0  0  0  0  0  0  0  0  0
    4.8119    2.0418   17.5005 H   0  0  0  0  0  0  0  0  0  0  0  0
    6.8816   -7.6310   26.7395 H   0  0  0  0  0  0  0  0  0  0  0  0
    8.2233   -8.7354   27.0939 H   0  0  0  0  0  0  0  0  0  0  0  0
    8.2300   -7.7764   25.6021 H   0  0  0  0  0  0  0  0  0  0  0  0
    9.3529    1.4272   24.4380 H   0  0  0  0  0  0  0  0  0  0  0  0
   10.1743    1.8827   22.9648 H   0  0  0  0  0  0  0  0  0  0  0  0
    9.7822   -6.8081   27.3029 H   0  0  0  0  0  0  0  0  0  0  0  0
    8.4425   -6.6801   28.4588 H   0  0  0  0  0  0  0  0  0  0  0  0
   10.7346   -0.4307   22.4468 H   0  0  0  0  0  0  0  0  0  0  0  0
    9.9933   -5.5764   25.6176 H   0  0  0  0  0  0  0  0  0  0  0  0
    8.1159   -1.8115   21.3524 H   0  0  0  0  0  0  0  0  0  0  0  0
  1  2  1  0  0  0  0
  1  3  2  0  0  0  0
  2  4  2  0  0  0  0
  3  5  1  0  0  0  0
  4 10  1  0  0  0  0
  5 10  2  0  0  0  0
  6  8  2  0  0  0  0
  6 11  1  0  0  0  0
  7  9  1  0  0  0  0
  7 11  2  0  0  0  0
  8 12  1  0  0  0  0
  9 12  2  0  0  0  0
 10 22  1  0  0  0  0
 11 24  1  0  0  0  0
 12 28  1  0  0  0  0
 13 14  2  0  0  0  0
 13 15  1  0  0  0  0
 13 27  1  0  0  0  0
 14 25  1  0  0  0  0
 14 29  1  0  0  0  0
 15 16  2  0  0  0  0
 16 17  1  0  0  0  0
 17 18  2  0  0  0  0
 18 27  1  0  0  0  0
 19 23  1  0  0  0  0
 19 28  1  0  0  0  0
 19 30  2  0  0  0  0
 20 24  1  0  0  0  0
 20 29  1  0  0  0  0
 20 31  2  0  0  0  0
 21 23  1  0  0  0  0
 22 24  1  6  0  0  0
 25 26  2  0  0  0  0
 26 27  1  0  0  0  0
  1 32  1  0  0  0  0
  2 33  1  0  0  0  0
  3 34  1  0  0  0  0
  4 35  1  0  0  0  0
  5 36  1  0  0  0  0
  6 37  1  0  0  0  0
  7 38  1  0  0  0  0
  8 39  1  0  0  0  0
  9 40  1  0  0  0  0
 15 41  1  0  0  0  0
 16 42  1  0  0  0  0
 17 43  1  0  0  0  0
 18 44  1  0  0  0  0
 21 45  1  0  0  0  0
 21 46  1  0  0  0  0
 21 47  1  0  0  0  0
 22 48  1  0  0  0  0
 22 49  1  0  0  0  0
 23 50  1  0  0  0  0
 23 51  1  0  0  0  0
 24 52  1  0  0  0  0
 28 53  1  0  0  0  0
 29 54  1  0  0  0  0
M  END
> <clash_score>
1.3874893765587677

> <docking_score>
-6.24825382232666

> <overlap_score>
0.9425545930862427

$$$$
BENZO_256_1
  -OEChem-08222022403D

 51 54  0     1  0  0  0  0  0999 V2000
    8.3510   -1.5420   24.6110 C   0  0  0  0  0  0  0  0  0  0  0  0
   10.2760   -2.3270   23.4020 C   0  0  0  0  0  0  0  0  0  0  0  0
    8.3310   -2.7170   25.3430 C   0  0  0  0  0  0  0  0  0  0  0  0
   10.2570   -3.5000   24.1350 C   0  0  0  0  0  0  0  0  0  0  0  0
   12.2216    2.3786   23.3498 C   0  0  0  0  0  0  0  0  0  0  0  0
   13.5684    2.1883   23.1319 C   0  0  0  0  0  0  0  0  0  0  0  0
   12.3438    0.0592   23.2626 C   0  0  0  0  0  0  0  0  0  0  0  0
    9.3300   -1.3350   23.6390 C   0  0  0  0  0  0  0  0  0  0  0  0
   11.5121    1.1453   23.4257 C   0  0  0  0  0  0  0  0  0  0  0  0
    9.2850   -3.7090   25.1090 C   0  0  0  0  0  0  0  0  0  0  0  0
    6.1600    0.3870   20.1140 C   0  0  0  0  0  0  0  0  0  0  0  0
    7.2210   -0.4620   20.0350 C   0  0  0  0  0  0  0  0  0  0  0  0
    5.3360    0.8000   21.1530 C   0  0  0  0  0  0  0  0  0  0  0  0
    4.2970    1.6690   20.8430 C   0  0  0  0  0  0  0  0  0  0  0  0
    4.0980    2.1130   19.5350 C   0  0  0  0  0  0  0  0  0  0  0  0
    4.9400    1.7060   18.5060 C   0  0  0  0  0  0  0  0  0  0  0  0
    8.3661   -5.2701   26.8525 C   0  0  0  0  0  0  0  0  0  0  0  0
    8.9510    0.1280   21.6880 C   0  0  0  0  0  0  0  0  0  0  0  0
    7.9661   -7.7622   26.6647 C   0  0  0  0  0  0  0  0  0  0  0  0
   10.0220    1.0430   23.6570 C   0  0  0  0  0  0  0  0  0  0  0  0
    8.7012   -6.6519   27.3940 C   0  0  0  0  0  0  0  0  0  0  0  0
    9.4200   -0.0840   22.9530 C   0  0  1  0  0  0  0  0  0  0  0  0
    7.6830   -0.5170   18.7600 N   0  0  0  0  0  0  0  0  0  0  0  0
    6.9440    0.2550   18.0100 N   0  0  0  0  0  0  0  0  0  0  0  0
    5.9810    0.8330   18.8060 N   0  0  0  0  0  0  0  0  0  0  0  0
    9.2630   -4.8903   25.8409 N   0  0  0  0  0  0  0  0  0  0  0  0
    8.0810   -0.9750   21.0820 N   0  0  0  0  0  0  0  0  0  0  0  0
    7.4216   -4.6151   27.2807 O   0  0  0  0  0  0  0  0  0  0  0  0
    9.1870    1.1500   21.0630 O   0  0  0  0  0  0  0  0  0  0  0  0
   13.9727    0.5281   23.0196 S   0  0  0  0  0  0  0  0  0  0  0  0
    7.5948   -0.7783   24.7966 H   0  0  0  0  0  0  0  0  0  0  0  0
   11.0389   -2.1844   22.6342 H   0  0  0  0  0  0  0  0  0  0  0  0
    7.5642   -2.8624   26.1050 H   0  0  0  0  0  0  0  0  0  0  0  0
   11.0137   -4.2649   23.9418 H   0  0  0  0  0  0  0  0  0  0  0  0
   11.7708    3.3580   23.4491 H   0  0  0  0  0  0  0  0  0  0  0  0
   14.3341    2.9446   23.0326 H   0  0  0  0  0  0  0  0  0  0  0  0
   12.0768   -0.9885   23.2727 H   0  0  0  0  0  0  0  0  0  0  0  0
    5.4735    0.4758   22.1644 H   0  0  0  0  0  0  0  0  0  0  0  0
    3.6415    1.9967   21.6408 H   0  0  0  0  0  0  0  0  0  0  0  0
    3.2720    2.7926   19.2921 H   0  0  0  0  0  0  0  0  0  0  0  0
    4.8119    2.0418   17.5005 H   0  0  0  0  0  0  0  0  0  0  0  0
    6.8816   -7.6310   26.7395 H   0  0  0  0  0  0  0  0  0  0  0  0
    8.2233   -8.7354   27.0939 H   0  0  0  0  0  0  0  0  0  0  0  0
    8.2300   -7.7764   25.6021 H   0  0  0  0  0  0  0  0  0  0  0  0
    9.8253    0.9889   24.7357 H   0  0  0  0  0  0  0  0  0  0  0  0
    9.5635    1.9845   23.3241 H   0  0  0  0  0  0  0  0  0  0  0  0
    9.7822   -6.8081   27.3029 H   0  0  0  0  0  0  0  0  0  0  0  0
    8.4425   -6.6801   28.4588 H   0  0  0  0  0  0  0  0  0  0  0  0
    8.1288    0.3205   23.5156 H   0  0  0  0  0  0  0  0  0  0  0  0
    9.9933   -5.5764   25.6176 H   0  0  0  0  0  0  0  0  0  0  0  0
    8.1159   -1.8115   21.3524 H   0  0  0  0  0  0  0  0  0  0  0  0
  1  3  2  0  0  0  0
  1  8  1  0  0  0  0
  2  4  1  0  0  0  0
  2  8  2  0  0  0  0
  3 10  1  0  0  0  0
  4 10  2  0  0  0  0
  5  6  2  0  0  0  0
  5  9  1  0  0  0  0
  6 30  1  0  0  0  0
  7  9  2  0  0  0  0
  7 30  1  0  0  0  0
  8 22  1  0  0  0  0
  9 20  1  0  0  0  0
 10 26  1  0  0  0  0
 11 12  2  0  0  0  0
 11 13  1  0  0  0  0
 11 25  1  0  0  0  0
 12 23  1  0  0  0  0
 12 27  1  0  0  0  0
 13 14  2  0  0  0  0
 14 15  1  0  0  0  0
 15 16  2  0  0  0  0
 16 25  1  0  0  0  0
 17 21  1  0  0  0  0
 17 26  1  0  0  0  0
 17 28  2  0  0  0  0
 18 22  1  0  0  0  0
 18 27  1  0  0  0  0
 18 29  2  0  0  0  0
 19 21  1  0  0  0  0
 20 22  1  1  0  0  0
 23 24  2  0  0  0  0
 24 25  1  0  0  0  0
  1 31  1  0  0  0  0
  2 32  1  0  0  0  0
  3 33  1  0  0  0  0
  4 34  1  0  0  0  0
  5 35  1  0  0  0  0
  6 36  1  0  0  0  0
  7 37  1  0  0  0  0
 13 38  1  0  0  0  0
 14 39  1  0  0  0  0
 15 40  1  0  0  0  0
 16 41  1  0  0  0  0
 19 42  1  0  0  0  0
 19 43  1  0  0  0  0
 19 44  1  0  0  0  0
 20 45  1  0  0  0  0
 20 46  1  0  0  0  0
 21 47  1  0  0  0  0
 21 48  1  0  0  0  0
 22 49  1  0  0  0  0
 26 50  1  0  0  0  0
 27 51  1  0  0  0  0
M  END
> <clash_score>
0.7808399504628928

> <docking_score>
-8.08204174041748

> <overlap_score>
1.0075596570968628

$$$$
BENZO_256_2
  -OEChem-08222022403D

 51 54  0     1  0  0  0  0  0999 V2000
    8.3510   -1.5420   24.6110 C   0  0  0  0  0  0  0  0  0  0  0  0
   10.2760   -2.3270   23.4020 C   0  0  0  0  0  0  0  0  0  0  0  0
    8.3310   -2.7170   25.3430 C   0  0  0  0  0  0  0  0  0  0  0  0
   10.2570   -3.5000   24.1350 C   0  0  0  0  0  0  0  0  0  0  0  0
   11.6656    0.8624   25.6525 C   0  0  0  0  0  0  0  0  0  0  0  0
   12.9541    0.4739   25.9468 C   0  0  0  0  0  0  0  0  0  0  0  0
   12.4263    0.1919   23.5611 C   0  0  0  0  0  0  0  0  0  0  0  0
    9.3300   -1.3350   23.6390 C   0  0  0  0  0  0  0  0  0  0  0  0
   11.3598    0.6989   24.2706 C   0  0  0  0  0  0  0  0  0  0  0  0
    9.2850   -3.7090   25.1090 C   0  0  0  0  0  0  0  0  0  0  0  0
    6.1600    0.3870   20.1140 C   0  0  0  0  0  0  0  0  0  0  0  0
    7.2210   -0.4620   20.0350 C   0  0  0  0  0  0  0  0  0  0  0  0
    5.3360    0.8000   21.1530 C   0  0  0  0  0  0  0  0  0  0  0  0
    4.2970    1.6690   20.8430 C   0  0  0  0  0  0  0  0  0  0  0  0
    4.0980    2.1130   19.5350 C   0  0  0  0  0  0  0  0  0  0  0  0
    4.9400    1.7060   18.5060 C   0  0  0  0  0  0  0  0  0  0  0  0
    8.3661   -5.2701   26.8525 C   0  0  0  0  0  0  0  0  0  0  0  0
    8.9510    0.1280   21.6880 C   0  0  0  0  0  0  0  0  0  0  0  0
    7.4824   -7.3861   27.9237 C   0  0  0  0  0  0  0  0  0  0  0  0
   10.0220    1.0430   23.6570 C   0  0  0  0  0  0  0  0  0  0  0  0
    8.7012   -6.6519   27.3940 C   0  0  0  0  0  0  0  0  0  0  0  0
    9.4200   -0.0840   22.9530 C   0  0  2  0  0  0  0  0  0  0  0  0
    7.6830   -0.5170   18.7600 N   0  0  0  0  0  0  0  0  0  0  0  0
    6.9440    0.2550   18.0100 N   0  0  0  0  0  0  0  0  0  0  0  0
    5.9810    0.8330   18.8060 N   0  0  0  0  0  0  0  0  0  0  0  0
    9.2630   -4.8903   25.8409 N   0  0  0  0  0  0  0  0  0  0  0  0
    8.0810   -0.9750   21.0820 N   0  0  0  0  0  0  0  0  0  0  0  0
    7.4216   -4.6151   27.2807 O   0  0  0  0  0  0  0  0  0  0  0  0
    9.1870    1.1500   21.0630 O   0  0  0  0  0  0  0  0  0  0  0  0
   13.7891   -0.0851   24.5602 S   0  0  0  0  0  0  0  0  0  0  0  0
    7.5948   -0.7783   24.7966 H   0  0  0  0  0  0  0  0  0  0  0  0
   11.0389   -2.1844   22.6342 H   0  0  0  0  0  0  0  0  0  0  0  0
    7.5642   -2.8624   26.1050 H   0  0  0  0  0  0  0  0  0  0  0  0
   11.0137   -4.2649   23.9418 H   0  0  0  0  0  0  0  0  0  0  0  0
   10.9786    1.2455   26.3965 H   0  0  0  0  0  0  0  0  0  0  0  0
   13.4452    0.4923   26.9094 H   0  0  0  0  0  0  0  0  0  0  0  0
   12.4750   -0.0294   22.5039 H   0  0  0  0  0  0  0  0  0  0  0  0
    5.4735    0.4758   22.1644 H   0  0  0  0  0  0  0  0  0  0  0  0
    3.6415    1.9967   21.6408 H   0  0  0  0  0  0  0  0  0  0  0  0
    3.2720    2.7926   19.2921 H   0  0  0  0  0  0  0  0  0  0  0  0
    4.8119    2.0418   17.5005 H   0  0  0  0  0  0  0  0  0  0  0  0
    7.0029   -6.8216   28.7301 H   0  0  0  0  0  0  0  0  0  0  0  0
    7.7690   -8.3666   28.3161 H   0  0  0  0  0  0  0  0  0  0  0  0
    6.7404   -7.5377   27.1329 H   0  0  0  0  0  0  0  0  0  0  0  0
    9.3529    1.4272   24.4380 H   0  0  0  0  0  0  0  0  0  0  0  0
   10.1743    1.8827   22.9648 H   0  0  0  0  0  0  0  0  0  0  0  0
    9.1601   -7.2384   26.5898 H   0  0  0  0  0  0  0  0  0  0  0  0
    9.4389   -6.5411   28.1971 H   0  0  0  0  0  0  0  0  0  0  0  0
   10.7346   -0.4307   22.4468 H   0  0  0  0  0  0  0  0  0  0  0  0
    9.9933   -5.5764   25.6176 H   0  0  0  0  0  0  0  0  0  0  0  0
    8.1159   -1.8115   21.3524 H   0  0  0  0  0  0  0  0  0  0  0  0
  1  3  2  0  0  0  0
  1  8  1  0  0  0  0
  2  4  1  0  0  0  0
  2  8  2  0  0  0  0
  3 10  1  0  0  0  0
  4 10  2  0  0  0  0
  5  6  2  0  0  0  0
  5  9  1  0  0  0  0
  6 30  1  0  0  0  0
  7  9  2  0  0  0  0
  7 30  1  0  0  0  0
  8 22  1  0  0  0  0
  9 20  1  0  0  0  0
 10 26  1  0  0  0  0
 11 12  2  0  0  0  0
 11 13  1  0  0  0  0
 11 25  1  0  0  0  0
 12 23  1  0  0  0  0
 12 27  1  0  0  0  0
 13 14  2  0  0  0  0
 14 15  1  0  0  0  0
 15 16  2  0  0  0  0
 16 25  1  0  0  0  0
 17 21  1  0  0  0  0
 17 26  1  0  0  0  0
 17 28  2  0  0  0  0
 18 22  1  0  0  0  0
 18 27  1  0  0  0  0
 18 29  2  0  0  0  0
 19 21  1  0  0  0  0
 20 22  1  6  0  0  0
 23 24  2  0  0  0  0
 24 25  1  0  0  0  0
  1 31  1  0  0  0  0
  2 32  1  0  0  0  0
  3 33  1  0  0  0  0
  4 34  1  0  0  0  0
  5 35  1  0  0  0  0
  6 36  1  0  0  0  0
  7 37  1  0  0  0  0
 13 38  1  0  0  0  0
 14 39  1  0  0  0  0
 15 40  1  0  0  0  0
 16 41  1  0  0  0  0
 19 42  1  0  0  0  0
 19 43  1  0  0  0  0
 19 44  1  0  0  0  0
 20 45  1  0  0  0  0
 20 46  1  0  0  0  0
 21 47  1  0  0  0  0
 21 48  1  0  0  0  0
 22 49  1  0  0  0  0
 26 50  1  0  0  0  0
 27 51  1  0  0  0  0
M  END
> <clash_score>
0

> <docking_score>
-5.863680839538574

> <overlap_score>
0.9248396158218384

$$$$
BENZO_261_1
  -OEChem-08222022403D

 59 63  0     1  0  0  0  0  0999 V2000
   13.8377    0.1157   25.4121 C   0  0  0  0  0  0  0  0  0  0  0  0
   12.6675   -0.0757   26.1466 C   0  0  0  0  0  0  0  0  0  0  0  0
   13.7705    0.6079   24.1087 C   0  0  0  0  0  0  0  0  0  0  0  0
   11.4299    0.2250   25.5777 C   0  0  0  0  0  0  0  0  0  0  0  0
   12.5329    0.9086   23.5397 C   0  0  0  0  0  0  0  0  0  0  0  0
    8.3510   -1.5420   24.6110 C   0  0  0  0  0  0  0  0  0  0  0  0
   10.2760   -2.3270   23.4020 C   0  0  0  0  0  0  0  0  0  0  0  0
    8.3310   -2.7170   25.3430 C   0  0  0  0  0  0  0  0  0  0  0  0
   10.2570   -3.5000   24.1350 C   0  0  0  0  0  0  0  0  0  0  0  0
   11.3626    0.7172   24.2742 C   0  0  0  0  0  0  0  0  0  0  0  0
    9.3300   -1.3350   23.6390 C   0  0  0  0  0  0  0  0  0  0  0  0
    9.2850   -3.7090   25.1090 C   0  0  0  0  0  0  0  0  0  0  0  0
    6.1600    0.3870   20.1140 C   0  0  0  0  0  0  0  0  0  0  0  0
    7.2210   -0.4620   20.0350 C   0  0  0  0  0  0  0  0  0  0  0  0
    5.3360    0.8000   21.1530 C   0  0  0  0  0  0  0  0  0  0  0  0
    4.2970    1.6690   20.8430 C   0  0  0  0  0  0  0  0  0  0  0  0
    4.0980    2.1130   19.5350 C   0  0  0  0  0  0  0  0  0  0  0  0
    4.9400    1.7060   18.5060 C   0  0  0  0  0  0  0  0  0  0  0  0
    8.9510    0.1280   21.6880 C   0  0  0  0  0  0  0  0  0  0  0  0
    7.3211   -6.8875   26.5227 C   0  0  0  0  0  0  0  0  0  0  0  0
    7.3523   -5.5278   27.2244 C   0  0  0  0  0  0  0  0  0  0  0  0
    7.9422   -6.8107   25.1261 C   0  0  0  0  0  0  0  0  0  0  0  0
    8.7641   -4.9418   27.2163 C   0  0  0  0  0  0  0  0  0  0  0  0
    9.3411   -6.1879   25.1670 C   0  0  0  0  0  0  0  0  0  0  0  0
   10.0220    1.0430   23.6570 C   0  0  0  0  0  0  0  0  0  0  0  0
    9.4200   -0.0840   22.9530 C   0  0  1  0  0  0  0  0  0  0  0  0
    7.6830   -0.5170   18.7600 N   0  0  0  0  0  0  0  0  0  0  0  0
    6.9440    0.2550   18.0100 N   0  0  0  0  0  0  0  0  0  0  0  0
    5.9810    0.8330   18.8060 N   0  0  0  0  0  0  0  0  0  0  0  0
    9.2641   -4.8861   25.8398 N   0  0  0  0  0  0  0  0  0  0  0  0
    8.0810   -0.9750   21.0820 N   0  0  0  0  0  0  0  0  0  0  0  0
    9.1870    1.1500   21.0630 O   0  0  0  0  0  0  0  0  0  0  0  0
   14.8013   -0.1172   25.8558 H   0  0  0  0  0  0  0  0  0  0  0  0
   12.7197   -0.4578   27.1619 H   0  0  0  0  0  0  0  0  0  0  0  0
   14.6814    0.7580   23.5369 H   0  0  0  0  0  0  0  0  0  0  0  0
   10.5233    0.0726   26.1574 H   0  0  0  0  0  0  0  0  0  0  0  0
   12.4902    1.2914   22.5235 H   0  0  0  0  0  0  0  0  0  0  0  0
    7.5957   -0.7779   24.7973 H   0  0  0  0  0  0  0  0  0  0  0  0
   11.0384   -2.1852   22.6338 H   0  0  0  0  0  0  0  0  0  0  0  0
    7.5634   -2.8637   26.1037 H   0  0  0  0  0  0  0  0  0  0  0  0
   11.0139   -4.2645   23.9419 H   0  0  0  0  0  0  0  0  0  0  0  0
    5.4735    0.4758   22.1644 H   0  0  0  0  0  0  0  0  0  0  0  0
    3.6415    1.9967   21.6408 H   0  0  0  0  0  0  0  0  0  0  0  0
    3.2720    2.7926   19.2920 H   0  0  0  0  0  0  0  0  0  0  0  0
    4.8119    2.0418   17.5005 H   0  0  0  0  0  0  0  0  0  0  0  0
    7.8644   -7.6283   27.1289 H   0  0  0  0  0  0  0  0  0  0  0  0
    6.2830   -7.2423   26.4478 H   0  0  0  0  0  0  0  0  0  0  0  0
    6.6663   -4.8405   26.7221 H   0  0  0  0  0  0  0  0  0  0  0  0
    7.0062   -5.6400   28.2540 H   0  0  0  0  0  0  0  0  0  0  0  0
    8.0018   -7.8160   24.6962 H   0  0  0  0  0  0  0  0  0  0  0  0
    7.2963   -6.2182   24.4678 H   0  0  0  0  0  0  0  0  0  0  0  0
    8.7322   -3.9404   27.6532 H   0  0  0  0  0  0  0  0  0  0  0  0
    9.4260   -5.5610   27.8283 H   0  0  0  0  0  0  0  0  0  0  0  0
   10.0249   -6.8474   25.7028 H   0  0  0  0  0  0  0  0  0  0  0  0
    9.7015   -6.0700   24.1446 H   0  0  0  0  0  0  0  0  0  0  0  0
    9.3482    1.4259   24.4346 H   0  0  0  0  0  0  0  0  0  0  0  0
   10.1663    1.8792   22.9588 H   0  0  0  0  0  0  0  0  0  0  0  0
   10.7366   -0.4277   22.4442 H   0  0  0  0  0  0  0  0  0  0  0  0
    8.1354   -1.7990   21.3694 H   0  0  0  0  0  0  0  0  0  0  0  0
  1  2  1  0  0  0  0
  1  3  2  0  0  0  0
  2  4  2  0  0  0  0
  3  5  1  0  0  0  0
  4 10  1  0  0  0  0
  5 10  2  0  0  0  0
  6  8  2  0  0  0  0
  6 11  1  0  0  0  0
  7  9  1  0  0  0  0
  7 11  2  0  0  0  0
  8 12  1  0  0  0  0
  9 12  2  0  0  0  0
 10 25  1  0  0  0  0
 11 26  1  0  0  0  0
 12 30  1  0  0  0  0
 13 14  2  0  0  0  0
 13 15  1  0  0  0  0
 13 29  1  0  0  0  0
 14 27  1  0  0  0  0
 14 31  1  0  0  0  0
 15 16  2  0  0  0  0
 16 17  1  0  0  0  0
 17 18  2  0  0  0  0
 18 29  1  0  0  0  0
 19 26  1  1  0  0  0
 19 31  1  0  0  0  0
 19 32  2  0  0  0  0
 20 21  1  0  0  0  0
 20 22  1  0  0  0  0
 21 23  1  0  0  0  0
 22 24  1  0  0  0  0
 23 30  1  0  0  0  0
 24 30  1  0  0  0  0
 25 26  1  0  0  0  0
 27 28  2  0  0  0  0
 28 29  1  0  0  0  0
  1 33  1  0  0  0  0
  2 34  1  0  0  0  0
  3 35  1  0  0  0  0
  4 36  1  0  0  0  0
  5 37  1  0  0  0  0
  6 38  1  0  0  0  0
  7 39  1  0  0  0  0
  8 40  1  0  0  0  0
  9 41  1  0  0  0  0
 15 42  1  0  0  0  0
 16 43  1  0  0  0  0
 17 44  1  0  0  0  0
 18 45  1  0  0  0  0
 20 46  1  0  0  0  0
 20 47  1  0  0  0  0
 21 48  1  0  0  0  0
 21 49  1  0  0  0  0
 22 50  1  0  0  0  0
 22 51  1  0  0  0  0
 23 52  1  0  0  0  0
 23 53  1  0  0  0  0
 24 54  1  0  0  0  0
 24 55  1  0  0  0  0
 25 56  1  0  0  0  0
 25 57  1  0  0  0  0
 26 58  1  0  0  0  0
 31 59  1  0  0  0  0
M  END
> <clash_score>
0

> <docking_score>
-7.139311790466309

> <overlap_score>
0.9484655857086182

$$$$
BENZO_261_2
  -OEChem-08222022403D

 59 63  0     1  0  0  0  0  0999 V2000
   14.2657    1.3706   23.0373 C   0  0  0  0  0  0  0  0  0  0  0  0
   13.7726    0.6128   24.0995 C   0  0  0  0  0  0  0  0  0  0  0  0
   13.3825    2.0222   22.1763 C   0  0  0  0  0  0  0  0  0  0  0  0
   12.3965    0.5065   24.3007 C   0  0  0  0  0  0  0  0  0  0  0  0
   12.0064    1.9158   22.3775 C   0  0  0  0  0  0  0  0  0  0  0  0
    8.3510   -1.5420   24.6110 C   0  0  0  0  0  0  0  0  0  0  0  0
   10.2760   -2.3270   23.4020 C   0  0  0  0  0  0  0  0  0  0  0  0
    8.3310   -2.7170   25.3430 C   0  0  0  0  0  0  0  0  0  0  0  0
   10.2570   -3.5000   24.1350 C   0  0  0  0  0  0  0  0  0  0  0  0
   11.5133    1.1580   23.4397 C   0  0  0  0  0  0  0  0  0  0  0  0
    9.3300   -1.3350   23.6390 C   0  0  0  0  0  0  0  0  0  0  0  0
    9.2850   -3.7090   25.1090 C   0  0  0  0  0  0  0  0  0  0  0  0
    6.1600    0.3870   20.1140 C   0  0  0  0  0  0  0  0  0  0  0  0
    7.2210   -0.4620   20.0350 C   0  0  0  0  0  0  0  0  0  0  0  0
    5.3360    0.8000   21.1530 C   0  0  0  0  0  0  0  0  0  0  0  0
    4.2970    1.6690   20.8430 C   0  0  0  0  0  0  0  0  0  0  0  0
    4.0980    2.1130   19.5350 C   0  0  0  0  0  0  0  0  0  0  0  0
    4.9400    1.7060   18.5060 C   0  0  0  0  0  0  0  0  0  0  0  0
    8.9510    0.1280   21.6880 C   0  0  0  0  0  0  0  0  0  0  0  0
    7.3211   -6.8875   26.5227 C   0  0  0  0  0  0  0  0  0  0  0  0
    7.3523   -5.5278   27.2244 C   0  0  0  0  0  0  0  0  0  0  0  0
    7.9422   -6.8107   25.1261 C   0  0  0  0  0  0  0  0  0  0  0  0
    8.7641   -4.9418   27.2163 C   0  0  0  0  0  0  0  0  0  0  0  0
    9.3411   -6.1879   25.1670 C   0  0  0  0  0  0  0  0  0  0  0  0
   10.0220    1.0430   23.6570 C   0  0  0  0  0  0  0  0  0  0  0  0
    9.4200   -0.0840   22.9530 C   0  0  2  0  0  0  0  0  0  0  0  0
    7.6830   -0.5170   18.7600 N   0  0  0  0  0  0  0  0  0  0  0  0
    6.9440    0.2550   18.0100 N   0  0  0  0  0  0  0  0  0  0  0  0
    5.9810    0.8330   18.8060 N   0  0  0  0  0  0  0  0  0  0  0  0
    9.2641   -4.8861   25.8398 N   0  0  0  0  0  0  0  0  0  0  0  0
    8.0810   -0.9750   21.0820 N   0  0  0  0  0  0  0  0  0  0  0  0
    9.1870    1.1500   21.0630 O   0  0  0  0  0  0  0  0  0  0  0  0
   15.3373    1.4544   22.8816 H   0  0  0  0  0  0  0  0  0  0  0  0
   14.4602    0.1063   24.7706 H   0  0  0  0  0  0  0  0  0  0  0  0
   13.7661    2.6131   21.3499 H   0  0  0  0  0  0  0  0  0  0  0  0
   12.0213   -0.0863   25.1308 H   0  0  0  0  0  0  0  0  0  0  0  0
   11.3258    2.4268   21.7016 H   0  0  0  0  0  0  0  0  0  0  0  0
    7.5957   -0.7779   24.7973 H   0  0  0  0  0  0  0  0  0  0  0  0
   11.0384   -2.1852   22.6338 H   0  0  0  0  0  0  0  0  0  0  0  0
    7.5634   -2.8637   26.1037 H   0  0  0  0  0  0  0  0  0  0  0  0
   11.0139   -4.2645   23.9419 H   0  0  0  0  0  0  0  0  0  0  0  0
    5.4735    0.4758   22.1644 H   0  0  0  0  0  0  0  0  0  0  0  0
    3.6415    1.9967   21.6408 H   0  0  0  0  0  0  0  0  0  0  0  0
    3.2720    2.7926   19.2921 H   0  0  0  0  0  0  0  0  0  0  0  0
    4.8119    2.0418   17.5005 H   0  0  0  0  0  0  0  0  0  0  0  0
    7.8644   -7.6283   27.1289 H   0  0  0  0  0  0  0  0  0  0  0  0
    6.2830   -7.2423   26.4478 H   0  0  0  0  0  0  0  0  0  0  0  0
    6.6663   -4.8405   26.7221 H   0  0  0  0  0  0  0  0  0  0  0  0
    7.0062   -5.6400   28.2540 H   0  0  0  0  0  0  0  0  0  0  0  0
    8.0018   -7.8160   24.6962 H   0  0  0  0  0  0  0  0  0  0  0  0
    7.2963   -6.2182   24.4678 H   0  0  0  0  0  0  0  0  0  0  0  0
    8.7322   -3.9404   27.6532 H   0  0  0  0  0  0  0  0  0  0  0  0
    9.4260   -5.5610   27.8283 H   0  0  0  0  0  0  0  0  0  0  0  0
   10.0249   -6.8474   25.7028 H   0  0  0  0  0  0  0  0  0  0  0  0
    9.7015   -6.0700   24.1446 H   0  0  0  0  0  0  0  0  0  0  0  0
    9.8155    0.9894   24.7339 H   0  0  0  0  0  0  0  0  0  0  0  0
    9.5584    1.9798   23.3178 H   0  0  0  0  0  0  0  0  0  0  0  0
    8.1278    0.3254   23.5142 H   0  0  0  0  0  0  0  0  0  0  0  0
    8.1354   -1.7990   21.3694 H   0  0  0  0  0  0  0  0  0  0  0  0
  1  2  1  0  0  0  0
  1  3  2  0  0  0  0
  2  4  2  0  0  0  0
  3  5  1  0  0  0  0
  4 10  1  0  0  0  0
  5 10  2  0  0  0  0
  6  8  2  0  0  0  0
  6 11  1  0  0  0  0
  7  9  1  0  0  0  0
  7 11  2  0  0  0  0
  8 12  1  0  0  0  0
  9 12  2  0  0  0  0
 10 25  1  0  0  0  0
 11 26  1  0  0  0  0
 12 30  1  0  0  0  0
 13 14  2  0  0  0  0
 13 15  1  0  0  0  0
 13 29  1  0  0  0  0
 14 27  1  0  0  0  0
 14 31  1  0  0  0  0
 15 16  2  0  0  0  0
 16 17  1  0  0  0  0
 17 18  2  0  0  0  0
 18 29  1  0  0  0  0
 19 26  1  6  0  0  0
 19 31  1  0  0  0  0
 19 32  2  0  0  0  0
 20 21  1  0  0  0  0
 20 22  1  0  0  0  0
 21 23  1  0  0  0  0
 22 24  1  0  0  0  0
 23 30  1  0  0  0  0
 24 30  1  0  0  0  0
 25 26  1  0  0  0  0
 27 28  2  0  0  0  0
 28 29  1  0  0  0  0
  1 33  1  0  0  0  0
  2 34  1  0  0  0  0
  3 35  1  0  0  0  0
  4 36  1  0  0  0  0
  5 37  1  0  0  0  0
  6 38  1  0  0  0  0
  7 39  1  0  0  0  0
  8 40  1  0  0  0  0
  9 41  1  0  0  0  0
 15 42  1  0  0  0  0
 16 43  1  0  0  0  0
 17 44  1  0  0  0  0
 18 45  1  0  0  0  0
 20 46  1  0  0  0  0
 20 47  1  0  0  0  0
 21 48  1  0  0  0  0
 21 49  1  0  0  0  0
 22 50  1  0  0  0  0
 22 51  1  0  0  0  0
 23 52  1  0  0  0  0
 23 53  1  0  0  0  0
 24 54  1  0  0  0  0
 24 55  1  0  0  0  0
 25 56  1  0  0  0  0
 25 57  1  0  0  0  0
 26 58  1  0  0  0  0
 31 59  1  0  0  0  0
M  END
> <clash_score>
0

> <docking_score>
-8.092154502868652

> <overlap_score>
1.0255537033081055

$$$$
BENZO_260_2
  -OEChem-08222022403D

 56 60  0     1  0  0  0  0  0999 V2000
    8.3510   -1.5420   24.6110 C   0  0  0  0  0  0  0  0  0  0  0  0
   10.2760   -2.3270   23.4020 C   0  0  0  0  0  0  0  0  0  0  0  0
    8.3310   -2.7170   25.3430 C   0  0  0  0  0  0  0  0  0  0  0  0
   10.2570   -3.5000   24.1350 C   0  0  0  0  0  0  0  0  0  0  0  0
   12.2126    2.3974   23.3680 C   0  0  0  0  0  0  0  0  0  0  0  0
   13.5630    2.2185   23.1633 C   0  0  0  0  0  0  0  0  0  0  0  0
   12.3560    0.0789   23.2869 C   0  0  0  0  0  0  0  0  0  0  0  0
    9.3300   -1.3350   23.6390 C   0  0  0  0  0  0  0  0  0  0  0  0
   11.5133    1.1580   23.4397 C   0  0  0  0  0  0  0  0  0  0  0  0
    9.2850   -3.7090   25.1090 C   0  0  0  0  0  0  0  0  0  0  0  0
    6.1600    0.3870   20.1140 C   0  0  0  0  0  0  0  0  0  0  0  0
    7.2210   -0.4620   20.0350 C   0  0  0  0  0  0  0  0  0  0  0  0
    5.3360    0.8000   21.1530 C   0  0  0  0  0  0  0  0  0  0  0  0
    4.2970    1.6690   20.8430 C   0  0  0  0  0  0  0  0  0  0  0  0
    4.0980    2.1130   19.5350 C   0  0  0  0  0  0  0  0  0  0  0  0
    4.9400    1.7060   18.5060 C   0  0  0  0  0  0  0  0  0  0  0  0
    8.9510    0.1280   21.6880 C   0  0  0  0  0  0  0  0  0  0  0  0
    7.3211   -6.8875   26.5227 C   0  0  0  0  0  0  0  0  0  0  0  0
    7.3523   -5.5278   27.2244 C   0  0  0  0  0  0  0  0  0  0  0  0
    7.9422   -6.8107   25.1261 C   0  0  0  0  0  0  0  0  0  0  0  0
    8.7641   -4.9418   27.2163 C   0  0  0  0  0  0  0  0  0  0  0  0
    9.3411   -6.1879   25.1670 C   0  0  0  0  0  0  0  0  0  0  0  0
   10.0220    1.0430   23.6570 C   0  0  0  0  0  0  0  0  0  0  0  0
    9.4200   -0.0840   22.9530 C   0  0  2  0  0  0  0  0  0  0  0  0
    7.6830   -0.5170   18.7600 N   0  0  0  0  0  0  0  0  0  0  0  0
    6.9440    0.2550   18.0100 N   0  0  0  0  0  0  0  0  0  0  0  0
    5.9810    0.8330   18.8060 N   0  0  0  0  0  0  0  0  0  0  0  0
    9.2641   -4.8861   25.8398 N   0  0  0  0  0  0  0  0  0  0  0  0
    8.0810   -0.9750   21.0820 N   0  0  0  0  0  0  0  0  0  0  0  0
    9.1870    1.1500   21.0630 O   0  0  0  0  0  0  0  0  0  0  0  0
   13.9830    0.5617   23.0583 S   0  0  0  0  0  0  0  0  0  0  0  0
    7.5957   -0.7779   24.7973 H   0  0  0  0  0  0  0  0  0  0  0  0
   11.0384   -2.1852   22.6338 H   0  0  0  0  0  0  0  0  0  0  0  0
    7.5634   -2.8637   26.1037 H   0  0  0  0  0  0  0  0  0  0  0  0
   11.0139   -4.2645   23.9419 H   0  0  0  0  0  0  0  0  0  0  0  0
   11.7522    3.3729   23.4608 H   0  0  0  0  0  0  0  0  0  0  0  0
   14.3229    2.9813   23.0696 H   0  0  0  0  0  0  0  0  0  0  0  0
   12.0982   -0.9711   23.2967 H   0  0  0  0  0  0  0  0  0  0  0  0
    5.4735    0.4758   22.1644 H   0  0  0  0  0  0  0  0  0  0  0  0
    3.6415    1.9967   21.6408 H   0  0  0  0  0  0  0  0  0  0  0  0
    3.2720    2.7926   19.2921 H   0  0  0  0  0  0  0  0  0  0  0  0
    4.8119    2.0418   17.5005 H   0  0  0  0  0  0  0  0  0  0  0  0
    7.8644   -7.6283   27.1289 H   0  0  0  0  0  0  0  0  0  0  0  0
    6.2830   -7.2423   26.4478 H   0  0  0  0  0  0  0  0  0  0  0  0
    6.6663   -4.8405   26.7221 H   0  0  0  0  0  0  0  0  0  0  0  0
    7.0062   -5.6400   28.2540 H   0  0  0  0  0  0  0  0  0  0  0  0
    8.0018   -7.8160   24.6962 H   0  0  0  0  0  0  0  0  0  0  0  0
    7.2963   -6.2182   24.4678 H   0  0  0  0  0  0  0  0  0  0  0  0
    8.7322   -3.9404   27.6532 H   0  0  0  0  0  0  0  0  0  0  0  0
    9.4260   -5.5610   27.8283 H   0  0  0  0  0  0  0  0  0  0  0  0
   10.0249   -6.8474   25.7028 H   0  0  0  0  0  0  0  0  0  0  0  0
    9.7015   -6.0700   24.1446 H   0  0  0  0  0  0  0  0  0  0  0  0
    9.8155    0.9894   24.7339 H   0  0  0  0  0  0  0  0  0  0  0  0
    9.5584    1.9798   23.3178 H   0  0  0  0  0  0  0  0  0  0  0  0
    8.1278    0.3254   23.5142 H   0  0  0  0  0  0  0  0  0  0  0  0
    8.1354   -1.7990   21.3694 H   0  0  0  0  0  0  0  0  0  0  0  0
  1  3  2  0  0  0  0
  1  8  1  0  0  0  0
  2  4  1  0  0  0  0
  2  8  2  0  0  0  0
  3 10  1  0  0  0  0
  4 10  2  0  0  0  0
  5  6  2  0  0  0  0
  5  9  1  0  0  0  0
  6 31  1  0  0  0  0
  7  9  2  0  0  0  0
  7 31  1  0  0  0  0
  8 24  1  0  0  0  0
  9 23  1  0  0  0  0
 10 28  1  0  0  0  0
 11 12  2  0  0  0  0
 11 13  1  0  0  0  0
 11 27  1  0  0  0  0
 12 25  1  0  0  0  0
 12 29  1  0  0  0  0
 13 14  2  0  0  0  0
 14 15  1  0  0  0  0
 15 16  2  0  0  0  0
 16 27  1  0  0  0  0
 17 24  1  6  0  0  0
 17 29  1  0  0  0  0
 17 30  2  0  0  0  0
 18 19  1  0  0  0  0
 18 20  1  0  0  0  0
 19 21  1  0  0  0  0
 20 22  1  0  0  0  0
 21 28  1  0  0  0  0
 22 28  1  0  0  0  0
 23 24  1  0  0  0  0
 25 26  2  0  0  0  0
 26 27  1  0  0  0  0
  1 32  1  0  0  0  0
  2 33  1  0  0  0  0
  3 34  1  0  0  0  0
  4 35  1  0  0  0  0
  5 36  1  0  0  0  0
  6 37  1  0  0  0  0
  7 38  1  0  0  0  0
 13 39  1  0  0  0  0
 14 40  1  0  0  0  0
 15 41  1  0  0  0  0
 16 42  1  0  0  0  0
 18 43  1  0  0  0  0
 18 44  1  0  0  0  0
 19 45  1  0  0  0  0
 19 46  1  0  0  0  0
 20 47  1  0  0  0  0
 20 48  1  0  0  0  0
 21 49  1  0  0  0  0
 21 50  1  0  0  0  0
 22 51  1  0  0  0  0
 22 52  1  0  0  0  0
 23 53  1  0  0  0  0
 23 54  1  0  0  0  0
 24 55  1  0  0  0  0
 29 56  1  0  0  0  0
M  END
> <clash_score>
0

> <docking_score>
-8.901191711425781

> <overlap_score>
1.012872338294983

$$$$
BENZO_259_2
  -OEChem-08222022403D

 54 57  0     1  0  0  0  0  0999 V2000
    8.3510   -1.5420   24.6110 C   0  0  0  0  0  0  0  0  0  0  0  0
   10.2760   -2.3270   23.4020 C   0  0  0  0  0  0  0  0  0  0  0  0
    8.3310   -2.7170   25.3430 C   0  0  0  0  0  0  0  0  0  0  0  0
   10.2570   -3.5000   24.1350 C   0  0  0  0  0  0  0  0  0  0  0  0
   12.6346    0.8176   23.6854 C   0  0  0  0  0  0  0  0  0  0  0  0
   11.6038    0.2020   25.5275 C   0  0  0  0  0  0  0  0  0  0  0  0
    9.3300   -1.3350   23.6390 C   0  0  0  0  0  0  0  0  0  0  0  0
   11.3598    0.6989   24.2706 C   0  0  0  0  0  0  0  0  0  0  0  0
    9.2850   -3.7090   25.1090 C   0  0  0  0  0  0  0  0  0  0  0  0
    6.1600    0.3870   20.1140 C   0  0  0  0  0  0  0  0  0  0  0  0
    7.2210   -0.4620   20.0350 C   0  0  0  0  0  0  0  0  0  0  0  0
    5.3360    0.8000   21.1530 C   0  0  0  0  0  0  0  0  0  0  0  0
    4.2970    1.6690   20.8430 C   0  0  0  0  0  0  0  0  0  0  0  0
    4.0980    2.1130   19.5350 C   0  0  0  0  0  0  0  0  0  0  0  0
    4.9400    1.7060   18.5060 C   0  0  0  0  0  0  0  0  0  0  0  0
    8.3661   -5.2701   26.8525 C   0  0  0  0  0  0  0  0  0  0  0  0
    8.9510    0.1280   21.6880 C   0  0  0  0  0  0  0  0  0  0  0  0
    7.9661   -7.7622   26.6647 C   0  0  0  0  0  0  0  0  0  0  0  0
   13.6941   -0.4329   26.7549 C   0  0  0  0  0  0  0  0  0  0  0  0
   10.0220    1.0430   23.6570 C   0  0  0  0  0  0  0  0  0  0  0  0
    8.7012   -6.6519   27.3940 C   0  0  0  0  0  0  0  0  0  0  0  0
    9.4200   -0.0840   22.9530 C   0  0  2  0  0  0  0  0  0  0  0  0
   13.6158    0.4277   24.5035 N   0  0  0  0  0  0  0  0  0  0  0  0
    7.6830   -0.5170   18.7600 N   0  0  0  0  0  0  0  0  0  0  0  0
    6.9440    0.2550   18.0100 N   0  0  0  0  0  0  0  0  0  0  0  0
   12.9573    0.0592   25.6156 N   0  0  0  0  0  0  0  0  0  0  0  0
    5.9810    0.8330   18.8060 N   0  0  0  0  0  0  0  0  0  0  0  0
    9.2630   -4.8903   25.8409 N   0  0  0  0  0  0  0  0  0  0  0  0
    8.0810   -0.9750   21.0820 N   0  0  0  0  0  0  0  0  0  0  0  0
    7.4216   -4.6151   27.2807 O   0  0  0  0  0  0  0  0  0  0  0  0
    9.1870    1.1500   21.0630 O   0  0  0  0  0  0  0  0  0  0  0  0
    7.5948   -0.7783   24.7966 H   0  0  0  0  0  0  0  0  0  0  0  0
   11.0389   -2.1844   22.6342 H   0  0  0  0  0  0  0  0  0  0  0  0
    7.5642   -2.8624   26.1050 H   0  0  0  0  0  0  0  0  0  0  0  0
   11.0137   -4.2649   23.9418 H   0  0  0  0  0  0  0  0  0  0  0  0
   12.8922    1.1725   22.6975 H   0  0  0  0  0  0  0  0  0  0  0  0
   10.9461   -0.0545   26.3470 H   0  0  0  0  0  0  0  0  0  0  0  0
    5.4735    0.4758   22.1644 H   0  0  0  0  0  0  0  0  0  0  0  0
    3.6415    1.9967   21.6408 H   0  0  0  0  0  0  0  0  0  0  0  0
    3.2720    2.7926   19.2921 H   0  0  0  0  0  0  0  0  0  0  0  0
    4.8119    2.0418   17.5005 H   0  0  0  0  0  0  0  0  0  0  0  0
    6.8816   -7.6310   26.7395 H   0  0  0  0  0  0  0  0  0  0  0  0
    8.2233   -8.7354   27.0939 H   0  0  0  0  0  0  0  0  0  0  0  0
    8.2300   -7.7764   25.6021 H   0  0  0  0  0  0  0  0  0  0  0  0
   13.7879   -1.5173   26.6532 H   0  0  0  0  0  0  0  0  0  0  0  0
   14.6819    0.0356   26.7797 H   0  0  0  0  0  0  0  0  0  0  0  0
   13.1542   -0.1790   27.6714 H   0  0  0  0  0  0  0  0  0  0  0  0
    9.3529    1.4272   24.4380 H   0  0  0  0  0  0  0  0  0  0  0  0
   10.1743    1.8827   22.9648 H   0  0  0  0  0  0  0  0  0  0  0  0
    9.7822   -6.8081   27.3029 H   0  0  0  0  0  0  0  0  0  0  0  0
    8.4425   -6.6801   28.4588 H   0  0  0  0  0  0  0  0  0  0  0  0
   10.7346   -0.4307   22.4468 H   0  0  0  0  0  0  0  0  0  0  0  0
    9.9933   -5.5764   25.6176 H   0  0  0  0  0  0  0  0  0  0  0  0
    8.1159   -1.8115   21.3524 H   0  0  0  0  0  0  0  0  0  0  0  0
  1  3  2  0  0  0  0
  1  7  1  0  0  0  0
  2  4  1  0  0  0  0
  2  7  2  0  0  0  0
  3  9  1  0  0  0  0
  4  9  2  0  0  0  0
  5  8  1  0  0  0  0
  5 23  2  0  0  0  0
  6  8  2  0  0  0  0
  6 26  1  0  0  0  0
  7 22  1  0  0  0  0
  8 20  1  0  0  0  0
  9 28  1  0  0  0  0
 10 11  2  0  0  0  0
 10 12  1  0  0  0  0
 10 27  1  0  0  0  0
 11 24  1  0  0  0  0
 11 29  1  0  0  0  0
 12 13  2  0  0  0  0
 13 14  1  0  0  0  0
 14 15  2  0  0  0  0
 15 27  1  0  0  0  0
 16 21  1  0  0  0  0
 16 28  1  0  0  0  0
 16 30  2  0  0  0  0
 17 22  1  0  0  0  0
 17 29  1  0  0  0  0
 17 31  2  0  0  0  0
 18 21  1  0  0  0  0
 19 26  1  0  0  0  0
 20 22  1  6  0  0  0
 23 26  1  0  0  0  0
 24 25  2  0  0  0  0
 25 27  1  0  0  0  0
  1 32  1  0  0  0  0
  2 33  1  0  0  0  0
  3 34  1  0  0  0  0
  4 35  1  0  0  0  0
  5 36  1  0  0  0  0
  6 37  1  0  0  0  0
 12 38  1  0  0  0  0
 13 39  1  0  0  0  0
 14 40  1  0  0  0  0
 15 41  1  0  0  0  0
 18 42  1  0  0  0  0
 18 43  1  0  0  0  0
 18 44  1  0  0  0  0
 19 45  1  0  0  0  0
 19 46  1  0  0  0  0
 19 47  1  0  0  0  0
 20 48  1  0  0  0  0
 20 49  1  0  0  0  0
 21 50  1  0  0  0  0
 21 51  1  0  0  0  0
 22 52  1  0  0  0  0
 28 53  1  0  0  0  0
 29 54  1  0  0  0  0
M  END
> <clash_score>
1.525952393118028

> <docking_score>
-6.088310241699219

> <overlap_score>
0.9339214563369751

$$$$
BENZO_260_1
  -OEChem-08222022403D

 56 60  0     1  0  0  0  0  0999 V2000
    8.3510   -1.5420   24.6110 C   0  0  0  0  0  0  0  0  0  0  0  0
   10.2760   -2.3270   23.4020 C   0  0  0  0  0  0  0  0  0  0  0  0
    8.3310   -2.7170   25.3430 C   0  0  0  0  0  0  0  0  0  0  0  0
   10.2570   -3.5000   24.1350 C   0  0  0  0  0  0  0  0  0  0  0  0
   11.0518    0.9847   26.0345 C   0  0  0  0  0  0  0  0  0  0  0  0
   12.1353    0.4811   26.7201 C   0  0  0  0  0  0  0  0  0  0  0  0
   12.1840   -0.1301   24.3381 C   0  0  0  0  0  0  0  0  0  0  0  0
    9.3300   -1.3350   23.6390 C   0  0  0  0  0  0  0  0  0  0  0  0
   11.0798    0.6306   24.6546 C   0  0  0  0  0  0  0  0  0  0  0  0
    9.2850   -3.7090   25.1090 C   0  0  0  0  0  0  0  0  0  0  0  0
    6.1600    0.3870   20.1140 C   0  0  0  0  0  0  0  0  0  0  0  0
    7.2210   -0.4620   20.0350 C   0  0  0  0  0  0  0  0  0  0  0  0
    5.3360    0.8000   21.1530 C   0  0  0  0  0  0  0  0  0  0  0  0
    4.2970    1.6690   20.8430 C   0  0  0  0  0  0  0  0  0  0  0  0
    4.0980    2.1130   19.5350 C   0  0  0  0  0  0  0  0  0  0  0  0
    4.9400    1.7060   18.5060 C   0  0  0  0  0  0  0  0  0  0  0  0
    8.9510    0.1280   21.6880 C   0  0  0  0  0  0  0  0  0  0  0  0
    7.3211   -6.8875   26.5227 C   0  0  0  0  0  0  0  0  0  0  0  0
    7.3523   -5.5278   27.2244 C   0  0  0  0  0  0  0  0  0  0  0  0
    7.9422   -6.8107   25.1261 C   0  0  0  0  0  0  0  0  0  0  0  0
    8.7641   -4.9418   27.2163 C   0  0  0  0  0  0  0  0  0  0  0  0
    9.3411   -6.1879   25.1670 C   0  0  0  0  0  0  0  0  0  0  0  0
   10.0220    1.0430   23.6570 C   0  0  0  0  0  0  0  0  0  0  0  0
    9.4200   -0.0840   22.9530 C   0  0  1  0  0  0  0  0  0  0  0  0
    7.6830   -0.5170   18.7600 N   0  0  0  0  0  0  0  0  0  0  0  0
    6.9440    0.2550   18.0100 N   0  0  0  0  0  0  0  0  0  0  0  0
    5.9810    0.8330   18.8060 N   0  0  0  0  0  0  0  0  0  0  0  0
    9.2641   -4.8861   25.8398 N   0  0  0  0  0  0  0  0  0  0  0  0
    8.0810   -0.9750   21.0820 N   0  0  0  0  0  0  0  0  0  0  0  0
    9.1870    1.1500   21.0630 O   0  0  0  0  0  0  0  0  0  0  0  0
   13.1804   -0.4145   25.7013 S   0  0  0  0  0  0  0  0  0  0  0  0
    7.5957   -0.7779   24.7973 H   0  0  0  0  0  0  0  0  0  0  0  0
   11.0384   -2.1852   22.6338 H   0  0  0  0  0  0  0  0  0  0  0  0
    7.5634   -2.8637   26.1037 H   0  0  0  0  0  0  0  0  0  0  0  0
   11.0139   -4.2645   23.9419 H   0  0  0  0  0  0  0  0  0  0  0  0
   10.2782    1.5788   26.5045 H   0  0  0  0  0  0  0  0  0  0  0  0
   12.3635    0.5968   27.7702 H   0  0  0  0  0  0  0  0  0  0  0  0
   12.4575   -0.5332   23.3728 H   0  0  0  0  0  0  0  0  0  0  0  0
    5.4735    0.4758   22.1644 H   0  0  0  0  0  0  0  0  0  0  0  0
    3.6415    1.9967   21.6408 H   0  0  0  0  0  0  0  0  0  0  0  0
    3.2720    2.7926   19.2920 H   0  0  0  0  0  0  0  0  0  0  0  0
    4.8119    2.0418   17.5005 H   0  0  0  0  0  0  0  0  0  0  0  0
    7.8644   -7.6283   27.1289 H   0  0  0  0  0  0  0  0  0  0  0  0
    6.2830   -7.2423   26.4478 H   0  0  0  0  0  0  0  0  0  0  0  0
    6.6663   -4.8405   26.7221 H   0  0  0  0  0  0  0  0  0  0  0  0
    7.0062   -5.6400   28.2540 H   0  0  0  0  0  0  0  0  0  0  0  0
    8.0018   -7.8160   24.6962 H   0  0  0  0  0  0  0  0  0  0  0  0
    7.2963   -6.2182   24.4678 H   0  0  0  0  0  0  0  0  0  0  0  0
    8.7322   -3.9404   27.6532 H   0  0  0  0  0  0  0  0  0  0  0  0
    9.4260   -5.5610   27.8283 H   0  0  0  0  0  0  0  0  0  0  0  0
   10.0249   -6.8474   25.7028 H   0  0  0  0  0  0  0  0  0  0  0  0
    9.7015   -6.0700   24.1446 H   0  0  0  0  0  0  0  0  0  0  0  0
    9.2564    1.6421   24.1671 H   0  0  0  0  0  0  0  0  0  0  0  0
   10.4892    1.7236   22.9318 H   0  0  0  0  0  0  0  0  0  0  0  0
   10.7366   -0.4277   22.4442 H   0  0  0  0  0  0  0  0  0  0  0  0
    8.1354   -1.7990   21.3694 H   0  0  0  0  0  0  0  0  0  0  0  0
  1  3  2  0  0  0  0
  1  8  1  0  0  0  0
  2  4  1  0  0  0  0
  2  8  2  0  0  0  0
  3 10  1  0  0  0  0
  4 10  2  0  0  0  0
  5  6  2  0  0  0  0
  5  9  1  0  0  0  0
  6 31  1  0  0  0  0
  7  9  2  0  0  0  0
  7 31  1  0  0  0  0
  8 24  1  0  0  0  0
  9 23  1  0  0  0  0
 10 28  1  0  0  0  0
 11 12  2  0  0  0  0
 11 13  1  0  0  0  0
 11 27  1  0  0  0  0
 12 25  1  0  0  0  0
 12 29  1  0  0  0  0
 13 14  2  0  0  0  0
 14 15  1  0  0  0  0
 15 16  2  0  0  0  0
 16 27  1  0  0  0  0
 17 24  1  1  0  0  0
 17 29  1  0  0  0  0
 17 30  2  0  0  0  0
 18 19  1  0  0  0  0
 18 20  1  0  0  0  0
 19 21  1  0  0  0  0
 20 22  1  0  0  0  0
 21 28  1  0  0  0  0
 22 28  1  0  0  0  0
 23 24  1  0  0  0  0
 25 26  2  0  0  0  0
 26 27  1  0  0  0  0
  1 32  1  0  0  0  0
  2 33  1  0  0  0  0
  3 34  1  0  0  0  0
  4 35  1  0  0  0  0
  5 36  1  0  0  0  0
  6 37  1  0  0  0  0
  7 38  1  0  0  0  0
 13 39  1  0  0  0  0
 14 40  1  0  0  0  0
 15 41  1  0  0  0  0
 16 42  1  0  0  0  0
 18 43  1  0  0  0  0
 18 44  1  0  0  0  0
 19 45  1  0  0  0  0
 19 46  1  0  0  0  0
 20 47  1  0  0  0  0
 20 48  1  0  0  0  0
 21 49  1  0  0  0  0
 21 50  1  0  0  0  0
 22 51  1  0  0  0  0
 22 52  1  0  0  0  0
 23 53  1  0  0  0  0
 23 54  1  0  0  0  0
 24 55  1  0  0  0  0
 29 56  1  0  0  0  0
M  END
> <clash_score>
0

> <docking_score>
-6.117639541625977

> <overlap_score>
0.8986520171165466

$$$$
BENZO_258_2
  -OEChem-08222022403D

 54 57  0     1  0  0  0  0  0999 V2000
   12.6560   -0.1194   26.1378 C   0  0  0  0  0  0  0  0  0  0  0  0
   11.4219    0.1994   25.5714 C   0  0  0  0  0  0  0  0  0  0  0  0
    8.3510   -1.5420   24.6110 C   0  0  0  0  0  0  0  0  0  0  0  0
   10.2760   -2.3270   23.4020 C   0  0  0  0  0  0  0  0  0  0  0  0
    8.3310   -2.7170   25.3430 C   0  0  0  0  0  0  0  0  0  0  0  0
   10.2570   -3.5000   24.1350 C   0  0  0  0  0  0  0  0  0  0  0  0
   13.8281    0.0614   25.4035 C   0  0  0  0  0  0  0  0  0  0  0  0
   12.5318    0.8798   23.5362 C   0  0  0  0  0  0  0  0  0  0  0  0
    9.3300   -1.3350   23.6390 C   0  0  0  0  0  0  0  0  0  0  0  0
   11.3598    0.6989   24.2706 C   0  0  0  0  0  0  0  0  0  0  0  0
    9.2850   -3.7090   25.1090 C   0  0  0  0  0  0  0  0  0  0  0  0
   13.7660    0.5610   24.1026 C   0  0  0  0  0  0  0  0  0  0  0  0
    6.1600    0.3870   20.1140 C   0  0  0  0  0  0  0  0  0  0  0  0
    7.2210   -0.4620   20.0350 C   0  0  0  0  0  0  0  0  0  0  0  0
    5.3360    0.8000   21.1530 C   0  0  0  0  0  0  0  0  0  0  0  0
    4.2970    1.6690   20.8430 C   0  0  0  0  0  0  0  0  0  0  0  0
    4.0980    2.1130   19.5350 C   0  0  0  0  0  0  0  0  0  0  0  0
    4.9400    1.7060   18.5060 C   0  0  0  0  0  0  0  0  0  0  0  0
    8.3661   -5.2701   26.8525 C   0  0  0  0  0  0  0  0  0  0  0  0
    8.9510    0.1280   21.6880 C   0  0  0  0  0  0  0  0  0  0  0  0
    7.9661   -7.7622   26.6647 C   0  0  0  0  0  0  0  0  0  0  0  0
   10.0220    1.0430   23.6570 C   0  0  0  0  0  0  0  0  0  0  0  0
    8.7012   -6.6519   27.3940 C   0  0  0  0  0  0  0  0  0  0  0  0
    9.4200   -0.0840   22.9530 C   0  0  2  0  0  0  0  0  0  0  0  0
    7.6830   -0.5170   18.7600 N   0  0  0  0  0  0  0  0  0  0  0  0
    6.9440    0.2550   18.0100 N   0  0  0  0  0  0  0  0  0  0  0  0
    5.9810    0.8330   18.8060 N   0  0  0  0  0  0  0  0  0  0  0  0
    9.2630   -4.8903   25.8409 N   0  0  0  0  0  0  0  0  0  0  0  0
    8.0810   -0.9750   21.0820 N   0  0  0  0  0  0  0  0  0  0  0  0
    7.4216   -4.6151   27.2807 O   0  0  0  0  0  0  0  0  0  0  0  0
    9.1870    1.1500   21.0630 O   0  0  0  0  0  0  0  0  0  0  0  0
   15.2122    0.7829   23.1967 Cl  0  0  0  0  0  0  0  0  0  0  0  0
   12.7039   -0.5086   27.1508 H   0  0  0  0  0  0  0  0  0  0  0  0
   10.5137    0.0551   26.1509 H   0  0  0  0  0  0  0  0  0  0  0  0
    7.5948   -0.7783   24.7966 H   0  0  0  0  0  0  0  0  0  0  0  0
   11.0389   -2.1844   22.6342 H   0  0  0  0  0  0  0  0  0  0  0  0
    7.5642   -2.8624   26.1050 H   0  0  0  0  0  0  0  0  0  0  0  0
   11.0137   -4.2649   23.9418 H   0  0  0  0  0  0  0  0  0  0  0  0
   14.7829   -0.1916   25.8577 H   0  0  0  0  0  0  0  0  0  0  0  0
   12.4781    1.2701   22.5225 H   0  0  0  0  0  0  0  0  0  0  0  0
    5.4735    0.4758   22.1644 H   0  0  0  0  0  0  0  0  0  0  0  0
    3.6415    1.9967   21.6408 H   0  0  0  0  0  0  0  0  0  0  0  0
    3.2720    2.7926   19.2921 H   0  0  0  0  0  0  0  0  0  0  0  0
    4.8119    2.0418   17.5005 H   0  0  0  0  0  0  0  0  0  0  0  0
    6.8816   -7.6310   26.7395 H   0  0  0  0  0  0  0  0  0  0  0  0
    8.2233   -8.7354   27.0939 H   0  0  0  0  0  0  0  0  0  0  0  0
    8.2300   -7.7764   25.6021 H   0  0  0  0  0  0  0  0  0  0  0  0
    9.3529    1.4272   24.4380 H   0  0  0  0  0  0  0  0  0  0  0  0
   10.1743    1.8827   22.9648 H   0  0  0  0  0  0  0  0  0  0  0  0
    9.7822   -6.8081   27.3029 H   0  0  0  0  0  0  0  0  0  0  0  0
    8.4425   -6.6801   28.4588 H   0  0  0  0  0  0  0  0  0  0  0  0
   10.7346   -0.4307   22.4468 H   0  0  0  0  0  0  0  0  0  0  0  0
    9.9933   -5.5764   25.6176 H   0  0  0  0  0  0  0  0  0  0  0  0
    8.1159   -1.8115   21.3524 H   0  0  0  0  0  0  0  0  0  0  0  0
  1  2  2  0  0  0  0
  1  7  1  0  0  0  0
  2 10  1  0  0  0  0
  3  5  2  0  0  0  0
  3  9  1  0  0  0  0
  4  6  1  0  0  0  0
  4  9  2  0  0  0  0
  5 11  1  0  0  0  0
  6 11  2  0  0  0  0
  7 12  2  0  0  0  0
  8 10  2  0  0  0  0
  8 12  1  0  0  0  0
  9 24  1  0  0  0  0
 10 22  1  0  0  0  0
 11 28  1  0  0  0  0
 12 32  1  0  0  0  0
 13 14  2  0  0  0  0
 13 15  1  0  0  0  0
 13 27  1  0  0  0  0
 14 25  1  0  0  0  0
 14 29  1  0  0  0  0
 15 16  2  0  0  0  0
 16 17  1  0  0  0  0
 17 18  2  0  0  0  0
 18 27  1  0  0  0  0
 19 23  1  0  0  0  0
 19 28  1  0  0  0  0
 19 30  2  0  0  0  0
 20 24  1  0  0  0  0
 20 29  1  0  0  0  0
 20 31  2  0  0  0  0
 21 23  1  0  0  0  0
 22 24  1  6  0  0  0
 25 26  2  0  0  0  0
 26 27  1  0  0  0  0
  1 33  1  0  0  0  0
  2 34  1  0  0  0  0
  3 35  1  0  0  0  0
  4 36  1  0  0  0  0
  5 37  1  0  0  0  0
  6 38  1  0  0  0  0
  7 39  1  0  0  0  0
  8 40  1  0  0  0  0
 15 41  1  0  0  0  0
 16 42  1  0  0  0  0
 17 43  1  0  0  0  0
 18 44  1  0  0  0  0
 21 45  1  0  0  0  0
 21 46  1  0  0  0  0
 21 47  1  0  0  0  0
 22 48  1  0  0  0  0
 22 49  1  0  0  0  0
 23 50  1  0  0  0  0
 23 51  1  0  0  0  0
 24 52  1  0  0  0  0
 28 53  1  0  0  0  0
 29 54  1  0  0  0  0
M  END
> <clash_score>
1.3879242137257972

> <docking_score>
-5.3208160400390625

> <overlap_score>
0.951693058013916

$$$$
BENZO_258_1
  -OEChem-08222022403D

 54 57  0     1  0  0  0  0  0999 V2000
   13.7719    0.5789   24.0657 C   0  0  0  0  0  0  0  0  0  0  0  0
   12.3966    0.4859   24.2792 C   0  0  0  0  0  0  0  0  0  0  0  0
    8.3510   -1.5420   24.6110 C   0  0  0  0  0  0  0  0  0  0  0  0
   10.2760   -2.3270   23.4020 C   0  0  0  0  0  0  0  0  0  0  0  0
    8.3310   -2.7170   25.3430 C   0  0  0  0  0  0  0  0  0  0  0  0
   10.2570   -3.5000   24.1350 C   0  0  0  0  0  0  0  0  0  0  0  0
   14.2627    1.3315   22.9987 C   0  0  0  0  0  0  0  0  0  0  0  0
   12.0029    1.8978   22.3587 C   0  0  0  0  0  0  0  0  0  0  0  0
    9.3300   -1.3350   23.6390 C   0  0  0  0  0  0  0  0  0  0  0  0
   11.5121    1.1453   23.4257 C   0  0  0  0  0  0  0  0  0  0  0  0
    9.2850   -3.7090   25.1090 C   0  0  0  0  0  0  0  0  0  0  0  0
   13.3782    1.9909   22.1452 C   0  0  0  0  0  0  0  0  0  0  0  0
    6.1600    0.3870   20.1140 C   0  0  0  0  0  0  0  0  0  0  0  0
    7.2210   -0.4620   20.0350 C   0  0  0  0  0  0  0  0  0  0  0  0
    5.3360    0.8000   21.1530 C   0  0  0  0  0  0  0  0  0  0  0  0
    4.2970    1.6690   20.8430 C   0  0  0  0  0  0  0  0  0  0  0  0
    4.0980    2.1130   19.5350 C   0  0  0  0  0  0  0  0  0  0  0  0
    4.9400    1.7060   18.5060 C   0  0  0  0  0  0  0  0  0  0  0  0
    8.1545   -5.5464   26.4002 C   0  0  0  0  0  0  0  0  0  0  0  0
    8.9510    0.1280   21.6880 C   0  0  0  0  0  0  0  0  0  0  0  0
    9.7914   -7.4743   26.4981 C   0  0  0  0  0  0  0  0  0  0  0  0
   10.0220    1.0430   23.6570 C   0  0  0  0  0  0  0  0  0  0  0  0
    8.5753   -6.8162   27.1251 C   0  0  0  0  0  0  0  0  0  0  0  0
    9.4200   -0.0840   22.9530 C   0  0  1  0  0  0  0  0  0  0  0  0
    7.6830   -0.5170   18.7600 N   0  0  0  0  0  0  0  0  0  0  0  0
    6.9440    0.2550   18.0100 N   0  0  0  0  0  0  0  0  0  0  0  0
    5.9810    0.8330   18.8060 N   0  0  0  0  0  0  0  0  0  0  0  0
    9.2630   -4.8903   25.8409 N   0  0  0  0  0  0  0  0  0  0  0  0
    8.0810   -0.9750   21.0820 N   0  0  0  0  0  0  0  0  0  0  0  0
    6.9828   -5.1884   26.3422 O   0  0  0  0  0  0  0  0  0  0  0  0
    9.1870    1.1500   21.0630 O   0  0  0  0  0  0  0  0  0  0  0  0
   13.9842    2.9183   20.8282 Cl  0  0  0  0  0  0  0  0  0  0  0  0
   14.4603    0.0652   24.7304 H   0  0  0  0  0  0  0  0  0  0  0  0
   12.0231   -0.1028   25.1130 H   0  0  0  0  0  0  0  0  0  0  0  0
    7.5948   -0.7783   24.7966 H   0  0  0  0  0  0  0  0  0  0  0  0
   11.0389   -2.1844   22.6342 H   0  0  0  0  0  0  0  0  0  0  0  0
    7.5642   -2.8624   26.1050 H   0  0  0  0  0  0  0  0  0  0  0  0
   11.0137   -4.2649   23.9418 H   0  0  0  0  0  0  0  0  0  0  0  0
   15.3370    1.3949   22.8442 H   0  0  0  0  0  0  0  0  0  0  0  0
   11.3092    2.4105   21.6963 H   0  0  0  0  0  0  0  0  0  0  0  0
    5.4735    0.4758   22.1644 H   0  0  0  0  0  0  0  0  0  0  0  0
    3.6415    1.9967   21.6408 H   0  0  0  0  0  0  0  0  0  0  0  0
    3.2720    2.7926   19.2921 H   0  0  0  0  0  0  0  0  0  0  0  0
    4.8119    2.0418   17.5005 H   0  0  0  0  0  0  0  0  0  0  0  0
    9.6008   -7.7374   25.4525 H   0  0  0  0  0  0  0  0  0  0  0  0
   10.0508   -8.3895   27.0392 H   0  0  0  0  0  0  0  0  0  0  0  0
   10.6575   -6.8049   26.5234 H   0  0  0  0  0  0  0  0  0  0  0  0
    9.8253    0.9889   24.7357 H   0  0  0  0  0  0  0  0  0  0  0  0
    9.5635    1.9845   23.3241 H   0  0  0  0  0  0  0  0  0  0  0  0
    8.7939   -6.5641   28.1692 H   0  0  0  0  0  0  0  0  0  0  0  0
    7.7334   -7.5179   27.1142 H   0  0  0  0  0  0  0  0  0  0  0  0
    8.1288    0.3205   23.5156 H   0  0  0  0  0  0  0  0  0  0  0  0
   10.1701   -5.3456   25.9953 H   0  0  0  0  0  0  0  0  0  0  0  0
    8.1159   -1.8115   21.3524 H   0  0  0  0  0  0  0  0  0  0  0  0
  1  2  2  0  0  0  0
  1  7  1  0  0  0  0
  2 10  1  0  0  0  0
  3  5  2  0  0  0  0
  3  9  1  0  0  0  0
  4  6  1  0  0  0  0
  4  9  2  0  0  0  0
  5 11  1  0  0  0  0
  6 11  2  0  0  0  0
  7 12  2  0  0  0  0
  8 10  2  0  0  0  0
  8 12  1  0  0  0  0
  9 24  1  0  0  0  0
 10 22  1  0  0  0  0
 11 28  1  0  0  0  0
 12 32  1  0  0  0  0
 13 14  2  0  0  0  0
 13 15  1  0  0  0  0
 13 27  1  0  0  0  0
 14 25  1  0  0  0  0
 14 29  1  0  0  0  0
 15 16  2  0  0  0  0
 16 17  1  0  0  0  0
 17 18  2  0  0  0  0
 18 27  1  0  0  0  0
 19 23  1  0  0  0  0
 19 28  1  0  0  0  0
 19 30  2  0  0  0  0
 20 24  1  0  0  0  0
 20 29  1  0  0  0  0
 20 31  2  0  0  0  0
 21 23  1  0  0  0  0
 22 24  1  1  0  0  0
 25 26  2  0  0  0  0
 26 27  1  0  0  0  0
  1 33  1  0  0  0  0
  2 34  1  0  0  0  0
  3 35  1  0  0  0  0
  4 36  1  0  0  0  0
  5 37  1  0  0  0  0
  6 38  1  0  0  0  0
  7 39  1  0  0  0  0
  8 40  1  0  0  0  0
 15 41  1  0  0  0  0
 16 42  1  0  0  0  0
 17 43  1  0  0  0  0
 18 44  1  0  0  0  0
 21 45  1  0  0  0  0
 21 46  1  0  0  0  0
 21 47  1  0  0  0  0
 22 48  1  0  0  0  0
 22 49  1  0  0  0  0
 23 50  1  0  0  0  0
 23 51  1  0  0  0  0
 24 52  1  0  0  0  0
 28 53  1  0  0  0  0
 29 54  1  0  0  0  0
M  END
> <clash_score>
0.7461187281511344

> <docking_score>
-6.609177589416504

> <overlap_score>
1.0222234725952148

$$$$
BENZO_259_1
  -OEChem-08222022403D

 54 57  0     1  0  0  0  0  0999 V2000
    8.3510   -1.5420   24.6110 C   0  0  0  0  0  0  0  0  0  0  0  0
   10.2760   -2.3270   23.4020 C   0  0  0  0  0  0  0  0  0  0  0  0
    8.3310   -2.7170   25.3430 C   0  0  0  0  0  0  0  0  0  0  0  0
   10.2570   -3.5000   24.1350 C   0  0  0  0  0  0  0  0  0  0  0  0
   12.3075    2.3068   23.4193 C   0  0  0  0  0  0  0  0  0  0  0  0
   12.3951    0.1231   23.1769 C   0  0  0  0  0  0  0  0  0  0  0  0
    9.3300   -1.3350   23.6390 C   0  0  0  0  0  0  0  0  0  0  0  0
   11.5121    1.1453   23.4257 C   0  0  0  0  0  0  0  0  0  0  0  0
    9.2850   -3.7090   25.1090 C   0  0  0  0  0  0  0  0  0  0  0  0
    6.1600    0.3870   20.1140 C   0  0  0  0  0  0  0  0  0  0  0  0
    7.2210   -0.4620   20.0350 C   0  0  0  0  0  0  0  0  0  0  0  0
    5.3360    0.8000   21.1530 C   0  0  0  0  0  0  0  0  0  0  0  0
    4.2970    1.6690   20.8430 C   0  0  0  0  0  0  0  0  0  0  0  0
    4.0980    2.1130   19.5350 C   0  0  0  0  0  0  0  0  0  0  0  0
    4.9400    1.7060   18.5060 C   0  0  0  0  0  0  0  0  0  0  0  0
    8.3661   -5.2701   26.8525 C   0  0  0  0  0  0  0  0  0  0  0  0
    8.9510    0.1280   21.6880 C   0  0  0  0  0  0  0  0  0  0  0  0
    7.9661   -7.7622   26.6647 C   0  0  0  0  0  0  0  0  0  0  0  0
   14.8664    0.0395   22.7716 C   0  0  0  0  0  0  0  0  0  0  0  0
   10.0220    1.0430   23.6570 C   0  0  0  0  0  0  0  0  0  0  0  0
    8.7012   -6.6519   27.3940 C   0  0  0  0  0  0  0  0  0  0  0  0
    9.4200   -0.0840   22.9530 C   0  0  1  0  0  0  0  0  0  0  0  0
   13.5967    2.0476   23.1851 N   0  0  0  0  0  0  0  0  0  0  0  0
    7.6830   -0.5170   18.7600 N   0  0  0  0  0  0  0  0  0  0  0  0
    6.9440    0.2550   18.0100 N   0  0  0  0  0  0  0  0  0  0  0  0
   13.6181    0.7115   23.0422 N   0  0  0  0  0  0  0  0  0  0  0  0
    5.9810    0.8330   18.8060 N   0  0  0  0  0  0  0  0  0  0  0  0
    9.2630   -4.8903   25.8409 N   0  0  0  0  0  0  0  0  0  0  0  0
    8.0810   -0.9750   21.0820 N   0  0  0  0  0  0  0  0  0  0  0  0
    7.4216   -4.6151   27.2807 O   0  0  0  0  0  0  0  0  0  0  0  0
    9.1870    1.1500   21.0630 O   0  0  0  0  0  0  0  0  0  0  0  0
    7.5948   -0.7783   24.7966 H   0  0  0  0  0  0  0  0  0  0  0  0
   11.0389   -2.1844   22.6342 H   0  0  0  0  0  0  0  0  0  0  0  0
    7.5642   -2.8624   26.1050 H   0  0  0  0  0  0  0  0  0  0  0  0
   11.0137   -4.2649   23.9418 H   0  0  0  0  0  0  0  0  0  0  0  0
   12.0040    3.3322   23.5761 H   0  0  0  0  0  0  0  0  0  0  0  0
   12.2609   -0.9465   23.0878 H   0  0  0  0  0  0  0  0  0  0  0  0
    5.4735    0.4758   22.1644 H   0  0  0  0  0  0  0  0  0  0  0  0
    3.6415    1.9967   21.6408 H   0  0  0  0  0  0  0  0  0  0  0  0
    3.2720    2.7926   19.2921 H   0  0  0  0  0  0  0  0  0  0  0  0
    4.8119    2.0418   17.5005 H   0  0  0  0  0  0  0  0  0  0  0  0
    6.8816   -7.6310   26.7395 H   0  0  0  0  0  0  0  0  0  0  0  0
    8.2233   -8.7354   27.0939 H   0  0  0  0  0  0  0  0  0  0  0  0
    8.2300   -7.7764   25.6021 H   0  0  0  0  0  0  0  0  0  0  0  0
   14.9942   -0.0107   21.6871 H   0  0  0  0  0  0  0  0  0  0  0  0
   15.6877    0.5992   23.2278 H   0  0  0  0  0  0  0  0  0  0  0  0
   14.8362   -0.9658   23.2010 H   0  0  0  0  0  0  0  0  0  0  0  0
    9.8253    0.9889   24.7357 H   0  0  0  0  0  0  0  0  0  0  0  0
    9.5635    1.9845   23.3241 H   0  0  0  0  0  0  0  0  0  0  0  0
    9.7822   -6.8081   27.3029 H   0  0  0  0  0  0  0  0  0  0  0  0
    8.4425   -6.6801   28.4588 H   0  0  0  0  0  0  0  0  0  0  0  0
    8.1288    0.3205   23.5156 H   0  0  0  0  0  0  0  0  0  0  0  0
    9.9933   -5.5764   25.6176 H   0  0  0  0  0  0  0  0  0  0  0  0
    8.1159   -1.8115   21.3524 H   0  0  0  0  0  0  0  0  0  0  0  0
  1  3  2  0  0  0  0
  1  7  1  0  0  0  0
  2  4  1  0  0  0  0
  2  7  2  0  0  0  0
  3  9  1  0  0  0  0
  4  9  2  0  0  0  0
  5  8  1  0  0  0  0
  5 23  2  0  0  0  0
  6  8  2  0  0  0  0
  6 26  1  0  0  0  0
  7 22  1  0  0  0  0
  8 20  1  0  0  0  0
  9 28  1  0  0  0  0
 10 11  2  0  0  0  0
 10 12  1  0  0  0  0
 10 27  1  0  0  0  0
 11 24  1  0  0  0  0
 11 29  1  0  0  0  0
 12 13  2  0  0  0  0
 13 14  1  0  0  0  0
 14 15  2  0  0  0  0
 15 27  1  0  0  0  0
 16 21  1  0  0  0  0
 16 28  1  0  0  0  0
 16 30  2  0  0  0  0
 17 22  1  0  0  0  0
 17 29  1  0  0  0  0
 17 31  2  0  0  0  0
 18 21  1  0  0  0  0
 19 26  1  0  0  0  0
 20 22  1  1  0  0  0
 23 26  1  0  0  0  0
 24 25  2  0  0  0  0
 25 27  1  0  0  0  0
  1 32  1  0  0  0  0
  2 33  1  0  0  0  0
  3 34  1  0  0  0  0
  4 35  1  0  0  0  0
  5 36  1  0  0  0  0
  6 37  1  0  0  0  0
 12 38  1  0  0  0  0
 13 39  1  0  0  0  0
 14 40  1  0  0  0  0
 15 41  1  0  0  0  0
 18 42  1  0  0  0  0
 18 43  1  0  0  0  0
 18 44  1  0  0  0  0
 19 45  1  0  0  0  0
 19 46  1  0  0  0  0
 19 47  1  0  0  0  0
 20 48  1  0  0  0  0
 20 49  1  0  0  0  0
 21 50  1  0  0  0  0
 21 51  1  0  0  0  0
 22 52  1  0  0  0  0
 28 53  1  0  0  0  0
 29 54  1  0  0  0  0
M  END
> <clash_score>
0.7808399504628928

> <docking_score>
-7.95501708984375

> <overlap_score>
1.0221209526062012

$$$$
BENZO_265_1
  -OEChem-08222022403D

 47 50  0     1  0  0  0  0  0999 V2000
   14.2623    1.3345   22.9975 C   0  0  0  0  0  0  0  0  0  0  0  0
   13.7729    0.5817   24.0649 C   0  0  0  0  0  0  0  0  0  0  0  0
   13.3767    1.9928   22.1442 C   0  0  0  0  0  0  0  0  0  0  0  0
   12.3978    0.4871   24.2790 C   0  0  0  0  0  0  0  0  0  0  0  0
   12.0016    1.8982   22.3583 C   0  0  0  0  0  0  0  0  0  0  0  0
    8.3310   -2.7170   25.3430 C   0  0  0  0  0  0  0  0  0  0  0  0
   10.2570   -3.5000   24.1350 C   0  0  0  0  0  0  0  0  0  0  0  0
    8.3510   -1.5420   24.6110 C   0  0  0  0  0  0  0  0  0  0  0  0
   10.2760   -2.3270   23.4020 C   0  0  0  0  0  0  0  0  0  0  0  0
    9.2850   -3.7090   25.1090 C   0  0  0  0  0  0  0  0  0  0  0  0
   11.5121    1.1453   23.4257 C   0  0  0  0  0  0  0  0  0  0  0  0
    9.3300   -1.3350   23.6390 C   0  0  0  0  0  0  0  0  0  0  0  0
    6.1600    0.3870   20.1140 C   0  0  0  0  0  0  0  0  0  0  0  0
    7.2210   -0.4620   20.0350 C   0  0  0  0  0  0  0  0  0  0  0  0
    5.3360    0.8000   21.1530 C   0  0  0  0  0  0  0  0  0  0  0  0
    4.2970    1.6690   20.8430 C   0  0  0  0  0  0  0  0  0  0  0  0
    4.0980    2.1130   19.5350 C   0  0  0  0  0  0  0  0  0  0  0  0
    4.9400    1.7060   18.5060 C   0  0  0  0  0  0  0  0  0  0  0  0
    8.9510    0.1280   21.6880 C   0  0  0  0  0  0  0  0  0  0  0  0
    9.2618   -4.9724   25.8910 C   0  0  0  0  0  0  0  0  0  0  0  0
   10.0220    1.0430   23.6570 C   0  0  0  0  0  0  0  0  0  0  0  0
    9.4200   -0.0840   22.9530 C   0  0  1  0  0  0  0  0  0  0  0  0
    7.6830   -0.5170   18.7600 N   0  0  0  0  0  0  0  0  0  0  0  0
    6.9440    0.2550   18.0100 N   0  0  0  0  0  0  0  0  0  0  0  0
    5.9810    0.8330   18.8060 N   0  0  0  0  0  0  0  0  0  0  0  0
    8.0810   -0.9750   21.0820 N   0  0  0  0  0  0  0  0  0  0  0  0
    9.1870    1.1500   21.0630 O   0  0  0  0  0  0  0  0  0  0  0  0
   15.3331    1.4092   22.8317 H   0  0  0  0  0  0  0  0  0  0  0  0
   14.4623    0.0700   24.7300 H   0  0  0  0  0  0  0  0  0  0  0  0
   13.7574    2.5799   21.3138 H   0  0  0  0  0  0  0  0  0  0  0  0
   12.0255   -0.1019   25.1131 H   0  0  0  0  0  0  0  0  0  0  0  0
   11.3191    2.4143   21.6883 H   0  0  0  0  0  0  0  0  0  0  0  0
    7.5655   -2.8644   26.1055 H   0  0  0  0  0  0  0  0  0  0  0  0
   11.0125   -4.2662   23.9435 H   0  0  0  0  0  0  0  0  0  0  0  0
    7.5953   -0.7782   24.7971 H   0  0  0  0  0  0  0  0  0  0  0  0
   11.0394   -2.1837   22.6349 H   0  0  0  0  0  0  0  0  0  0  0  0
    5.4735    0.4758   22.1644 H   0  0  0  0  0  0  0  0  0  0  0  0
    3.6415    1.9967   21.6408 H   0  0  0  0  0  0  0  0  0  0  0  0
    3.2720    2.7926   19.2921 H   0  0  0  0  0  0  0  0  0  0  0  0
    4.8119    2.0418   17.5005 H   0  0  0  0  0  0  0  0  0  0  0  0
    8.6408   -5.7227   25.3864 H   0  0  0  0  0  0  0  0  0  0  0  0
   10.2726   -5.3829   26.0135 H   0  0  0  0  0  0  0  0  0  0  0  0
    8.8606   -4.8102   26.9000 H   0  0  0  0  0  0  0  0  0  0  0  0
    9.8253    0.9889   24.7357 H   0  0  0  0  0  0  0  0  0  0  0  0
    9.5635    1.9845   23.3241 H   0  0  0  0  0  0  0  0  0  0  0  0
    8.1288    0.3205   23.5156 H   0  0  0  0  0  0  0  0  0  0  0  0
    8.1159   -1.8115   21.3524 H   0  0  0  0  0  0  0  0  0  0  0  0
  1  2  1  0  0  0  0
  1  3  2  0  0  0  0
  2  4  2  0  0  0  0
  3  5  1  0  0  0  0
  4 11  1  0  0  0  0
  5 11  2  0  0  0  0
  6  8  2  0  0  0  0
  6 10  1  0  0  0  0
  7  9  1  0  0  0  0
  7 10  2  0  0  0  0
  8 12  1  0  0  0  0
  9 12  2  0  0  0  0
 10 20  1  0  0  0  0
 11 21  1  0  0  0  0
 12 22  1  0  0  0  0
 13 14  2  0  0  0  0
 13 15  1  0  0  0  0
 13 25  1  0  0  0  0
 14 23  1  0  0  0  0
 14 26  1  0  0  0  0
 15 16  2  0  0  0  0
 16 17  1  0  0  0  0
 17 18  2  0  0  0  0
 18 25  1  0  0  0  0
 19 22  1  0  0  0  0
 19 26  1  0  0  0  0
 19 27  2  0  0  0  0
 21 22  1  1  0  0  0
 23 24  2  0  0  0  0
 24 25  1  0  0  0  0
  1 28  1  0  0  0  0
  2 29  1  0  0  0  0
  3 30  1  0  0  0  0
  4 31  1  0  0  0  0
  5 32  1  0  0  0  0
  6 33  1  0  0  0  0
  7 34  1  0  0  0  0
  8 35  1  0  0  0  0
  9 36  1  0  0  0  0
 15 37  1  0  0  0  0
 16 38  1  0  0  0  0
 17 39  1  0  0  0  0
 18 40  1  0  0  0  0
 20 41  1  0  0  0  0
 20 42  1  0  0  0  0
 20 43  1  0  0  0  0
 21 44  1  0  0  0  0
 21 45  1  0  0  0  0
 22 46  1  0  0  0  0
 26 47  1  0  0  0  0
M  END
> <clash_score>
0

> <docking_score>
-9.02942943572998

> <overlap_score>
0.9820054769515991

$$$$
BENZO_265_2
  -OEChem-08222022403D

 47 50  0     1  0  0  0  0  0999 V2000
   13.8295    0.0638   25.4018 C   0  0  0  0  0  0  0  0  0  0  0  0
   12.6583   -0.1175   26.1373 C   0  0  0  0  0  0  0  0  0  0  0  0
   13.7659    0.5627   24.1007 C   0  0  0  0  0  0  0  0  0  0  0  0
   11.4234    0.2001   25.5717 C   0  0  0  0  0  0  0  0  0  0  0  0
   12.5310    0.8802   23.5351 C   0  0  0  0  0  0  0  0  0  0  0  0
    8.3310   -2.7170   25.3430 C   0  0  0  0  0  0  0  0  0  0  0  0
   10.2570   -3.5000   24.1350 C   0  0  0  0  0  0  0  0  0  0  0  0
    8.3510   -1.5420   24.6110 C   0  0  0  0  0  0  0  0  0  0  0  0
   10.2760   -2.3270   23.4020 C   0  0  0  0  0  0  0  0  0  0  0  0
    9.2850   -3.7090   25.1090 C   0  0  0  0  0  0  0  0  0  0  0  0
   11.3598    0.6989   24.2706 C   0  0  0  0  0  0  0  0  0  0  0  0
    9.3300   -1.3350   23.6390 C   0  0  0  0  0  0  0  0  0  0  0  0
    6.1600    0.3870   20.1140 C   0  0  0  0  0  0  0  0  0  0  0  0
    7.2210   -0.4620   20.0350 C   0  0  0  0  0  0  0  0  0  0  0  0
    5.3360    0.8000   21.1530 C   0  0  0  0  0  0  0  0  0  0  0  0
    4.2970    1.6690   20.8430 C   0  0  0  0  0  0  0  0  0  0  0  0
    4.0980    2.1130   19.5350 C   0  0  0  0  0  0  0  0  0  0  0  0
    4.9400    1.7060   18.5060 C   0  0  0  0  0  0  0  0  0  0  0  0
    8.9510    0.1280   21.6880 C   0  0  0  0  0  0  0  0  0  0  0  0
    9.2618   -4.9724   25.8910 C   0  0  0  0  0  0  0  0  0  0  0  0
   10.0220    1.0430   23.6570 C   0  0  0  0  0  0  0  0  0  0  0  0
    9.4200   -0.0840   22.9530 C   0  0  2  0  0  0  0  0  0  0  0  0
    7.6830   -0.5170   18.7600 N   0  0  0  0  0  0  0  0  0  0  0  0
    6.9440    0.2550   18.0100 N   0  0  0  0  0  0  0  0  0  0  0  0
    5.9810    0.8330   18.8060 N   0  0  0  0  0  0  0  0  0  0  0  0
    8.0810   -0.9750   21.0820 N   0  0  0  0  0  0  0  0  0  0  0  0
    9.1870    1.1500   21.0630 O   0  0  0  0  0  0  0  0  0  0  0  0
   14.7910   -0.1822   25.8428 H   0  0  0  0  0  0  0  0  0  0  0  0
   12.7077   -0.5049   27.1507 H   0  0  0  0  0  0  0  0  0  0  0  0
   14.6777    0.7050   23.5282 H   0  0  0  0  0  0  0  0  0  0  0  0
   10.5160    0.0554   26.1521 H   0  0  0  0  0  0  0  0  0  0  0  0
   12.4911    1.2683   22.5207 H   0  0  0  0  0  0  0  0  0  0  0  0
    7.5655   -2.8644   26.1055 H   0  0  0  0  0  0  0  0  0  0  0  0
   11.0125   -4.2662   23.9435 H   0  0  0  0  0  0  0  0  0  0  0  0
    7.5953   -0.7782   24.7971 H   0  0  0  0  0  0  0  0  0  0  0  0
   11.0394   -2.1837   22.6349 H   0  0  0  0  0  0  0  0  0  0  0  0
    5.4735    0.4758   22.1644 H   0  0  0  0  0  0  0  0  0  0  0  0
    3.6415    1.9967   21.6408 H   0  0  0  0  0  0  0  0  0  0  0  0
    3.2720    2.7926   19.2921 H   0  0  0  0  0  0  0  0  0  0  0  0
    4.8119    2.0418   17.5005 H   0  0  0  0  0  0  0  0  0  0  0  0
    8.6408   -5.7227   25.3864 H   0  0  0  0  0  0  0  0  0  0  0  0
   10.2726   -5.3829   26.0135 H   0  0  0  0  0  0  0  0  0  0  0  0
    8.8606   -4.8102   26.9000 H   0  0  0  0  0  0  0  0  0  0  0  0
    9.3529    1.4272   24.4380 H   0  0  0  0  0  0  0  0  0  0  0  0
   10.1743    1.8827   22.9648 H   0  0  0  0  0  0  0  0  0  0  0  0
   10.7346   -0.4307   22.4468 H   0  0  0  0  0  0  0  0  0  0  0  0
    8.1159   -1.8115   21.3524 H   0  0  0  0  0  0  0  0  0  0  0  0
  1  2  1  0  0  0  0
  1  3  2  0  0  0  0
  2  4  2  0  0  0  0
  3  5  1  0  0  0  0
  4 11  1  0  0  0  0
  5 11  2  0  0  0  0
  6  8  2  0  0  0  0
  6 10  1  0  0  0  0
  7  9  1  0  0  0  0
  7 10  2  0  0  0  0
  8 12  1  0  0  0  0
  9 12  2  0  0  0  0
 10 20  1  0  0  0  0
 11 21  1  0  0  0  0
 12 22  1  0  0  0  0
 13 14  2  0  0  0  0
 13 15  1  0  0  0  0
 13 25  1  0  0  0  0
 14 23  1  0  0  0  0
 14 26  1  0  0  0  0
 15 16  2  0  0  0  0
 16 17  1  0  0  0  0
 17 18  2  0  0  0  0
 18 25  1  0  0  0  0
 19 22  1  0  0  0  0
 19 26  1  0  0  0  0
 19 27  2  0  0  0  0
 21 22  1  6  0  0  0
 23 24  2  0  0  0  0
 24 25  1  0  0  0  0
  1 28  1  0  0  0  0
  2 29  1  0  0  0  0
  3 30  1  0  0  0  0
  4 31  1  0  0  0  0
  5 32  1  0  0  0  0
  6 33  1  0  0  0  0
  7 34  1  0  0  0  0
  8 35  1  0  0  0  0
  9 36  1  0  0  0  0
 15 37  1  0  0  0  0
 16 38  1  0  0  0  0
 17 39  1  0  0  0  0
 18 40  1  0  0  0  0
 20 41  1  0  0  0  0
 20 42  1  0  0  0  0
 20 43  1  0  0  0  0
 21 44  1  0  0  0  0
 21 45  1  0  0  0  0
 22 46  1  0  0  0  0
 26 47  1  0  0  0  0
M  END
> <clash_score>
0.6066494260958748

> <docking_score>
-8.091882705688477

> <overlap_score>
0.9039357304573059

$$$$
BENZO_264_2
  -OEChem-08222022403D

 44 47  0     1  0  0  0  0  0999 V2000
    8.3310   -2.7170   25.3430 C   0  0  0  0  0  0  0  0  0  0  0  0
   10.2570   -3.5000   24.1350 C   0  0  0  0  0  0  0  0  0  0  0  0
    8.3510   -1.5420   24.6110 C   0  0  0  0  0  0  0  0  0  0  0  0
   10.2760   -2.3270   23.4020 C   0  0  0  0  0  0  0  0  0  0  0  0
   12.2093   -0.1809   24.3161 C   0  0  0  0  0  0  0  0  0  0  0  0
   13.0091   -0.4299   25.4096 C   0  0  0  0  0  0  0  0  0  0  0  0
   11.0505    0.9396   25.9906 C   0  0  0  0  0  0  0  0  0  0  0  0
    9.2850   -3.7090   25.1090 C   0  0  0  0  0  0  0  0  0  0  0  0
    9.3300   -1.3350   23.6390 C   0  0  0  0  0  0  0  0  0  0  0  0
   11.0747    0.6126   24.6525 C   0  0  0  0  0  0  0  0  0  0  0  0
    6.1600    0.3870   20.1140 C   0  0  0  0  0  0  0  0  0  0  0  0
    7.2210   -0.4620   20.0350 C   0  0  0  0  0  0  0  0  0  0  0  0
    5.3360    0.8000   21.1530 C   0  0  0  0  0  0  0  0  0  0  0  0
    4.2970    1.6690   20.8430 C   0  0  0  0  0  0  0  0  0  0  0  0
    4.0980    2.1130   19.5350 C   0  0  0  0  0  0  0  0  0  0  0  0
    4.9400    1.7060   18.5060 C   0  0  0  0  0  0  0  0  0  0  0  0
    8.9510    0.1280   21.6880 C   0  0  0  0  0  0  0  0  0  0  0  0
    9.2618   -4.9724   25.8910 C   0  0  0  0  0  0  0  0  0  0  0  0
   10.0220    1.0430   23.6570 C   0  0  0  0  0  0  0  0  0  0  0  0
    9.4200   -0.0840   22.9530 C   0  0  2  0  0  0  0  0  0  0  0  0
    7.6830   -0.5170   18.7600 N   0  0  0  0  0  0  0  0  0  0  0  0
    6.9440    0.2550   18.0100 N   0  0  0  0  0  0  0  0  0  0  0  0
    5.9810    0.8330   18.8060 N   0  0  0  0  0  0  0  0  0  0  0  0
    8.0810   -0.9750   21.0820 N   0  0  0  0  0  0  0  0  0  0  0  0
    9.1870    1.1500   21.0630 O   0  0  0  0  0  0  0  0  0  0  0  0
   12.3919    0.2913   26.8348 S   0  0  0  0  0  0  0  0  0  0  0  0
    7.5655   -2.8644   26.1055 H   0  0  0  0  0  0  0  0  0  0  0  0
   11.0125   -4.2662   23.9435 H   0  0  0  0  0  0  0  0  0  0  0  0
    7.5953   -0.7782   24.7971 H   0  0  0  0  0  0  0  0  0  0  0  0
   11.0394   -2.1837   22.6349 H   0  0  0  0  0  0  0  0  0  0  0  0
   12.4311   -0.5526   23.3237 H   0  0  0  0  0  0  0  0  0  0  0  0
   13.9260   -1.0015   25.4400 H   0  0  0  0  0  0  0  0  0  0  0  0
   10.3108    1.5268   26.5170 H   0  0  0  0  0  0  0  0  0  0  0  0
    5.4735    0.4758   22.1644 H   0  0  0  0  0  0  0  0  0  0  0  0
    3.6415    1.9967   21.6408 H   0  0  0  0  0  0  0  0  0  0  0  0
    3.2720    2.7926   19.2921 H   0  0  0  0  0  0  0  0  0  0  0  0
    4.8119    2.0418   17.5005 H   0  0  0  0  0  0  0  0  0  0  0  0
    8.6408   -5.7227   25.3864 H   0  0  0  0  0  0  0  0  0  0  0  0
   10.2726   -5.3829   26.0135 H   0  0  0  0  0  0  0  0  0  0  0  0
    8.8606   -4.8102   26.9000 H   0  0  0  0  0  0  0  0  0  0  0  0
    9.2602    1.6432   24.1714 H   0  0  0  0  0  0  0  0  0  0  0  0
   10.4960    1.7269   22.9392 H   0  0  0  0  0  0  0  0  0  0  0  0
   10.7346   -0.4307   22.4468 H   0  0  0  0  0  0  0  0  0  0  0  0
    8.1159   -1.8115   21.3524 H   0  0  0  0  0  0  0  0  0  0  0  0
  1  3  2  0  0  0  0
  1  8  1  0  0  0  0
  2  4  1  0  0  0  0
  2  8  2  0  0  0  0
  3  9  1  0  0  0  0
  4  9  2  0  0  0  0
  5  6  2  0  0  0  0
  5 10  1  0  0  0  0
  6 26  1  0  0  0  0
  7 10  2  0  0  0  0
  7 26  1  0  0  0  0
  8 18  1  0  0  0  0
  9 20  1  0  0  0  0
 10 19  1  0  0  0  0
 11 12  2  0  0  0  0
 11 13  1  0  0  0  0
 11 23  1  0  0  0  0
 12 21  1  0  0  0  0
 12 24  1  0  0  0  0
 13 14  2  0  0  0  0
 14 15  1  0  0  0  0
 15 16  2  0  0  0  0
 16 23  1  0  0  0  0
 17 20  1  0  0  0  0
 17 24  1  0  0  0  0
 17 25  2  0  0  0  0
 19 20  1  6  0  0  0
 21 22  2  0  0  0  0
 22 23  1  0  0  0  0
  1 27  1  0  0  0  0
  2 28  1  0  0  0  0
  3 29  1  0  0  0  0
  4 30  1  0  0  0  0
  5 31  1  0  0  0  0
  6 32  1  0  0  0  0
  7 33  1  0  0  0  0
 13 34  1  0  0  0  0
 14 35  1  0  0  0  0
 15 36  1  0  0  0  0
 16 37  1  0  0  0  0
 18 38  1  0  0  0  0
 18 39  1  0  0  0  0
 18 40  1  0  0  0  0
 19 41  1  0  0  0  0
 19 42  1  0  0  0  0
 20 43  1  0  0  0  0
 24 44  1  0  0  0  0
M  END
> <clash_score>
0.6203237185571544

> <docking_score>
-7.080524444580078

> <overlap_score>
0.8551725745201111

$$$$
BENZO_264_1
  -OEChem-08222022403D

 44 47  0     1  0  0  0  0  0999 V2000
    8.3310   -2.7170   25.3430 C   0  0  0  0  0  0  0  0  0  0  0  0
   10.2570   -3.5000   24.1350 C   0  0  0  0  0  0  0  0  0  0  0  0
    8.3510   -1.5420   24.6110 C   0  0  0  0  0  0  0  0  0  0  0  0
   10.2760   -2.3270   23.4020 C   0  0  0  0  0  0  0  0  0  0  0  0
   12.2216    2.3786   23.3498 C   0  0  0  0  0  0  0  0  0  0  0  0
   13.5684    2.1883   23.1319 C   0  0  0  0  0  0  0  0  0  0  0  0
   12.3438    0.0592   23.2626 C   0  0  0  0  0  0  0  0  0  0  0  0
    9.2850   -3.7090   25.1090 C   0  0  0  0  0  0  0  0  0  0  0  0
    9.3300   -1.3350   23.6390 C   0  0  0  0  0  0  0  0  0  0  0  0
   11.5121    1.1453   23.4257 C   0  0  0  0  0  0  0  0  0  0  0  0
    6.1600    0.3870   20.1140 C   0  0  0  0  0  0  0  0  0  0  0  0
    7.2210   -0.4620   20.0350 C   0  0  0  0  0  0  0  0  0  0  0  0
    5.3360    0.8000   21.1530 C   0  0  0  0  0  0  0  0  0  0  0  0
    4.2970    1.6690   20.8430 C   0  0  0  0  0  0  0  0  0  0  0  0
    4.0980    2.1130   19.5350 C   0  0  0  0  0  0  0  0  0  0  0  0
    4.9400    1.7060   18.5060 C   0  0  0  0  0  0  0  0  0  0  0  0
    8.9510    0.1280   21.6880 C   0  0  0  0  0  0  0  0  0  0  0  0
    9.2618   -4.9724   25.8910 C   0  0  0  0  0  0  0  0  0  0  0  0
   10.0220    1.0430   23.6570 C   0  0  0  0  0  0  0  0  0  0  0  0
    9.4200   -0.0840   22.9530 C   0  0  1  0  0  0  0  0  0  0  0  0
    7.6830   -0.5170   18.7600 N   0  0  0  0  0  0  0  0  0  0  0  0
    6.9440    0.2550   18.0100 N   0  0  0  0  0  0  0  0  0  0  0  0
    5.9810    0.8330   18.8060 N   0  0  0  0  0  0  0  0  0  0  0  0
    8.0810   -0.9750   21.0820 N   0  0  0  0  0  0  0  0  0  0  0  0
    9.1870    1.1500   21.0630 O   0  0  0  0  0  0  0  0  0  0  0  0
   13.9727    0.5281   23.0196 S   0  0  0  0  0  0  0  0  0  0  0  0
    7.5655   -2.8644   26.1055 H   0  0  0  0  0  0  0  0  0  0  0  0
   11.0125   -4.2662   23.9435 H   0  0  0  0  0  0  0  0  0  0  0  0
    7.5953   -0.7782   24.7971 H   0  0  0  0  0  0  0  0  0  0  0  0
   11.0394   -2.1837   22.6349 H   0  0  0  0  0  0  0  0  0  0  0  0
   11.7708    3.3580   23.4491 H   0  0  0  0  0  0  0  0  0  0  0  0
   14.3341    2.9446   23.0326 H   0  0  0  0  0  0  0  0  0  0  0  0
   12.0768   -0.9885   23.2727 H   0  0  0  0  0  0  0  0  0  0  0  0
    5.4735    0.4758   22.1644 H   0  0  0  0  0  0  0  0  0  0  0  0
    3.6415    1.9967   21.6408 H   0  0  0  0  0  0  0  0  0  0  0  0
    3.2720    2.7926   19.2921 H   0  0  0  0  0  0  0  0  0  0  0  0
    4.8119    2.0418   17.5005 H   0  0  0  0  0  0  0  0  0  0  0  0
    8.6408   -5.7227   25.3864 H   0  0  0  0  0  0  0  0  0  0  0  0
   10.2726   -5.3829   26.0135 H   0  0  0  0  0  0  0  0  0  0  0  0
    8.8606   -4.8102   26.9000 H   0  0  0  0  0  0  0  0  0  0  0  0
    9.8253    0.9889   24.7357 H   0  0  0  0  0  0  0  0  0  0  0  0
    9.5635    1.9845   23.3241 H   0  0  0  0  0  0  0  0  0  0  0  0
    8.1288    0.3205   23.5156 H   0  0  0  0  0  0  0  0  0  0  0  0
    8.1159   -1.8115   21.3524 H   0  0  0  0  0  0  0  0  0  0  0  0
  1  3  2  0  0  0  0
  1  8  1  0  0  0  0
  2  4  1  0  0  0  0
  2  8  2  0  0  0  0
  3  9  1  0  0  0  0
  4  9  2  0  0  0  0
  5  6  2  0  0  0  0
  5 10  1  0  0  0  0
  6 26  1  0  0  0  0
  7 10  2  0  0  0  0
  7 26  1  0  0  0  0
  8 18  1  0  0  0  0
  9 20  1  0  0  0  0
 10 19  1  0  0  0  0
 11 12  2  0  0  0  0
 11 13  1  0  0  0  0
 11 23  1  0  0  0  0
 12 21  1  0  0  0  0
 12 24  1  0  0  0  0
 13 14  2  0  0  0  0
 14 15  1  0  0  0  0
 15 16  2  0  0  0  0
 16 23  1  0  0  0  0
 17 20  1  0  0  0  0
 17 24  1  0  0  0  0
 17 25  2  0  0  0  0
 19 20  1  1  0  0  0
 21 22  2  0  0  0  0
 22 23  1  0  0  0  0
  1 27  1  0  0  0  0
  2 28  1  0  0  0  0
  3 29  1  0  0  0  0
  4 30  1  0  0  0  0
  5 31  1  0  0  0  0
  6 32  1  0  0  0  0
  7 33  1  0  0  0  0
 13 34  1  0  0  0  0
 14 35  1  0  0  0  0
 15 36  1  0  0  0  0
 16 37  1  0  0  0  0
 18 38  1  0  0  0  0
 18 39  1  0  0  0  0
 18 40  1  0  0  0  0
 19 41  1  0  0  0  0
 19 42  1  0  0  0  0
 20 43  1  0  0  0  0
 24 44  1  0  0  0  0
M  END
> <clash_score>
0

> <docking_score>
-9.925670623779297

> <overlap_score>
0.9693054556846619

$$$$
BENZO_263_2
  -OEChem-08222022403D

 59 63  0     1  0  0  0  0  0999 V2000
    8.3510   -1.5420   24.6110 C   0  0  0  0  0  0  0  0  0  0  0  0
   10.2760   -2.3270   23.4020 C   0  0  0  0  0  0  0  0  0  0  0  0
    8.3310   -2.7170   25.3430 C   0  0  0  0  0  0  0  0  0  0  0  0
   10.2570   -3.5000   24.1350 C   0  0  0  0  0  0  0  0  0  0  0  0
   12.6370    0.8478   23.6905 C   0  0  0  0  0  0  0  0  0  0  0  0
   11.6104    0.2289   25.5338 C   0  0  0  0  0  0  0  0  0  0  0  0
    9.3300   -1.3350   23.6390 C   0  0  0  0  0  0  0  0  0  0  0  0
   11.3626    0.7172   24.2742 C   0  0  0  0  0  0  0  0  0  0  0  0
    9.2850   -3.7090   25.1090 C   0  0  0  0  0  0  0  0  0  0  0  0
    6.1600    0.3870   20.1140 C   0  0  0  0  0  0  0  0  0  0  0  0
    7.2210   -0.4620   20.0350 C   0  0  0  0  0  0  0  0  0  0  0  0
    5.3360    0.8000   21.1530 C   0  0  0  0  0  0  0  0  0  0  0  0
    4.2970    1.6690   20.8430 C   0  0  0  0  0  0  0  0  0  0  0  0
    4.0980    2.1130   19.5350 C   0  0  0  0  0  0  0  0  0  0  0  0
    4.9400    1.7060   18.5060 C   0  0  0  0  0  0  0  0  0  0  0  0
    8.9510    0.1280   21.6880 C   0  0  0  0  0  0  0  0  0  0  0  0
    7.3211   -6.8875   26.5227 C   0  0  0  0  0  0  0  0  0  0  0  0
    7.3523   -5.5278   27.2244 C   0  0  0  0  0  0  0  0  0  0  0  0
    7.9422   -6.8107   25.1261 C   0  0  0  0  0  0  0  0  0  0  0  0
    8.7641   -4.9418   27.2163 C   0  0  0  0  0  0  0  0  0  0  0  0
    9.3411   -6.1879   25.1670 C   0  0  0  0  0  0  0  0  0  0  0  0
   13.7059   -0.3763   26.7673 C   0  0  0  0  0  0  0  0  0  0  0  0
   10.0220    1.0430   23.6570 C   0  0  0  0  0  0  0  0  0  0  0  0
    9.4200   -0.0840   22.9530 C   0  0  2  0  0  0  0  0  0  0  0  0
   13.6213    0.4729   24.5118 N   0  0  0  0  0  0  0  0  0  0  0  0
    7.6830   -0.5170   18.7600 N   0  0  0  0  0  0  0  0  0  0  0  0
    6.9440    0.2550   18.0100 N   0  0  0  0  0  0  0  0  0  0  0  0
   12.9653    0.1020   25.6246 N   0  0  0  0  0  0  0  0  0  0  0  0
    5.9810    0.8330   18.8060 N   0  0  0  0  0  0  0  0  0  0  0  0
    9.2641   -4.8861   25.8398 N   0  0  0  0  0  0  0  0  0  0  0  0
    8.0810   -0.9750   21.0820 N   0  0  0  0  0  0  0  0  0  0  0  0
    9.1870    1.1500   21.0630 O   0  0  0  0  0  0  0  0  0  0  0  0
    7.5957   -0.7779   24.7973 H   0  0  0  0  0  0  0  0  0  0  0  0
   11.0384   -2.1852   22.6338 H   0  0  0  0  0  0  0  0  0  0  0  0
    7.5634   -2.8637   26.1037 H   0  0  0  0  0  0  0  0  0  0  0  0
   11.0139   -4.2645   23.9419 H   0  0  0  0  0  0  0  0  0  0  0  0
   12.8920    1.2011   22.7014 H   0  0  0  0  0  0  0  0  0  0  0  0
   10.9544   -0.0314   26.3534 H   0  0  0  0  0  0  0  0  0  0  0  0
    5.4735    0.4758   22.1644 H   0  0  0  0  0  0  0  0  0  0  0  0
    3.6415    1.9967   21.6408 H   0  0  0  0  0  0  0  0  0  0  0  0
    3.2720    2.7926   19.2920 H   0  0  0  0  0  0  0  0  0  0  0  0
    4.8119    2.0418   17.5005 H   0  0  0  0  0  0  0  0  0  0  0  0
    7.8644   -7.6283   27.1289 H   0  0  0  0  0  0  0  0  0  0  0  0
    6.2830   -7.2423   26.4478 H   0  0  0  0  0  0  0  0  0  0  0  0
    6.6663   -4.8405   26.7221 H   0  0  0  0  0  0  0  0  0  0  0  0
    7.0062   -5.6400   28.2540 H   0  0  0  0  0  0  0  0  0  0  0  0
    8.0018   -7.8160   24.6962 H   0  0  0  0  0  0  0  0  0  0  0  0
    7.2963   -6.2182   24.4678 H   0  0  0  0  0  0  0  0  0  0  0  0
    8.7322   -3.9404   27.6532 H   0  0  0  0  0  0  0  0  0  0  0  0
    9.4260   -5.5610   27.8283 H   0  0  0  0  0  0  0  0  0  0  0  0
   10.0249   -6.8474   25.7028 H   0  0  0  0  0  0  0  0  0  0  0  0
    9.7015   -6.0700   24.1446 H   0  0  0  0  0  0  0  0  0  0  0  0
   13.8123   -1.4600   26.6708 H   0  0  0  0  0  0  0  0  0  0  0  0
   14.6882    0.1037   26.7915 H   0  0  0  0  0  0  0  0  0  0  0  0
   13.1616   -0.1244   27.6818 H   0  0  0  0  0  0  0  0  0  0  0  0
    9.3482    1.4259   24.4346 H   0  0  0  0  0  0  0  0  0  0  0  0
   10.1663    1.8792   22.9588 H   0  0  0  0  0  0  0  0  0  0  0  0
   10.7366   -0.4277   22.4442 H   0  0  0  0  0  0  0  0  0  0  0  0
    8.1354   -1.7990   21.3694 H   0  0  0  0  0  0  0  0  0  0  0  0
  1  3  2  0  0  0  0
  1  7  1  0  0  0  0
  2  4  1  0  0  0  0
  2  7  2  0  0  0  0
  3  9  1  0  0  0  0
  4  9  2  0  0  0  0
  5  8  1  0  0  0  0
  5 25  2  0  0  0  0
  6  8  2  0  0  0  0
  6 28  1  0  0  0  0
  7 24  1  0  0  0  0
  8 23  1  0  0  0  0
  9 30  1  0  0  0  0
 10 11  2  0  0  0  0
 10 12  1  0  0  0  0
 10 29  1  0  0  0  0
 11 26  1  0  0  0  0
 11 31  1  0  0  0  0
 12 13  2  0  0  0  0
 13 14  1  0  0  0  0
 14 15  2  0  0  0  0
 15 29  1  0  0  0  0
 16 24  1  0  0  0  0
 16 31  1  0  0  0  0
 16 32  2  0  0  0  0
 17 18  1  0  0  0  0
 17 19  1  0  0  0  0
 18 20  1  0  0  0  0
 19 21  1  0  0  0  0
 20 30  1  0  0  0  0
 21 30  1  0  0  0  0
 22 28  1  0  0  0  0
 23 24  1  6  0  0  0
 25 28  1  0  0  0  0
 26 27  2  0  0  0  0
 27 29  1  0  0  0  0
  1 33  1  0  0  0  0
  2 34  1  0  0  0  0
  3 35  1  0  0  0  0
  4 36  1  0  0  0  0
  5 37  1  0  0  0  0
  6 38  1  0  0  0  0
 12 39  1  0  0  0  0
 13 40  1  0  0  0  0
 14 41  1  0  0  0  0
 15 42  1  0  0  0  0
 17 43  1  0  0  0  0
 17 44  1  0  0  0  0
 18 45  1  0  0  0  0
 18 46  1  0  0  0  0
 19 47  1  0  0  0  0
 19 48  1  0  0  0  0
 20 49  1  0  0  0  0
 20 50  1  0  0  0  0
 21 51  1  0  0  0  0
 21 52  1  0  0  0  0
 22 53  1  0  0  0  0
 22 54  1  0  0  0  0
 22 55  1  0  0  0  0
 23 56  1  0  0  0  0
 23 57  1  0  0  0  0
 24 58  1  0  0  0  0
 31 59  1  0  0  0  0
M  END
> <clash_score>
0.7348697102430726

> <docking_score>
-6.962137699127197

> <overlap_score>
0.9397954344749451

$$$$
BENZO_262_2
  -OEChem-08222022403D

 59 63  0     1  0  0  0  0  0999 V2000
   13.7717    0.6100   24.1003 C   0  0  0  0  0  0  0  0  0  0  0  0
   12.3953    0.5053   24.3009 C   0  0  0  0  0  0  0  0  0  0  0  0
    8.3510   -1.5420   24.6110 C   0  0  0  0  0  0  0  0  0  0  0  0
   10.2760   -2.3270   23.4020 C   0  0  0  0  0  0  0  0  0  0  0  0
    8.3310   -2.7170   25.3430 C   0  0  0  0  0  0  0  0  0  0  0  0
   10.2570   -3.5000   24.1350 C   0  0  0  0  0  0  0  0  0  0  0  0
   14.2661    1.3676   23.0385 C   0  0  0  0  0  0  0  0  0  0  0  0
   12.0077    1.9155   22.3779 C   0  0  0  0  0  0  0  0  0  0  0  0
    9.3300   -1.3350   23.6390 C   0  0  0  0  0  0  0  0  0  0  0  0
   11.5133    1.1580   23.4397 C   0  0  0  0  0  0  0  0  0  0  0  0
    9.2850   -3.7090   25.1090 C   0  0  0  0  0  0  0  0  0  0  0  0
   13.3841    2.0203   22.1773 C   0  0  0  0  0  0  0  0  0  0  0  0
    6.1600    0.3870   20.1140 C   0  0  0  0  0  0  0  0  0  0  0  0
    7.2210   -0.4620   20.0350 C   0  0  0  0  0  0  0  0  0  0  0  0
    5.3360    0.8000   21.1530 C   0  0  0  0  0  0  0  0  0  0  0  0
    4.2970    1.6690   20.8430 C   0  0  0  0  0  0  0  0  0  0  0  0
    4.0980    2.1130   19.5350 C   0  0  0  0  0  0  0  0  0  0  0  0
    4.9400    1.7060   18.5060 C   0  0  0  0  0  0  0  0  0  0  0  0
    8.9510    0.1280   21.6880 C   0  0  0  0  0  0  0  0  0  0  0  0
    7.3211   -6.8875   26.5227 C   0  0  0  0  0  0  0  0  0  0  0  0
    7.3523   -5.5278   27.2244 C   0  0  0  0  0  0  0  0  0  0  0  0
    7.9422   -6.8107   25.1261 C   0  0  0  0  0  0  0  0  0  0  0  0
    8.7641   -4.9418   27.2163 C   0  0  0  0  0  0  0  0  0  0  0  0
    9.3411   -6.1879   25.1670 C   0  0  0  0  0  0  0  0  0  0  0  0
   10.0220    1.0430   23.6570 C   0  0  0  0  0  0  0  0  0  0  0  0
    9.4200   -0.0840   22.9530 C   0  0  2  0  0  0  0  0  0  0  0  0
    7.6830   -0.5170   18.7600 N   0  0  0  0  0  0  0  0  0  0  0  0
    6.9440    0.2550   18.0100 N   0  0  0  0  0  0  0  0  0  0  0  0
    5.9810    0.8330   18.8060 N   0  0  0  0  0  0  0  0  0  0  0  0
    9.2641   -4.8861   25.8398 N   0  0  0  0  0  0  0  0  0  0  0  0
    8.0810   -0.9750   21.0820 N   0  0  0  0  0  0  0  0  0  0  0  0
    9.1870    1.1500   21.0630 O   0  0  0  0  0  0  0  0  0  0  0  0
   13.9946    2.9539   20.8668 Cl  0  0  0  0  0  0  0  0  0  0  0  0
   14.4581    0.1015   24.7710 H   0  0  0  0  0  0  0  0  0  0  0  0
   12.0190   -0.0873   25.1307 H   0  0  0  0  0  0  0  0  0  0  0  0
    7.5957   -0.7779   24.7973 H   0  0  0  0  0  0  0  0  0  0  0  0
   11.0384   -2.1852   22.6338 H   0  0  0  0  0  0  0  0  0  0  0  0
    7.5634   -2.8637   26.1037 H   0  0  0  0  0  0  0  0  0  0  0  0
   11.0139   -4.2645   23.9419 H   0  0  0  0  0  0  0  0  0  0  0  0
   15.3412    1.4401   22.8941 H   0  0  0  0  0  0  0  0  0  0  0  0
   11.3159    2.4230   21.7095 H   0  0  0  0  0  0  0  0  0  0  0  0
    5.4735    0.4758   22.1644 H   0  0  0  0  0  0  0  0  0  0  0  0
    3.6415    1.9967   21.6408 H   0  0  0  0  0  0  0  0  0  0  0  0
    3.2720    2.7926   19.2921 H   0  0  0  0  0  0  0  0  0  0  0  0
    4.8119    2.0418   17.5005 H   0  0  0  0  0  0  0  0  0  0  0  0
    7.8644   -7.6283   27.1289 H   0  0  0  0  0  0  0  0  0  0  0  0
    6.2830   -7.2423   26.4478 H   0  0  0  0  0  0  0  0  0  0  0  0
    6.6663   -4.8405   26.7221 H   0  0  0  0  0  0  0  0  0  0  0  0
    7.0062   -5.6400   28.2540 H   0  0  0  0  0  0  0  0  0  0  0  0
    8.0018   -7.8160   24.6962 H   0  0  0  0  0  0  0  0  0  0  0  0
    7.2963   -6.2182   24.4678 H   0  0  0  0  0  0  0  0  0  0  0  0
    8.7322   -3.9404   27.6532 H   0  0  0  0  0  0  0  0  0  0  0  0
    9.4260   -5.5610   27.8283 H   0  0  0  0  0  0  0  0  0  0  0  0
   10.0249   -6.8474   25.7028 H   0  0  0  0  0  0  0  0  0  0  0  0
    9.7015   -6.0700   24.1446 H   0  0  0  0  0  0  0  0  0  0  0  0
    9.8155    0.9894   24.7339 H   0  0  0  0  0  0  0  0  0  0  0  0
    9.5584    1.9798   23.3178 H   0  0  0  0  0  0  0  0  0  0  0  0
    8.1278    0.3254   23.5142 H   0  0  0  0  0  0  0  0  0  0  0  0
    8.1354   -1.7990   21.3694 H   0  0  0  0  0  0  0  0  0  0  0  0
  1  2  2  0  0  0  0
  1  7  1  0  0  0  0
  2 10  1  0  0  0  0
  3  5  2  0  0  0  0
  3  9  1  0  0  0  0
  4  6  1  0  0  0  0
  4  9  2  0  0  0  0
  5 11  1  0  0  0  0
  6 11  2  0  0  0  0
  7 12  2  0  0  0  0
  8 10  2  0  0  0  0
  8 12  1  0  0  0  0
  9 26  1  0  0  0  0
 10 25  1  0  0  0  0
 11 30  1  0  0  0  0
 12 33  1  0  0  0  0
 13 14  2  0  0  0  0
 13 15  1  0  0  0  0
 13 29  1  0  0  0  0
 14 27  1  0  0  0  0
 14 31  1  0  0  0  0
 15 16  2  0  0  0  0
 16 17  1  0  0  0  0
 17 18  2  0  0  0  0
 18 29  1  0  0  0  0
 19 26  1  6  0  0  0
 19 31  1  0  0  0  0
 19 32  2  0  0  0  0
 20 21  1  0  0  0  0
 20 22  1  0  0  0  0
 21 23  1  0  0  0  0
 22 24  1  0  0  0  0
 23 30  1  0  0  0  0
 24 30  1  0  0  0  0
 25 26  1  0  0  0  0
 27 28  2  0  0  0  0
 28 29  1  0  0  0  0
  1 34  1  0  0  0  0
  2 35  1  0  0  0  0
  3 36  1  0  0  0  0
  4 37  1  0  0  0  0
  5 38  1  0  0  0  0
  6 39  1  0  0  0  0
  7 40  1  0  0  0  0
  8 41  1  0  0  0  0
 15 42  1  0  0  0  0
 16 43  1  0  0  0  0
 17 44  1  0  0  0  0
 18 45  1  0  0  0  0
 20 46  1  0  0  0  0
 20 47  1  0  0  0  0
 21 48  1  0  0  0  0
 21 49  1  0  0  0  0
 22 50  1  0  0  0  0
 22 51  1  0  0  0  0
 23 52  1  0  0  0  0
 23 53  1  0  0  0  0
 24 54  1  0  0  0  0
 24 55  1  0  0  0  0
 25 56  1  0  0  0  0
 25 57  1  0  0  0  0
 26 58  1  0  0  0  0
 31 59  1  0  0  0  0
M  END
> <clash_score>
0

> <docking_score>
-7.217966079711914

> <overlap_score>
1.0287415981292725

$$$$
BENZO_263_1
  -OEChem-08222022403D

 59 63  0     1  0  0  0  0  0999 V2000
    8.3510   -1.5420   24.6110 C   0  0  0  0  0  0  0  0  0  0  0  0
   10.2760   -2.3270   23.4020 C   0  0  0  0  0  0  0  0  0  0  0  0
    8.3310   -2.7170   25.3430 C   0  0  0  0  0  0  0  0  0  0  0  0
   10.2570   -3.5000   24.1350 C   0  0  0  0  0  0  0  0  0  0  0  0
   12.2990    2.3261   23.4416 C   0  0  0  0  0  0  0  0  0  0  0  0
   12.4071    0.1434   23.1984 C   0  0  0  0  0  0  0  0  0  0  0  0
    9.3300   -1.3350   23.6390 C   0  0  0  0  0  0  0  0  0  0  0  0
   11.5133    1.1580   23.4397 C   0  0  0  0  0  0  0  0  0  0  0  0
    9.2850   -3.7090   25.1090 C   0  0  0  0  0  0  0  0  0  0  0  0
    6.1600    0.3870   20.1140 C   0  0  0  0  0  0  0  0  0  0  0  0
    7.2210   -0.4620   20.0350 C   0  0  0  0  0  0  0  0  0  0  0  0
    5.3360    0.8000   21.1530 C   0  0  0  0  0  0  0  0  0  0  0  0
    4.2970    1.6690   20.8430 C   0  0  0  0  0  0  0  0  0  0  0  0
    4.0980    2.1130   19.5350 C   0  0  0  0  0  0  0  0  0  0  0  0
    4.9400    1.7060   18.5060 C   0  0  0  0  0  0  0  0  0  0  0  0
    8.9510    0.1280   21.6880 C   0  0  0  0  0  0  0  0  0  0  0  0
    7.3211   -6.8875   26.5227 C   0  0  0  0  0  0  0  0  0  0  0  0
    7.3523   -5.5278   27.2244 C   0  0  0  0  0  0  0  0  0  0  0  0
    7.9422   -6.8107   25.1261 C   0  0  0  0  0  0  0  0  0  0  0  0
    8.7641   -4.9418   27.2163 C   0  0  0  0  0  0  0  0  0  0  0  0
    9.3411   -6.1879   25.1670 C   0  0  0  0  0  0  0  0  0  0  0  0
   14.8827    0.0809   22.8160 C   0  0  0  0  0  0  0  0  0  0  0  0
   10.0220    1.0430   23.6570 C   0  0  0  0  0  0  0  0  0  0  0  0
    9.4200   -0.0840   22.9530 C   0  0  1  0  0  0  0  0  0  0  0  0
   13.5924    2.0779   23.2193 N   0  0  0  0  0  0  0  0  0  0  0  0
    7.6830   -0.5170   18.7600 N   0  0  0  0  0  0  0  0  0  0  0  0
    6.9440    0.2550   18.0100 N   0  0  0  0  0  0  0  0  0  0  0  0
   13.6264    0.7422   23.0755 N   0  0  0  0  0  0  0  0  0  0  0  0
    5.9810    0.8330   18.8060 N   0  0  0  0  0  0  0  0  0  0  0  0
    9.2641   -4.8861   25.8398 N   0  0  0  0  0  0  0  0  0  0  0  0
    8.0810   -0.9750   21.0820 N   0  0  0  0  0  0  0  0  0  0  0  0
    9.1870    1.1500   21.0630 O   0  0  0  0  0  0  0  0  0  0  0  0
    7.5957   -0.7779   24.7973 H   0  0  0  0  0  0  0  0  0  0  0  0
   11.0384   -2.1852   22.6338 H   0  0  0  0  0  0  0  0  0  0  0  0
    7.5634   -2.8637   26.1037 H   0  0  0  0  0  0  0  0  0  0  0  0
   11.0139   -4.2645   23.9419 H   0  0  0  0  0  0  0  0  0  0  0  0
   11.9854    3.3488   23.5963 H   0  0  0  0  0  0  0  0  0  0  0  0
   12.2827   -0.9271   23.1072 H   0  0  0  0  0  0  0  0  0  0  0  0
    5.4735    0.4758   22.1644 H   0  0  0  0  0  0  0  0  0  0  0  0
    3.6415    1.9967   21.6408 H   0  0  0  0  0  0  0  0  0  0  0  0
    3.2720    2.7926   19.2921 H   0  0  0  0  0  0  0  0  0  0  0  0
    4.8119    2.0418   17.5005 H   0  0  0  0  0  0  0  0  0  0  0  0
    7.8644   -7.6283   27.1289 H   0  0  0  0  0  0  0  0  0  0  0  0
    6.2830   -7.2423   26.4478 H   0  0  0  0  0  0  0  0  0  0  0  0
    6.6663   -4.8405   26.7221 H   0  0  0  0  0  0  0  0  0  0  0  0
    7.0062   -5.6400   28.2540 H   0  0  0  0  0  0  0  0  0  0  0  0
    8.0018   -7.8160   24.6962 H   0  0  0  0  0  0  0  0  0  0  0  0
    7.2963   -6.2182   24.4678 H   0  0  0  0  0  0  0  0  0  0  0  0
    8.7322   -3.9404   27.6532 H   0  0  0  0  0  0  0  0  0  0  0  0
    9.4260   -5.5610   27.8283 H   0  0  0  0  0  0  0  0  0  0  0  0
   10.0249   -6.8474   25.7028 H   0  0  0  0  0  0  0  0  0  0  0  0
    9.7015   -6.0700   24.1446 H   0  0  0  0  0  0  0  0  0  0  0  0
   15.0211    0.0327   21.7327 H   0  0  0  0  0  0  0  0  0  0  0  0
   15.6949    0.6471   23.2804 H   0  0  0  0  0  0  0  0  0  0  0  0
   14.8569   -0.9250   23.2444 H   0  0  0  0  0  0  0  0  0  0  0  0
    9.8155    0.9894   24.7339 H   0  0  0  0  0  0  0  0  0  0  0  0
    9.5584    1.9798   23.3178 H   0  0  0  0  0  0  0  0  0  0  0  0
    8.1278    0.3254   23.5142 H   0  0  0  0  0  0  0  0  0  0  0  0
    8.1354   -1.7990   21.3694 H   0  0  0  0  0  0  0  0  0  0  0  0
  1  3  2  0  0  0  0
  1  7  1  0  0  0  0
  2  4  1  0  0  0  0
  2  7  2  0  0  0  0
  3  9  1  0  0  0  0
  4  9  2  0  0  0  0
  5  8  1  0  0  0  0
  5 25  2  0  0  0  0
  6  8  2  0  0  0  0
  6 28  1  0  0  0  0
  7 24  1  0  0  0  0
  8 23  1  0  0  0  0
  9 30  1  0  0  0  0
 10 11  2  0  0  0  0
 10 12  1  0  0  0  0
 10 29  1  0  0  0  0
 11 26  1  0  0  0  0
 11 31  1  0  0  0  0
 12 13  2  0  0  0  0
 13 14  1  0  0  0  0
 14 15  2  0  0  0  0
 15 29  1  0  0  0  0
 16 24  1  0  0  0  0
 16 31  1  0  0  0  0
 16 32  2  0  0  0  0
 17 18  1  0  0  0  0
 17 19  1  0  0  0  0
 18 20  1  0  0  0  0
 19 21  1  0  0  0  0
 20 30  1  0  0  0  0
 21 30  1  0  0  0  0
 22 28  1  0  0  0  0
 23 24  1  1  0  0  0
 25 28  1  0  0  0  0
 26 27  2  0  0  0  0
 27 29  1  0  0  0  0
  1 33  1  0  0  0  0
  2 34  1  0  0  0  0
  3 35  1  0  0  0  0
  4 36  1  0  0  0  0
  5 37  1  0  0  0  0
  6 38  1  0  0  0  0
 12 39  1  0  0  0  0
 13 40  1  0  0  0  0
 14 41  1  0  0  0  0
 15 42  1  0  0  0  0
 17 43  1  0  0  0  0
 17 44  1  0  0  0  0
 18 45  1  0  0  0  0
 18 46  1  0  0  0  0
 19 47  1  0  0  0  0
 19 48  1  0  0  0  0
 20 49  1  0  0  0  0
 20 50  1  0  0  0  0
 21 51  1  0  0  0  0
 21 52  1  0  0  0  0
 22 53  1  0  0  0  0
 22 54  1  0  0  0  0
 22 55  1  0  0  0  0
 23 56  1  0  0  0  0
 23 57  1  0  0  0  0
 24 58  1  0  0  0  0
 31 59  1  0  0  0  0
M  END
> <clash_score>
0

> <docking_score>
-8.761069297790527

> <overlap_score>
1.0275722742080688

$$$$
BENZO_262_1
  -OEChem-08222022403D

 59 63  0     1  0  0  0  0  0999 V2000
   13.7706    0.6102   24.1095 C   0  0  0  0  0  0  0  0  0  0  0  0
   12.5330    0.9096   23.5401 C   0  0  0  0  0  0  0  0  0  0  0  0
    8.3510   -1.5420   24.6110 C   0  0  0  0  0  0  0  0  0  0  0  0
   10.2760   -2.3270   23.4020 C   0  0  0  0  0  0  0  0  0  0  0  0
    8.3310   -2.7170   25.3430 C   0  0  0  0  0  0  0  0  0  0  0  0
   10.2570   -3.5000   24.1350 C   0  0  0  0  0  0  0  0  0  0  0  0
   13.8379    0.1183   25.4130 C   0  0  0  0  0  0  0  0  0  0  0  0
   11.4299    0.2253   25.5778 C   0  0  0  0  0  0  0  0  0  0  0  0
    9.3300   -1.3350   23.6390 C   0  0  0  0  0  0  0  0  0  0  0  0
   11.3626    0.7172   24.2742 C   0  0  0  0  0  0  0  0  0  0  0  0
    9.2850   -3.7090   25.1090 C   0  0  0  0  0  0  0  0  0  0  0  0
   12.6676   -0.0742   26.1471 C   0  0  0  0  0  0  0  0  0  0  0  0
    6.1600    0.3870   20.1140 C   0  0  0  0  0  0  0  0  0  0  0  0
    7.2210   -0.4620   20.0350 C   0  0  0  0  0  0  0  0  0  0  0  0
    5.3360    0.8000   21.1530 C   0  0  0  0  0  0  0  0  0  0  0  0
    4.2970    1.6690   20.8430 C   0  0  0  0  0  0  0  0  0  0  0  0
    4.0980    2.1130   19.5350 C   0  0  0  0  0  0  0  0  0  0  0  0
    4.9400    1.7060   18.5060 C   0  0  0  0  0  0  0  0  0  0  0  0
    8.9510    0.1280   21.6880 C   0  0  0  0  0  0  0  0  0  0  0  0
    7.3211   -6.8875   26.5227 C   0  0  0  0  0  0  0  0  0  0  0  0
    7.3523   -5.5278   27.2244 C   0  0  0  0  0  0  0  0  0  0  0  0
    7.9422   -6.8107   25.1261 C   0  0  0  0  0  0  0  0  0  0  0  0
    8.7641   -4.9418   27.2163 C   0  0  0  0  0  0  0  0  0  0  0  0
    9.3411   -6.1879   25.1670 C   0  0  0  0  0  0  0  0  0  0  0  0
   10.0220    1.0430   23.6570 C   0  0  0  0  0  0  0  0  0  0  0  0
    9.4200   -0.0840   22.9530 C   0  0  1  0  0  0  0  0  0  0  0  0
    7.6830   -0.5170   18.7600 N   0  0  0  0  0  0  0  0  0  0  0  0
    6.9440    0.2550   18.0100 N   0  0  0  0  0  0  0  0  0  0  0  0
    5.9810    0.8330   18.8060 N   0  0  0  0  0  0  0  0  0  0  0  0
    9.2641   -4.8861   25.8398 N   0  0  0  0  0  0  0  0  0  0  0  0
    8.0810   -0.9750   21.0820 N   0  0  0  0  0  0  0  0  0  0  0  0
    9.1870    1.1500   21.0630 O   0  0  0  0  0  0  0  0  0  0  0  0
   12.7514   -0.6800   27.7558 Cl  0  0  0  0  0  0  0  0  0  0  0  0
   14.6817    0.7603   23.5375 H   0  0  0  0  0  0  0  0  0  0  0  0
   12.4900    1.2926   22.5238 H   0  0  0  0  0  0  0  0  0  0  0  0
    7.5957   -0.7779   24.7973 H   0  0  0  0  0  0  0  0  0  0  0  0
   11.0384   -2.1852   22.6338 H   0  0  0  0  0  0  0  0  0  0  0  0
    7.5634   -2.8637   26.1037 H   0  0  0  0  0  0  0  0  0  0  0  0
   11.0139   -4.2645   23.9419 H   0  0  0  0  0  0  0  0  0  0  0  0
   14.8095   -0.1105   25.8440 H   0  0  0  0  0  0  0  0  0  0  0  0
   10.5146    0.0765   26.1458 H   0  0  0  0  0  0  0  0  0  0  0  0
    5.4735    0.4758   22.1644 H   0  0  0  0  0  0  0  0  0  0  0  0
    3.6415    1.9967   21.6408 H   0  0  0  0  0  0  0  0  0  0  0  0
    3.2720    2.7926   19.2920 H   0  0  0  0  0  0  0  0  0  0  0  0
    4.8119    2.0418   17.5005 H   0  0  0  0  0  0  0  0  0  0  0  0
    7.8644   -7.6283   27.1289 H   0  0  0  0  0  0  0  0  0  0  0  0
    6.2830   -7.2423   26.4478 H   0  0  0  0  0  0  0  0  0  0  0  0
    6.6663   -4.8405   26.7221 H   0  0  0  0  0  0  0  0  0  0  0  0
    7.0062   -5.6400   28.2540 H   0  0  0  0  0  0  0  0  0  0  0  0
    8.0018   -7.8160   24.6962 H   0  0  0  0  0  0  0  0  0  0  0  0
    7.2963   -6.2182   24.4678 H   0  0  0  0  0  0  0  0  0  0  0  0
    8.7322   -3.9404   27.6532 H   0  0  0  0  0  0  0  0  0  0  0  0
    9.4260   -5.5610   27.8283 H   0  0  0  0  0  0  0  0  0  0  0  0
   10.0249   -6.8474   25.7028 H   0  0  0  0  0  0  0  0  0  0  0  0
    9.7015   -6.0700   24.1446 H   0  0  0  0  0  0  0  0  0  0  0  0
    9.3482    1.4259   24.4346 H   0  0  0  0  0  0  0  0  0  0  0  0
   10.1663    1.8792   22.9588 H   0  0  0  0  0  0  0  0  0  0  0  0
   10.7366   -0.4277   22.4442 H   0  0  0  0  0  0  0  0  0  0  0  0
    8.1354   -1.7990   21.3694 H   0  0  0  0  0  0  0  0  0  0  0  0
  1  2  2  0  0  0  0
  1  7  1  0  0  0  0
  2 10  1  0  0  0  0
  3  5  2  0  0  0  0
  3  9  1  0  0  0  0
  4  6  1  0  0  0  0
  4  9  2  0  0  0  0
  5 11  1  0  0  0  0
  6 11  2  0  0  0  0
  7 12  2  0  0  0  0
  8 10  2  0  0  0  0
  8 12  1  0  0  0  0
  9 26  1  0  0  0  0
 10 25  1  0  0  0  0
 11 30  1  0  0  0  0
 12 33  1  0  0  0  0
 13 14  2  0  0  0  0
 13 15  1  0  0  0  0
 13 29  1  0  0  0  0
 14 27  1  0  0  0  0
 14 31  1  0  0  0  0
 15 16  2  0  0  0  0
 16 17  1  0  0  0  0
 17 18  2  0  0  0  0
 18 29  1  0  0  0  0
 19 26  1  1  0  0  0
 19 31  1  0  0  0  0
 19 32  2  0  0  0  0
 20 21  1  0  0  0  0
 20 22  1  0  0  0  0
 21 23  1  0  0  0  0
 22 24  1  0  0  0  0
 23 30  1  0  0  0  0
 24 30  1  0  0  0  0
 25 26  1  0  0  0  0
 27 28  2  0  0  0  0
 28 29  1  0  0  0  0
  1 34  1  0  0  0  0
  2 35  1  0  0  0  0
  3 36  1  0  0  0  0
  4 37  1  0  0  0  0
  5 38  1  0  0  0  0
  6 39  1  0  0  0  0
  7 40  1  0  0  0  0
  8 41  1  0  0  0  0
 15 42  1  0  0  0  0
 16 43  1  0  0  0  0
 17 44  1  0  0  0  0
 18 45  1  0  0  0  0
 20 46  1  0  0  0  0
 20 47  1  0  0  0  0
 21 48  1  0  0  0  0
 21 49  1  0  0  0  0
 22 50  1  0  0  0  0
 22 51  1  0  0  0  0
 23 52  1  0  0  0  0
 23 53  1  0  0  0  0
 24 54  1  0  0  0  0
 24 55  1  0  0  0  0
 25 56  1  0  0  0  0
 25 57  1  0  0  0  0
 26 58  1  0  0  0  0
 31 59  1  0  0  0  0
M  END
> <clash_score>
1.5650085706569739

> <docking_score>
-6.199522495269775

> <overlap_score>
0.9471225738525391

$$$$
BENZO_267_1
  -OEChem-08222022403D

 47 50  0     1  0  0  0  0  0999 V2000
    8.3310   -2.7170   25.3430 C   0  0  0  0  0  0  0  0  0  0  0  0
   10.2570   -3.5000   24.1350 C   0  0  0  0  0  0  0  0  0  0  0  0
    8.3510   -1.5420   24.6110 C   0  0  0  0  0  0  0  0  0  0  0  0
   10.2760   -2.3270   23.4020 C   0  0  0  0  0  0  0  0  0  0  0  0
   12.3075    2.3068   23.4193 C   0  0  0  0  0  0  0  0  0  0  0  0
   12.3951    0.1231   23.1769 C   0  0  0  0  0  0  0  0  0  0  0  0
    9.2850   -3.7090   25.1090 C   0  0  0  0  0  0  0  0  0  0  0  0
    9.3300   -1.3350   23.6390 C   0  0  0  0  0  0  0  0  0  0  0  0
   11.5121    1.1453   23.4257 C   0  0  0  0  0  0  0  0  0  0  0  0
    6.1600    0.3870   20.1140 C   0  0  0  0  0  0  0  0  0  0  0  0
    7.2210   -0.4620   20.0350 C   0  0  0  0  0  0  0  0  0  0  0  0
    5.3360    0.8000   21.1530 C   0  0  0  0  0  0  0  0  0  0  0  0
    4.2970    1.6690   20.8430 C   0  0  0  0  0  0  0  0  0  0  0  0
    4.0980    2.1130   19.5350 C   0  0  0  0  0  0  0  0  0  0  0  0
    4.9400    1.7060   18.5060 C   0  0  0  0  0  0  0  0  0  0  0  0
    8.9510    0.1280   21.6880 C   0  0  0  0  0  0  0  0  0  0  0  0
    9.2618   -4.9724   25.8910 C   0  0  0  0  0  0  0  0  0  0  0  0
   14.8664    0.0395   22.7716 C   0  0  0  0  0  0  0  0  0  0  0  0
   10.0220    1.0430   23.6570 C   0  0  0  0  0  0  0  0  0  0  0  0
    9.4200   -0.0840   22.9530 C   0  0  1  0  0  0  0  0  0  0  0  0
   13.5967    2.0476   23.1851 N   0  0  0  0  0  0  0  0  0  0  0  0
    7.6830   -0.5170   18.7600 N   0  0  0  0  0  0  0  0  0  0  0  0
    6.9440    0.2550   18.0100 N   0  0  0  0  0  0  0  0  0  0  0  0
   13.6181    0.7115   23.0422 N   0  0  0  0  0  0  0  0  0  0  0  0
    5.9810    0.8330   18.8060 N   0  0  0  0  0  0  0  0  0  0  0  0
    8.0810   -0.9750   21.0820 N   0  0  0  0  0  0  0  0  0  0  0  0
    9.1870    1.1500   21.0630 O   0  0  0  0  0  0  0  0  0  0  0  0
    7.5655   -2.8644   26.1055 H   0  0  0  0  0  0  0  0  0  0  0  0
   11.0125   -4.2662   23.9435 H   0  0  0  0  0  0  0  0  0  0  0  0
    7.5953   -0.7782   24.7971 H   0  0  0  0  0  0  0  0  0  0  0  0
   11.0394   -2.1837   22.6349 H   0  0  0  0  0  0  0  0  0  0  0  0
   12.0040    3.3322   23.5761 H   0  0  0  0  0  0  0  0  0  0  0  0
   12.2609   -0.9465   23.0878 H   0  0  0  0  0  0  0  0  0  0  0  0
    5.4735    0.4758   22.1644 H   0  0  0  0  0  0  0  0  0  0  0  0
    3.6415    1.9967   21.6408 H   0  0  0  0  0  0  0  0  0  0  0  0
    3.2720    2.7926   19.2921 H   0  0  0  0  0  0  0  0  0  0  0  0
    4.8119    2.0418   17.5005 H   0  0  0  0  0  0  0  0  0  0  0  0
    8.6408   -5.7227   25.3864 H   0  0  0  0  0  0  0  0  0  0  0  0
   10.2726   -5.3829   26.0135 H   0  0  0  0  0  0  0  0  0  0  0  0
    8.8606   -4.8102   26.9000 H   0  0  0  0  0  0  0  0  0  0  0  0
   14.9942   -0.0107   21.6871 H   0  0  0  0  0  0  0  0  0  0  0  0
   15.6877    0.5992   23.2278 H   0  0  0  0  0  0  0  0  0  0  0  0
   14.8362   -0.9658   23.2010 H   0  0  0  0  0  0  0  0  0  0  0  0
    9.8253    0.9889   24.7357 H   0  0  0  0  0  0  0  0  0  0  0  0
    9.5635    1.9845   23.3241 H   0  0  0  0  0  0  0  0  0  0  0  0
    8.1288    0.3205   23.5156 H   0  0  0  0  0  0  0  0  0  0  0  0
    8.1159   -1.8115   21.3524 H   0  0  0  0  0  0  0  0  0  0  0  0
  1  3  2  0  0  0  0
  1  7  1  0  0  0  0
  2  4  1  0  0  0  0
  2  7  2  0  0  0  0
  3  8  1  0  0  0  0
  4  8  2  0  0  0  0
  5  9  1  0  0  0  0
  5 21  2  0  0  0  0
  6  9  2  0  0  0  0
  6 24  1  0  0  0  0
  7 17  1  0  0  0  0
  8 20  1  0  0  0  0
  9 19  1  0  0  0  0
 10 11  2  0  0  0  0
 10 12  1  0  0  0  0
 10 25  1  0  0  0  0
 11 22  1  0  0  0  0
 11 26  1  0  0  0  0
 12 13  2  0  0  0  0
 13 14  1  0  0  0  0
 14 15  2  0  0  0  0
 15 25  1  0  0  0  0
 16 20  1  0  0  0  0
 16 26  1  0  0  0  0
 16 27  2  0  0  0  0
 18 24  1  0  0  0  0
 19 20  1  1  0  0  0
 21 24  1  0  0  0  0
 22 23  2  0  0  0  0
 23 25  1  0  0  0  0
  1 28  1  0  0  0  0
  2 29  1  0  0  0  0
  3 30  1  0  0  0  0
  4 31  1  0  0  0  0
  5 32  1  0  0  0  0
  6 33  1  0  0  0  0
 12 34  1  0  0  0  0
 13 35  1  0  0  0  0
 14 36  1  0  0  0  0
 15 37  1  0  0  0  0
 17 38  1  0  0  0  0
 17 39  1  0  0  0  0
 17 40  1  0  0  0  0
 18 41  1  0  0  0  0
 18 42  1  0  0  0  0
 18 43  1  0  0  0  0
 19 44  1  0  0  0  0
 19 45  1  0  0  0  0
 20 46  1  0  0  0  0
 26 47  1  0  0  0  0
M  END
> <clash_score>
0

> <docking_score>
-9.798646926879883

> <overlap_score>
0.9840735197067261

$$$$
BENZO_267_2
  -OEChem-08222022403D

 47 50  0     1  0  0  0  0  0999 V2000
    8.3310   -2.7170   25.3430 C   0  0  0  0  0  0  0  0  0  0  0  0
   10.2570   -3.5000   24.1350 C   0  0  0  0  0  0  0  0  0  0  0  0
    8.3510   -1.5420   24.6110 C   0  0  0  0  0  0  0  0  0  0  0  0
   10.2760   -2.3270   23.4020 C   0  0  0  0  0  0  0  0  0  0  0  0
   10.9173    2.8198   21.9486 C   0  0  0  0  0  0  0  0  0  0  0  0
   12.4283    1.4668   22.7978 C   0  0  0  0  0  0  0  0  0  0  0  0
    9.2850   -3.7090   25.1090 C   0  0  0  0  0  0  0  0  0  0  0  0
    9.3300   -1.3350   23.6390 C   0  0  0  0  0  0  0  0  0  0  0  0
   11.0832    1.7414   22.8382 C   0  0  0  0  0  0  0  0  0  0  0  0
    6.1600    0.3870   20.1140 C   0  0  0  0  0  0  0  0  0  0  0  0
    7.2210   -0.4620   20.0350 C   0  0  0  0  0  0  0  0  0  0  0  0
    5.3360    0.8000   21.1530 C   0  0  0  0  0  0  0  0  0  0  0  0
    4.2970    1.6690   20.8430 C   0  0  0  0  0  0  0  0  0  0  0  0
    4.0980    2.1130   19.5350 C   0  0  0  0  0  0  0  0  0  0  0  0
    4.9400    1.7060   18.5060 C   0  0  0  0  0  0  0  0  0  0  0  0
    8.9510    0.1280   21.6880 C   0  0  0  0  0  0  0  0  0  0  0  0
    9.2618   -4.9724   25.8910 C   0  0  0  0  0  0  0  0  0  0  0  0
   14.3557    2.4668   21.5472 C   0  0  0  0  0  0  0  0  0  0  0  0
   10.0220    1.0430   23.6570 C   0  0  0  0  0  0  0  0  0  0  0  0
    9.4200   -0.0840   22.9530 C   0  0  2  0  0  0  0  0  0  0  0  0
   12.0654    3.2042   21.3845 N   0  0  0  0  0  0  0  0  0  0  0  0
    7.6830   -0.5170   18.7600 N   0  0  0  0  0  0  0  0  0  0  0  0
    6.9440    0.2550   18.0100 N   0  0  0  0  0  0  0  0  0  0  0  0
   12.9656    2.3627   21.9209 N   0  0  0  0  0  0  0  0  0  0  0  0
    5.9810    0.8330   18.8060 N   0  0  0  0  0  0  0  0  0  0  0  0
    8.0810   -0.9750   21.0820 N   0  0  0  0  0  0  0  0  0  0  0  0
    9.1870    1.1500   21.0630 O   0  0  0  0  0  0  0  0  0  0  0  0
    7.5655   -2.8644   26.1055 H   0  0  0  0  0  0  0  0  0  0  0  0
   11.0125   -4.2662   23.9435 H   0  0  0  0  0  0  0  0  0  0  0  0
    7.5953   -0.7782   24.7971 H   0  0  0  0  0  0  0  0  0  0  0  0
   11.0394   -2.1837   22.6349 H   0  0  0  0  0  0  0  0  0  0  0  0
   10.0090    3.3439   21.6870 H   0  0  0  0  0  0  0  0  0  0  0  0
   13.0342    0.7293   23.3067 H   0  0  0  0  0  0  0  0  0  0  0  0
    5.4735    0.4758   22.1644 H   0  0  0  0  0  0  0  0  0  0  0  0
    3.6415    1.9967   21.6408 H   0  0  0  0  0  0  0  0  0  0  0  0
    3.2720    2.7926   19.2921 H   0  0  0  0  0  0  0  0  0  0  0  0
    4.8119    2.0418   17.5005 H   0  0  0  0  0  0  0  0  0  0  0  0
    8.6408   -5.7227   25.3864 H   0  0  0  0  0  0  0  0  0  0  0  0
   10.2726   -5.3829   26.0135 H   0  0  0  0  0  0  0  0  0  0  0  0
    8.8606   -4.8102   26.9000 H   0  0  0  0  0  0  0  0  0  0  0  0
   14.5208    1.8230   20.6793 H   0  0  0  0  0  0  0  0  0  0  0  0
   14.5900    3.5065   21.3020 H   0  0  0  0  0  0  0  0  0  0  0  0
   14.9803    2.1472   22.3860 H   0  0  0  0  0  0  0  0  0  0  0  0
   10.4530    0.7282   24.6164 H   0  0  0  0  0  0  0  0  0  0  0  0
    9.2514    1.7835   23.9128 H   0  0  0  0  0  0  0  0  0  0  0  0
   10.7346   -0.4307   22.4468 H   0  0  0  0  0  0  0  0  0  0  0  0
    8.1159   -1.8115   21.3524 H   0  0  0  0  0  0  0  0  0  0  0  0
  1  3  2  0  0  0  0
  1  7  1  0  0  0  0
  2  4  1  0  0  0  0
  2  7  2  0  0  0  0
  3  8  1  0  0  0  0
  4  8  2  0  0  0  0
  5  9  1  0  0  0  0
  5 21  2  0  0  0  0
  6  9  2  0  0  0  0
  6 24  1  0  0  0  0
  7 17  1  0  0  0  0
  8 20  1  0  0  0  0
  9 19  1  0  0  0  0
 10 11  2  0  0  0  0
 10 12  1  0  0  0  0
 10 25  1  0  0  0  0
 11 22  1  0  0  0  0
 11 26  1  0  0  0  0
 12 13  2  0  0  0  0
 13 14  1  0  0  0  0
 14 15  2  0  0  0  0
 15 25  1  0  0  0  0
 16 20  1  0  0  0  0
 16 26  1  0  0  0  0
 16 27  2  0  0  0  0
 18 24  1  0  0  0  0
 19 20  1  6  0  0  0
 21 24  1  0  0  0  0
 22 23  2  0  0  0  0
 23 25  1  0  0  0  0
  1 28  1  0  0  0  0
  2 29  1  0  0  0  0
  3 30  1  0  0  0  0
  4 31  1  0  0  0  0
  5 32  1  0  0  0  0
  6 33  1  0  0  0  0
 12 34  1  0  0  0  0
 13 35  1  0  0  0  0
 14 36  1  0  0  0  0
 15 37  1  0  0  0  0
 17 38  1  0  0  0  0
 17 39  1  0  0  0  0
 17 40  1  0  0  0  0
 18 41  1  0  0  0  0
 18 42  1  0  0  0  0
 18 43  1  0  0  0  0
 19 44  1  0  0  0  0
 19 45  1  0  0  0  0
 20 46  1  0  0  0  0
 26 47  1  0  0  0  0
M  END
> <clash_score>
0

> <docking_score>
-7.761769771575928

> <overlap_score>
0.9399561285972595

$$$$
BENZO_266_1
  -OEChem-08222022403D

 47 50  0     1  0  0  0  0  0999 V2000
   13.7719    0.5789   24.0657 C   0  0  0  0  0  0  0  0  0  0  0  0
   12.3966    0.4859   24.2792 C   0  0  0  0  0  0  0  0  0  0  0  0
    8.3310   -2.7170   25.3430 C   0  0  0  0  0  0  0  0  0  0  0  0
   10.2570   -3.5000   24.1350 C   0  0  0  0  0  0  0  0  0  0  0  0
    8.3510   -1.5420   24.6110 C   0  0  0  0  0  0  0  0  0  0  0  0
   10.2760   -2.3270   23.4020 C   0  0  0  0  0  0  0  0  0  0  0  0
   14.2627    1.3315   22.9987 C   0  0  0  0  0  0  0  0  0  0  0  0
   12.0029    1.8978   22.3587 C   0  0  0  0  0  0  0  0  0  0  0  0
    9.2850   -3.7090   25.1090 C   0  0  0  0  0  0  0  0  0  0  0  0
    9.3300   -1.3350   23.6390 C   0  0  0  0  0  0  0  0  0  0  0  0
   11.5121    1.1453   23.4257 C   0  0  0  0  0  0  0  0  0  0  0  0
   13.3782    1.9909   22.1452 C   0  0  0  0  0  0  0  0  0  0  0  0
    6.1600    0.3870   20.1140 C   0  0  0  0  0  0  0  0  0  0  0  0
    7.2210   -0.4620   20.0350 C   0  0  0  0  0  0  0  0  0  0  0  0
    5.3360    0.8000   21.1530 C   0  0  0  0  0  0  0  0  0  0  0  0
    4.2970    1.6690   20.8430 C   0  0  0  0  0  0  0  0  0  0  0  0
    4.0980    2.1130   19.5350 C   0  0  0  0  0  0  0  0  0  0  0  0
    4.9400    1.7060   18.5060 C   0  0  0  0  0  0  0  0  0  0  0  0
    8.9510    0.1280   21.6880 C   0  0  0  0  0  0  0  0  0  0  0  0
    9.2618   -4.9724   25.8910 C   0  0  0  0  0  0  0  0  0  0  0  0
   10.0220    1.0430   23.6570 C   0  0  0  0  0  0  0  0  0  0  0  0
    9.4200   -0.0840   22.9530 C   0  0  1  0  0  0  0  0  0  0  0  0
    7.6830   -0.5170   18.7600 N   0  0  0  0  0  0  0  0  0  0  0  0
    6.9440    0.2550   18.0100 N   0  0  0  0  0  0  0  0  0  0  0  0
    5.9810    0.8330   18.8060 N   0  0  0  0  0  0  0  0  0  0  0  0
    8.0810   -0.9750   21.0820 N   0  0  0  0  0  0  0  0  0  0  0  0
    9.1870    1.1500   21.0630 O   0  0  0  0  0  0  0  0  0  0  0  0
   13.9842    2.9183   20.8282 Cl  0  0  0  0  0  0  0  0  0  0  0  0
   14.4603    0.0652   24.7304 H   0  0  0  0  0  0  0  0  0  0  0  0
   12.0231   -0.1028   25.1130 H   0  0  0  0  0  0  0  0  0  0  0  0
    7.5655   -2.8644   26.1055 H   0  0  0  0  0  0  0  0  0  0  0  0
   11.0125   -4.2662   23.9435 H   0  0  0  0  0  0  0  0  0  0  0  0
    7.5953   -0.7782   24.7971 H   0  0  0  0  0  0  0  0  0  0  0  0
   11.0394   -2.1837   22.6349 H   0  0  0  0  0  0  0  0  0  0  0  0
   15.3370    1.3949   22.8442 H   0  0  0  0  0  0  0  0  0  0  0  0
   11.3092    2.4105   21.6963 H   0  0  0  0  0  0  0  0  0  0  0  0
    5.4735    0.4758   22.1644 H   0  0  0  0  0  0  0  0  0  0  0  0
    3.6415    1.9967   21.6408 H   0  0  0  0  0  0  0  0  0  0  0  0
    3.2720    2.7926   19.2921 H   0  0  0  0  0  0  0  0  0  0  0  0
    4.8119    2.0418   17.5005 H   0  0  0  0  0  0  0  0  0  0  0  0
    8.6408   -5.7227   25.3864 H   0  0  0  0  0  0  0  0  0  0  0  0
   10.2726   -5.3829   26.0135 H   0  0  0  0  0  0  0  0  0  0  0  0
    8.8606   -4.8102   26.9000 H   0  0  0  0  0  0  0  0  0  0  0  0
    9.8253    0.9889   24.7357 H   0  0  0  0  0  0  0  0  0  0  0  0
    9.5635    1.9845   23.3241 H   0  0  0  0  0  0  0  0  0  0  0  0
    8.1288    0.3205   23.5156 H   0  0  0  0  0  0  0  0  0  0  0  0
    8.1159   -1.8115   21.3524 H   0  0  0  0  0  0  0  0  0  0  0  0
  1  2  2  0  0  0  0
  1  7  1  0  0  0  0
  2 11  1  0  0  0  0
  3  5  2  0  0  0  0
  3  9  1  0  0  0  0
  4  6  1  0  0  0  0
  4  9  2  0  0  0  0
  5 10  1  0  0  0  0
  6 10  2  0  0  0  0
  7 12  2  0  0  0  0
  8 11  2  0  0  0  0
  8 12  1  0  0  0  0
  9 20  1  0  0  0  0
 10 22  1  0  0  0  0
 11 21  1  0  0  0  0
 12 28  1  0  0  0  0
 13 14  2  0  0  0  0
 13 15  1  0  0  0  0
 13 25  1  0  0  0  0
 14 23  1  0  0  0  0
 14 26  1  0  0  0  0
 15 16  2  0  0  0  0
 16 17  1  0  0  0  0
 17 18  2  0  0  0  0
 18 25  1  0  0  0  0
 19 22  1  0  0  0  0
 19 26  1  0  0  0  0
 19 27  2  0  0  0  0
 21 22  1  1  0  0  0
 23 24  2  0  0  0  0
 24 25  1  0  0  0  0
  1 29  1  0  0  0  0
  2 30  1  0  0  0  0
  3 31  1  0  0  0  0
  4 32  1  0  0  0  0
  5 33  1  0  0  0  0
  6 34  1  0  0  0  0
  7 35  1  0  0  0  0
  8 36  1  0  0  0  0
 15 37  1  0  0  0  0
 16 38  1  0  0  0  0
 17 39  1  0  0  0  0
 18 40  1  0  0  0  0
 20 41  1  0  0  0  0
 20 42  1  0  0  0  0
 20 43  1  0  0  0  0
 21 44  1  0  0  0  0
 21 45  1  0  0  0  0
 22 46  1  0  0  0  0
 26 47  1  0  0  0  0
M  END
> <clash_score>
0

> <docking_score>
-8.170373916625977

> <overlap_score>
0.9851459860801697

$$$$
BENZO_266_2
  -OEChem-08222022403D

 47 50  0     1  0  0  0  0  0999 V2000
   12.6560   -0.1194   26.1378 C   0  0  0  0  0  0  0  0  0  0  0  0
   11.4219    0.1994   25.5714 C   0  0  0  0  0  0  0  0  0  0  0  0
    8.3310   -2.7170   25.3430 C   0  0  0  0  0  0  0  0  0  0  0  0
   10.2570   -3.5000   24.1350 C   0  0  0  0  0  0  0  0  0  0  0  0
    8.3510   -1.5420   24.6110 C   0  0  0  0  0  0  0  0  0  0  0  0
   10.2760   -2.3270   23.4020 C   0  0  0  0  0  0  0  0  0  0  0  0
   13.8281    0.0614   25.4035 C   0  0  0  0  0  0  0  0  0  0  0  0
   12.5318    0.8798   23.5362 C   0  0  0  0  0  0  0  0  0  0  0  0
    9.2850   -3.7090   25.1090 C   0  0  0  0  0  0  0  0  0  0  0  0
    9.3300   -1.3350   23.6390 C   0  0  0  0  0  0  0  0  0  0  0  0
   11.3598    0.6989   24.2706 C   0  0  0  0  0  0  0  0  0  0  0  0
   13.7660    0.5610   24.1026 C   0  0  0  0  0  0  0  0  0  0  0  0
    6.1600    0.3870   20.1140 C   0  0  0  0  0  0  0  0  0  0  0  0
    7.2210   -0.4620   20.0350 C   0  0  0  0  0  0  0  0  0  0  0  0
    5.3360    0.8000   21.1530 C   0  0  0  0  0  0  0  0  0  0  0  0
    4.2970    1.6690   20.8430 C   0  0  0  0  0  0  0  0  0  0  0  0
    4.0980    2.1130   19.5350 C   0  0  0  0  0  0  0  0  0  0  0  0
    4.9400    1.7060   18.5060 C   0  0  0  0  0  0  0  0  0  0  0  0
    8.9510    0.1280   21.6880 C   0  0  0  0  0  0  0  0  0  0  0  0
    9.2618   -4.9724   25.8910 C   0  0  0  0  0  0  0  0  0  0  0  0
   10.0220    1.0430   23.6570 C   0  0  0  0  0  0  0  0  0  0  0  0
    9.4200   -0.0840   22.9530 C   0  0  2  0  0  0  0  0  0  0  0  0
    7.6830   -0.5170   18.7600 N   0  0  0  0  0  0  0  0  0  0  0  0
    6.9440    0.2550   18.0100 N   0  0  0  0  0  0  0  0  0  0  0  0
    5.9810    0.8330   18.8060 N   0  0  0  0  0  0  0  0  0  0  0  0
    8.0810   -0.9750   21.0820 N   0  0  0  0  0  0  0  0  0  0  0  0
    9.1870    1.1500   21.0630 O   0  0  0  0  0  0  0  0  0  0  0  0
   15.2122    0.7829   23.1967 Cl  0  0  0  0  0  0  0  0  0  0  0  0
   12.7039   -0.5086   27.1508 H   0  0  0  0  0  0  0  0  0  0  0  0
   10.5137    0.0551   26.1509 H   0  0  0  0  0  0  0  0  0  0  0  0
    7.5655   -2.8644   26.1055 H   0  0  0  0  0  0  0  0  0  0  0  0
   11.0125   -4.2662   23.9435 H   0  0  0  0  0  0  0  0  0  0  0  0
    7.5953   -0.7782   24.7971 H   0  0  0  0  0  0  0  0  0  0  0  0
   11.0394   -2.1837   22.6349 H   0  0  0  0  0  0  0  0  0  0  0  0
   14.7829   -0.1916   25.8577 H   0  0  0  0  0  0  0  0  0  0  0  0
   12.4781    1.2701   22.5225 H   0  0  0  0  0  0  0  0  0  0  0  0
    5.4735    0.4758   22.1644 H   0  0  0  0  0  0  0  0  0  0  0  0
    3.6415    1.9967   21.6408 H   0  0  0  0  0  0  0  0  0  0  0  0
    3.2720    2.7926   19.2921 H   0  0  0  0  0  0  0  0  0  0  0  0
    4.8119    2.0418   17.5005 H   0  0  0  0  0  0  0  0  0  0  0  0
    8.6408   -5.7227   25.3864 H   0  0  0  0  0  0  0  0  0  0  0  0
   10.2726   -5.3829   26.0135 H   0  0  0  0  0  0  0  0  0  0  0  0
    8.8606   -4.8102   26.9000 H   0  0  0  0  0  0  0  0  0  0  0  0
    9.3529    1.4272   24.4380 H   0  0  0  0  0  0  0  0  0  0  0  0
   10.1743    1.8827   22.9648 H   0  0  0  0  0  0  0  0  0  0  0  0
   10.7346   -0.4307   22.4468 H   0  0  0  0  0  0  0  0  0  0  0  0
    8.1159   -1.8115   21.3524 H   0  0  0  0  0  0  0  0  0  0  0  0
  1  2  2  0  0  0  0
  1  7  1  0  0  0  0
  2 11  1  0  0  0  0
  3  5  2  0  0  0  0
  3  9  1  0  0  0  0
  4  6  1  0  0  0  0
  4  9  2  0  0  0  0
  5 10  1  0  0  0  0
  6 10  2  0  0  0  0
  7 12  2  0  0  0  0
  8 11  2  0  0  0  0
  8 12  1  0  0  0  0
  9 20  1  0  0  0  0
 10 22  1  0  0  0  0
 11 21  1  0  0  0  0
 12 28  1  0  0  0  0
 13 14  2  0  0  0  0
 13 15  1  0  0  0  0
 13 25  1  0  0  0  0
 14 23  1  0  0  0  0
 14 26  1  0  0  0  0
 15 16  2  0  0  0  0
 16 17  1  0  0  0  0
 17 18  2  0  0  0  0
 18 25  1  0  0  0  0
 19 22  1  0  0  0  0
 19 26  1  0  0  0  0
 19 27  2  0  0  0  0
 21 22  1  6  0  0  0
 23 24  2  0  0  0  0
 24 25  1  0  0  0  0
  1 29  1  0  0  0  0
  2 30  1  0  0  0  0
  3 31  1  0  0  0  0
  4 32  1  0  0  0  0
  5 33  1  0  0  0  0
  6 34  1  0  0  0  0
  7 35  1  0  0  0  0
  8 36  1  0  0  0  0
 15 37  1  0  0  0  0
 16 38  1  0  0  0  0
 17 39  1  0  0  0  0
 18 40  1  0  0  0  0
 20 41  1  0  0  0  0
 20 42  1  0  0  0  0
 20 43  1  0  0  0  0
 21 44  1  0  0  0  0
 21 45  1  0  0  0  0
 22 46  1  0  0  0  0
 26 47  1  0  0  0  0
M  END
> <clash_score>
0.6070842632629044

> <docking_score>
-7.164447784423828

> <overlap_score>
0.9131936430931091

$$$$
BENZO_269_1
  -OEChem-08222022403D

 48 51  0     1  0  0  0  0  0999 V2000
   14.2623    1.3345   22.9975 C   0  0  0  0  0  0  0  0  0  0  0  0
   13.7729    0.5817   24.0649 C   0  0  0  0  0  0  0  0  0  0  0  0
   13.3767    1.9928   22.1442 C   0  0  0  0  0  0  0  0  0  0  0  0
   12.3978    0.4871   24.2790 C   0  0  0  0  0  0  0  0  0  0  0  0
   12.0016    1.8982   22.3583 C   0  0  0  0  0  0  0  0  0  0  0  0
    8.3510   -1.5420   24.6110 C   0  0  0  0  0  0  0  0  0  0  0  0
   10.2760   -2.3270   23.4020 C   0  0  0  0  0  0  0  0  0  0  0  0
    8.3310   -2.7170   25.3430 C   0  0  0  0  0  0  0  0  0  0  0  0
   10.2570   -3.5000   24.1350 C   0  0  0  0  0  0  0  0  0  0  0  0
   11.5121    1.1453   23.4257 C   0  0  0  0  0  0  0  0  0  0  0  0
    9.3300   -1.3350   23.6390 C   0  0  0  0  0  0  0  0  0  0  0  0
    9.2850   -3.7090   25.1090 C   0  0  0  0  0  0  0  0  0  0  0  0
    6.1600    0.3870   20.1140 C   0  0  0  0  0  0  0  0  0  0  0  0
    7.2210   -0.4620   20.0350 C   0  0  0  0  0  0  0  0  0  0  0  0
    5.3360    0.8000   21.1530 C   0  0  0  0  0  0  0  0  0  0  0  0
    4.2970    1.6690   20.8430 C   0  0  0  0  0  0  0  0  0  0  0  0
    4.0980    2.1130   19.5350 C   0  0  0  0  0  0  0  0  0  0  0  0
    4.9400    1.7060   18.5060 C   0  0  0  0  0  0  0  0  0  0  0  0
    8.9510    0.1280   21.6880 C   0  0  0  0  0  0  0  0  0  0  0  0
    8.2358   -4.9960   26.8042 C   0  0  0  0  0  0  0  0  0  0  0  0
   10.0220    1.0430   23.6570 C   0  0  0  0  0  0  0  0  0  0  0  0
    9.4200   -0.0840   22.9530 C   0  0  1  0  0  0  0  0  0  0  0  0
    7.6830   -0.5170   18.7600 N   0  0  0  0  0  0  0  0  0  0  0  0
    6.9440    0.2550   18.0100 N   0  0  0  0  0  0  0  0  0  0  0  0
    5.9810    0.8330   18.8060 N   0  0  0  0  0  0  0  0  0  0  0  0
    8.0810   -0.9750   21.0820 N   0  0  0  0  0  0  0  0  0  0  0  0
    9.1870    1.1500   21.0630 O   0  0  0  0  0  0  0  0  0  0  0  0
    9.2637   -4.8607   25.8240 O   0  0  0  0  0  0  0  0  0  0  0  0
   15.3331    1.4092   22.8317 H   0  0  0  0  0  0  0  0  0  0  0  0
   14.4623    0.0700   24.7300 H   0  0  0  0  0  0  0  0  0  0  0  0
   13.7574    2.5799   21.3138 H   0  0  0  0  0  0  0  0  0  0  0  0
   12.0255   -0.1019   25.1131 H   0  0  0  0  0  0  0  0  0  0  0  0
   11.3191    2.4143   21.6883 H   0  0  0  0  0  0  0  0  0  0  0  0
    7.5962   -0.7776   24.7981 H   0  0  0  0  0  0  0  0  0  0  0  0
   11.0395   -2.1844   22.6346 H   0  0  0  0  0  0  0  0  0  0  0  0
    7.5664   -2.8672   26.1058 H   0  0  0  0  0  0  0  0  0  0  0  0
   11.0120   -4.2666   23.9463 H   0  0  0  0  0  0  0  0  0  0  0  0
    5.4735    0.4758   22.1644 H   0  0  0  0  0  0  0  0  0  0  0  0
    3.6415    1.9967   21.6408 H   0  0  0  0  0  0  0  0  0  0  0  0
    3.2720    2.7926   19.2921 H   0  0  0  0  0  0  0  0  0  0  0  0
    4.8119    2.0418   17.5005 H   0  0  0  0  0  0  0  0  0  0  0  0
    8.3326   -5.9631   27.3037 H   0  0  0  0  0  0  0  0  0  0  0  0
    7.2583   -4.9195   26.3214 H   0  0  0  0  0  0  0  0  0  0  0  0
    8.3396   -4.1959   27.5410 H   0  0  0  0  0  0  0  0  0  0  0  0
    9.8253    0.9889   24.7357 H   0  0  0  0  0  0  0  0  0  0  0  0
    9.5635    1.9845   23.3241 H   0  0  0  0  0  0  0  0  0  0  0  0
    8.1288    0.3205   23.5156 H   0  0  0  0  0  0  0  0  0  0  0  0
    8.1159   -1.8115   21.3524 H   0  0  0  0  0  0  0  0  0  0  0  0
  1  2  1  0  0  0  0
  1  3  2  0  0  0  0
  2  4  2  0  0  0  0
  3  5  1  0  0  0  0
  4 10  1  0  0  0  0
  5 10  2  0  0  0  0
  6  8  2  0  0  0  0
  6 11  1  0  0  0  0
  7  9  1  0  0  0  0
  7 11  2  0  0  0  0
  8 12  1  0  0  0  0
  9 12  2  0  0  0  0
 10 21  1  0  0  0  0
 11 22  1  0  0  0  0
 12 28  1  0  0  0  0
 13 14  2  0  0  0  0
 13 15  1  0  0  0  0
 13 25  1  0  0  0  0
 14 23  1  0  0  0  0
 14 26  1  0  0  0  0
 15 16  2  0  0  0  0
 16 17  1  0  0  0  0
 17 18  2  0  0  0  0
 18 25  1  0  0  0  0
 19 22  1  0  0  0  0
 19 26  1  0  0  0  0
 19 27  2  0  0  0  0
 20 28  1  0  0  0  0
 21 22  1  1  0  0  0
 23 24  2  0  0  0  0
 24 25  1  0  0  0  0
  1 29  1  0  0  0  0
  2 30  1  0  0  0  0
  3 31  1  0  0  0  0
  4 32  1  0  0  0  0
  5 33  1  0  0  0  0
  6 34  1  0  0  0  0
  7 35  1  0  0  0  0
  8 36  1  0  0  0  0
  9 37  1  0  0  0  0
 15 38  1  0  0  0  0
 16 39  1  0  0  0  0
 17 40  1  0  0  0  0
 18 41  1  0  0  0  0
 20 42  1  0  0  0  0
 20 43  1  0  0  0  0
 20 44  1  0  0  0  0
 21 45  1  0  0  0  0
 21 46  1  0  0  0  0
 22 47  1  0  0  0  0
 26 48  1  0  0  0  0
M  END
> <clash_score>
0

> <docking_score>
-8.737678527832031

> <overlap_score>
1.0058616399765015

$$$$
BENZO_269_2
  -OEChem-08222022403D

 48 51  0     1  0  0  0  0  0999 V2000
   13.8295    0.0638   25.4018 C   0  0  0  0  0  0  0  0  0  0  0  0
   12.6583   -0.1175   26.1373 C   0  0  0  0  0  0  0  0  0  0  0  0
   13.7659    0.5627   24.1007 C   0  0  0  0  0  0  0  0  0  0  0  0
   11.4234    0.2001   25.5717 C   0  0  0  0  0  0  0  0  0  0  0  0
   12.5310    0.8802   23.5351 C   0  0  0  0  0  0  0  0  0  0  0  0
    8.3510   -1.5420   24.6110 C   0  0  0  0  0  0  0  0  0  0  0  0
   10.2760   -2.3270   23.4020 C   0  0  0  0  0  0  0  0  0  0  0  0
    8.3310   -2.7170   25.3430 C   0  0  0  0  0  0  0  0  0  0  0  0
   10.2570   -3.5000   24.1350 C   0  0  0  0  0  0  0  0  0  0  0  0
   11.3598    0.6989   24.2706 C   0  0  0  0  0  0  0  0  0  0  0  0
    9.3300   -1.3350   23.6390 C   0  0  0  0  0  0  0  0  0  0  0  0
    9.2850   -3.7090   25.1090 C   0  0  0  0  0  0  0  0  0  0  0  0
    6.1600    0.3870   20.1140 C   0  0  0  0  0  0  0  0  0  0  0  0
    7.2210   -0.4620   20.0350 C   0  0  0  0  0  0  0  0  0  0  0  0
    5.3360    0.8000   21.1530 C   0  0  0  0  0  0  0  0  0  0  0  0
    4.2970    1.6690   20.8430 C   0  0  0  0  0  0  0  0  0  0  0  0
    4.0980    2.1130   19.5350 C   0  0  0  0  0  0  0  0  0  0  0  0
    4.9400    1.7060   18.5060 C   0  0  0  0  0  0  0  0  0  0  0  0
    8.9510    0.1280   21.6880 C   0  0  0  0  0  0  0  0  0  0  0  0
    8.2358   -4.9960   26.8042 C   0  0  0  0  0  0  0  0  0  0  0  0
   10.0220    1.0430   23.6570 C   0  0  0  0  0  0  0  0  0  0  0  0
    9.4200   -0.0840   22.9530 C   0  0  2  0  0  0  0  0  0  0  0  0
    7.6830   -0.5170   18.7600 N   0  0  0  0  0  0  0  0  0  0  0  0
    6.9440    0.2550   18.0100 N   0  0  0  0  0  0  0  0  0  0  0  0
    5.9810    0.8330   18.8060 N   0  0  0  0  0  0  0  0  0  0  0  0
    8.0810   -0.9750   21.0820 N   0  0  0  0  0  0  0  0  0  0  0  0
    9.1870    1.1500   21.0630 O   0  0  0  0  0  0  0  0  0  0  0  0
    9.2637   -4.8607   25.8240 O   0  0  0  0  0  0  0  0  0  0  0  0
   14.7910   -0.1822   25.8428 H   0  0  0  0  0  0  0  0  0  0  0  0
   12.7077   -0.5049   27.1507 H   0  0  0  0  0  0  0  0  0  0  0  0
   14.6777    0.7050   23.5282 H   0  0  0  0  0  0  0  0  0  0  0  0
   10.5160    0.0554   26.1521 H   0  0  0  0  0  0  0  0  0  0  0  0
   12.4911    1.2683   22.5207 H   0  0  0  0  0  0  0  0  0  0  0  0
    7.5962   -0.7776   24.7981 H   0  0  0  0  0  0  0  0  0  0  0  0
   11.0395   -2.1844   22.6346 H   0  0  0  0  0  0  0  0  0  0  0  0
    7.5664   -2.8672   26.1058 H   0  0  0  0  0  0  0  0  0  0  0  0
   11.0120   -4.2666   23.9463 H   0  0  0  0  0  0  0  0  0  0  0  0
    5.4735    0.4758   22.1644 H   0  0  0  0  0  0  0  0  0  0  0  0
    3.6415    1.9967   21.6408 H   0  0  0  0  0  0  0  0  0  0  0  0
    3.2720    2.7926   19.2921 H   0  0  0  0  0  0  0  0  0  0  0  0
    4.8119    2.0418   17.5005 H   0  0  0  0  0  0  0  0  0  0  0  0
    8.3326   -5.9631   27.3037 H   0  0  0  0  0  0  0  0  0  0  0  0
    7.2583   -4.9195   26.3214 H   0  0  0  0  0  0  0  0  0  0  0  0
    8.3396   -4.1959   27.5410 H   0  0  0  0  0  0  0  0  0  0  0  0
    9.3529    1.4272   24.4380 H   0  0  0  0  0  0  0  0  0  0  0  0
   10.1743    1.8827   22.9648 H   0  0  0  0  0  0  0  0  0  0  0  0
   10.7346   -0.4307   22.4468 H   0  0  0  0  0  0  0  0  0  0  0  0
    8.1159   -1.8115   21.3524 H   0  0  0  0  0  0  0  0  0  0  0  0
  1  2  1  0  0  0  0
  1  3  2  0  0  0  0
  2  4  2  0  0  0  0
  3  5  1  0  0  0  0
  4 10  1  0  0  0  0
  5 10  2  0  0  0  0
  6  8  2  0  0  0  0
  6 11  1  0  0  0  0
  7  9  1  0  0  0  0
  7 11  2  0  0  0  0
  8 12  1  0  0  0  0
  9 12  2  0  0  0  0
 10 21  1  0  0  0  0
 11 22  1  0  0  0  0
 12 28  1  0  0  0  0
 13 14  2  0  0  0  0
 13 15  1  0  0  0  0
 13 25  1  0  0  0  0
 14 23  1  0  0  0  0
 14 26  1  0  0  0  0
 15 16  2  0  0  0  0
 16 17  1  0  0  0  0
 17 18  2  0  0  0  0
 18 25  1  0  0  0  0
 19 22  1  0  0  0  0
 19 26  1  0  0  0  0
 19 27  2  0  0  0  0
 20 28  1  0  0  0  0
 21 22  1  6  0  0  0
 23 24  2  0  0  0  0
 24 25  1  0  0  0  0
  1 29  1  0  0  0  0
  2 30  1  0  0  0  0
  3 31  1  0  0  0  0
  4 32  1  0  0  0  0
  5 33  1  0  0  0  0
  6 34  1  0  0  0  0
  7 35  1  0  0  0  0
  8 36  1  0  0  0  0
  9 37  1  0  0  0  0
 15 38  1  0  0  0  0
 16 39  1  0  0  0  0
 17 40  1  0  0  0  0
 18 41  1  0  0  0  0
 20 42  1  0  0  0  0
 20 43  1  0  0  0  0
 20 44  1  0  0  0  0
 21 45  1  0  0  0  0
 21 46  1  0  0  0  0
 22 47  1  0  0  0  0
 26 48  1  0  0  0  0
M  END
> <clash_score>
0.6066494260958748

> <docking_score>
-7.800133228302002

> <overlap_score>
0.9279403686523438

$$$$
BENZO_268_1
  -OEChem-08222022403D

 45 48  0     1  0  0  0  0  0999 V2000
    8.3510   -1.5420   24.6110 C   0  0  0  0  0  0  0  0  0  0  0  0
   10.2760   -2.3270   23.4020 C   0  0  0  0  0  0  0  0  0  0  0  0
    8.3310   -2.7170   25.3430 C   0  0  0  0  0  0  0  0  0  0  0  0
   10.2570   -3.5000   24.1350 C   0  0  0  0  0  0  0  0  0  0  0  0
   12.2216    2.3786   23.3498 C   0  0  0  0  0  0  0  0  0  0  0  0
   13.5684    2.1883   23.1319 C   0  0  0  0  0  0  0  0  0  0  0  0
   12.3438    0.0592   23.2626 C   0  0  0  0  0  0  0  0  0  0  0  0
    9.3300   -1.3350   23.6390 C   0  0  0  0  0  0  0  0  0  0  0  0
   11.5121    1.1453   23.4257 C   0  0  0  0  0  0  0  0  0  0  0  0
    9.2850   -3.7090   25.1090 C   0  0  0  0  0  0  0  0  0  0  0  0
    6.1600    0.3870   20.1140 C   0  0  0  0  0  0  0  0  0  0  0  0
    7.2210   -0.4620   20.0350 C   0  0  0  0  0  0  0  0  0  0  0  0
    5.3360    0.8000   21.1530 C   0  0  0  0  0  0  0  0  0  0  0  0
    4.2970    1.6690   20.8430 C   0  0  0  0  0  0  0  0  0  0  0  0
    4.0980    2.1130   19.5350 C   0  0  0  0  0  0  0  0  0  0  0  0
    4.9400    1.7060   18.5060 C   0  0  0  0  0  0  0  0  0  0  0  0
    8.9510    0.1280   21.6880 C   0  0  0  0  0  0  0  0  0  0  0  0
    8.2358   -4.9960   26.8042 C   0  0  0  0  0  0  0  0  0  0  0  0
   10.0220    1.0430   23.6570 C   0  0  0  0  0  0  0  0  0  0  0  0
    9.4200   -0.0840   22.9530 C   0  0  1  0  0  0  0  0  0  0  0  0
    7.6830   -0.5170   18.7600 N   0  0  0  0  0  0  0  0  0  0  0  0
    6.9440    0.2550   18.0100 N   0  0  0  0  0  0  0  0  0  0  0  0
    5.9810    0.8330   18.8060 N   0  0  0  0  0  0  0  0  0  0  0  0
    8.0810   -0.9750   21.0820 N   0  0  0  0  0  0  0  0  0  0  0  0
    9.1870    1.1500   21.0630 O   0  0  0  0  0  0  0  0  0  0  0  0
    9.2637   -4.8607   25.8240 O   0  0  0  0  0  0  0  0  0  0  0  0
   13.9727    0.5281   23.0196 S   0  0  0  0  0  0  0  0  0  0  0  0
    7.5962   -0.7776   24.7981 H   0  0  0  0  0  0  0  0  0  0  0  0
   11.0395   -2.1844   22.6346 H   0  0  0  0  0  0  0  0  0  0  0  0
    7.5664   -2.8672   26.1058 H   0  0  0  0  0  0  0  0  0  0  0  0
   11.0120   -4.2666   23.9463 H   0  0  0  0  0  0  0  0  0  0  0  0
   11.7708    3.3580   23.4491 H   0  0  0  0  0  0  0  0  0  0  0  0
   14.3341    2.9446   23.0326 H   0  0  0  0  0  0  0  0  0  0  0  0
   12.0768   -0.9885   23.2727 H   0  0  0  0  0  0  0  0  0  0  0  0
    5.4735    0.4758   22.1644 H   0  0  0  0  0  0  0  0  0  0  0  0
    3.6415    1.9967   21.6408 H   0  0  0  0  0  0  0  0  0  0  0  0
    3.2720    2.7926   19.2921 H   0  0  0  0  0  0  0  0  0  0  0  0
    4.8119    2.0418   17.5005 H   0  0  0  0  0  0  0  0  0  0  0  0
    8.3326   -5.9631   27.3037 H   0  0  0  0  0  0  0  0  0  0  0  0
    7.2583   -4.9195   26.3214 H   0  0  0  0  0  0  0  0  0  0  0  0
    8.3396   -4.1959   27.5410 H   0  0  0  0  0  0  0  0  0  0  0  0
    9.8253    0.9889   24.7357 H   0  0  0  0  0  0  0  0  0  0  0  0
    9.5635    1.9845   23.3241 H   0  0  0  0  0  0  0  0  0  0  0  0
    8.1288    0.3205   23.5156 H   0  0  0  0  0  0  0  0  0  0  0  0
    8.1159   -1.8115   21.3524 H   0  0  0  0  0  0  0  0  0  0  0  0
  1  3  2  0  0  0  0
  1  8  1  0  0  0  0
  2  4  1  0  0  0  0
  2  8  2  0  0  0  0
  3 10  1  0  0  0  0
  4 10  2  0  0  0  0
  5  6  2  0  0  0  0
  5  9  1  0  0  0  0
  6 27  1  0  0  0  0
  7  9  2  0  0  0  0
  7 27  1  0  0  0  0
  8 20  1  0  0  0  0
  9 19  1  0  0  0  0
 10 26  1  0  0  0  0
 11 12  2  0  0  0  0
 11 13  1  0  0  0  0
 11 23  1  0  0  0  0
 12 21  1  0  0  0  0
 12 24  1  0  0  0  0
 13 14  2  0  0  0  0
 14 15  1  0  0  0  0
 15 16  2  0  0  0  0
 16 23  1  0  0  0  0
 17 20  1  0  0  0  0
 17 24  1  0  0  0  0
 17 25  2  0  0  0  0
 18 26  1  0  0  0  0
 19 20  1  1  0  0  0
 21 22  2  0  0  0  0
 22 23  1  0  0  0  0
  1 28  1  0  0  0  0
  2 29  1  0  0  0  0
  3 30  1  0  0  0  0
  4 31  1  0  0  0  0
  5 32  1  0  0  0  0
  6 33  1  0  0  0  0
  7 34  1  0  0  0  0
 13 35  1  0  0  0  0
 14 36  1  0  0  0  0
 15 37  1  0  0  0  0
 16 38  1  0  0  0  0
 18 39  1  0  0  0  0
 18 40  1  0  0  0  0
 18 41  1  0  0  0  0
 19 42  1  0  0  0  0
 19 43  1  0  0  0  0
 20 44  1  0  0  0  0
 24 45  1  0  0  0  0
M  END
> <clash_score>
0

> <docking_score>
-9.63392162322998

> <overlap_score>
0.9932425618171692

$$$$
BENZO_268_2
  -OEChem-08222022403D

 45 48  0     1  0  0  0  0  0999 V2000
    8.3510   -1.5420   24.6110 C   0  0  0  0  0  0  0  0  0  0  0  0
   10.2760   -2.3270   23.4020 C   0  0  0  0  0  0  0  0  0  0  0  0
    8.3310   -2.7170   25.3430 C   0  0  0  0  0  0  0  0  0  0  0  0
   10.2570   -3.5000   24.1350 C   0  0  0  0  0  0  0  0  0  0  0  0
   11.0468    0.9536   26.0357 C   0  0  0  0  0  0  0  0  0  0  0  0
   12.1250    0.4348   26.7183 C   0  0  0  0  0  0  0  0  0  0  0  0
   12.1733   -0.1537   24.3307 C   0  0  0  0  0  0  0  0  0  0  0  0
    9.3300   -1.3350   23.6390 C   0  0  0  0  0  0  0  0  0  0  0  0
   11.0747    0.6126   24.6525 C   0  0  0  0  0  0  0  0  0  0  0  0
    9.2850   -3.7090   25.1090 C   0  0  0  0  0  0  0  0  0  0  0  0
    6.1600    0.3870   20.1140 C   0  0  0  0  0  0  0  0  0  0  0  0
    7.2210   -0.4620   20.0350 C   0  0  0  0  0  0  0  0  0  0  0  0
    5.3360    0.8000   21.1530 C   0  0  0  0  0  0  0  0  0  0  0  0
    4.2970    1.6690   20.8430 C   0  0  0  0  0  0  0  0  0  0  0  0
    4.0980    2.1130   19.5350 C   0  0  0  0  0  0  0  0  0  0  0  0
    4.9400    1.7060   18.5060 C   0  0  0  0  0  0  0  0  0  0  0  0
    8.9510    0.1280   21.6880 C   0  0  0  0  0  0  0  0  0  0  0  0
    8.2358   -4.9960   26.8042 C   0  0  0  0  0  0  0  0  0  0  0  0
   10.0220    1.0430   23.6570 C   0  0  0  0  0  0  0  0  0  0  0  0
    9.4200   -0.0840   22.9530 C   0  0  2  0  0  0  0  0  0  0  0  0
    7.6830   -0.5170   18.7600 N   0  0  0  0  0  0  0  0  0  0  0  0
    6.9440    0.2550   18.0100 N   0  0  0  0  0  0  0  0  0  0  0  0
    5.9810    0.8330   18.8060 N   0  0  0  0  0  0  0  0  0  0  0  0
    8.0810   -0.9750   21.0820 N   0  0  0  0  0  0  0  0  0  0  0  0
    9.1870    1.1500   21.0630 O   0  0  0  0  0  0  0  0  0  0  0  0
    9.2637   -4.8607   25.8240 O   0  0  0  0  0  0  0  0  0  0  0  0
   13.1649   -0.4592   25.6929 S   0  0  0  0  0  0  0  0  0  0  0  0
    7.5962   -0.7776   24.7981 H   0  0  0  0  0  0  0  0  0  0  0  0
   11.0395   -2.1844   22.6346 H   0  0  0  0  0  0  0  0  0  0  0  0
    7.5664   -2.8672   26.1058 H   0  0  0  0  0  0  0  0  0  0  0  0
   11.0120   -4.2666   23.9463 H   0  0  0  0  0  0  0  0  0  0  0  0
   10.2771    1.5493   26.5100 H   0  0  0  0  0  0  0  0  0  0  0  0
   12.3521    0.5386   27.7699 H   0  0  0  0  0  0  0  0  0  0  0  0
   12.4454   -0.5497   23.3621 H   0  0  0  0  0  0  0  0  0  0  0  0
    5.4735    0.4758   22.1644 H   0  0  0  0  0  0  0  0  0  0  0  0
    3.6415    1.9967   21.6408 H   0  0  0  0  0  0  0  0  0  0  0  0
    3.2720    2.7926   19.2921 H   0  0  0  0  0  0  0  0  0  0  0  0
    4.8119    2.0418   17.5005 H   0  0  0  0  0  0  0  0  0  0  0  0
    8.3326   -5.9631   27.3037 H   0  0  0  0  0  0  0  0  0  0  0  0
    7.2583   -4.9195   26.3214 H   0  0  0  0  0  0  0  0  0  0  0  0
    8.3396   -4.1959   27.5410 H   0  0  0  0  0  0  0  0  0  0  0  0
    9.2602    1.6432   24.1714 H   0  0  0  0  0  0  0  0  0  0  0  0
   10.4960    1.7269   22.9392 H   0  0  0  0  0  0  0  0  0  0  0  0
   10.7346   -0.4307   22.4468 H   0  0  0  0  0  0  0  0  0  0  0  0
    8.1159   -1.8115   21.3524 H   0  0  0  0  0  0  0  0  0  0  0  0
  1  3  2  0  0  0  0
  1  8  1  0  0  0  0
  2  4  1  0  0  0  0
  2  8  2  0  0  0  0
  3 10  1  0  0  0  0
  4 10  2  0  0  0  0
  5  6  2  0  0  0  0
  5  9  1  0  0  0  0
  6 27  1  0  0  0  0
  7  9  2  0  0  0  0
  7 27  1  0  0  0  0
  8 20  1  0  0  0  0
  9 19  1  0  0  0  0
 10 26  1  0  0  0  0
 11 12  2  0  0  0  0
 11 13  1  0  0  0  0
 11 23  1  0  0  0  0
 12 21  1  0  0  0  0
 12 24  1  0  0  0  0
 13 14  2  0  0  0  0
 14 15  1  0  0  0  0
 15 16  2  0  0  0  0
 16 23  1  0  0  0  0
 17 20  1  0  0  0  0
 17 24  1  0  0  0  0
 17 25  2  0  0  0  0
 18 26  1  0  0  0  0
 19 20  1  6  0  0  0
 21 22  2  0  0  0  0
 22 23  1  0  0  0  0
  1 28  1  0  0  0  0
  2 29  1  0  0  0  0
  3 30  1  0  0  0  0
  4 31  1  0  0  0  0
  5 32  1  0  0  0  0
  6 33  1  0  0  0  0
  7 34  1  0  0  0  0
 13 35  1  0  0  0  0
 14 36  1  0  0  0  0
 15 37  1  0  0  0  0
 16 38  1  0  0  0  0
 18 39  1  0  0  0  0
 18 40  1  0  0  0  0
 18 41  1  0  0  0  0
 19 42  1  0  0  0  0
 19 43  1  0  0  0  0
 20 44  1  0  0  0  0
 24 45  1  0  0  0  0
M  END
> <clash_score>
0

> <docking_score>
-6.794306755065918

> <overlap_score>
0.8776482939720154

$$$$
BENZO_271_2
  -OEChem-08222022403D

 48 51  0     1  0  0  0  0  0999 V2000
    8.3510   -1.5420   24.6110 C   0  0  0  0  0  0  0  0  0  0  0  0
   10.2760   -2.3270   23.4020 C   0  0  0  0  0  0  0  0  0  0  0  0
    8.3310   -2.7170   25.3430 C   0  0  0  0  0  0  0  0  0  0  0  0
   10.2570   -3.5000   24.1350 C   0  0  0  0  0  0  0  0  0  0  0  0
   10.9173    2.8198   21.9486 C   0  0  0  0  0  0  0  0  0  0  0  0
   12.4283    1.4668   22.7978 C   0  0  0  0  0  0  0  0  0  0  0  0
    9.3300   -1.3350   23.6390 C   0  0  0  0  0  0  0  0  0  0  0  0
   11.0832    1.7414   22.8382 C   0  0  0  0  0  0  0  0  0  0  0  0
    9.2850   -3.7090   25.1090 C   0  0  0  0  0  0  0  0  0  0  0  0
    6.1600    0.3870   20.1140 C   0  0  0  0  0  0  0  0  0  0  0  0
    7.2210   -0.4620   20.0350 C   0  0  0  0  0  0  0  0  0  0  0  0
    5.3360    0.8000   21.1530 C   0  0  0  0  0  0  0  0  0  0  0  0
    4.2970    1.6690   20.8430 C   0  0  0  0  0  0  0  0  0  0  0  0
    4.0980    2.1130   19.5350 C   0  0  0  0  0  0  0  0  0  0  0  0
    4.9400    1.7060   18.5060 C   0  0  0  0  0  0  0  0  0  0  0  0
    8.9510    0.1280   21.6880 C   0  0  0  0  0  0  0  0  0  0  0  0
   14.3557    2.4668   21.5472 C   0  0  0  0  0  0  0  0  0  0  0  0
    8.2358   -4.9960   26.8042 C   0  0  0  0  0  0  0  0  0  0  0  0
   10.0220    1.0430   23.6570 C   0  0  0  0  0  0  0  0  0  0  0  0
    9.4200   -0.0840   22.9530 C   0  0  2  0  0  0  0  0  0  0  0  0
   12.0654    3.2042   21.3845 N   0  0  0  0  0  0  0  0  0  0  0  0
    7.6830   -0.5170   18.7600 N   0  0  0  0  0  0  0  0  0  0  0  0
    6.9440    0.2550   18.0100 N   0  0  0  0  0  0  0  0  0  0  0  0
   12.9656    2.3627   21.9209 N   0  0  0  0  0  0  0  0  0  0  0  0
    5.9810    0.8330   18.8060 N   0  0  0  0  0  0  0  0  0  0  0  0
    8.0810   -0.9750   21.0820 N   0  0  0  0  0  0  0  0  0  0  0  0
    9.1870    1.1500   21.0630 O   0  0  0  0  0  0  0  0  0  0  0  0
    9.2637   -4.8607   25.8240 O   0  0  0  0  0  0  0  0  0  0  0  0
    7.5962   -0.7776   24.7981 H   0  0  0  0  0  0  0  0  0  0  0  0
   11.0395   -2.1844   22.6346 H   0  0  0  0  0  0  0  0  0  0  0  0
    7.5664   -2.8672   26.1058 H   0  0  0  0  0  0  0  0  0  0  0  0
   11.0120   -4.2666   23.9463 H   0  0  0  0  0  0  0  0  0  0  0  0
   10.0090    3.3439   21.6870 H   0  0  0  0  0  0  0  0  0  0  0  0
   13.0342    0.7293   23.3067 H   0  0  0  0  0  0  0  0  0  0  0  0
    5.4735    0.4758   22.1644 H   0  0  0  0  0  0  0  0  0  0  0  0
    3.6415    1.9967   21.6408 H   0  0  0  0  0  0  0  0  0  0  0  0
    3.2720    2.7926   19.2921 H   0  0  0  0  0  0  0  0  0  0  0  0
    4.8119    2.0418   17.5005 H   0  0  0  0  0  0  0  0  0  0  0  0
   14.5208    1.8230   20.6793 H   0  0  0  0  0  0  0  0  0  0  0  0
   14.5900    3.5065   21.3020 H   0  0  0  0  0  0  0  0  0  0  0  0
   14.9803    2.1472   22.3860 H   0  0  0  0  0  0  0  0  0  0  0  0
    8.3326   -5.9631   27.3037 H   0  0  0  0  0  0  0  0  0  0  0  0
    7.2583   -4.9195   26.3214 H   0  0  0  0  0  0  0  0  0  0  0  0
    8.3396   -4.1959   27.5410 H   0  0  0  0  0  0  0  0  0  0  0  0
   10.4530    0.7282   24.6164 H   0  0  0  0  0  0  0  0  0  0  0  0
    9.2514    1.7835   23.9128 H   0  0  0  0  0  0  0  0  0  0  0  0
   10.7346   -0.4307   22.4468 H   0  0  0  0  0  0  0  0  0  0  0  0
    8.1159   -1.8115   21.3524 H   0  0  0  0  0  0  0  0  0  0  0  0
  1  3  2  0  0  0  0
  1  7  1  0  0  0  0
  2  4  1  0  0  0  0
  2  7  2  0  0  0  0
  3  9  1  0  0  0  0
  4  9  2  0  0  0  0
  5  8  1  0  0  0  0
  5 21  2  0  0  0  0
  6  8  2  0  0  0  0
  6 24  1  0  0  0  0
  7 20  1  0  0  0  0
  8 19  1  0  0  0  0
  9 28  1  0  0  0  0
 10 11  2  0  0  0  0
 10 12  1  0  0  0  0
 10 25  1  0  0  0  0
 11 22  1  0  0  0  0
 11 26  1  0  0  0  0
 12 13  2  0  0  0  0
 13 14  1  0  0  0  0
 14 15  2  0  0  0  0
 15 25  1  0  0  0  0
 16 20  1  0  0  0  0
 16 26  1  0  0  0  0
 16 27  2  0  0  0  0
 17 24  1  0  0  0  0
 18 28  1  0  0  0  0
 19 20  1  6  0  0  0
 21 24  1  0  0  0  0
 22 23  2  0  0  0  0
 23 25  1  0  0  0  0
  1 29  1  0  0  0  0
  2 30  1  0  0  0  0
  3 31  1  0  0  0  0
  4 32  1  0  0  0  0
  5 33  1  0  0  0  0
  6 34  1  0  0  0  0
 12 35  1  0  0  0  0
 13 36  1  0  0  0  0
 14 37  1  0  0  0  0
 15 38  1  0  0  0  0
 17 39  1  0  0  0  0
 17 40  1  0  0  0  0
 17 41  1  0  0  0  0
 18 42  1  0  0  0  0
 18 43  1  0  0  0  0
 18 44  1  0  0  0  0
 19 45  1  0  0  0  0
 19 46  1  0  0  0  0
 20 47  1  0  0  0  0
 26 48  1  0  0  0  0
M  END
> <clash_score>
0

> <docking_score>
-7.470020294189453

> <overlap_score>
0.9638800024986267

$$$$
BENZO_271_1
  -OEChem-08222022403D

 48 51  0     1  0  0  0  0  0999 V2000
    8.3510   -1.5420   24.6110 C   0  0  0  0  0  0  0  0  0  0  0  0
   10.2760   -2.3270   23.4020 C   0  0  0  0  0  0  0  0  0  0  0  0
    8.3310   -2.7170   25.3430 C   0  0  0  0  0  0  0  0  0  0  0  0
   10.2570   -3.5000   24.1350 C   0  0  0  0  0  0  0  0  0  0  0  0
   12.3075    2.3068   23.4193 C   0  0  0  0  0  0  0  0  0  0  0  0
   12.3951    0.1231   23.1769 C   0  0  0  0  0  0  0  0  0  0  0  0
    9.3300   -1.3350   23.6390 C   0  0  0  0  0  0  0  0  0  0  0  0
   11.5121    1.1453   23.4257 C   0  0  0  0  0  0  0  0  0  0  0  0
    9.2850   -3.7090   25.1090 C   0  0  0  0  0  0  0  0  0  0  0  0
    6.1600    0.3870   20.1140 C   0  0  0  0  0  0  0  0  0  0  0  0
    7.2210   -0.4620   20.0350 C   0  0  0  0  0  0  0  0  0  0  0  0
    5.3360    0.8000   21.1530 C   0  0  0  0  0  0  0  0  0  0  0  0
    4.2970    1.6690   20.8430 C   0  0  0  0  0  0  0  0  0  0  0  0
    4.0980    2.1130   19.5350 C   0  0  0  0  0  0  0  0  0  0  0  0
    4.9400    1.7060   18.5060 C   0  0  0  0  0  0  0  0  0  0  0  0
    8.9510    0.1280   21.6880 C   0  0  0  0  0  0  0  0  0  0  0  0
   14.8664    0.0395   22.7716 C   0  0  0  0  0  0  0  0  0  0  0  0
    8.2358   -4.9960   26.8042 C   0  0  0  0  0  0  0  0  0  0  0  0
   10.0220    1.0430   23.6570 C   0  0  0  0  0  0  0  0  0  0  0  0
    9.4200   -0.0840   22.9530 C   0  0  1  0  0  0  0  0  0  0  0  0
   13.5967    2.0476   23.1851 N   0  0  0  0  0  0  0  0  0  0  0  0
    7.6830   -0.5170   18.7600 N   0  0  0  0  0  0  0  0  0  0  0  0
    6.9440    0.2550   18.0100 N   0  0  0  0  0  0  0  0  0  0  0  0
   13.6181    0.7115   23.0422 N   0  0  0  0  0  0  0  0  0  0  0  0
    5.9810    0.8330   18.8060 N   0  0  0  0  0  0  0  0  0  0  0  0
    8.0810   -0.9750   21.0820 N   0  0  0  0  0  0  0  0  0  0  0  0
    9.1870    1.1500   21.0630 O   0  0  0  0  0  0  0  0  0  0  0  0
    9.2637   -4.8607   25.8240 O   0  0  0  0  0  0  0  0  0  0  0  0
    7.5962   -0.7776   24.7981 H   0  0  0  0  0  0  0  0  0  0  0  0
   11.0395   -2.1844   22.6346 H   0  0  0  0  0  0  0  0  0  0  0  0
    7.5664   -2.8672   26.1058 H   0  0  0  0  0  0  0  0  0  0  0  0
   11.0120   -4.2666   23.9463 H   0  0  0  0  0  0  0  0  0  0  0  0
   12.0040    3.3322   23.5761 H   0  0  0  0  0  0  0  0  0  0  0  0
   12.2609   -0.9465   23.0878 H   0  0  0  0  0  0  0  0  0  0  0  0
    5.4735    0.4758   22.1644 H   0  0  0  0  0  0  0  0  0  0  0  0
    3.6415    1.9967   21.6408 H   0  0  0  0  0  0  0  0  0  0  0  0
    3.2720    2.7926   19.2921 H   0  0  0  0  0  0  0  0  0  0  0  0
    4.8119    2.0418   17.5005 H   0  0  0  0  0  0  0  0  0  0  0  0
   14.9942   -0.0107   21.6871 H   0  0  0  0  0  0  0  0  0  0  0  0
   15.6877    0.5992   23.2278 H   0  0  0  0  0  0  0  0  0  0  0  0
   14.8362   -0.9658   23.2010 H   0  0  0  0  0  0  0  0  0  0  0  0
    8.3326   -5.9631   27.3037 H   0  0  0  0  0  0  0  0  0  0  0  0
    7.2583   -4.9195   26.3214 H   0  0  0  0  0  0  0  0  0  0  0  0
    8.3396   -4.1959   27.5410 H   0  0  0  0  0  0  0  0  0  0  0  0
    9.8253    0.9889   24.7357 H   0  0  0  0  0  0  0  0  0  0  0  0
    9.5635    1.9845   23.3241 H   0  0  0  0  0  0  0  0  0  0  0  0
    8.1288    0.3205   23.5156 H   0  0  0  0  0  0  0  0  0  0  0  0
    8.1159   -1.8115   21.3524 H   0  0  0  0  0  0  0  0  0  0  0  0
  1  3  2  0  0  0  0
  1  7  1  0  0  0  0
  2  4  1  0  0  0  0
  2  7  2  0  0  0  0
  3  9  1  0  0  0  0
  4  9  2  0  0  0  0
  5  8  1  0  0  0  0
  5 21  2  0  0  0  0
  6  8  2  0  0  0  0
  6 24  1  0  0  0  0
  7 20  1  0  0  0  0
  8 19  1  0  0  0  0
  9 28  1  0  0  0  0
 10 11  2  0  0  0  0
 10 12  1  0  0  0  0
 10 25  1  0  0  0  0
 11 22  1  0  0  0  0
 11 26  1  0  0  0  0
 12 13  2  0  0  0  0
 13 14  1  0  0  0  0
 14 15  2  0  0  0  0
 15 25  1  0  0  0  0
 16 20  1  0  0  0  0
 16 26  1  0  0  0  0
 16 27  2  0  0  0  0
 17 24  1  0  0  0  0
 18 28  1  0  0  0  0
 19 20  1  1  0  0  0
 21 24  1  0  0  0  0
 22 23  2  0  0  0  0
 23 25  1  0  0  0  0
  1 29  1  0  0  0  0
  2 30  1  0  0  0  0
  3 31  1  0  0  0  0
  4 32  1  0  0  0  0
  5 33  1  0  0  0  0
  6 34  1  0  0  0  0
 12 35  1  0  0  0  0
 13 36  1  0  0  0  0
 14 37  1  0  0  0  0
 15 38  1  0  0  0  0
 17 39  1  0  0  0  0
 17 40  1  0  0  0  0
 17 41  1  0  0  0  0
 18 42  1  0  0  0  0
 18 43  1  0  0  0  0
 18 44  1  0  0  0  0
 19 45  1  0  0  0  0
 19 46  1  0  0  0  0
 20 47  1  0  0  0  0
 26 48  1  0  0  0  0
M  END
> <clash_score>
0

> <docking_score>
-9.506896018981934

> <overlap_score>
1.0079172849655151

$$$$
BENZO_270_1
  -OEChem-08222022403D

 48 51  0     1  0  0  0  0  0999 V2000
   13.7719    0.5789   24.0657 C   0  0  0  0  0  0  0  0  0  0  0  0
   12.3966    0.4859   24.2792 C   0  0  0  0  0  0  0  0  0  0  0  0
    8.3510   -1.5420   24.6110 C   0  0  0  0  0  0  0  0  0  0  0  0
   10.2760   -2.3270   23.4020 C   0  0  0  0  0  0  0  0  0  0  0  0
    8.3310   -2.7170   25.3430 C   0  0  0  0  0  0  0  0  0  0  0  0
   10.2570   -3.5000   24.1350 C   0  0  0  0  0  0  0  0  0  0  0  0
   14.2627    1.3315   22.9987 C   0  0  0  0  0  0  0  0  0  0  0  0
   12.0029    1.8978   22.3587 C   0  0  0  0  0  0  0  0  0  0  0  0
    9.3300   -1.3350   23.6390 C   0  0  0  0  0  0  0  0  0  0  0  0
   11.5121    1.1453   23.4257 C   0  0  0  0  0  0  0  0  0  0  0  0
    9.2850   -3.7090   25.1090 C   0  0  0  0  0  0  0  0  0  0  0  0
   13.3782    1.9909   22.1452 C   0  0  0  0  0  0  0  0  0  0  0  0
    6.1600    0.3870   20.1140 C   0  0  0  0  0  0  0  0  0  0  0  0
    7.2210   -0.4620   20.0350 C   0  0  0  0  0  0  0  0  0  0  0  0
    5.3360    0.8000   21.1530 C   0  0  0  0  0  0  0  0  0  0  0  0
    4.2970    1.6690   20.8430 C   0  0  0  0  0  0  0  0  0  0  0  0
    4.0980    2.1130   19.5350 C   0  0  0  0  0  0  0  0  0  0  0  0
    4.9400    1.7060   18.5060 C   0  0  0  0  0  0  0  0  0  0  0  0
    8.9510    0.1280   21.6880 C   0  0  0  0  0  0  0  0  0  0  0  0
    8.2358   -4.9960   26.8042 C   0  0  0  0  0  0  0  0  0  0  0  0
   10.0220    1.0430   23.6570 C   0  0  0  0  0  0  0  0  0  0  0  0
    9.4200   -0.0840   22.9530 C   0  0  1  0  0  0  0  0  0  0  0  0
    7.6830   -0.5170   18.7600 N   0  0  0  0  0  0  0  0  0  0  0  0
    6.9440    0.2550   18.0100 N   0  0  0  0  0  0  0  0  0  0  0  0
    5.9810    0.8330   18.8060 N   0  0  0  0  0  0  0  0  0  0  0  0
    8.0810   -0.9750   21.0820 N   0  0  0  0  0  0  0  0  0  0  0  0
    9.1870    1.1500   21.0630 O   0  0  0  0  0  0  0  0  0  0  0  0
    9.2637   -4.8607   25.8240 O   0  0  0  0  0  0  0  0  0  0  0  0
   13.9842    2.9183   20.8282 Cl  0  0  0  0  0  0  0  0  0  0  0  0
   14.4603    0.0652   24.7304 H   0  0  0  0  0  0  0  0  0  0  0  0
   12.0231   -0.1028   25.1130 H   0  0  0  0  0  0  0  0  0  0  0  0
    7.5962   -0.7776   24.7981 H   0  0  0  0  0  0  0  0  0  0  0  0
   11.0395   -2.1844   22.6346 H   0  0  0  0  0  0  0  0  0  0  0  0
    7.5664   -2.8672   26.1058 H   0  0  0  0  0  0  0  0  0  0  0  0
   11.0120   -4.2666   23.9463 H   0  0  0  0  0  0  0  0  0  0  0  0
   15.3370    1.3949   22.8442 H   0  0  0  0  0  0  0  0  0  0  0  0
   11.3092    2.4105   21.6963 H   0  0  0  0  0  0  0  0  0  0  0  0
    5.4735    0.4758   22.1644 H   0  0  0  0  0  0  0  0  0  0  0  0
    3.6415    1.9967   21.6408 H   0  0  0  0  0  0  0  0  0  0  0  0
    3.2720    2.7926   19.2921 H   0  0  0  0  0  0  0  0  0  0  0  0
    4.8119    2.0418   17.5005 H   0  0  0  0  0  0  0  0  0  0  0  0
    8.3326   -5.9631   27.3037 H   0  0  0  0  0  0  0  0  0  0  0  0
    7.2583   -4.9195   26.3214 H   0  0  0  0  0  0  0  0  0  0  0  0
    8.3396   -4.1959   27.5410 H   0  0  0  0  0  0  0  0  0  0  0  0
    9.8253    0.9889   24.7357 H   0  0  0  0  0  0  0  0  0  0  0  0
    9.5635    1.9845   23.3241 H   0  0  0  0  0  0  0  0  0  0  0  0
    8.1288    0.3205   23.5156 H   0  0  0  0  0  0  0  0  0  0  0  0
    8.1159   -1.8115   21.3524 H   0  0  0  0  0  0  0  0  0  0  0  0
  1  2  2  0  0  0  0
  1  7  1  0  0  0  0
  2 10  1  0  0  0  0
  3  5  2  0  0  0  0
  3  9  1  0  0  0  0
  4  6  1  0  0  0  0
  4  9  2  0  0  0  0
  5 11  1  0  0  0  0
  6 11  2  0  0  0  0
  7 12  2  0  0  0  0
  8 10  2  0  0  0  0
  8 12  1  0  0  0  0
  9 22  1  0  0  0  0
 10 21  1  0  0  0  0
 11 28  1  0  0  0  0
 12 29  1  0  0  0  0
 13 14  2  0  0  0  0
 13 15  1  0  0  0  0
 13 25  1  0  0  0  0
 14 23  1  0  0  0  0
 14 26  1  0  0  0  0
 15 16  2  0  0  0  0
 16 17  1  0  0  0  0
 17 18  2  0  0  0  0
 18 25  1  0  0  0  0
 19 22  1  0  0  0  0
 19 26  1  0  0  0  0
 19 27  2  0  0  0  0
 20 28  1  0  0  0  0
 21 22  1  1  0  0  0
 23 24  2  0  0  0  0
 24 25  1  0  0  0  0
  1 30  1  0  0  0  0
  2 31  1  0  0  0  0
  3 32  1  0  0  0  0
  4 33  1  0  0  0  0
  5 34  1  0  0  0  0
  6 35  1  0  0  0  0
  7 36  1  0  0  0  0
  8 37  1  0  0  0  0
 15 38  1  0  0  0  0
 16 39  1  0  0  0  0
 17 40  1  0  0  0  0
 18 41  1  0  0  0  0
 20 42  1  0  0  0  0
 20 43  1  0  0  0  0
 20 44  1  0  0  0  0
 21 45  1  0  0  0  0
 21 46  1  0  0  0  0
 22 47  1  0  0  0  0
 26 48  1  0  0  0  0
M  END
> <clash_score>
0

> <docking_score>
-7.878624439239502

> <overlap_score>
1.0089620351791382

$$$$
BENZO_270_2
  -OEChem-08222022403D

 48 51  0     1  0  0  0  0  0999 V2000
   12.6560   -0.1194   26.1378 C   0  0  0  0  0  0  0  0  0  0  0  0
   11.4219    0.1994   25.5714 C   0  0  0  0  0  0  0  0  0  0  0  0
    8.3510   -1.5420   24.6110 C   0  0  0  0  0  0  0  0  0  0  0  0
   10.2760   -2.3270   23.4020 C   0  0  0  0  0  0  0  0  0  0  0  0
    8.3310   -2.7170   25.3430 C   0  0  0  0  0  0  0  0  0  0  0  0
   10.2570   -3.5000   24.1350 C   0  0  0  0  0  0  0  0  0  0  0  0
   13.8281    0.0614   25.4035 C   0  0  0  0  0  0  0  0  0  0  0  0
   12.5318    0.8798   23.5362 C   0  0  0  0  0  0  0  0  0  0  0  0
    9.3300   -1.3350   23.6390 C   0  0  0  0  0  0  0  0  0  0  0  0
   11.3598    0.6989   24.2706 C   0  0  0  0  0  0  0  0  0  0  0  0
    9.2850   -3.7090   25.1090 C   0  0  0  0  0  0  0  0  0  0  0  0
   13.7660    0.5610   24.1026 C   0  0  0  0  0  0  0  0  0  0  0  0
    6.1600    0.3870   20.1140 C   0  0  0  0  0  0  0  0  0  0  0  0
    7.2210   -0.4620   20.0350 C   0  0  0  0  0  0  0  0  0  0  0  0
    5.3360    0.8000   21.1530 C   0  0  0  0  0  0  0  0  0  0  0  0
    4.2970    1.6690   20.8430 C   0  0  0  0  0  0  0  0  0  0  0  0
    4.0980    2.1130   19.5350 C   0  0  0  0  0  0  0  0  0  0  0  0
    4.9400    1.7060   18.5060 C   0  0  0  0  0  0  0  0  0  0  0  0
    8.9510    0.1280   21.6880 C   0  0  0  0  0  0  0  0  0  0  0  0
    8.2358   -4.9960   26.8042 C   0  0  0  0  0  0  0  0  0  0  0  0
   10.0220    1.0430   23.6570 C   0  0  0  0  0  0  0  0  0  0  0  0
    9.4200   -0.0840   22.9530 C   0  0  2  0  0  0  0  0  0  0  0  0
    7.6830   -0.5170   18.7600 N   0  0  0  0  0  0  0  0  0  0  0  0
    6.9440    0.2550   18.0100 N   0  0  0  0  0  0  0  0  0  0  0  0
    5.9810    0.8330   18.8060 N   0  0  0  0  0  0  0  0  0  0  0  0
    8.0810   -0.9750   21.0820 N   0  0  0  0  0  0  0  0  0  0  0  0
    9.1870    1.1500   21.0630 O   0  0  0  0  0  0  0  0  0  0  0  0
    9.2637   -4.8607   25.8240 O   0  0  0  0  0  0  0  0  0  0  0  0
   15.2122    0.7829   23.1967 Cl  0  0  0  0  0  0  0  0  0  0  0  0
   12.7039   -0.5086   27.1508 H   0  0  0  0  0  0  0  0  0  0  0  0
   10.5137    0.0551   26.1509 H   0  0  0  0  0  0  0  0  0  0  0  0
    7.5962   -0.7776   24.7981 H   0  0  0  0  0  0  0  0  0  0  0  0
   11.0395   -2.1844   22.6346 H   0  0  0  0  0  0  0  0  0  0  0  0
    7.5664   -2.8672   26.1058 H   0  0  0  0  0  0  0  0  0  0  0  0
   11.0120   -4.2666   23.9463 H   0  0  0  0  0  0  0  0  0  0  0  0
   14.7829   -0.1916   25.8577 H   0  0  0  0  0  0  0  0  0  0  0  0
   12.4781    1.2701   22.5225 H   0  0  0  0  0  0  0  0  0  0  0  0
    5.4735    0.4758   22.1644 H   0  0  0  0  0  0  0  0  0  0  0  0
    3.6415    1.9967   21.6408 H   0  0  0  0  0  0  0  0  0  0  0  0
    3.2720    2.7926   19.2921 H   0  0  0  0  0  0  0  0  0  0  0  0
    4.8119    2.0418   17.5005 H   0  0  0  0  0  0  0  0  0  0  0  0
    8.3326   -5.9631   27.3037 H   0  0  0  0  0  0  0  0  0  0  0  0
    7.2583   -4.9195   26.3214 H   0  0  0  0  0  0  0  0  0  0  0  0
    8.3396   -4.1959   27.5410 H   0  0  0  0  0  0  0  0  0  0  0  0
    9.3529    1.4272   24.4380 H   0  0  0  0  0  0  0  0  0  0  0  0
   10.1743    1.8827   22.9648 H   0  0  0  0  0  0  0  0  0  0  0  0
   10.7346   -0.4307   22.4468 H   0  0  0  0  0  0  0  0  0  0  0  0
    8.1159   -1.8115   21.3524 H   0  0  0  0  0  0  0  0  0  0  0  0
  1  2  2  0  0  0  0
  1  7  1  0  0  0  0
  2 10  1  0  0  0  0
  3  5  2  0  0  0  0
  3  9  1  0  0  0  0
  4  6  1  0  0  0  0
  4  9  2  0  0  0  0
  5 11  1  0  0  0  0
  6 11  2  0  0  0  0
  7 12  2  0  0  0  0
  8 10  2  0  0  0  0
  8 12  1  0  0  0  0
  9 22  1  0  0  0  0
 10 21  1  0  0  0  0
 11 28  1  0  0  0  0
 12 29  1  0  0  0  0
 13 14  2  0  0  0  0
 13 15  1  0  0  0  0
 13 25  1  0  0  0  0
 14 23  1  0  0  0  0
 14 26  1  0  0  0  0
 15 16  2  0  0  0  0
 16 17  1  0  0  0  0
 17 18  2  0  0  0  0
 18 25  1  0  0  0  0
 19 22  1  0  0  0  0
 19 26  1  0  0  0  0
 19 27  2  0  0  0  0
 20 28  1  0  0  0  0
 21 22  1  6  0  0  0
 23 24  2  0  0  0  0
 24 25  1  0  0  0  0
  1 30  1  0  0  0  0
  2 31  1  0  0  0  0
  3 32  1  0  0  0  0
  4 33  1  0  0  0  0
  5 34  1  0  0  0  0
  6 35  1  0  0  0  0
  7 36  1  0  0  0  0
  8 37  1  0  0  0  0
 15 38  1  0  0  0  0
 16 39  1  0  0  0  0
 17 40  1  0  0  0  0
 18 41  1  0  0  0  0
 20 42  1  0  0  0  0
 20 43  1  0  0  0  0
 20 44  1  0  0  0  0
 21 45  1  0  0  0  0
 21 46  1  0  0  0  0
 22 47  1  0  0  0  0
 26 48  1  0  0  0  0
M  END
> <clash_score>
0.6070842632629044

> <docking_score>
-6.872696399688721

> <overlap_score>
0.9371463060379028

$$$$
BENZO_273_1
  -OEChem-08222022403D

 58 62  0     1  0  0  0  0  0999 V2000
   13.8377    0.1156   25.4121 C   0  0  0  0  0  0  0  0  0  0  0  0
   12.6675   -0.0758   26.1466 C   0  0  0  0  0  0  0  0  0  0  0  0
   13.7705    0.6078   24.1087 C   0  0  0  0  0  0  0  0  0  0  0  0
   11.4299    0.2250   25.5777 C   0  0  0  0  0  0  0  0  0  0  0  0
   12.5329    0.9085   23.5397 C   0  0  0  0  0  0  0  0  0  0  0  0
    8.3510   -1.5420   24.6110 C   0  0  0  0  0  0  0  0  0  0  0  0
   10.2760   -2.3270   23.4020 C   0  0  0  0  0  0  0  0  0  0  0  0
    8.3310   -2.7170   25.3430 C   0  0  0  0  0  0  0  0  0  0  0  0
   10.2570   -3.5000   24.1350 C   0  0  0  0  0  0  0  0  0  0  0  0
   11.3626    0.7171   24.2742 C   0  0  0  0  0  0  0  0  0  0  0  0
    9.3300   -1.3350   23.6390 C   0  0  0  0  0  0  0  0  0  0  0  0
    9.2850   -3.7090   25.1090 C   0  0  0  0  0  0  0  0  0  0  0  0
    6.1600    0.3870   20.1140 C   0  0  0  0  0  0  0  0  0  0  0  0
    7.2210   -0.4620   20.0350 C   0  0  0  0  0  0  0  0  0  0  0  0
    5.3360    0.8000   21.1530 C   0  0  0  0  0  0  0  0  0  0  0  0
    4.2970    1.6690   20.8430 C   0  0  0  0  0  0  0  0  0  0  0  0
    4.0980    2.1130   19.5350 C   0  0  0  0  0  0  0  0  0  0  0  0
    4.9400    1.7060   18.5060 C   0  0  0  0  0  0  0  0  0  0  0  0
    8.0643   -5.4721   26.3672 C   0  0  0  0  0  0  0  0  0  0  0  0
    8.9510    0.1280   21.6880 C   0  0  0  0  0  0  0  0  0  0  0  0
    8.2649   -6.7591   27.1477 C   0  0  0  0  0  0  0  0  0  0  0  0
    9.4073   -6.6157   28.1377 C   0  0  0  0  0  0  0  0  0  0  0  0
   10.6967   -6.1489   27.4694 C   0  0  0  0  0  0  0  0  0  0  0  0
   10.4950   -5.7059   26.0212 C   0  0  0  0  0  0  0  0  0  0  0  0
   10.0220    1.0430   23.6570 C   0  0  0  0  0  0  0  0  0  0  0  0
    9.4200   -0.0840   22.9530 C   0  0  1  0  0  0  0  0  0  0  0  0
    7.6830   -0.5170   18.7600 N   0  0  0  0  0  0  0  0  0  0  0  0
    6.9440    0.2550   18.0100 N   0  0  0  0  0  0  0  0  0  0  0  0
    5.9810    0.8330   18.8060 N   0  0  0  0  0  0  0  0  0  0  0  0
    9.2624   -4.9267   25.8634 N   0  0  0  0  0  0  0  0  0  0  0  0
    8.0810   -0.9750   21.0820 N   0  0  0  0  0  0  0  0  0  0  0  0
    6.9247   -5.0497   26.1749 O   0  0  0  0  0  0  0  0  0  0  0  0
    9.1870    1.1500   21.0630 O   0  0  0  0  0  0  0  0  0  0  0  0
   14.8013   -0.1174   25.8558 H   0  0  0  0  0  0  0  0  0  0  0  0
   12.7197   -0.4579   27.1619 H   0  0  0  0  0  0  0  0  0  0  0  0
   14.6814    0.7579   23.5369 H   0  0  0  0  0  0  0  0  0  0  0  0
   10.5233    0.0726   26.1574 H   0  0  0  0  0  0  0  0  0  0  0  0
   12.4902    1.2914   22.5235 H   0  0  0  0  0  0  0  0  0  0  0  0
    7.5948   -0.7783   24.7966 H   0  0  0  0  0  0  0  0  0  0  0  0
   11.0389   -2.1844   22.6342 H   0  0  0  0  0  0  0  0  0  0  0  0
    7.5642   -2.8624   26.1050 H   0  0  0  0  0  0  0  0  0  0  0  0
   11.0137   -4.2649   23.9418 H   0  0  0  0  0  0  0  0  0  0  0  0
    5.4735    0.4758   22.1644 H   0  0  0  0  0  0  0  0  0  0  0  0
    3.6415    1.9967   21.6408 H   0  0  0  0  0  0  0  0  0  0  0  0
    3.2720    2.7926   19.2921 H   0  0  0  0  0  0  0  0  0  0  0  0
    4.8119    2.0418   17.5005 H   0  0  0  0  0  0  0  0  0  0  0  0
    7.3543   -6.9829   27.6818 H   0  0  0  0  0  0  0  0  0  0  0  0
    8.4783   -7.5436   26.4372 H   0  0  0  0  0  0  0  0  0  0  0  0
    9.1257   -5.9021   28.9399 H   0  0  0  0  0  0  0  0  0  0  0  0
    9.5814   -7.5840   28.6486 H   0  0  0  0  0  0  0  0  0  0  0  0
   11.1319   -5.3094   28.0513 H   0  0  0  0  0  0  0  0  0  0  0  0
   11.4591   -6.9570   27.5118 H   0  0  0  0  0  0  0  0  0  0  0  0
   11.3214   -5.0711   25.7158 H   0  0  0  0  0  0  0  0  0  0  0  0
   10.4496   -6.5786   25.3788 H   0  0  0  0  0  0  0  0  0  0  0  0
    9.3482    1.4259   24.4346 H   0  0  0  0  0  0  0  0  0  0  0  0
   10.1663    1.8793   22.9589 H   0  0  0  0  0  0  0  0  0  0  0  0
   10.7366   -0.4277   22.4442 H   0  0  0  0  0  0  0  0  0  0  0  0
    8.1354   -1.7990   21.3694 H   0  0  0  0  0  0  0  0  0  0  0  0
  1  2  1  0  0  0  0
  1  3  2  0  0  0  0
  2  4  2  0  0  0  0
  3  5  1  0  0  0  0
  4 10  1  0  0  0  0
  5 10  2  0  0  0  0
  6  8  2  0  0  0  0
  6 11  1  0  0  0  0
  7  9  1  0  0  0  0
  7 11  2  0  0  0  0
  8 12  1  0  0  0  0
  9 12  2  0  0  0  0
 10 25  1  0  0  0  0
 11 26  1  0  0  0  0
 12 30  1  0  0  0  0
 13 14  2  0  0  0  0
 13 15  1  0  0  0  0
 13 29  1  0  0  0  0
 14 27  1  0  0  0  0
 14 31  1  0  0  0  0
 15 16  2  0  0  0  0
 16 17  1  0  0  0  0
 17 18  2  0  0  0  0
 18 29  1  0  0  0  0
 19 21  1  0  0  0  0
 19 30  1  0  0  0  0
 19 32  2  0  0  0  0
 20 26  1  1  0  0  0
 20 31  1  0  0  0  0
 20 33  2  0  0  0  0
 21 22  1  0  0  0  0
 22 23  1  0  0  0  0
 23 24  1  0  0  0  0
 24 30  1  0  0  0  0
 25 26  1  0  0  0  0
 27 28  2  0  0  0  0
 28 29  1  0  0  0  0
  1 34  1  0  0  0  0
  2 35  1  0  0  0  0
  3 36  1  0  0  0  0
  4 37  1  0  0  0  0
  5 38  1  0  0  0  0
  6 39  1  0  0  0  0
  7 40  1  0  0  0  0
  8 41  1  0  0  0  0
  9 42  1  0  0  0  0
 15 43  1  0  0  0  0
 16 44  1  0  0  0  0
 17 45  1  0  0  0  0
 18 46  1  0  0  0  0
 21 47  1  0  0  0  0
 21 48  1  0  0  0  0
 22 49  1  0  0  0  0
 22 50  1  0  0  0  0
 23 51  1  0  0  0  0
 23 52  1  0  0  0  0
 24 53  1  0  0  0  0
 24 54  1  0  0  0  0
 25 55  1  0  0  0  0
 25 56  1  0  0  0  0
 26 57  1  0  0  0  0
 31 58  1  0  0  0  0
M  END
> <clash_score>
1.2728248649063287

> <docking_score>
-6.298426151275635

> <overlap_score>
0.9489558935165405

$$$$
BENZO_273_2
  -OEChem-08222022403D

 58 62  0     1  0  0  0  0  0999 V2000
   14.2657    1.3705   23.0372 C   0  0  0  0  0  0  0  0  0  0  0  0
   13.7726    0.6127   24.0994 C   0  0  0  0  0  0  0  0  0  0  0  0
   13.3825    2.0221   22.1763 C   0  0  0  0  0  0  0  0  0  0  0  0
   12.3965    0.5064   24.3006 C   0  0  0  0  0  0  0  0  0  0  0  0
   12.0064    1.9158   22.3775 C   0  0  0  0  0  0  0  0  0  0  0  0
    8.3510   -1.5420   24.6110 C   0  0  0  0  0  0  0  0  0  0  0  0
   10.2760   -2.3270   23.4020 C   0  0  0  0  0  0  0  0  0  0  0  0
    8.3310   -2.7170   25.3430 C   0  0  0  0  0  0  0  0  0  0  0  0
   10.2570   -3.5000   24.1350 C   0  0  0  0  0  0  0  0  0  0  0  0
   11.5133    1.1580   23.4397 C   0  0  0  0  0  0  0  0  0  0  0  0
    9.3300   -1.3350   23.6390 C   0  0  0  0  0  0  0  0  0  0  0  0
    9.2850   -3.7090   25.1090 C   0  0  0  0  0  0  0  0  0  0  0  0
    6.1600    0.3870   20.1140 C   0  0  0  0  0  0  0  0  0  0  0  0
    7.2210   -0.4620   20.0350 C   0  0  0  0  0  0  0  0  0  0  0  0
    5.3360    0.8000   21.1530 C   0  0  0  0  0  0  0  0  0  0  0  0
    4.2970    1.6690   20.8430 C   0  0  0  0  0  0  0  0  0  0  0  0
    4.0980    2.1130   19.5350 C   0  0  0  0  0  0  0  0  0  0  0  0
    4.9400    1.7060   18.5060 C   0  0  0  0  0  0  0  0  0  0  0  0
    8.0643   -5.4721   26.3672 C   0  0  0  0  0  0  0  0  0  0  0  0
    8.9510    0.1280   21.6880 C   0  0  0  0  0  0  0  0  0  0  0  0
    8.2649   -6.7591   27.1477 C   0  0  0  0  0  0  0  0  0  0  0  0
    9.4073   -6.6157   28.1377 C   0  0  0  0  0  0  0  0  0  0  0  0
   10.6967   -6.1489   27.4694 C   0  0  0  0  0  0  0  0  0  0  0  0
   10.4950   -5.7059   26.0212 C   0  0  0  0  0  0  0  0  0  0  0  0
   10.0220    1.0430   23.6570 C   0  0  0  0  0  0  0  0  0  0  0  0
    9.4200   -0.0840   22.9530 C   0  0  2  0  0  0  0  0  0  0  0  0
    7.6830   -0.5170   18.7600 N   0  0  0  0  0  0  0  0  0  0  0  0
    6.9440    0.2550   18.0100 N   0  0  0  0  0  0  0  0  0  0  0  0
    5.9810    0.8330   18.8060 N   0  0  0  0  0  0  0  0  0  0  0  0
    9.2624   -4.9267   25.8634 N   0  0  0  0  0  0  0  0  0  0  0  0
    8.0810   -0.9750   21.0820 N   0  0  0  0  0  0  0  0  0  0  0  0
    6.9247   -5.0497   26.1749 O   0  0  0  0  0  0  0  0  0  0  0  0
    9.1870    1.1500   21.0630 O   0  0  0  0  0  0  0  0  0  0  0  0
   15.3373    1.4543   22.8814 H   0  0  0  0  0  0  0  0  0  0  0  0
   14.4602    0.1062   24.7705 H   0  0  0  0  0  0  0  0  0  0  0  0
   13.7661    2.6131   21.3498 H   0  0  0  0  0  0  0  0  0  0  0  0
   12.0214   -0.0864   25.1308 H   0  0  0  0  0  0  0  0  0  0  0  0
   11.3258    2.4268   21.7016 H   0  0  0  0  0  0  0  0  0  0  0  0
    7.5948   -0.7783   24.7966 H   0  0  0  0  0  0  0  0  0  0  0  0
   11.0389   -2.1844   22.6342 H   0  0  0  0  0  0  0  0  0  0  0  0
    7.5642   -2.8624   26.1050 H   0  0  0  0  0  0  0  0  0  0  0  0
   11.0137   -4.2649   23.9418 H   0  0  0  0  0  0  0  0  0  0  0  0
    5.4735    0.4758   22.1644 H   0  0  0  0  0  0  0  0  0  0  0  0
    3.6415    1.9967   21.6408 H   0  0  0  0  0  0  0  0  0  0  0  0
    3.2720    2.7926   19.2920 H   0  0  0  0  0  0  0  0  0  0  0  0
    4.8119    2.0418   17.5005 H   0  0  0  0  0  0  0  0  0  0  0  0
    7.3543   -6.9829   27.6818 H   0  0  0  0  0  0  0  0  0  0  0  0
    8.4783   -7.5436   26.4372 H   0  0  0  0  0  0  0  0  0  0  0  0
    9.1257   -5.9021   28.9399 H   0  0  0  0  0  0  0  0  0  0  0  0
    9.5814   -7.5840   28.6486 H   0  0  0  0  0  0  0  0  0  0  0  0
   11.1319   -5.3094   28.0513 H   0  0  0  0  0  0  0  0  0  0  0  0
   11.4591   -6.9570   27.5118 H   0  0  0  0  0  0  0  0  0  0  0  0
   11.3214   -5.0711   25.7158 H   0  0  0  0  0  0  0  0  0  0  0  0
   10.4496   -6.5786   25.3788 H   0  0  0  0  0  0  0  0  0  0  0  0
    9.8155    0.9894   24.7339 H   0  0  0  0  0  0  0  0  0  0  0  0
    9.5584    1.9798   23.3178 H   0  0  0  0  0  0  0  0  0  0  0  0
    8.1278    0.3254   23.5142 H   0  0  0  0  0  0  0  0  0  0  0  0
    8.1354   -1.7990   21.3694 H   0  0  0  0  0  0  0  0  0  0  0  0
  1  2  1  0  0  0  0
  1  3  2  0  0  0  0
  2  4  2  0  0  0  0
  3  5  1  0  0  0  0
  4 10  1  0  0  0  0
  5 10  2  0  0  0  0
  6  8  2  0  0  0  0
  6 11  1  0  0  0  0
  7  9  1  0  0  0  0
  7 11  2  0  0  0  0
  8 12  1  0  0  0  0
  9 12  2  0  0  0  0
 10 25  1  0  0  0  0
 11 26  1  0  0  0  0
 12 30  1  0  0  0  0
 13 14  2  0  0  0  0
 13 15  1  0  0  0  0
 13 29  1  0  0  0  0
 14 27  1  0  0  0  0
 14 31  1  0  0  0  0
 15 16  2  0  0  0  0
 16 17  1  0  0  0  0
 17 18  2  0  0  0  0
 18 29  1  0  0  0  0
 19 21  1  0  0  0  0
 19 30  1  0  0  0  0
 19 32  2  0  0  0  0
 20 26  1  6  0  0  0
 20 31  1  0  0  0  0
 20 33  2  0  0  0  0
 21 22  1  0  0  0  0
 22 23  1  0  0  0  0
 23 24  1  0  0  0  0
 24 30  1  0  0  0  0
 25 26  1  0  0  0  0
 27 28  2  0  0  0  0
 28 29  1  0  0  0  0
  1 34  1  0  0  0  0
  2 35  1  0  0  0  0
  3 36  1  0  0  0  0
  4 37  1  0  0  0  0
  5 38  1  0  0  0  0
  6 39  1  0  0  0  0
  7 40  1  0  0  0  0
  8 41  1  0  0  0  0
  9 42  1  0  0  0  0
 15 43  1  0  0  0  0
 16 44  1  0  0  0  0
 17 45  1  0  0  0  0
 18 46  1  0  0  0  0
 21 47  1  0  0  0  0
 21 48  1  0  0  0  0
 22 49  1  0  0  0  0
 22 50  1  0  0  0  0
 23 51  1  0  0  0  0
 23 52  1  0  0  0  0
 24 53  1  0  0  0  0
 24 54  1  0  0  0  0
 25 55  1  0  0  0  0
 25 56  1  0  0  0  0
 26 57  1  0  0  0  0
 31 58  1  0  0  0  0
M  END
> <clash_score>
1.2728248649063287

> <docking_score>
-7.251237869262695

> <overlap_score>
1.0258839130401611

$$$$
BENZO_272_2
  -OEChem-08222022403D

 55 59  0     1  0  0  0  0  0999 V2000
    8.3510   -1.5420   24.6110 C   0  0  0  0  0  0  0  0  0  0  0  0
   10.2760   -2.3270   23.4020 C   0  0  0  0  0  0  0  0  0  0  0  0
    8.3310   -2.7170   25.3430 C   0  0  0  0  0  0  0  0  0  0  0  0
   10.2570   -3.5000   24.1350 C   0  0  0  0  0  0  0  0  0  0  0  0
   12.2126    2.3973   23.3679 C   0  0  0  0  0  0  0  0  0  0  0  0
   13.5630    2.2184   23.1632 C   0  0  0  0  0  0  0  0  0  0  0  0
   12.3560    0.0789   23.2868 C   0  0  0  0  0  0  0  0  0  0  0  0
    9.3300   -1.3350   23.6390 C   0  0  0  0  0  0  0  0  0  0  0  0
   11.5133    1.1580   23.4397 C   0  0  0  0  0  0  0  0  0  0  0  0
    9.2850   -3.7090   25.1090 C   0  0  0  0  0  0  0  0  0  0  0  0
    6.1600    0.3870   20.1140 C   0  0  0  0  0  0  0  0  0  0  0  0
    7.2210   -0.4620   20.0350 C   0  0  0  0  0  0  0  0  0  0  0  0
    5.3360    0.8000   21.1530 C   0  0  0  0  0  0  0  0  0  0  0  0
    4.2970    1.6690   20.8430 C   0  0  0  0  0  0  0  0  0  0  0  0
    4.0980    2.1130   19.5350 C   0  0  0  0  0  0  0  0  0  0  0  0
    4.9400    1.7060   18.5060 C   0  0  0  0  0  0  0  0  0  0  0  0
    8.0643   -5.4721   26.3672 C   0  0  0  0  0  0  0  0  0  0  0  0
    8.9510    0.1280   21.6880 C   0  0  0  0  0  0  0  0  0  0  0  0
    8.2649   -6.7591   27.1477 C   0  0  0  0  0  0  0  0  0  0  0  0
    9.4073   -6.6157   28.1377 C   0  0  0  0  0  0  0  0  0  0  0  0
   10.6967   -6.1489   27.4694 C   0  0  0  0  0  0  0  0  0  0  0  0
   10.4950   -5.7059   26.0212 C   0  0  0  0  0  0  0  0  0  0  0  0
   10.0220    1.0430   23.6570 C   0  0  0  0  0  0  0  0  0  0  0  0
    9.4200   -0.0840   22.9530 C   0  0  2  0  0  0  0  0  0  0  0  0
    7.6830   -0.5170   18.7600 N   0  0  0  0  0  0  0  0  0  0  0  0
    6.9440    0.2550   18.0100 N   0  0  0  0  0  0  0  0  0  0  0  0
    5.9810    0.8330   18.8060 N   0  0  0  0  0  0  0  0  0  0  0  0
    9.2624   -4.9267   25.8634 N   0  0  0  0  0  0  0  0  0  0  0  0
    8.0810   -0.9750   21.0820 N   0  0  0  0  0  0  0  0  0  0  0  0
    6.9247   -5.0497   26.1749 O   0  0  0  0  0  0  0  0  0  0  0  0
    9.1870    1.1500   21.0630 O   0  0  0  0  0  0  0  0  0  0  0  0
   13.9830    0.5616   23.0583 S   0  0  0  0  0  0  0  0  0  0  0  0
    7.5948   -0.7783   24.7966 H   0  0  0  0  0  0  0  0  0  0  0  0
   11.0389   -2.1844   22.6342 H   0  0  0  0  0  0  0  0  0  0  0  0
    7.5642   -2.8624   26.1050 H   0  0  0  0  0  0  0  0  0  0  0  0
   11.0137   -4.2649   23.9418 H   0  0  0  0  0  0  0  0  0  0  0  0
   11.7523    3.3729   23.4608 H   0  0  0  0  0  0  0  0  0  0  0  0
   14.3230    2.9812   23.0695 H   0  0  0  0  0  0  0  0  0  0  0  0
   12.0981   -0.9711   23.2966 H   0  0  0  0  0  0  0  0  0  0  0  0
    5.4735    0.4758   22.1644 H   0  0  0  0  0  0  0  0  0  0  0  0
    3.6415    1.9967   21.6408 H   0  0  0  0  0  0  0  0  0  0  0  0
    3.2720    2.7926   19.2920 H   0  0  0  0  0  0  0  0  0  0  0  0
    4.8119    2.0418   17.5005 H   0  0  0  0  0  0  0  0  0  0  0  0
    7.3543   -6.9829   27.6818 H   0  0  0  0  0  0  0  0  0  0  0  0
    8.4783   -7.5436   26.4372 H   0  0  0  0  0  0  0  0  0  0  0  0
    9.1257   -5.9021   28.9399 H   0  0  0  0  0  0  0  0  0  0  0  0
    9.5814   -7.5840   28.6486 H   0  0  0  0  0  0  0  0  0  0  0  0
   11.1319   -5.3094   28.0513 H   0  0  0  0  0  0  0  0  0  0  0  0
   11.4591   -6.9570   27.5118 H   0  0  0  0  0  0  0  0  0  0  0  0
   11.3214   -5.0711   25.7158 H   0  0  0  0  0  0  0  0  0  0  0  0
   10.4496   -6.5786   25.3788 H   0  0  0  0  0  0  0  0  0  0  0  0
    9.8155    0.9894   24.7339 H   0  0  0  0  0  0  0  0  0  0  0  0
    9.5584    1.9798   23.3178 H   0  0  0  0  0  0  0  0  0  0  0  0
    8.1278    0.3254   23.5142 H   0  0  0  0  0  0  0  0  0  0  0  0
    8.1354   -1.7990   21.3694 H   0  0  0  0  0  0  0  0  0  0  0  0
  1  3  2  0  0  0  0
  1  8  1  0  0  0  0
  2  4  1  0  0  0  0
  2  8  2  0  0  0  0
  3 10  1  0  0  0  0
  4 10  2  0  0  0  0
  5  6  2  0  0  0  0
  5  9  1  0  0  0  0
  6 32  1  0  0  0  0
  7  9  2  0  0  0  0
  7 32  1  0  0  0  0
  8 24  1  0  0  0  0
  9 23  1  0  0  0  0
 10 28  1  0  0  0  0
 11 12  2  0  0  0  0
 11 13  1  0  0  0  0
 11 27  1  0  0  0  0
 12 25  1  0  0  0  0
 12 29  1  0  0  0  0
 13 14  2  0  0  0  0
 14 15  1  0  0  0  0
 15 16  2  0  0  0  0
 16 27  1  0  0  0  0
 17 19  1  0  0  0  0
 17 28  1  0  0  0  0
 17 30  2  0  0  0  0
 18 24  1  6  0  0  0
 18 29  1  0  0  0  0
 18 31  2  0  0  0  0
 19 20  1  0  0  0  0
 20 21  1  0  0  0  0
 21 22  1  0  0  0  0
 22 28  1  0  0  0  0
 23 24  1  0  0  0  0
 25 26  2  0  0  0  0
 26 27  1  0  0  0  0
  1 33  1  0  0  0  0
  2 34  1  0  0  0  0
  3 35  1  0  0  0  0
  4 36  1  0  0  0  0
  5 37  1  0  0  0  0
  6 38  1  0  0  0  0
  7 39  1  0  0  0  0
 13 40  1  0  0  0  0
 14 41  1  0  0  0  0
 15 42  1  0  0  0  0
 16 43  1  0  0  0  0
 19 44  1  0  0  0  0
 19 45  1  0  0  0  0
 20 46  1  0  0  0  0
 20 47  1  0  0  0  0
 21 48  1  0  0  0  0
 21 49  1  0  0  0  0
 22 50  1  0  0  0  0
 22 51  1  0  0  0  0
 23 52  1  0  0  0  0
 23 53  1  0  0  0  0
 24 54  1  0  0  0  0
 29 55  1  0  0  0  0
M  END
> <clash_score>
1.2728248649063287

> <docking_score>
-8.06045150756836

> <overlap_score>
1.0132300853729248

$$$$
BENZO_272_1
  -OEChem-08222022403D

 55 59  0     1  0  0  0  0  0999 V2000
    8.3510   -1.5420   24.6110 C   0  0  0  0  0  0  0  0  0  0  0  0
   10.2760   -2.3270   23.4020 C   0  0  0  0  0  0  0  0  0  0  0  0
    8.3310   -2.7170   25.3430 C   0  0  0  0  0  0  0  0  0  0  0  0
   10.2570   -3.5000   24.1350 C   0  0  0  0  0  0  0  0  0  0  0  0
   11.0518    0.9846   26.0345 C   0  0  0  0  0  0  0  0  0  0  0  0
   12.1353    0.4810   26.7201 C   0  0  0  0  0  0  0  0  0  0  0  0
   12.1840   -0.1301   24.3381 C   0  0  0  0  0  0  0  0  0  0  0  0
    9.3300   -1.3350   23.6390 C   0  0  0  0  0  0  0  0  0  0  0  0
   11.0798    0.6306   24.6546 C   0  0  0  0  0  0  0  0  0  0  0  0
    9.2850   -3.7090   25.1090 C   0  0  0  0  0  0  0  0  0  0  0  0
    6.1600    0.3870   20.1140 C   0  0  0  0  0  0  0  0  0  0  0  0
    7.2210   -0.4620   20.0350 C   0  0  0  0  0  0  0  0  0  0  0  0
    5.3360    0.8000   21.1530 C   0  0  0  0  0  0  0  0  0  0  0  0
    4.2970    1.6690   20.8430 C   0  0  0  0  0  0  0  0  0  0  0  0
    4.0980    2.1130   19.5350 C   0  0  0  0  0  0  0  0  0  0  0  0
    4.9400    1.7060   18.5060 C   0  0  0  0  0  0  0  0  0  0  0  0
    8.0643   -5.4721   26.3672 C   0  0  0  0  0  0  0  0  0  0  0  0
    8.9510    0.1280   21.6880 C   0  0  0  0  0  0  0  0  0  0  0  0
    8.2649   -6.7591   27.1477 C   0  0  0  0  0  0  0  0  0  0  0  0
    9.4073   -6.6157   28.1377 C   0  0  0  0  0  0  0  0  0  0  0  0
   10.6967   -6.1489   27.4694 C   0  0  0  0  0  0  0  0  0  0  0  0
   10.4950   -5.7059   26.0212 C   0  0  0  0  0  0  0  0  0  0  0  0
   10.0220    1.0430   23.6570 C   0  0  0  0  0  0  0  0  0  0  0  0
    9.4200   -0.0840   22.9530 C   0  0  1  0  0  0  0  0  0  0  0  0
    7.6830   -0.5170   18.7600 N   0  0  0  0  0  0  0  0  0  0  0  0
    6.9440    0.2550   18.0100 N   0  0  0  0  0  0  0  0  0  0  0  0
    5.9810    0.8330   18.8060 N   0  0  0  0  0  0  0  0  0  0  0  0
    9.2624   -4.9267   25.8634 N   0  0  0  0  0  0  0  0  0  0  0  0
    8.0810   -0.9750   21.0820 N   0  0  0  0  0  0  0  0  0  0  0  0
    6.9247   -5.0497   26.1749 O   0  0  0  0  0  0  0  0  0  0  0  0
    9.1870    1.1500   21.0630 O   0  0  0  0  0  0  0  0  0  0  0  0
   13.1804   -0.4146   25.7013 S   0  0  0  0  0  0  0  0  0  0  0  0
    7.5948   -0.7783   24.7966 H   0  0  0  0  0  0  0  0  0  0  0  0
   11.0389   -2.1844   22.6342 H   0  0  0  0  0  0  0  0  0  0  0  0
    7.5642   -2.8624   26.1050 H   0  0  0  0  0  0  0  0  0  0  0  0
   11.0137   -4.2649   23.9418 H   0  0  0  0  0  0  0  0  0  0  0  0
   10.2782    1.5788   26.5045 H   0  0  0  0  0  0  0  0  0  0  0  0
   12.3635    0.5966   27.7702 H   0  0  0  0  0  0  0  0  0  0  0  0
   12.4574   -0.5333   23.3728 H   0  0  0  0  0  0  0  0  0  0  0  0
    5.4735    0.4758   22.1644 H   0  0  0  0  0  0  0  0  0  0  0  0
    3.6415    1.9967   21.6408 H   0  0  0  0  0  0  0  0  0  0  0  0
    3.2720    2.7926   19.2921 H   0  0  0  0  0  0  0  0  0  0  0  0
    4.8119    2.0418   17.5005 H   0  0  0  0  0  0  0  0  0  0  0  0
    7.3543   -6.9829   27.6818 H   0  0  0  0  0  0  0  0  0  0  0  0
    8.4783   -7.5436   26.4372 H   0  0  0  0  0  0  0  0  0  0  0  0
    9.1257   -5.9021   28.9399 H   0  0  0  0  0  0  0  0  0  0  0  0
    9.5814   -7.5840   28.6486 H   0  0  0  0  0  0  0  0  0  0  0  0
   11.1319   -5.3094   28.0513 H   0  0  0  0  0  0  0  0  0  0  0  0
   11.4591   -6.9570   27.5118 H   0  0  0  0  0  0  0  0  0  0  0  0
   11.3214   -5.0711   25.7158 H   0  0  0  0  0  0  0  0  0  0  0  0
   10.4496   -6.5786   25.3788 H   0  0  0  0  0  0  0  0  0  0  0  0
    9.2564    1.6421   24.1671 H   0  0  0  0  0  0  0  0  0  0  0  0
   10.4893    1.7237   22.9318 H   0  0  0  0  0  0  0  0  0  0  0  0
   10.7366   -0.4277   22.4442 H   0  0  0  0  0  0  0  0  0  0  0  0
    8.1354   -1.7990   21.3694 H   0  0  0  0  0  0  0  0  0  0  0  0
  1  3  2  0  0  0  0
  1  8  1  0  0  0  0
  2  4  1  0  0  0  0
  2  8  2  0  0  0  0
  3 10  1  0  0  0  0
  4 10  2  0  0  0  0
  5  6  2  0  0  0  0
  5  9  1  0  0  0  0
  6 32  1  0  0  0  0
  7  9  2  0  0  0  0
  7 32  1  0  0  0  0
  8 24  1  0  0  0  0
  9 23  1  0  0  0  0
 10 28  1  0  0  0  0
 11 12  2  0  0  0  0
 11 13  1  0  0  0  0
 11 27  1  0  0  0  0
 12 25  1  0  0  0  0
 12 29  1  0  0  0  0
 13 14  2  0  0  0  0
 14 15  1  0  0  0  0
 15 16  2  0  0  0  0
 16 27  1  0  0  0  0
 17 19  1  0  0  0  0
 17 28  1  0  0  0  0
 17 30  2  0  0  0  0
 18 24  1  1  0  0  0
 18 29  1  0  0  0  0
 18 31  2  0  0  0  0
 19 20  1  0  0  0  0
 20 21  1  0  0  0  0
 21 22  1  0  0  0  0
 22 28  1  0  0  0  0
 23 24  1  0  0  0  0
 25 26  2  0  0  0  0
 26 27  1  0  0  0  0
  1 33  1  0  0  0  0
  2 34  1  0  0  0  0
  3 35  1  0  0  0  0
  4 36  1  0  0  0  0
  5 37  1  0  0  0  0
  6 38  1  0  0  0  0
  7 39  1  0  0  0  0
 13 40  1  0  0  0  0
 14 41  1  0  0  0  0
 15 42  1  0  0  0  0
 16 43  1  0  0  0  0
 19 44  1  0  0  0  0
 19 45  1  0  0  0  0
 20 46  1  0  0  0  0
 20 47  1  0  0  0  0
 21 48  1  0  0  0  0
 21 49  1  0  0  0  0
 22 50  1  0  0  0  0
 22 51  1  0  0  0  0
 23 52  1  0  0  0  0
 23 53  1  0  0  0  0
 24 54  1  0  0  0  0
 29 55  1  0  0  0  0
M  END
> <clash_score>
1.2728248649063287

> <docking_score>
-5.276790618896484

> <overlap_score>
0.8992475271224976

$$$$
BENZO_275_2
  -OEChem-08222022413D

 58 62  0     1  0  0  0  0  0999 V2000
    8.3510   -1.5420   24.6110 C   0  0  0  0  0  0  0  0  0  0  0  0
   10.2760   -2.3270   23.4020 C   0  0  0  0  0  0  0  0  0  0  0  0
    8.3310   -2.7170   25.3430 C   0  0  0  0  0  0  0  0  0  0  0  0
   10.2570   -3.5000   24.1350 C   0  0  0  0  0  0  0  0  0  0  0  0
   12.6370    0.8477   23.6904 C   0  0  0  0  0  0  0  0  0  0  0  0
   11.6104    0.2288   25.5338 C   0  0  0  0  0  0  0  0  0  0  0  0
    9.3300   -1.3350   23.6390 C   0  0  0  0  0  0  0  0  0  0  0  0
   11.3626    0.7171   24.2742 C   0  0  0  0  0  0  0  0  0  0  0  0
    9.2850   -3.7090   25.1090 C   0  0  0  0  0  0  0  0  0  0  0  0
    6.1600    0.3870   20.1140 C   0  0  0  0  0  0  0  0  0  0  0  0
    7.2210   -0.4620   20.0350 C   0  0  0  0  0  0  0  0  0  0  0  0
    5.3360    0.8000   21.1530 C   0  0  0  0  0  0  0  0  0  0  0  0
    4.2970    1.6690   20.8430 C   0  0  0  0  0  0  0  0  0  0  0  0
    4.0980    2.1130   19.5350 C   0  0  0  0  0  0  0  0  0  0  0  0
    4.9400    1.7060   18.5060 C   0  0  0  0  0  0  0  0  0  0  0  0
    8.0643   -5.4721   26.3672 C   0  0  0  0  0  0  0  0  0  0  0  0
    8.9510    0.1280   21.6880 C   0  0  0  0  0  0  0  0  0  0  0  0
    8.2649   -6.7591   27.1477 C   0  0  0  0  0  0  0  0  0  0  0  0
    9.4073   -6.6157   28.1377 C   0  0  0  0  0  0  0  0  0  0  0  0
   10.6967   -6.1489   27.4694 C   0  0  0  0  0  0  0  0  0  0  0  0
   10.4950   -5.7059   26.0212 C   0  0  0  0  0  0  0  0  0  0  0  0
   13.7058   -0.3764   26.7673 C   0  0  0  0  0  0  0  0  0  0  0  0
   10.0220    1.0430   23.6570 C   0  0  0  0  0  0  0  0  0  0  0  0
    9.4200   -0.0840   22.9530 C   0  0  2  0  0  0  0  0  0  0  0  0
   13.6213    0.4728   24.5118 N   0  0  0  0  0  0  0  0  0  0  0  0
    7.6830   -0.5170   18.7600 N   0  0  0  0  0  0  0  0  0  0  0  0
    6.9440    0.2550   18.0100 N   0  0  0  0  0  0  0  0  0  0  0  0
   12.9653    0.1019   25.6246 N   0  0  0  0  0  0  0  0  0  0  0  0
    5.9810    0.8330   18.8060 N   0  0  0  0  0  0  0  0  0  0  0  0
    9.2624   -4.9267   25.8634 N   0  0  0  0  0  0  0  0  0  0  0  0
    8.0810   -0.9750   21.0820 N   0  0  0  0  0  0  0  0  0  0  0  0
    6.9247   -5.0497   26.1749 O   0  0  0  0  0  0  0  0  0  0  0  0
    9.1870    1.1500   21.0630 O   0  0  0  0  0  0  0  0  0  0  0  0
    7.5948   -0.7783   24.7966 H   0  0  0  0  0  0  0  0  0  0  0  0
   11.0389   -2.1844   22.6342 H   0  0  0  0  0  0  0  0  0  0  0  0
    7.5642   -2.8624   26.1050 H   0  0  0  0  0  0  0  0  0  0  0  0
   11.0137   -4.2649   23.9418 H   0  0  0  0  0  0  0  0  0  0  0  0
   12.8920    1.2011   22.7013 H   0  0  0  0  0  0  0  0  0  0  0  0
   10.9543   -0.0315   26.3534 H   0  0  0  0  0  0  0  0  0  0  0  0
    5.4735    0.4758   22.1644 H   0  0  0  0  0  0  0  0  0  0  0  0
    3.6415    1.9967   21.6408 H   0  0  0  0  0  0  0  0  0  0  0  0
    3.2720    2.7926   19.2921 H   0  0  0  0  0  0  0  0  0  0  0  0
    4.8119    2.0418   17.5005 H   0  0  0  0  0  0  0  0  0  0  0  0
    7.3543   -6.9829   27.6818 H   0  0  0  0  0  0  0  0  0  0  0  0
    8.4783   -7.5436   26.4372 H   0  0  0  0  0  0  0  0  0  0  0  0
    9.1257   -5.9021   28.9399 H   0  0  0  0  0  0  0  0  0  0  0  0
    9.5814   -7.5840   28.6486 H   0  0  0  0  0  0  0  0  0  0  0  0
   11.1319   -5.3094   28.0513 H   0  0  0  0  0  0  0  0  0  0  0  0
   11.4591   -6.9570   27.5118 H   0  0  0  0  0  0  0  0  0  0  0  0
   11.3214   -5.0711   25.7158 H   0  0  0  0  0  0  0  0  0  0  0  0
   10.4496   -6.5786   25.3788 H   0  0  0  0  0  0  0  0  0  0  0  0
   13.8122   -1.4601   26.6708 H   0  0  0  0  0  0  0  0  0  0  0  0
   14.6882    0.1035   26.7915 H   0  0  0  0  0  0  0  0  0  0  0  0
   13.1616   -0.1245   27.6818 H   0  0  0  0  0  0  0  0  0  0  0  0
    9.3482    1.4259   24.4346 H   0  0  0  0  0  0  0  0  0  0  0  0
   10.1663    1.8793   22.9589 H   0  0  0  0  0  0  0  0  0  0  0  0
   10.7366   -0.4277   22.4442 H   0  0  0  0  0  0  0  0  0  0  0  0
    8.1354   -1.7990   21.3694 H   0  0  0  0  0  0  0  0  0  0  0  0
  1  3  2  0  0  0  0
  1  7  1  0  0  0  0
  2  4  1  0  0  0  0
  2  7  2  0  0  0  0
  3  9  1  0  0  0  0
  4  9  2  0  0  0  0
  5  8  1  0  0  0  0
  5 25  2  0  0  0  0
  6  8  2  0  0  0  0
  6 28  1  0  0  0  0
  7 24  1  0  0  0  0
  8 23  1  0  0  0  0
  9 30  1  0  0  0  0
 10 11  2  0  0  0  0
 10 12  1  0  0  0  0
 10 29  1  0  0  0  0
 11 26  1  0  0  0  0
 11 31  1  0  0  0  0
 12 13  2  0  0  0  0
 13 14  1  0  0  0  0
 14 15  2  0  0  0  0
 15 29  1  0  0  0  0
 16 18  1  0  0  0  0
 16 30  1  0  0  0  0
 16 32  2  0  0  0  0
 17 24  1  0  0  0  0
 17 31  1  0  0  0  0
 17 33  2  0  0  0  0
 18 19  1  0  0  0  0
 19 20  1  0  0  0  0
 20 21  1  0  0  0  0
 21 30  1  0  0  0  0
 22 28  1  0  0  0  0
 23 24  1  6  0  0  0
 25 28  1  0  0  0  0
 26 27  2  0  0  0  0
 27 29  1  0  0  0  0
  1 34  1  0  0  0  0
  2 35  1  0  0  0  0
  3 36  1  0  0  0  0
  4 37  1  0  0  0  0
  5 38  1  0  0  0  0
  6 39  1  0  0  0  0
 12 40  1  0  0  0  0
 13 41  1  0  0  0  0
 14 42  1  0  0  0  0
 15 43  1  0  0  0  0
 18 44  1  0  0  0  0
 18 45  1  0  0  0  0
 19 46  1  0  0  0  0
 19 47  1  0  0  0  0
 20 48  1  0  0  0  0
 20 49  1  0  0  0  0
 21 50  1  0  0  0  0
 21 51  1  0  0  0  0
 22 52  1  0  0  0  0
 22 53  1  0  0  0  0
 22 54  1  0  0  0  0
 23 55  1  0  0  0  0
 23 56  1  0  0  0  0
 24 57  1  0  0  0  0
 31 58  1  0  0  0  0
M  END
> <clash_score>
2.007716923079976

> <docking_score>
-6.121309757232666

> <overlap_score>
0.9403040409088135

$$$$
BENZO_275_1
  -OEChem-08222022413D

 58 62  0     1  0  0  0  0  0999 V2000
    8.3510   -1.5420   24.6110 C   0  0  0  0  0  0  0  0  0  0  0  0
   10.2760   -2.3270   23.4020 C   0  0  0  0  0  0  0  0  0  0  0  0
    8.3310   -2.7170   25.3430 C   0  0  0  0  0  0  0  0  0  0  0  0
   10.2570   -3.5000   24.1350 C   0  0  0  0  0  0  0  0  0  0  0  0
   12.2990    2.3261   23.4415 C   0  0  0  0  0  0  0  0  0  0  0  0
   12.4071    0.1434   23.1983 C   0  0  0  0  0  0  0  0  0  0  0  0
    9.3300   -1.3350   23.6390 C   0  0  0  0  0  0  0  0  0  0  0  0
   11.5133    1.1580   23.4397 C   0  0  0  0  0  0  0  0  0  0  0  0
    9.2850   -3.7090   25.1090 C   0  0  0  0  0  0  0  0  0  0  0  0
    6.1600    0.3870   20.1140 C   0  0  0  0  0  0  0  0  0  0  0  0
    7.2210   -0.4620   20.0350 C   0  0  0  0  0  0  0  0  0  0  0  0
    5.3360    0.8000   21.1530 C   0  0  0  0  0  0  0  0  0  0  0  0
    4.2970    1.6690   20.8430 C   0  0  0  0  0  0  0  0  0  0  0  0
    4.0980    2.1130   19.5350 C   0  0  0  0  0  0  0  0  0  0  0  0
    4.9400    1.7060   18.5060 C   0  0  0  0  0  0  0  0  0  0  0  0
    8.0643   -5.4721   26.3672 C   0  0  0  0  0  0  0  0  0  0  0  0
    8.9510    0.1280   21.6880 C   0  0  0  0  0  0  0  0  0  0  0  0
    8.2649   -6.7591   27.1477 C   0  0  0  0  0  0  0  0  0  0  0  0
    9.4073   -6.6157   28.1377 C   0  0  0  0  0  0  0  0  0  0  0  0
   10.6967   -6.1489   27.4694 C   0  0  0  0  0  0  0  0  0  0  0  0
   10.4950   -5.7059   26.0212 C   0  0  0  0  0  0  0  0  0  0  0  0
   14.8827    0.0808   22.8159 C   0  0  0  0  0  0  0  0  0  0  0  0
   10.0220    1.0430   23.6570 C   0  0  0  0  0  0  0  0  0  0  0  0
    9.4200   -0.0840   22.9530 C   0  0  1  0  0  0  0  0  0  0  0  0
   13.5924    2.0778   23.2192 N   0  0  0  0  0  0  0  0  0  0  0  0
    7.6830   -0.5170   18.7600 N   0  0  0  0  0  0  0  0  0  0  0  0
    6.9440    0.2550   18.0100 N   0  0  0  0  0  0  0  0  0  0  0  0
   13.6264    0.7421   23.0755 N   0  0  0  0  0  0  0  0  0  0  0  0
    5.9810    0.8330   18.8060 N   0  0  0  0  0  0  0  0  0  0  0  0
    9.2624   -4.9267   25.8634 N   0  0  0  0  0  0  0  0  0  0  0  0
    8.0810   -0.9750   21.0820 N   0  0  0  0  0  0  0  0  0  0  0  0
    6.9247   -5.0497   26.1749 O   0  0  0  0  0  0  0  0  0  0  0  0
    9.1870    1.1500   21.0630 O   0  0  0  0  0  0  0  0  0  0  0  0
    7.5948   -0.7783   24.7966 H   0  0  0  0  0  0  0  0  0  0  0  0
   11.0389   -2.1844   22.6342 H   0  0  0  0  0  0  0  0  0  0  0  0
    7.5642   -2.8624   26.1050 H   0  0  0  0  0  0  0  0  0  0  0  0
   11.0137   -4.2649   23.9418 H   0  0  0  0  0  0  0  0  0  0  0  0
   11.9854    3.3488   23.5963 H   0  0  0  0  0  0  0  0  0  0  0  0
   12.2826   -0.9272   23.1071 H   0  0  0  0  0  0  0  0  0  0  0  0
    5.4735    0.4758   22.1644 H   0  0  0  0  0  0  0  0  0  0  0  0
    3.6415    1.9967   21.6408 H   0  0  0  0  0  0  0  0  0  0  0  0
    3.2720    2.7926   19.2920 H   0  0  0  0  0  0  0  0  0  0  0  0
    4.8119    2.0418   17.5005 H   0  0  0  0  0  0  0  0  0  0  0  0
    7.3543   -6.9829   27.6818 H   0  0  0  0  0  0  0  0  0  0  0  0
    8.4783   -7.5436   26.4372 H   0  0  0  0  0  0  0  0  0  0  0  0
    9.1257   -5.9021   28.9399 H   0  0  0  0  0  0  0  0  0  0  0  0
    9.5814   -7.5840   28.6486 H   0  0  0  0  0  0  0  0  0  0  0  0
   11.1319   -5.3094   28.0513 H   0  0  0  0  0  0  0  0  0  0  0  0
   11.4591   -6.9570   27.5118 H   0  0  0  0  0  0  0  0  0  0  0  0
   11.3214   -5.0711   25.7158 H   0  0  0  0  0  0  0  0  0  0  0  0
   10.4496   -6.5786   25.3788 H   0  0  0  0  0  0  0  0  0  0  0  0
   15.0210    0.0326   21.7326 H   0  0  0  0  0  0  0  0  0  0  0  0
   15.6949    0.6470   23.2802 H   0  0  0  0  0  0  0  0  0  0  0  0
   14.8568   -0.9251   23.2443 H   0  0  0  0  0  0  0  0  0  0  0  0
    9.8155    0.9894   24.7339 H   0  0  0  0  0  0  0  0  0  0  0  0
    9.5584    1.9798   23.3178 H   0  0  0  0  0  0  0  0  0  0  0  0
    8.1278    0.3254   23.5142 H   0  0  0  0  0  0  0  0  0  0  0  0
    8.1354   -1.7990   21.3694 H   0  0  0  0  0  0  0  0  0  0  0  0
  1  3  2  0  0  0  0
  1  7  1  0  0  0  0
  2  4  1  0  0  0  0
  2  7  2  0  0  0  0
  3  9  1  0  0  0  0
  4  9  2  0  0  0  0
  5  8  1  0  0  0  0
  5 25  2  0  0  0  0
  6  8  2  0  0  0  0
  6 28  1  0  0  0  0
  7 24  1  0  0  0  0
  8 23  1  0  0  0  0
  9 30  1  0  0  0  0
 10 11  2  0  0  0  0
 10 12  1  0  0  0  0
 10 29  1  0  0  0  0
 11 26  1  0  0  0  0
 11 31  1  0  0  0  0
 12 13  2  0  0  0  0
 13 14  1  0  0  0  0
 14 15  2  0  0  0  0
 15 29  1  0  0  0  0
 16 18  1  0  0  0  0
 16 30  1  0  0  0  0
 16 32  2  0  0  0  0
 17 24  1  0  0  0  0
 17 31  1  0  0  0  0
 17 33  2  0  0  0  0
 18 19  1  0  0  0  0
 19 20  1  0  0  0  0
 20 21  1  0  0  0  0
 21 30  1  0  0  0  0
 22 28  1  0  0  0  0
 23 24  1  1  0  0  0
 25 28  1  0  0  0  0
 26 27  2  0  0  0  0
 27 29  1  0  0  0  0
  1 34  1  0  0  0  0
  2 35  1  0  0  0  0
  3 36  1  0  0  0  0
  4 37  1  0  0  0  0
  5 38  1  0  0  0  0
  6 39  1  0  0  0  0
 12 40  1  0  0  0  0
 13 41  1  0  0  0  0
 14 42  1  0  0  0  0
 15 43  1  0  0  0  0
 18 44  1  0  0  0  0
 18 45  1  0  0  0  0
 19 46  1  0  0  0  0
 19 47  1  0  0  0  0
 20 48  1  0  0  0  0
 20 49  1  0  0  0  0
 21 50  1  0  0  0  0
 21 51  1  0  0  0  0
 22 52  1  0  0  0  0
 22 53  1  0  0  0  0
 22 54  1  0  0  0  0
 23 55  1  0  0  0  0
 23 56  1  0  0  0  0
 24 57  1  0  0  0  0
 31 58  1  0  0  0  0
M  END
> <clash_score>
1.2728248649063287

> <docking_score>
-7.920361518859863

> <overlap_score>
1.0278980731964111

$$$$
BENZO_274_1
  -OEChem-08222022413D

 58 62  0     1  0  0  0  0  0999 V2000
   13.7706    0.6101   24.1094 C   0  0  0  0  0  0  0  0  0  0  0  0
   12.5330    0.9096   23.5401 C   0  0  0  0  0  0  0  0  0  0  0  0
    8.3510   -1.5420   24.6110 C   0  0  0  0  0  0  0  0  0  0  0  0
   10.2760   -2.3270   23.4020 C   0  0  0  0  0  0  0  0  0  0  0  0
    8.3310   -2.7170   25.3430 C   0  0  0  0  0  0  0  0  0  0  0  0
   10.2570   -3.5000   24.1350 C   0  0  0  0  0  0  0  0  0  0  0  0
   13.8379    0.1181   25.4130 C   0  0  0  0  0  0  0  0  0  0  0  0
   11.4299    0.2252   25.5777 C   0  0  0  0  0  0  0  0  0  0  0  0
    9.3300   -1.3350   23.6390 C   0  0  0  0  0  0  0  0  0  0  0  0
   11.3626    0.7171   24.2742 C   0  0  0  0  0  0  0  0  0  0  0  0
    9.2850   -3.7090   25.1090 C   0  0  0  0  0  0  0  0  0  0  0  0
   12.6676   -0.0743   26.1471 C   0  0  0  0  0  0  0  0  0  0  0  0
    6.1600    0.3870   20.1140 C   0  0  0  0  0  0  0  0  0  0  0  0
    7.2210   -0.4620   20.0350 C   0  0  0  0  0  0  0  0  0  0  0  0
    5.3360    0.8000   21.1530 C   0  0  0  0  0  0  0  0  0  0  0  0
    4.2970    1.6690   20.8430 C   0  0  0  0  0  0  0  0  0  0  0  0
    4.0980    2.1130   19.5350 C   0  0  0  0  0  0  0  0  0  0  0  0
    4.9400    1.7060   18.5060 C   0  0  0  0  0  0  0  0  0  0  0  0
    8.0643   -5.4721   26.3672 C   0  0  0  0  0  0  0  0  0  0  0  0
    8.9510    0.1280   21.6880 C   0  0  0  0  0  0  0  0  0  0  0  0
    8.2649   -6.7591   27.1477 C   0  0  0  0  0  0  0  0  0  0  0  0
    9.4073   -6.6157   28.1377 C   0  0  0  0  0  0  0  0  0  0  0  0
   10.6967   -6.1489   27.4694 C   0  0  0  0  0  0  0  0  0  0  0  0
   10.4950   -5.7059   26.0212 C   0  0  0  0  0  0  0  0  0  0  0  0
   10.0220    1.0430   23.6570 C   0  0  0  0  0  0  0  0  0  0  0  0
    9.4200   -0.0840   22.9530 C   0  0  1  0  0  0  0  0  0  0  0  0
    7.6830   -0.5170   18.7600 N   0  0  0  0  0  0  0  0  0  0  0  0
    6.9440    0.2550   18.0100 N   0  0  0  0  0  0  0  0  0  0  0  0
    5.9810    0.8330   18.8060 N   0  0  0  0  0  0  0  0  0  0  0  0
    9.2624   -4.9267   25.8634 N   0  0  0  0  0  0  0  0  0  0  0  0
    8.0810   -0.9750   21.0820 N   0  0  0  0  0  0  0  0  0  0  0  0
    6.9247   -5.0497   26.1749 O   0  0  0  0  0  0  0  0  0  0  0  0
    9.1870    1.1500   21.0630 O   0  0  0  0  0  0  0  0  0  0  0  0
   12.7514   -0.6802   27.7557 Cl  0  0  0  0  0  0  0  0  0  0  0  0
   14.6817    0.7602   23.5375 H   0  0  0  0  0  0  0  0  0  0  0  0
   12.4900    1.2926   22.5238 H   0  0  0  0  0  0  0  0  0  0  0  0
    7.5948   -0.7783   24.7966 H   0  0  0  0  0  0  0  0  0  0  0  0
   11.0389   -2.1844   22.6342 H   0  0  0  0  0  0  0  0  0  0  0  0
    7.5642   -2.8624   26.1050 H   0  0  0  0  0  0  0  0  0  0  0  0
   11.0137   -4.2649   23.9418 H   0  0  0  0  0  0  0  0  0  0  0  0
   14.8095   -0.1107   25.8440 H   0  0  0  0  0  0  0  0  0  0  0  0
   10.5145    0.0764   26.1458 H   0  0  0  0  0  0  0  0  0  0  0  0
    5.4735    0.4758   22.1644 H   0  0  0  0  0  0  0  0  0  0  0  0
    3.6415    1.9967   21.6408 H   0  0  0  0  0  0  0  0  0  0  0  0
    3.2720    2.7926   19.2921 H   0  0  0  0  0  0  0  0  0  0  0  0
    4.8119    2.0418   17.5005 H   0  0  0  0  0  0  0  0  0  0  0  0
    7.3543   -6.9829   27.6818 H   0  0  0  0  0  0  0  0  0  0  0  0
    8.4783   -7.5436   26.4372 H   0  0  0  0  0  0  0  0  0  0  0  0
    9.1257   -5.9021   28.9399 H   0  0  0  0  0  0  0  0  0  0  0  0
    9.5814   -7.5840   28.6486 H   0  0  0  0  0  0  0  0  0  0  0  0
   11.1319   -5.3094   28.0513 H   0  0  0  0  0  0  0  0  0  0  0  0
   11.4591   -6.9570   27.5118 H   0  0  0  0  0  0  0  0  0  0  0  0
   11.3214   -5.0711   25.7158 H   0  0  0  0  0  0  0  0  0  0  0  0
   10.4496   -6.5786   25.3788 H   0  0  0  0  0  0  0  0  0  0  0  0
    9.3482    1.4259   24.4346 H   0  0  0  0  0  0  0  0  0  0  0  0
   10.1663    1.8793   22.9589 H   0  0  0  0  0  0  0  0  0  0  0  0
   10.7366   -0.4277   22.4442 H   0  0  0  0  0  0  0  0  0  0  0  0
    8.1354   -1.7990   21.3694 H   0  0  0  0  0  0  0  0  0  0  0  0
  1  2  2  0  0  0  0
  1  7  1  0  0  0  0
  2 10  1  0  0  0  0
  3  5  2  0  0  0  0
  3  9  1  0  0  0  0
  4  6  1  0  0  0  0
  4  9  2  0  0  0  0
  5 11  1  0  0  0  0
  6 11  2  0  0  0  0
  7 12  2  0  0  0  0
  8 10  2  0  0  0  0
  8 12  1  0  0  0  0
  9 26  1  0  0  0  0
 10 25  1  0  0  0  0
 11 30  1  0  0  0  0
 12 34  1  0  0  0  0
 13 14  2  0  0  0  0
 13 15  1  0  0  0  0
 13 29  1  0  0  0  0
 14 27  1  0  0  0  0
 14 31  1  0  0  0  0
 15 16  2  0  0  0  0
 16 17  1  0  0  0  0
 17 18  2  0  0  0  0
 18 29  1  0  0  0  0
 19 21  1  0  0  0  0
 19 30  1  0  0  0  0
 19 32  2  0  0  0  0
 20 26  1  1  0  0  0
 20 31  1  0  0  0  0
 20 33  2  0  0  0  0
 21 22  1  0  0  0  0
 22 23  1  0  0  0  0
 23 24  1  0  0  0  0
 24 30  1  0  0  0  0
 25 26  1  0  0  0  0
 27 28  2  0  0  0  0
 28 29  1  0  0  0  0
  1 35  1  0  0  0  0
  2 36  1  0  0  0  0
  3 37  1  0  0  0  0
  4 38  1  0  0  0  0
  5 39  1  0  0  0  0
  6 40  1  0  0  0  0
  7 41  1  0  0  0  0
  8 42  1  0  0  0  0
 15 43  1  0  0  0  0
 16 44  1  0  0  0  0
 17 45  1  0  0  0  0
 18 46  1  0  0  0  0
 21 47  1  0  0  0  0
 21 48  1  0  0  0  0
 22 49  1  0  0  0  0
 22 50  1  0  0  0  0
 23 51  1  0  0  0  0
 23 52  1  0  0  0  0
 24 53  1  0  0  0  0
 24 54  1  0  0  0  0
 25 55  1  0  0  0  0
 25 56  1  0  0  0  0
 26 57  1  0  0  0  0
 31 58  1  0  0  0  0
M  END
> <clash_score>
2.837865166907086

> <docking_score>
-5.358646392822266

> <overlap_score>
0.9476150870323181

$$$$
BENZO_274_2
  -OEChem-08222022413D

 58 62  0     1  0  0  0  0  0999 V2000
   13.7717    0.6099   24.1002 C   0  0  0  0  0  0  0  0  0  0  0  0
   12.3953    0.5052   24.3009 C   0  0  0  0  0  0  0  0  0  0  0  0
    8.3510   -1.5420   24.6110 C   0  0  0  0  0  0  0  0  0  0  0  0
   10.2760   -2.3270   23.4020 C   0  0  0  0  0  0  0  0  0  0  0  0
    8.3310   -2.7170   25.3430 C   0  0  0  0  0  0  0  0  0  0  0  0
   10.2570   -3.5000   24.1350 C   0  0  0  0  0  0  0  0  0  0  0  0
   14.2660    1.3675   23.0384 C   0  0  0  0  0  0  0  0  0  0  0  0
   12.0077    1.9155   22.3778 C   0  0  0  0  0  0  0  0  0  0  0  0
    9.3300   -1.3350   23.6390 C   0  0  0  0  0  0  0  0  0  0  0  0
   11.5133    1.1580   23.4397 C   0  0  0  0  0  0  0  0  0  0  0  0
    9.2850   -3.7090   25.1090 C   0  0  0  0  0  0  0  0  0  0  0  0
   13.3840    2.0203   22.1772 C   0  0  0  0  0  0  0  0  0  0  0  0
    6.1600    0.3870   20.1140 C   0  0  0  0  0  0  0  0  0  0  0  0
    7.2210   -0.4620   20.0350 C   0  0  0  0  0  0  0  0  0  0  0  0
    5.3360    0.8000   21.1530 C   0  0  0  0  0  0  0  0  0  0  0  0
    4.2970    1.6690   20.8430 C   0  0  0  0  0  0  0  0  0  0  0  0
    4.0980    2.1130   19.5350 C   0  0  0  0  0  0  0  0  0  0  0  0
    4.9400    1.7060   18.5060 C   0  0  0  0  0  0  0  0  0  0  0  0
    8.2936   -5.1727   26.8573 C   0  0  0  0  0  0  0  0  0  0  0  0
    8.9510    0.1280   21.6880 C   0  0  0  0  0  0  0  0  0  0  0  0
    8.4570   -6.5172   27.5438 C   0  0  0  0  0  0  0  0  0  0  0  0
    9.9041   -6.7452   27.9437 C   0  0  0  0  0  0  0  0  0  0  0  0
   10.8613   -6.5876   26.7664 C   0  0  0  0  0  0  0  0  0  0  0  0
   10.1902   -6.0099   25.5212 C   0  0  0  0  0  0  0  0  0  0  0  0
   10.0220    1.0430   23.6570 C   0  0  0  0  0  0  0  0  0  0  0  0
    9.4200   -0.0840   22.9530 C   0  0  2  0  0  0  0  0  0  0  0  0
    7.6830   -0.5170   18.7600 N   0  0  0  0  0  0  0  0  0  0  0  0
    6.9440    0.2550   18.0100 N   0  0  0  0  0  0  0  0  0  0  0  0
    5.9810    0.8330   18.8060 N   0  0  0  0  0  0  0  0  0  0  0  0
    9.2624   -4.9267   25.8634 N   0  0  0  0  0  0  0  0  0  0  0  0
    8.0810   -0.9750   21.0820 N   0  0  0  0  0  0  0  0  0  0  0  0
    7.3372   -4.4549   27.1472 O   0  0  0  0  0  0  0  0  0  0  0  0
    9.1870    1.1500   21.0630 O   0  0  0  0  0  0  0  0  0  0  0  0
   13.9945    2.9538   20.8667 Cl  0  0  0  0  0  0  0  0  0  0  0  0
   14.4581    0.1014   24.7709 H   0  0  0  0  0  0  0  0  0  0  0  0
   12.0190   -0.0873   25.1307 H   0  0  0  0  0  0  0  0  0  0  0  0
    7.5948   -0.7783   24.7966 H   0  0  0  0  0  0  0  0  0  0  0  0
   11.0389   -2.1844   22.6342 H   0  0  0  0  0  0  0  0  0  0  0  0
    7.5642   -2.8624   26.1050 H   0  0  0  0  0  0  0  0  0  0  0  0
   11.0137   -4.2649   23.9418 H   0  0  0  0  0  0  0  0  0  0  0  0
   15.3412    1.4401   22.8940 H   0  0  0  0  0  0  0  0  0  0  0  0
   11.3158    2.4230   21.7095 H   0  0  0  0  0  0  0  0  0  0  0  0
    5.4735    0.4758   22.1644 H   0  0  0  0  0  0  0  0  0  0  0  0
    3.6415    1.9967   21.6408 H   0  0  0  0  0  0  0  0  0  0  0  0
    3.2720    2.7926   19.2920 H   0  0  0  0  0  0  0  0  0  0  0  0
    4.8119    2.0418   17.5005 H   0  0  0  0  0  0  0  0  0  0  0  0
    7.8354   -6.5308   28.4258 H   0  0  0  0  0  0  0  0  0  0  0  0
    8.1327   -7.2802   26.8520 H   0  0  0  0  0  0  0  0  0  0  0  0
   10.1894   -6.0388   28.7510 H   0  0  0  0  0  0  0  0  0  0  0  0
   10.0147   -7.7577   28.3814 H   0  0  0  0  0  0  0  0  0  0  0  0
   11.7074   -5.9326   27.0628 H   0  0  0  0  0  0  0  0  0  0  0  0
   11.3252   -7.5678   26.5219 H   0  0  0  0  0  0  0  0  0  0  0  0
   10.9447   -5.5942   24.8603 H   0  0  0  0  0  0  0  0  0  0  0  0
    9.6472   -6.7947   25.0059 H   0  0  0  0  0  0  0  0  0  0  0  0
    9.8155    0.9894   24.7339 H   0  0  0  0  0  0  0  0  0  0  0  0
    9.5584    1.9798   23.3178 H   0  0  0  0  0  0  0  0  0  0  0  0
    8.1278    0.3254   23.5142 H   0  0  0  0  0  0  0  0  0  0  0  0
    8.1354   -1.7990   21.3694 H   0  0  0  0  0  0  0  0  0  0  0  0
  1  2  2  0  0  0  0
  1  7  1  0  0  0  0
  2 10  1  0  0  0  0
  3  5  2  0  0  0  0
  3  9  1  0  0  0  0
  4  6  1  0  0  0  0
  4  9  2  0  0  0  0
  5 11  1  0  0  0  0
  6 11  2  0  0  0  0
  7 12  2  0  0  0  0
  8 10  2  0  0  0  0
  8 12  1  0  0  0  0
  9 26  1  0  0  0  0
 10 25  1  0  0  0  0
 11 30  1  0  0  0  0
 12 34  1  0  0  0  0
 13 14  2  0  0  0  0
 13 15  1  0  0  0  0
 13 29  1  0  0  0  0
 14 27  1  0  0  0  0
 14 31  1  0  0  0  0
 15 16  2  0  0  0  0
 16 17  1  0  0  0  0
 17 18  2  0  0  0  0
 18 29  1  0  0  0  0
 19 21  1  0  0  0  0
 19 30  1  0  0  0  0
 19 32  2  0  0  0  0
 20 26  1  6  0  0  0
 20 31  1  0  0  0  0
 20 33  2  0  0  0  0
 21 22  1  0  0  0  0
 22 23  1  0  0  0  0
 23 24  1  0  0  0  0
 24 30  1  0  0  0  0
 25 26  1  0  0  0  0
 27 28  2  0  0  0  0
 28 29  1  0  0  0  0
  1 35  1  0  0  0  0
  2 36  1  0  0  0  0
  3 37  1  0  0  0  0
  4 38  1  0  0  0  0
  5 39  1  0  0  0  0
  6 40  1  0  0  0  0
  7 41  1  0  0  0  0
  8 42  1  0  0  0  0
 15 43  1  0  0  0  0
 16 44  1  0  0  0  0
 17 45  1  0  0  0  0
 18 46  1  0  0  0  0
 21 47  1  0  0  0  0
 21 48  1  0  0  0  0
 22 49  1  0  0  0  0
 22 50  1  0  0  0  0
 23 51  1  0  0  0  0
 23 52  1  0  0  0  0
 24 53  1  0  0  0  0
 24 54  1  0  0  0  0
 25 55  1  0  0  0  0
 25 56  1  0  0  0  0
 26 57  1  0  0  0  0
 31 58  1  0  0  0  0
M  END
> <clash_score>
2.0601108515385818

> <docking_score>
-6.387094974517822

> <overlap_score>
1.0297893285751343

$$$$
BENZO_277_1
  -OEChem-08222022413D

 57 61  0     1  0  0  0  0  0999 V2000
   13.8377    0.1157   25.4121 C   0  0  0  0  0  0  0  0  0  0  0  0
   12.6675   -0.0757   26.1466 C   0  0  0  0  0  0  0  0  0  0  0  0
   13.7705    0.6079   24.1087 C   0  0  0  0  0  0  0  0  0  0  0  0
   11.4299    0.2251   25.5777 C   0  0  0  0  0  0  0  0  0  0  0  0
   12.5329    0.9086   23.5397 C   0  0  0  0  0  0  0  0  0  0  0  0
    8.3510   -1.5420   24.6110 C   0  0  0  0  0  0  0  0  0  0  0  0
   10.2760   -2.3270   23.4020 C   0  0  0  0  0  0  0  0  0  0  0  0
    8.3310   -2.7170   25.3430 C   0  0  0  0  0  0  0  0  0  0  0  0
   10.2570   -3.5000   24.1350 C   0  0  0  0  0  0  0  0  0  0  0  0
   11.3626    0.7172   24.2742 C   0  0  0  0  0  0  0  0  0  0  0  0
    9.3300   -1.3350   23.6390 C   0  0  0  0  0  0  0  0  0  0  0  0
    9.2850   -3.7090   25.1090 C   0  0  0  0  0  0  0  0  0  0  0  0
    6.1600    0.3870   20.1140 C   0  0  0  0  0  0  0  0  0  0  0  0
    7.2210   -0.4620   20.0350 C   0  0  0  0  0  0  0  0  0  0  0  0
    5.3360    0.8000   21.1530 C   0  0  0  0  0  0  0  0  0  0  0  0
    4.2970    1.6690   20.8430 C   0  0  0  0  0  0  0  0  0  0  0  0
    4.0980    2.1130   19.5350 C   0  0  0  0  0  0  0  0  0  0  0  0
    4.9400    1.7060   18.5060 C   0  0  0  0  0  0  0  0  0  0  0  0
    8.9510    0.1280   21.6880 C   0  0  0  0  0  0  0  0  0  0  0  0
    8.7671   -4.9535   27.2147 C   0  0  0  0  0  0  0  0  0  0  0  0
    9.3066   -6.1865   25.1649 C   0  0  0  0  0  0  0  0  0  0  0  0
    7.3847   -5.5970   27.2000 C   0  0  0  0  0  0  0  0  0  0  0  0
    7.9070   -6.7999   25.2264 C   0  0  0  0  0  0  0  0  0  0  0  0
   10.0220    1.0430   23.6570 C   0  0  0  0  0  0  0  0  0  0  0  0
    9.4200   -0.0840   22.9530 C   0  0  1  0  0  0  0  0  0  0  0  0
    7.6830   -0.5170   18.7600 N   0  0  0  0  0  0  0  0  0  0  0  0
    6.9440    0.2550   18.0100 N   0  0  0  0  0  0  0  0  0  0  0  0
    5.9810    0.8330   18.8060 N   0  0  0  0  0  0  0  0  0  0  0  0
    9.2641   -4.8845   25.8388 N   0  0  0  0  0  0  0  0  0  0  0  0
    8.0810   -0.9750   21.0820 N   0  0  0  0  0  0  0  0  0  0  0  0
    9.1870    1.1500   21.0630 O   0  0  0  0  0  0  0  0  0  0  0  0
    7.4533   -6.8877   26.5818 O   0  0  0  0  0  0  0  0  0  0  0  0
   14.8013   -0.1172   25.8558 H   0  0  0  0  0  0  0  0  0  0  0  0
   12.7197   -0.4578   27.1619 H   0  0  0  0  0  0  0  0  0  0  0  0
   14.6814    0.7580   23.5370 H   0  0  0  0  0  0  0  0  0  0  0  0
   10.5233    0.0726   26.1574 H   0  0  0  0  0  0  0  0  0  0  0  0
   12.4902    1.2914   22.5235 H   0  0  0  0  0  0  0  0  0  0  0  0
    7.5957   -0.7779   24.7973 H   0  0  0  0  0  0  0  0  0  0  0  0
   11.0384   -2.1852   22.6338 H   0  0  0  0  0  0  0  0  0  0  0  0
    7.5634   -2.8637   26.1037 H   0  0  0  0  0  0  0  0  0  0  0  0
   11.0139   -4.2645   23.9419 H   0  0  0  0  0  0  0  0  0  0  0  0
    5.4735    0.4758   22.1644 H   0  0  0  0  0  0  0  0  0  0  0  0
    3.6415    1.9967   21.6408 H   0  0  0  0  0  0  0  0  0  0  0  0
    3.2720    2.7926   19.2921 H   0  0  0  0  0  0  0  0  0  0  0  0
    4.8119    2.0418   17.5005 H   0  0  0  0  0  0  0  0  0  0  0  0
    8.7013   -3.9575   27.6574 H   0  0  0  0  0  0  0  0  0  0  0  0
    9.4480   -5.5636   27.8142 H   0  0  0  0  0  0  0  0  0  0  0  0
   10.0131   -6.8375   25.6814 H   0  0  0  0  0  0  0  0  0  0  0  0
    9.6116   -6.0794   24.1250 H   0  0  0  0  0  0  0  0  0  0  0  0
    7.0306   -5.7388   28.2232 H   0  0  0  0  0  0  0  0  0  0  0  0
    6.6546   -4.9740   26.6757 H   0  0  0  0  0  0  0  0  0  0  0  0
    7.1892   -6.2226   24.6319 H   0  0  0  0  0  0  0  0  0  0  0  0
    7.9315   -7.8151   24.8187 H   0  0  0  0  0  0  0  0  0  0  0  0
    9.3482    1.4259   24.4346 H   0  0  0  0  0  0  0  0  0  0  0  0
   10.1663    1.8792   22.9588 H   0  0  0  0  0  0  0  0  0  0  0  0
   10.7366   -0.4277   22.4442 H   0  0  0  0  0  0  0  0  0  0  0  0
    8.1354   -1.7990   21.3694 H   0  0  0  0  0  0  0  0  0  0  0  0
  1  2  1  0  0  0  0
  1  3  2  0  0  0  0
  2  4  2  0  0  0  0
  3  5  1  0  0  0  0
  4 10  1  0  0  0  0
  5 10  2  0  0  0  0
  6  8  2  0  0  0  0
  6 11  1  0  0  0  0
  7  9  1  0  0  0  0
  7 11  2  0  0  0  0
  8 12  1  0  0  0  0
  9 12  2  0  0  0  0
 10 24  1  0  0  0  0
 11 25  1  0  0  0  0
 12 29  1  0  0  0  0
 13 14  2  0  0  0  0
 13 15  1  0  0  0  0
 13 28  1  0  0  0  0
 14 26  1  0  0  0  0
 14 30  1  0  0  0  0
 15 16  2  0  0  0  0
 16 17  1  0  0  0  0
 17 18  2  0  0  0  0
 18 28  1  0  0  0  0
 19 25  1  1  0  0  0
 19 30  1  0  0  0  0
 19 31  2  0  0  0  0
 20 22  1  0  0  0  0
 20 29  1  0  0  0  0
 21 23  1  0  0  0  0
 21 29  1  0  0  0  0
 22 32  1  0  0  0  0
 23 32  1  0  0  0  0
 24 25  1  0  0  0  0
 26 27  2  0  0  0  0
 27 28  1  0  0  0  0
  1 33  1  0  0  0  0
  2 34  1  0  0  0  0
  3 35  1  0  0  0  0
  4 36  1  0  0  0  0
  5 37  1  0  0  0  0
  6 38  1  0  0  0  0
  7 39  1  0  0  0  0
  8 40  1  0  0  0  0
  9 41  1  0  0  0  0
 15 42  1  0  0  0  0
 16 43  1  0  0  0  0
 17 44  1  0  0  0  0
 18 45  1  0  0  0  0
 20 46  1  0  0  0  0
 20 47  1  0  0  0  0
 21 48  1  0  0  0  0
 21 49  1  0  0  0  0
 22 50  1  0  0  0  0
 22 51  1  0  0  0  0
 23 52  1  0  0  0  0
 23 53  1  0  0  0  0
 24 54  1  0  0  0  0
 24 55  1  0  0  0  0
 25 56  1  0  0  0  0
 30 57  1  0  0  0  0
M  END
> <clash_score>
0

> <docking_score>
-7.534510135650635

> <overlap_score>
0.9494087100028992

$$$$
BENZO_277_2
  -OEChem-08222022413D

 57 61  0     1  0  0  0  0  0999 V2000
   14.2657    1.3706   23.0373 C   0  0  0  0  0  0  0  0  0  0  0  0
   13.7726    0.6128   24.0995 C   0  0  0  0  0  0  0  0  0  0  0  0
   13.3825    2.0222   22.1763 C   0  0  0  0  0  0  0  0  0  0  0  0
   12.3965    0.5065   24.3007 C   0  0  0  0  0  0  0  0  0  0  0  0
   12.0064    1.9158   22.3775 C   0  0  0  0  0  0  0  0  0  0  0  0
    8.3510   -1.5420   24.6110 C   0  0  0  0  0  0  0  0  0  0  0  0
   10.2760   -2.3270   23.4020 C   0  0  0  0  0  0  0  0  0  0  0  0
    8.3310   -2.7170   25.3430 C   0  0  0  0  0  0  0  0  0  0  0  0
   10.2570   -3.5000   24.1350 C   0  0  0  0  0  0  0  0  0  0  0  0
   11.5133    1.1580   23.4397 C   0  0  0  0  0  0  0  0  0  0  0  0
    9.3300   -1.3350   23.6390 C   0  0  0  0  0  0  0  0  0  0  0  0
    9.2850   -3.7090   25.1090 C   0  0  0  0  0  0  0  0  0  0  0  0
    6.1600    0.3870   20.1140 C   0  0  0  0  0  0  0  0  0  0  0  0
    7.2210   -0.4620   20.0350 C   0  0  0  0  0  0  0  0  0  0  0  0
    5.3360    0.8000   21.1530 C   0  0  0  0  0  0  0  0  0  0  0  0
    4.2970    1.6690   20.8430 C   0  0  0  0  0  0  0  0  0  0  0  0
    4.0980    2.1130   19.5350 C   0  0  0  0  0  0  0  0  0  0  0  0
    4.9400    1.7060   18.5060 C   0  0  0  0  0  0  0  0  0  0  0  0
    8.9510    0.1280   21.6880 C   0  0  0  0  0  0  0  0  0  0  0  0
    8.7671   -4.9535   27.2147 C   0  0  0  0  0  0  0  0  0  0  0  0
    9.3066   -6.1865   25.1649 C   0  0  0  0  0  0  0  0  0  0  0  0
    7.3847   -5.5970   27.2000 C   0  0  0  0  0  0  0  0  0  0  0  0
    7.9070   -6.7999   25.2264 C   0  0  0  0  0  0  0  0  0  0  0  0
   10.0220    1.0430   23.6570 C   0  0  0  0  0  0  0  0  0  0  0  0
    9.4200   -0.0840   22.9530 C   0  0  2  0  0  0  0  0  0  0  0  0
    7.6830   -0.5170   18.7600 N   0  0  0  0  0  0  0  0  0  0  0  0
    6.9440    0.2550   18.0100 N   0  0  0  0  0  0  0  0  0  0  0  0
    5.9810    0.8330   18.8060 N   0  0  0  0  0  0  0  0  0  0  0  0
    9.2641   -4.8845   25.8388 N   0  0  0  0  0  0  0  0  0  0  0  0
    8.0810   -0.9750   21.0820 N   0  0  0  0  0  0  0  0  0  0  0  0
    9.1870    1.1500   21.0630 O   0  0  0  0  0  0  0  0  0  0  0  0
    7.4533   -6.8877   26.5818 O   0  0  0  0  0  0  0  0  0  0  0  0
   15.3373    1.4544   22.8816 H   0  0  0  0  0  0  0  0  0  0  0  0
   14.4602    0.1063   24.7706 H   0  0  0  0  0  0  0  0  0  0  0  0
   13.7661    2.6131   21.3499 H   0  0  0  0  0  0  0  0  0  0  0  0
   12.0213   -0.0863   25.1308 H   0  0  0  0  0  0  0  0  0  0  0  0
   11.3258    2.4268   21.7016 H   0  0  0  0  0  0  0  0  0  0  0  0
    7.5957   -0.7779   24.7973 H   0  0  0  0  0  0  0  0  0  0  0  0
   11.0384   -2.1852   22.6338 H   0  0  0  0  0  0  0  0  0  0  0  0
    7.5634   -2.8637   26.1037 H   0  0  0  0  0  0  0  0  0  0  0  0
   11.0139   -4.2645   23.9419 H   0  0  0  0  0  0  0  0  0  0  0  0
    5.4735    0.4758   22.1644 H   0  0  0  0  0  0  0  0  0  0  0  0
    3.6415    1.9967   21.6408 H   0  0  0  0  0  0  0  0  0  0  0  0
    3.2720    2.7926   19.2921 H   0  0  0  0  0  0  0  0  0  0  0  0
    4.8119    2.0418   17.5005 H   0  0  0  0  0  0  0  0  0  0  0  0
    8.7013   -3.9575   27.6574 H   0  0  0  0  0  0  0  0  0  0  0  0
    9.4480   -5.5636   27.8142 H   0  0  0  0  0  0  0  0  0  0  0  0
   10.0131   -6.8375   25.6814 H   0  0  0  0  0  0  0  0  0  0  0  0
    9.6116   -6.0794   24.1250 H   0  0  0  0  0  0  0  0  0  0  0  0
    7.0306   -5.7388   28.2232 H   0  0  0  0  0  0  0  0  0  0  0  0
    6.6546   -4.9740   26.6757 H   0  0  0  0  0  0  0  0  0  0  0  0
    7.1892   -6.2226   24.6319 H   0  0  0  0  0  0  0  0  0  0  0  0
    7.9315   -7.8151   24.8187 H   0  0  0  0  0  0  0  0  0  0  0  0
    9.8155    0.9894   24.7339 H   0  0  0  0  0  0  0  0  0  0  0  0
    9.5584    1.9798   23.3178 H   0  0  0  0  0  0  0  0  0  0  0  0
    8.1278    0.3254   23.5142 H   0  0  0  0  0  0  0  0  0  0  0  0
    8.1354   -1.7990   21.3694 H   0  0  0  0  0  0  0  0  0  0  0  0
  1  2  1  0  0  0  0
  1  3  2  0  0  0  0
  2  4  2  0  0  0  0
  3  5  1  0  0  0  0
  4 10  1  0  0  0  0
  5 10  2  0  0  0  0
  6  8  2  0  0  0  0
  6 11  1  0  0  0  0
  7  9  1  0  0  0  0
  7 11  2  0  0  0  0
  8 12  1  0  0  0  0
  9 12  2  0  0  0  0
 10 24  1  0  0  0  0
 11 25  1  0  0  0  0
 12 29  1  0  0  0  0
 13 14  2  0  0  0  0
 13 15  1  0  0  0  0
 13 28  1  0  0  0  0
 14 26  1  0  0  0  0
 14 30  1  0  0  0  0
 15 16  2  0  0  0  0
 16 17  1  0  0  0  0
 17 18  2  0  0  0  0
 18 28  1  0  0  0  0
 19 25  1  6  0  0  0
 19 30  1  0  0  0  0
 19 31  2  0  0  0  0
 20 22  1  0  0  0  0
 20 29  1  0  0  0  0
 21 23  1  0  0  0  0
 21 29  1  0  0  0  0
 22 32  1  0  0  0  0
 23 32  1  0  0  0  0
 24 25  1  0  0  0  0
 26 27  2  0  0  0  0
 27 28  1  0  0  0  0
  1 33  1  0  0  0  0
  2 34  1  0  0  0  0
  3 35  1  0  0  0  0
  4 36  1  0  0  0  0
  5 37  1  0  0  0  0
  6 38  1  0  0  0  0
  7 39  1  0  0  0  0
  8 40  1  0  0  0  0
  9 41  1  0  0  0  0
 15 42  1  0  0  0  0
 16 43  1  0  0  0  0
 17 44  1  0  0  0  0
 18 45  1  0  0  0  0
 20 46  1  0  0  0  0
 20 47  1  0  0  0  0
 21 48  1  0  0  0  0
 21 49  1  0  0  0  0
 22 50  1  0  0  0  0
 22 51  1  0  0  0  0
 23 52  1  0  0  0  0
 23 53  1  0  0  0  0
 24 54  1  0  0  0  0
 24 55  1  0  0  0  0
 25 56  1  0  0  0  0
 30 57  1  0  0  0  0
M  END
> <clash_score>
0

> <docking_score>
-8.487373352050781

> <overlap_score>
1.0264744758605957

$$$$
BENZO_276_1
  -OEChem-08222022413D

 54 58  0     1  0  0  0  0  0999 V2000
    8.3510   -1.5420   24.6110 C   0  0  0  0  0  0  0  0  0  0  0  0
   10.2760   -2.3270   23.4020 C   0  0  0  0  0  0  0  0  0  0  0  0
    8.3310   -2.7170   25.3430 C   0  0  0  0  0  0  0  0  0  0  0  0
   10.2570   -3.5000   24.1350 C   0  0  0  0  0  0  0  0  0  0  0  0
   11.0518    0.9847   26.0345 C   0  0  0  0  0  0  0  0  0  0  0  0
   12.1353    0.4811   26.7201 C   0  0  0  0  0  0  0  0  0  0  0  0
   12.1840   -0.1301   24.3381 C   0  0  0  0  0  0  0  0  0  0  0  0
    9.3300   -1.3350   23.6390 C   0  0  0  0  0  0  0  0  0  0  0  0
   11.0798    0.6306   24.6546 C   0  0  0  0  0  0  0  0  0  0  0  0
    9.2850   -3.7090   25.1090 C   0  0  0  0  0  0  0  0  0  0  0  0
    6.1600    0.3870   20.1140 C   0  0  0  0  0  0  0  0  0  0  0  0
    7.2210   -0.4620   20.0350 C   0  0  0  0  0  0  0  0  0  0  0  0
    5.3360    0.8000   21.1530 C   0  0  0  0  0  0  0  0  0  0  0  0
    4.2970    1.6690   20.8430 C   0  0  0  0  0  0  0  0  0  0  0  0
    4.0980    2.1130   19.5350 C   0  0  0  0  0  0  0  0  0  0  0  0
    4.9400    1.7060   18.5060 C   0  0  0  0  0  0  0  0  0  0  0  0
    8.9510    0.1280   21.6880 C   0  0  0  0  0  0  0  0  0  0  0  0
    8.7671   -4.9535   27.2147 C   0  0  0  0  0  0  0  0  0  0  0  0
    9.3066   -6.1865   25.1649 C   0  0  0  0  0  0  0  0  0  0  0  0
    7.3847   -5.5970   27.2000 C   0  0  0  0  0  0  0  0  0  0  0  0
    7.9070   -6.7999   25.2264 C   0  0  0  0  0  0  0  0  0  0  0  0
   10.0220    1.0430   23.6570 C   0  0  0  0  0  0  0  0  0  0  0  0
    9.4200   -0.0840   22.9530 C   0  0  1  0  0  0  0  0  0  0  0  0
    7.6830   -0.5170   18.7600 N   0  0  0  0  0  0  0  0  0  0  0  0
    6.9440    0.2550   18.0100 N   0  0  0  0  0  0  0  0  0  0  0  0
    5.9810    0.8330   18.8060 N   0  0  0  0  0  0  0  0  0  0  0  0
    9.2641   -4.8845   25.8388 N   0  0  0  0  0  0  0  0  0  0  0  0
    8.0810   -0.9750   21.0820 N   0  0  0  0  0  0  0  0  0  0  0  0
    9.1870    1.1500   21.0630 O   0  0  0  0  0  0  0  0  0  0  0  0
    7.4533   -6.8877   26.5818 O   0  0  0  0  0  0  0  0  0  0  0  0
   13.1805   -0.4145   25.7013 S   0  0  0  0  0  0  0  0  0  0  0  0
    7.5957   -0.7779   24.7973 H   0  0  0  0  0  0  0  0  0  0  0  0
   11.0384   -2.1852   22.6338 H   0  0  0  0  0  0  0  0  0  0  0  0
    7.5634   -2.8637   26.1037 H   0  0  0  0  0  0  0  0  0  0  0  0
   11.0139   -4.2645   23.9419 H   0  0  0  0  0  0  0  0  0  0  0  0
   10.2782    1.5788   26.5045 H   0  0  0  0  0  0  0  0  0  0  0  0
   12.3635    0.5968   27.7702 H   0  0  0  0  0  0  0  0  0  0  0  0
   12.4575   -0.5332   23.3728 H   0  0  0  0  0  0  0  0  0  0  0  0
    5.4735    0.4758   22.1644 H   0  0  0  0  0  0  0  0  0  0  0  0
    3.6415    1.9967   21.6408 H   0  0  0  0  0  0  0  0  0  0  0  0
    3.2720    2.7926   19.2921 H   0  0  0  0  0  0  0  0  0  0  0  0
    4.8119    2.0418   17.5005 H   0  0  0  0  0  0  0  0  0  0  0  0
    8.7013   -3.9575   27.6574 H   0  0  0  0  0  0  0  0  0  0  0  0
    9.4480   -5.5636   27.8142 H   0  0  0  0  0  0  0  0  0  0  0  0
   10.0131   -6.8375   25.6814 H   0  0  0  0  0  0  0  0  0  0  0  0
    9.6116   -6.0794   24.1250 H   0  0  0  0  0  0  0  0  0  0  0  0
    7.0306   -5.7388   28.2232 H   0  0  0  0  0  0  0  0  0  0  0  0
    6.6546   -4.9740   26.6757 H   0  0  0  0  0  0  0  0  0  0  0  0
    7.1892   -6.2226   24.6319 H   0  0  0  0  0  0  0  0  0  0  0  0
    7.9315   -7.8151   24.8187 H   0  0  0  0  0  0  0  0  0  0  0  0
    9.2564    1.6421   24.1671 H   0  0  0  0  0  0  0  0  0  0  0  0
   10.4892    1.7236   22.9318 H   0  0  0  0  0  0  0  0  0  0  0  0
   10.7366   -0.4277   22.4442 H   0  0  0  0  0  0  0  0  0  0  0  0
    8.1354   -1.7990   21.3694 H   0  0  0  0  0  0  0  0  0  0  0  0
  1  3  2  0  0  0  0
  1  8  1  0  0  0  0
  2  4  1  0  0  0  0
  2  8  2  0  0  0  0
  3 10  1  0  0  0  0
  4 10  2  0  0  0  0
  5  6  2  0  0  0  0
  5  9  1  0  0  0  0
  6 31  1  0  0  0  0
  7  9  2  0  0  0  0
  7 31  1  0  0  0  0
  8 23  1  0  0  0  0
  9 22  1  0  0  0  0
 10 27  1  0  0  0  0
 11 12  2  0  0  0  0
 11 13  1  0  0  0  0
 11 26  1  0  0  0  0
 12 24  1  0  0  0  0
 12 28  1  0  0  0  0
 13 14  2  0  0  0  0
 14 15  1  0  0  0  0
 15 16  2  0  0  0  0
 16 26  1  0  0  0  0
 17 23  1  1  0  0  0
 17 28  1  0  0  0  0
 17 29  2  0  0  0  0
 18 20  1  0  0  0  0
 18 27  1  0  0  0  0
 19 21  1  0  0  0  0
 19 27  1  0  0  0  0
 20 30  1  0  0  0  0
 21 30  1  0  0  0  0
 22 23  1  0  0  0  0
 24 25  2  0  0  0  0
 25 26  1  0  0  0  0
  1 32  1  0  0  0  0
  2 33  1  0  0  0  0
  3 34  1  0  0  0  0
  4 35  1  0  0  0  0
  5 36  1  0  0  0  0
  6 37  1  0  0  0  0
  7 38  1  0  0  0  0
 13 39  1  0  0  0  0
 14 40  1  0  0  0  0
 15 41  1  0  0  0  0
 16 42  1  0  0  0  0
 18 43  1  0  0  0  0
 18 44  1  0  0  0  0
 19 45  1  0  0  0  0
 19 46  1  0  0  0  0
 20 47  1  0  0  0  0
 20 48  1  0  0  0  0
 21 49  1  0  0  0  0
 21 50  1  0  0  0  0
 22 51  1  0  0  0  0
 22 52  1  0  0  0  0
 23 53  1  0  0  0  0
 28 54  1  0  0  0  0
M  END
> <clash_score>
0

> <docking_score>
-6.51284646987915

> <overlap_score>
0.8996121287345886

$$$$
BENZO_276_2
  -OEChem-08222022413D

 54 58  0     1  0  0  0  0  0999 V2000
    8.3510   -1.5420   24.6110 C   0  0  0  0  0  0  0  0  0  0  0  0
   10.2760   -2.3270   23.4020 C   0  0  0  0  0  0  0  0  0  0  0  0
    8.3310   -2.7170   25.3430 C   0  0  0  0  0  0  0  0  0  0  0  0
   10.2570   -3.5000   24.1350 C   0  0  0  0  0  0  0  0  0  0  0  0
   12.2126    2.3974   23.3680 C   0  0  0  0  0  0  0  0  0  0  0  0
   13.5630    2.2185   23.1633 C   0  0  0  0  0  0  0  0  0  0  0  0
   12.3560    0.0789   23.2869 C   0  0  0  0  0  0  0  0  0  0  0  0
    9.3300   -1.3350   23.6390 C   0  0  0  0  0  0  0  0  0  0  0  0
   11.5133    1.1580   23.4397 C   0  0  0  0  0  0  0  0  0  0  0  0
    9.2850   -3.7090   25.1090 C   0  0  0  0  0  0  0  0  0  0  0  0
    6.1600    0.3870   20.1140 C   0  0  0  0  0  0  0  0  0  0  0  0
    7.2210   -0.4620   20.0350 C   0  0  0  0  0  0  0  0  0  0  0  0
    5.3360    0.8000   21.1530 C   0  0  0  0  0  0  0  0  0  0  0  0
    4.2970    1.6690   20.8430 C   0  0  0  0  0  0  0  0  0  0  0  0
    4.0980    2.1130   19.5350 C   0  0  0  0  0  0  0  0  0  0  0  0
    4.9400    1.7060   18.5060 C   0  0  0  0  0  0  0  0  0  0  0  0
    8.9510    0.1280   21.6880 C   0  0  0  0  0  0  0  0  0  0  0  0
    8.7671   -4.9535   27.2147 C   0  0  0  0  0  0  0  0  0  0  0  0
    9.3066   -6.1865   25.1649 C   0  0  0  0  0  0  0  0  0  0  0  0
    7.3847   -5.5970   27.2000 C   0  0  0  0  0  0  0  0  0  0  0  0
    7.9070   -6.7999   25.2264 C   0  0  0  0  0  0  0  0  0  0  0  0
   10.0220    1.0430   23.6570 C   0  0  0  0  0  0  0  0  0  0  0  0
    9.4200   -0.0840   22.9530 C   0  0  2  0  0  0  0  0  0  0  0  0
    7.6830   -0.5170   18.7600 N   0  0  0  0  0  0  0  0  0  0  0  0
    6.9440    0.2550   18.0100 N   0  0  0  0  0  0  0  0  0  0  0  0
    5.9810    0.8330   18.8060 N   0  0  0  0  0  0  0  0  0  0  0  0
    9.2641   -4.8845   25.8388 N   0  0  0  0  0  0  0  0  0  0  0  0
    8.0810   -0.9750   21.0820 N   0  0  0  0  0  0  0  0  0  0  0  0
    9.1870    1.1500   21.0630 O   0  0  0  0  0  0  0  0  0  0  0  0
    7.4533   -6.8877   26.5818 O   0  0  0  0  0  0  0  0  0  0  0  0
   13.9830    0.5617   23.0584 S   0  0  0  0  0  0  0  0  0  0  0  0
    7.5957   -0.7779   24.7973 H   0  0  0  0  0  0  0  0  0  0  0  0
   11.0384   -2.1852   22.6338 H   0  0  0  0  0  0  0  0  0  0  0  0
    7.5634   -2.8637   26.1037 H   0  0  0  0  0  0  0  0  0  0  0  0
   11.0139   -4.2645   23.9419 H   0  0  0  0  0  0  0  0  0  0  0  0
   11.7522    3.3730   23.4608 H   0  0  0  0  0  0  0  0  0  0  0  0
   14.3229    2.9813   23.0696 H   0  0  0  0  0  0  0  0  0  0  0  0
   12.0982   -0.9711   23.2967 H   0  0  0  0  0  0  0  0  0  0  0  0
    5.4735    0.4758   22.1644 H   0  0  0  0  0  0  0  0  0  0  0  0
    3.6415    1.9967   21.6408 H   0  0  0  0  0  0  0  0  0  0  0  0
    3.2720    2.7926   19.2921 H   0  0  0  0  0  0  0  0  0  0  0  0
    4.8119    2.0418   17.5005 H   0  0  0  0  0  0  0  0  0  0  0  0
    8.7013   -3.9575   27.6574 H   0  0  0  0  0  0  0  0  0  0  0  0
    9.4480   -5.5636   27.8142 H   0  0  0  0  0  0  0  0  0  0  0  0
   10.0131   -6.8375   25.6814 H   0  0  0  0  0  0  0  0  0  0  0  0
    9.6116   -6.0794   24.1250 H   0  0  0  0  0  0  0  0  0  0  0  0
    7.0306   -5.7388   28.2232 H   0  0  0  0  0  0  0  0  0  0  0  0
    6.6546   -4.9740   26.6757 H   0  0  0  0  0  0  0  0  0  0  0  0
    7.1892   -6.2226   24.6319 H   0  0  0  0  0  0  0  0  0  0  0  0
    7.9315   -7.8151   24.8187 H   0  0  0  0  0  0  0  0  0  0  0  0
    9.8155    0.9894   24.7339 H   0  0  0  0  0  0  0  0  0  0  0  0
    9.5584    1.9798   23.3178 H   0  0  0  0  0  0  0  0  0  0  0  0
    8.1278    0.3254   23.5142 H   0  0  0  0  0  0  0  0  0  0  0  0
    8.1354   -1.7990   21.3694 H   0  0  0  0  0  0  0  0  0  0  0  0
  1  3  2  0  0  0  0
  1  8  1  0  0  0  0
  2  4  1  0  0  0  0
  2  8  2  0  0  0  0
  3 10  1  0  0  0  0
  4 10  2  0  0  0  0
  5  6  2  0  0  0  0
  5  9  1  0  0  0  0
  6 31  1  0  0  0  0
  7  9  2  0  0  0  0
  7 31  1  0  0  0  0
  8 23  1  0  0  0  0
  9 22  1  0  0  0  0
 10 27  1  0  0  0  0
 11 12  2  0  0  0  0
 11 13  1  0  0  0  0
 11 26  1  0  0  0  0
 12 24  1  0  0  0  0
 12 28  1  0  0  0  0
 13 14  2  0  0  0  0
 14 15  1  0  0  0  0
 15 16  2  0  0  0  0
 16 26  1  0  0  0  0
 17 23  1  6  0  0  0
 17 28  1  0  0  0  0
 17 29  2  0  0  0  0
 18 20  1  0  0  0  0
 18 27  1  0  0  0  0
 19 21  1  0  0  0  0
 19 27  1  0  0  0  0
 20 30  1  0  0  0  0
 21 30  1  0  0  0  0
 22 23  1  0  0  0  0
 24 25  2  0  0  0  0
 25 26  1  0  0  0  0
  1 32  1  0  0  0  0
  2 33  1  0  0  0  0
  3 34  1  0  0  0  0
  4 35  1  0  0  0  0
  5 36  1  0  0  0  0
  6 37  1  0  0  0  0
  7 38  1  0  0  0  0
 13 39  1  0  0  0  0
 14 40  1  0  0  0  0
 15 41  1  0  0  0  0
 16 42  1  0  0  0  0
 18 43  1  0  0  0  0
 18 44  1  0  0  0  0
 19 45  1  0  0  0  0
 19 46  1  0  0  0  0
 20 47  1  0  0  0  0
 20 48  1  0  0  0  0
 21 49  1  0  0  0  0
 21 50  1  0  0  0  0
 22 51  1  0  0  0  0
 22 52  1  0  0  0  0
 23 53  1  0  0  0  0
 28 54  1  0  0  0  0
M  END
> <clash_score>
0

> <docking_score>
-9.296388626098633

> <overlap_score>
1.0137988328933716

$$$$
BENZO_281_1
  -OEChem-08222022413D

 54 57  0     1  0  0  0  0  0999 V2000
   14.2623    1.3345   22.9975 C   0  0  0  0  0  0  0  0  0  0  0  0
    4.2970    1.6690   20.8430 C   0  0  0  0  0  0  0  0  0  0  0  0
   13.7729    0.5817   24.0649 C   0  0  0  0  0  0  0  0  0  0  0  0
   13.3767    1.9928   22.1442 C   0  0  0  0  0  0  0  0  0  0  0  0
    4.0980    2.1130   19.5350 C   0  0  0  0  0  0  0  0  0  0  0  0
    5.3360    0.8000   21.1530 C   0  0  0  0  0  0  0  0  0  0  0  0
   12.3978    0.4871   24.2790 C   0  0  0  0  0  0  0  0  0  0  0  0
   12.0016    1.8981   22.3583 C   0  0  0  0  0  0  0  0  0  0  0  0
    8.3510   -1.5420   24.6110 C   0  0  0  0  0  0  0  0  0  0  0  0
   10.2760   -2.3270   23.4020 C   0  0  0  0  0  0  0  0  0  0  0  0
    4.9400    1.7060   18.5060 C   0  0  0  0  0  0  0  0  0  0  0  0
    8.3310   -2.7170   25.3430 C   0  0  0  0  0  0  0  0  0  0  0  0
   10.2570   -3.5000   24.1350 C   0  0  0  0  0  0  0  0  0  0  0  0
    7.6830   -0.5170   18.7600 C   0  0  0  0  0  0  0  0  0  0  0  0
    6.1600    0.3870   20.1140 C   0  0  0  0  0  0  0  0  0  0  0  0
   11.5121    1.1453   23.4257 C   0  0  0  0  0  0  0  0  0  0  0  0
    9.3300   -1.3350   23.6390 C   0  0  0  0  0  0  0  0  0  0  0  0
    5.9810    0.8330   18.8060 C   0  0  0  0  0  0  0  0  0  0  0  0
    9.2850   -3.7090   25.1090 C   0  0  0  0  0  0  0  0  0  0  0  0
    7.2210   -0.4620   20.0350 C   0  0  0  0  0  0  0  0  0  0  0  0
    8.9510    0.1280   21.6880 C   0  0  0  0  0  0  0  0  0  0  0  0
    8.2520   -5.1175   26.8652 C   0  0  0  0  0  0  0  0  0  0  0  0
   10.2437   -5.9407   25.5988 C   0  0  0  0  0  0  0  0  0  0  0  0
   10.0220    1.0430   23.6570 C   0  0  0  0  0  0  0  0  0  0  0  0
    9.4200   -0.0840   22.9530 C   0  0  1  0  0  0  0  0  0  0  0  0
    6.9440    0.2550   18.0100 N   0  0  0  0  0  0  0  0  0  0  0  0
    8.0810   -0.9750   21.0820 N   0  0  0  0  0  0  0  0  0  0  0  0
    9.2638   -4.9025   25.8500 N   0  0  0  0  0  0  0  0  0  0  0  0
    9.1870    1.1500   21.0630 O   0  0  0  0  0  0  0  0  0  0  0  0
   15.3331    1.4092   22.8317 H   0  0  0  0  0  0  0  0  0  0  0  0
    3.6256    2.0106   21.6303 H   0  0  0  0  0  0  0  0  0  0  0  0
   14.4623    0.0700   24.7300 H   0  0  0  0  0  0  0  0  0  0  0  0
   13.7574    2.5799   21.3137 H   0  0  0  0  0  0  0  0  0  0  0  0
    3.2724    2.7868   19.3204 H   0  0  0  0  0  0  0  0  0  0  0  0
    5.4858    0.4664   22.1692 H   0  0  0  0  0  0  0  0  0  0  0  0
   12.0255   -0.1019   25.1131 H   0  0  0  0  0  0  0  0  0  0  0  0
   11.3191    2.4143   21.6883 H   0  0  0  0  0  0  0  0  0  0  0  0
    7.5957   -0.7779   24.7973 H   0  0  0  0  0  0  0  0  0  0  0  0
   11.0384   -2.1852   22.6338 H   0  0  0  0  0  0  0  0  0  0  0  0
    4.7836    2.0664   17.4848 H   0  0  0  0  0  0  0  0  0  0  0  0
    7.5634   -2.8637   26.1037 H   0  0  0  0  0  0  0  0  0  0  0  0
   11.0139   -4.2645   23.9419 H   0  0  0  0  0  0  0  0  0  0  0  0
    8.5274   -1.0858   18.3384 H   0  0  0  0  0  0  0  0  0  0  0  0
    8.4015   -6.1034   27.3297 H   0  0  0  0  0  0  0  0  0  0  0  0
    8.3315   -4.3345   27.6337 H   0  0  0  0  0  0  0  0  0  0  0  0
    7.2546   -5.0776   26.4029 H   0  0  0  0  0  0  0  0  0  0  0  0
   10.0610   -6.7893   26.2745 H   0  0  0  0  0  0  0  0  0  0  0  0
   10.1605   -6.2786   24.5553 H   0  0  0  0  0  0  0  0  0  0  0  0
   11.2536   -5.5421   25.7758 H   0  0  0  0  0  0  0  0  0  0  0  0
    9.8253    0.9889   24.7357 H   0  0  0  0  0  0  0  0  0  0  0  0
    9.5635    1.9845   23.3241 H   0  0  0  0  0  0  0  0  0  0  0  0
    8.1288    0.3205   23.5156 H   0  0  0  0  0  0  0  0  0  0  0  0
    7.0325    0.4238   17.0175 H   0  0  0  0  0  0  0  0  0  0  0  0
    8.1175   -1.8104   21.3538 H   0  0  0  0  0  0  0  0  0  0  0  0
  1  3  1  0  0  0  0
  1  4  2  0  0  0  0
  2  5  1  0  0  0  0
  2  6  2  0  0  0  0
  3  7  2  0  0  0  0
  4  8  1  0  0  0  0
  5 11  2  0  0  0  0
  6 15  1  0  0  0  0
  7 16  1  0  0  0  0
  8 16  2  0  0  0  0
  9 12  2  0  0  0  0
  9 17  1  0  0  0  0
 10 13  1  0  0  0  0
 10 17  2  0  0  0  0
 11 18  1  0  0  0  0
 12 19  1  0  0  0  0
 13 19  2  0  0  0  0
 14 20  2  0  0  0  0
 14 26  1  0  0  0  0
 15 18  2  0  0  0  0
 15 20  1  0  0  0  0
 16 24  1  0  0  0  0
 17 25  1  0  0  0  0
 18 26  1  0  0  0  0
 19 28  1  0  0  0  0
 20 27  1  0  0  0  0
 21 25  1  0  0  0  0
 21 27  1  0  0  0  0
 21 29  2  0  0  0  0
 22 28  1  0  0  0  0
 23 28  1  0  0  0  0
 24 25  1  1  0  0  0
  1 30  1  0  0  0  0
  2 31  1  0  0  0  0
  3 32  1  0  0  0  0
  4 33  1  0  0  0  0
  5 34  1  0  0  0  0
  6 35  1  0  0  0  0
  7 36  1  0  0  0  0
  8 37  1  0  0  0  0
  9 38  1  0  0  0  0
 10 39  1  0  0  0  0
 11 40  1  0  0  0  0
 12 41  1  0  0  0  0
 13 42  1  0  0  0  0
 14 43  1  0  0  0  0
 22 44  1  0  0  0  0
 22 45  1  0  0  0  0
 22 46  1  0  0  0  0
 23 47  1  0  0  0  0
 23 48  1  0  0  0  0
 23 49  1  0  0  0  0
 24 50  1  0  0  0  0
 24 51  1  0  0  0  0
 25 52  1  0  0  0  0
 26 53  1  0  0  0  0
 27 54  1  0  0  0  0
M  END
> <clash_score>
0

> <docking_score>
-8.503691673278809

> <overlap_score>
1.0132734775543213

$$$$
BENZO_281_2
  -OEChem-08222022413D

 54 57  0     1  0  0  0  0  0999 V2000
   13.8295    0.0638   25.4018 C   0  0  0  0  0  0  0  0  0  0  0  0
    4.2970    1.6690   20.8430 C   0  0  0  0  0  0  0  0  0  0  0  0
   12.6583   -0.1175   26.1373 C   0  0  0  0  0  0  0  0  0  0  0  0
   13.7659    0.5627   24.1007 C   0  0  0  0  0  0  0  0  0  0  0  0
    4.0980    2.1130   19.5350 C   0  0  0  0  0  0  0  0  0  0  0  0
    5.3360    0.8000   21.1530 C   0  0  0  0  0  0  0  0  0  0  0  0
   11.4234    0.2001   25.5717 C   0  0  0  0  0  0  0  0  0  0  0  0
   12.5310    0.8802   23.5351 C   0  0  0  0  0  0  0  0  0  0  0  0
    8.3510   -1.5420   24.6110 C   0  0  0  0  0  0  0  0  0  0  0  0
   10.2760   -2.3270   23.4020 C   0  0  0  0  0  0  0  0  0  0  0  0
    4.9400    1.7060   18.5060 C   0  0  0  0  0  0  0  0  0  0  0  0
    8.3310   -2.7170   25.3430 C   0  0  0  0  0  0  0  0  0  0  0  0
   10.2570   -3.5000   24.1350 C   0  0  0  0  0  0  0  0  0  0  0  0
    7.6830   -0.5170   18.7600 C   0  0  0  0  0  0  0  0  0  0  0  0
    6.1600    0.3870   20.1140 C   0  0  0  0  0  0  0  0  0  0  0  0
   11.3598    0.6989   24.2706 C   0  0  0  0  0  0  0  0  0  0  0  0
    9.3300   -1.3350   23.6390 C   0  0  0  0  0  0  0  0  0  0  0  0
    5.9810    0.8330   18.8060 C   0  0  0  0  0  0  0  0  0  0  0  0
    9.2850   -3.7090   25.1090 C   0  0  0  0  0  0  0  0  0  0  0  0
    7.2210   -0.4620   20.0350 C   0  0  0  0  0  0  0  0  0  0  0  0
    8.9510    0.1280   21.6880 C   0  0  0  0  0  0  0  0  0  0  0  0
    8.2520   -5.1175   26.8652 C   0  0  0  0  0  0  0  0  0  0  0  0
   10.2437   -5.9407   25.5988 C   0  0  0  0  0  0  0  0  0  0  0  0
   10.0220    1.0430   23.6570 C   0  0  0  0  0  0  0  0  0  0  0  0
    9.4200   -0.0840   22.9530 C   0  0  2  0  0  0  0  0  0  0  0  0
    6.9440    0.2550   18.0100 N   0  0  0  0  0  0  0  0  0  0  0  0
    8.0810   -0.9750   21.0820 N   0  0  0  0  0  0  0  0  0  0  0  0
    9.2638   -4.9025   25.8500 N   0  0  0  0  0  0  0  0  0  0  0  0
    9.1870    1.1500   21.0630 O   0  0  0  0  0  0  0  0  0  0  0  0
   14.7910   -0.1822   25.8428 H   0  0  0  0  0  0  0  0  0  0  0  0
    3.6256    2.0106   21.6303 H   0  0  0  0  0  0  0  0  0  0  0  0
   12.7077   -0.5049   27.1507 H   0  0  0  0  0  0  0  0  0  0  0  0
   14.6777    0.7050   23.5282 H   0  0  0  0  0  0  0  0  0  0  0  0
    3.2724    2.7868   19.3204 H   0  0  0  0  0  0  0  0  0  0  0  0
    5.4858    0.4664   22.1692 H   0  0  0  0  0  0  0  0  0  0  0  0
   10.5160    0.0554   26.1521 H   0  0  0  0  0  0  0  0  0  0  0  0
   12.4911    1.2683   22.5207 H   0  0  0  0  0  0  0  0  0  0  0  0
    7.5957   -0.7779   24.7973 H   0  0  0  0  0  0  0  0  0  0  0  0
   11.0384   -2.1852   22.6338 H   0  0  0  0  0  0  0  0  0  0  0  0
    4.7836    2.0664   17.4848 H   0  0  0  0  0  0  0  0  0  0  0  0
    7.5634   -2.8637   26.1037 H   0  0  0  0  0  0  0  0  0  0  0  0
   11.0139   -4.2645   23.9419 H   0  0  0  0  0  0  0  0  0  0  0  0
    8.5274   -1.0858   18.3384 H   0  0  0  0  0  0  0  0  0  0  0  0
    8.4015   -6.1034   27.3297 H   0  0  0  0  0  0  0  0  0  0  0  0
    8.3315   -4.3345   27.6337 H   0  0  0  0  0  0  0  0  0  0  0  0
    7.2546   -5.0776   26.4029 H   0  0  0  0  0  0  0  0  0  0  0  0
   10.0610   -6.7893   26.2745 H   0  0  0  0  0  0  0  0  0  0  0  0
   10.1605   -6.2786   24.5553 H   0  0  0  0  0  0  0  0  0  0  0  0
   11.2536   -5.5421   25.7758 H   0  0  0  0  0  0  0  0  0  0  0  0
    9.3529    1.4272   24.4380 H   0  0  0  0  0  0  0  0  0  0  0  0
   10.1743    1.8827   22.9648 H   0  0  0  0  0  0  0  0  0  0  0  0
   10.7346   -0.4307   22.4468 H   0  0  0  0  0  0  0  0  0  0  0  0
    7.0325    0.4238   17.0175 H   0  0  0  0  0  0  0  0  0  0  0  0
    8.1175   -1.8104   21.3538 H   0  0  0  0  0  0  0  0  0  0  0  0
  1  3  1  0  0  0  0
  1  4  2  0  0  0  0
  2  5  1  0  0  0  0
  2  6  2  0  0  0  0
  3  7  2  0  0  0  0
  4  8  1  0  0  0  0
  5 11  2  0  0  0  0
  6 15  1  0  0  0  0
  7 16  1  0  0  0  0
  8 16  2  0  0  0  0
  9 12  2  0  0  0  0
  9 17  1  0  0  0  0
 10 13  1  0  0  0  0
 10 17  2  0  0  0  0
 11 18  1  0  0  0  0
 12 19  1  0  0  0  0
 13 19  2  0  0  0  0
 14 20  2  0  0  0  0
 14 26  1  0  0  0  0
 15 18  2  0  0  0  0
 15 20  1  0  0  0  0
 16 24  1  0  0  0  0
 17 25  1  0  0  0  0
 18 26  1  0  0  0  0
 19 28  1  0  0  0  0
 20 27  1  0  0  0  0
 21 25  1  0  0  0  0
 21 27  1  0  0  0  0
 21 29  2  0  0  0  0
 22 28  1  0  0  0  0
 23 28  1  0  0  0  0
 24 25  1  6  0  0  0
  1 30  1  0  0  0  0
  2 31  1  0  0  0  0
  3 32  1  0  0  0  0
  4 33  1  0  0  0  0
  5 34  1  0  0  0  0
  6 35  1  0  0  0  0
  7 36  1  0  0  0  0
  8 37  1  0  0  0  0
  9 38  1  0  0  0  0
 10 39  1  0  0  0  0
 11 40  1  0  0  0  0
 12 41  1  0  0  0  0
 13 42  1  0  0  0  0
 14 43  1  0  0  0  0
 22 44  1  0  0  0  0
 22 45  1  0  0  0  0
 22 46  1  0  0  0  0
 23 47  1  0  0  0  0
 23 48  1  0  0  0  0
 23 49  1  0  0  0  0
 24 50  1  0  0  0  0
 24 51  1  0  0  0  0
 25 52  1  0  0  0  0
 26 53  1  0  0  0  0
 27 54  1  0  0  0  0
M  END
> <clash_score>
0.6066495913934196

> <docking_score>
-7.566166400909424

> <overlap_score>
0.935480535030365

$$$$
BENZO_280_1
  -OEChem-08222022413D

 51 54  0     1  0  0  0  0  0999 V2000
    4.2970    1.6690   20.8430 C   0  0  0  0  0  0  0  0  0  0  0  0
    4.0980    2.1130   19.5350 C   0  0  0  0  0  0  0  0  0  0  0  0
    5.3360    0.8000   21.1530 C   0  0  0  0  0  0  0  0  0  0  0  0
    8.3510   -1.5420   24.6110 C   0  0  0  0  0  0  0  0  0  0  0  0
   10.2760   -2.3270   23.4020 C   0  0  0  0  0  0  0  0  0  0  0  0
    4.9400    1.7060   18.5060 C   0  0  0  0  0  0  0  0  0  0  0  0
    8.3310   -2.7170   25.3430 C   0  0  0  0  0  0  0  0  0  0  0  0
   10.2570   -3.5000   24.1350 C   0  0  0  0  0  0  0  0  0  0  0  0
   12.2216    2.3786   23.3498 C   0  0  0  0  0  0  0  0  0  0  0  0
    7.6830   -0.5170   18.7600 C   0  0  0  0  0  0  0  0  0  0  0  0
   13.5684    2.1883   23.1319 C   0  0  0  0  0  0  0  0  0  0  0  0
   12.3438    0.0592   23.2626 C   0  0  0  0  0  0  0  0  0  0  0  0
    6.1600    0.3870   20.1140 C   0  0  0  0  0  0  0  0  0  0  0  0
    9.3300   -1.3350   23.6390 C   0  0  0  0  0  0  0  0  0  0  0  0
   11.5121    1.1453   23.4257 C   0  0  0  0  0  0  0  0  0  0  0  0
    5.9810    0.8330   18.8060 C   0  0  0  0  0  0  0  0  0  0  0  0
    9.2850   -3.7090   25.1090 C   0  0  0  0  0  0  0  0  0  0  0  0
    7.2210   -0.4620   20.0350 C   0  0  0  0  0  0  0  0  0  0  0  0
    8.9510    0.1280   21.6880 C   0  0  0  0  0  0  0  0  0  0  0  0
    8.2520   -5.1175   26.8652 C   0  0  0  0  0  0  0  0  0  0  0  0
   10.2437   -5.9407   25.5988 C   0  0  0  0  0  0  0  0  0  0  0  0
   10.0220    1.0430   23.6570 C   0  0  0  0  0  0  0  0  0  0  0  0
    9.4200   -0.0840   22.9530 C   0  0  1  0  0  0  0  0  0  0  0  0
    6.9440    0.2550   18.0100 N   0  0  0  0  0  0  0  0  0  0  0  0
    8.0810   -0.9750   21.0820 N   0  0  0  0  0  0  0  0  0  0  0  0
    9.2638   -4.9025   25.8500 N   0  0  0  0  0  0  0  0  0  0  0  0
    9.1870    1.1500   21.0630 O   0  0  0  0  0  0  0  0  0  0  0  0
   13.9727    0.5281   23.0196 S   0  0  0  0  0  0  0  0  0  0  0  0
    3.6256    2.0106   21.6303 H   0  0  0  0  0  0  0  0  0  0  0  0
    3.2724    2.7868   19.3204 H   0  0  0  0  0  0  0  0  0  0  0  0
    5.4858    0.4664   22.1692 H   0  0  0  0  0  0  0  0  0  0  0  0
    7.5957   -0.7779   24.7973 H   0  0  0  0  0  0  0  0  0  0  0  0
   11.0384   -2.1852   22.6338 H   0  0  0  0  0  0  0  0  0  0  0  0
    4.7836    2.0664   17.4848 H   0  0  0  0  0  0  0  0  0  0  0  0
    7.5634   -2.8637   26.1037 H   0  0  0  0  0  0  0  0  0  0  0  0
   11.0139   -4.2645   23.9419 H   0  0  0  0  0  0  0  0  0  0  0  0
   11.7708    3.3580   23.4491 H   0  0  0  0  0  0  0  0  0  0  0  0
    8.5274   -1.0858   18.3384 H   0  0  0  0  0  0  0  0  0  0  0  0
   14.3341    2.9446   23.0326 H   0  0  0  0  0  0  0  0  0  0  0  0
   12.0768   -0.9885   23.2727 H   0  0  0  0  0  0  0  0  0  0  0  0
    8.4015   -6.1034   27.3297 H   0  0  0  0  0  0  0  0  0  0  0  0
    8.3315   -4.3345   27.6337 H   0  0  0  0  0  0  0  0  0  0  0  0
    7.2546   -5.0776   26.4029 H   0  0  0  0  0  0  0  0  0  0  0  0
   10.0610   -6.7893   26.2745 H   0  0  0  0  0  0  0  0  0  0  0  0
   10.1605   -6.2786   24.5553 H   0  0  0  0  0  0  0  0  0  0  0  0
   11.2536   -5.5421   25.7758 H   0  0  0  0  0  0  0  0  0  0  0  0
    9.8253    0.9889   24.7357 H   0  0  0  0  0  0  0  0  0  0  0  0
    9.5635    1.9845   23.3241 H   0  0  0  0  0  0  0  0  0  0  0  0
    8.1288    0.3205   23.5156 H   0  0  0  0  0  0  0  0  0  0  0  0
    7.0325    0.4238   17.0175 H   0  0  0  0  0  0  0  0  0  0  0  0
    8.1175   -1.8104   21.3538 H   0  0  0  0  0  0  0  0  0  0  0  0
  1  2  1  0  0  0  0
  1  3  2  0  0  0  0
  2  6  2  0  0  0  0
  3 13  1  0  0  0  0
  4  7  2  0  0  0  0
  4 14  1  0  0  0  0
  5  8  1  0  0  0  0
  5 14  2  0  0  0  0
  6 16  1  0  0  0  0
  7 17  1  0  0  0  0
  8 17  2  0  0  0  0
  9 11  2  0  0  0  0
  9 15  1  0  0  0  0
 10 18  2  0  0  0  0
 10 24  1  0  0  0  0
 11 28  1  0  0  0  0
 12 15  2  0  0  0  0
 12 28  1  0  0  0  0
 13 16  2  0  0  0  0
 13 18  1  0  0  0  0
 14 23  1  0  0  0  0
 15 22  1  0  0  0  0
 16 24  1  0  0  0  0
 17 26  1  0  0  0  0
 18 25  1  0  0  0  0
 19 23  1  0  0  0  0
 19 25  1  0  0  0  0
 19 27  2  0  0  0  0
 20 26  1  0  0  0  0
 21 26  1  0  0  0  0
 22 23  1  1  0  0  0
  1 29  1  0  0  0  0
  2 30  1  0  0  0  0
  3 31  1  0  0  0  0
  4 32  1  0  0  0  0
  5 33  1  0  0  0  0
  6 34  1  0  0  0  0
  7 35  1  0  0  0  0
  8 36  1  0  0  0  0
  9 37  1  0  0  0  0
 10 38  1  0  0  0  0
 11 39  1  0  0  0  0
 12 40  1  0  0  0  0
 20 41  1  0  0  0  0
 20 42  1  0  0  0  0
 20 43  1  0  0  0  0
 21 44  1  0  0  0  0
 21 45  1  0  0  0  0
 21 46  1  0  0  0  0
 22 47  1  0  0  0  0
 22 48  1  0  0  0  0
 23 49  1  0  0  0  0
 24 50  1  0  0  0  0
 25 51  1  0  0  0  0
M  END
> <clash_score>
0

> <docking_score>
-9.39993667602539

> <overlap_score>
1.00069260597229

$$$$
BENZO_280_2
  -OEChem-08222022413D

 51 54  0     1  0  0  0  0  0999 V2000
    4.2970    1.6690   20.8430 C   0  0  0  0  0  0  0  0  0  0  0  0
    4.0980    2.1130   19.5350 C   0  0  0  0  0  0  0  0  0  0  0  0
    5.3360    0.8000   21.1530 C   0  0  0  0  0  0  0  0  0  0  0  0
    8.3510   -1.5420   24.6110 C   0  0  0  0  0  0  0  0  0  0  0  0
   10.2760   -2.3270   23.4020 C   0  0  0  0  0  0  0  0  0  0  0  0
    4.9400    1.7060   18.5060 C   0  0  0  0  0  0  0  0  0  0  0  0
    8.3310   -2.7170   25.3430 C   0  0  0  0  0  0  0  0  0  0  0  0
   10.2570   -3.5000   24.1350 C   0  0  0  0  0  0  0  0  0  0  0  0
   11.0468    0.9536   26.0357 C   0  0  0  0  0  0  0  0  0  0  0  0
    7.6830   -0.5170   18.7600 C   0  0  0  0  0  0  0  0  0  0  0  0
   12.1250    0.4348   26.7183 C   0  0  0  0  0  0  0  0  0  0  0  0
   12.1733   -0.1537   24.3307 C   0  0  0  0  0  0  0  0  0  0  0  0
    6.1600    0.3870   20.1140 C   0  0  0  0  0  0  0  0  0  0  0  0
    9.3300   -1.3350   23.6390 C   0  0  0  0  0  0  0  0  0  0  0  0
   11.0747    0.6126   24.6525 C   0  0  0  0  0  0  0  0  0  0  0  0
    5.9810    0.8330   18.8060 C   0  0  0  0  0  0  0  0  0  0  0  0
    9.2850   -3.7090   25.1090 C   0  0  0  0  0  0  0  0  0  0  0  0
    7.2210   -0.4620   20.0350 C   0  0  0  0  0  0  0  0  0  0  0  0
    8.9510    0.1280   21.6880 C   0  0  0  0  0  0  0  0  0  0  0  0
    8.2520   -5.1175   26.8652 C   0  0  0  0  0  0  0  0  0  0  0  0
   10.2437   -5.9407   25.5988 C   0  0  0  0  0  0  0  0  0  0  0  0
   10.0220    1.0430   23.6570 C   0  0  0  0  0  0  0  0  0  0  0  0
    9.4200   -0.0840   22.9530 C   0  0  2  0  0  0  0  0  0  0  0  0
    6.9440    0.2550   18.0100 N   0  0  0  0  0  0  0  0  0  0  0  0
    8.0810   -0.9750   21.0820 N   0  0  0  0  0  0  0  0  0  0  0  0
    9.2638   -4.9025   25.8500 N   0  0  0  0  0  0  0  0  0  0  0  0
    9.1870    1.1500   21.0630 O   0  0  0  0  0  0  0  0  0  0  0  0
   13.1649   -0.4592   25.6929 S   0  0  0  0  0  0  0  0  0  0  0  0
    3.6256    2.0106   21.6303 H   0  0  0  0  0  0  0  0  0  0  0  0
    3.2724    2.7868   19.3204 H   0  0  0  0  0  0  0  0  0  0  0  0
    5.4858    0.4664   22.1692 H   0  0  0  0  0  0  0  0  0  0  0  0
    7.5957   -0.7779   24.7973 H   0  0  0  0  0  0  0  0  0  0  0  0
   11.0384   -2.1852   22.6338 H   0  0  0  0  0  0  0  0  0  0  0  0
    4.7836    2.0664   17.4848 H   0  0  0  0  0  0  0  0  0  0  0  0
    7.5634   -2.8637   26.1037 H   0  0  0  0  0  0  0  0  0  0  0  0
   11.0139   -4.2645   23.9419 H   0  0  0  0  0  0  0  0  0  0  0  0
   10.2771    1.5493   26.5100 H   0  0  0  0  0  0  0  0  0  0  0  0
    8.5274   -1.0858   18.3384 H   0  0  0  0  0  0  0  0  0  0  0  0
   12.3522    0.5386   27.7699 H   0  0  0  0  0  0  0  0  0  0  0  0
   12.4454   -0.5497   23.3621 H   0  0  0  0  0  0  0  0  0  0  0  0
    8.4015   -6.1034   27.3297 H   0  0  0  0  0  0  0  0  0  0  0  0
    8.3315   -4.3345   27.6337 H   0  0  0  0  0  0  0  0  0  0  0  0
    7.2546   -5.0776   26.4029 H   0  0  0  0  0  0  0  0  0  0  0  0
   10.0610   -6.7893   26.2745 H   0  0  0  0  0  0  0  0  0  0  0  0
   10.1605   -6.2786   24.5553 H   0  0  0  0  0  0  0  0  0  0  0  0
   11.2536   -5.5421   25.7758 H   0  0  0  0  0  0  0  0  0  0  0  0
    9.2602    1.6432   24.1714 H   0  0  0  0  0  0  0  0  0  0  0  0
   10.4960    1.7269   22.9392 H   0  0  0  0  0  0  0  0  0  0  0  0
   10.7346   -0.4307   22.4468 H   0  0  0  0  0  0  0  0  0  0  0  0
    7.0325    0.4238   17.0175 H   0  0  0  0  0  0  0  0  0  0  0  0
    8.1175   -1.8104   21.3538 H   0  0  0  0  0  0  0  0  0  0  0  0
  1  2  1  0  0  0  0
  1  3  2  0  0  0  0
  2  6  2  0  0  0  0
  3 13  1  0  0  0  0
  4  7  2  0  0  0  0
  4 14  1  0  0  0  0
  5  8  1  0  0  0  0
  5 14  2  0  0  0  0
  6 16  1  0  0  0  0
  7 17  1  0  0  0  0
  8 17  2  0  0  0  0
  9 11  2  0  0  0  0
  9 15  1  0  0  0  0
 10 18  2  0  0  0  0
 10 24  1  0  0  0  0
 11 28  1  0  0  0  0
 12 15  2  0  0  0  0
 12 28  1  0  0  0  0
 13 16  2  0  0  0  0
 13 18  1  0  0  0  0
 14 23  1  0  0  0  0
 15 22  1  0  0  0  0
 16 24  1  0  0  0  0
 17 26  1  0  0  0  0
 18 25  1  0  0  0  0
 19 23  1  0  0  0  0
 19 25  1  0  0  0  0
 19 27  2  0  0  0  0
 20 26  1  0  0  0  0
 21 26  1  0  0  0  0
 22 23  1  6  0  0  0
  1 29  1  0  0  0  0
  2 30  1  0  0  0  0
  3 31  1  0  0  0  0
  4 32  1  0  0  0  0
  5 33  1  0  0  0  0
  6 34  1  0  0  0  0
  7 35  1  0  0  0  0
  8 36  1  0  0  0  0
  9 37  1  0  0  0  0
 10 38  1  0  0  0  0
 11 39  1  0  0  0  0
 12 40  1  0  0  0  0
 20 41  1  0  0  0  0
 20 42  1  0  0  0  0
 20 43  1  0  0  0  0
 21 44  1  0  0  0  0
 21 45  1  0  0  0  0
 21 46  1  0  0  0  0
 22 47  1  0  0  0  0
 22 48  1  0  0  0  0
 23 49  1  0  0  0  0
 24 50  1  0  0  0  0
 25 51  1  0  0  0  0
M  END
> <clash_score>
0

> <docking_score>
-6.560341835021973

> <overlap_score>
0.8852890133857727

$$$$
BENZO_279_2
  -OEChem-08222022413D

 57 61  0     1  0  0  0  0  0999 V2000
    8.3510   -1.5420   24.6110 C   0  0  0  0  0  0  0  0  0  0  0  0
   10.2760   -2.3270   23.4020 C   0  0  0  0  0  0  0  0  0  0  0  0
    8.3310   -2.7170   25.3430 C   0  0  0  0  0  0  0  0  0  0  0  0
   10.2570   -3.5000   24.1350 C   0  0  0  0  0  0  0  0  0  0  0  0
   12.6370    0.8478   23.6905 C   0  0  0  0  0  0  0  0  0  0  0  0
   11.6104    0.2289   25.5338 C   0  0  0  0  0  0  0  0  0  0  0  0
    9.3300   -1.3350   23.6390 C   0  0  0  0  0  0  0  0  0  0  0  0
   11.3626    0.7172   24.2742 C   0  0  0  0  0  0  0  0  0  0  0  0
    9.2850   -3.7090   25.1090 C   0  0  0  0  0  0  0  0  0  0  0  0
    6.1600    0.3870   20.1140 C   0  0  0  0  0  0  0  0  0  0  0  0
    7.2210   -0.4620   20.0350 C   0  0  0  0  0  0  0  0  0  0  0  0
    5.3360    0.8000   21.1530 C   0  0  0  0  0  0  0  0  0  0  0  0
    4.2970    1.6690   20.8430 C   0  0  0  0  0  0  0  0  0  0  0  0
    4.0980    2.1130   19.5350 C   0  0  0  0  0  0  0  0  0  0  0  0
    4.9400    1.7060   18.5060 C   0  0  0  0  0  0  0  0  0  0  0  0
    8.9510    0.1280   21.6880 C   0  0  0  0  0  0  0  0  0  0  0  0
    8.7671   -4.9535   27.2147 C   0  0  0  0  0  0  0  0  0  0  0  0
    9.3066   -6.1865   25.1649 C   0  0  0  0  0  0  0  0  0  0  0  0
    7.3847   -5.5970   27.2000 C   0  0  0  0  0  0  0  0  0  0  0  0
    7.9070   -6.7999   25.2264 C   0  0  0  0  0  0  0  0  0  0  0  0
   13.7059   -0.3763   26.7673 C   0  0  0  0  0  0  0  0  0  0  0  0
   10.0220    1.0430   23.6570 C   0  0  0  0  0  0  0  0  0  0  0  0
    9.4200   -0.0840   22.9530 C   0  0  2  0  0  0  0  0  0  0  0  0
   13.6213    0.4729   24.5118 N   0  0  0  0  0  0  0  0  0  0  0  0
    7.6830   -0.5170   18.7600 N   0  0  0  0  0  0  0  0  0  0  0  0
    6.9440    0.2550   18.0100 N   0  0  0  0  0  0  0  0  0  0  0  0
   12.9653    0.1020   25.6246 N   0  0  0  0  0  0  0  0  0  0  0  0
    5.9810    0.8330   18.8060 N   0  0  0  0  0  0  0  0  0  0  0  0
    9.2641   -4.8845   25.8388 N   0  0  0  0  0  0  0  0  0  0  0  0
    8.0810   -0.9750   21.0820 N   0  0  0  0  0  0  0  0  0  0  0  0
    9.1870    1.1500   21.0630 O   0  0  0  0  0  0  0  0  0  0  0  0
    7.4533   -6.8877   26.5818 O   0  0  0  0  0  0  0  0  0  0  0  0
    7.5957   -0.7779   24.7973 H   0  0  0  0  0  0  0  0  0  0  0  0
   11.0384   -2.1852   22.6338 H   0  0  0  0  0  0  0  0  0  0  0  0
    7.5634   -2.8637   26.1037 H   0  0  0  0  0  0  0  0  0  0  0  0
   11.0139   -4.2645   23.9419 H   0  0  0  0  0  0  0  0  0  0  0  0
   12.8920    1.2011   22.7014 H   0  0  0  0  0  0  0  0  0  0  0  0
   10.9544   -0.0314   26.3534 H   0  0  0  0  0  0  0  0  0  0  0  0
    5.4735    0.4758   22.1644 H   0  0  0  0  0  0  0  0  0  0  0  0
    3.6415    1.9967   21.6408 H   0  0  0  0  0  0  0  0  0  0  0  0
    3.2720    2.7926   19.2921 H   0  0  0  0  0  0  0  0  0  0  0  0
    4.8119    2.0418   17.5005 H   0  0  0  0  0  0  0  0  0  0  0  0
    8.7013   -3.9575   27.6574 H   0  0  0  0  0  0  0  0  0  0  0  0
    9.4480   -5.5636   27.8142 H   0  0  0  0  0  0  0  0  0  0  0  0
   10.0131   -6.8375   25.6814 H   0  0  0  0  0  0  0  0  0  0  0  0
    9.6116   -6.0794   24.1250 H   0  0  0  0  0  0  0  0  0  0  0  0
    7.0306   -5.7388   28.2232 H   0  0  0  0  0  0  0  0  0  0  0  0
    6.6546   -4.9740   26.6757 H   0  0  0  0  0  0  0  0  0  0  0  0
    7.1892   -6.2226   24.6319 H   0  0  0  0  0  0  0  0  0  0  0  0
    7.9315   -7.8151   24.8187 H   0  0  0  0  0  0  0  0  0  0  0  0
   13.8123   -1.4600   26.6708 H   0  0  0  0  0  0  0  0  0  0  0  0
   14.6882    0.1037   26.7915 H   0  0  0  0  0  0  0  0  0  0  0  0
   13.1616   -0.1244   27.6818 H   0  0  0  0  0  0  0  0  0  0  0  0
    9.3482    1.4259   24.4346 H   0  0  0  0  0  0  0  0  0  0  0  0
   10.1663    1.8792   22.9588 H   0  0  0  0  0  0  0  0  0  0  0  0
   10.7366   -0.4277   22.4442 H   0  0  0  0  0  0  0  0  0  0  0  0
    8.1354   -1.7990   21.3694 H   0  0  0  0  0  0  0  0  0  0  0  0
  1  3  2  0  0  0  0
  1  7  1  0  0  0  0
  2  4  1  0  0  0  0
  2  7  2  0  0  0  0
  3  9  1  0  0  0  0
  4  9  2  0  0  0  0
  5  8  1  0  0  0  0
  5 24  2  0  0  0  0
  6  8  2  0  0  0  0
  6 27  1  0  0  0  0
  7 23  1  0  0  0  0
  8 22  1  0  0  0  0
  9 29  1  0  0  0  0
 10 11  2  0  0  0  0
 10 12  1  0  0  0  0
 10 28  1  0  0  0  0
 11 25  1  0  0  0  0
 11 30  1  0  0  0  0
 12 13  2  0  0  0  0
 13 14  1  0  0  0  0
 14 15  2  0  0  0  0
 15 28  1  0  0  0  0
 16 23  1  0  0  0  0
 16 30  1  0  0  0  0
 16 31  2  0  0  0  0
 17 19  1  0  0  0  0
 17 29  1  0  0  0  0
 18 20  1  0  0  0  0
 18 29  1  0  0  0  0
 19 32  1  0  0  0  0
 20 32  1  0  0  0  0
 21 27  1  0  0  0  0
 22 23  1  6  0  0  0
 24 27  1  0  0  0  0
 25 26  2  0  0  0  0
 26 28  1  0  0  0  0
  1 33  1  0  0  0  0
  2 34  1  0  0  0  0
  3 35  1  0  0  0  0
  4 36  1  0  0  0  0
  5 37  1  0  0  0  0
  6 38  1  0  0  0  0
 12 39  1  0  0  0  0
 13 40  1  0  0  0  0
 14 41  1  0  0  0  0
 15 42  1  0  0  0  0
 17 43  1  0  0  0  0
 17 44  1  0  0  0  0
 18 45  1  0  0  0  0
 18 46  1  0  0  0  0
 19 47  1  0  0  0  0
 19 48  1  0  0  0  0
 20 49  1  0  0  0  0
 20 50  1  0  0  0  0
 21 51  1  0  0  0  0
 21 52  1  0  0  0  0
 21 53  1  0  0  0  0
 22 54  1  0  0  0  0
 22 55  1  0  0  0  0
 23 56  1  0  0  0  0
 30 57  1  0  0  0  0
M  END
> <clash_score>
0.7348700883676778

> <docking_score>
-7.35735559463501

> <overlap_score>
0.9407410621643066

$$$$
BENZO_278_1
  -OEChem-08222022413D

 57 61  0     1  0  0  0  0  0999 V2000
   13.7706    0.6102   24.1095 C   0  0  0  0  0  0  0  0  0  0  0  0
   12.5330    0.9096   23.5401 C   0  0  0  0  0  0  0  0  0  0  0  0
    8.3510   -1.5420   24.6110 C   0  0  0  0  0  0  0  0  0  0  0  0
   10.2760   -2.3270   23.4020 C   0  0  0  0  0  0  0  0  0  0  0  0
    8.3310   -2.7170   25.3430 C   0  0  0  0  0  0  0  0  0  0  0  0
   10.2570   -3.5000   24.1350 C   0  0  0  0  0  0  0  0  0  0  0  0
   13.8379    0.1183   25.4130 C   0  0  0  0  0  0  0  0  0  0  0  0
   11.4299    0.2253   25.5778 C   0  0  0  0  0  0  0  0  0  0  0  0
    9.3300   -1.3350   23.6390 C   0  0  0  0  0  0  0  0  0  0  0  0
   11.3626    0.7172   24.2742 C   0  0  0  0  0  0  0  0  0  0  0  0
    9.2850   -3.7090   25.1090 C   0  0  0  0  0  0  0  0  0  0  0  0
   12.6676   -0.0742   26.1471 C   0  0  0  0  0  0  0  0  0  0  0  0
    6.1600    0.3870   20.1140 C   0  0  0  0  0  0  0  0  0  0  0  0
    7.2210   -0.4620   20.0350 C   0  0  0  0  0  0  0  0  0  0  0  0
    5.3360    0.8000   21.1530 C   0  0  0  0  0  0  0  0  0  0  0  0
    4.2970    1.6690   20.8430 C   0  0  0  0  0  0  0  0  0  0  0  0
    4.0980    2.1130   19.5350 C   0  0  0  0  0  0  0  0  0  0  0  0
    4.9400    1.7060   18.5060 C   0  0  0  0  0  0  0  0  0  0  0  0
    8.9510    0.1280   21.6880 C   0  0  0  0  0  0  0  0  0  0  0  0
    8.7671   -4.9535   27.2147 C   0  0  0  0  0  0  0  0  0  0  0  0
    9.3066   -6.1865   25.1649 C   0  0  0  0  0  0  0  0  0  0  0  0
    7.3847   -5.5970   27.2000 C   0  0  0  0  0  0  0  0  0  0  0  0
    7.9070   -6.7999   25.2264 C   0  0  0  0  0  0  0  0  0  0  0  0
   10.0220    1.0430   23.6570 C   0  0  0  0  0  0  0  0  0  0  0  0
    9.4200   -0.0840   22.9530 C   0  0  1  0  0  0  0  0  0  0  0  0
    7.6830   -0.5170   18.7600 N   0  0  0  0  0  0  0  0  0  0  0  0
    6.9440    0.2550   18.0100 N   0  0  0  0  0  0  0  0  0  0  0  0
    5.9810    0.8330   18.8060 N   0  0  0  0  0  0  0  0  0  0  0  0
    9.2641   -4.8845   25.8388 N   0  0  0  0  0  0  0  0  0  0  0  0
    8.0810   -0.9750   21.0820 N   0  0  0  0  0  0  0  0  0  0  0  0
    9.1870    1.1500   21.0630 O   0  0  0  0  0  0  0  0  0  0  0  0
    7.4533   -6.8877   26.5818 O   0  0  0  0  0  0  0  0  0  0  0  0
   12.7514   -0.6800   27.7557 Cl  0  0  0  0  0  0  0  0  0  0  0  0
   14.6817    0.7603   23.5375 H   0  0  0  0  0  0  0  0  0  0  0  0
   12.4900    1.2926   22.5238 H   0  0  0  0  0  0  0  0  0  0  0  0
    7.5957   -0.7779   24.7973 H   0  0  0  0  0  0  0  0  0  0  0  0
   11.0384   -2.1852   22.6338 H   0  0  0  0  0  0  0  0  0  0  0  0
    7.5634   -2.8637   26.1037 H   0  0  0  0  0  0  0  0  0  0  0  0
   11.0139   -4.2645   23.9419 H   0  0  0  0  0  0  0  0  0  0  0  0
   14.8095   -0.1105   25.8440 H   0  0  0  0  0  0  0  0  0  0  0  0
   10.5146    0.0765   26.1458 H   0  0  0  0  0  0  0  0  0  0  0  0
    5.4735    0.4758   22.1644 H   0  0  0  0  0  0  0  0  0  0  0  0
    3.6415    1.9967   21.6408 H   0  0  0  0  0  0  0  0  0  0  0  0
    3.2720    2.7926   19.2921 H   0  0  0  0  0  0  0  0  0  0  0  0
    4.8119    2.0418   17.5005 H   0  0  0  0  0  0  0  0  0  0  0  0
    8.7013   -3.9575   27.6574 H   0  0  0  0  0  0  0  0  0  0  0  0
    9.4480   -5.5636   27.8142 H   0  0  0  0  0  0  0  0  0  0  0  0
   10.0131   -6.8375   25.6814 H   0  0  0  0  0  0  0  0  0  0  0  0
    9.6116   -6.0794   24.1250 H   0  0  0  0  0  0  0  0  0  0  0  0
    7.0306   -5.7388   28.2232 H   0  0  0  0  0  0  0  0  0  0  0  0
    6.6546   -4.9740   26.6757 H   0  0  0  0  0  0  0  0  0  0  0  0
    7.1892   -6.2226   24.6319 H   0  0  0  0  0  0  0  0  0  0  0  0
    7.9315   -7.8151   24.8187 H   0  0  0  0  0  0  0  0  0  0  0  0
    9.3482    1.4259   24.4346 H   0  0  0  0  0  0  0  0  0  0  0  0
   10.1663    1.8792   22.9588 H   0  0  0  0  0  0  0  0  0  0  0  0
   10.7366   -0.4277   22.4442 H   0  0  0  0  0  0  0  0  0  0  0  0
    8.1354   -1.7990   21.3694 H   0  0  0  0  0  0  0  0  0  0  0  0
  1  2  2  0  0  0  0
  1  7  1  0  0  0  0
  2 10  1  0  0  0  0
  3  5  2  0  0  0  0
  3  9  1  0  0  0  0
  4  6  1  0  0  0  0
  4  9  2  0  0  0  0
  5 11  1  0  0  0  0
  6 11  2  0  0  0  0
  7 12  2  0  0  0  0
  8 10  2  0  0  0  0
  8 12  1  0  0  0  0
  9 25  1  0  0  0  0
 10 24  1  0  0  0  0
 11 29  1  0  0  0  0
 12 33  1  0  0  0  0
 13 14  2  0  0  0  0
 13 15  1  0  0  0  0
 13 28  1  0  0  0  0
 14 26  1  0  0  0  0
 14 30  1  0  0  0  0
 15 16  2  0  0  0  0
 16 17  1  0  0  0  0
 17 18  2  0  0  0  0
 18 28  1  0  0  0  0
 19 25  1  1  0  0  0
 19 30  1  0  0  0  0
 19 31  2  0  0  0  0
 20 22  1  0  0  0  0
 20 29  1  0  0  0  0
 21 23  1  0  0  0  0
 21 29  1  0  0  0  0
 22 32  1  0  0  0  0
 23 32  1  0  0  0  0
 24 25  1  0  0  0  0
 26 27  2  0  0  0  0
 27 28  1  0  0  0  0
  1 34  1  0  0  0  0
  2 35  1  0  0  0  0
  3 36  1  0  0  0  0
  4 37  1  0  0  0  0
  5 38  1  0  0  0  0
  6 39  1  0  0  0  0
  7 40  1  0  0  0  0
  8 41  1  0  0  0  0
 15 42  1  0  0  0  0
 16 43  1  0  0  0  0
 17 44  1  0  0  0  0
 18 45  1  0  0  0  0
 20 46  1  0  0  0  0
 20 47  1  0  0  0  0
 21 48  1  0  0  0  0
 21 49  1  0  0  0  0
 22 50  1  0  0  0  0
 22 51  1  0  0  0  0
 23 52  1  0  0  0  0
 23 53  1  0  0  0  0
 24 54  1  0  0  0  0
 24 55  1  0  0  0  0
 25 56  1  0  0  0  0
 30 57  1  0  0  0  0
M  END
> <clash_score>
1.5650094966294676

> <docking_score>
-6.594732761383057

> <overlap_score>
0.9480651021003723

$$$$
BENZO_279_1
  -OEChem-08222022413D

 57 61  0     1  0  0  0  0  0999 V2000
    8.3510   -1.5420   24.6110 C   0  0  0  0  0  0  0  0  0  0  0  0
   10.2760   -2.3270   23.4020 C   0  0  0  0  0  0  0  0  0  0  0  0
    8.3310   -2.7170   25.3430 C   0  0  0  0  0  0  0  0  0  0  0  0
   10.2570   -3.5000   24.1350 C   0  0  0  0  0  0  0  0  0  0  0  0
   12.2990    2.3261   23.4416 C   0  0  0  0  0  0  0  0  0  0  0  0
   12.4071    0.1434   23.1984 C   0  0  0  0  0  0  0  0  0  0  0  0
    9.3300   -1.3350   23.6390 C   0  0  0  0  0  0  0  0  0  0  0  0
   11.5133    1.1580   23.4397 C   0  0  0  0  0  0  0  0  0  0  0  0
    9.2850   -3.7090   25.1090 C   0  0  0  0  0  0  0  0  0  0  0  0
    6.1600    0.3870   20.1140 C   0  0  0  0  0  0  0  0  0  0  0  0
    7.2210   -0.4620   20.0350 C   0  0  0  0  0  0  0  0  0  0  0  0
    5.3360    0.8000   21.1530 C   0  0  0  0  0  0  0  0  0  0  0  0
    4.2970    1.6690   20.8430 C   0  0  0  0  0  0  0  0  0  0  0  0
    4.0980    2.1130   19.5350 C   0  0  0  0  0  0  0  0  0  0  0  0
    4.9400    1.7060   18.5060 C   0  0  0  0  0  0  0  0  0  0  0  0
    8.9510    0.1280   21.6880 C   0  0  0  0  0  0  0  0  0  0  0  0
    8.7671   -4.9535   27.2147 C   0  0  0  0  0  0  0  0  0  0  0  0
    9.3066   -6.1865   25.1649 C   0  0  0  0  0  0  0  0  0  0  0  0
    7.3847   -5.5970   27.2000 C   0  0  0  0  0  0  0  0  0  0  0  0
    7.9070   -6.7999   25.2264 C   0  0  0  0  0  0  0  0  0  0  0  0
   14.8827    0.0809   22.8160 C   0  0  0  0  0  0  0  0  0  0  0  0
   10.0220    1.0430   23.6570 C   0  0  0  0  0  0  0  0  0  0  0  0
    9.4200   -0.0840   22.9530 C   0  0  1  0  0  0  0  0  0  0  0  0
   13.5924    2.0779   23.2193 N   0  0  0  0  0  0  0  0  0  0  0  0
    7.6830   -0.5170   18.7600 N   0  0  0  0  0  0  0  0  0  0  0  0
    6.9440    0.2550   18.0100 N   0  0  0  0  0  0  0  0  0  0  0  0
   13.6264    0.7422   23.0755 N   0  0  0  0  0  0  0  0  0  0  0  0
    5.9810    0.8330   18.8060 N   0  0  0  0  0  0  0  0  0  0  0  0
    9.2641   -4.8845   25.8388 N   0  0  0  0  0  0  0  0  0  0  0  0
    8.0810   -0.9750   21.0820 N   0  0  0  0  0  0  0  0  0  0  0  0
    9.1870    1.1500   21.0630 O   0  0  0  0  0  0  0  0  0  0  0  0
    7.4533   -6.8877   26.5818 O   0  0  0  0  0  0  0  0  0  0  0  0
    7.5957   -0.7779   24.7973 H   0  0  0  0  0  0  0  0  0  0  0  0
   11.0384   -2.1852   22.6338 H   0  0  0  0  0  0  0  0  0  0  0  0
    7.5634   -2.8637   26.1037 H   0  0  0  0  0  0  0  0  0  0  0  0
   11.0139   -4.2645   23.9419 H   0  0  0  0  0  0  0  0  0  0  0  0
   11.9854    3.3488   23.5963 H   0  0  0  0  0  0  0  0  0  0  0  0
   12.2827   -0.9271   23.1072 H   0  0  0  0  0  0  0  0  0  0  0  0
    5.4735    0.4758   22.1644 H   0  0  0  0  0  0  0  0  0  0  0  0
    3.6415    1.9967   21.6408 H   0  0  0  0  0  0  0  0  0  0  0  0
    3.2720    2.7926   19.2921 H   0  0  0  0  0  0  0  0  0  0  0  0
    4.8119    2.0418   17.5005 H   0  0  0  0  0  0  0  0  0  0  0  0
    8.7013   -3.9575   27.6574 H   0  0  0  0  0  0  0  0  0  0  0  0
    9.4480   -5.5636   27.8142 H   0  0  0  0  0  0  0  0  0  0  0  0
   10.0131   -6.8375   25.6814 H   0  0  0  0  0  0  0  0  0  0  0  0
    9.6116   -6.0794   24.1250 H   0  0  0  0  0  0  0  0  0  0  0  0
    7.0306   -5.7388   28.2232 H   0  0  0  0  0  0  0  0  0  0  0  0
    6.6546   -4.9740   26.6757 H   0  0  0  0  0  0  0  0  0  0  0  0
    7.1892   -6.2226   24.6319 H   0  0  0  0  0  0  0  0  0  0  0  0
    7.9315   -7.8151   24.8187 H   0  0  0  0  0  0  0  0  0  0  0  0
   15.0211    0.0327   21.7327 H   0  0  0  0  0  0  0  0  0  0  0  0
   15.6949    0.6471   23.2804 H   0  0  0  0  0  0  0  0  0  0  0  0
   14.8569   -0.9250   23.2444 H   0  0  0  0  0  0  0  0  0  0  0  0
    9.8155    0.9894   24.7339 H   0  0  0  0  0  0  0  0  0  0  0  0
    9.5584    1.9798   23.3178 H   0  0  0  0  0  0  0  0  0  0  0  0
    8.1278    0.3254   23.5142 H   0  0  0  0  0  0  0  0  0  0  0  0
    8.1354   -1.7990   21.3694 H   0  0  0  0  0  0  0  0  0  0  0  0
  1  3  2  0  0  0  0
  1  7  1  0  0  0  0
  2  4  1  0  0  0  0
  2  7  2  0  0  0  0
  3  9  1  0  0  0  0
  4  9  2  0  0  0  0
  5  8  1  0  0  0  0
  5 24  2  0  0  0  0
  6  8  2  0  0  0  0
  6 27  1  0  0  0  0
  7 23  1  0  0  0  0
  8 22  1  0  0  0  0
  9 29  1  0  0  0  0
 10 11  2  0  0  0  0
 10 12  1  0  0  0  0
 10 28  1  0  0  0  0
 11 25  1  0  0  0  0
 11 30  1  0  0  0  0
 12 13  2  0  0  0  0
 13 14  1  0  0  0  0
 14 15  2  0  0  0  0
 15 28  1  0  0  0  0
 16 23  1  0  0  0  0
 16 30  1  0  0  0  0
 16 31  2  0  0  0  0
 17 19  1  0  0  0  0
 17 29  1  0  0  0  0
 18 20  1  0  0  0  0
 18 29  1  0  0  0  0
 19 32  1  0  0  0  0
 20 32  1  0  0  0  0
 21 27  1  0  0  0  0
 22 23  1  1  0  0  0
 24 27  1  0  0  0  0
 25 26  2  0  0  0  0
 26 28  1  0  0  0  0
  1 33  1  0  0  0  0
  2 34  1  0  0  0  0
  3 35  1  0  0  0  0
  4 36  1  0  0  0  0
  5 37  1  0  0  0  0
  6 38  1  0  0  0  0
 12 39  1  0  0  0  0
 13 40  1  0  0  0  0
 14 41  1  0  0  0  0
 15 42  1  0  0  0  0
 17 43  1  0  0  0  0
 17 44  1  0  0  0  0
 18 45  1  0  0  0  0
 18 46  1  0  0  0  0
 19 47  1  0  0  0  0
 19 48  1  0  0  0  0
 20 49  1  0  0  0  0
 20 50  1  0  0  0  0
 21 51  1  0  0  0  0
 21 52  1  0  0  0  0
 21 53  1  0  0  0  0
 22 54  1  0  0  0  0
 22 55  1  0  0  0  0
 23 56  1  0  0  0  0
 30 57  1  0  0  0  0
M  END
> <clash_score>
0

> <docking_score>
-9.156272888183594

> <overlap_score>
1.0284920930862427

$$$$
BENZO_278_2
  -OEChem-08222022413D

 57 61  0     1  0  0  0  0  0999 V2000
   13.7717    0.6100   24.1003 C   0  0  0  0  0  0  0  0  0  0  0  0
   12.3953    0.5053   24.3009 C   0  0  0  0  0  0  0  0  0  0  0  0
    8.3510   -1.5420   24.6110 C   0  0  0  0  0  0  0  0  0  0  0  0
   10.2760   -2.3270   23.4020 C   0  0  0  0  0  0  0  0  0  0  0  0
    8.3310   -2.7170   25.3430 C   0  0  0  0  0  0  0  0  0  0  0  0
   10.2570   -3.5000   24.1350 C   0  0  0  0  0  0  0  0  0  0  0  0
   14.2661    1.3676   23.0385 C   0  0  0  0  0  0  0  0  0  0  0  0
   12.0077    1.9155   22.3779 C   0  0  0  0  0  0  0  0  0  0  0  0
    9.3300   -1.3350   23.6390 C   0  0  0  0  0  0  0  0  0  0  0  0
   11.5133    1.1580   23.4397 C   0  0  0  0  0  0  0  0  0  0  0  0
    9.2850   -3.7090   25.1090 C   0  0  0  0  0  0  0  0  0  0  0  0
   13.3841    2.0203   22.1773 C   0  0  0  0  0  0  0  0  0  0  0  0
    6.1600    0.3870   20.1140 C   0  0  0  0  0  0  0  0  0  0  0  0
    7.2210   -0.4620   20.0350 C   0  0  0  0  0  0  0  0  0  0  0  0
    5.3360    0.8000   21.1530 C   0  0  0  0  0  0  0  0  0  0  0  0
    4.2970    1.6690   20.8430 C   0  0  0  0  0  0  0  0  0  0  0  0
    4.0980    2.1130   19.5350 C   0  0  0  0  0  0  0  0  0  0  0  0
    4.9400    1.7060   18.5060 C   0  0  0  0  0  0  0  0  0  0  0  0
    8.9510    0.1280   21.6880 C   0  0  0  0  0  0  0  0  0  0  0  0
    8.7671   -4.9535   27.2147 C   0  0  0  0  0  0  0  0  0  0  0  0
    9.3066   -6.1865   25.1649 C   0  0  0  0  0  0  0  0  0  0  0  0
    7.3847   -5.5970   27.2000 C   0  0  0  0  0  0  0  0  0  0  0  0
    7.9070   -6.7999   25.2264 C   0  0  0  0  0  0  0  0  0  0  0  0
   10.0220    1.0430   23.6570 C   0  0  0  0  0  0  0  0  0  0  0  0
    9.4200   -0.0840   22.9530 C   0  0  2  0  0  0  0  0  0  0  0  0
    7.6830   -0.5170   18.7600 N   0  0  0  0  0  0  0  0  0  0  0  0
    6.9440    0.2550   18.0100 N   0  0  0  0  0  0  0  0  0  0  0  0
    5.9810    0.8330   18.8060 N   0  0  0  0  0  0  0  0  0  0  0  0
    9.2641   -4.8845   25.8388 N   0  0  0  0  0  0  0  0  0  0  0  0
    8.0810   -0.9750   21.0820 N   0  0  0  0  0  0  0  0  0  0  0  0
    9.1870    1.1500   21.0630 O   0  0  0  0  0  0  0  0  0  0  0  0
    7.4533   -6.8877   26.5818 O   0  0  0  0  0  0  0  0  0  0  0  0
   13.9946    2.9539   20.8668 Cl  0  0  0  0  0  0  0  0  0  0  0  0
   14.4581    0.1015   24.7710 H   0  0  0  0  0  0  0  0  0  0  0  0
   12.0190   -0.0873   25.1307 H   0  0  0  0  0  0  0  0  0  0  0  0
    7.5957   -0.7779   24.7973 H   0  0  0  0  0  0  0  0  0  0  0  0
   11.0384   -2.1852   22.6338 H   0  0  0  0  0  0  0  0  0  0  0  0
    7.5634   -2.8637   26.1037 H   0  0  0  0  0  0  0  0  0  0  0  0
   11.0139   -4.2645   23.9419 H   0  0  0  0  0  0  0  0  0  0  0  0
   15.3412    1.4401   22.8941 H   0  0  0  0  0  0  0  0  0  0  0  0
   11.3159    2.4230   21.7095 H   0  0  0  0  0  0  0  0  0  0  0  0
    5.4735    0.4758   22.1644 H   0  0  0  0  0  0  0  0  0  0  0  0
    3.6415    1.9967   21.6408 H   0  0  0  0  0  0  0  0  0  0  0  0
    3.2720    2.7926   19.2921 H   0  0  0  0  0  0  0  0  0  0  0  0
    4.8119    2.0418   17.5005 H   0  0  0  0  0  0  0  0  0  0  0  0
    8.7013   -3.9575   27.6574 H   0  0  0  0  0  0  0  0  0  0  0  0
    9.4480   -5.5636   27.8142 H   0  0  0  0  0  0  0  0  0  0  0  0
   10.0131   -6.8375   25.6814 H   0  0  0  0  0  0  0  0  0  0  0  0
    9.6116   -6.0794   24.1250 H   0  0  0  0  0  0  0  0  0  0  0  0
    7.0306   -5.7388   28.2232 H   0  0  0  0  0  0  0  0  0  0  0  0
    6.6546   -4.9740   26.6757 H   0  0  0  0  0  0  0  0  0  0  0  0
    7.1892   -6.2226   24.6319 H   0  0  0  0  0  0  0  0  0  0  0  0
    7.9315   -7.8151   24.8187 H   0  0  0  0  0  0  0  0  0  0  0  0
    9.8155    0.9894   24.7339 H   0  0  0  0  0  0  0  0  0  0  0  0
    9.5584    1.9798   23.3178 H   0  0  0  0  0  0  0  0  0  0  0  0
    8.1278    0.3254   23.5142 H   0  0  0  0  0  0  0  0  0  0  0  0
    8.1354   -1.7990   21.3694 H   0  0  0  0  0  0  0  0  0  0  0  0
  1  2  2  0  0  0  0
  1  7  1  0  0  0  0
  2 10  1  0  0  0  0
  3  5  2  0  0  0  0
  3  9  1  0  0  0  0
  4  6  1  0  0  0  0
  4  9  2  0  0  0  0
  5 11  1  0  0  0  0
  6 11  2  0  0  0  0
  7 12  2  0  0  0  0
  8 10  2  0  0  0  0
  8 12  1  0  0  0  0
  9 25  1  0  0  0  0
 10 24  1  0  0  0  0
 11 29  1  0  0  0  0
 12 33  1  0  0  0  0
 13 14  2  0  0  0  0
 13 15  1  0  0  0  0
 13 28  1  0  0  0  0
 14 26  1  0  0  0  0
 14 30  1  0  0  0  0
 15 16  2  0  0  0  0
 16 17  1  0  0  0  0
 17 18  2  0  0  0  0
 18 28  1  0  0  0  0
 19 25  1  6  0  0  0
 19 30  1  0  0  0  0
 19 31  2  0  0  0  0
 20 22  1  0  0  0  0
 20 29  1  0  0  0  0
 21 23  1  0  0  0  0
 21 29  1  0  0  0  0
 22 32  1  0  0  0  0
 23 32  1  0  0  0  0
 24 25  1  0  0  0  0
 26 27  2  0  0  0  0
 27 28  1  0  0  0  0
  1 34  1  0  0  0  0
  2 35  1  0  0  0  0
  3 36  1  0  0  0  0
  4 37  1  0  0  0  0
  5 38  1  0  0  0  0
  6 39  1  0  0  0  0
  7 40  1  0  0  0  0
  8 41  1  0  0  0  0
 15 42  1  0  0  0  0
 16 43  1  0  0  0  0
 17 44  1  0  0  0  0
 18 45  1  0  0  0  0
 20 46  1  0  0  0  0
 20 47  1  0  0  0  0
 21 48  1  0  0  0  0
 21 49  1  0  0  0  0
 22 50  1  0  0  0  0
 22 51  1  0  0  0  0
 23 52  1  0  0  0  0
 23 53  1  0  0  0  0
 24 54  1  0  0  0  0
 24 55  1  0  0  0  0
 25 56  1  0  0  0  0
 30 57  1  0  0  0  0
M  END
> <clash_score>
0

> <docking_score>
-7.613174915313721

> <overlap_score>
1.0296601057052612

$$$$
BENZO_285_1
  -OEChem-08222022413D

 56 59  0     1  0  0  0  0  0999 V2000
   14.2623    1.3345   22.9975 C   0  0  0  0  0  0  0  0  0  0  0  0
    4.2970    1.6690   20.8430 C   0  0  0  0  0  0  0  0  0  0  0  0
   13.7729    0.5817   24.0649 C   0  0  0  0  0  0  0  0  0  0  0  0
   13.3767    1.9928   22.1442 C   0  0  0  0  0  0  0  0  0  0  0  0
    4.0980    2.1130   19.5350 C   0  0  0  0  0  0  0  0  0  0  0  0
    5.3360    0.8000   21.1530 C   0  0  0  0  0  0  0  0  0  0  0  0
   12.3978    0.4871   24.2790 C   0  0  0  0  0  0  0  0  0  0  0  0
   12.0016    1.8981   22.3583 C   0  0  0  0  0  0  0  0  0  0  0  0
    8.3510   -1.5420   24.6110 C   0  0  0  0  0  0  0  0  0  0  0  0
   10.2760   -2.3270   23.4020 C   0  0  0  0  0  0  0  0  0  0  0  0
    4.9400    1.7060   18.5060 C   0  0  0  0  0  0  0  0  0  0  0  0
    8.3310   -2.7170   25.3430 C   0  0  0  0  0  0  0  0  0  0  0  0
   10.2570   -3.5000   24.1350 C   0  0  0  0  0  0  0  0  0  0  0  0
    7.6830   -0.5170   18.7600 C   0  0  0  0  0  0  0  0  0  0  0  0
    6.1600    0.3870   20.1140 C   0  0  0  0  0  0  0  0  0  0  0  0
   11.5121    1.1453   23.4257 C   0  0  0  0  0  0  0  0  0  0  0  0
    9.3300   -1.3350   23.6390 C   0  0  0  0  0  0  0  0  0  0  0  0
    5.9810    0.8330   18.8060 C   0  0  0  0  0  0  0  0  0  0  0  0
    9.2850   -3.7090   25.1090 C   0  0  0  0  0  0  0  0  0  0  0  0
    7.2210   -0.4620   20.0350 C   0  0  0  0  0  0  0  0  0  0  0  0
    8.1532   -5.5459   26.3982 C   0  0  0  0  0  0  0  0  0  0  0  0
    8.9510    0.1280   21.6880 C   0  0  0  0  0  0  0  0  0  0  0  0
    9.7890   -7.4744   26.4997 C   0  0  0  0  0  0  0  0  0  0  0  0
   10.0220    1.0430   23.6570 C   0  0  0  0  0  0  0  0  0  0  0  0
    8.5721   -6.8157   27.1241 C   0  0  0  0  0  0  0  0  0  0  0  0
    9.4200   -0.0840   22.9530 C   0  0  1  0  0  0  0  0  0  0  0  0
    6.9440    0.2550   18.0100 N   0  0  0  0  0  0  0  0  0  0  0  0
    9.2630   -4.8903   25.8409 N   0  0  0  0  0  0  0  0  0  0  0  0
    8.0810   -0.9750   21.0820 N   0  0  0  0  0  0  0  0  0  0  0  0
    6.9817   -5.1874   26.3377 O   0  0  0  0  0  0  0  0  0  0  0  0
    9.1870    1.1500   21.0630 O   0  0  0  0  0  0  0  0  0  0  0  0
   15.3331    1.4092   22.8317 H   0  0  0  0  0  0  0  0  0  0  0  0
    3.6256    2.0106   21.6303 H   0  0  0  0  0  0  0  0  0  0  0  0
   14.4623    0.0700   24.7300 H   0  0  0  0  0  0  0  0  0  0  0  0
   13.7574    2.5799   21.3137 H   0  0  0  0  0  0  0  0  0  0  0  0
    3.2724    2.7868   19.3204 H   0  0  0  0  0  0  0  0  0  0  0  0
    5.4858    0.4664   22.1692 H   0  0  0  0  0  0  0  0  0  0  0  0
   12.0255   -0.1019   25.1131 H   0  0  0  0  0  0  0  0  0  0  0  0
   11.3191    2.4143   21.6883 H   0  0  0  0  0  0  0  0  0  0  0  0
    7.5948   -0.7783   24.7966 H   0  0  0  0  0  0  0  0  0  0  0  0
   11.0389   -2.1844   22.6342 H   0  0  0  0  0  0  0  0  0  0  0  0
    4.7836    2.0664   17.4848 H   0  0  0  0  0  0  0  0  0  0  0  0
    7.5642   -2.8624   26.1050 H   0  0  0  0  0  0  0  0  0  0  0  0
   11.0137   -4.2649   23.9418 H   0  0  0  0  0  0  0  0  0  0  0  0
    8.5274   -1.0858   18.3384 H   0  0  0  0  0  0  0  0  0  0  0  0
    9.6005   -7.7377   25.4537 H   0  0  0  0  0  0  0  0  0  0  0  0
   10.0470   -8.3896   27.0414 H   0  0  0  0  0  0  0  0  0  0  0  0
   10.6554   -6.8053   26.5265 H   0  0  0  0  0  0  0  0  0  0  0  0
    9.8253    0.9889   24.7357 H   0  0  0  0  0  0  0  0  0  0  0  0
    9.5635    1.9845   23.3241 H   0  0  0  0  0  0  0  0  0  0  0  0
    8.7886   -6.5635   28.1685 H   0  0  0  0  0  0  0  0  0  0  0  0
    7.7299   -7.5171   27.1116 H   0  0  0  0  0  0  0  0  0  0  0  0
    8.1288    0.3205   23.5156 H   0  0  0  0  0  0  0  0  0  0  0  0
    7.0325    0.4238   17.0175 H   0  0  0  0  0  0  0  0  0  0  0  0
   10.1695   -5.3467   25.9960 H   0  0  0  0  0  0  0  0  0  0  0  0
    8.1175   -1.8104   21.3538 H   0  0  0  0  0  0  0  0  0  0  0  0
  1  3  1  0  0  0  0
  1  4  2  0  0  0  0
  2  5  1  0  0  0  0
  2  6  2  0  0  0  0
  3  7  2  0  0  0  0
  4  8  1  0  0  0  0
  5 11  2  0  0  0  0
  6 15  1  0  0  0  0
  7 16  1  0  0  0  0
  8 16  2  0  0  0  0
  9 12  2  0  0  0  0
  9 17  1  0  0  0  0
 10 13  1  0  0  0  0
 10 17  2  0  0  0  0
 11 18  1  0  0  0  0
 12 19  1  0  0  0  0
 13 19  2  0  0  0  0
 14 20  2  0  0  0  0
 14 27  1  0  0  0  0
 15 18  2  0  0  0  0
 15 20  1  0  0  0  0
 16 24  1  0  0  0  0
 17 26  1  0  0  0  0
 18 27  1  0  0  0  0
 19 28  1  0  0  0  0
 20 29  1  0  0  0  0
 21 25  1  0  0  0  0
 21 28  1  0  0  0  0
 21 30  2  0  0  0  0
 22 26  1  0  0  0  0
 22 29  1  0  0  0  0
 22 31  2  0  0  0  0
 23 25  1  0  0  0  0
 24 26  1  1  0  0  0
  1 32  1  0  0  0  0
  2 33  1  0  0  0  0
  3 34  1  0  0  0  0
  4 35  1  0  0  0  0
  5 36  1  0  0  0  0
  6 37  1  0  0  0  0
  7 38  1  0  0  0  0
  8 39  1  0  0  0  0
  9 40  1  0  0  0  0
 10 41  1  0  0  0  0
 11 42  1  0  0  0  0
 12 43  1  0  0  0  0
 13 44  1  0  0  0  0
 14 45  1  0  0  0  0
 23 46  1  0  0  0  0
 23 47  1  0  0  0  0
 23 48  1  0  0  0  0
 24 49  1  0  0  0  0
 24 50  1  0  0  0  0
 25 51  1  0  0  0  0
 25 52  1  0  0  0  0
 26 53  1  0  0  0  0
 27 54  1  0  0  0  0
 28 55  1  0  0  0  0
 29 56  1  0  0  0  0
M  END
> <clash_score>
0.746221240431964

> <docking_score>
-6.613941192626953

> <overlap_score>
1.0191528797149658

$$$$
BENZO_283_2
  -OEChem-08222022413D

 54 57  0     1  0  0  0  0  0999 V2000
    4.2970    1.6690   20.8430 C   0  0  0  0  0  0  0  0  0  0  0  0
    4.0980    2.1130   19.5350 C   0  0  0  0  0  0  0  0  0  0  0  0
    5.3360    0.8000   21.1530 C   0  0  0  0  0  0  0  0  0  0  0  0
    8.3510   -1.5420   24.6110 C   0  0  0  0  0  0  0  0  0  0  0  0
   10.2760   -2.3270   23.4020 C   0  0  0  0  0  0  0  0  0  0  0  0
    4.9400    1.7060   18.5060 C   0  0  0  0  0  0  0  0  0  0  0  0
    8.3310   -2.7170   25.3430 C   0  0  0  0  0  0  0  0  0  0  0  0
   10.2570   -3.5000   24.1350 C   0  0  0  0  0  0  0  0  0  0  0  0
   12.6346    0.8176   23.6854 C   0  0  0  0  0  0  0  0  0  0  0  0
   11.6038    0.2020   25.5275 C   0  0  0  0  0  0  0  0  0  0  0  0
    7.6830   -0.5170   18.7600 C   0  0  0  0  0  0  0  0  0  0  0  0
    6.1600    0.3870   20.1140 C   0  0  0  0  0  0  0  0  0  0  0  0
    9.3300   -1.3350   23.6390 C   0  0  0  0  0  0  0  0  0  0  0  0
   11.3597    0.6989   24.2706 C   0  0  0  0  0  0  0  0  0  0  0  0
    5.9810    0.8330   18.8060 C   0  0  0  0  0  0  0  0  0  0  0  0
    9.2850   -3.7090   25.1090 C   0  0  0  0  0  0  0  0  0  0  0  0
    7.2210   -0.4620   20.0350 C   0  0  0  0  0  0  0  0  0  0  0  0
    8.9510    0.1280   21.6880 C   0  0  0  0  0  0  0  0  0  0  0  0
   13.6941   -0.4329   26.7549 C   0  0  0  0  0  0  0  0  0  0  0  0
    8.2520   -5.1175   26.8652 C   0  0  0  0  0  0  0  0  0  0  0  0
   10.2437   -5.9407   25.5988 C   0  0  0  0  0  0  0  0  0  0  0  0
   10.0220    1.0430   23.6570 C   0  0  0  0  0  0  0  0  0  0  0  0
    9.4200   -0.0840   22.9530 C   0  0  2  0  0  0  0  0  0  0  0  0
   13.6158    0.4276   24.5035 N   0  0  0  0  0  0  0  0  0  0  0  0
    6.9440    0.2550   18.0100 N   0  0  0  0  0  0  0  0  0  0  0  0
   12.9573    0.0592   25.6156 N   0  0  0  0  0  0  0  0  0  0  0  0
    8.0810   -0.9750   21.0820 N   0  0  0  0  0  0  0  0  0  0  0  0
    9.2638   -4.9025   25.8500 N   0  0  0  0  0  0  0  0  0  0  0  0
    9.1870    1.1500   21.0630 O   0  0  0  0  0  0  0  0  0  0  0  0
    3.6256    2.0106   21.6303 H   0  0  0  0  0  0  0  0  0  0  0  0
    3.2724    2.7868   19.3204 H   0  0  0  0  0  0  0  0  0  0  0  0
    5.4858    0.4664   22.1692 H   0  0  0  0  0  0  0  0  0  0  0  0
    7.5957   -0.7779   24.7973 H   0  0  0  0  0  0  0  0  0  0  0  0
   11.0384   -2.1852   22.6338 H   0  0  0  0  0  0  0  0  0  0  0  0
    4.7836    2.0664   17.4848 H   0  0  0  0  0  0  0  0  0  0  0  0
    7.5634   -2.8637   26.1037 H   0  0  0  0  0  0  0  0  0  0  0  0
   11.0139   -4.2645   23.9419 H   0  0  0  0  0  0  0  0  0  0  0  0
   12.8922    1.1725   22.6975 H   0  0  0  0  0  0  0  0  0  0  0  0
   10.9461   -0.0545   26.3470 H   0  0  0  0  0  0  0  0  0  0  0  0
    8.5274   -1.0858   18.3384 H   0  0  0  0  0  0  0  0  0  0  0  0
   13.7879   -1.5173   26.6532 H   0  0  0  0  0  0  0  0  0  0  0  0
   14.6819    0.0356   26.7797 H   0  0  0  0  0  0  0  0  0  0  0  0
   13.1542   -0.1790   27.6714 H   0  0  0  0  0  0  0  0  0  0  0  0
    8.4015   -6.1034   27.3297 H   0  0  0  0  0  0  0  0  0  0  0  0
    8.3315   -4.3345   27.6337 H   0  0  0  0  0  0  0  0  0  0  0  0
    7.2546   -5.0776   26.4029 H   0  0  0  0  0  0  0  0  0  0  0  0
   10.0610   -6.7893   26.2745 H   0  0  0  0  0  0  0  0  0  0  0  0
   10.1605   -6.2786   24.5553 H   0  0  0  0  0  0  0  0  0  0  0  0
   11.2536   -5.5421   25.7758 H   0  0  0  0  0  0  0  0  0  0  0  0
    9.3529    1.4272   24.4380 H   0  0  0  0  0  0  0  0  0  0  0  0
   10.1743    1.8827   22.9648 H   0  0  0  0  0  0  0  0  0  0  0  0
   10.7346   -0.4307   22.4468 H   0  0  0  0  0  0  0  0  0  0  0  0
    7.0325    0.4238   17.0175 H   0  0  0  0  0  0  0  0  0  0  0  0
    8.1175   -1.8104   21.3538 H   0  0  0  0  0  0  0  0  0  0  0  0
  1  2  1  0  0  0  0
  1  3  2  0  0  0  0
  2  6  2  0  0  0  0
  3 12  1  0  0  0  0
  4  7  2  0  0  0  0
  4 13  1  0  0  0  0
  5  8  1  0  0  0  0
  5 13  2  0  0  0  0
  6 15  1  0  0  0  0
  7 16  1  0  0  0  0
  8 16  2  0  0  0  0
  9 14  1  0  0  0  0
  9 24  2  0  0  0  0
 10 14  2  0  0  0  0
 10 26  1  0  0  0  0
 11 17  2  0  0  0  0
 11 25  1  0  0  0  0
 12 15  2  0  0  0  0
 12 17  1  0  0  0  0
 13 23  1  0  0  0  0
 14 22  1  0  0  0  0
 15 25  1  0  0  0  0
 16 28  1  0  0  0  0
 17 27  1  0  0  0  0
 18 23  1  0  0  0  0
 18 27  1  0  0  0  0
 18 29  2  0  0  0  0
 19 26  1  0  0  0  0
 20 28  1  0  0  0  0
 21 28  1  0  0  0  0
 22 23  1  6  0  0  0
 24 26  1  0  0  0  0
  1 30  1  0  0  0  0
  2 31  1  0  0  0  0
  3 32  1  0  0  0  0
  4 33  1  0  0  0  0
  5 34  1  0  0  0  0
  6 35  1  0  0  0  0
  7 36  1  0  0  0  0
  8 37  1  0  0  0  0
  9 38  1  0  0  0  0
 10 39  1  0  0  0  0
 11 40  1  0  0  0  0
 19 41  1  0  0  0  0
 19 42  1  0  0  0  0
 19 43  1  0  0  0  0
 20 44  1  0  0  0  0
 20 45  1  0  0  0  0
 20 46  1  0  0  0  0
 21 47  1  0  0  0  0
 21 48  1  0  0  0  0
 21 49  1  0  0  0  0
 22 50  1  0  0  0  0
 22 51  1  0  0  0  0
 23 52  1  0  0  0  0
 25 53  1  0  0  0  0
 27 54  1  0  0  0  0
M  END
> <clash_score>
0.7451148105844075

> <docking_score>
-7.406220436096191

> <overlap_score>
0.9268196225166321

$$$$
BENZO_285_2
  -OEChem-08222022413D

 56 59  0     1  0  0  0  0  0999 V2000
   13.8295    0.0638   25.4018 C   0  0  0  0  0  0  0  0  0  0  0  0
    4.2970    1.6690   20.8430 C   0  0  0  0  0  0  0  0  0  0  0  0
   12.6583   -0.1175   26.1373 C   0  0  0  0  0  0  0  0  0  0  0  0
   13.7659    0.5627   24.1007 C   0  0  0  0  0  0  0  0  0  0  0  0
    4.0980    2.1130   19.5350 C   0  0  0  0  0  0  0  0  0  0  0  0
    5.3360    0.8000   21.1530 C   0  0  0  0  0  0  0  0  0  0  0  0
   11.4234    0.2001   25.5717 C   0  0  0  0  0  0  0  0  0  0  0  0
   12.5310    0.8802   23.5351 C   0  0  0  0  0  0  0  0  0  0  0  0
    8.3510   -1.5420   24.6110 C   0  0  0  0  0  0  0  0  0  0  0  0
   10.2760   -2.3270   23.4020 C   0  0  0  0  0  0  0  0  0  0  0  0
    4.9400    1.7060   18.5060 C   0  0  0  0  0  0  0  0  0  0  0  0
    8.3310   -2.7170   25.3430 C   0  0  0  0  0  0  0  0  0  0  0  0
   10.2570   -3.5000   24.1350 C   0  0  0  0  0  0  0  0  0  0  0  0
    7.6830   -0.5170   18.7600 C   0  0  0  0  0  0  0  0  0  0  0  0
    6.1600    0.3870   20.1140 C   0  0  0  0  0  0  0  0  0  0  0  0
   11.3598    0.6989   24.2706 C   0  0  0  0  0  0  0  0  0  0  0  0
    9.3300   -1.3350   23.6390 C   0  0  0  0  0  0  0  0  0  0  0  0
    5.9810    0.8330   18.8060 C   0  0  0  0  0  0  0  0  0  0  0  0
    9.2850   -3.7090   25.1090 C   0  0  0  0  0  0  0  0  0  0  0  0
    7.2210   -0.4620   20.0350 C   0  0  0  0  0  0  0  0  0  0  0  0
    8.3642   -5.2691   26.8512 C   0  0  0  0  0  0  0  0  0  0  0  0
    8.9510    0.1280   21.6880 C   0  0  0  0  0  0  0  0  0  0  0  0
    7.9641   -7.7612   26.6648 C   0  0  0  0  0  0  0  0  0  0  0  0
   10.0220    1.0430   23.6570 C   0  0  0  0  0  0  0  0  0  0  0  0
    8.6980   -6.6505   27.3945 C   0  0  0  0  0  0  0  0  0  0  0  0
    9.4200   -0.0840   22.9530 C   0  0  2  0  0  0  0  0  0  0  0  0
    6.9440    0.2550   18.0100 N   0  0  0  0  0  0  0  0  0  0  0  0
    9.2630   -4.8903   25.8409 N   0  0  0  0  0  0  0  0  0  0  0  0
    8.0810   -0.9750   21.0820 N   0  0  0  0  0  0  0  0  0  0  0  0
    7.4190   -4.6135   27.2771 O   0  0  0  0  0  0  0  0  0  0  0  0
    9.1870    1.1500   21.0630 O   0  0  0  0  0  0  0  0  0  0  0  0
   14.7910   -0.1822   25.8428 H   0  0  0  0  0  0  0  0  0  0  0  0
    3.6256    2.0106   21.6303 H   0  0  0  0  0  0  0  0  0  0  0  0
   12.7077   -0.5049   27.1507 H   0  0  0  0  0  0  0  0  0  0  0  0
   14.6777    0.7050   23.5282 H   0  0  0  0  0  0  0  0  0  0  0  0
    3.2724    2.7868   19.3204 H   0  0  0  0  0  0  0  0  0  0  0  0
    5.4858    0.4664   22.1692 H   0  0  0  0  0  0  0  0  0  0  0  0
   10.5160    0.0554   26.1521 H   0  0  0  0  0  0  0  0  0  0  0  0
   12.4911    1.2683   22.5207 H   0  0  0  0  0  0  0  0  0  0  0  0
    7.5948   -0.7783   24.7966 H   0  0  0  0  0  0  0  0  0  0  0  0
   11.0389   -2.1844   22.6342 H   0  0  0  0  0  0  0  0  0  0  0  0
    4.7836    2.0664   17.4848 H   0  0  0  0  0  0  0  0  0  0  0  0
    7.5642   -2.8624   26.1050 H   0  0  0  0  0  0  0  0  0  0  0  0
   11.0137   -4.2649   23.9418 H   0  0  0  0  0  0  0  0  0  0  0  0
    8.5274   -1.0858   18.3384 H   0  0  0  0  0  0  0  0  0  0  0  0
    6.8795   -7.6299   26.7375 H   0  0  0  0  0  0  0  0  0  0  0  0
    8.2203   -8.7342   27.0952 H   0  0  0  0  0  0  0  0  0  0  0  0
    8.2299   -7.7764   25.6026 H   0  0  0  0  0  0  0  0  0  0  0  0
    9.3529    1.4272   24.4380 H   0  0  0  0  0  0  0  0  0  0  0  0
   10.1743    1.8827   22.9648 H   0  0  0  0  0  0  0  0  0  0  0  0
    9.7792   -6.8069   27.3054 H   0  0  0  0  0  0  0  0  0  0  0  0
    8.4374   -6.6778   28.4588 H   0  0  0  0  0  0  0  0  0  0  0  0
   10.7346   -0.4307   22.4468 H   0  0  0  0  0  0  0  0  0  0  0  0
    7.0325    0.4238   17.0175 H   0  0  0  0  0  0  0  0  0  0  0  0
    9.9928   -5.5773   25.6186 H   0  0  0  0  0  0  0  0  0  0  0  0
    8.1175   -1.8104   21.3538 H   0  0  0  0  0  0  0  0  0  0  0  0
  1  3  1  0  0  0  0
  1  4  2  0  0  0  0
  2  5  1  0  0  0  0
  2  6  2  0  0  0  0
  3  7  2  0  0  0  0
  4  8  1  0  0  0  0
  5 11  2  0  0  0  0
  6 15  1  0  0  0  0
  7 16  1  0  0  0  0
  8 16  2  0  0  0  0
  9 12  2  0  0  0  0
  9 17  1  0  0  0  0
 10 13  1  0  0  0  0
 10 17  2  0  0  0  0
 11 18  1  0  0  0  0
 12 19  1  0  0  0  0
 13 19  2  0  0  0  0
 14 20  2  0  0  0  0
 14 27  1  0  0  0  0
 15 18  2  0  0  0  0
 15 20  1  0  0  0  0
 16 24  1  0  0  0  0
 17 26  1  0  0  0  0
 18 27  1  0  0  0  0
 19 28  1  0  0  0  0
 20 29  1  0  0  0  0
 21 25  1  0  0  0  0
 21 28  1  0  0  0  0
 21 30  2  0  0  0  0
 22 26  1  0  0  0  0
 22 29  1  0  0  0  0
 22 31  2  0  0  0  0
 23 25  1  0  0  0  0
 24 26  1  6  0  0  0
  1 32  1  0  0  0  0
  2 33  1  0  0  0  0
  3 34  1  0  0  0  0
  4 35  1  0  0  0  0
  5 36  1  0  0  0  0
  6 37  1  0  0  0  0
  7 38  1  0  0  0  0
  8 39  1  0  0  0  0
  9 40  1  0  0  0  0
 10 41  1  0  0  0  0
 11 42  1  0  0  0  0
 12 43  1  0  0  0  0
 13 44  1  0  0  0  0
 14 45  1  0  0  0  0
 23 46  1  0  0  0  0
 23 47  1  0  0  0  0
 23 48  1  0  0  0  0
 24 49  1  0  0  0  0
 24 50  1  0  0  0  0
 25 51  1  0  0  0  0
 25 52  1  0  0  0  0
 26 53  1  0  0  0  0
 27 54  1  0  0  0  0
 28 55  1  0  0  0  0
 29 56  1  0  0  0  0
M  END
> <clash_score>
1.3872339633807984

> <docking_score>
-5.399433135986328

> <overlap_score>
0.9425808787345886

$$$$
BENZO_283_1
  -OEChem-08222022413D

 54 57  0     1  0  0  0  0  0999 V2000
    4.2970    1.6690   20.8430 C   0  0  0  0  0  0  0  0  0  0  0  0
    4.0980    2.1130   19.5350 C   0  0  0  0  0  0  0  0  0  0  0  0
    5.3360    0.8000   21.1530 C   0  0  0  0  0  0  0  0  0  0  0  0
    8.3510   -1.5420   24.6110 C   0  0  0  0  0  0  0  0  0  0  0  0
   10.2760   -2.3270   23.4020 C   0  0  0  0  0  0  0  0  0  0  0  0
    4.9400    1.7060   18.5060 C   0  0  0  0  0  0  0  0  0  0  0  0
    8.3310   -2.7170   25.3430 C   0  0  0  0  0  0  0  0  0  0  0  0
   10.2570   -3.5000   24.1350 C   0  0  0  0  0  0  0  0  0  0  0  0
   12.3075    2.3068   23.4193 C   0  0  0  0  0  0  0  0  0  0  0  0
   12.3951    0.1231   23.1770 C   0  0  0  0  0  0  0  0  0  0  0  0
    7.6830   -0.5170   18.7600 C   0  0  0  0  0  0  0  0  0  0  0  0
    6.1600    0.3870   20.1140 C   0  0  0  0  0  0  0  0  0  0  0  0
    9.3300   -1.3350   23.6390 C   0  0  0  0  0  0  0  0  0  0  0  0
   11.5121    1.1453   23.4257 C   0  0  0  0  0  0  0  0  0  0  0  0
    5.9810    0.8330   18.8060 C   0  0  0  0  0  0  0  0  0  0  0  0
    9.2850   -3.7090   25.1090 C   0  0  0  0  0  0  0  0  0  0  0  0
    7.2210   -0.4620   20.0350 C   0  0  0  0  0  0  0  0  0  0  0  0
    8.9510    0.1280   21.6880 C   0  0  0  0  0  0  0  0  0  0  0  0
   14.8664    0.0395   22.7716 C   0  0  0  0  0  0  0  0  0  0  0  0
    8.2520   -5.1175   26.8652 C   0  0  0  0  0  0  0  0  0  0  0  0
   10.2437   -5.9407   25.5988 C   0  0  0  0  0  0  0  0  0  0  0  0
   10.0220    1.0430   23.6570 C   0  0  0  0  0  0  0  0  0  0  0  0
    9.4200   -0.0840   22.9530 C   0  0  1  0  0  0  0  0  0  0  0  0
   13.5967    2.0476   23.1851 N   0  0  0  0  0  0  0  0  0  0  0  0
    6.9440    0.2550   18.0100 N   0  0  0  0  0  0  0  0  0  0  0  0
   13.6181    0.7115   23.0422 N   0  0  0  0  0  0  0  0  0  0  0  0
    8.0810   -0.9750   21.0820 N   0  0  0  0  0  0  0  0  0  0  0  0
    9.2638   -4.9025   25.8500 N   0  0  0  0  0  0  0  0  0  0  0  0
    9.1870    1.1500   21.0630 O   0  0  0  0  0  0  0  0  0  0  0  0
    3.6256    2.0106   21.6303 H   0  0  0  0  0  0  0  0  0  0  0  0
    3.2724    2.7868   19.3204 H   0  0  0  0  0  0  0  0  0  0  0  0
    5.4858    0.4664   22.1692 H   0  0  0  0  0  0  0  0  0  0  0  0
    7.5957   -0.7779   24.7973 H   0  0  0  0  0  0  0  0  0  0  0  0
   11.0384   -2.1852   22.6338 H   0  0  0  0  0  0  0  0  0  0  0  0
    4.7836    2.0664   17.4848 H   0  0  0  0  0  0  0  0  0  0  0  0
    7.5634   -2.8637   26.1037 H   0  0  0  0  0  0  0  0  0  0  0  0
   11.0139   -4.2645   23.9419 H   0  0  0  0  0  0  0  0  0  0  0  0
   12.0040    3.3322   23.5761 H   0  0  0  0  0  0  0  0  0  0  0  0
   12.2609   -0.9465   23.0878 H   0  0  0  0  0  0  0  0  0  0  0  0
    8.5274   -1.0858   18.3384 H   0  0  0  0  0  0  0  0  0  0  0  0
   14.9942   -0.0107   21.6871 H   0  0  0  0  0  0  0  0  0  0  0  0
   15.6877    0.5992   23.2278 H   0  0  0  0  0  0  0  0  0  0  0  0
   14.8362   -0.9658   23.2010 H   0  0  0  0  0  0  0  0  0  0  0  0
    8.4015   -6.1034   27.3297 H   0  0  0  0  0  0  0  0  0  0  0  0
    8.3315   -4.3345   27.6337 H   0  0  0  0  0  0  0  0  0  0  0  0
    7.2546   -5.0776   26.4029 H   0  0  0  0  0  0  0  0  0  0  0  0
   10.0610   -6.7893   26.2745 H   0  0  0  0  0  0  0  0  0  0  0  0
   10.1605   -6.2786   24.5553 H   0  0  0  0  0  0  0  0  0  0  0  0
   11.2536   -5.5421   25.7758 H   0  0  0  0  0  0  0  0  0  0  0  0
    9.8253    0.9889   24.7357 H   0  0  0  0  0  0  0  0  0  0  0  0
    9.5635    1.9845   23.3241 H   0  0  0  0  0  0  0  0  0  0  0  0
    8.1288    0.3205   23.5156 H   0  0  0  0  0  0  0  0  0  0  0  0
    7.0325    0.4238   17.0175 H   0  0  0  0  0  0  0  0  0  0  0  0
    8.1175   -1.8104   21.3538 H   0  0  0  0  0  0  0  0  0  0  0  0
  1  2  1  0  0  0  0
  1  3  2  0  0  0  0
  2  6  2  0  0  0  0
  3 12  1  0  0  0  0
  4  7  2  0  0  0  0
  4 13  1  0  0  0  0
  5  8  1  0  0  0  0
  5 13  2  0  0  0  0
  6 15  1  0  0  0  0
  7 16  1  0  0  0  0
  8 16  2  0  0  0  0
  9 14  1  0  0  0  0
  9 24  2  0  0  0  0
 10 14  2  0  0  0  0
 10 26  1  0  0  0  0
 11 17  2  0  0  0  0
 11 25  1  0  0  0  0
 12 15  2  0  0  0  0
 12 17  1  0  0  0  0
 13 23  1  0  0  0  0
 14 22  1  0  0  0  0
 15 25  1  0  0  0  0
 16 28  1  0  0  0  0
 17 27  1  0  0  0  0
 18 23  1  0  0  0  0
 18 27  1  0  0  0  0
 18 29  2  0  0  0  0
 19 26  1  0  0  0  0
 20 28  1  0  0  0  0
 21 28  1  0  0  0  0
 22 23  1  1  0  0  0
 24 26  1  0  0  0  0
  1 30  1  0  0  0  0
  2 31  1  0  0  0  0
  3 32  1  0  0  0  0
  4 33  1  0  0  0  0
  5 34  1  0  0  0  0
  6 35  1  0  0  0  0
  7 36  1  0  0  0  0
  8 37  1  0  0  0  0
  9 38  1  0  0  0  0
 10 39  1  0  0  0  0
 11 40  1  0  0  0  0
 19 41  1  0  0  0  0
 19 42  1  0  0  0  0
 19 43  1  0  0  0  0
 20 44  1  0  0  0  0
 20 45  1  0  0  0  0
 20 46  1  0  0  0  0
 21 47  1  0  0  0  0
 21 48  1  0  0  0  0
 21 49  1  0  0  0  0
 22 50  1  0  0  0  0
 22 51  1  0  0  0  0
 23 52  1  0  0  0  0
 25 53  1  0  0  0  0
 27 54  1  0  0  0  0
M  END
> <clash_score>
0

> <docking_score>
-9.272911071777344

> <overlap_score>
1.0153229236602783

$$$$
BENZO_282_1
  -OEChem-08222022413D

 54 57  0     1  0  0  0  0  0999 V2000
    4.2970    1.6690   20.8430 C   0  0  0  0  0  0  0  0  0  0  0  0
    4.0980    2.1130   19.5350 C   0  0  0  0  0  0  0  0  0  0  0  0
   13.7719    0.5789   24.0657 C   0  0  0  0  0  0  0  0  0  0  0  0
    5.3360    0.8000   21.1530 C   0  0  0  0  0  0  0  0  0  0  0  0
   12.3966    0.4859   24.2792 C   0  0  0  0  0  0  0  0  0  0  0  0
    8.3510   -1.5420   24.6110 C   0  0  0  0  0  0  0  0  0  0  0  0
   10.2760   -2.3270   23.4020 C   0  0  0  0  0  0  0  0  0  0  0  0
    4.9400    1.7060   18.5060 C   0  0  0  0  0  0  0  0  0  0  0  0
    8.3310   -2.7170   25.3430 C   0  0  0  0  0  0  0  0  0  0  0  0
   10.2570   -3.5000   24.1350 C   0  0  0  0  0  0  0  0  0  0  0  0
   14.2627    1.3315   22.9987 C   0  0  0  0  0  0  0  0  0  0  0  0
   12.0029    1.8979   22.3587 C   0  0  0  0  0  0  0  0  0  0  0  0
    7.6830   -0.5170   18.7600 C   0  0  0  0  0  0  0  0  0  0  0  0
    6.1600    0.3870   20.1140 C   0  0  0  0  0  0  0  0  0  0  0  0
    9.3300   -1.3350   23.6390 C   0  0  0  0  0  0  0  0  0  0  0  0
   11.5121    1.1453   23.4257 C   0  0  0  0  0  0  0  0  0  0  0  0
    5.9810    0.8330   18.8060 C   0  0  0  0  0  0  0  0  0  0  0  0
    9.2850   -3.7090   25.1090 C   0  0  0  0  0  0  0  0  0  0  0  0
    7.2210   -0.4620   20.0350 C   0  0  0  0  0  0  0  0  0  0  0  0
   13.3782    1.9909   22.1452 C   0  0  0  0  0  0  0  0  0  0  0  0
    8.9510    0.1280   21.6880 C   0  0  0  0  0  0  0  0  0  0  0  0
    8.2520   -5.1175   26.8652 C   0  0  0  0  0  0  0  0  0  0  0  0
   10.2437   -5.9407   25.5988 C   0  0  0  0  0  0  0  0  0  0  0  0
   10.0220    1.0430   23.6570 C   0  0  0  0  0  0  0  0  0  0  0  0
    9.4200   -0.0840   22.9530 C   0  0  1  0  0  0  0  0  0  0  0  0
    6.9440    0.2550   18.0100 N   0  0  0  0  0  0  0  0  0  0  0  0
    8.0810   -0.9750   21.0820 N   0  0  0  0  0  0  0  0  0  0  0  0
    9.2638   -4.9025   25.8500 N   0  0  0  0  0  0  0  0  0  0  0  0
    9.1870    1.1500   21.0630 O   0  0  0  0  0  0  0  0  0  0  0  0
   13.9842    2.9183   20.8282 Cl  0  0  0  0  0  0  0  0  0  0  0  0
    3.6256    2.0106   21.6303 H   0  0  0  0  0  0  0  0  0  0  0  0
    3.2724    2.7868   19.3204 H   0  0  0  0  0  0  0  0  0  0  0  0
   14.4603    0.0652   24.7305 H   0  0  0  0  0  0  0  0  0  0  0  0
    5.4858    0.4664   22.1692 H   0  0  0  0  0  0  0  0  0  0  0  0
   12.0231   -0.1028   25.1130 H   0  0  0  0  0  0  0  0  0  0  0  0
    7.5957   -0.7779   24.7973 H   0  0  0  0  0  0  0  0  0  0  0  0
   11.0384   -2.1852   22.6338 H   0  0  0  0  0  0  0  0  0  0  0  0
    4.7836    2.0664   17.4848 H   0  0  0  0  0  0  0  0  0  0  0  0
    7.5634   -2.8637   26.1037 H   0  0  0  0  0  0  0  0  0  0  0  0
   11.0139   -4.2645   23.9419 H   0  0  0  0  0  0  0  0  0  0  0  0
   15.3370    1.3949   22.8442 H   0  0  0  0  0  0  0  0  0  0  0  0
   11.3092    2.4106   21.6964 H   0  0  0  0  0  0  0  0  0  0  0  0
    8.5274   -1.0858   18.3384 H   0  0  0  0  0  0  0  0  0  0  0  0
    8.4015   -6.1034   27.3297 H   0  0  0  0  0  0  0  0  0  0  0  0
    8.3315   -4.3345   27.6337 H   0  0  0  0  0  0  0  0  0  0  0  0
    7.2546   -5.0776   26.4029 H   0  0  0  0  0  0  0  0  0  0  0  0
   10.0610   -6.7893   26.2745 H   0  0  0  0  0  0  0  0  0  0  0  0
   10.1605   -6.2786   24.5553 H   0  0  0  0  0  0  0  0  0  0  0  0
   11.2536   -5.5421   25.7758 H   0  0  0  0  0  0  0  0  0  0  0  0
    9.8253    0.9889   24.7357 H   0  0  0  0  0  0  0  0  0  0  0  0
    9.5635    1.9845   23.3241 H   0  0  0  0  0  0  0  0  0  0  0  0
    8.1288    0.3205   23.5156 H   0  0  0  0  0  0  0  0  0  0  0  0
    7.0325    0.4238   17.0175 H   0  0  0  0  0  0  0  0  0  0  0  0
    8.1175   -1.8104   21.3538 H   0  0  0  0  0  0  0  0  0  0  0  0
  1  2  1  0  0  0  0
  1  4  2  0  0  0  0
  2  8  2  0  0  0  0
  3  5  2  0  0  0  0
  3 11  1  0  0  0  0
  4 14  1  0  0  0  0
  5 16  1  0  0  0  0
  6  9  2  0  0  0  0
  6 15  1  0  0  0  0
  7 10  1  0  0  0  0
  7 15  2  0  0  0  0
  8 17  1  0  0  0  0
  9 18  1  0  0  0  0
 10 18  2  0  0  0  0
 11 20  2  0  0  0  0
 12 16  2  0  0  0  0
 12 20  1  0  0  0  0
 13 19  2  0  0  0  0
 13 26  1  0  0  0  0
 14 17  2  0  0  0  0
 14 19  1  0  0  0  0
 15 25  1  0  0  0  0
 16 24  1  0  0  0  0
 17 26  1  0  0  0  0
 18 28  1  0  0  0  0
 19 27  1  0  0  0  0
 20 30  1  0  0  0  0
 21 25  1  0  0  0  0
 21 27  1  0  0  0  0
 21 29  2  0  0  0  0
 22 28  1  0  0  0  0
 23 28  1  0  0  0  0
 24 25  1  1  0  0  0
  1 31  1  0  0  0  0
  2 32  1  0  0  0  0
  3 33  1  0  0  0  0
  4 34  1  0  0  0  0
  5 35  1  0  0  0  0
  6 36  1  0  0  0  0
  7 37  1  0  0  0  0
  8 38  1  0  0  0  0
  9 39  1  0  0  0  0
 10 40  1  0  0  0  0
 11 41  1  0  0  0  0
 12 42  1  0  0  0  0
 13 43  1  0  0  0  0
 22 44  1  0  0  0  0
 22 45  1  0  0  0  0
 22 46  1  0  0  0  0
 23 47  1  0  0  0  0
 23 48  1  0  0  0  0
 23 49  1  0  0  0  0
 24 50  1  0  0  0  0
 24 51  1  0  0  0  0
 25 52  1  0  0  0  0
 26 53  1  0  0  0  0
 27 54  1  0  0  0  0
M  END
> <clash_score>
0

> <docking_score>
-7.644683361053467

> <overlap_score>
1.0163583755493164

$$$$
BENZO_282_2
  -OEChem-08222022413D

 54 57  0     1  0  0  0  0  0999 V2000
    4.2970    1.6690   20.8430 C   0  0  0  0  0  0  0  0  0  0  0  0
    4.0980    2.1130   19.5350 C   0  0  0  0  0  0  0  0  0  0  0  0
   12.6560   -0.1194   26.1379 C   0  0  0  0  0  0  0  0  0  0  0  0
    5.3360    0.8000   21.1530 C   0  0  0  0  0  0  0  0  0  0  0  0
   11.4219    0.1994   25.5714 C   0  0  0  0  0  0  0  0  0  0  0  0
    8.3510   -1.5420   24.6110 C   0  0  0  0  0  0  0  0  0  0  0  0
   10.2760   -2.3270   23.4020 C   0  0  0  0  0  0  0  0  0  0  0  0
    4.9400    1.7060   18.5060 C   0  0  0  0  0  0  0  0  0  0  0  0
    8.3310   -2.7170   25.3430 C   0  0  0  0  0  0  0  0  0  0  0  0
   10.2570   -3.5000   24.1350 C   0  0  0  0  0  0  0  0  0  0  0  0
   13.8281    0.0614   25.4035 C   0  0  0  0  0  0  0  0  0  0  0  0
   12.5318    0.8798   23.5362 C   0  0  0  0  0  0  0  0  0  0  0  0
    7.6830   -0.5170   18.7600 C   0  0  0  0  0  0  0  0  0  0  0  0
    6.1600    0.3870   20.1140 C   0  0  0  0  0  0  0  0  0  0  0  0
    9.3300   -1.3350   23.6390 C   0  0  0  0  0  0  0  0  0  0  0  0
   11.3597    0.6989   24.2706 C   0  0  0  0  0  0  0  0  0  0  0  0
    5.9810    0.8330   18.8060 C   0  0  0  0  0  0  0  0  0  0  0  0
    9.2850   -3.7090   25.1090 C   0  0  0  0  0  0  0  0  0  0  0  0
    7.2210   -0.4620   20.0350 C   0  0  0  0  0  0  0  0  0  0  0  0
   13.7660    0.5610   24.1027 C   0  0  0  0  0  0  0  0  0  0  0  0
    8.9510    0.1280   21.6880 C   0  0  0  0  0  0  0  0  0  0  0  0
    8.2520   -5.1175   26.8652 C   0  0  0  0  0  0  0  0  0  0  0  0
   10.2437   -5.9407   25.5988 C   0  0  0  0  0  0  0  0  0  0  0  0
   10.0220    1.0430   23.6570 C   0  0  0  0  0  0  0  0  0  0  0  0
    9.4200   -0.0840   22.9530 C   0  0  2  0  0  0  0  0  0  0  0  0
    6.9440    0.2550   18.0100 N   0  0  0  0  0  0  0  0  0  0  0  0
    8.0810   -0.9750   21.0820 N   0  0  0  0  0  0  0  0  0  0  0  0
    9.2638   -4.9025   25.8500 N   0  0  0  0  0  0  0  0  0  0  0  0
    9.1870    1.1500   21.0630 O   0  0  0  0  0  0  0  0  0  0  0  0
   15.2122    0.7829   23.1967 Cl  0  0  0  0  0  0  0  0  0  0  0  0
    3.6256    2.0106   21.6303 H   0  0  0  0  0  0  0  0  0  0  0  0
    3.2724    2.7868   19.3204 H   0  0  0  0  0  0  0  0  0  0  0  0
   12.7039   -0.5086   27.1508 H   0  0  0  0  0  0  0  0  0  0  0  0
    5.4858    0.4664   22.1692 H   0  0  0  0  0  0  0  0  0  0  0  0
   10.5137    0.0551   26.1509 H   0  0  0  0  0  0  0  0  0  0  0  0
    7.5957   -0.7779   24.7973 H   0  0  0  0  0  0  0  0  0  0  0  0
   11.0384   -2.1852   22.6338 H   0  0  0  0  0  0  0  0  0  0  0  0
    4.7836    2.0664   17.4848 H   0  0  0  0  0  0  0  0  0  0  0  0
    7.5634   -2.8637   26.1037 H   0  0  0  0  0  0  0  0  0  0  0  0
   11.0139   -4.2645   23.9419 H   0  0  0  0  0  0  0  0  0  0  0  0
   14.7829   -0.1916   25.8577 H   0  0  0  0  0  0  0  0  0  0  0  0
   12.4781    1.2701   22.5225 H   0  0  0  0  0  0  0  0  0  0  0  0
    8.5274   -1.0858   18.3384 H   0  0  0  0  0  0  0  0  0  0  0  0
    8.4015   -6.1034   27.3297 H   0  0  0  0  0  0  0  0  0  0  0  0
    8.3315   -4.3345   27.6337 H   0  0  0  0  0  0  0  0  0  0  0  0
    7.2546   -5.0776   26.4029 H   0  0  0  0  0  0  0  0  0  0  0  0
   10.0610   -6.7893   26.2745 H   0  0  0  0  0  0  0  0  0  0  0  0
   10.1605   -6.2786   24.5553 H   0  0  0  0  0  0  0  0  0  0  0  0
   11.2536   -5.5421   25.7758 H   0  0  0  0  0  0  0  0  0  0  0  0
    9.3529    1.4272   24.4380 H   0  0  0  0  0  0  0  0  0  0  0  0
   10.1743    1.8827   22.9648 H   0  0  0  0  0  0  0  0  0  0  0  0
   10.7346   -0.4307   22.4468 H   0  0  0  0  0  0  0  0  0  0  0  0
    7.0325    0.4238   17.0175 H   0  0  0  0  0  0  0  0  0  0  0  0
    8.1175   -1.8104   21.3538 H   0  0  0  0  0  0  0  0  0  0  0  0
  1  2  1  0  0  0  0
  1  4  2  0  0  0  0
  2  8  2  0  0  0  0
  3  5  2  0  0  0  0
  3 11  1  0  0  0  0
  4 14  1  0  0  0  0
  5 16  1  0  0  0  0
  6  9  2  0  0  0  0
  6 15  1  0  0  0  0
  7 10  1  0  0  0  0
  7 15  2  0  0  0  0
  8 17  1  0  0  0  0
  9 18  1  0  0  0  0
 10 18  2  0  0  0  0
 11 20  2  0  0  0  0
 12 16  2  0  0  0  0
 12 20  1  0  0  0  0
 13 19  2  0  0  0  0
 13 26  1  0  0  0  0
 14 17  2  0  0  0  0
 14 19  1  0  0  0  0
 15 25  1  0  0  0  0
 16 24  1  0  0  0  0
 17 26  1  0  0  0  0
 18 28  1  0  0  0  0
 19 27  1  0  0  0  0
 20 30  1  0  0  0  0
 21 25  1  0  0  0  0
 21 27  1  0  0  0  0
 21 29  2  0  0  0  0
 22 28  1  0  0  0  0
 23 28  1  0  0  0  0
 24 25  1  6  0  0  0
  1 31  1  0  0  0  0
  2 32  1  0  0  0  0
  3 33  1  0  0  0  0
  4 34  1  0  0  0  0
  5 35  1  0  0  0  0
  6 36  1  0  0  0  0
  7 37  1  0  0  0  0
  8 38  1  0  0  0  0
  9 39  1  0  0  0  0
 10 40  1  0  0  0  0
 11 41  1  0  0  0  0
 12 42  1  0  0  0  0
 13 43  1  0  0  0  0
 22 44  1  0  0  0  0
 22 45  1  0  0  0  0
 22 46  1  0  0  0  0
 23 47  1  0  0  0  0
 23 48  1  0  0  0  0
 23 49  1  0  0  0  0
 24 50  1  0  0  0  0
 24 51  1  0  0  0  0
 25 52  1  0  0  0  0
 26 53  1  0  0  0  0
 27 54  1  0  0  0  0
M  END
> <clash_score>
0.6070843862996379

> <docking_score>
-6.638720989227295

> <overlap_score>
0.9446602463722229

$$$$
BENZO_284_1
  -OEChem-08222022413D

 53 56  0     1  0  0  0  0  0999 V2000
    4.2970    1.6690   20.8430 C   0  0  0  0  0  0  0  0  0  0  0  0
    4.0980    2.1130   19.5350 C   0  0  0  0  0  0  0  0  0  0  0  0
    5.3360    0.8000   21.1530 C   0  0  0  0  0  0  0  0  0  0  0  0
    8.3510   -1.5420   24.6110 C   0  0  0  0  0  0  0  0  0  0  0  0
   10.2760   -2.3270   23.4020 C   0  0  0  0  0  0  0  0  0  0  0  0
    4.9400    1.7060   18.5060 C   0  0  0  0  0  0  0  0  0  0  0  0
    8.3310   -2.7170   25.3430 C   0  0  0  0  0  0  0  0  0  0  0  0
   10.2570   -3.5000   24.1350 C   0  0  0  0  0  0  0  0  0  0  0  0
   12.2216    2.3786   23.3498 C   0  0  0  0  0  0  0  0  0  0  0  0
    7.6830   -0.5170   18.7600 C   0  0  0  0  0  0  0  0  0  0  0  0
   13.5684    2.1883   23.1319 C   0  0  0  0  0  0  0  0  0  0  0  0
   12.3438    0.0592   23.2626 C   0  0  0  0  0  0  0  0  0  0  0  0
    6.1600    0.3870   20.1140 C   0  0  0  0  0  0  0  0  0  0  0  0
    9.3300   -1.3350   23.6390 C   0  0  0  0  0  0  0  0  0  0  0  0
   11.5121    1.1453   23.4257 C   0  0  0  0  0  0  0  0  0  0  0  0
    5.9810    0.8330   18.8060 C   0  0  0  0  0  0  0  0  0  0  0  0
    9.2850   -3.7090   25.1090 C   0  0  0  0  0  0  0  0  0  0  0  0
    7.2210   -0.4620   20.0350 C   0  0  0  0  0  0  0  0  0  0  0  0
    8.3642   -5.2691   26.8512 C   0  0  0  0  0  0  0  0  0  0  0  0
    8.9510    0.1280   21.6880 C   0  0  0  0  0  0  0  0  0  0  0  0
    7.9641   -7.7612   26.6648 C   0  0  0  0  0  0  0  0  0  0  0  0
   10.0220    1.0430   23.6570 C   0  0  0  0  0  0  0  0  0  0  0  0
    8.6980   -6.6505   27.3945 C   0  0  0  0  0  0  0  0  0  0  0  0
    9.4200   -0.0840   22.9530 C   0  0  1  0  0  0  0  0  0  0  0  0
    6.9440    0.2550   18.0100 N   0  0  0  0  0  0  0  0  0  0  0  0
    9.2630   -4.8903   25.8409 N   0  0  0  0  0  0  0  0  0  0  0  0
    8.0810   -0.9750   21.0820 N   0  0  0  0  0  0  0  0  0  0  0  0
    7.4190   -4.6135   27.2771 O   0  0  0  0  0  0  0  0  0  0  0  0
    9.1870    1.1500   21.0630 O   0  0  0  0  0  0  0  0  0  0  0  0
   13.9727    0.5281   23.0196 S   0  0  0  0  0  0  0  0  0  0  0  0
    3.6256    2.0106   21.6303 H   0  0  0  0  0  0  0  0  0  0  0  0
    3.2724    2.7868   19.3204 H   0  0  0  0  0  0  0  0  0  0  0  0
    5.4858    0.4664   22.1692 H   0  0  0  0  0  0  0  0  0  0  0  0
    7.5948   -0.7783   24.7966 H   0  0  0  0  0  0  0  0  0  0  0  0
   11.0389   -2.1844   22.6342 H   0  0  0  0  0  0  0  0  0  0  0  0
    4.7836    2.0664   17.4848 H   0  0  0  0  0  0  0  0  0  0  0  0
    7.5642   -2.8624   26.1050 H   0  0  0  0  0  0  0  0  0  0  0  0
   11.0137   -4.2649   23.9418 H   0  0  0  0  0  0  0  0  0  0  0  0
   11.7708    3.3580   23.4491 H   0  0  0  0  0  0  0  0  0  0  0  0
    8.5274   -1.0858   18.3384 H   0  0  0  0  0  0  0  0  0  0  0  0
   14.3341    2.9446   23.0326 H   0  0  0  0  0  0  0  0  0  0  0  0
   12.0768   -0.9885   23.2727 H   0  0  0  0  0  0  0  0  0  0  0  0
    6.8795   -7.6299   26.7375 H   0  0  0  0  0  0  0  0  0  0  0  0
    8.2203   -8.7342   27.0952 H   0  0  0  0  0  0  0  0  0  0  0  0
    8.2299   -7.7764   25.6026 H   0  0  0  0  0  0  0  0  0  0  0  0
    9.8253    0.9889   24.7357 H   0  0  0  0  0  0  0  0  0  0  0  0
    9.5635    1.9845   23.3241 H   0  0  0  0  0  0  0  0  0  0  0  0
    9.7792   -6.8069   27.3054 H   0  0  0  0  0  0  0  0  0  0  0  0
    8.4374   -6.6778   28.4588 H   0  0  0  0  0  0  0  0  0  0  0  0
    8.1288    0.3205   23.5156 H   0  0  0  0  0  0  0  0  0  0  0  0
    7.0325    0.4238   17.0175 H   0  0  0  0  0  0  0  0  0  0  0  0
    9.9928   -5.5773   25.6186 H   0  0  0  0  0  0  0  0  0  0  0  0
    8.1175   -1.8104   21.3538 H   0  0  0  0  0  0  0  0  0  0  0  0
  1  2  1  0  0  0  0
  1  3  2  0  0  0  0
  2  6  2  0  0  0  0
  3 13  1  0  0  0  0
  4  7  2  0  0  0  0
  4 14  1  0  0  0  0
  5  8  1  0  0  0  0
  5 14  2  0  0  0  0
  6 16  1  0  0  0  0
  7 17  1  0  0  0  0
  8 17  2  0  0  0  0
  9 11  2  0  0  0  0
  9 15  1  0  0  0  0
 10 18  2  0  0  0  0
 10 25  1  0  0  0  0
 11 30  1  0  0  0  0
 12 15  2  0  0  0  0
 12 30  1  0  0  0  0
 13 16  2  0  0  0  0
 13 18  1  0  0  0  0
 14 24  1  0  0  0  0
 15 22  1  0  0  0  0
 16 25  1  0  0  0  0
 17 26  1  0  0  0  0
 18 27  1  0  0  0  0
 19 23  1  0  0  0  0
 19 26  1  0  0  0  0
 19 28  2  0  0  0  0
 20 24  1  0  0  0  0
 20 27  1  0  0  0  0
 20 29  2  0  0  0  0
 21 23  1  0  0  0  0
 22 24  1  1  0  0  0
  1 31  1  0  0  0  0
  2 32  1  0  0  0  0
  3 33  1  0  0  0  0
  4 34  1  0  0  0  0
  5 35  1  0  0  0  0
  6 36  1  0  0  0  0
  7 37  1  0  0  0  0
  8 38  1  0  0  0  0
  9 39  1  0  0  0  0
 10 40  1  0  0  0  0
 11 41  1  0  0  0  0
 12 42  1  0  0  0  0
 21 43  1  0  0  0  0
 21 44  1  0  0  0  0
 21 45  1  0  0  0  0
 22 46  1  0  0  0  0
 22 47  1  0  0  0  0
 23 48  1  0  0  0  0
 23 49  1  0  0  0  0
 24 50  1  0  0  0  0
 25 51  1  0  0  0  0
 26 52  1  0  0  0  0
 27 53  1  0  0  0  0
M  END
> <clash_score>
0.7805843719873787

> <docking_score>
-7.233203887939453

> <overlap_score>
1.0075855255126953

$$$$
BENZO_284_2
  -OEChem-08222022413D

 53 56  0     1  0  0  0  0  0999 V2000
    4.2970    1.6690   20.8430 C   0  0  0  0  0  0  0  0  0  0  0  0
    4.0980    2.1130   19.5350 C   0  0  0  0  0  0  0  0  0  0  0  0
    5.3360    0.8000   21.1530 C   0  0  0  0  0  0  0  0  0  0  0  0
    8.3510   -1.5420   24.6110 C   0  0  0  0  0  0  0  0  0  0  0  0
   10.2760   -2.3270   23.4020 C   0  0  0  0  0  0  0  0  0  0  0  0
    4.9400    1.7060   18.5060 C   0  0  0  0  0  0  0  0  0  0  0  0
    8.3310   -2.7170   25.3430 C   0  0  0  0  0  0  0  0  0  0  0  0
   10.2570   -3.5000   24.1350 C   0  0  0  0  0  0  0  0  0  0  0  0
   11.6656    0.8624   25.6525 C   0  0  0  0  0  0  0  0  0  0  0  0
    7.6830   -0.5170   18.7600 C   0  0  0  0  0  0  0  0  0  0  0  0
   12.9541    0.4739   25.9468 C   0  0  0  0  0  0  0  0  0  0  0  0
   12.4263    0.1919   23.5611 C   0  0  0  0  0  0  0  0  0  0  0  0
    6.1600    0.3870   20.1140 C   0  0  0  0  0  0  0  0  0  0  0  0
    9.3300   -1.3350   23.6390 C   0  0  0  0  0  0  0  0  0  0  0  0
   11.3597    0.6989   24.2706 C   0  0  0  0  0  0  0  0  0  0  0  0
    5.9810    0.8330   18.8060 C   0  0  0  0  0  0  0  0  0  0  0  0
    9.2850   -3.7090   25.1090 C   0  0  0  0  0  0  0  0  0  0  0  0
    7.2210   -0.4620   20.0350 C   0  0  0  0  0  0  0  0  0  0  0  0
    8.3642   -5.2691   26.8512 C   0  0  0  0  0  0  0  0  0  0  0  0
    8.9510    0.1280   21.6880 C   0  0  0  0  0  0  0  0  0  0  0  0
    7.4782   -7.3840   27.9225 C   0  0  0  0  0  0  0  0  0  0  0  0
   10.0220    1.0430   23.6570 C   0  0  0  0  0  0  0  0  0  0  0  0
    8.6980   -6.6505   27.3945 C   0  0  0  0  0  0  0  0  0  0  0  0
    9.4200   -0.0840   22.9530 C   0  0  2  0  0  0  0  0  0  0  0  0
    6.9440    0.2550   18.0100 N   0  0  0  0  0  0  0  0  0  0  0  0
    9.2630   -4.8903   25.8409 N   0  0  0  0  0  0  0  0  0  0  0  0
    8.0810   -0.9750   21.0820 N   0  0  0  0  0  0  0  0  0  0  0  0
    7.4190   -4.6135   27.2771 O   0  0  0  0  0  0  0  0  0  0  0  0
    9.1870    1.1500   21.0630 O   0  0  0  0  0  0  0  0  0  0  0  0
   13.7891   -0.0851   24.5602 S   0  0  0  0  0  0  0  0  0  0  0  0
    3.6256    2.0106   21.6303 H   0  0  0  0  0  0  0  0  0  0  0  0
    3.2724    2.7868   19.3204 H   0  0  0  0  0  0  0  0  0  0  0  0
    5.4858    0.4664   22.1692 H   0  0  0  0  0  0  0  0  0  0  0  0
    7.5948   -0.7783   24.7966 H   0  0  0  0  0  0  0  0  0  0  0  0
   11.0389   -2.1844   22.6342 H   0  0  0  0  0  0  0  0  0  0  0  0
    4.7836    2.0664   17.4848 H   0  0  0  0  0  0  0  0  0  0  0  0
    7.5642   -2.8624   26.1050 H   0  0  0  0  0  0  0  0  0  0  0  0
   11.0137   -4.2649   23.9418 H   0  0  0  0  0  0  0  0  0  0  0  0
   10.9786    1.2455   26.3965 H   0  0  0  0  0  0  0  0  0  0  0  0
    8.5274   -1.0858   18.3384 H   0  0  0  0  0  0  0  0  0  0  0  0
   13.4452    0.4923   26.9094 H   0  0  0  0  0  0  0  0  0  0  0  0
   12.4750   -0.0294   22.5039 H   0  0  0  0  0  0  0  0  0  0  0  0
    6.9973   -6.8187   28.7276 H   0  0  0  0  0  0  0  0  0  0  0  0
    7.7639   -8.3643   28.3163 H   0  0  0  0  0  0  0  0  0  0  0  0
    6.7376   -7.5362   27.1305 H   0  0  0  0  0  0  0  0  0  0  0  0
    9.3529    1.4272   24.4380 H   0  0  0  0  0  0  0  0  0  0  0  0
   10.1743    1.8827   22.9648 H   0  0  0  0  0  0  0  0  0  0  0  0
    9.1583   -7.2377   26.5915 H   0  0  0  0  0  0  0  0  0  0  0  0
    9.4343   -6.5391   28.1988 H   0  0  0  0  0  0  0  0  0  0  0  0
   10.7346   -0.4307   22.4468 H   0  0  0  0  0  0  0  0  0  0  0  0
    7.0325    0.4238   17.0175 H   0  0  0  0  0  0  0  0  0  0  0  0
    9.9928   -5.5773   25.6186 H   0  0  0  0  0  0  0  0  0  0  0  0
    8.1175   -1.8104   21.3538 H   0  0  0  0  0  0  0  0  0  0  0  0
  1  2  1  0  0  0  0
  1  3  2  0  0  0  0
  2  6  2  0  0  0  0
  3 13  1  0  0  0  0
  4  7  2  0  0  0  0
  4 14  1  0  0  0  0
  5  8  1  0  0  0  0
  5 14  2  0  0  0  0
  6 16  1  0  0  0  0
  7 17  1  0  0  0  0
  8 17  2  0  0  0  0
  9 11  2  0  0  0  0
  9 15  1  0  0  0  0
 10 18  2  0  0  0  0
 10 25  1  0  0  0  0
 11 30  1  0  0  0  0
 12 15  2  0  0  0  0
 12 30  1  0  0  0  0
 13 16  2  0  0  0  0
 13 18  1  0  0  0  0
 14 24  1  0  0  0  0
 15 22  1  0  0  0  0
 16 25  1  0  0  0  0
 17 26  1  0  0  0  0
 18 27  1  0  0  0  0
 19 23  1  0  0  0  0
 19 26  1  0  0  0  0
 19 28  2  0  0  0  0
 20 24  1  0  0  0  0
 20 27  1  0  0  0  0
 20 29  2  0  0  0  0
 21 23  1  0  0  0  0
 22 24  1  6  0  0  0
  1 31  1  0  0  0  0
  2 32  1  0  0  0  0
  3 33  1  0  0  0  0
  4 34  1  0  0  0  0
  5 35  1  0  0  0  0
  6 36  1  0  0  0  0
  7 37  1  0  0  0  0
  8 38  1  0  0  0  0
  9 39  1  0  0  0  0
 10 40  1  0  0  0  0
 11 41  1  0  0  0  0
 12 42  1  0  0  0  0
 21 43  1  0  0  0  0
 21 44  1  0  0  0  0
 21 45  1  0  0  0  0
 22 46  1  0  0  0  0
 22 47  1  0  0  0  0
 23 48  1  0  0  0  0
 23 49  1  0  0  0  0
 24 50  1  0  0  0  0
 25 51  1  0  0  0  0
 26 52  1  0  0  0  0
 27 53  1  0  0  0  0
M  END
> <clash_score>
0

> <docking_score>
-5.015437126159668

> <overlap_score>
0.9248665571212769

$$$$
BENZO_289_1
  -OEChem-08222022413D

 61 65  0     1  0  0  0  0  0999 V2000
   13.8377    0.1157   25.4121 C   0  0  0  0  0  0  0  0  0  0  0  0
    4.2970    1.6690   20.8430 C   0  0  0  0  0  0  0  0  0  0  0  0
   12.6675   -0.0757   26.1466 C   0  0  0  0  0  0  0  0  0  0  0  0
   13.7705    0.6079   24.1087 C   0  0  0  0  0  0  0  0  0  0  0  0
    4.0980    2.1130   19.5350 C   0  0  0  0  0  0  0  0  0  0  0  0
    5.3360    0.8000   21.1530 C   0  0  0  0  0  0  0  0  0  0  0  0
   11.4299    0.2250   25.5777 C   0  0  0  0  0  0  0  0  0  0  0  0
   12.5329    0.9086   23.5397 C   0  0  0  0  0  0  0  0  0  0  0  0
    8.3510   -1.5420   24.6110 C   0  0  0  0  0  0  0  0  0  0  0  0
   10.2760   -2.3270   23.4020 C   0  0  0  0  0  0  0  0  0  0  0  0
    4.9400    1.7060   18.5060 C   0  0  0  0  0  0  0  0  0  0  0  0
    8.3310   -2.7170   25.3430 C   0  0  0  0  0  0  0  0  0  0  0  0
   10.2570   -3.5000   24.1350 C   0  0  0  0  0  0  0  0  0  0  0  0
    7.6830   -0.5170   18.7600 C   0  0  0  0  0  0  0  0  0  0  0  0
    6.1600    0.3870   20.1140 C   0  0  0  0  0  0  0  0  0  0  0  0
   11.3626    0.7172   24.2742 C   0  0  0  0  0  0  0  0  0  0  0  0
    9.3300   -1.3350   23.6390 C   0  0  0  0  0  0  0  0  0  0  0  0
    5.9810    0.8330   18.8060 C   0  0  0  0  0  0  0  0  0  0  0  0
    9.2850   -3.7090   25.1090 C   0  0  0  0  0  0  0  0  0  0  0  0
    7.2210   -0.4620   20.0350 C   0  0  0  0  0  0  0  0  0  0  0  0
    8.9510    0.1280   21.6880 C   0  0  0  0  0  0  0  0  0  0  0  0
    7.3211   -6.8875   26.5227 C   0  0  0  0  0  0  0  0  0  0  0  0
    7.3523   -5.5278   27.2244 C   0  0  0  0  0  0  0  0  0  0  0  0
    7.9422   -6.8107   25.1261 C   0  0  0  0  0  0  0  0  0  0  0  0
    8.7641   -4.9418   27.2163 C   0  0  0  0  0  0  0  0  0  0  0  0
    9.3411   -6.1879   25.1670 C   0  0  0  0  0  0  0  0  0  0  0  0
   10.0220    1.0430   23.6570 C   0  0  0  0  0  0  0  0  0  0  0  0
    9.4200   -0.0840   22.9530 C   0  0  1  0  0  0  0  0  0  0  0  0
    6.9440    0.2550   18.0100 N   0  0  0  0  0  0  0  0  0  0  0  0
    9.2641   -4.8861   25.8398 N   0  0  0  0  0  0  0  0  0  0  0  0
    8.0810   -0.9750   21.0820 N   0  0  0  0  0  0  0  0  0  0  0  0
    9.1870    1.1500   21.0630 O   0  0  0  0  0  0  0  0  0  0  0  0
   14.8013   -0.1172   25.8558 H   0  0  0  0  0  0  0  0  0  0  0  0
    3.6256    2.0106   21.6303 H   0  0  0  0  0  0  0  0  0  0  0  0
   12.7197   -0.4578   27.1619 H   0  0  0  0  0  0  0  0  0  0  0  0
   14.6814    0.7580   23.5369 H   0  0  0  0  0  0  0  0  0  0  0  0
    3.2724    2.7868   19.3204 H   0  0  0  0  0  0  0  0  0  0  0  0
    5.4858    0.4664   22.1692 H   0  0  0  0  0  0  0  0  0  0  0  0
   10.5233    0.0726   26.1574 H   0  0  0  0  0  0  0  0  0  0  0  0
   12.4902    1.2914   22.5235 H   0  0  0  0  0  0  0  0  0  0  0  0
    7.5957   -0.7779   24.7973 H   0  0  0  0  0  0  0  0  0  0  0  0
   11.0384   -2.1852   22.6338 H   0  0  0  0  0  0  0  0  0  0  0  0
    4.7836    2.0664   17.4848 H   0  0  0  0  0  0  0  0  0  0  0  0
    7.5634   -2.8637   26.1037 H   0  0  0  0  0  0  0  0  0  0  0  0
   11.0139   -4.2645   23.9419 H   0  0  0  0  0  0  0  0  0  0  0  0
    8.5274   -1.0858   18.3384 H   0  0  0  0  0  0  0  0  0  0  0  0
    7.8644   -7.6283   27.1289 H   0  0  0  0  0  0  0  0  0  0  0  0
    6.2830   -7.2423   26.4478 H   0  0  0  0  0  0  0  0  0  0  0  0
    6.6663   -4.8405   26.7221 H   0  0  0  0  0  0  0  0  0  0  0  0
    7.0062   -5.6400   28.2540 H   0  0  0  0  0  0  0  0  0  0  0  0
    8.0018   -7.8160   24.6962 H   0  0  0  0  0  0  0  0  0  0  0  0
    7.2963   -6.2182   24.4678 H   0  0  0  0  0  0  0  0  0  0  0  0
    8.7322   -3.9404   27.6532 H   0  0  0  0  0  0  0  0  0  0  0  0
    9.4260   -5.5610   27.8283 H   0  0  0  0  0  0  0  0  0  0  0  0
   10.0249   -6.8474   25.7028 H   0  0  0  0  0  0  0  0  0  0  0  0
    9.7015   -6.0700   24.1446 H   0  0  0  0  0  0  0  0  0  0  0  0
    9.3482    1.4259   24.4346 H   0  0  0  0  0  0  0  0  0  0  0  0
   10.1663    1.8792   22.9588 H   0  0  0  0  0  0  0  0  0  0  0  0
   10.7366   -0.4277   22.4442 H   0  0  0  0  0  0  0  0  0  0  0  0
    7.0325    0.4238   17.0175 H   0  0  0  0  0  0  0  0  0  0  0  0
    8.1354   -1.7990   21.3694 H   0  0  0  0  0  0  0  0  0  0  0  0
  1  3  1  0  0  0  0
  1  4  2  0  0  0  0
  2  5  1  0  0  0  0
  2  6  2  0  0  0  0
  3  7  2  0  0  0  0
  4  8  1  0  0  0  0
  5 11  2  0  0  0  0
  6 15  1  0  0  0  0
  7 16  1  0  0  0  0
  8 16  2  0  0  0  0
  9 12  2  0  0  0  0
  9 17  1  0  0  0  0
 10 13  1  0  0  0  0
 10 17  2  0  0  0  0
 11 18  1  0  0  0  0
 12 19  1  0  0  0  0
 13 19  2  0  0  0  0
 14 20  2  0  0  0  0
 14 29  1  0  0  0  0
 15 18  2  0  0  0  0
 15 20  1  0  0  0  0
 16 27  1  0  0  0  0
 17 28  1  0  0  0  0
 18 29  1  0  0  0  0
 19 30  1  0  0  0  0
 20 31  1  0  0  0  0
 21 28  1  1  0  0  0
 21 31  1  0  0  0  0
 21 32  2  0  0  0  0
 22 23  1  0  0  0  0
 22 24  1  0  0  0  0
 23 25  1  0  0  0  0
 24 26  1  0  0  0  0
 25 30  1  0  0  0  0
 26 30  1  0  0  0  0
 27 28  1  0  0  0  0
  1 33  1  0  0  0  0
  2 34  1  0  0  0  0
  3 35  1  0  0  0  0
  4 36  1  0  0  0  0
  5 37  1  0  0  0  0
  6 38  1  0  0  0  0
  7 39  1  0  0  0  0
  8 40  1  0  0  0  0
  9 41  1  0  0  0  0
 10 42  1  0  0  0  0
 11 43  1  0  0  0  0
 12 44  1  0  0  0  0
 13 45  1  0  0  0  0
 14 46  1  0  0  0  0
 22 47  1  0  0  0  0
 22 48  1  0  0  0  0
 23 49  1  0  0  0  0
 23 50  1  0  0  0  0
 24 51  1  0  0  0  0
 24 52  1  0  0  0  0
 25 53  1  0  0  0  0
 25 54  1  0  0  0  0
 26 55  1  0  0  0  0
 26 56  1  0  0  0  0
 27 57  1  0  0  0  0
 27 58  1  0  0  0  0
 28 59  1  0  0  0  0
 29 60  1  0  0  0  0
 31 61  1  0  0  0  0
M  END
> <clash_score>
0

> <docking_score>
-6.284833908081055

> <overlap_score>
0.9484655857086182

$$$$
BENZO_289_2
  -OEChem-08222022413D

 61 65  0     1  0  0  0  0  0999 V2000
   14.2657    1.3706   23.0373 C   0  0  0  0  0  0  0  0  0  0  0  0
    4.2970    1.6690   20.8430 C   0  0  0  0  0  0  0  0  0  0  0  0
   13.7726    0.6128   24.0995 C   0  0  0  0  0  0  0  0  0  0  0  0
   13.3825    2.0222   22.1763 C   0  0  0  0  0  0  0  0  0  0  0  0
    4.0980    2.1130   19.5350 C   0  0  0  0  0  0  0  0  0  0  0  0
    5.3360    0.8000   21.1530 C   0  0  0  0  0  0  0  0  0  0  0  0
   12.3965    0.5065   24.3007 C   0  0  0  0  0  0  0  0  0  0  0  0
   12.0064    1.9158   22.3775 C   0  0  0  0  0  0  0  0  0  0  0  0
    8.3510   -1.5420   24.6110 C   0  0  0  0  0  0  0  0  0  0  0  0
   10.2760   -2.3270   23.4020 C   0  0  0  0  0  0  0  0  0  0  0  0
    4.9400    1.7060   18.5060 C   0  0  0  0  0  0  0  0  0  0  0  0
    8.3310   -2.7170   25.3430 C   0  0  0  0  0  0  0  0  0  0  0  0
   10.2570   -3.5000   24.1350 C   0  0  0  0  0  0  0  0  0  0  0  0
    7.6830   -0.5170   18.7600 C   0  0  0  0  0  0  0  0  0  0  0  0
    6.1600    0.3870   20.1140 C   0  0  0  0  0  0  0  0  0  0  0  0
   11.5133    1.1580   23.4397 C   0  0  0  0  0  0  0  0  0  0  0  0
    9.3300   -1.3350   23.6390 C   0  0  0  0  0  0  0  0  0  0  0  0
    5.9810    0.8330   18.8060 C   0  0  0  0  0  0  0  0  0  0  0  0
    9.2850   -3.7090   25.1090 C   0  0  0  0  0  0  0  0  0  0  0  0
    7.2210   -0.4620   20.0350 C   0  0  0  0  0  0  0  0  0  0  0  0
    8.9510    0.1280   21.6880 C   0  0  0  0  0  0  0  0  0  0  0  0
    7.3211   -6.8875   26.5227 C   0  0  0  0  0  0  0  0  0  0  0  0
    7.3523   -5.5278   27.2244 C   0  0  0  0  0  0  0  0  0  0  0  0
    7.9422   -6.8107   25.1261 C   0  0  0  0  0  0  0  0  0  0  0  0
    8.7641   -4.9418   27.2163 C   0  0  0  0  0  0  0  0  0  0  0  0
    9.3411   -6.1879   25.1670 C   0  0  0  0  0  0  0  0  0  0  0  0
   10.0220    1.0430   23.6570 C   0  0  0  0  0  0  0  0  0  0  0  0
    9.4200   -0.0840   22.9530 C   0  0  2  0  0  0  0  0  0  0  0  0
    6.9440    0.2550   18.0100 N   0  0  0  0  0  0  0  0  0  0  0  0
    9.2641   -4.8861   25.8398 N   0  0  0  0  0  0  0  0  0  0  0  0
    8.0810   -0.9750   21.0820 N   0  0  0  0  0  0  0  0  0  0  0  0
    9.1870    1.1500   21.0630 O   0  0  0  0  0  0  0  0  0  0  0  0
   15.3373    1.4544   22.8816 H   0  0  0  0  0  0  0  0  0  0  0  0
    3.6256    2.0106   21.6303 H   0  0  0  0  0  0  0  0  0  0  0  0
   14.4602    0.1063   24.7706 H   0  0  0  0  0  0  0  0  0  0  0  0
   13.7661    2.6131   21.3499 H   0  0  0  0  0  0  0  0  0  0  0  0
    3.2724    2.7868   19.3204 H   0  0  0  0  0  0  0  0  0  0  0  0
    5.4858    0.4664   22.1692 H   0  0  0  0  0  0  0  0  0  0  0  0
   12.0213   -0.0863   25.1308 H   0  0  0  0  0  0  0  0  0  0  0  0
   11.3258    2.4268   21.7016 H   0  0  0  0  0  0  0  0  0  0  0  0
    7.5957   -0.7779   24.7973 H   0  0  0  0  0  0  0  0  0  0  0  0
   11.0384   -2.1852   22.6338 H   0  0  0  0  0  0  0  0  0  0  0  0
    4.7836    2.0664   17.4848 H   0  0  0  0  0  0  0  0  0  0  0  0
    7.5634   -2.8637   26.1037 H   0  0  0  0  0  0  0  0  0  0  0  0
   11.0139   -4.2645   23.9419 H   0  0  0  0  0  0  0  0  0  0  0  0
    8.5274   -1.0858   18.3384 H   0  0  0  0  0  0  0  0  0  0  0  0
    7.8644   -7.6283   27.1289 H   0  0  0  0  0  0  0  0  0  0  0  0
    6.2830   -7.2423   26.4478 H   0  0  0  0  0  0  0  0  0  0  0  0
    6.6663   -4.8405   26.7221 H   0  0  0  0  0  0  0  0  0  0  0  0
    7.0062   -5.6400   28.2540 H   0  0  0  0  0  0  0  0  0  0  0  0
    8.0018   -7.8160   24.6962 H   0  0  0  0  0  0  0  0  0  0  0  0
    7.2963   -6.2182   24.4678 H   0  0  0  0  0  0  0  0  0  0  0  0
    8.7322   -3.9404   27.6532 H   0  0  0  0  0  0  0  0  0  0  0  0
    9.4260   -5.5610   27.8283 H   0  0  0  0  0  0  0  0  0  0  0  0
   10.0249   -6.8474   25.7028 H   0  0  0  0  0  0  0  0  0  0  0  0
    9.7015   -6.0700   24.1446 H   0  0  0  0  0  0  0  0  0  0  0  0
    9.8155    0.9894   24.7339 H   0  0  0  0  0  0  0  0  0  0  0  0
    9.5584    1.9798   23.3178 H   0  0  0  0  0  0  0  0  0  0  0  0
    8.1278    0.3254   23.5142 H   0  0  0  0  0  0  0  0  0  0  0  0
    7.0325    0.4238   17.0175 H   0  0  0  0  0  0  0  0  0  0  0  0
    8.1354   -1.7990   21.3694 H   0  0  0  0  0  0  0  0  0  0  0  0
  1  3  1  0  0  0  0
  1  4  2  0  0  0  0
  2  5  1  0  0  0  0
  2  6  2  0  0  0  0
  3  7  2  0  0  0  0
  4  8  1  0  0  0  0
  5 11  2  0  0  0  0
  6 15  1  0  0  0  0
  7 16  1  0  0  0  0
  8 16  2  0  0  0  0
  9 12  2  0  0  0  0
  9 17  1  0  0  0  0
 10 13  1  0  0  0  0
 10 17  2  0  0  0  0
 11 18  1  0  0  0  0
 12 19  1  0  0  0  0
 13 19  2  0  0  0  0
 14 20  2  0  0  0  0
 14 29  1  0  0  0  0
 15 18  2  0  0  0  0
 15 20  1  0  0  0  0
 16 27  1  0  0  0  0
 17 28  1  0  0  0  0
 18 29  1  0  0  0  0
 19 30  1  0  0  0  0
 20 31  1  0  0  0  0
 21 28  1  6  0  0  0
 21 31  1  0  0  0  0
 21 32  2  0  0  0  0
 22 23  1  0  0  0  0
 22 24  1  0  0  0  0
 23 25  1  0  0  0  0
 24 26  1  0  0  0  0
 25 30  1  0  0  0  0
 26 30  1  0  0  0  0
 27 28  1  0  0  0  0
  1 33  1  0  0  0  0
  2 34  1  0  0  0  0
  3 35  1  0  0  0  0
  4 36  1  0  0  0  0
  5 37  1  0  0  0  0
  6 38  1  0  0  0  0
  7 39  1  0  0  0  0
  8 40  1  0  0  0  0
  9 41  1  0  0  0  0
 10 42  1  0  0  0  0
 11 43  1  0  0  0  0
 12 44  1  0  0  0  0
 13 45  1  0  0  0  0
 14 46  1  0  0  0  0
 22 47  1  0  0  0  0
 22 48  1  0  0  0  0
 23 49  1  0  0  0  0
 23 50  1  0  0  0  0
 24 51  1  0  0  0  0
 24 52  1  0  0  0  0
 25 53  1  0  0  0  0
 25 54  1  0  0  0  0
 26 55  1  0  0  0  0
 26 56  1  0  0  0  0
 27 57  1  0  0  0  0
 27 58  1  0  0  0  0
 28 59  1  0  0  0  0
 29 60  1  0  0  0  0
 31 61  1  0  0  0  0
M  END
> <clash_score>
0

> <docking_score>
-7.237679958343506

> <overlap_score>
1.0255537033081055

$$$$
BENZO_286_1
  -OEChem-08222022413D

 56 59  0     1  0  0  0  0  0999 V2000
    4.2970    1.6690   20.8430 C   0  0  0  0  0  0  0  0  0  0  0  0
    4.0980    2.1130   19.5350 C   0  0  0  0  0  0  0  0  0  0  0  0
   13.7719    0.5789   24.0657 C   0  0  0  0  0  0  0  0  0  0  0  0
    5.3360    0.8000   21.1530 C   0  0  0  0  0  0  0  0  0  0  0  0
   12.3966    0.4859   24.2792 C   0  0  0  0  0  0  0  0  0  0  0  0
    8.3510   -1.5420   24.6110 C   0  0  0  0  0  0  0  0  0  0  0  0
   10.2760   -2.3270   23.4020 C   0  0  0  0  0  0  0  0  0  0  0  0
    4.9400    1.7060   18.5060 C   0  0  0  0  0  0  0  0  0  0  0  0
    8.3310   -2.7170   25.3430 C   0  0  0  0  0  0  0  0  0  0  0  0
   10.2570   -3.5000   24.1350 C   0  0  0  0  0  0  0  0  0  0  0  0
   14.2627    1.3315   22.9987 C   0  0  0  0  0  0  0  0  0  0  0  0
   12.0029    1.8979   22.3587 C   0  0  0  0  0  0  0  0  0  0  0  0
    7.6830   -0.5170   18.7600 C   0  0  0  0  0  0  0  0  0  0  0  0
    6.1600    0.3870   20.1140 C   0  0  0  0  0  0  0  0  0  0  0  0
    9.3300   -1.3350   23.6390 C   0  0  0  0  0  0  0  0  0  0  0  0
   11.5121    1.1453   23.4257 C   0  0  0  0  0  0  0  0  0  0  0  0
    5.9810    0.8330   18.8060 C   0  0  0  0  0  0  0  0  0  0  0  0
    9.2850   -3.7090   25.1090 C   0  0  0  0  0  0  0  0  0  0  0  0
    7.2210   -0.4620   20.0350 C   0  0  0  0  0  0  0  0  0  0  0  0
   13.3782    1.9909   22.1452 C   0  0  0  0  0  0  0  0  0  0  0  0
    8.1532   -5.5459   26.3982 C   0  0  0  0  0  0  0  0  0  0  0  0
    8.9510    0.1280   21.6880 C   0  0  0  0  0  0  0  0  0  0  0  0
    9.7890   -7.4744   26.4997 C   0  0  0  0  0  0  0  0  0  0  0  0
   10.0220    1.0430   23.6570 C   0  0  0  0  0  0  0  0  0  0  0  0
    8.5721   -6.8157   27.1241 C   0  0  0  0  0  0  0  0  0  0  0  0
    9.4200   -0.0840   22.9530 C   0  0  1  0  0  0  0  0  0  0  0  0
    6.9440    0.2550   18.0100 N   0  0  0  0  0  0  0  0  0  0  0  0
    9.2630   -4.8903   25.8409 N   0  0  0  0  0  0  0  0  0  0  0  0
    8.0810   -0.9750   21.0820 N   0  0  0  0  0  0  0  0  0  0  0  0
    6.9817   -5.1874   26.3377 O   0  0  0  0  0  0  0  0  0  0  0  0
    9.1870    1.1500   21.0630 O   0  0  0  0  0  0  0  0  0  0  0  0
   13.9842    2.9183   20.8282 Cl  0  0  0  0  0  0  0  0  0  0  0  0
    3.6256    2.0106   21.6303 H   0  0  0  0  0  0  0  0  0  0  0  0
    3.2724    2.7868   19.3204 H   0  0  0  0  0  0  0  0  0  0  0  0
   14.4603    0.0652   24.7305 H   0  0  0  0  0  0  0  0  0  0  0  0
    5.4858    0.4664   22.1692 H   0  0  0  0  0  0  0  0  0  0  0  0
   12.0231   -0.1028   25.1130 H   0  0  0  0  0  0  0  0  0  0  0  0
    7.5948   -0.7783   24.7966 H   0  0  0  0  0  0  0  0  0  0  0  0
   11.0389   -2.1844   22.6342 H   0  0  0  0  0  0  0  0  0  0  0  0
    4.7836    2.0664   17.4848 H   0  0  0  0  0  0  0  0  0  0  0  0
    7.5642   -2.8624   26.1050 H   0  0  0  0  0  0  0  0  0  0  0  0
   11.0137   -4.2649   23.9418 H   0  0  0  0  0  0  0  0  0  0  0  0
   15.3370    1.3949   22.8442 H   0  0  0  0  0  0  0  0  0  0  0  0
   11.3092    2.4106   21.6964 H   0  0  0  0  0  0  0  0  0  0  0  0
    8.5274   -1.0858   18.3384 H   0  0  0  0  0  0  0  0  0  0  0  0
    9.6005   -7.7377   25.4537 H   0  0  0  0  0  0  0  0  0  0  0  0
   10.0470   -8.3896   27.0414 H   0  0  0  0  0  0  0  0  0  0  0  0
   10.6554   -6.8053   26.5265 H   0  0  0  0  0  0  0  0  0  0  0  0
    9.8253    0.9889   24.7357 H   0  0  0  0  0  0  0  0  0  0  0  0
    9.5635    1.9845   23.3241 H   0  0  0  0  0  0  0  0  0  0  0  0
    8.7886   -6.5635   28.1685 H   0  0  0  0  0  0  0  0  0  0  0  0
    7.7299   -7.5171   27.1116 H   0  0  0  0  0  0  0  0  0  0  0  0
    8.1288    0.3205   23.5156 H   0  0  0  0  0  0  0  0  0  0  0  0
    7.0325    0.4238   17.0175 H   0  0  0  0  0  0  0  0  0  0  0  0
   10.1695   -5.3467   25.9960 H   0  0  0  0  0  0  0  0  0  0  0  0
    8.1175   -1.8104   21.3538 H   0  0  0  0  0  0  0  0  0  0  0  0
  1  2  1  0  0  0  0
  1  4  2  0  0  0  0
  2  8  2  0  0  0  0
  3  5  2  0  0  0  0
  3 11  1  0  0  0  0
  4 14  1  0  0  0  0
  5 16  1  0  0  0  0
  6  9  2  0  0  0  0
  6 15  1  0  0  0  0
  7 10  1  0  0  0  0
  7 15  2  0  0  0  0
  8 17  1  0  0  0  0
  9 18  1  0  0  0  0
 10 18  2  0  0  0  0
 11 20  2  0  0  0  0
 12 16  2  0  0  0  0
 12 20  1  0  0  0  0
 13 19  2  0  0  0  0
 13 27  1  0  0  0  0
 14 17  2  0  0  0  0
 14 19  1  0  0  0  0
 15 26  1  0  0  0  0
 16 24  1  0  0  0  0
 17 27  1  0  0  0  0
 18 28  1  0  0  0  0
 19 29  1  0  0  0  0
 20 32  1  0  0  0  0
 21 25  1  0  0  0  0
 21 28  1  0  0  0  0
 21 30  2  0  0  0  0
 22 26  1  0  0  0  0
 22 29  1  0  0  0  0
 22 31  2  0  0  0  0
 23 25  1  0  0  0  0
 24 26  1  1  0  0  0
  1 33  1  0  0  0  0
  2 34  1  0  0  0  0
  3 35  1  0  0  0  0
  4 36  1  0  0  0  0
  5 37  1  0  0  0  0
  6 38  1  0  0  0  0
  7 39  1  0  0  0  0
  8 40  1  0  0  0  0
  9 41  1  0  0  0  0
 10 42  1  0  0  0  0
 11 43  1  0  0  0  0
 12 44  1  0  0  0  0
 13 45  1  0  0  0  0
 23 46  1  0  0  0  0
 23 47  1  0  0  0  0
 23 48  1  0  0  0  0
 24 49  1  0  0  0  0
 24 50  1  0  0  0  0
 25 51  1  0  0  0  0
 25 52  1  0  0  0  0
 26 53  1  0  0  0  0
 27 54  1  0  0  0  0
 28 55  1  0  0  0  0
 29 56  1  0  0  0  0
M  END
> <clash_score>
0.746221240431964

> <docking_score>
-5.754934310913086

> <overlap_score>
1.0222188234329224

$$$$
BENZO_288_2
  -OEChem-08222022413D

 58 62  0     1  0  0  0  0  0999 V2000
    4.2970    1.6690   20.8430 C   0  0  0  0  0  0  0  0  0  0  0  0
    4.0980    2.1130   19.5350 C   0  0  0  0  0  0  0  0  0  0  0  0
    5.3360    0.8000   21.1530 C   0  0  0  0  0  0  0  0  0  0  0  0
    8.3510   -1.5420   24.6110 C   0  0  0  0  0  0  0  0  0  0  0  0
   10.2760   -2.3270   23.4020 C   0  0  0  0  0  0  0  0  0  0  0  0
    4.9400    1.7060   18.5060 C   0  0  0  0  0  0  0  0  0  0  0  0
    8.3310   -2.7170   25.3430 C   0  0  0  0  0  0  0  0  0  0  0  0
   10.2570   -3.5000   24.1350 C   0  0  0  0  0  0  0  0  0  0  0  0
   12.2126    2.3974   23.3680 C   0  0  0  0  0  0  0  0  0  0  0  0
    7.6830   -0.5170   18.7600 C   0  0  0  0  0  0  0  0  0  0  0  0
   13.5630    2.2185   23.1633 C   0  0  0  0  0  0  0  0  0  0  0  0
   12.3560    0.0789   23.2869 C   0  0  0  0  0  0  0  0  0  0  0  0
    6.1600    0.3870   20.1140 C   0  0  0  0  0  0  0  0  0  0  0  0
    9.3300   -1.3350   23.6390 C   0  0  0  0  0  0  0  0  0  0  0  0
   11.5133    1.1580   23.4397 C   0  0  0  0  0  0  0  0  0  0  0  0
    5.9810    0.8330   18.8060 C   0  0  0  0  0  0  0  0  0  0  0  0
    9.2850   -3.7090   25.1090 C   0  0  0  0  0  0  0  0  0  0  0  0
    7.2210   -0.4620   20.0350 C   0  0  0  0  0  0  0  0  0  0  0  0
    8.9510    0.1280   21.6880 C   0  0  0  0  0  0  0  0  0  0  0  0
    7.3211   -6.8875   26.5227 C   0  0  0  0  0  0  0  0  0  0  0  0
    7.3523   -5.5278   27.2244 C   0  0  0  0  0  0  0  0  0  0  0  0
    7.9422   -6.8107   25.1261 C   0  0  0  0  0  0  0  0  0  0  0  0
    8.7641   -4.9418   27.2163 C   0  0  0  0  0  0  0  0  0  0  0  0
    9.3411   -6.1879   25.1670 C   0  0  0  0  0  0  0  0  0  0  0  0
   10.0220    1.0430   23.6570 C   0  0  0  0  0  0  0  0  0  0  0  0
    9.4200   -0.0840   22.9530 C   0  0  2  0  0  0  0  0  0  0  0  0
    6.9440    0.2550   18.0100 N   0  0  0  0  0  0  0  0  0  0  0  0
    9.2641   -4.8861   25.8398 N   0  0  0  0  0  0  0  0  0  0  0  0
    8.0810   -0.9750   21.0820 N   0  0  0  0  0  0  0  0  0  0  0  0
    9.1870    1.1500   21.0630 O   0  0  0  0  0  0  0  0  0  0  0  0
   13.9830    0.5617   23.0583 S   0  0  0  0  0  0  0  0  0  0  0  0
    3.6256    2.0106   21.6303 H   0  0  0  0  0  0  0  0  0  0  0  0
    3.2724    2.7868   19.3204 H   0  0  0  0  0  0  0  0  0  0  0  0
    5.4858    0.4664   22.1692 H   0  0  0  0  0  0  0  0  0  0  0  0
    7.5957   -0.7779   24.7973 H   0  0  0  0  0  0  0  0  0  0  0  0
   11.0384   -2.1852   22.6338 H   0  0  0  0  0  0  0  0  0  0  0  0
    4.7836    2.0664   17.4848 H   0  0  0  0  0  0  0  0  0  0  0  0
    7.5634   -2.8637   26.1037 H   0  0  0  0  0  0  0  0  0  0  0  0
   11.0139   -4.2645   23.9419 H   0  0  0  0  0  0  0  0  0  0  0  0
   11.7522    3.3729   23.4608 H   0  0  0  0  0  0  0  0  0  0  0  0
    8.5274   -1.0858   18.3384 H   0  0  0  0  0  0  0  0  0  0  0  0
   14.3229    2.9813   23.0696 H   0  0  0  0  0  0  0  0  0  0  0  0
   12.0982   -0.9711   23.2967 H   0  0  0  0  0  0  0  0  0  0  0  0
    7.8644   -7.6283   27.1289 H   0  0  0  0  0  0  0  0  0  0  0  0
    6.2830   -7.2423   26.4478 H   0  0  0  0  0  0  0  0  0  0  0  0
    6.6663   -4.8405   26.7221 H   0  0  0  0  0  0  0  0  0  0  0  0
    7.0062   -5.6400   28.2540 H   0  0  0  0  0  0  0  0  0  0  0  0
    8.0018   -7.8160   24.6962 H   0  0  0  0  0  0  0  0  0  0  0  0
    7.2963   -6.2182   24.4678 H   0  0  0  0  0  0  0  0  0  0  0  0
    8.7322   -3.9404   27.6532 H   0  0  0  0  0  0  0  0  0  0  0  0
    9.4260   -5.5610   27.8283 H   0  0  0  0  0  0  0  0  0  0  0  0
   10.0249   -6.8474   25.7028 H   0  0  0  0  0  0  0  0  0  0  0  0
    9.7015   -6.0700   24.1446 H   0  0  0  0  0  0  0  0  0  0  0  0
    9.8155    0.9894   24.7339 H   0  0  0  0  0  0  0  0  0  0  0  0
    9.5584    1.9798   23.3178 H   0  0  0  0  0  0  0  0  0  0  0  0
    8.1278    0.3254   23.5142 H   0  0  0  0  0  0  0  0  0  0  0  0
    7.0325    0.4238   17.0175 H   0  0  0  0  0  0  0  0  0  0  0  0
    8.1354   -1.7990   21.3694 H   0  0  0  0  0  0  0  0  0  0  0  0
  1  2  1  0  0  0  0
  1  3  2  0  0  0  0
  2  6  2  0  0  0  0
  3 13  1  0  0  0  0
  4  7  2  0  0  0  0
  4 14  1  0  0  0  0
  5  8  1  0  0  0  0
  5 14  2  0  0  0  0
  6 16  1  0  0  0  0
  7 17  1  0  0  0  0
  8 17  2  0  0  0  0
  9 11  2  0  0  0  0
  9 15  1  0  0  0  0
 10 18  2  0  0  0  0
 10 27  1  0  0  0  0
 11 31  1  0  0  0  0
 12 15  2  0  0  0  0
 12 31  1  0  0  0  0
 13 16  2  0  0  0  0
 13 18  1  0  0  0  0
 14 26  1  0  0  0  0
 15 25  1  0  0  0  0
 16 27  1  0  0  0  0
 17 28  1  0  0  0  0
 18 29  1  0  0  0  0
 19 26  1  6  0  0  0
 19 29  1  0  0  0  0
 19 30  2  0  0  0  0
 20 21  1  0  0  0  0
 20 22  1  0  0  0  0
 21 23  1  0  0  0  0
 22 24  1  0  0  0  0
 23 28  1  0  0  0  0
 24 28  1  0  0  0  0
 25 26  1  0  0  0  0
  1 32  1  0  0  0  0
  2 33  1  0  0  0  0
  3 34  1  0  0  0  0
  4 35  1  0  0  0  0
  5 36  1  0  0  0  0
  6 37  1  0  0  0  0
  7 38  1  0  0  0  0
  8 39  1  0  0  0  0
  9 40  1  0  0  0  0
 10 41  1  0  0  0  0
 11 42  1  0  0  0  0
 12 43  1  0  0  0  0
 20 44  1  0  0  0  0
 20 45  1  0  0  0  0
 21 46  1  0  0  0  0
 21 47  1  0  0  0  0
 22 48  1  0  0  0  0
 22 49  1  0  0  0  0
 23 50  1  0  0  0  0
 23 51  1  0  0  0  0
 24 52  1  0  0  0  0
 24 53  1  0  0  0  0
 25 54  1  0  0  0  0
 25 55  1  0  0  0  0
 26 56  1  0  0  0  0
 27 57  1  0  0  0  0
 29 58  1  0  0  0  0
M  END
> <clash_score>
0

> <docking_score>
-8.046716690063477

> <overlap_score>
1.012872338294983

$$$$
BENZO_288_1
  -OEChem-08222022413D

 58 62  0     1  0  0  0  0  0999 V2000
    4.2970    1.6690   20.8430 C   0  0  0  0  0  0  0  0  0  0  0  0
    4.0980    2.1130   19.5350 C   0  0  0  0  0  0  0  0  0  0  0  0
    5.3360    0.8000   21.1530 C   0  0  0  0  0  0  0  0  0  0  0  0
    8.3510   -1.5420   24.6110 C   0  0  0  0  0  0  0  0  0  0  0  0
   10.2760   -2.3270   23.4020 C   0  0  0  0  0  0  0  0  0  0  0  0
    4.9400    1.7060   18.5060 C   0  0  0  0  0  0  0  0  0  0  0  0
    8.3310   -2.7170   25.3430 C   0  0  0  0  0  0  0  0  0  0  0  0
   10.2570   -3.5000   24.1350 C   0  0  0  0  0  0  0  0  0  0  0  0
   11.0518    0.9847   26.0345 C   0  0  0  0  0  0  0  0  0  0  0  0
    7.6830   -0.5170   18.7600 C   0  0  0  0  0  0  0  0  0  0  0  0
   12.1353    0.4811   26.7201 C   0  0  0  0  0  0  0  0  0  0  0  0
   12.1840   -0.1301   24.3381 C   0  0  0  0  0  0  0  0  0  0  0  0
    6.1600    0.3870   20.1140 C   0  0  0  0  0  0  0  0  0  0  0  0
    9.3300   -1.3350   23.6390 C   0  0  0  0  0  0  0  0  0  0  0  0
   11.0798    0.6306   24.6546 C   0  0  0  0  0  0  0  0  0  0  0  0
    5.9810    0.8330   18.8060 C   0  0  0  0  0  0  0  0  0  0  0  0
    9.2850   -3.7090   25.1090 C   0  0  0  0  0  0  0  0  0  0  0  0
    7.2210   -0.4620   20.0350 C   0  0  0  0  0  0  0  0  0  0  0  0
    8.9510    0.1280   21.6880 C   0  0  0  0  0  0  0  0  0  0  0  0
    7.3211   -6.8875   26.5227 C   0  0  0  0  0  0  0  0  0  0  0  0
    7.3523   -5.5278   27.2244 C   0  0  0  0  0  0  0  0  0  0  0  0
    7.9422   -6.8107   25.1261 C   0  0  0  0  0  0  0  0  0  0  0  0
    8.7641   -4.9418   27.2163 C   0  0  0  0  0  0  0  0  0  0  0  0
    9.3411   -6.1879   25.1670 C   0  0  0  0  0  0  0  0  0  0  0  0
   10.0220    1.0430   23.6570 C   0  0  0  0  0  0  0  0  0  0  0  0
    9.4200   -0.0840   22.9530 C   0  0  1  0  0  0  0  0  0  0  0  0
    6.9440    0.2550   18.0100 N   0  0  0  0  0  0  0  0  0  0  0  0
    9.2641   -4.8861   25.8398 N   0  0  0  0  0  0  0  0  0  0  0  0
    8.0810   -0.9750   21.0820 N   0  0  0  0  0  0  0  0  0  0  0  0
    9.1870    1.1500   21.0630 O   0  0  0  0  0  0  0  0  0  0  0  0
   13.1804   -0.4145   25.7013 S   0  0  0  0  0  0  0  0  0  0  0  0
    3.6256    2.0106   21.6303 H   0  0  0  0  0  0  0  0  0  0  0  0
    3.2724    2.7868   19.3204 H   0  0  0  0  0  0  0  0  0  0  0  0
    5.4858    0.4664   22.1692 H   0  0  0  0  0  0  0  0  0  0  0  0
    7.5957   -0.7779   24.7973 H   0  0  0  0  0  0  0  0  0  0  0  0
   11.0384   -2.1852   22.6338 H   0  0  0  0  0  0  0  0  0  0  0  0
    4.7836    2.0664   17.4848 H   0  0  0  0  0  0  0  0  0  0  0  0
    7.5634   -2.8637   26.1037 H   0  0  0  0  0  0  0  0  0  0  0  0
   11.0139   -4.2645   23.9419 H   0  0  0  0  0  0  0  0  0  0  0  0
   10.2782    1.5788   26.5045 H   0  0  0  0  0  0  0  0  0  0  0  0
    8.5274   -1.0858   18.3384 H   0  0  0  0  0  0  0  0  0  0  0  0
   12.3635    0.5968   27.7702 H   0  0  0  0  0  0  0  0  0  0  0  0
   12.4575   -0.5332   23.3728 H   0  0  0  0  0  0  0  0  0  0  0  0
    7.8644   -7.6283   27.1289 H   0  0  0  0  0  0  0  0  0  0  0  0
    6.2830   -7.2423   26.4478 H   0  0  0  0  0  0  0  0  0  0  0  0
    6.6663   -4.8405   26.7221 H   0  0  0  0  0  0  0  0  0  0  0  0
    7.0062   -5.6400   28.2540 H   0  0  0  0  0  0  0  0  0  0  0  0
    8.0018   -7.8160   24.6962 H   0  0  0  0  0  0  0  0  0  0  0  0
    7.2963   -6.2182   24.4678 H   0  0  0  0  0  0  0  0  0  0  0  0
    8.7322   -3.9404   27.6532 H   0  0  0  0  0  0  0  0  0  0  0  0
    9.4260   -5.5610   27.8283 H   0  0  0  0  0  0  0  0  0  0  0  0
   10.0249   -6.8474   25.7028 H   0  0  0  0  0  0  0  0  0  0  0  0
    9.7015   -6.0700   24.1446 H   0  0  0  0  0  0  0  0  0  0  0  0
    9.2564    1.6421   24.1671 H   0  0  0  0  0  0  0  0  0  0  0  0
   10.4892    1.7236   22.9318 H   0  0  0  0  0  0  0  0  0  0  0  0
   10.7366   -0.4277   22.4442 H   0  0  0  0  0  0  0  0  0  0  0  0
    7.0325    0.4238   17.0175 H   0  0  0  0  0  0  0  0  0  0  0  0
    8.1354   -1.7990   21.3694 H   0  0  0  0  0  0  0  0  0  0  0  0
  1  2  1  0  0  0  0
  1  3  2  0  0  0  0
  2  6  2  0  0  0  0
  3 13  1  0  0  0  0
  4  7  2  0  0  0  0
  4 14  1  0  0  0  0
  5  8  1  0  0  0  0
  5 14  2  0  0  0  0
  6 16  1  0  0  0  0
  7 17  1  0  0  0  0
  8 17  2  0  0  0  0
  9 11  2  0  0  0  0
  9 15  1  0  0  0  0
 10 18  2  0  0  0  0
 10 27  1  0  0  0  0
 11 31  1  0  0  0  0
 12 15  2  0  0  0  0
 12 31  1  0  0  0  0
 13 16  2  0  0  0  0
 13 18  1  0  0  0  0
 14 26  1  0  0  0  0
 15 25  1  0  0  0  0
 16 27  1  0  0  0  0
 17 28  1  0  0  0  0
 18 29  1  0  0  0  0
 19 26  1  1  0  0  0
 19 29  1  0  0  0  0
 19 30  2  0  0  0  0
 20 21  1  0  0  0  0
 20 22  1  0  0  0  0
 21 23  1  0  0  0  0
 22 24  1  0  0  0  0
 23 28  1  0  0  0  0
 24 28  1  0  0  0  0
 25 26  1  0  0  0  0
  1 32  1  0  0  0  0
  2 33  1  0  0  0  0
  3 34  1  0  0  0  0
  4 35  1  0  0  0  0
  5 36  1  0  0  0  0
  6 37  1  0  0  0  0
  7 38  1  0  0  0  0
  8 39  1  0  0  0  0
  9 40  1  0  0  0  0
 10 41  1  0  0  0  0
 11 42  1  0  0  0  0
 12 43  1  0  0  0  0
 20 44  1  0  0  0  0
 20 45  1  0  0  0  0
 21 46  1  0  0  0  0
 21 47  1  0  0  0  0
 22 48  1  0  0  0  0
 22 49  1  0  0  0  0
 23 50  1  0  0  0  0
 23 51  1  0  0  0  0
 24 52  1  0  0  0  0
 24 53  1  0  0  0  0
 25 54  1  0  0  0  0
 25 55  1  0  0  0  0
 26 56  1  0  0  0  0
 27 57  1  0  0  0  0
 29 58  1  0  0  0  0
M  END
> <clash_score>
0

> <docking_score>
-5.263163089752197

> <overlap_score>
0.8986520171165466

$$$$
BENZO_286_2
  -OEChem-08222022413D

 56 59  0     1  0  0  0  0  0999 V2000
    4.2970    1.6690   20.8430 C   0  0  0  0  0  0  0  0  0  0  0  0
    4.0980    2.1130   19.5350 C   0  0  0  0  0  0  0  0  0  0  0  0
   12.6560   -0.1194   26.1379 C   0  0  0  0  0  0  0  0  0  0  0  0
    5.3360    0.8000   21.1530 C   0  0  0  0  0  0  0  0  0  0  0  0
   11.4219    0.1994   25.5714 C   0  0  0  0  0  0  0  0  0  0  0  0
    8.3510   -1.5420   24.6110 C   0  0  0  0  0  0  0  0  0  0  0  0
   10.2760   -2.3270   23.4020 C   0  0  0  0  0  0  0  0  0  0  0  0
    4.9400    1.7060   18.5060 C   0  0  0  0  0  0  0  0  0  0  0  0
    8.3310   -2.7170   25.3430 C   0  0  0  0  0  0  0  0  0  0  0  0
   10.2570   -3.5000   24.1350 C   0  0  0  0  0  0  0  0  0  0  0  0
   13.8281    0.0614   25.4035 C   0  0  0  0  0  0  0  0  0  0  0  0
   12.5318    0.8798   23.5362 C   0  0  0  0  0  0  0  0  0  0  0  0
    7.6830   -0.5170   18.7600 C   0  0  0  0  0  0  0  0  0  0  0  0
    6.1600    0.3870   20.1140 C   0  0  0  0  0  0  0  0  0  0  0  0
    9.3300   -1.3350   23.6390 C   0  0  0  0  0  0  0  0  0  0  0  0
   11.3597    0.6989   24.2706 C   0  0  0  0  0  0  0  0  0  0  0  0
    5.9810    0.8330   18.8060 C   0  0  0  0  0  0  0  0  0  0  0  0
    9.2850   -3.7090   25.1090 C   0  0  0  0  0  0  0  0  0  0  0  0
    7.2210   -0.4620   20.0350 C   0  0  0  0  0  0  0  0  0  0  0  0
   13.7660    0.5610   24.1027 C   0  0  0  0  0  0  0  0  0  0  0  0
    8.3642   -5.2691   26.8512 C   0  0  0  0  0  0  0  0  0  0  0  0
    8.9510    0.1280   21.6880 C   0  0  0  0  0  0  0  0  0  0  0  0
    7.9641   -7.7612   26.6648 C   0  0  0  0  0  0  0  0  0  0  0  0
   10.0220    1.0430   23.6570 C   0  0  0  0  0  0  0  0  0  0  0  0
    8.6980   -6.6505   27.3945 C   0  0  0  0  0  0  0  0  0  0  0  0
    9.4200   -0.0840   22.9530 C   0  0  2  0  0  0  0  0  0  0  0  0
    6.9440    0.2550   18.0100 N   0  0  0  0  0  0  0  0  0  0  0  0
    9.2630   -4.8903   25.8409 N   0  0  0  0  0  0  0  0  0  0  0  0
    8.0810   -0.9750   21.0820 N   0  0  0  0  0  0  0  0  0  0  0  0
    7.4190   -4.6135   27.2771 O   0  0  0  0  0  0  0  0  0  0  0  0
    9.1870    1.1500   21.0630 O   0  0  0  0  0  0  0  0  0  0  0  0
   15.2122    0.7829   23.1967 Cl  0  0  0  0  0  0  0  0  0  0  0  0
    3.6256    2.0106   21.6303 H   0  0  0  0  0  0  0  0  0  0  0  0
    3.2724    2.7868   19.3204 H   0  0  0  0  0  0  0  0  0  0  0  0
   12.7039   -0.5086   27.1508 H   0  0  0  0  0  0  0  0  0  0  0  0
    5.4858    0.4664   22.1692 H   0  0  0  0  0  0  0  0  0  0  0  0
   10.5137    0.0551   26.1509 H   0  0  0  0  0  0  0  0  0  0  0  0
    7.5948   -0.7783   24.7966 H   0  0  0  0  0  0  0  0  0  0  0  0
   11.0389   -2.1844   22.6342 H   0  0  0  0  0  0  0  0  0  0  0  0
    4.7836    2.0664   17.4848 H   0  0  0  0  0  0  0  0  0  0  0  0
    7.5642   -2.8624   26.1050 H   0  0  0  0  0  0  0  0  0  0  0  0
   11.0137   -4.2649   23.9418 H   0  0  0  0  0  0  0  0  0  0  0  0
   14.7829   -0.1916   25.8577 H   0  0  0  0  0  0  0  0  0  0  0  0
   12.4781    1.2701   22.5225 H   0  0  0  0  0  0  0  0  0  0  0  0
    8.5274   -1.0858   18.3384 H   0  0  0  0  0  0  0  0  0  0  0  0
    6.8795   -7.6299   26.7375 H   0  0  0  0  0  0  0  0  0  0  0  0
    8.2203   -8.7342   27.0952 H   0  0  0  0  0  0  0  0  0  0  0  0
    8.2299   -7.7764   25.6026 H   0  0  0  0  0  0  0  0  0  0  0  0
    9.3529    1.4272   24.4380 H   0  0  0  0  0  0  0  0  0  0  0  0
   10.1743    1.8827   22.9648 H   0  0  0  0  0  0  0  0  0  0  0  0
    9.7792   -6.8069   27.3054 H   0  0  0  0  0  0  0  0  0  0  0  0
    8.4374   -6.6778   28.4588 H   0  0  0  0  0  0  0  0  0  0  0  0
   10.7346   -0.4307   22.4468 H   0  0  0  0  0  0  0  0  0  0  0  0
    7.0325    0.4238   17.0175 H   0  0  0  0  0  0  0  0  0  0  0  0
    9.9928   -5.5773   25.6186 H   0  0  0  0  0  0  0  0  0  0  0  0
    8.1175   -1.8104   21.3538 H   0  0  0  0  0  0  0  0  0  0  0  0
  1  2  1  0  0  0  0
  1  4  2  0  0  0  0
  2  8  2  0  0  0  0
  3  5  2  0  0  0  0
  3 11  1  0  0  0  0
  4 14  1  0  0  0  0
  5 16  1  0  0  0  0
  6  9  2  0  0  0  0
  6 15  1  0  0  0  0
  7 10  1  0  0  0  0
  7 15  2  0  0  0  0
  8 17  1  0  0  0  0
  9 18  1  0  0  0  0
 10 18  2  0  0  0  0
 11 20  2  0  0  0  0
 12 16  2  0  0  0  0
 12 20  1  0  0  0  0
 13 19  2  0  0  0  0
 13 27  1  0  0  0  0
 14 17  2  0  0  0  0
 14 19  1  0  0  0  0
 15 26  1  0  0  0  0
 16 24  1  0  0  0  0
 17 27  1  0  0  0  0
 18 28  1  0  0  0  0
 19 29  1  0  0  0  0
 20 32  1  0  0  0  0
 21 25  1  0  0  0  0
 21 28  1  0  0  0  0
 21 30  2  0  0  0  0
 22 26  1  0  0  0  0
 22 29  1  0  0  0  0
 22 31  2  0  0  0  0
 23 25  1  0  0  0  0
 24 26  1  6  0  0  0
  1 33  1  0  0  0  0
  2 34  1  0  0  0  0
  3 35  1  0  0  0  0
  4 36  1  0  0  0  0
  5 37  1  0  0  0  0
  6 38  1  0  0  0  0
  7 39  1  0  0  0  0
  8 40  1  0  0  0  0
  9 41  1  0  0  0  0
 10 42  1  0  0  0  0
 11 43  1  0  0  0  0
 12 44  1  0  0  0  0
 13 45  1  0  0  0  0
 23 46  1  0  0  0  0
 23 47  1  0  0  0  0
 23 48  1  0  0  0  0
 24 49  1  0  0  0  0
 24 50  1  0  0  0  0
 25 51  1  0  0  0  0
 25 52  1  0  0  0  0
 26 53  1  0  0  0  0
 27 54  1  0  0  0  0
 28 55  1  0  0  0  0
 29 56  1  0  0  0  0
M  END
> <clash_score>
1.3876687582870166

> <docking_score>
-4.471987724304199

> <overlap_score>
0.9517188668251038

$$$$
BENZO_287_2
  -OEChem-08222022413D

 56 59  0     1  0  0  0  0  0999 V2000
    4.2970    1.6690   20.8430 C   0  0  0  0  0  0  0  0  0  0  0  0
    4.0980    2.1130   19.5350 C   0  0  0  0  0  0  0  0  0  0  0  0
    5.3360    0.8000   21.1530 C   0  0  0  0  0  0  0  0  0  0  0  0
    8.3510   -1.5420   24.6110 C   0  0  0  0  0  0  0  0  0  0  0  0
   10.2760   -2.3270   23.4020 C   0  0  0  0  0  0  0  0  0  0  0  0
    4.9400    1.7060   18.5060 C   0  0  0  0  0  0  0  0  0  0  0  0
    8.3310   -2.7170   25.3430 C   0  0  0  0  0  0  0  0  0  0  0  0
   10.2570   -3.5000   24.1350 C   0  0  0  0  0  0  0  0  0  0  0  0
   12.6346    0.8176   23.6854 C   0  0  0  0  0  0  0  0  0  0  0  0
   11.6038    0.2020   25.5275 C   0  0  0  0  0  0  0  0  0  0  0  0
    7.6830   -0.5170   18.7600 C   0  0  0  0  0  0  0  0  0  0  0  0
    6.1600    0.3870   20.1140 C   0  0  0  0  0  0  0  0  0  0  0  0
    9.3300   -1.3350   23.6390 C   0  0  0  0  0  0  0  0  0  0  0  0
   11.3597    0.6989   24.2706 C   0  0  0  0  0  0  0  0  0  0  0  0
    5.9810    0.8330   18.8060 C   0  0  0  0  0  0  0  0  0  0  0  0
    9.2850   -3.7090   25.1090 C   0  0  0  0  0  0  0  0  0  0  0  0
    7.2210   -0.4620   20.0350 C   0  0  0  0  0  0  0  0  0  0  0  0
    8.3642   -5.2691   26.8512 C   0  0  0  0  0  0  0  0  0  0  0  0
    8.9510    0.1280   21.6880 C   0  0  0  0  0  0  0  0  0  0  0  0
    7.9641   -7.7612   26.6648 C   0  0  0  0  0  0  0  0  0  0  0  0
   13.6941   -0.4329   26.7549 C   0  0  0  0  0  0  0  0  0  0  0  0
   10.0220    1.0430   23.6570 C   0  0  0  0  0  0  0  0  0  0  0  0
    8.6980   -6.6505   27.3945 C   0  0  0  0  0  0  0  0  0  0  0  0
    9.4200   -0.0840   22.9530 C   0  0  2  0  0  0  0  0  0  0  0  0
   13.6158    0.4276   24.5035 N   0  0  0  0  0  0  0  0  0  0  0  0
    6.9440    0.2550   18.0100 N   0  0  0  0  0  0  0  0  0  0  0  0
   12.9573    0.0592   25.6156 N   0  0  0  0  0  0  0  0  0  0  0  0
    9.2630   -4.8903   25.8409 N   0  0  0  0  0  0  0  0  0  0  0  0
    8.0810   -0.9750   21.0820 N   0  0  0  0  0  0  0  0  0  0  0  0
    7.4190   -4.6135   27.2771 O   0  0  0  0  0  0  0  0  0  0  0  0
    9.1870    1.1500   21.0630 O   0  0  0  0  0  0  0  0  0  0  0  0
    3.6256    2.0106   21.6303 H   0  0  0  0  0  0  0  0  0  0  0  0
    3.2724    2.7868   19.3204 H   0  0  0  0  0  0  0  0  0  0  0  0
    5.4858    0.4664   22.1692 H   0  0  0  0  0  0  0  0  0  0  0  0
    7.5948   -0.7783   24.7966 H   0  0  0  0  0  0  0  0  0  0  0  0
   11.0389   -2.1844   22.6342 H   0  0  0  0  0  0  0  0  0  0  0  0
    4.7836    2.0664   17.4848 H   0  0  0  0  0  0  0  0  0  0  0  0
    7.5642   -2.8624   26.1050 H   0  0  0  0  0  0  0  0  0  0  0  0
   11.0137   -4.2649   23.9418 H   0  0  0  0  0  0  0  0  0  0  0  0
   12.8922    1.1725   22.6975 H   0  0  0  0  0  0  0  0  0  0  0  0
   10.9461   -0.0545   26.3470 H   0  0  0  0  0  0  0  0  0  0  0  0
    8.5274   -1.0858   18.3384 H   0  0  0  0  0  0  0  0  0  0  0  0
    6.8795   -7.6299   26.7375 H   0  0  0  0  0  0  0  0  0  0  0  0
    8.2203   -8.7342   27.0952 H   0  0  0  0  0  0  0  0  0  0  0  0
    8.2299   -7.7764   25.6026 H   0  0  0  0  0  0  0  0  0  0  0  0
   13.7879   -1.5173   26.6532 H   0  0  0  0  0  0  0  0  0  0  0  0
   14.6819    0.0356   26.7797 H   0  0  0  0  0  0  0  0  0  0  0  0
   13.1542   -0.1790   27.6714 H   0  0  0  0  0  0  0  0  0  0  0  0
    9.3529    1.4272   24.4380 H   0  0  0  0  0  0  0  0  0  0  0  0
   10.1743    1.8827   22.9648 H   0  0  0  0  0  0  0  0  0  0  0  0
    9.7792   -6.8069   27.3054 H   0  0  0  0  0  0  0  0  0  0  0  0
    8.4374   -6.6778   28.4588 H   0  0  0  0  0  0  0  0  0  0  0  0
   10.7346   -0.4307   22.4468 H   0  0  0  0  0  0  0  0  0  0  0  0
    7.0325    0.4238   17.0175 H   0  0  0  0  0  0  0  0  0  0  0  0
    9.9928   -5.5773   25.6186 H   0  0  0  0  0  0  0  0  0  0  0  0
    8.1175   -1.8104   21.3538 H   0  0  0  0  0  0  0  0  0  0  0  0
  1  2  1  0  0  0  0
  1  3  2  0  0  0  0
  2  6  2  0  0  0  0
  3 12  1  0  0  0  0
  4  7  2  0  0  0  0
  4 13  1  0  0  0  0
  5  8  1  0  0  0  0
  5 13  2  0  0  0  0
  6 15  1  0  0  0  0
  7 16  1  0  0  0  0
  8 16  2  0  0  0  0
  9 14  1  0  0  0  0
  9 25  2  0  0  0  0
 10 14  2  0  0  0  0
 10 27  1  0  0  0  0
 11 17  2  0  0  0  0
 11 26  1  0  0  0  0
 12 15  2  0  0  0  0
 12 17  1  0  0  0  0
 13 24  1  0  0  0  0
 14 22  1  0  0  0  0
 15 26  1  0  0  0  0
 16 28  1  0  0  0  0
 17 29  1  0  0  0  0
 18 23  1  0  0  0  0
 18 28  1  0  0  0  0
 18 30  2  0  0  0  0
 19 24  1  0  0  0  0
 19 29  1  0  0  0  0
 19 31  2  0  0  0  0
 20 23  1  0  0  0  0
 21 27  1  0  0  0  0
 22 24  1  6  0  0  0
 25 27  1  0  0  0  0
  1 32  1  0  0  0  0
  2 33  1  0  0  0  0
  3 34  1  0  0  0  0
  4 35  1  0  0  0  0
  5 36  1  0  0  0  0
  6 37  1  0  0  0  0
  7 38  1  0  0  0  0
  8 39  1  0  0  0  0
  9 40  1  0  0  0  0
 10 41  1  0  0  0  0
 11 42  1  0  0  0  0
 20 43  1  0  0  0  0
 20 44  1  0  0  0  0
 20 45  1  0  0  0  0
 21 46  1  0  0  0  0
 21 47  1  0  0  0  0
 21 48  1  0  0  0  0
 22 49  1  0  0  0  0
 22 50  1  0  0  0  0
 23 51  1  0  0  0  0
 23 52  1  0  0  0  0
 24 53  1  0  0  0  0
 26 54  1  0  0  0  0
 28 55  1  0  0  0  0
 29 56  1  0  0  0  0
M  END
> <clash_score>
1.5256991825717863

> <docking_score>
-5.2394866943359375

> <overlap_score>
0.9339474439620972

$$$$
BENZO_287_1
  -OEChem-08222022413D

 56 59  0     1  0  0  0  0  0999 V2000
    4.2970    1.6690   20.8430 C   0  0  0  0  0  0  0  0  0  0  0  0
    4.0980    2.1130   19.5350 C   0  0  0  0  0  0  0  0  0  0  0  0
    5.3360    0.8000   21.1530 C   0  0  0  0  0  0  0  0  0  0  0  0
    8.3510   -1.5420   24.6110 C   0  0  0  0  0  0  0  0  0  0  0  0
   10.2760   -2.3270   23.4020 C   0  0  0  0  0  0  0  0  0  0  0  0
    4.9400    1.7060   18.5060 C   0  0  0  0  0  0  0  0  0  0  0  0
    8.3310   -2.7170   25.3430 C   0  0  0  0  0  0  0  0  0  0  0  0
   10.2570   -3.5000   24.1350 C   0  0  0  0  0  0  0  0  0  0  0  0
   12.3075    2.3068   23.4193 C   0  0  0  0  0  0  0  0  0  0  0  0
   12.3951    0.1231   23.1770 C   0  0  0  0  0  0  0  0  0  0  0  0
    7.6830   -0.5170   18.7600 C   0  0  0  0  0  0  0  0  0  0  0  0
    6.1600    0.3870   20.1140 C   0  0  0  0  0  0  0  0  0  0  0  0
    9.3300   -1.3350   23.6390 C   0  0  0  0  0  0  0  0  0  0  0  0
   11.5121    1.1453   23.4257 C   0  0  0  0  0  0  0  0  0  0  0  0
    5.9810    0.8330   18.8060 C   0  0  0  0  0  0  0  0  0  0  0  0
    9.2850   -3.7090   25.1090 C   0  0  0  0  0  0  0  0  0  0  0  0
    7.2210   -0.4620   20.0350 C   0  0  0  0  0  0  0  0  0  0  0  0
    8.3642   -5.2691   26.8512 C   0  0  0  0  0  0  0  0  0  0  0  0
    8.9510    0.1280   21.6880 C   0  0  0  0  0  0  0  0  0  0  0  0
    7.9641   -7.7612   26.6648 C   0  0  0  0  0  0  0  0  0  0  0  0
   14.8664    0.0395   22.7716 C   0  0  0  0  0  0  0  0  0  0  0  0
   10.0220    1.0430   23.6570 C   0  0  0  0  0  0  0  0  0  0  0  0
    8.6980   -6.6505   27.3945 C   0  0  0  0  0  0  0  0  0  0  0  0
    9.4200   -0.0840   22.9530 C   0  0  1  0  0  0  0  0  0  0  0  0
   13.5967    2.0476   23.1851 N   0  0  0  0  0  0  0  0  0  0  0  0
    6.9440    0.2550   18.0100 N   0  0  0  0  0  0  0  0  0  0  0  0
   13.6181    0.7115   23.0422 N   0  0  0  0  0  0  0  0  0  0  0  0
    9.2630   -4.8903   25.8409 N   0  0  0  0  0  0  0  0  0  0  0  0
    8.0810   -0.9750   21.0820 N   0  0  0  0  0  0  0  0  0  0  0  0
    7.4190   -4.6135   27.2771 O   0  0  0  0  0  0  0  0  0  0  0  0
    9.1870    1.1500   21.0630 O   0  0  0  0  0  0  0  0  0  0  0  0
    3.6256    2.0106   21.6303 H   0  0  0  0  0  0  0  0  0  0  0  0
    3.2724    2.7868   19.3204 H   0  0  0  0  0  0  0  0  0  0  0  0
    5.4858    0.4664   22.1692 H   0  0  0  0  0  0  0  0  0  0  0  0
    7.5948   -0.7783   24.7966 H   0  0  0  0  0  0  0  0  0  0  0  0
   11.0389   -2.1844   22.6342 H   0  0  0  0  0  0  0  0  0  0  0  0
    4.7836    2.0664   17.4848 H   0  0  0  0  0  0  0  0  0  0  0  0
    7.5642   -2.8624   26.1050 H   0  0  0  0  0  0  0  0  0  0  0  0
   11.0137   -4.2649   23.9418 H   0  0  0  0  0  0  0  0  0  0  0  0
   12.0040    3.3322   23.5761 H   0  0  0  0  0  0  0  0  0  0  0  0
   12.2609   -0.9465   23.0878 H   0  0  0  0  0  0  0  0  0  0  0  0
    8.5274   -1.0858   18.3384 H   0  0  0  0  0  0  0  0  0  0  0  0
    6.8795   -7.6299   26.7375 H   0  0  0  0  0  0  0  0  0  0  0  0
    8.2203   -8.7342   27.0952 H   0  0  0  0  0  0  0  0  0  0  0  0
    8.2299   -7.7764   25.6026 H   0  0  0  0  0  0  0  0  0  0  0  0
   14.9942   -0.0107   21.6871 H   0  0  0  0  0  0  0  0  0  0  0  0
   15.6877    0.5992   23.2278 H   0  0  0  0  0  0  0  0  0  0  0  0
   14.8362   -0.9658   23.2010 H   0  0  0  0  0  0  0  0  0  0  0  0
    9.8253    0.9889   24.7357 H   0  0  0  0  0  0  0  0  0  0  0  0
    9.5635    1.9845   23.3241 H   0  0  0  0  0  0  0  0  0  0  0  0
    9.7792   -6.8069   27.3054 H   0  0  0  0  0  0  0  0  0  0  0  0
    8.4374   -6.6778   28.4588 H   0  0  0  0  0  0  0  0  0  0  0  0
    8.1288    0.3205   23.5156 H   0  0  0  0  0  0  0  0  0  0  0  0
    7.0325    0.4238   17.0175 H   0  0  0  0  0  0  0  0  0  0  0  0
    9.9928   -5.5773   25.6186 H   0  0  0  0  0  0  0  0  0  0  0  0
    8.1175   -1.8104   21.3538 H   0  0  0  0  0  0  0  0  0  0  0  0
  1  2  1  0  0  0  0
  1  3  2  0  0  0  0
  2  6  2  0  0  0  0
  3 12  1  0  0  0  0
  4  7  2  0  0  0  0
  4 13  1  0  0  0  0
  5  8  1  0  0  0  0
  5 13  2  0  0  0  0
  6 15  1  0  0  0  0
  7 16  1  0  0  0  0
  8 16  2  0  0  0  0
  9 14  1  0  0  0  0
  9 25  2  0  0  0  0
 10 14  2  0  0  0  0
 10 27  1  0  0  0  0
 11 17  2  0  0  0  0
 11 26  1  0  0  0  0
 12 15  2  0  0  0  0
 12 17  1  0  0  0  0
 13 24  1  0  0  0  0
 14 22  1  0  0  0  0
 15 26  1  0  0  0  0
 16 28  1  0  0  0  0
 17 29  1  0  0  0  0
 18 23  1  0  0  0  0
 18 28  1  0  0  0  0
 18 30  2  0  0  0  0
 19 24  1  0  0  0  0
 19 29  1  0  0  0  0
 19 31  2  0  0  0  0
 20 23  1  0  0  0  0
 21 27  1  0  0  0  0
 22 24  1  1  0  0  0
 25 27  1  0  0  0  0
  1 32  1  0  0  0  0
  2 33  1  0  0  0  0
  3 34  1  0  0  0  0
  4 35  1  0  0  0  0
  5 36  1  0  0  0  0
  6 37  1  0  0  0  0
  7 38  1  0  0  0  0
  8 39  1  0  0  0  0
  9 40  1  0  0  0  0
 10 41  1  0  0  0  0
 11 42  1  0  0  0  0
 20 43  1  0  0  0  0
 20 44  1  0  0  0  0
 20 45  1  0  0  0  0
 21 46  1  0  0  0  0
 21 47  1  0  0  0  0
 21 48  1  0  0  0  0
 22 49  1  0  0  0  0
 22 50  1  0  0  0  0
 23 51  1  0  0  0  0
 23 52  1  0  0  0  0
 24 53  1  0  0  0  0
 26 54  1  0  0  0  0
 28 55  1  0  0  0  0
 29 56  1  0  0  0  0
M  END
> <clash_score>
0.7805843719873787

> <docking_score>
-7.106179237365723

> <overlap_score>
1.0221469402313232

$$$$
BENZO_293_1
  -OEChem-08222022413D

 49 52  0     1  0  0  0  0  0999 V2000
   14.2623    1.3345   22.9975 C   0  0  0  0  0  0  0  0  0  0  0  0
    4.2970    1.6690   20.8430 C   0  0  0  0  0  0  0  0  0  0  0  0
   13.7729    0.5817   24.0649 C   0  0  0  0  0  0  0  0  0  0  0  0
   13.3767    1.9928   22.1442 C   0  0  0  0  0  0  0  0  0  0  0  0
    4.0980    2.1130   19.5350 C   0  0  0  0  0  0  0  0  0  0  0  0
    5.3360    0.8000   21.1530 C   0  0  0  0  0  0  0  0  0  0  0  0
   12.3978    0.4871   24.2790 C   0  0  0  0  0  0  0  0  0  0  0  0
   12.0016    1.8981   22.3583 C   0  0  0  0  0  0  0  0  0  0  0  0
    8.3310   -2.7170   25.3430 C   0  0  0  0  0  0  0  0  0  0  0  0
   10.2570   -3.5000   24.1350 C   0  0  0  0  0  0  0  0  0  0  0  0
    8.3510   -1.5420   24.6110 C   0  0  0  0  0  0  0  0  0  0  0  0
   10.2760   -2.3270   23.4020 C   0  0  0  0  0  0  0  0  0  0  0  0
    4.9400    1.7060   18.5060 C   0  0  0  0  0  0  0  0  0  0  0  0
    7.6830   -0.5170   18.7600 C   0  0  0  0  0  0  0  0  0  0  0  0
    6.1600    0.3870   20.1140 C   0  0  0  0  0  0  0  0  0  0  0  0
    9.2850   -3.7090   25.1090 C   0  0  0  0  0  0  0  0  0  0  0  0
   11.5121    1.1453   23.4257 C   0  0  0  0  0  0  0  0  0  0  0  0
    9.3300   -1.3350   23.6390 C   0  0  0  0  0  0  0  0  0  0  0  0
    5.9810    0.8330   18.8060 C   0  0  0  0  0  0  0  0  0  0  0  0
    7.2210   -0.4620   20.0350 C   0  0  0  0  0  0  0  0  0  0  0  0
    8.9510    0.1280   21.6880 C   0  0  0  0  0  0  0  0  0  0  0  0
    9.2618   -4.9724   25.8910 C   0  0  0  0  0  0  0  0  0  0  0  0
   10.0220    1.0430   23.6570 C   0  0  0  0  0  0  0  0  0  0  0  0
    9.4200   -0.0840   22.9530 C   0  0  1  0  0  0  0  0  0  0  0  0
    6.9440    0.2550   18.0100 N   0  0  0  0  0  0  0  0  0  0  0  0
    8.0810   -0.9750   21.0820 N   0  0  0  0  0  0  0  0  0  0  0  0
    9.1870    1.1500   21.0630 O   0  0  0  0  0  0  0  0  0  0  0  0
   15.3331    1.4092   22.8317 H   0  0  0  0  0  0  0  0  0  0  0  0
    3.6256    2.0106   21.6303 H   0  0  0  0  0  0  0  0  0  0  0  0
   14.4623    0.0700   24.7300 H   0  0  0  0  0  0  0  0  0  0  0  0
   13.7574    2.5799   21.3137 H   0  0  0  0  0  0  0  0  0  0  0  0
    3.2724    2.7868   19.3204 H   0  0  0  0  0  0  0  0  0  0  0  0
    5.4858    0.4664   22.1692 H   0  0  0  0  0  0  0  0  0  0  0  0
   12.0255   -0.1019   25.1131 H   0  0  0  0  0  0  0  0  0  0  0  0
   11.3191    2.4143   21.6883 H   0  0  0  0  0  0  0  0  0  0  0  0
    7.5655   -2.8644   26.1055 H   0  0  0  0  0  0  0  0  0  0  0  0
   11.0125   -4.2662   23.9435 H   0  0  0  0  0  0  0  0  0  0  0  0
    7.5953   -0.7782   24.7971 H   0  0  0  0  0  0  0  0  0  0  0  0
   11.0394   -2.1837   22.6349 H   0  0  0  0  0  0  0  0  0  0  0  0
    4.7836    2.0664   17.4848 H   0  0  0  0  0  0  0  0  0  0  0  0
    8.5274   -1.0858   18.3384 H   0  0  0  0  0  0  0  0  0  0  0  0
    8.6408   -5.7227   25.3864 H   0  0  0  0  0  0  0  0  0  0  0  0
   10.2726   -5.3829   26.0135 H   0  0  0  0  0  0  0  0  0  0  0  0
    8.8606   -4.8102   26.9000 H   0  0  0  0  0  0  0  0  0  0  0  0
    9.8253    0.9889   24.7357 H   0  0  0  0  0  0  0  0  0  0  0  0
    9.5635    1.9845   23.3241 H   0  0  0  0  0  0  0  0  0  0  0  0
    8.1288    0.3205   23.5156 H   0  0  0  0  0  0  0  0  0  0  0  0
    7.0325    0.4238   17.0175 H   0  0  0  0  0  0  0  0  0  0  0  0
    8.1175   -1.8104   21.3538 H   0  0  0  0  0  0  0  0  0  0  0  0
  1  3  1  0  0  0  0
  1  4  2  0  0  0  0
  2  5  1  0  0  0  0
  2  6  2  0  0  0  0
  3  7  2  0  0  0  0
  4  8  1  0  0  0  0
  5 13  2  0  0  0  0
  6 15  1  0  0  0  0
  7 17  1  0  0  0  0
  8 17  2  0  0  0  0
  9 11  2  0  0  0  0
  9 16  1  0  0  0  0
 10 12  1  0  0  0  0
 10 16  2  0  0  0  0
 11 18  1  0  0  0  0
 12 18  2  0  0  0  0
 13 19  1  0  0  0  0
 14 20  2  0  0  0  0
 14 25  1  0  0  0  0
 15 19  2  0  0  0  0
 15 20  1  0  0  0  0
 16 22  1  0  0  0  0
 17 23  1  0  0  0  0
 18 24  1  0  0  0  0
 19 25  1  0  0  0  0
 20 26  1  0  0  0  0
 21 24  1  0  0  0  0
 21 26  1  0  0  0  0
 21 27  2  0  0  0  0
 23 24  1  1  0  0  0
  1 28  1  0  0  0  0
  2 29  1  0  0  0  0
  3 30  1  0  0  0  0
  4 31  1  0  0  0  0
  5 32  1  0  0  0  0
  6 33  1  0  0  0  0
  7 34  1  0  0  0  0
  8 35  1  0  0  0  0
  9 36  1  0  0  0  0
 10 37  1  0  0  0  0
 11 38  1  0  0  0  0
 12 39  1  0  0  0  0
 13 40  1  0  0  0  0
 14 41  1  0  0  0  0
 22 42  1  0  0  0  0
 22 43  1  0  0  0  0
 22 44  1  0  0  0  0
 23 45  1  0  0  0  0
 23 46  1  0  0  0  0
 24 47  1  0  0  0  0
 25 48  1  0  0  0  0
 26 49  1  0  0  0  0
M  END
> <clash_score>
0

> <docking_score>
-8.174931526184082

> <overlap_score>
0.9820052981376648

$$$$
BENZO_292_1
  -OEChem-08222022413D

 46 49  0     1  0  0  0  0  0999 V2000
    4.2970    1.6690   20.8430 C   0  0  0  0  0  0  0  0  0  0  0  0
    4.0980    2.1130   19.5350 C   0  0  0  0  0  0  0  0  0  0  0  0
    5.3360    0.8000   21.1530 C   0  0  0  0  0  0  0  0  0  0  0  0
    8.3310   -2.7170   25.3430 C   0  0  0  0  0  0  0  0  0  0  0  0
   10.2570   -3.5000   24.1350 C   0  0  0  0  0  0  0  0  0  0  0  0
    8.3510   -1.5420   24.6110 C   0  0  0  0  0  0  0  0  0  0  0  0
   10.2760   -2.3270   23.4020 C   0  0  0  0  0  0  0  0  0  0  0  0
    4.9400    1.7060   18.5060 C   0  0  0  0  0  0  0  0  0  0  0  0
   12.2216    2.3786   23.3498 C   0  0  0  0  0  0  0  0  0  0  0  0
    7.6830   -0.5170   18.7600 C   0  0  0  0  0  0  0  0  0  0  0  0
   13.5684    2.1883   23.1319 C   0  0  0  0  0  0  0  0  0  0  0  0
   12.3438    0.0592   23.2626 C   0  0  0  0  0  0  0  0  0  0  0  0
    6.1600    0.3870   20.1140 C   0  0  0  0  0  0  0  0  0  0  0  0
    9.2850   -3.7090   25.1090 C   0  0  0  0  0  0  0  0  0  0  0  0
    9.3300   -1.3350   23.6390 C   0  0  0  0  0  0  0  0  0  0  0  0
   11.5121    1.1453   23.4257 C   0  0  0  0  0  0  0  0  0  0  0  0
    5.9810    0.8330   18.8060 C   0  0  0  0  0  0  0  0  0  0  0  0
    7.2210   -0.4620   20.0350 C   0  0  0  0  0  0  0  0  0  0  0  0
    8.9510    0.1280   21.6880 C   0  0  0  0  0  0  0  0  0  0  0  0
    9.2618   -4.9724   25.8910 C   0  0  0  0  0  0  0  0  0  0  0  0
   10.0220    1.0430   23.6570 C   0  0  0  0  0  0  0  0  0  0  0  0
    9.4200   -0.0840   22.9530 C   0  0  1  0  0  0  0  0  0  0  0  0
    6.9440    0.2550   18.0100 N   0  0  0  0  0  0  0  0  0  0  0  0
    8.0810   -0.9750   21.0820 N   0  0  0  0  0  0  0  0  0  0  0  0
    9.1870    1.1500   21.0630 O   0  0  0  0  0  0  0  0  0  0  0  0
   13.9727    0.5281   23.0196 S   0  0  0  0  0  0  0  0  0  0  0  0
    3.6256    2.0106   21.6303 H   0  0  0  0  0  0  0  0  0  0  0  0
    3.2724    2.7868   19.3204 H   0  0  0  0  0  0  0  0  0  0  0  0
    5.4858    0.4664   22.1692 H   0  0  0  0  0  0  0  0  0  0  0  0
    7.5655   -2.8644   26.1055 H   0  0  0  0  0  0  0  0  0  0  0  0
   11.0125   -4.2662   23.9435 H   0  0  0  0  0  0  0  0  0  0  0  0
    7.5953   -0.7782   24.7971 H   0  0  0  0  0  0  0  0  0  0  0  0
   11.0394   -2.1837   22.6349 H   0  0  0  0  0  0  0  0  0  0  0  0
    4.7836    2.0664   17.4848 H   0  0  0  0  0  0  0  0  0  0  0  0
   11.7708    3.3580   23.4491 H   0  0  0  0  0  0  0  0  0  0  0  0
    8.5274   -1.0858   18.3384 H   0  0  0  0  0  0  0  0  0  0  0  0
   14.3341    2.9446   23.0326 H   0  0  0  0  0  0  0  0  0  0  0  0
   12.0768   -0.9885   23.2727 H   0  0  0  0  0  0  0  0  0  0  0  0
    8.6408   -5.7227   25.3864 H   0  0  0  0  0  0  0  0  0  0  0  0
   10.2726   -5.3829   26.0135 H   0  0  0  0  0  0  0  0  0  0  0  0
    8.8606   -4.8102   26.9000 H   0  0  0  0  0  0  0  0  0  0  0  0
    9.8253    0.9889   24.7357 H   0  0  0  0  0  0  0  0  0  0  0  0
    9.5635    1.9845   23.3241 H   0  0  0  0  0  0  0  0  0  0  0  0
    8.1288    0.3205   23.5156 H   0  0  0  0  0  0  0  0  0  0  0  0
    7.0325    0.4238   17.0175 H   0  0  0  0  0  0  0  0  0  0  0  0
    8.1175   -1.8104   21.3538 H   0  0  0  0  0  0  0  0  0  0  0  0
  1  2  1  0  0  0  0
  1  3  2  0  0  0  0
  2  8  2  0  0  0  0
  3 13  1  0  0  0  0
  4  6  2  0  0  0  0
  4 14  1  0  0  0  0
  5  7  1  0  0  0  0
  5 14  2  0  0  0  0
  6 15  1  0  0  0  0
  7 15  2  0  0  0  0
  8 17  1  0  0  0  0
  9 11  2  0  0  0  0
  9 16  1  0  0  0  0
 10 18  2  0  0  0  0
 10 23  1  0  0  0  0
 11 26  1  0  0  0  0
 12 16  2  0  0  0  0
 12 26  1  0  0  0  0
 13 17  2  0  0  0  0
 13 18  1  0  0  0  0
 14 20  1  0  0  0  0
 15 22  1  0  0  0  0
 16 21  1  0  0  0  0
 17 23  1  0  0  0  0
 18 24  1  0  0  0  0
 19 22  1  0  0  0  0
 19 24  1  0  0  0  0
 19 25  2  0  0  0  0
 21 22  1  1  0  0  0
  1 27  1  0  0  0  0
  2 28  1  0  0  0  0
  3 29  1  0  0  0  0
  4 30  1  0  0  0  0
  5 31  1  0  0  0  0
  6 32  1  0  0  0  0
  7 33  1  0  0  0  0
  8 34  1  0  0  0  0
  9 35  1  0  0  0  0
 10 36  1  0  0  0  0
 11 37  1  0  0  0  0
 12 38  1  0  0  0  0
 20 39  1  0  0  0  0
 20 40  1  0  0  0  0
 20 41  1  0  0  0  0
 21 42  1  0  0  0  0
 21 43  1  0  0  0  0
 22 44  1  0  0  0  0
 23 45  1  0  0  0  0
 24 46  1  0  0  0  0
M  END
> <clash_score>
0

> <docking_score>
-9.07117748260498

> <overlap_score>
0.969305157661438

$$$$
BENZO_292_2
  -OEChem-08222022413D

 46 49  0     1  0  0  0  0  0999 V2000
    4.2970    1.6690   20.8430 C   0  0  0  0  0  0  0  0  0  0  0  0
    4.0980    2.1130   19.5350 C   0  0  0  0  0  0  0  0  0  0  0  0
    5.3360    0.8000   21.1530 C   0  0  0  0  0  0  0  0  0  0  0  0
    8.3310   -2.7170   25.3430 C   0  0  0  0  0  0  0  0  0  0  0  0
   10.2570   -3.5000   24.1350 C   0  0  0  0  0  0  0  0  0  0  0  0
    8.3510   -1.5420   24.6110 C   0  0  0  0  0  0  0  0  0  0  0  0
   10.2760   -2.3270   23.4020 C   0  0  0  0  0  0  0  0  0  0  0  0
    4.9400    1.7060   18.5060 C   0  0  0  0  0  0  0  0  0  0  0  0
   12.2093   -0.1809   24.3161 C   0  0  0  0  0  0  0  0  0  0  0  0
    7.6830   -0.5170   18.7600 C   0  0  0  0  0  0  0  0  0  0  0  0
   13.0091   -0.4299   25.4096 C   0  0  0  0  0  0  0  0  0  0  0  0
   11.0505    0.9396   25.9906 C   0  0  0  0  0  0  0  0  0  0  0  0
    6.1600    0.3870   20.1140 C   0  0  0  0  0  0  0  0  0  0  0  0
    9.2850   -3.7090   25.1090 C   0  0  0  0  0  0  0  0  0  0  0  0
    9.3300   -1.3350   23.6390 C   0  0  0  0  0  0  0  0  0  0  0  0
   11.0747    0.6126   24.6525 C   0  0  0  0  0  0  0  0  0  0  0  0
    5.9810    0.8330   18.8060 C   0  0  0  0  0  0  0  0  0  0  0  0
    7.2210   -0.4620   20.0350 C   0  0  0  0  0  0  0  0  0  0  0  0
    8.9510    0.1280   21.6880 C   0  0  0  0  0  0  0  0  0  0  0  0
    9.2618   -4.9724   25.8910 C   0  0  0  0  0  0  0  0  0  0  0  0
   10.0220    1.0430   23.6570 C   0  0  0  0  0  0  0  0  0  0  0  0
    9.4200   -0.0840   22.9530 C   0  0  2  0  0  0  0  0  0  0  0  0
    6.9440    0.2550   18.0100 N   0  0  0  0  0  0  0  0  0  0  0  0
    8.0810   -0.9750   21.0820 N   0  0  0  0  0  0  0  0  0  0  0  0
    9.1870    1.1500   21.0630 O   0  0  0  0  0  0  0  0  0  0  0  0
   12.3919    0.2913   26.8348 S   0  0  0  0  0  0  0  0  0  0  0  0
    3.6256    2.0106   21.6303 H   0  0  0  0  0  0  0  0  0  0  0  0
    3.2724    2.7868   19.3204 H   0  0  0  0  0  0  0  0  0  0  0  0
    5.4858    0.4664   22.1692 H   0  0  0  0  0  0  0  0  0  0  0  0
    7.5655   -2.8644   26.1055 H   0  0  0  0  0  0  0  0  0  0  0  0
   11.0125   -4.2662   23.9435 H   0  0  0  0  0  0  0  0  0  0  0  0
    7.5953   -0.7782   24.7971 H   0  0  0  0  0  0  0  0  0  0  0  0
   11.0394   -2.1837   22.6349 H   0  0  0  0  0  0  0  0  0  0  0  0
    4.7836    2.0664   17.4848 H   0  0  0  0  0  0  0  0  0  0  0  0
   12.4311   -0.5526   23.3237 H   0  0  0  0  0  0  0  0  0  0  0  0
    8.5274   -1.0858   18.3384 H   0  0  0  0  0  0  0  0  0  0  0  0
   13.9260   -1.0015   25.4400 H   0  0  0  0  0  0  0  0  0  0  0  0
   10.3108    1.5269   26.5170 H   0  0  0  0  0  0  0  0  0  0  0  0
    8.6408   -5.7227   25.3864 H   0  0  0  0  0  0  0  0  0  0  0  0
   10.2726   -5.3829   26.0135 H   0  0  0  0  0  0  0  0  0  0  0  0
    8.8606   -4.8102   26.9000 H   0  0  0  0  0  0  0  0  0  0  0  0
    9.2602    1.6432   24.1714 H   0  0  0  0  0  0  0  0  0  0  0  0
   10.4960    1.7269   22.9392 H   0  0  0  0  0  0  0  0  0  0  0  0
   10.7346   -0.4307   22.4468 H   0  0  0  0  0  0  0  0  0  0  0  0
    7.0325    0.4238   17.0175 H   0  0  0  0  0  0  0  0  0  0  0  0
    8.1175   -1.8104   21.3538 H   0  0  0  0  0  0  0  0  0  0  0  0
  1  2  1  0  0  0  0
  1  3  2  0  0  0  0
  2  8  2  0  0  0  0
  3 13  1  0  0  0  0
  4  6  2  0  0  0  0
  4 14  1  0  0  0  0
  5  7  1  0  0  0  0
  5 14  2  0  0  0  0
  6 15  1  0  0  0  0
  7 15  2  0  0  0  0
  8 17  1  0  0  0  0
  9 11  2  0  0  0  0
  9 16  1  0  0  0  0
 10 18  2  0  0  0  0
 10 23  1  0  0  0  0
 11 26  1  0  0  0  0
 12 16  2  0  0  0  0
 12 26  1  0  0  0  0
 13 17  2  0  0  0  0
 13 18  1  0  0  0  0
 14 20  1  0  0  0  0
 15 22  1  0  0  0  0
 16 21  1  0  0  0  0
 17 23  1  0  0  0  0
 18 24  1  0  0  0  0
 19 22  1  0  0  0  0
 19 24  1  0  0  0  0
 19 25  2  0  0  0  0
 21 22  1  6  0  0  0
  1 27  1  0  0  0  0
  2 28  1  0  0  0  0
  3 29  1  0  0  0  0
  4 30  1  0  0  0  0
  5 31  1  0  0  0  0
  6 32  1  0  0  0  0
  7 33  1  0  0  0  0
  8 34  1  0  0  0  0
  9 35  1  0  0  0  0
 10 36  1  0  0  0  0
 11 37  1  0  0  0  0
 12 38  1  0  0  0  0
 20 39  1  0  0  0  0
 20 40  1  0  0  0  0
 20 41  1  0  0  0  0
 21 42  1  0  0  0  0
 21 43  1  0  0  0  0
 22 44  1  0  0  0  0
 23 45  1  0  0  0  0
 24 46  1  0  0  0  0
M  END
> <clash_score>
0.6203230406047402

> <docking_score>
-6.226046562194824

> <overlap_score>
0.8551724553108215

$$$$
BENZO_293_2
  -OEChem-08222022413D

 49 52  0     1  0  0  0  0  0999 V2000
   13.8295    0.0638   25.4018 C   0  0  0  0  0  0  0  0  0  0  0  0
    4.2970    1.6690   20.8430 C   0  0  0  0  0  0  0  0  0  0  0  0
   12.6583   -0.1175   26.1373 C   0  0  0  0  0  0  0  0  0  0  0  0
   13.7659    0.5627   24.1007 C   0  0  0  0  0  0  0  0  0  0  0  0
    4.0980    2.1130   19.5350 C   0  0  0  0  0  0  0  0  0  0  0  0
    5.3360    0.8000   21.1530 C   0  0  0  0  0  0  0  0  0  0  0  0
   11.4234    0.2001   25.5717 C   0  0  0  0  0  0  0  0  0  0  0  0
   12.5310    0.8802   23.5351 C   0  0  0  0  0  0  0  0  0  0  0  0
    8.3310   -2.7170   25.3430 C   0  0  0  0  0  0  0  0  0  0  0  0
   10.2570   -3.5000   24.1350 C   0  0  0  0  0  0  0  0  0  0  0  0
    8.3510   -1.5420   24.6110 C   0  0  0  0  0  0  0  0  0  0  0  0
   10.2760   -2.3270   23.4020 C   0  0  0  0  0  0  0  0  0  0  0  0
    4.9400    1.7060   18.5060 C   0  0  0  0  0  0  0  0  0  0  0  0
    7.6830   -0.5170   18.7600 C   0  0  0  0  0  0  0  0  0  0  0  0
    6.1600    0.3870   20.1140 C   0  0  0  0  0  0  0  0  0  0  0  0
    9.2850   -3.7090   25.1090 C   0  0  0  0  0  0  0  0  0  0  0  0
   11.3598    0.6989   24.2706 C   0  0  0  0  0  0  0  0  0  0  0  0
    9.3300   -1.3350   23.6390 C   0  0  0  0  0  0  0  0  0  0  0  0
    5.9810    0.8330   18.8060 C   0  0  0  0  0  0  0  0  0  0  0  0
    7.2210   -0.4620   20.0350 C   0  0  0  0  0  0  0  0  0  0  0  0
    8.9510    0.1280   21.6880 C   0  0  0  0  0  0  0  0  0  0  0  0
    9.2618   -4.9724   25.8910 C   0  0  0  0  0  0  0  0  0  0  0  0
   10.0220    1.0430   23.6570 C   0  0  0  0  0  0  0  0  0  0  0  0
    9.4200   -0.0840   22.9530 C   0  0  2  0  0  0  0  0  0  0  0  0
    6.9440    0.2550   18.0100 N   0  0  0  0  0  0  0  0  0  0  0  0
    8.0810   -0.9750   21.0820 N   0  0  0  0  0  0  0  0  0  0  0  0
    9.1870    1.1500   21.0630 O   0  0  0  0  0  0  0  0  0  0  0  0
   14.7910   -0.1822   25.8428 H   0  0  0  0  0  0  0  0  0  0  0  0
    3.6256    2.0106   21.6303 H   0  0  0  0  0  0  0  0  0  0  0  0
   12.7077   -0.5049   27.1507 H   0  0  0  0  0  0  0  0  0  0  0  0
   14.6777    0.7050   23.5282 H   0  0  0  0  0  0  0  0  0  0  0  0
    3.2724    2.7868   19.3204 H   0  0  0  0  0  0  0  0  0  0  0  0
    5.4858    0.4664   22.1692 H   0  0  0  0  0  0  0  0  0  0  0  0
   10.5160    0.0554   26.1521 H   0  0  0  0  0  0  0  0  0  0  0  0
   12.4911    1.2683   22.5207 H   0  0  0  0  0  0  0  0  0  0  0  0
    7.5655   -2.8644   26.1055 H   0  0  0  0  0  0  0  0  0  0  0  0
   11.0125   -4.2662   23.9435 H   0  0  0  0  0  0  0  0  0  0  0  0
    7.5953   -0.7782   24.7971 H   0  0  0  0  0  0  0  0  0  0  0  0
   11.0394   -2.1837   22.6349 H   0  0  0  0  0  0  0  0  0  0  0  0
    4.7836    2.0664   17.4848 H   0  0  0  0  0  0  0  0  0  0  0  0
    8.5274   -1.0858   18.3384 H   0  0  0  0  0  0  0  0  0  0  0  0
    8.6408   -5.7227   25.3864 H   0  0  0  0  0  0  0  0  0  0  0  0
   10.2726   -5.3829   26.0135 H   0  0  0  0  0  0  0  0  0  0  0  0
    8.8606   -4.8102   26.9000 H   0  0  0  0  0  0  0  0  0  0  0  0
    9.3529    1.4272   24.4380 H   0  0  0  0  0  0  0  0  0  0  0  0
   10.1743    1.8827   22.9648 H   0  0  0  0  0  0  0  0  0  0  0  0
   10.7346   -0.4307   22.4468 H   0  0  0  0  0  0  0  0  0  0  0  0
    7.0325    0.4238   17.0175 H   0  0  0  0  0  0  0  0  0  0  0  0
    8.1175   -1.8104   21.3538 H   0  0  0  0  0  0  0  0  0  0  0  0
  1  3  1  0  0  0  0
  1  4  2  0  0  0  0
  2  5  1  0  0  0  0
  2  6  2  0  0  0  0
  3  7  2  0  0  0  0
  4  8  1  0  0  0  0
  5 13  2  0  0  0  0
  6 15  1  0  0  0  0
  7 17  1  0  0  0  0
  8 17  2  0  0  0  0
  9 11  2  0  0  0  0
  9 16  1  0  0  0  0
 10 12  1  0  0  0  0
 10 16  2  0  0  0  0
 11 18  1  0  0  0  0
 12 18  2  0  0  0  0
 13 19  1  0  0  0  0
 14 20  2  0  0  0  0
 14 25  1  0  0  0  0
 15 19  2  0  0  0  0
 15 20  1  0  0  0  0
 16 22  1  0  0  0  0
 17 23  1  0  0  0  0
 18 24  1  0  0  0  0
 19 25  1  0  0  0  0
 20 26  1  0  0  0  0
 21 24  1  0  0  0  0
 21 26  1  0  0  0  0
 21 27  2  0  0  0  0
 23 24  1  6  0  0  0
  1 28  1  0  0  0  0
  2 29  1  0  0  0  0
  3 30  1  0  0  0  0
  4 31  1  0  0  0  0
  5 32  1  0  0  0  0
  6 33  1  0  0  0  0
  7 34  1  0  0  0  0
  8 35  1  0  0  0  0
  9 36  1  0  0  0  0
 10 37  1  0  0  0  0
 11 38  1  0  0  0  0
 12 39  1  0  0  0  0
 13 40  1  0  0  0  0
 14 41  1  0  0  0  0
 22 42  1  0  0  0  0
 22 43  1  0  0  0  0
 22 44  1  0  0  0  0
 23 45  1  0  0  0  0
 23 46  1  0  0  0  0
 24 47  1  0  0  0  0
 25 48  1  0  0  0  0
 26 49  1  0  0  0  0
M  END
> <clash_score>
0.6066495913934196

> <docking_score>
-7.2374067306518555

> <overlap_score>
0.9039358496665955

$$$$
BENZO_290_1
  -OEChem-08222022413D

 61 65  0     1  0  0  0  0  0999 V2000
    4.2970    1.6690   20.8430 C   0  0  0  0  0  0  0  0  0  0  0  0
    4.0980    2.1130   19.5350 C   0  0  0  0  0  0  0  0  0  0  0  0
   13.7706    0.6102   24.1095 C   0  0  0  0  0  0  0  0  0  0  0  0
    5.3360    0.8000   21.1530 C   0  0  0  0  0  0  0  0  0  0  0  0
   12.5330    0.9096   23.5401 C   0  0  0  0  0  0  0  0  0  0  0  0
    8.3510   -1.5420   24.6110 C   0  0  0  0  0  0  0  0  0  0  0  0
   10.2760   -2.3270   23.4020 C   0  0  0  0  0  0  0  0  0  0  0  0
    4.9400    1.7060   18.5060 C   0  0  0  0  0  0  0  0  0  0  0  0
    8.3310   -2.7170   25.3430 C   0  0  0  0  0  0  0  0  0  0  0  0
   10.2570   -3.5000   24.1350 C   0  0  0  0  0  0  0  0  0  0  0  0
   13.8379    0.1183   25.4130 C   0  0  0  0  0  0  0  0  0  0  0  0
   11.4299    0.2253   25.5778 C   0  0  0  0  0  0  0  0  0  0  0  0
    7.6830   -0.5170   18.7600 C   0  0  0  0  0  0  0  0  0  0  0  0
    6.1600    0.3870   20.1140 C   0  0  0  0  0  0  0  0  0  0  0  0
    9.3300   -1.3350   23.6390 C   0  0  0  0  0  0  0  0  0  0  0  0
   11.3626    0.7172   24.2742 C   0  0  0  0  0  0  0  0  0  0  0  0
    5.9810    0.8330   18.8060 C   0  0  0  0  0  0  0  0  0  0  0  0
    9.2850   -3.7090   25.1090 C   0  0  0  0  0  0  0  0  0  0  0  0
    7.2210   -0.4620   20.0350 C   0  0  0  0  0  0  0  0  0  0  0  0
   12.6676   -0.0742   26.1471 C   0  0  0  0  0  0  0  0  0  0  0  0
    8.9510    0.1280   21.6880 C   0  0  0  0  0  0  0  0  0  0  0  0
    7.3211   -6.8875   26.5227 C   0  0  0  0  0  0  0  0  0  0  0  0
    7.3523   -5.5278   27.2244 C   0  0  0  0  0  0  0  0  0  0  0  0
    7.9422   -6.8107   25.1261 C   0  0  0  0  0  0  0  0  0  0  0  0
    8.7641   -4.9418   27.2163 C   0  0  0  0  0  0  0  0  0  0  0  0
    9.3411   -6.1879   25.1670 C   0  0  0  0  0  0  0  0  0  0  0  0
   10.0220    1.0430   23.6570 C   0  0  0  0  0  0  0  0  0  0  0  0
    9.4200   -0.0840   22.9530 C   0  0  1  0  0  0  0  0  0  0  0  0
    6.9440    0.2550   18.0100 N   0  0  0  0  0  0  0  0  0  0  0  0
    9.2641   -4.8861   25.8398 N   0  0  0  0  0  0  0  0  0  0  0  0
    8.0810   -0.9750   21.0820 N   0  0  0  0  0  0  0  0  0  0  0  0
    9.1870    1.1500   21.0630 O   0  0  0  0  0  0  0  0  0  0  0  0
   12.7514   -0.6800   27.7558 Cl  0  0  0  0  0  0  0  0  0  0  0  0
    3.6256    2.0106   21.6303 H   0  0  0  0  0  0  0  0  0  0  0  0
    3.2724    2.7868   19.3204 H   0  0  0  0  0  0  0  0  0  0  0  0
   14.6817    0.7603   23.5375 H   0  0  0  0  0  0  0  0  0  0  0  0
    5.4858    0.4664   22.1692 H   0  0  0  0  0  0  0  0  0  0  0  0
   12.4900    1.2926   22.5238 H   0  0  0  0  0  0  0  0  0  0  0  0
    7.5957   -0.7779   24.7973 H   0  0  0  0  0  0  0  0  0  0  0  0
   11.0384   -2.1852   22.6338 H   0  0  0  0  0  0  0  0  0  0  0  0
    4.7836    2.0664   17.4848 H   0  0  0  0  0  0  0  0  0  0  0  0
    7.5634   -2.8637   26.1037 H   0  0  0  0  0  0  0  0  0  0  0  0
   11.0139   -4.2645   23.9419 H   0  0  0  0  0  0  0  0  0  0  0  0
   14.8095   -0.1105   25.8440 H   0  0  0  0  0  0  0  0  0  0  0  0
   10.5146    0.0765   26.1458 H   0  0  0  0  0  0  0  0  0  0  0  0
    8.5274   -1.0858   18.3384 H   0  0  0  0  0  0  0  0  0  0  0  0
    7.8644   -7.6283   27.1289 H   0  0  0  0  0  0  0  0  0  0  0  0
    6.2830   -7.2423   26.4478 H   0  0  0  0  0  0  0  0  0  0  0  0
    6.6663   -4.8405   26.7221 H   0  0  0  0  0  0  0  0  0  0  0  0
    7.0062   -5.6400   28.2540 H   0  0  0  0  0  0  0  0  0  0  0  0
    8.0018   -7.8160   24.6962 H   0  0  0  0  0  0  0  0  0  0  0  0
    7.2963   -6.2182   24.4678 H   0  0  0  0  0  0  0  0  0  0  0  0
    8.7322   -3.9404   27.6532 H   0  0  0  0  0  0  0  0  0  0  0  0
    9.4260   -5.5610   27.8283 H   0  0  0  0  0  0  0  0  0  0  0  0
   10.0249   -6.8474   25.7028 H   0  0  0  0  0  0  0  0  0  0  0  0
    9.7015   -6.0700   24.1446 H   0  0  0  0  0  0  0  0  0  0  0  0
    9.3482    1.4259   24.4346 H   0  0  0  0  0  0  0  0  0  0  0  0
   10.1663    1.8792   22.9588 H   0  0  0  0  0  0  0  0  0  0  0  0
   10.7366   -0.4277   22.4442 H   0  0  0  0  0  0  0  0  0  0  0  0
    7.0325    0.4238   17.0175 H   0  0  0  0  0  0  0  0  0  0  0  0
    8.1354   -1.7990   21.3694 H   0  0  0  0  0  0  0  0  0  0  0  0
  1  2  1  0  0  0  0
  1  4  2  0  0  0  0
  2  8  2  0  0  0  0
  3  5  2  0  0  0  0
  3 11  1  0  0  0  0
  4 14  1  0  0  0  0
  5 16  1  0  0  0  0
  6  9  2  0  0  0  0
  6 15  1  0  0  0  0
  7 10  1  0  0  0  0
  7 15  2  0  0  0  0
  8 17  1  0  0  0  0
  9 18  1  0  0  0  0
 10 18  2  0  0  0  0
 11 20  2  0  0  0  0
 12 16  2  0  0  0  0
 12 20  1  0  0  0  0
 13 19  2  0  0  0  0
 13 29  1  0  0  0  0
 14 17  2  0  0  0  0
 14 19  1  0  0  0  0
 15 28  1  0  0  0  0
 16 27  1  0  0  0  0
 17 29  1  0  0  0  0
 18 30  1  0  0  0  0
 19 31  1  0  0  0  0
 20 33  1  0  0  0  0
 21 28  1  1  0  0  0
 21 31  1  0  0  0  0
 21 32  2  0  0  0  0
 22 23  1  0  0  0  0
 22 24  1  0  0  0  0
 23 25  1  0  0  0  0
 24 26  1  0  0  0  0
 25 30  1  0  0  0  0
 26 30  1  0  0  0  0
 27 28  1  0  0  0  0
  1 34  1  0  0  0  0
  2 35  1  0  0  0  0
  3 36  1  0  0  0  0
  4 37  1  0  0  0  0
  5 38  1  0  0  0  0
  6 39  1  0  0  0  0
  7 40  1  0  0  0  0
  8 41  1  0  0  0  0
  9 42  1  0  0  0  0
 10 43  1  0  0  0  0
 11 44  1  0  0  0  0
 12 45  1  0  0  0  0
 13 46  1  0  0  0  0
 22 47  1  0  0  0  0
 22 48  1  0  0  0  0
 23 49  1  0  0  0  0
 23 50  1  0  0  0  0
 24 51  1  0  0  0  0
 24 52  1  0  0  0  0
 25 53  1  0  0  0  0
 25 54  1  0  0  0  0
 26 55  1  0  0  0  0
 26 56  1  0  0  0  0
 27 57  1  0  0  0  0
 27 58  1  0  0  0  0
 28 59  1  0  0  0  0
 29 60  1  0  0  0  0
 31 61  1  0  0  0  0
M  END
> <clash_score>
1.5650085706569739

> <docking_score>
-5.3450446128845215

> <overlap_score>
0.9471225738525391

$$$$
BENZO_291_2
  -OEChem-08222022413D

 61 65  0     1  0  0  0  0  0999 V2000
    4.2970    1.6690   20.8430 C   0  0  0  0  0  0  0  0  0  0  0  0
    4.0980    2.1130   19.5350 C   0  0  0  0  0  0  0  0  0  0  0  0
    5.3360    0.8000   21.1530 C   0  0  0  0  0  0  0  0  0  0  0  0
    8.3510   -1.5420   24.6110 C   0  0  0  0  0  0  0  0  0  0  0  0
   10.2760   -2.3270   23.4020 C   0  0  0  0  0  0  0  0  0  0  0  0
    4.9400    1.7060   18.5060 C   0  0  0  0  0  0  0  0  0  0  0  0
    8.3310   -2.7170   25.3430 C   0  0  0  0  0  0  0  0  0  0  0  0
   10.2570   -3.5000   24.1350 C   0  0  0  0  0  0  0  0  0  0  0  0
   12.6370    0.8478   23.6905 C   0  0  0  0  0  0  0  0  0  0  0  0
   11.6104    0.2289   25.5338 C   0  0  0  0  0  0  0  0  0  0  0  0
    7.6830   -0.5170   18.7600 C   0  0  0  0  0  0  0  0  0  0  0  0
    6.1600    0.3870   20.1140 C   0  0  0  0  0  0  0  0  0  0  0  0
    9.3300   -1.3350   23.6390 C   0  0  0  0  0  0  0  0  0  0  0  0
   11.3626    0.7172   24.2742 C   0  0  0  0  0  0  0  0  0  0  0  0
    5.9810    0.8330   18.8060 C   0  0  0  0  0  0  0  0  0  0  0  0
    9.2850   -3.7090   25.1090 C   0  0  0  0  0  0  0  0  0  0  0  0
    7.2210   -0.4620   20.0350 C   0  0  0  0  0  0  0  0  0  0  0  0
    8.9510    0.1280   21.6880 C   0  0  0  0  0  0  0  0  0  0  0  0
    7.3211   -6.8875   26.5227 C   0  0  0  0  0  0  0  0  0  0  0  0
    7.3523   -5.5278   27.2244 C   0  0  0  0  0  0  0  0  0  0  0  0
    7.9422   -6.8107   25.1261 C   0  0  0  0  0  0  0  0  0  0  0  0
    8.7641   -4.9418   27.2163 C   0  0  0  0  0  0  0  0  0  0  0  0
    9.3411   -6.1879   25.1670 C   0  0  0  0  0  0  0  0  0  0  0  0
   13.7059   -0.3763   26.7673 C   0  0  0  0  0  0  0  0  0  0  0  0
   10.0220    1.0430   23.6570 C   0  0  0  0  0  0  0  0  0  0  0  0
    9.4200   -0.0840   22.9530 C   0  0  2  0  0  0  0  0  0  0  0  0
   13.6213    0.4729   24.5118 N   0  0  0  0  0  0  0  0  0  0  0  0
    6.9440    0.2550   18.0100 N   0  0  0  0  0  0  0  0  0  0  0  0
   12.9653    0.1020   25.6246 N   0  0  0  0  0  0  0  0  0  0  0  0
    9.2641   -4.8861   25.8398 N   0  0  0  0  0  0  0  0  0  0  0  0
    8.0810   -0.9750   21.0820 N   0  0  0  0  0  0  0  0  0  0  0  0
    9.1870    1.1500   21.0630 O   0  0  0  0  0  0  0  0  0  0  0  0
    3.6256    2.0106   21.6303 H   0  0  0  0  0  0  0  0  0  0  0  0
    3.2724    2.7868   19.3204 H   0  0  0  0  0  0  0  0  0  0  0  0
    5.4858    0.4664   22.1692 H   0  0  0  0  0  0  0  0  0  0  0  0
    7.5957   -0.7779   24.7973 H   0  0  0  0  0  0  0  0  0  0  0  0
   11.0384   -2.1852   22.6338 H   0  0  0  0  0  0  0  0  0  0  0  0
    4.7836    2.0664   17.4848 H   0  0  0  0  0  0  0  0  0  0  0  0
    7.5634   -2.8637   26.1037 H   0  0  0  0  0  0  0  0  0  0  0  0
   11.0139   -4.2645   23.9419 H   0  0  0  0  0  0  0  0  0  0  0  0
   12.8920    1.2011   22.7014 H   0  0  0  0  0  0  0  0  0  0  0  0
   10.9544   -0.0314   26.3534 H   0  0  0  0  0  0  0  0  0  0  0  0
    8.5274   -1.0858   18.3384 H   0  0  0  0  0  0  0  0  0  0  0  0
    7.8644   -7.6283   27.1289 H   0  0  0  0  0  0  0  0  0  0  0  0
    6.2830   -7.2423   26.4478 H   0  0  0  0  0  0  0  0  0  0  0  0
    6.6663   -4.8405   26.7221 H   0  0  0  0  0  0  0  0  0  0  0  0
    7.0062   -5.6400   28.2540 H   0  0  0  0  0  0  0  0  0  0  0  0
    8.0018   -7.8160   24.6962 H   0  0  0  0  0  0  0  0  0  0  0  0
    7.2963   -6.2182   24.4678 H   0  0  0  0  0  0  0  0  0  0  0  0
    8.7322   -3.9404   27.6532 H   0  0  0  0  0  0  0  0  0  0  0  0
    9.4260   -5.5610   27.8283 H   0  0  0  0  0  0  0  0  0  0  0  0
   10.0249   -6.8474   25.7028 H   0  0  0  0  0  0  0  0  0  0  0  0
    9.7015   -6.0700   24.1446 H   0  0  0  0  0  0  0  0  0  0  0  0
   13.8123   -1.4600   26.6708 H   0  0  0  0  0  0  0  0  0  0  0  0
   14.6882    0.1037   26.7915 H   0  0  0  0  0  0  0  0  0  0  0  0
   13.1616   -0.1244   27.6818 H   0  0  0  0  0  0  0  0  0  0  0  0
    9.3482    1.4259   24.4346 H   0  0  0  0  0  0  0  0  0  0  0  0
   10.1663    1.8792   22.9588 H   0  0  0  0  0  0  0  0  0  0  0  0
   10.7366   -0.4277   22.4442 H   0  0  0  0  0  0  0  0  0  0  0  0
    7.0325    0.4238   17.0175 H   0  0  0  0  0  0  0  0  0  0  0  0
    8.1354   -1.7990   21.3694 H   0  0  0  0  0  0  0  0  0  0  0  0
  1  2  1  0  0  0  0
  1  3  2  0  0  0  0
  2  6  2  0  0  0  0
  3 12  1  0  0  0  0
  4  7  2  0  0  0  0
  4 13  1  0  0  0  0
  5  8  1  0  0  0  0
  5 13  2  0  0  0  0
  6 15  1  0  0  0  0
  7 16  1  0  0  0  0
  8 16  2  0  0  0  0
  9 14  1  0  0  0  0
  9 27  2  0  0  0  0
 10 14  2  0  0  0  0
 10 29  1  0  0  0  0
 11 17  2  0  0  0  0
 11 28  1  0  0  0  0
 12 15  2  0  0  0  0
 12 17  1  0  0  0  0
 13 26  1  0  0  0  0
 14 25  1  0  0  0  0
 15 28  1  0  0  0  0
 16 30  1  0  0  0  0
 17 31  1  0  0  0  0
 18 26  1  0  0  0  0
 18 31  1  0  0  0  0
 18 32  2  0  0  0  0
 19 20  1  0  0  0  0
 19 21  1  0  0  0  0
 20 22  1  0  0  0  0
 21 23  1  0  0  0  0
 22 30  1  0  0  0  0
 23 30  1  0  0  0  0
 24 29  1  0  0  0  0
 25 26  1  6  0  0  0
 27 29  1  0  0  0  0
  1 33  1  0  0  0  0
  2 34  1  0  0  0  0
  3 35  1  0  0  0  0
  4 36  1  0  0  0  0
  5 37  1  0  0  0  0
  6 38  1  0  0  0  0
  7 39  1  0  0  0  0
  8 40  1  0  0  0  0
  9 41  1  0  0  0  0
 10 42  1  0  0  0  0
 11 43  1  0  0  0  0
 19 44  1  0  0  0  0
 19 45  1  0  0  0  0
 20 46  1  0  0  0  0
 20 47  1  0  0  0  0
 21 48  1  0  0  0  0
 21 49  1  0  0  0  0
 22 50  1  0  0  0  0
 22 51  1  0  0  0  0
 23 52  1  0  0  0  0
 23 53  1  0  0  0  0
 24 54  1  0  0  0  0
 24 55  1  0  0  0  0
 24 56  1  0  0  0  0
 25 57  1  0  0  0  0
 25 58  1  0  0  0  0
 26 59  1  0  0  0  0
 28 60  1  0  0  0  0
 31 61  1  0  0  0  0
M  END
> <clash_score>
0.7348697102430726

> <docking_score>
-6.107664108276367

> <overlap_score>
0.9397954344749451

$$$$
BENZO_290_2
  -OEChem-08222022413D

 61 65  0     1  0  0  0  0  0999 V2000
    4.2970    1.6690   20.8430 C   0  0  0  0  0  0  0  0  0  0  0  0
    4.0980    2.1130   19.5350 C   0  0  0  0  0  0  0  0  0  0  0  0
   13.7717    0.6100   24.1003 C   0  0  0  0  0  0  0  0  0  0  0  0
    5.3360    0.8000   21.1530 C   0  0  0  0  0  0  0  0  0  0  0  0
   12.3953    0.5053   24.3009 C   0  0  0  0  0  0  0  0  0  0  0  0
    8.3510   -1.5420   24.6110 C   0  0  0  0  0  0  0  0  0  0  0  0
   10.2760   -2.3270   23.4020 C   0  0  0  0  0  0  0  0  0  0  0  0
    4.9400    1.7060   18.5060 C   0  0  0  0  0  0  0  0  0  0  0  0
    8.3310   -2.7170   25.3430 C   0  0  0  0  0  0  0  0  0  0  0  0
   10.2570   -3.5000   24.1350 C   0  0  0  0  0  0  0  0  0  0  0  0
   14.2661    1.3676   23.0385 C   0  0  0  0  0  0  0  0  0  0  0  0
   12.0077    1.9155   22.3779 C   0  0  0  0  0  0  0  0  0  0  0  0
    7.6830   -0.5170   18.7600 C   0  0  0  0  0  0  0  0  0  0  0  0
    6.1600    0.3870   20.1140 C   0  0  0  0  0  0  0  0  0  0  0  0
    9.3300   -1.3350   23.6390 C   0  0  0  0  0  0  0  0  0  0  0  0
   11.5133    1.1580   23.4397 C   0  0  0  0  0  0  0  0  0  0  0  0
    5.9810    0.8330   18.8060 C   0  0  0  0  0  0  0  0  0  0  0  0
    9.2850   -3.7090   25.1090 C   0  0  0  0  0  0  0  0  0  0  0  0
    7.2210   -0.4620   20.0350 C   0  0  0  0  0  0  0  0  0  0  0  0
   13.3841    2.0203   22.1773 C   0  0  0  0  0  0  0  0  0  0  0  0
    8.9510    0.1280   21.6880 C   0  0  0  0  0  0  0  0  0  0  0  0
    7.3211   -6.8875   26.5227 C   0  0  0  0  0  0  0  0  0  0  0  0
    7.3523   -5.5278   27.2244 C   0  0  0  0  0  0  0  0  0  0  0  0
    7.9422   -6.8107   25.1261 C   0  0  0  0  0  0  0  0  0  0  0  0
    8.7641   -4.9418   27.2163 C   0  0  0  0  0  0  0  0  0  0  0  0
    9.3411   -6.1879   25.1670 C   0  0  0  0  0  0  0  0  0  0  0  0
   10.0220    1.0430   23.6570 C   0  0  0  0  0  0  0  0  0  0  0  0
    9.4200   -0.0840   22.9530 C   0  0  2  0  0  0  0  0  0  0  0  0
    6.9440    0.2550   18.0100 N   0  0  0  0  0  0  0  0  0  0  0  0
    9.2641   -4.8861   25.8398 N   0  0  0  0  0  0  0  0  0  0  0  0
    8.0810   -0.9750   21.0820 N   0  0  0  0  0  0  0  0  0  0  0  0
    9.1870    1.1500   21.0630 O   0  0  0  0  0  0  0  0  0  0  0  0
   13.9946    2.9539   20.8668 Cl  0  0  0  0  0  0  0  0  0  0  0  0
    3.6256    2.0106   21.6303 H   0  0  0  0  0  0  0  0  0  0  0  0
    3.2724    2.7868   19.3204 H   0  0  0  0  0  0  0  0  0  0  0  0
   14.4581    0.1015   24.7710 H   0  0  0  0  0  0  0  0  0  0  0  0
    5.4858    0.4664   22.1692 H   0  0  0  0  0  0  0  0  0  0  0  0
   12.0190   -0.0873   25.1307 H   0  0  0  0  0  0  0  0  0  0  0  0
    7.5957   -0.7779   24.7973 H   0  0  0  0  0  0  0  0  0  0  0  0
   11.0384   -2.1852   22.6338 H   0  0  0  0  0  0  0  0  0  0  0  0
    4.7836    2.0664   17.4848 H   0  0  0  0  0  0  0  0  0  0  0  0
    7.5634   -2.8637   26.1037 H   0  0  0  0  0  0  0  0  0  0  0  0
   11.0139   -4.2645   23.9419 H   0  0  0  0  0  0  0  0  0  0  0  0
   15.3412    1.4401   22.8941 H   0  0  0  0  0  0  0  0  0  0  0  0
   11.3159    2.4230   21.7095 H   0  0  0  0  0  0  0  0  0  0  0  0
    8.5274   -1.0858   18.3384 H   0  0  0  0  0  0  0  0  0  0  0  0
    7.8644   -7.6283   27.1289 H   0  0  0  0  0  0  0  0  0  0  0  0
    6.2830   -7.2423   26.4478 H   0  0  0  0  0  0  0  0  0  0  0  0
    6.6663   -4.8405   26.7221 H   0  0  0  0  0  0  0  0  0  0  0  0
    7.0062   -5.6400   28.2540 H   0  0  0  0  0  0  0  0  0  0  0  0
    8.0018   -7.8160   24.6962 H   0  0  0  0  0  0  0  0  0  0  0  0
    7.2963   -6.2182   24.4678 H   0  0  0  0  0  0  0  0  0  0  0  0
    8.7322   -3.9404   27.6532 H   0  0  0  0  0  0  0  0  0  0  0  0
    9.4260   -5.5610   27.8283 H   0  0  0  0  0  0  0  0  0  0  0  0
   10.0249   -6.8474   25.7028 H   0  0  0  0  0  0  0  0  0  0  0  0
    9.7015   -6.0700   24.1446 H   0  0  0  0  0  0  0  0  0  0  0  0
    9.8155    0.9894   24.7339 H   0  0  0  0  0  0  0  0  0  0  0  0
    9.5584    1.9798   23.3178 H   0  0  0  0  0  0  0  0  0  0  0  0
    8.1278    0.3254   23.5142 H   0  0  0  0  0  0  0  0  0  0  0  0
    7.0325    0.4238   17.0175 H   0  0  0  0  0  0  0  0  0  0  0  0
    8.1354   -1.7990   21.3694 H   0  0  0  0  0  0  0  0  0  0  0  0
  1  2  1  0  0  0  0
  1  4  2  0  0  0  0
  2  8  2  0  0  0  0
  3  5  2  0  0  0  0
  3 11  1  0  0  0  0
  4 14  1  0  0  0  0
  5 16  1  0  0  0  0
  6  9  2  0  0  0  0
  6 15  1  0  0  0  0
  7 10  1  0  0  0  0
  7 15  2  0  0  0  0
  8 17  1  0  0  0  0
  9 18  1  0  0  0  0
 10 18  2  0  0  0  0
 11 20  2  0  0  0  0
 12 16  2  0  0  0  0
 12 20  1  0  0  0  0
 13 19  2  0  0  0  0
 13 29  1  0  0  0  0
 14 17  2  0  0  0  0
 14 19  1  0  0  0  0
 15 28  1  0  0  0  0
 16 27  1  0  0  0  0
 17 29  1  0  0  0  0
 18 30  1  0  0  0  0
 19 31  1  0  0  0  0
 20 33  1  0  0  0  0
 21 28  1  6  0  0  0
 21 31  1  0  0  0  0
 21 32  2  0  0  0  0
 22 23  1  0  0  0  0
 22 24  1  0  0  0  0
 23 25  1  0  0  0  0
 24 26  1  0  0  0  0
 25 30  1  0  0  0  0
 26 30  1  0  0  0  0
 27 28  1  0  0  0  0
  1 34  1  0  0  0  0
  2 35  1  0  0  0  0
  3 36  1  0  0  0  0
  4 37  1  0  0  0  0
  5 38  1  0  0  0  0
  6 39  1  0  0  0  0
  7 40  1  0  0  0  0
  8 41  1  0  0  0  0
  9 42  1  0  0  0  0
 10 43  1  0  0  0  0
 11 44  1  0  0  0  0
 12 45  1  0  0  0  0
 13 46  1  0  0  0  0
 22 47  1  0  0  0  0
 22 48  1  0  0  0  0
 23 49  1  0  0  0  0
 23 50  1  0  0  0  0
 24 51  1  0  0  0  0
 24 52  1  0  0  0  0
 25 53  1  0  0  0  0
 25 54  1  0  0  0  0
 26 55  1  0  0  0  0
 26 56  1  0  0  0  0
 27 57  1  0  0  0  0
 27 58  1  0  0  0  0
 28 59  1  0  0  0  0
 29 60  1  0  0  0  0
 31 61  1  0  0  0  0
M  END
> <clash_score>
0

> <docking_score>
-6.363487720489502

> <overlap_score>
1.0287415981292725

$$$$
BENZO_291_1
  -OEChem-08222022413D

 61 65  0     1  0  0  0  0  0999 V2000
    4.2970    1.6690   20.8430 C   0  0  0  0  0  0  0  0  0  0  0  0
    4.0980    2.1130   19.5350 C   0  0  0  0  0  0  0  0  0  0  0  0
    5.3360    0.8000   21.1530 C   0  0  0  0  0  0  0  0  0  0  0  0
    8.3510   -1.5420   24.6110 C   0  0  0  0  0  0  0  0  0  0  0  0
   10.2760   -2.3270   23.4020 C   0  0  0  0  0  0  0  0  0  0  0  0
    4.9400    1.7060   18.5060 C   0  0  0  0  0  0  0  0  0  0  0  0
    8.3310   -2.7170   25.3430 C   0  0  0  0  0  0  0  0  0  0  0  0
   10.2570   -3.5000   24.1350 C   0  0  0  0  0  0  0  0  0  0  0  0
   12.2990    2.3261   23.4416 C   0  0  0  0  0  0  0  0  0  0  0  0
   12.4071    0.1434   23.1984 C   0  0  0  0  0  0  0  0  0  0  0  0
    7.6830   -0.5170   18.7600 C   0  0  0  0  0  0  0  0  0  0  0  0
    6.1600    0.3870   20.1140 C   0  0  0  0  0  0  0  0  0  0  0  0
    9.3300   -1.3350   23.6390 C   0  0  0  0  0  0  0  0  0  0  0  0
   11.5133    1.1580   23.4397 C   0  0  0  0  0  0  0  0  0  0  0  0
    5.9810    0.8330   18.8060 C   0  0  0  0  0  0  0  0  0  0  0  0
    9.2850   -3.7090   25.1090 C   0  0  0  0  0  0  0  0  0  0  0  0
    7.2210   -0.4620   20.0350 C   0  0  0  0  0  0  0  0  0  0  0  0
    8.9510    0.1280   21.6880 C   0  0  0  0  0  0  0  0  0  0  0  0
    7.3211   -6.8875   26.5227 C   0  0  0  0  0  0  0  0  0  0  0  0
    7.3523   -5.5278   27.2244 C   0  0  0  0  0  0  0  0  0  0  0  0
    7.9422   -6.8107   25.1261 C   0  0  0  0  0  0  0  0  0  0  0  0
    8.7641   -4.9418   27.2163 C   0  0  0  0  0  0  0  0  0  0  0  0
    9.3411   -6.1879   25.1670 C   0  0  0  0  0  0  0  0  0  0  0  0
   14.8827    0.0809   22.8160 C   0  0  0  0  0  0  0  0  0  0  0  0
   10.0220    1.0430   23.6570 C   0  0  0  0  0  0  0  0  0  0  0  0
    9.4200   -0.0840   22.9530 C   0  0  1  0  0  0  0  0  0  0  0  0
   13.5924    2.0779   23.2193 N   0  0  0  0  0  0  0  0  0  0  0  0
    6.9440    0.2550   18.0100 N   0  0  0  0  0  0  0  0  0  0  0  0
   13.6264    0.7422   23.0755 N   0  0  0  0  0  0  0  0  0  0  0  0
    9.2641   -4.8861   25.8398 N   0  0  0  0  0  0  0  0  0  0  0  0
    8.0810   -0.9750   21.0820 N   0  0  0  0  0  0  0  0  0  0  0  0
    9.1870    1.1500   21.0630 O   0  0  0  0  0  0  0  0  0  0  0  0
    3.6256    2.0106   21.6303 H   0  0  0  0  0  0  0  0  0  0  0  0
    3.2724    2.7868   19.3204 H   0  0  0  0  0  0  0  0  0  0  0  0
    5.4858    0.4664   22.1692 H   0  0  0  0  0  0  0  0  0  0  0  0
    7.5957   -0.7779   24.7973 H   0  0  0  0  0  0  0  0  0  0  0  0
   11.0384   -2.1852   22.6338 H   0  0  0  0  0  0  0  0  0  0  0  0
    4.7836    2.0664   17.4848 H   0  0  0  0  0  0  0  0  0  0  0  0
    7.5634   -2.8637   26.1037 H   0  0  0  0  0  0  0  0  0  0  0  0
   11.0139   -4.2645   23.9419 H   0  0  0  0  0  0  0  0  0  0  0  0
   11.9854    3.3488   23.5963 H   0  0  0  0  0  0  0  0  0  0  0  0
   12.2827   -0.9271   23.1072 H   0  0  0  0  0  0  0  0  0  0  0  0
    8.5274   -1.0858   18.3384 H   0  0  0  0  0  0  0  0  0  0  0  0
    7.8644   -7.6283   27.1289 H   0  0  0  0  0  0  0  0  0  0  0  0
    6.2830   -7.2423   26.4478 H   0  0  0  0  0  0  0  0  0  0  0  0
    6.6663   -4.8405   26.7221 H   0  0  0  0  0  0  0  0  0  0  0  0
    7.0062   -5.6400   28.2540 H   0  0  0  0  0  0  0  0  0  0  0  0
    8.0018   -7.8160   24.6962 H   0  0  0  0  0  0  0  0  0  0  0  0
    7.2963   -6.2182   24.4678 H   0  0  0  0  0  0  0  0  0  0  0  0
    8.7322   -3.9404   27.6532 H   0  0  0  0  0  0  0  0  0  0  0  0
    9.4260   -5.5610   27.8283 H   0  0  0  0  0  0  0  0  0  0  0  0
   10.0249   -6.8474   25.7028 H   0  0  0  0  0  0  0  0  0  0  0  0
    9.7015   -6.0700   24.1446 H   0  0  0  0  0  0  0  0  0  0  0  0
   15.0211    0.0327   21.7327 H   0  0  0  0  0  0  0  0  0  0  0  0
   15.6949    0.6471   23.2804 H   0  0  0  0  0  0  0  0  0  0  0  0
   14.8569   -0.9250   23.2444 H   0  0  0  0  0  0  0  0  0  0  0  0
    9.8155    0.9894   24.7339 H   0  0  0  0  0  0  0  0  0  0  0  0
    9.5584    1.9798   23.3178 H   0  0  0  0  0  0  0  0  0  0  0  0
    8.1278    0.3254   23.5142 H   0  0  0  0  0  0  0  0  0  0  0  0
    7.0325    0.4238   17.0175 H   0  0  0  0  0  0  0  0  0  0  0  0
    8.1354   -1.7990   21.3694 H   0  0  0  0  0  0  0  0  0  0  0  0
  1  2  1  0  0  0  0
  1  3  2  0  0  0  0
  2  6  2  0  0  0  0
  3 12  1  0  0  0  0
  4  7  2  0  0  0  0
  4 13  1  0  0  0  0
  5  8  1  0  0  0  0
  5 13  2  0  0  0  0
  6 15  1  0  0  0  0
  7 16  1  0  0  0  0
  8 16  2  0  0  0  0
  9 14  1  0  0  0  0
  9 27  2  0  0  0  0
 10 14  2  0  0  0  0
 10 29  1  0  0  0  0
 11 17  2  0  0  0  0
 11 28  1  0  0  0  0
 12 15  2  0  0  0  0
 12 17  1  0  0  0  0
 13 26  1  0  0  0  0
 14 25  1  0  0  0  0
 15 28  1  0  0  0  0
 16 30  1  0  0  0  0
 17 31  1  0  0  0  0
 18 26  1  0  0  0  0
 18 31  1  0  0  0  0
 18 32  2  0  0  0  0
 19 20  1  0  0  0  0
 19 21  1  0  0  0  0
 20 22  1  0  0  0  0
 21 23  1  0  0  0  0
 22 30  1  0  0  0  0
 23 30  1  0  0  0  0
 24 29  1  0  0  0  0
 25 26  1  1  0  0  0
 27 29  1  0  0  0  0
  1 33  1  0  0  0  0
  2 34  1  0  0  0  0
  3 35  1  0  0  0  0
  4 36  1  0  0  0  0
  5 37  1  0  0  0  0
  6 38  1  0  0  0  0
  7 39  1  0  0  0  0
  8 40  1  0  0  0  0
  9 41  1  0  0  0  0
 10 42  1  0  0  0  0
 11 43  1  0  0  0  0
 19 44  1  0  0  0  0
 19 45  1  0  0  0  0
 20 46  1  0  0  0  0
 20 47  1  0  0  0  0
 21 48  1  0  0  0  0
 21 49  1  0  0  0  0
 22 50  1  0  0  0  0
 22 51  1  0  0  0  0
 23 52  1  0  0  0  0
 23 53  1  0  0  0  0
 24 54  1  0  0  0  0
 24 55  1  0  0  0  0
 24 56  1  0  0  0  0
 25 57  1  0  0  0  0
 25 58  1  0  0  0  0
 26 59  1  0  0  0  0
 28 60  1  0  0  0  0
 31 61  1  0  0  0  0
M  END
> <clash_score>
0

> <docking_score>
-7.9065961837768555

> <overlap_score>
1.0275722742080688

$$$$
BENZO_294_1
  -OEChem-08222022413D

 49 52  0     1  0  0  0  0  0999 V2000
    4.2970    1.6690   20.8430 C   0  0  0  0  0  0  0  0  0  0  0  0
    4.0980    2.1130   19.5350 C   0  0  0  0  0  0  0  0  0  0  0  0
   13.7719    0.5789   24.0657 C   0  0  0  0  0  0  0  0  0  0  0  0
    5.3360    0.8000   21.1530 C   0  0  0  0  0  0  0  0  0  0  0  0
   12.3966    0.4859   24.2792 C   0  0  0  0  0  0  0  0  0  0  0  0
    8.3310   -2.7170   25.3430 C   0  0  0  0  0  0  0  0  0  0  0  0
   10.2570   -3.5000   24.1350 C   0  0  0  0  0  0  0  0  0  0  0  0
    8.3510   -1.5420   24.6110 C   0  0  0  0  0  0  0  0  0  0  0  0
   10.2760   -2.3270   23.4020 C   0  0  0  0  0  0  0  0  0  0  0  0
    4.9400    1.7060   18.5060 C   0  0  0  0  0  0  0  0  0  0  0  0
   14.2627    1.3315   22.9987 C   0  0  0  0  0  0  0  0  0  0  0  0
   12.0029    1.8979   22.3587 C   0  0  0  0  0  0  0  0  0  0  0  0
    7.6830   -0.5170   18.7600 C   0  0  0  0  0  0  0  0  0  0  0  0
    6.1600    0.3870   20.1140 C   0  0  0  0  0  0  0  0  0  0  0  0
    9.2850   -3.7090   25.1090 C   0  0  0  0  0  0  0  0  0  0  0  0
    9.3300   -1.3350   23.6390 C   0  0  0  0  0  0  0  0  0  0  0  0
   11.5121    1.1453   23.4257 C   0  0  0  0  0  0  0  0  0  0  0  0
    5.9810    0.8330   18.8060 C   0  0  0  0  0  0  0  0  0  0  0  0
    7.2210   -0.4620   20.0350 C   0  0  0  0  0  0  0  0  0  0  0  0
   13.3782    1.9909   22.1452 C   0  0  0  0  0  0  0  0  0  0  0  0
    8.9510    0.1280   21.6880 C   0  0  0  0  0  0  0  0  0  0  0  0
    9.2618   -4.9724   25.8910 C   0  0  0  0  0  0  0  0  0  0  0  0
   10.0220    1.0430   23.6570 C   0  0  0  0  0  0  0  0  0  0  0  0
    9.4200   -0.0840   22.9530 C   0  0  1  0  0  0  0  0  0  0  0  0
    6.9440    0.2550   18.0100 N   0  0  0  0  0  0  0  0  0  0  0  0
    8.0810   -0.9750   21.0820 N   0  0  0  0  0  0  0  0  0  0  0  0
    9.1870    1.1500   21.0630 O   0  0  0  0  0  0  0  0  0  0  0  0
   13.9842    2.9183   20.8282 Cl  0  0  0  0  0  0  0  0  0  0  0  0
    3.6256    2.0106   21.6303 H   0  0  0  0  0  0  0  0  0  0  0  0
    3.2724    2.7868   19.3204 H   0  0  0  0  0  0  0  0  0  0  0  0
   14.4603    0.0652   24.7305 H   0  0  0  0  0  0  0  0  0  0  0  0
    5.4858    0.4664   22.1692 H   0  0  0  0  0  0  0  0  0  0  0  0
   12.0231   -0.1028   25.1130 H   0  0  0  0  0  0  0  0  0  0  0  0
    7.5655   -2.8644   26.1055 H   0  0  0  0  0  0  0  0  0  0  0  0
   11.0125   -4.2662   23.9435 H   0  0  0  0  0  0  0  0  0  0  0  0
    7.5953   -0.7782   24.7971 H   0  0  0  0  0  0  0  0  0  0  0  0
   11.0394   -2.1837   22.6349 H   0  0  0  0  0  0  0  0  0  0  0  0
    4.7836    2.0664   17.4848 H   0  0  0  0  0  0  0  0  0  0  0  0
   15.3370    1.3949   22.8442 H   0  0  0  0  0  0  0  0  0  0  0  0
   11.3092    2.4106   21.6964 H   0  0  0  0  0  0  0  0  0  0  0  0
    8.5274   -1.0858   18.3384 H   0  0  0  0  0  0  0  0  0  0  0  0
    8.6408   -5.7227   25.3864 H   0  0  0  0  0  0  0  0  0  0  0  0
   10.2726   -5.3829   26.0135 H   0  0  0  0  0  0  0  0  0  0  0  0
    8.8606   -4.8102   26.9000 H   0  0  0  0  0  0  0  0  0  0  0  0
    9.8253    0.9889   24.7357 H   0  0  0  0  0  0  0  0  0  0  0  0
    9.5635    1.9845   23.3241 H   0  0  0  0  0  0  0  0  0  0  0  0
    8.1288    0.3205   23.5156 H   0  0  0  0  0  0  0  0  0  0  0  0
    7.0325    0.4238   17.0175 H   0  0  0  0  0  0  0  0  0  0  0  0
    8.1175   -1.8104   21.3538 H   0  0  0  0  0  0  0  0  0  0  0  0
  1  2  1  0  0  0  0
  1  4  2  0  0  0  0
  2 10  2  0  0  0  0
  3  5  2  0  0  0  0
  3 11  1  0  0  0  0
  4 14  1  0  0  0  0
  5 17  1  0  0  0  0
  6  8  2  0  0  0  0
  6 15  1  0  0  0  0
  7  9  1  0  0  0  0
  7 15  2  0  0  0  0
  8 16  1  0  0  0  0
  9 16  2  0  0  0  0
 10 18  1  0  0  0  0
 11 20  2  0  0  0  0
 12 17  2  0  0  0  0
 12 20  1  0  0  0  0
 13 19  2  0  0  0  0
 13 25  1  0  0  0  0
 14 18  2  0  0  0  0
 14 19  1  0  0  0  0
 15 22  1  0  0  0  0
 16 24  1  0  0  0  0
 17 23  1  0  0  0  0
 18 25  1  0  0  0  0
 19 26  1  0  0  0  0
 20 28  1  0  0  0  0
 21 24  1  0  0  0  0
 21 26  1  0  0  0  0
 21 27  2  0  0  0  0
 23 24  1  1  0  0  0
  1 29  1  0  0  0  0
  2 30  1  0  0  0  0
  3 31  1  0  0  0  0
  4 32  1  0  0  0  0
  5 33  1  0  0  0  0
  6 34  1  0  0  0  0
  7 35  1  0  0  0  0
  8 36  1  0  0  0  0
  9 37  1  0  0  0  0
 10 38  1  0  0  0  0
 11 39  1  0  0  0  0
 12 40  1  0  0  0  0
 13 41  1  0  0  0  0
 22 42  1  0  0  0  0
 22 43  1  0  0  0  0
 22 44  1  0  0  0  0
 23 45  1  0  0  0  0
 23 46  1  0  0  0  0
 24 47  1  0  0  0  0
 25 48  1  0  0  0  0
 26 49  1  0  0  0  0
M  END
> <clash_score>
0

> <docking_score>
-7.315923690795898

> <overlap_score>
0.9851462841033936

$$$$
BENZO_294_2
  -OEChem-08222022413D

 49 52  0     1  0  0  0  0  0999 V2000
    4.2970    1.6690   20.8430 C   0  0  0  0  0  0  0  0  0  0  0  0
    4.0980    2.1130   19.5350 C   0  0  0  0  0  0  0  0  0  0  0  0
   12.6560   -0.1194   26.1379 C   0  0  0  0  0  0  0  0  0  0  0  0
    5.3360    0.8000   21.1530 C   0  0  0  0  0  0  0  0  0  0  0  0
   11.4219    0.1994   25.5714 C   0  0  0  0  0  0  0  0  0  0  0  0
    8.3310   -2.7170   25.3430 C   0  0  0  0  0  0  0  0  0  0  0  0
   10.2570   -3.5000   24.1350 C   0  0  0  0  0  0  0  0  0  0  0  0
    8.3510   -1.5420   24.6110 C   0  0  0  0  0  0  0  0  0  0  0  0
   10.2760   -2.3270   23.4020 C   0  0  0  0  0  0  0  0  0  0  0  0
    4.9400    1.7060   18.5060 C   0  0  0  0  0  0  0  0  0  0  0  0
   13.8281    0.0614   25.4035 C   0  0  0  0  0  0  0  0  0  0  0  0
   12.5318    0.8798   23.5362 C   0  0  0  0  0  0  0  0  0  0  0  0
    7.6830   -0.5170   18.7600 C   0  0  0  0  0  0  0  0  0  0  0  0
    6.1600    0.3870   20.1140 C   0  0  0  0  0  0  0  0  0  0  0  0
    9.2850   -3.7090   25.1090 C   0  0  0  0  0  0  0  0  0  0  0  0
    9.3300   -1.3350   23.6390 C   0  0  0  0  0  0  0  0  0  0  0  0
   11.3597    0.6989   24.2706 C   0  0  0  0  0  0  0  0  0  0  0  0
    5.9810    0.8330   18.8060 C   0  0  0  0  0  0  0  0  0  0  0  0
    7.2210   -0.4620   20.0350 C   0  0  0  0  0  0  0  0  0  0  0  0
   13.7660    0.5610   24.1027 C   0  0  0  0  0  0  0  0  0  0  0  0
    8.9510    0.1280   21.6880 C   0  0  0  0  0  0  0  0  0  0  0  0
    9.2618   -4.9724   25.8910 C   0  0  0  0  0  0  0  0  0  0  0  0
   10.0220    1.0430   23.6570 C   0  0  0  0  0  0  0  0  0  0  0  0
    9.4200   -0.0840   22.9530 C   0  0  2  0  0  0  0  0  0  0  0  0
    6.9440    0.2550   18.0100 N   0  0  0  0  0  0  0  0  0  0  0  0
    8.0810   -0.9750   21.0820 N   0  0  0  0  0  0  0  0  0  0  0  0
    9.1870    1.1500   21.0630 O   0  0  0  0  0  0  0  0  0  0  0  0
   15.2122    0.7829   23.1967 Cl  0  0  0  0  0  0  0  0  0  0  0  0
    3.6256    2.0106   21.6303 H   0  0  0  0  0  0  0  0  0  0  0  0
    3.2724    2.7868   19.3204 H   0  0  0  0  0  0  0  0  0  0  0  0
   12.7039   -0.5086   27.1508 H   0  0  0  0  0  0  0  0  0  0  0  0
    5.4858    0.4664   22.1692 H   0  0  0  0  0  0  0  0  0  0  0  0
   10.5137    0.0551   26.1509 H   0  0  0  0  0  0  0  0  0  0  0  0
    7.5655   -2.8644   26.1055 H   0  0  0  0  0  0  0  0  0  0  0  0
   11.0125   -4.2662   23.9435 H   0  0  0  0  0  0  0  0  0  0  0  0
    7.5953   -0.7782   24.7971 H   0  0  0  0  0  0  0  0  0  0  0  0
   11.0394   -2.1837   22.6349 H   0  0  0  0  0  0  0  0  0  0  0  0
    4.7836    2.0664   17.4848 H   0  0  0  0  0  0  0  0  0  0  0  0
   14.7829   -0.1916   25.8577 H   0  0  0  0  0  0  0  0  0  0  0  0
   12.4781    1.2701   22.5225 H   0  0  0  0  0  0  0  0  0  0  0  0
    8.5274   -1.0858   18.3384 H   0  0  0  0  0  0  0  0  0  0  0  0
    8.6408   -5.7227   25.3864 H   0  0  0  0  0  0  0  0  0  0  0  0
   10.2726   -5.3829   26.0135 H   0  0  0  0  0  0  0  0  0  0  0  0
    8.8606   -4.8102   26.9000 H   0  0  0  0  0  0  0  0  0  0  0  0
    9.3529    1.4272   24.4380 H   0  0  0  0  0  0  0  0  0  0  0  0
   10.1743    1.8827   22.9648 H   0  0  0  0  0  0  0  0  0  0  0  0
   10.7346   -0.4307   22.4468 H   0  0  0  0  0  0  0  0  0  0  0  0
    7.0325    0.4238   17.0175 H   0  0  0  0  0  0  0  0  0  0  0  0
    8.1175   -1.8104   21.3538 H   0  0  0  0  0  0  0  0  0  0  0  0
  1  2  1  0  0  0  0
  1  4  2  0  0  0  0
  2 10  2  0  0  0  0
  3  5  2  0  0  0  0
  3 11  1  0  0  0  0
  4 14  1  0  0  0  0
  5 17  1  0  0  0  0
  6  8  2  0  0  0  0
  6 15  1  0  0  0  0
  7  9  1  0  0  0  0
  7 15  2  0  0  0  0
  8 16  1  0  0  0  0
  9 16  2  0  0  0  0
 10 18  1  0  0  0  0
 11 20  2  0  0  0  0
 12 17  2  0  0  0  0
 12 20  1  0  0  0  0
 13 19  2  0  0  0  0
 13 25  1  0  0  0  0
 14 18  2  0  0  0  0
 14 19  1  0  0  0  0
 15 22  1  0  0  0  0
 16 24  1  0  0  0  0
 17 23  1  0  0  0  0
 18 25  1  0  0  0  0
 19 26  1  0  0  0  0
 20 28  1  0  0  0  0
 21 24  1  0  0  0  0
 21 26  1  0  0  0  0
 21 27  2  0  0  0  0
 23 24  1  6  0  0  0
  1 29  1  0  0  0  0
  2 30  1  0  0  0  0
  3 31  1  0  0  0  0
  4 32  1  0  0  0  0
  5 33  1  0  0  0  0
  6 34  1  0  0  0  0
  7 35  1  0  0  0  0
  8 36  1  0  0  0  0
  9 37  1  0  0  0  0
 10 38  1  0  0  0  0
 11 39  1  0  0  0  0
 12 40  1  0  0  0  0
 13 41  1  0  0  0  0
 22 42  1  0  0  0  0
 22 43  1  0  0  0  0
 22 44  1  0  0  0  0
 23 45  1  0  0  0  0
 23 46  1  0  0  0  0
 24 47  1  0  0  0  0
 25 48  1  0  0  0  0
 26 49  1  0  0  0  0
M  END
> <clash_score>
0.6070843862996379

> <docking_score>
-6.30996036529541

> <overlap_score>
0.9131935238838196

$$$$
BENZO_295_2
  -OEChem-08222022413D

 49 52  0     1  0  0  0  0  0999 V2000
    4.2970    1.6690   20.8430 C   0  0  0  0  0  0  0  0  0  0  0  0
    4.0980    2.1130   19.5350 C   0  0  0  0  0  0  0  0  0  0  0  0
    5.3360    0.8000   21.1530 C   0  0  0  0  0  0  0  0  0  0  0  0
    8.3310   -2.7170   25.3430 C   0  0  0  0  0  0  0  0  0  0  0  0
   10.2570   -3.5000   24.1350 C   0  0  0  0  0  0  0  0  0  0  0  0
    8.3510   -1.5420   24.6110 C   0  0  0  0  0  0  0  0  0  0  0  0
   10.2760   -2.3270   23.4020 C   0  0  0  0  0  0  0  0  0  0  0  0
    4.9400    1.7060   18.5060 C   0  0  0  0  0  0  0  0  0  0  0  0
   10.9173    2.8198   21.9486 C   0  0  0  0  0  0  0  0  0  0  0  0
   12.4283    1.4668   22.7978 C   0  0  0  0  0  0  0  0  0  0  0  0
    7.6830   -0.5170   18.7600 C   0  0  0  0  0  0  0  0  0  0  0  0
    6.1600    0.3870   20.1140 C   0  0  0  0  0  0  0  0  0  0  0  0
    9.2850   -3.7090   25.1090 C   0  0  0  0  0  0  0  0  0  0  0  0
    9.3300   -1.3350   23.6390 C   0  0  0  0  0  0  0  0  0  0  0  0
   11.0832    1.7414   22.8382 C   0  0  0  0  0  0  0  0  0  0  0  0
    5.9810    0.8330   18.8060 C   0  0  0  0  0  0  0  0  0  0  0  0
    7.2210   -0.4620   20.0350 C   0  0  0  0  0  0  0  0  0  0  0  0
    8.9510    0.1280   21.6880 C   0  0  0  0  0  0  0  0  0  0  0  0
    9.2618   -4.9724   25.8910 C   0  0  0  0  0  0  0  0  0  0  0  0
   14.3557    2.4668   21.5472 C   0  0  0  0  0  0  0  0  0  0  0  0
   10.0220    1.0430   23.6570 C   0  0  0  0  0  0  0  0  0  0  0  0
    9.4200   -0.0840   22.9530 C   0  0  2  0  0  0  0  0  0  0  0  0
   12.0654    3.2041   21.3845 N   0  0  0  0  0  0  0  0  0  0  0  0
    6.9440    0.2550   18.0100 N   0  0  0  0  0  0  0  0  0  0  0  0
   12.9656    2.3627   21.9209 N   0  0  0  0  0  0  0  0  0  0  0  0
    8.0810   -0.9750   21.0820 N   0  0  0  0  0  0  0  0  0  0  0  0
    9.1870    1.1500   21.0630 O   0  0  0  0  0  0  0  0  0  0  0  0
    3.6256    2.0106   21.6303 H   0  0  0  0  0  0  0  0  0  0  0  0
    3.2724    2.7868   19.3204 H   0  0  0  0  0  0  0  0  0  0  0  0
    5.4858    0.4664   22.1692 H   0  0  0  0  0  0  0  0  0  0  0  0
    7.5655   -2.8644   26.1055 H   0  0  0  0  0  0  0  0  0  0  0  0
   11.0125   -4.2662   23.9435 H   0  0  0  0  0  0  0  0  0  0  0  0
    7.5953   -0.7782   24.7971 H   0  0  0  0  0  0  0  0  0  0  0  0
   11.0394   -2.1837   22.6349 H   0  0  0  0  0  0  0  0  0  0  0  0
    4.7836    2.0664   17.4848 H   0  0  0  0  0  0  0  0  0  0  0  0
   10.0090    3.3439   21.6870 H   0  0  0  0  0  0  0  0  0  0  0  0
   13.0342    0.7293   23.3067 H   0  0  0  0  0  0  0  0  0  0  0  0
    8.5274   -1.0858   18.3384 H   0  0  0  0  0  0  0  0  0  0  0  0
    8.6408   -5.7227   25.3864 H   0  0  0  0  0  0  0  0  0  0  0  0
   10.2726   -5.3829   26.0135 H   0  0  0  0  0  0  0  0  0  0  0  0
    8.8606   -4.8102   26.9000 H   0  0  0  0  0  0  0  0  0  0  0  0
   14.5208    1.8230   20.6793 H   0  0  0  0  0  0  0  0  0  0  0  0
   14.5900    3.5065   21.3020 H   0  0  0  0  0  0  0  0  0  0  0  0
   14.9803    2.1472   22.3860 H   0  0  0  0  0  0  0  0  0  0  0  0
   10.4530    0.7282   24.6164 H   0  0  0  0  0  0  0  0  0  0  0  0
    9.2514    1.7835   23.9128 H   0  0  0  0  0  0  0  0  0  0  0  0
   10.7346   -0.4307   22.4468 H   0  0  0  0  0  0  0  0  0  0  0  0
    7.0325    0.4238   17.0175 H   0  0  0  0  0  0  0  0  0  0  0  0
    8.1175   -1.8104   21.3538 H   0  0  0  0  0  0  0  0  0  0  0  0
  1  2  1  0  0  0  0
  1  3  2  0  0  0  0
  2  8  2  0  0  0  0
  3 12  1  0  0  0  0
  4  6  2  0  0  0  0
  4 13  1  0  0  0  0
  5  7  1  0  0  0  0
  5 13  2  0  0  0  0
  6 14  1  0  0  0  0
  7 14  2  0  0  0  0
  8 16  1  0  0  0  0
  9 15  1  0  0  0  0
  9 23  2  0  0  0  0
 10 15  2  0  0  0  0
 10 25  1  0  0  0  0
 11 17  2  0  0  0  0
 11 24  1  0  0  0  0
 12 16  2  0  0  0  0
 12 17  1  0  0  0  0
 13 19  1  0  0  0  0
 14 22  1  0  0  0  0
 15 21  1  0  0  0  0
 16 24  1  0  0  0  0
 17 26  1  0  0  0  0
 18 22  1  0  0  0  0
 18 26  1  0  0  0  0
 18 27  2  0  0  0  0
 20 25  1  0  0  0  0
 21 22  1  6  0  0  0
 23 25  1  0  0  0  0
  1 28  1  0  0  0  0
  2 29  1  0  0  0  0
  3 30  1  0  0  0  0
  4 31  1  0  0  0  0
  5 32  1  0  0  0  0
  6 33  1  0  0  0  0
  7 34  1  0  0  0  0
  8 35  1  0  0  0  0
  9 36  1  0  0  0  0
 10 37  1  0  0  0  0
 11 38  1  0  0  0  0
 19 39  1  0  0  0  0
 19 40  1  0  0  0  0
 19 41  1  0  0  0  0
 20 42  1  0  0  0  0
 20 43  1  0  0  0  0
 20 44  1  0  0  0  0
 21 45  1  0  0  0  0
 21 46  1  0  0  0  0
 22 47  1  0  0  0  0
 24 48  1  0  0  0  0
 26 49  1  0  0  0  0
M  END
> <clash_score>
0

> <docking_score>
-6.907290458679199

> <overlap_score>
0.9399562478065491

$$$$
BENZO_295_1
  -OEChem-08222022413D

 49 52  0     1  0  0  0  0  0999 V2000
    4.2970    1.6690   20.8430 C   0  0  0  0  0  0  0  0  0  0  0  0
    4.0980    2.1130   19.5350 C   0  0  0  0  0  0  0  0  0  0  0  0
    5.3360    0.8000   21.1530 C   0  0  0  0  0  0  0  0  0  0  0  0
    8.3310   -2.7170   25.3430 C   0  0  0  0  0  0  0  0  0  0  0  0
   10.2570   -3.5000   24.1350 C   0  0  0  0  0  0  0  0  0  0  0  0
    8.3510   -1.5420   24.6110 C   0  0  0  0  0  0  0  0  0  0  0  0
   10.2760   -2.3270   23.4020 C   0  0  0  0  0  0  0  0  0  0  0  0
    4.9400    1.7060   18.5060 C   0  0  0  0  0  0  0  0  0  0  0  0
   12.3075    2.3068   23.4193 C   0  0  0  0  0  0  0  0  0  0  0  0
   12.3951    0.1231   23.1770 C   0  0  0  0  0  0  0  0  0  0  0  0
    7.6830   -0.5170   18.7600 C   0  0  0  0  0  0  0  0  0  0  0  0
    6.1600    0.3870   20.1140 C   0  0  0  0  0  0  0  0  0  0  0  0
    9.2850   -3.7090   25.1090 C   0  0  0  0  0  0  0  0  0  0  0  0
    9.3300   -1.3350   23.6390 C   0  0  0  0  0  0  0  0  0  0  0  0
   11.5121    1.1453   23.4257 C   0  0  0  0  0  0  0  0  0  0  0  0
    5.9810    0.8330   18.8060 C   0  0  0  0  0  0  0  0  0  0  0  0
    7.2210   -0.4620   20.0350 C   0  0  0  0  0  0  0  0  0  0  0  0
    8.9510    0.1280   21.6880 C   0  0  0  0  0  0  0  0  0  0  0  0
    9.2618   -4.9724   25.8910 C   0  0  0  0  0  0  0  0  0  0  0  0
   14.8664    0.0395   22.7716 C   0  0  0  0  0  0  0  0  0  0  0  0
   10.0220    1.0430   23.6570 C   0  0  0  0  0  0  0  0  0  0  0  0
    9.4200   -0.0840   22.9530 C   0  0  1  0  0  0  0  0  0  0  0  0
   13.5967    2.0476   23.1851 N   0  0  0  0  0  0  0  0  0  0  0  0
    6.9440    0.2550   18.0100 N   0  0  0  0  0  0  0  0  0  0  0  0
   13.6181    0.7115   23.0422 N   0  0  0  0  0  0  0  0  0  0  0  0
    8.0810   -0.9750   21.0820 N   0  0  0  0  0  0  0  0  0  0  0  0
    9.1870    1.1500   21.0630 O   0  0  0  0  0  0  0  0  0  0  0  0
    3.6256    2.0106   21.6303 H   0  0  0  0  0  0  0  0  0  0  0  0
    3.2724    2.7868   19.3204 H   0  0  0  0  0  0  0  0  0  0  0  0
    5.4858    0.4664   22.1692 H   0  0  0  0  0  0  0  0  0  0  0  0
    7.5655   -2.8644   26.1055 H   0  0  0  0  0  0  0  0  0  0  0  0
   11.0125   -4.2662   23.9435 H   0  0  0  0  0  0  0  0  0  0  0  0
    7.5953   -0.7782   24.7971 H   0  0  0  0  0  0  0  0  0  0  0  0
   11.0394   -2.1837   22.6349 H   0  0  0  0  0  0  0  0  0  0  0  0
    4.7836    2.0664   17.4848 H   0  0  0  0  0  0  0  0  0  0  0  0
   12.0040    3.3322   23.5761 H   0  0  0  0  0  0  0  0  0  0  0  0
   12.2609   -0.9465   23.0878 H   0  0  0  0  0  0  0  0  0  0  0  0
    8.5274   -1.0858   18.3384 H   0  0  0  0  0  0  0  0  0  0  0  0
    8.6408   -5.7227   25.3864 H   0  0  0  0  0  0  0  0  0  0  0  0
   10.2726   -5.3829   26.0135 H   0  0  0  0  0  0  0  0  0  0  0  0
    8.8606   -4.8102   26.9000 H   0  0  0  0  0  0  0  0  0  0  0  0
   14.9942   -0.0107   21.6871 H   0  0  0  0  0  0  0  0  0  0  0  0
   15.6877    0.5992   23.2278 H   0  0  0  0  0  0  0  0  0  0  0  0
   14.8362   -0.9658   23.2010 H   0  0  0  0  0  0  0  0  0  0  0  0
    9.8253    0.9889   24.7357 H   0  0  0  0  0  0  0  0  0  0  0  0
    9.5635    1.9845   23.3241 H   0  0  0  0  0  0  0  0  0  0  0  0
    8.1288    0.3205   23.5156 H   0  0  0  0  0  0  0  0  0  0  0  0
    7.0325    0.4238   17.0175 H   0  0  0  0  0  0  0  0  0  0  0  0
    8.1175   -1.8104   21.3538 H   0  0  0  0  0  0  0  0  0  0  0  0
  1  2  1  0  0  0  0
  1  3  2  0  0  0  0
  2  8  2  0  0  0  0
  3 12  1  0  0  0  0
  4  6  2  0  0  0  0
  4 13  1  0  0  0  0
  5  7  1  0  0  0  0
  5 13  2  0  0  0  0
  6 14  1  0  0  0  0
  7 14  2  0  0  0  0
  8 16  1  0  0  0  0
  9 15  1  0  0  0  0
  9 23  2  0  0  0  0
 10 15  2  0  0  0  0
 10 25  1  0  0  0  0
 11 17  2  0  0  0  0
 11 24  1  0  0  0  0
 12 16  2  0  0  0  0
 12 17  1  0  0  0  0
 13 19  1  0  0  0  0
 14 22  1  0  0  0  0
 15 21  1  0  0  0  0
 16 24  1  0  0  0  0
 17 26  1  0  0  0  0
 18 22  1  0  0  0  0
 18 26  1  0  0  0  0
 18 27  2  0  0  0  0
 20 25  1  0  0  0  0
 21 22  1  1  0  0  0
 23 25  1  0  0  0  0
  1 28  1  0  0  0  0
  2 29  1  0  0  0  0
  3 30  1  0  0  0  0
  4 31  1  0  0  0  0
  5 32  1  0  0  0  0
  6 33  1  0  0  0  0
  7 34  1  0  0  0  0
  8 35  1  0  0  0  0
  9 36  1  0  0  0  0
 10 37  1  0  0  0  0
 11 38  1  0  0  0  0
 19 39  1  0  0  0  0
 19 40  1  0  0  0  0
 19 41  1  0  0  0  0
 20 42  1  0  0  0  0
 20 43  1  0  0  0  0
 20 44  1  0  0  0  0
 21 45  1  0  0  0  0
 21 46  1  0  0  0  0
 22 47  1  0  0  0  0
 24 48  1  0  0  0  0
 26 49  1  0  0  0  0
M  END
> <clash_score>
0

> <docking_score>
-8.944151878356934

> <overlap_score>
0.984073281288147

$$$$
BENZO_297_2
  -OEChem-08222022413D

 50 53  0     1  0  0  0  0  0999 V2000
   13.8295    0.0638   25.4018 C   0  0  0  0  0  0  0  0  0  0  0  0
    4.2970    1.6690   20.8430 C   0  0  0  0  0  0  0  0  0  0  0  0
   12.6583   -0.1175   26.1373 C   0  0  0  0  0  0  0  0  0  0  0  0
   13.7659    0.5627   24.1007 C   0  0  0  0  0  0  0  0  0  0  0  0
    4.0980    2.1130   19.5350 C   0  0  0  0  0  0  0  0  0  0  0  0
    5.3360    0.8000   21.1530 C   0  0  0  0  0  0  0  0  0  0  0  0
   11.4234    0.2001   25.5717 C   0  0  0  0  0  0  0  0  0  0  0  0
   12.5310    0.8802   23.5351 C   0  0  0  0  0  0  0  0  0  0  0  0
    8.3510   -1.5420   24.6110 C   0  0  0  0  0  0  0  0  0  0  0  0
   10.2760   -2.3270   23.4020 C   0  0  0  0  0  0  0  0  0  0  0  0
    4.9400    1.7060   18.5060 C   0  0  0  0  0  0  0  0  0  0  0  0
    8.3310   -2.7170   25.3430 C   0  0  0  0  0  0  0  0  0  0  0  0
   10.2570   -3.5000   24.1350 C   0  0  0  0  0  0  0  0  0  0  0  0
    7.6830   -0.5170   18.7600 C   0  0  0  0  0  0  0  0  0  0  0  0
    6.1600    0.3870   20.1140 C   0  0  0  0  0  0  0  0  0  0  0  0
   11.3598    0.6989   24.2706 C   0  0  0  0  0  0  0  0  0  0  0  0
    9.3300   -1.3350   23.6390 C   0  0  0  0  0  0  0  0  0  0  0  0
    5.9810    0.8330   18.8060 C   0  0  0  0  0  0  0  0  0  0  0  0
    7.2210   -0.4620   20.0350 C   0  0  0  0  0  0  0  0  0  0  0  0
    9.2850   -3.7090   25.1090 C   0  0  0  0  0  0  0  0  0  0  0  0
    8.9510    0.1280   21.6880 C   0  0  0  0  0  0  0  0  0  0  0  0
    8.2358   -4.9962   26.8042 C   0  0  0  0  0  0  0  0  0  0  0  0
   10.0220    1.0430   23.6570 C   0  0  0  0  0  0  0  0  0  0  0  0
    9.4200   -0.0840   22.9530 C   0  0  2  0  0  0  0  0  0  0  0  0
    6.9440    0.2550   18.0100 N   0  0  0  0  0  0  0  0  0  0  0  0
    8.0810   -0.9750   21.0820 N   0  0  0  0  0  0  0  0  0  0  0  0
    9.1870    1.1500   21.0630 O   0  0  0  0  0  0  0  0  0  0  0  0
    9.2637   -4.8607   25.8240 O   0  0  0  0  0  0  0  0  0  0  0  0
   14.7910   -0.1822   25.8428 H   0  0  0  0  0  0  0  0  0  0  0  0
    3.6256    2.0106   21.6303 H   0  0  0  0  0  0  0  0  0  0  0  0
   12.7077   -0.5049   27.1507 H   0  0  0  0  0  0  0  0  0  0  0  0
   14.6777    0.7050   23.5282 H   0  0  0  0  0  0  0  0  0  0  0  0
    3.2724    2.7868   19.3204 H   0  0  0  0  0  0  0  0  0  0  0  0
    5.4858    0.4664   22.1692 H   0  0  0  0  0  0  0  0  0  0  0  0
   10.5160    0.0554   26.1521 H   0  0  0  0  0  0  0  0  0  0  0  0
   12.4911    1.2683   22.5207 H   0  0  0  0  0  0  0  0  0  0  0  0
    7.5962   -0.7776   24.7981 H   0  0  0  0  0  0  0  0  0  0  0  0
   11.0395   -2.1843   22.6346 H   0  0  0  0  0  0  0  0  0  0  0  0
    4.7836    2.0664   17.4848 H   0  0  0  0  0  0  0  0  0  0  0  0
    7.5664   -2.8672   26.1058 H   0  0  0  0  0  0  0  0  0  0  0  0
   11.0120   -4.2666   23.9463 H   0  0  0  0  0  0  0  0  0  0  0  0
    8.5274   -1.0858   18.3384 H   0  0  0  0  0  0  0  0  0  0  0  0
    8.3326   -5.9634   27.3035 H   0  0  0  0  0  0  0  0  0  0  0  0
    7.2583   -4.9194   26.3215 H   0  0  0  0  0  0  0  0  0  0  0  0
    8.3398   -4.1963   27.5412 H   0  0  0  0  0  0  0  0  0  0  0  0
    9.3529    1.4272   24.4380 H   0  0  0  0  0  0  0  0  0  0  0  0
   10.1743    1.8827   22.9648 H   0  0  0  0  0  0  0  0  0  0  0  0
   10.7346   -0.4307   22.4468 H   0  0  0  0  0  0  0  0  0  0  0  0
    7.0325    0.4238   17.0175 H   0  0  0  0  0  0  0  0  0  0  0  0
    8.1175   -1.8104   21.3538 H   0  0  0  0  0  0  0  0  0  0  0  0
  1  3  1  0  0  0  0
  1  4  2  0  0  0  0
  2  5  1  0  0  0  0
  2  6  2  0  0  0  0
  3  7  2  0  0  0  0
  4  8  1  0  0  0  0
  5 11  2  0  0  0  0
  6 15  1  0  0  0  0
  7 16  1  0  0  0  0
  8 16  2  0  0  0  0
  9 12  2  0  0  0  0
  9 17  1  0  0  0  0
 10 13  1  0  0  0  0
 10 17  2  0  0  0  0
 11 18  1  0  0  0  0
 12 20  1  0  0  0  0
 13 20  2  0  0  0  0
 14 19  2  0  0  0  0
 14 25  1  0  0  0  0
 15 18  2  0  0  0  0
 15 19  1  0  0  0  0
 16 23  1  0  0  0  0
 17 24  1  0  0  0  0
 18 25  1  0  0  0  0
 19 26  1  0  0  0  0
 20 28  1  0  0  0  0
 21 24  1  0  0  0  0
 21 26  1  0  0  0  0
 21 27  2  0  0  0  0
 22 28  1  0  0  0  0
 23 24  1  6  0  0  0
  1 29  1  0  0  0  0
  2 30  1  0  0  0  0
  3 31  1  0  0  0  0
  4 32  1  0  0  0  0
  5 33  1  0  0  0  0
  6 34  1  0  0  0  0
  7 35  1  0  0  0  0
  8 36  1  0  0  0  0
  9 37  1  0  0  0  0
 10 38  1  0  0  0  0
 11 39  1  0  0  0  0
 12 40  1  0  0  0  0
 13 41  1  0  0  0  0
 14 42  1  0  0  0  0
 22 43  1  0  0  0  0
 22 44  1  0  0  0  0
 22 45  1  0  0  0  0
 23 46  1  0  0  0  0
 23 47  1  0  0  0  0
 24 48  1  0  0  0  0
 25 49  1  0  0  0  0
 26 50  1  0  0  0  0
M  END
> <clash_score>
0.6066495913934196

> <docking_score>
-6.945695400238037

> <overlap_score>
0.9279404282569885

$$$$
BENZO_297_1
  -OEChem-08222022413D

 50 53  0     1  0  0  0  0  0999 V2000
   14.2623    1.3345   22.9975 C   0  0  0  0  0  0  0  0  0  0  0  0
    4.2970    1.6690   20.8430 C   0  0  0  0  0  0  0  0  0  0  0  0
   13.7729    0.5817   24.0649 C   0  0  0  0  0  0  0  0  0  0  0  0
   13.3767    1.9928   22.1442 C   0  0  0  0  0  0  0  0  0  0  0  0
    4.0980    2.1130   19.5350 C   0  0  0  0  0  0  0  0  0  0  0  0
    5.3360    0.8000   21.1530 C   0  0  0  0  0  0  0  0  0  0  0  0
   12.3978    0.4871   24.2790 C   0  0  0  0  0  0  0  0  0  0  0  0
   12.0016    1.8981   22.3583 C   0  0  0  0  0  0  0  0  0  0  0  0
    8.3510   -1.5420   24.6110 C   0  0  0  0  0  0  0  0  0  0  0  0
   10.2760   -2.3270   23.4020 C   0  0  0  0  0  0  0  0  0  0  0  0
    4.9400    1.7060   18.5060 C   0  0  0  0  0  0  0  0  0  0  0  0
    8.3310   -2.7170   25.3430 C   0  0  0  0  0  0  0  0  0  0  0  0
   10.2570   -3.5000   24.1350 C   0  0  0  0  0  0  0  0  0  0  0  0
    7.6830   -0.5170   18.7600 C   0  0  0  0  0  0  0  0  0  0  0  0
    6.1600    0.3870   20.1140 C   0  0  0  0  0  0  0  0  0  0  0  0
   11.5121    1.1453   23.4257 C   0  0  0  0  0  0  0  0  0  0  0  0
    9.3300   -1.3350   23.6390 C   0  0  0  0  0  0  0  0  0  0  0  0
    5.9810    0.8330   18.8060 C   0  0  0  0  0  0  0  0  0  0  0  0
    7.2210   -0.4620   20.0350 C   0  0  0  0  0  0  0  0  0  0  0  0
    9.2850   -3.7090   25.1090 C   0  0  0  0  0  0  0  0  0  0  0  0
    8.9510    0.1280   21.6880 C   0  0  0  0  0  0  0  0  0  0  0  0
    8.2358   -4.9962   26.8042 C   0  0  0  0  0  0  0  0  0  0  0  0
   10.0220    1.0430   23.6570 C   0  0  0  0  0  0  0  0  0  0  0  0
    9.4200   -0.0840   22.9530 C   0  0  1  0  0  0  0  0  0  0  0  0
    6.9440    0.2550   18.0100 N   0  0  0  0  0  0  0  0  0  0  0  0
    8.0810   -0.9750   21.0820 N   0  0  0  0  0  0  0  0  0  0  0  0
    9.1870    1.1500   21.0630 O   0  0  0  0  0  0  0  0  0  0  0  0
    9.2637   -4.8607   25.8240 O   0  0  0  0  0  0  0  0  0  0  0  0
   15.3331    1.4092   22.8317 H   0  0  0  0  0  0  0  0  0  0  0  0
    3.6256    2.0106   21.6303 H   0  0  0  0  0  0  0  0  0  0  0  0
   14.4623    0.0700   24.7300 H   0  0  0  0  0  0  0  0  0  0  0  0
   13.7574    2.5799   21.3137 H   0  0  0  0  0  0  0  0  0  0  0  0
    3.2724    2.7868   19.3204 H   0  0  0  0  0  0  0  0  0  0  0  0
    5.4858    0.4664   22.1692 H   0  0  0  0  0  0  0  0  0  0  0  0
   12.0255   -0.1019   25.1131 H   0  0  0  0  0  0  0  0  0  0  0  0
   11.3191    2.4143   21.6883 H   0  0  0  0  0  0  0  0  0  0  0  0
    7.5962   -0.7776   24.7981 H   0  0  0  0  0  0  0  0  0  0  0  0
   11.0395   -2.1843   22.6346 H   0  0  0  0  0  0  0  0  0  0  0  0
    4.7836    2.0664   17.4848 H   0  0  0  0  0  0  0  0  0  0  0  0
    7.5664   -2.8672   26.1058 H   0  0  0  0  0  0  0  0  0  0  0  0
   11.0120   -4.2666   23.9463 H   0  0  0  0  0  0  0  0  0  0  0  0
    8.5274   -1.0858   18.3384 H   0  0  0  0  0  0  0  0  0  0  0  0
    8.3326   -5.9634   27.3035 H   0  0  0  0  0  0  0  0  0  0  0  0
    7.2583   -4.9194   26.3215 H   0  0  0  0  0  0  0  0  0  0  0  0
    8.3398   -4.1963   27.5412 H   0  0  0  0  0  0  0  0  0  0  0  0
    9.8253    0.9889   24.7357 H   0  0  0  0  0  0  0  0  0  0  0  0
    9.5635    1.9845   23.3241 H   0  0  0  0  0  0  0  0  0  0  0  0
    8.1288    0.3205   23.5156 H   0  0  0  0  0  0  0  0  0  0  0  0
    7.0325    0.4238   17.0175 H   0  0  0  0  0  0  0  0  0  0  0  0
    8.1175   -1.8104   21.3538 H   0  0  0  0  0  0  0  0  0  0  0  0
  1  3  1  0  0  0  0
  1  4  2  0  0  0  0
  2  5  1  0  0  0  0
  2  6  2  0  0  0  0
  3  7  2  0  0  0  0
  4  8  1  0  0  0  0
  5 11  2  0  0  0  0
  6 15  1  0  0  0  0
  7 16  1  0  0  0  0
  8 16  2  0  0  0  0
  9 12  2  0  0  0  0
  9 17  1  0  0  0  0
 10 13  1  0  0  0  0
 10 17  2  0  0  0  0
 11 18  1  0  0  0  0
 12 20  1  0  0  0  0
 13 20  2  0  0  0  0
 14 19  2  0  0  0  0
 14 25  1  0  0  0  0
 15 18  2  0  0  0  0
 15 19  1  0  0  0  0
 16 23  1  0  0  0  0
 17 24  1  0  0  0  0
 18 25  1  0  0  0  0
 19 26  1  0  0  0  0
 20 28  1  0  0  0  0
 21 24  1  0  0  0  0
 21 26  1  0  0  0  0
 21 27  2  0  0  0  0
 22 28  1  0  0  0  0
 23 24  1  1  0  0  0
  1 29  1  0  0  0  0
  2 30  1  0  0  0  0
  3 31  1  0  0  0  0
  4 32  1  0  0  0  0
  5 33  1  0  0  0  0
  6 34  1  0  0  0  0
  7 35  1  0  0  0  0
  8 36  1  0  0  0  0
  9 37  1  0  0  0  0
 10 38  1  0  0  0  0
 11 39  1  0  0  0  0
 12 40  1  0  0  0  0
 13 41  1  0  0  0  0
 14 42  1  0  0  0  0
 22 43  1  0  0  0  0
 22 44  1  0  0  0  0
 22 45  1  0  0  0  0
 23 46  1  0  0  0  0
 23 47  1  0  0  0  0
 24 48  1  0  0  0  0
 25 49  1  0  0  0  0
 26 50  1  0  0  0  0
M  END
> <clash_score>
0

> <docking_score>
-7.883218288421631

> <overlap_score>
1.005861520767212

$$$$
BENZO_296_1
  -OEChem-08222022413D

 47 50  0     1  0  0  0  0  0999 V2000
    4.2970    1.6690   20.8430 C   0  0  0  0  0  0  0  0  0  0  0  0
    4.0980    2.1130   19.5350 C   0  0  0  0  0  0  0  0  0  0  0  0
    5.3360    0.8000   21.1530 C   0  0  0  0  0  0  0  0  0  0  0  0
    8.3510   -1.5420   24.6110 C   0  0  0  0  0  0  0  0  0  0  0  0
   10.2760   -2.3270   23.4020 C   0  0  0  0  0  0  0  0  0  0  0  0
    4.9400    1.7060   18.5060 C   0  0  0  0  0  0  0  0  0  0  0  0
    8.3310   -2.7170   25.3430 C   0  0  0  0  0  0  0  0  0  0  0  0
   10.2570   -3.5000   24.1350 C   0  0  0  0  0  0  0  0  0  0  0  0
   12.2216    2.3786   23.3498 C   0  0  0  0  0  0  0  0  0  0  0  0
    7.6830   -0.5170   18.7600 C   0  0  0  0  0  0  0  0  0  0  0  0
   13.5684    2.1883   23.1319 C   0  0  0  0  0  0  0  0  0  0  0  0
   12.3438    0.0592   23.2626 C   0  0  0  0  0  0  0  0  0  0  0  0
    6.1600    0.3870   20.1140 C   0  0  0  0  0  0  0  0  0  0  0  0
    9.3300   -1.3350   23.6390 C   0  0  0  0  0  0  0  0  0  0  0  0
   11.5121    1.1453   23.4257 C   0  0  0  0  0  0  0  0  0  0  0  0
    5.9810    0.8330   18.8060 C   0  0  0  0  0  0  0  0  0  0  0  0
    7.2210   -0.4620   20.0350 C   0  0  0  0  0  0  0  0  0  0  0  0
    9.2850   -3.7090   25.1090 C   0  0  0  0  0  0  0  0  0  0  0  0
    8.9510    0.1280   21.6880 C   0  0  0  0  0  0  0  0  0  0  0  0
    8.2358   -4.9962   26.8042 C   0  0  0  0  0  0  0  0  0  0  0  0
   10.0220    1.0430   23.6570 C   0  0  0  0  0  0  0  0  0  0  0  0
    9.4200   -0.0840   22.9530 C   0  0  1  0  0  0  0  0  0  0  0  0
    6.9440    0.2550   18.0100 N   0  0  0  0  0  0  0  0  0  0  0  0
    8.0810   -0.9750   21.0820 N   0  0  0  0  0  0  0  0  0  0  0  0
    9.1870    1.1500   21.0630 O   0  0  0  0  0  0  0  0  0  0  0  0
    9.2637   -4.8607   25.8240 O   0  0  0  0  0  0  0  0  0  0  0  0
   13.9727    0.5281   23.0196 S   0  0  0  0  0  0  0  0  0  0  0  0
    3.6256    2.0106   21.6303 H   0  0  0  0  0  0  0  0  0  0  0  0
    3.2724    2.7868   19.3204 H   0  0  0  0  0  0  0  0  0  0  0  0
    5.4858    0.4664   22.1692 H   0  0  0  0  0  0  0  0  0  0  0  0
    7.5962   -0.7776   24.7981 H   0  0  0  0  0  0  0  0  0  0  0  0
   11.0395   -2.1843   22.6346 H   0  0  0  0  0  0  0  0  0  0  0  0
    4.7836    2.0664   17.4848 H   0  0  0  0  0  0  0  0  0  0  0  0
    7.5664   -2.8672   26.1058 H   0  0  0  0  0  0  0  0  0  0  0  0
   11.0120   -4.2666   23.9463 H   0  0  0  0  0  0  0  0  0  0  0  0
   11.7708    3.3580   23.4491 H   0  0  0  0  0  0  0  0  0  0  0  0
    8.5274   -1.0858   18.3384 H   0  0  0  0  0  0  0  0  0  0  0  0
   14.3341    2.9446   23.0326 H   0  0  0  0  0  0  0  0  0  0  0  0
   12.0768   -0.9885   23.2727 H   0  0  0  0  0  0  0  0  0  0  0  0
    8.3326   -5.9634   27.3035 H   0  0  0  0  0  0  0  0  0  0  0  0
    7.2583   -4.9194   26.3215 H   0  0  0  0  0  0  0  0  0  0  0  0
    8.3398   -4.1963   27.5412 H   0  0  0  0  0  0  0  0  0  0  0  0
    9.8253    0.9889   24.7357 H   0  0  0  0  0  0  0  0  0  0  0  0
    9.5635    1.9845   23.3241 H   0  0  0  0  0  0  0  0  0  0  0  0
    8.1288    0.3205   23.5156 H   0  0  0  0  0  0  0  0  0  0  0  0
    7.0325    0.4238   17.0175 H   0  0  0  0  0  0  0  0  0  0  0  0
    8.1175   -1.8104   21.3538 H   0  0  0  0  0  0  0  0  0  0  0  0
  1  2  1  0  0  0  0
  1  3  2  0  0  0  0
  2  6  2  0  0  0  0
  3 13  1  0  0  0  0
  4  7  2  0  0  0  0
  4 14  1  0  0  0  0
  5  8  1  0  0  0  0
  5 14  2  0  0  0  0
  6 16  1  0  0  0  0
  7 18  1  0  0  0  0
  8 18  2  0  0  0  0
  9 11  2  0  0  0  0
  9 15  1  0  0  0  0
 10 17  2  0  0  0  0
 10 23  1  0  0  0  0
 11 27  1  0  0  0  0
 12 15  2  0  0  0  0
 12 27  1  0  0  0  0
 13 16  2  0  0  0  0
 13 17  1  0  0  0  0
 14 22  1  0  0  0  0
 15 21  1  0  0  0  0
 16 23  1  0  0  0  0
 17 24  1  0  0  0  0
 18 26  1  0  0  0  0
 19 22  1  0  0  0  0
 19 24  1  0  0  0  0
 19 25  2  0  0  0  0
 20 26  1  0  0  0  0
 21 22  1  1  0  0  0
  1 28  1  0  0  0  0
  2 29  1  0  0  0  0
  3 30  1  0  0  0  0
  4 31  1  0  0  0  0
  5 32  1  0  0  0  0
  6 33  1  0  0  0  0
  7 34  1  0  0  0  0
  8 35  1  0  0  0  0
  9 36  1  0  0  0  0
 10 37  1  0  0  0  0
 11 38  1  0  0  0  0
 12 39  1  0  0  0  0
 20 40  1  0  0  0  0
 20 41  1  0  0  0  0
 20 42  1  0  0  0  0
 21 43  1  0  0  0  0
 21 44  1  0  0  0  0
 22 45  1  0  0  0  0
 23 46  1  0  0  0  0
 24 47  1  0  0  0  0
M  END
> <clash_score>
0

> <docking_score>
-8.779464721679688

> <overlap_score>
0.9932423830032349

$$$$
BENZO_296_2
  -OEChem-08222022413D

 47 50  0     1  0  0  0  0  0999 V2000
    4.2970    1.6690   20.8430 C   0  0  0  0  0  0  0  0  0  0  0  0
    4.0980    2.1130   19.5350 C   0  0  0  0  0  0  0  0  0  0  0  0
    5.3360    0.8000   21.1530 C   0  0  0  0  0  0  0  0  0  0  0  0
    8.3510   -1.5420   24.6110 C   0  0  0  0  0  0  0  0  0  0  0  0
   10.2760   -2.3270   23.4020 C   0  0  0  0  0  0  0  0  0  0  0  0
    4.9400    1.7060   18.5060 C   0  0  0  0  0  0  0  0  0  0  0  0
    8.3310   -2.7170   25.3430 C   0  0  0  0  0  0  0  0  0  0  0  0
   10.2570   -3.5000   24.1350 C   0  0  0  0  0  0  0  0  0  0  0  0
   11.0468    0.9536   26.0357 C   0  0  0  0  0  0  0  0  0  0  0  0
    7.6830   -0.5170   18.7600 C   0  0  0  0  0  0  0  0  0  0  0  0
   12.1250    0.4348   26.7183 C   0  0  0  0  0  0  0  0  0  0  0  0
   12.1733   -0.1537   24.3307 C   0  0  0  0  0  0  0  0  0  0  0  0
    6.1600    0.3870   20.1140 C   0  0  0  0  0  0  0  0  0  0  0  0
    9.3300   -1.3350   23.6390 C   0  0  0  0  0  0  0  0  0  0  0  0
   11.0747    0.6126   24.6525 C   0  0  0  0  0  0  0  0  0  0  0  0
    5.9810    0.8330   18.8060 C   0  0  0  0  0  0  0  0  0  0  0  0
    7.2210   -0.4620   20.0350 C   0  0  0  0  0  0  0  0  0  0  0  0
    9.2850   -3.7090   25.1090 C   0  0  0  0  0  0  0  0  0  0  0  0
    8.9510    0.1280   21.6880 C   0  0  0  0  0  0  0  0  0  0  0  0
    8.2358   -4.9962   26.8042 C   0  0  0  0  0  0  0  0  0  0  0  0
   10.0220    1.0430   23.6570 C   0  0  0  0  0  0  0  0  0  0  0  0
    9.4200   -0.0840   22.9530 C   0  0  2  0  0  0  0  0  0  0  0  0
    6.9440    0.2550   18.0100 N   0  0  0  0  0  0  0  0  0  0  0  0
    8.0810   -0.9750   21.0820 N   0  0  0  0  0  0  0  0  0  0  0  0
    9.1870    1.1500   21.0630 O   0  0  0  0  0  0  0  0  0  0  0  0
    9.2637   -4.8607   25.8240 O   0  0  0  0  0  0  0  0  0  0  0  0
   13.1649   -0.4592   25.6929 S   0  0  0  0  0  0  0  0  0  0  0  0
    3.6256    2.0106   21.6303 H   0  0  0  0  0  0  0  0  0  0  0  0
    3.2724    2.7868   19.3204 H   0  0  0  0  0  0  0  0  0  0  0  0
    5.4858    0.4664   22.1692 H   0  0  0  0  0  0  0  0  0  0  0  0
    7.5962   -0.7776   24.7981 H   0  0  0  0  0  0  0  0  0  0  0  0
   11.0395   -2.1843   22.6346 H   0  0  0  0  0  0  0  0  0  0  0  0
    4.7836    2.0664   17.4848 H   0  0  0  0  0  0  0  0  0  0  0  0
    7.5664   -2.8672   26.1058 H   0  0  0  0  0  0  0  0  0  0  0  0
   11.0120   -4.2666   23.9463 H   0  0  0  0  0  0  0  0  0  0  0  0
   10.2771    1.5493   26.5100 H   0  0  0  0  0  0  0  0  0  0  0  0
    8.5274   -1.0858   18.3384 H   0  0  0  0  0  0  0  0  0  0  0  0
   12.3522    0.5386   27.7699 H   0  0  0  0  0  0  0  0  0  0  0  0
   12.4454   -0.5497   23.3621 H   0  0  0  0  0  0  0  0  0  0  0  0
    8.3326   -5.9634   27.3035 H   0  0  0  0  0  0  0  0  0  0  0  0
    7.2583   -4.9194   26.3215 H   0  0  0  0  0  0  0  0  0  0  0  0
    8.3398   -4.1963   27.5412 H   0  0  0  0  0  0  0  0  0  0  0  0
    9.2602    1.6432   24.1714 H   0  0  0  0  0  0  0  0  0  0  0  0
   10.4960    1.7269   22.9392 H   0  0  0  0  0  0  0  0  0  0  0  0
   10.7346   -0.4307   22.4468 H   0  0  0  0  0  0  0  0  0  0  0  0
    7.0325    0.4238   17.0175 H   0  0  0  0  0  0  0  0  0  0  0  0
    8.1175   -1.8104   21.3538 H   0  0  0  0  0  0  0  0  0  0  0  0
  1  2  1  0  0  0  0
  1  3  2  0  0  0  0
  2  6  2  0  0  0  0
  3 13  1  0  0  0  0
  4  7  2  0  0  0  0
  4 14  1  0  0  0  0
  5  8  1  0  0  0  0
  5 14  2  0  0  0  0
  6 16  1  0  0  0  0
  7 18  1  0  0  0  0
  8 18  2  0  0  0  0
  9 11  2  0  0  0  0
  9 15  1  0  0  0  0
 10 17  2  0  0  0  0
 10 23  1  0  0  0  0
 11 27  1  0  0  0  0
 12 15  2  0  0  0  0
 12 27  1  0  0  0  0
 13 16  2  0  0  0  0
 13 17  1  0  0  0  0
 14 22  1  0  0  0  0
 15 21  1  0  0  0  0
 16 23  1  0  0  0  0
 17 24  1  0  0  0  0
 18 26  1  0  0  0  0
 19 22  1  0  0  0  0
 19 24  1  0  0  0  0
 19 25  2  0  0  0  0
 20 26  1  0  0  0  0
 21 22  1  6  0  0  0
  1 28  1  0  0  0  0
  2 29  1  0  0  0  0
  3 30  1  0  0  0  0
  4 31  1  0  0  0  0
  5 32  1  0  0  0  0
  6 33  1  0  0  0  0
  7 34  1  0  0  0  0
  8 35  1  0  0  0  0
  9 36  1  0  0  0  0
 10 37  1  0  0  0  0
 11 38  1  0  0  0  0
 12 39  1  0  0  0  0
 20 40  1  0  0  0  0
 20 41  1  0  0  0  0
 20 42  1  0  0  0  0
 21 43  1  0  0  0  0
 21 44  1  0  0  0  0
 22 45  1  0  0  0  0
 23 46  1  0  0  0  0
 24 47  1  0  0  0  0
M  END
> <clash_score>
0

> <docking_score>
-5.9398698806762695

> <overlap_score>
0.8776482939720154

$$$$
BENZO_298_2
  -OEChem-08222022413D

 50 53  0     1  0  0  0  0  0999 V2000
    4.2970    1.6690   20.8430 C   0  0  0  0  0  0  0  0  0  0  0  0
    4.0980    2.1130   19.5350 C   0  0  0  0  0  0  0  0  0  0  0  0
   12.6560   -0.1194   26.1379 C   0  0  0  0  0  0  0  0  0  0  0  0
    5.3360    0.8000   21.1530 C   0  0  0  0  0  0  0  0  0  0  0  0
   11.4219    0.1994   25.5714 C   0  0  0  0  0  0  0  0  0  0  0  0
    8.3510   -1.5420   24.6110 C   0  0  0  0  0  0  0  0  0  0  0  0
   10.2760   -2.3270   23.4020 C   0  0  0  0  0  0  0  0  0  0  0  0
    4.9400    1.7060   18.5060 C   0  0  0  0  0  0  0  0  0  0  0  0
    8.3310   -2.7170   25.3430 C   0  0  0  0  0  0  0  0  0  0  0  0
   10.2570   -3.5000   24.1350 C   0  0  0  0  0  0  0  0  0  0  0  0
   13.8281    0.0614   25.4035 C   0  0  0  0  0  0  0  0  0  0  0  0
   12.5318    0.8798   23.5362 C   0  0  0  0  0  0  0  0  0  0  0  0
    7.6830   -0.5170   18.7600 C   0  0  0  0  0  0  0  0  0  0  0  0
    6.1600    0.3870   20.1140 C   0  0  0  0  0  0  0  0  0  0  0  0
    9.3300   -1.3350   23.6390 C   0  0  0  0  0  0  0  0  0  0  0  0
   11.3597    0.6989   24.2706 C   0  0  0  0  0  0  0  0  0  0  0  0
    5.9810    0.8330   18.8060 C   0  0  0  0  0  0  0  0  0  0  0  0
    7.2210   -0.4620   20.0350 C   0  0  0  0  0  0  0  0  0  0  0  0
    9.2850   -3.7090   25.1090 C   0  0  0  0  0  0  0  0  0  0  0  0
   13.7660    0.5610   24.1027 C   0  0  0  0  0  0  0  0  0  0  0  0
    8.9510    0.1280   21.6880 C   0  0  0  0  0  0  0  0  0  0  0  0
    8.2358   -4.9962   26.8042 C   0  0  0  0  0  0  0  0  0  0  0  0
   10.0220    1.0430   23.6570 C   0  0  0  0  0  0  0  0  0  0  0  0
    9.4200   -0.0840   22.9530 C   0  0  2  0  0  0  0  0  0  0  0  0
    6.9440    0.2550   18.0100 N   0  0  0  0  0  0  0  0  0  0  0  0
    8.0810   -0.9750   21.0820 N   0  0  0  0  0  0  0  0  0  0  0  0
    9.1870    1.1500   21.0630 O   0  0  0  0  0  0  0  0  0  0  0  0
    9.2637   -4.8607   25.8240 O   0  0  0  0  0  0  0  0  0  0  0  0
   15.2122    0.7829   23.1967 Cl  0  0  0  0  0  0  0  0  0  0  0  0
    3.6256    2.0106   21.6303 H   0  0  0  0  0  0  0  0  0  0  0  0
    3.2724    2.7868   19.3204 H   0  0  0  0  0  0  0  0  0  0  0  0
   12.7039   -0.5086   27.1508 H   0  0  0  0  0  0  0  0  0  0  0  0
    5.4858    0.4664   22.1692 H   0  0  0  0  0  0  0  0  0  0  0  0
   10.5137    0.0551   26.1509 H   0  0  0  0  0  0  0  0  0  0  0  0
    7.5962   -0.7776   24.7981 H   0  0  0  0  0  0  0  0  0  0  0  0
   11.0395   -2.1843   22.6346 H   0  0  0  0  0  0  0  0  0  0  0  0
    4.7836    2.0664   17.4848 H   0  0  0  0  0  0  0  0  0  0  0  0
    7.5664   -2.8672   26.1058 H   0  0  0  0  0  0  0  0  0  0  0  0
   11.0120   -4.2666   23.9463 H   0  0  0  0  0  0  0  0  0  0  0  0
   14.7829   -0.1916   25.8577 H   0  0  0  0  0  0  0  0  0  0  0  0
   12.4781    1.2701   22.5225 H   0  0  0  0  0  0  0  0  0  0  0  0
    8.5274   -1.0858   18.3384 H   0  0  0  0  0  0  0  0  0  0  0  0
    8.3326   -5.9634   27.3035 H   0  0  0  0  0  0  0  0  0  0  0  0
    7.2583   -4.9194   26.3215 H   0  0  0  0  0  0  0  0  0  0  0  0
    8.3398   -4.1963   27.5412 H   0  0  0  0  0  0  0  0  0  0  0  0
    9.3529    1.4272   24.4380 H   0  0  0  0  0  0  0  0  0  0  0  0
   10.1743    1.8827   22.9648 H   0  0  0  0  0  0  0  0  0  0  0  0
   10.7346   -0.4307   22.4468 H   0  0  0  0  0  0  0  0  0  0  0  0
    7.0325    0.4238   17.0175 H   0  0  0  0  0  0  0  0  0  0  0  0
    8.1175   -1.8104   21.3538 H   0  0  0  0  0  0  0  0  0  0  0  0
  1  2  1  0  0  0  0
  1  4  2  0  0  0  0
  2  8  2  0  0  0  0
  3  5  2  0  0  0  0
  3 11  1  0  0  0  0
  4 14  1  0  0  0  0
  5 16  1  0  0  0  0
  6  9  2  0  0  0  0
  6 15  1  0  0  0  0
  7 10  1  0  0  0  0
  7 15  2  0  0  0  0
  8 17  1  0  0  0  0
  9 19  1  0  0  0  0
 10 19  2  0  0  0  0
 11 20  2  0  0  0  0
 12 16  2  0  0  0  0
 12 20  1  0  0  0  0
 13 18  2  0  0  0  0
 13 25  1  0  0  0  0
 14 17  2  0  0  0  0
 14 18  1  0  0  0  0
 15 24  1  0  0  0  0
 16 23  1  0  0  0  0
 17 25  1  0  0  0  0
 18 26  1  0  0  0  0
 19 28  1  0  0  0  0
 20 29  1  0  0  0  0
 21 24  1  0  0  0  0
 21 26  1  0  0  0  0
 21 27  2  0  0  0  0
 22 28  1  0  0  0  0
 23 24  1  6  0  0  0
  1 30  1  0  0  0  0
  2 31  1  0  0  0  0
  3 32  1  0  0  0  0
  4 33  1  0  0  0  0
  5 34  1  0  0  0  0
  6 35  1  0  0  0  0
  7 36  1  0  0  0  0
  8 37  1  0  0  0  0
  9 38  1  0  0  0  0
 10 39  1  0  0  0  0
 11 40  1  0  0  0  0
 12 41  1  0  0  0  0
 13 42  1  0  0  0  0
 22 43  1  0  0  0  0
 22 44  1  0  0  0  0
 22 45  1  0  0  0  0
 23 46  1  0  0  0  0
 23 47  1  0  0  0  0
 24 48  1  0  0  0  0
 25 49  1  0  0  0  0
 26 50  1  0  0  0  0
M  END
> <clash_score>
0.6070843862996379

> <docking_score>
-6.018249034881592

> <overlap_score>
0.9371460676193237

$$$$
BENZO_298_1
  -OEChem-08222022413D

 50 53  0     1  0  0  0  0  0999 V2000
    4.2970    1.6690   20.8430 C   0  0  0  0  0  0  0  0  0  0  0  0
    4.0980    2.1130   19.5350 C   0  0  0  0  0  0  0  0  0  0  0  0
   13.7719    0.5789   24.0657 C   0  0  0  0  0  0  0  0  0  0  0  0
    5.3360    0.8000   21.1530 C   0  0  0  0  0  0  0  0  0  0  0  0
   12.3966    0.4859   24.2792 C   0  0  0  0  0  0  0  0  0  0  0  0
    8.3510   -1.5420   24.6110 C   0  0  0  0  0  0  0  0  0  0  0  0
   10.2760   -2.3270   23.4020 C   0  0  0  0  0  0  0  0  0  0  0  0
    4.9400    1.7060   18.5060 C   0  0  0  0  0  0  0  0  0  0  0  0
    8.3310   -2.7170   25.3430 C   0  0  0  0  0  0  0  0  0  0  0  0
   10.2570   -3.5000   24.1350 C   0  0  0  0  0  0  0  0  0  0  0  0
   14.2627    1.3315   22.9987 C   0  0  0  0  0  0  0  0  0  0  0  0
   12.0029    1.8979   22.3587 C   0  0  0  0  0  0  0  0  0  0  0  0
    7.6830   -0.5170   18.7600 C   0  0  0  0  0  0  0  0  0  0  0  0
    6.1600    0.3870   20.1140 C   0  0  0  0  0  0  0  0  0  0  0  0
    9.3300   -1.3350   23.6390 C   0  0  0  0  0  0  0  0  0  0  0  0
   11.5121    1.1453   23.4257 C   0  0  0  0  0  0  0  0  0  0  0  0
    5.9810    0.8330   18.8060 C   0  0  0  0  0  0  0  0  0  0  0  0
    7.2210   -0.4620   20.0350 C   0  0  0  0  0  0  0  0  0  0  0  0
    9.2850   -3.7090   25.1090 C   0  0  0  0  0  0  0  0  0  0  0  0
   13.3782    1.9909   22.1452 C   0  0  0  0  0  0  0  0  0  0  0  0
    8.9510    0.1280   21.6880 C   0  0  0  0  0  0  0  0  0  0  0  0
    8.2358   -4.9962   26.8042 C   0  0  0  0  0  0  0  0  0  0  0  0
   10.0220    1.0430   23.6570 C   0  0  0  0  0  0  0  0  0  0  0  0
    9.4200   -0.0840   22.9530 C   0  0  1  0  0  0  0  0  0  0  0  0
    6.9440    0.2550   18.0100 N   0  0  0  0  0  0  0  0  0  0  0  0
    8.0810   -0.9750   21.0820 N   0  0  0  0  0  0  0  0  0  0  0  0
    9.1870    1.1500   21.0630 O   0  0  0  0  0  0  0  0  0  0  0  0
    9.2637   -4.8607   25.8240 O   0  0  0  0  0  0  0  0  0  0  0  0
   13.9842    2.9183   20.8282 Cl  0  0  0  0  0  0  0  0  0  0  0  0
    3.6256    2.0106   21.6303 H   0  0  0  0  0  0  0  0  0  0  0  0
    3.2724    2.7868   19.3204 H   0  0  0  0  0  0  0  0  0  0  0  0
   14.4603    0.0652   24.7305 H   0  0  0  0  0  0  0  0  0  0  0  0
    5.4858    0.4664   22.1692 H   0  0  0  0  0  0  0  0  0  0  0  0
   12.0231   -0.1028   25.1130 H   0  0  0  0  0  0  0  0  0  0  0  0
    7.5962   -0.7776   24.7981 H   0  0  0  0  0  0  0  0  0  0  0  0
   11.0395   -2.1843   22.6346 H   0  0  0  0  0  0  0  0  0  0  0  0
    4.7836    2.0664   17.4848 H   0  0  0  0  0  0  0  0  0  0  0  0
    7.5664   -2.8672   26.1058 H   0  0  0  0  0  0  0  0  0  0  0  0
   11.0120   -4.2666   23.9463 H   0  0  0  0  0  0  0  0  0  0  0  0
   15.3370    1.3949   22.8442 H   0  0  0  0  0  0  0  0  0  0  0  0
   11.3092    2.4106   21.6964 H   0  0  0  0  0  0  0  0  0  0  0  0
    8.5274   -1.0858   18.3384 H   0  0  0  0  0  0  0  0  0  0  0  0
    8.3326   -5.9634   27.3035 H   0  0  0  0  0  0  0  0  0  0  0  0
    7.2583   -4.9194   26.3215 H   0  0  0  0  0  0  0  0  0  0  0  0
    8.3398   -4.1963   27.5412 H   0  0  0  0  0  0  0  0  0  0  0  0
    9.8253    0.9889   24.7357 H   0  0  0  0  0  0  0  0  0  0  0  0
    9.5635    1.9845   23.3241 H   0  0  0  0  0  0  0  0  0  0  0  0
    8.1288    0.3205   23.5156 H   0  0  0  0  0  0  0  0  0  0  0  0
    7.0325    0.4238   17.0175 H   0  0  0  0  0  0  0  0  0  0  0  0
    8.1175   -1.8104   21.3538 H   0  0  0  0  0  0  0  0  0  0  0  0
  1  2  1  0  0  0  0
  1  4  2  0  0  0  0
  2  8  2  0  0  0  0
  3  5  2  0  0  0  0
  3 11  1  0  0  0  0
  4 14  1  0  0  0  0
  5 16  1  0  0  0  0
  6  9  2  0  0  0  0
  6 15  1  0  0  0  0
  7 10  1  0  0  0  0
  7 15  2  0  0  0  0
  8 17  1  0  0  0  0
  9 19  1  0  0  0  0
 10 19  2  0  0  0  0
 11 20  2  0  0  0  0
 12 16  2  0  0  0  0
 12 20  1  0  0  0  0
 13 18  2  0  0  0  0
 13 25  1  0  0  0  0
 14 17  2  0  0  0  0
 14 18  1  0  0  0  0
 15 24  1  0  0  0  0
 16 23  1  0  0  0  0
 17 25  1  0  0  0  0
 18 26  1  0  0  0  0
 19 28  1  0  0  0  0
 20 29  1  0  0  0  0
 21 24  1  0  0  0  0
 21 26  1  0  0  0  0
 21 27  2  0  0  0  0
 22 28  1  0  0  0  0
 23 24  1  1  0  0  0
  1 30  1  0  0  0  0
  2 31  1  0  0  0  0
  3 32  1  0  0  0  0
  4 33  1  0  0  0  0
  5 34  1  0  0  0  0
  6 35  1  0  0  0  0
  7 36  1  0  0  0  0
  8 37  1  0  0  0  0
  9 38  1  0  0  0  0
 10 39  1  0  0  0  0
 11 40  1  0  0  0  0
 12 41  1  0  0  0  0
 13 42  1  0  0  0  0
 22 43  1  0  0  0  0
 22 44  1  0  0  0  0
 22 45  1  0  0  0  0
 23 46  1  0  0  0  0
 23 47  1  0  0  0  0
 24 48  1  0  0  0  0
 25 49  1  0  0  0  0
 26 50  1  0  0  0  0
M  END
> <clash_score>
0

> <docking_score>
-7.024211406707764

> <overlap_score>
1.0089621543884277

$$$$
BENZO_299_2
  -OEChem-08222022413D

 50 53  0     1  0  0  0  0  0999 V2000
    4.2970    1.6690   20.8430 C   0  0  0  0  0  0  0  0  0  0  0  0
    4.0980    2.1130   19.5350 C   0  0  0  0  0  0  0  0  0  0  0  0
    5.3360    0.8000   21.1530 C   0  0  0  0  0  0  0  0  0  0  0  0
    8.3510   -1.5420   24.6110 C   0  0  0  0  0  0  0  0  0  0  0  0
   10.2760   -2.3270   23.4020 C   0  0  0  0  0  0  0  0  0  0  0  0
    4.9400    1.7060   18.5060 C   0  0  0  0  0  0  0  0  0  0  0  0
    8.3310   -2.7170   25.3430 C   0  0  0  0  0  0  0  0  0  0  0  0
   10.2570   -3.5000   24.1350 C   0  0  0  0  0  0  0  0  0  0  0  0
   10.9173    2.8198   21.9486 C   0  0  0  0  0  0  0  0  0  0  0  0
   12.4283    1.4668   22.7978 C   0  0  0  0  0  0  0  0  0  0  0  0
    7.6830   -0.5170   18.7600 C   0  0  0  0  0  0  0  0  0  0  0  0
    6.1600    0.3870   20.1140 C   0  0  0  0  0  0  0  0  0  0  0  0
    9.3300   -1.3350   23.6390 C   0  0  0  0  0  0  0  0  0  0  0  0
   11.0832    1.7414   22.8382 C   0  0  0  0  0  0  0  0  0  0  0  0
    5.9810    0.8330   18.8060 C   0  0  0  0  0  0  0  0  0  0  0  0
    7.2210   -0.4620   20.0350 C   0  0  0  0  0  0  0  0  0  0  0  0
    9.2850   -3.7090   25.1090 C   0  0  0  0  0  0  0  0  0  0  0  0
    8.9510    0.1280   21.6880 C   0  0  0  0  0  0  0  0  0  0  0  0
   14.3557    2.4668   21.5472 C   0  0  0  0  0  0  0  0  0  0  0  0
    8.2358   -4.9962   26.8042 C   0  0  0  0  0  0  0  0  0  0  0  0
   10.0220    1.0430   23.6570 C   0  0  0  0  0  0  0  0  0  0  0  0
    9.4200   -0.0840   22.9530 C   0  0  2  0  0  0  0  0  0  0  0  0
   12.0654    3.2041   21.3845 N   0  0  0  0  0  0  0  0  0  0  0  0
    6.9440    0.2550   18.0100 N   0  0  0  0  0  0  0  0  0  0  0  0
   12.9656    2.3627   21.9209 N   0  0  0  0  0  0  0  0  0  0  0  0
    8.0810   -0.9750   21.0820 N   0  0  0  0  0  0  0  0  0  0  0  0
    9.1870    1.1500   21.0630 O   0  0  0  0  0  0  0  0  0  0  0  0
    9.2637   -4.8607   25.8240 O   0  0  0  0  0  0  0  0  0  0  0  0
    3.6256    2.0106   21.6303 H   0  0  0  0  0  0  0  0  0  0  0  0
    3.2724    2.7868   19.3204 H   0  0  0  0  0  0  0  0  0  0  0  0
    5.4858    0.4664   22.1692 H   0  0  0  0  0  0  0  0  0  0  0  0
    7.5962   -0.7776   24.7981 H   0  0  0  0  0  0  0  0  0  0  0  0
   11.0395   -2.1843   22.6346 H   0  0  0  0  0  0  0  0  0  0  0  0
    4.7836    2.0664   17.4848 H   0  0  0  0  0  0  0  0  0  0  0  0
    7.5664   -2.8672   26.1058 H   0  0  0  0  0  0  0  0  0  0  0  0
   11.0120   -4.2666   23.9463 H   0  0  0  0  0  0  0  0  0  0  0  0
   10.0090    3.3439   21.6870 H   0  0  0  0  0  0  0  0  0  0  0  0
   13.0342    0.7293   23.3067 H   0  0  0  0  0  0  0  0  0  0  0  0
    8.5274   -1.0858   18.3384 H   0  0  0  0  0  0  0  0  0  0  0  0
   14.5208    1.8230   20.6793 H   0  0  0  0  0  0  0  0  0  0  0  0
   14.5900    3.5065   21.3020 H   0  0  0  0  0  0  0  0  0  0  0  0
   14.9803    2.1472   22.3860 H   0  0  0  0  0  0  0  0  0  0  0  0
    8.3326   -5.9634   27.3035 H   0  0  0  0  0  0  0  0  0  0  0  0
    7.2583   -4.9194   26.3215 H   0  0  0  0  0  0  0  0  0  0  0  0
    8.3398   -4.1963   27.5412 H   0  0  0  0  0  0  0  0  0  0  0  0
   10.4530    0.7282   24.6164 H   0  0  0  0  0  0  0  0  0  0  0  0
    9.2514    1.7835   23.9128 H   0  0  0  0  0  0  0  0  0  0  0  0
   10.7346   -0.4307   22.4468 H   0  0  0  0  0  0  0  0  0  0  0  0
    7.0325    0.4238   17.0175 H   0  0  0  0  0  0  0  0  0  0  0  0
    8.1175   -1.8104   21.3538 H   0  0  0  0  0  0  0  0  0  0  0  0
  1  2  1  0  0  0  0
  1  3  2  0  0  0  0
  2  6  2  0  0  0  0
  3 12  1  0  0  0  0
  4  7  2  0  0  0  0
  4 13  1  0  0  0  0
  5  8  1  0  0  0  0
  5 13  2  0  0  0  0
  6 15  1  0  0  0  0
  7 17  1  0  0  0  0
  8 17  2  0  0  0  0
  9 14  1  0  0  0  0
  9 23  2  0  0  0  0
 10 14  2  0  0  0  0
 10 25  1  0  0  0  0
 11 16  2  0  0  0  0
 11 24  1  0  0  0  0
 12 15  2  0  0  0  0
 12 16  1  0  0  0  0
 13 22  1  0  0  0  0
 14 21  1  0  0  0  0
 15 24  1  0  0  0  0
 16 26  1  0  0  0  0
 17 28  1  0  0  0  0
 18 22  1  0  0  0  0
 18 26  1  0  0  0  0
 18 27  2  0  0  0  0
 19 25  1  0  0  0  0
 20 28  1  0  0  0  0
 21 22  1  6  0  0  0
 23 25  1  0  0  0  0
  1 29  1  0  0  0  0
  2 30  1  0  0  0  0
  3 31  1  0  0  0  0
  4 32  1  0  0  0  0
  5 33  1  0  0  0  0
  6 34  1  0  0  0  0
  7 35  1  0  0  0  0
  8 36  1  0  0  0  0
  9 37  1  0  0  0  0
 10 38  1  0  0  0  0
 11 39  1  0  0  0  0
 19 40  1  0  0  0  0
 19 41  1  0  0  0  0
 19 42  1  0  0  0  0
 20 43  1  0  0  0  0
 20 44  1  0  0  0  0
 20 45  1  0  0  0  0
 21 46  1  0  0  0  0
 21 47  1  0  0  0  0
 22 48  1  0  0  0  0
 24 49  1  0  0  0  0
 26 50  1  0  0  0  0
M  END
> <clash_score>
0

> <docking_score>
-6.615575313568115

> <overlap_score>
0.9638801217079163

$$$$
BENZO_299_1
  -OEChem-08222022413D

 50 53  0     1  0  0  0  0  0999 V2000
    4.2970    1.6690   20.8430 C   0  0  0  0  0  0  0  0  0  0  0  0
    4.0980    2.1130   19.5350 C   0  0  0  0  0  0  0  0  0  0  0  0
    5.3360    0.8000   21.1530 C   0  0  0  0  0  0  0  0  0  0  0  0
    8.3510   -1.5420   24.6110 C   0  0  0  0  0  0  0  0  0  0  0  0
   10.2760   -2.3270   23.4020 C   0  0  0  0  0  0  0  0  0  0  0  0
    4.9400    1.7060   18.5060 C   0  0  0  0  0  0  0  0  0  0  0  0
    8.3310   -2.7170   25.3430 C   0  0  0  0  0  0  0  0  0  0  0  0
   10.2570   -3.5000   24.1350 C   0  0  0  0  0  0  0  0  0  0  0  0
   12.3075    2.3068   23.4193 C   0  0  0  0  0  0  0  0  0  0  0  0
   12.3951    0.1231   23.1770 C   0  0  0  0  0  0  0  0  0  0  0  0
    7.6830   -0.5170   18.7600 C   0  0  0  0  0  0  0  0  0  0  0  0
    6.1600    0.3870   20.1140 C   0  0  0  0  0  0  0  0  0  0  0  0
    9.3300   -1.3350   23.6390 C   0  0  0  0  0  0  0  0  0  0  0  0
   11.5121    1.1453   23.4257 C   0  0  0  0  0  0  0  0  0  0  0  0
    5.9810    0.8330   18.8060 C   0  0  0  0  0  0  0  0  0  0  0  0
    7.2210   -0.4620   20.0350 C   0  0  0  0  0  0  0  0  0  0  0  0
    9.2850   -3.7090   25.1090 C   0  0  0  0  0  0  0  0  0  0  0  0
    8.9510    0.1280   21.6880 C   0  0  0  0  0  0  0  0  0  0  0  0
   14.8664    0.0395   22.7716 C   0  0  0  0  0  0  0  0  0  0  0  0
    8.2358   -4.9962   26.8042 C   0  0  0  0  0  0  0  0  0  0  0  0
   10.0220    1.0430   23.6570 C   0  0  0  0  0  0  0  0  0  0  0  0
    9.4200   -0.0840   22.9530 C   0  0  1  0  0  0  0  0  0  0  0  0
   13.5967    2.0476   23.1851 N   0  0  0  0  0  0  0  0  0  0  0  0
    6.9440    0.2550   18.0100 N   0  0  0  0  0  0  0  0  0  0  0  0
   13.6181    0.7115   23.0422 N   0  0  0  0  0  0  0  0  0  0  0  0
    8.0810   -0.9750   21.0820 N   0  0  0  0  0  0  0  0  0  0  0  0
    9.1870    1.1500   21.0630 O   0  0  0  0  0  0  0  0  0  0  0  0
    9.2637   -4.8607   25.8240 O   0  0  0  0  0  0  0  0  0  0  0  0
    3.6256    2.0106   21.6303 H   0  0  0  0  0  0  0  0  0  0  0  0
    3.2724    2.7868   19.3204 H   0  0  0  0  0  0  0  0  0  0  0  0
    5.4858    0.4664   22.1692 H   0  0  0  0  0  0  0  0  0  0  0  0
    7.5962   -0.7776   24.7981 H   0  0  0  0  0  0  0  0  0  0  0  0
   11.0395   -2.1843   22.6346 H   0  0  0  0  0  0  0  0  0  0  0  0
    4.7836    2.0664   17.4848 H   0  0  0  0  0  0  0  0  0  0  0  0
    7.5664   -2.8672   26.1058 H   0  0  0  0  0  0  0  0  0  0  0  0
   11.0120   -4.2666   23.9463 H   0  0  0  0  0  0  0  0  0  0  0  0
   12.0040    3.3322   23.5761 H   0  0  0  0  0  0  0  0  0  0  0  0
   12.2609   -0.9465   23.0878 H   0  0  0  0  0  0  0  0  0  0  0  0
    8.5274   -1.0858   18.3384 H   0  0  0  0  0  0  0  0  0  0  0  0
   14.9942   -0.0107   21.6871 H   0  0  0  0  0  0  0  0  0  0  0  0
   15.6877    0.5992   23.2278 H   0  0  0  0  0  0  0  0  0  0  0  0
   14.8362   -0.9658   23.2010 H   0  0  0  0  0  0  0  0  0  0  0  0
    8.3326   -5.9634   27.3035 H   0  0  0  0  0  0  0  0  0  0  0  0
    7.2583   -4.9194   26.3215 H   0  0  0  0  0  0  0  0  0  0  0  0
    8.3398   -4.1963   27.5412 H   0  0  0  0  0  0  0  0  0  0  0  0
    9.8253    0.9889   24.7357 H   0  0  0  0  0  0  0  0  0  0  0  0
    9.5635    1.9845   23.3241 H   0  0  0  0  0  0  0  0  0  0  0  0
    8.1288    0.3205   23.5156 H   0  0  0  0  0  0  0  0  0  0  0  0
    7.0325    0.4238   17.0175 H   0  0  0  0  0  0  0  0  0  0  0  0
    8.1175   -1.8104   21.3538 H   0  0  0  0  0  0  0  0  0  0  0  0
  1  2  1  0  0  0  0
  1  3  2  0  0  0  0
  2  6  2  0  0  0  0
  3 12  1  0  0  0  0
  4  7  2  0  0  0  0
  4 13  1  0  0  0  0
  5  8  1  0  0  0  0
  5 13  2  0  0  0  0
  6 15  1  0  0  0  0
  7 17  1  0  0  0  0
  8 17  2  0  0  0  0
  9 14  1  0  0  0  0
  9 23  2  0  0  0  0
 10 14  2  0  0  0  0
 10 25  1  0  0  0  0
 11 16  2  0  0  0  0
 11 24  1  0  0  0  0
 12 15  2  0  0  0  0
 12 16  1  0  0  0  0
 13 22  1  0  0  0  0
 14 21  1  0  0  0  0
 15 24  1  0  0  0  0
 16 26  1  0  0  0  0
 17 28  1  0  0  0  0
 18 22  1  0  0  0  0
 18 26  1  0  0  0  0
 18 27  2  0  0  0  0
 19 25  1  0  0  0  0
 20 28  1  0  0  0  0
 21 22  1  1  0  0  0
 23 25  1  0  0  0  0
  1 29  1  0  0  0  0
  2 30  1  0  0  0  0
  3 31  1  0  0  0  0
  4 32  1  0  0  0  0
  5 33  1  0  0  0  0
  6 34  1  0  0  0  0
  7 35  1  0  0  0  0
  8 36  1  0  0  0  0
  9 37  1  0  0  0  0
 10 38  1  0  0  0  0
 11 39  1  0  0  0  0
 19 40  1  0  0  0  0
 19 41  1  0  0  0  0
 19 42  1  0  0  0  0
 20 43  1  0  0  0  0
 20 44  1  0  0  0  0
 20 45  1  0  0  0  0
 21 46  1  0  0  0  0
 21 47  1  0  0  0  0
 22 48  1  0  0  0  0
 24 49  1  0  0  0  0
 26 50  1  0  0  0  0
M  END
> <clash_score>
0

> <docking_score>
-8.652440071105957

> <overlap_score>
1.007917046546936

$$$$
BENZO_301_1
  -OEChem-08222022413D

 60 64  0     1  0  0  0  0  0999 V2000
   13.8377    0.1156   25.4121 C   0  0  0  0  0  0  0  0  0  0  0  0
    4.2970    1.6690   20.8430 C   0  0  0  0  0  0  0  0  0  0  0  0
   12.6675   -0.0758   26.1466 C   0  0  0  0  0  0  0  0  0  0  0  0
   13.7705    0.6078   24.1087 C   0  0  0  0  0  0  0  0  0  0  0  0
    4.0980    2.1130   19.5350 C   0  0  0  0  0  0  0  0  0  0  0  0
    5.3360    0.8000   21.1530 C   0  0  0  0  0  0  0  0  0  0  0  0
   11.4299    0.2250   25.5777 C   0  0  0  0  0  0  0  0  0  0  0  0
   12.5329    0.9085   23.5397 C   0  0  0  0  0  0  0  0  0  0  0  0
    8.3510   -1.5420   24.6110 C   0  0  0  0  0  0  0  0  0  0  0  0
   10.2760   -2.3270   23.4020 C   0  0  0  0  0  0  0  0  0  0  0  0
    4.9400    1.7060   18.5060 C   0  0  0  0  0  0  0  0  0  0  0  0
    8.3310   -2.7170   25.3430 C   0  0  0  0  0  0  0  0  0  0  0  0
   10.2570   -3.5000   24.1350 C   0  0  0  0  0  0  0  0  0  0  0  0
    7.6830   -0.5170   18.7600 C   0  0  0  0  0  0  0  0  0  0  0  0
    6.1600    0.3870   20.1140 C   0  0  0  0  0  0  0  0  0  0  0  0
   11.3626    0.7171   24.2742 C   0  0  0  0  0  0  0  0  0  0  0  0
    9.3300   -1.3350   23.6390 C   0  0  0  0  0  0  0  0  0  0  0  0
    5.9810    0.8330   18.8060 C   0  0  0  0  0  0  0  0  0  0  0  0
    9.2850   -3.7090   25.1090 C   0  0  0  0  0  0  0  0  0  0  0  0
    7.2210   -0.4620   20.0350 C   0  0  0  0  0  0  0  0  0  0  0  0
    8.0643   -5.4721   26.3672 C   0  0  0  0  0  0  0  0  0  0  0  0
    8.9510    0.1280   21.6880 C   0  0  0  0  0  0  0  0  0  0  0  0
    8.2649   -6.7591   27.1477 C   0  0  0  0  0  0  0  0  0  0  0  0
    9.4073   -6.6157   28.1377 C   0  0  0  0  0  0  0  0  0  0  0  0
   10.6967   -6.1489   27.4694 C   0  0  0  0  0  0  0  0  0  0  0  0
   10.4950   -5.7059   26.0212 C   0  0  0  0  0  0  0  0  0  0  0  0
   10.0220    1.0430   23.6570 C   0  0  0  0  0  0  0  0  0  0  0  0
    9.4200   -0.0840   22.9530 C   0  0  1  0  0  0  0  0  0  0  0  0
    6.9440    0.2550   18.0100 N   0  0  0  0  0  0  0  0  0  0  0  0
    9.2624   -4.9267   25.8634 N   0  0  0  0  0  0  0  0  0  0  0  0
    8.0810   -0.9750   21.0820 N   0  0  0  0  0  0  0  0  0  0  0  0
    6.9247   -5.0497   26.1749 O   0  0  0  0  0  0  0  0  0  0  0  0
    9.1870    1.1500   21.0630 O   0  0  0  0  0  0  0  0  0  0  0  0
   14.8013   -0.1174   25.8558 H   0  0  0  0  0  0  0  0  0  0  0  0
    3.6256    2.0106   21.6303 H   0  0  0  0  0  0  0  0  0  0  0  0
   12.7197   -0.4579   27.1619 H   0  0  0  0  0  0  0  0  0  0  0  0
   14.6814    0.7579   23.5369 H   0  0  0  0  0  0  0  0  0  0  0  0
    3.2724    2.7868   19.3204 H   0  0  0  0  0  0  0  0  0  0  0  0
    5.4858    0.4664   22.1692 H   0  0  0  0  0  0  0  0  0  0  0  0
   10.5233    0.0726   26.1574 H   0  0  0  0  0  0  0  0  0  0  0  0
   12.4902    1.2914   22.5235 H   0  0  0  0  0  0  0  0  0  0  0  0
    7.5948   -0.7783   24.7966 H   0  0  0  0  0  0  0  0  0  0  0  0
   11.0389   -2.1844   22.6342 H   0  0  0  0  0  0  0  0  0  0  0  0
    4.7836    2.0664   17.4848 H   0  0  0  0  0  0  0  0  0  0  0  0
    7.5642   -2.8624   26.1050 H   0  0  0  0  0  0  0  0  0  0  0  0
   11.0137   -4.2649   23.9418 H   0  0  0  0  0  0  0  0  0  0  0  0
    8.5274   -1.0858   18.3384 H   0  0  0  0  0  0  0  0  0  0  0  0
    7.3543   -6.9829   27.6818 H   0  0  0  0  0  0  0  0  0  0  0  0
    8.4783   -7.5436   26.4372 H   0  0  0  0  0  0  0  0  0  0  0  0
    9.1257   -5.9021   28.9399 H   0  0  0  0  0  0  0  0  0  0  0  0
    9.5814   -7.5840   28.6486 H   0  0  0  0  0  0  0  0  0  0  0  0
   11.1319   -5.3094   28.0513 H   0  0  0  0  0  0  0  0  0  0  0  0
   11.4591   -6.9570   27.5118 H   0  0  0  0  0  0  0  0  0  0  0  0
   11.3214   -5.0711   25.7158 H   0  0  0  0  0  0  0  0  0  0  0  0
   10.4496   -6.5786   25.3788 H   0  0  0  0  0  0  0  0  0  0  0  0
    9.3482    1.4259   24.4346 H   0  0  0  0  0  0  0  0  0  0  0  0
   10.1663    1.8793   22.9589 H   0  0  0  0  0  0  0  0  0  0  0  0
   10.7366   -0.4277   22.4442 H   0  0  0  0  0  0  0  0  0  0  0  0
    7.0325    0.4238   17.0175 H   0  0  0  0  0  0  0  0  0  0  0  0
    8.1354   -1.7990   21.3694 H   0  0  0  0  0  0  0  0  0  0  0  0
  1  3  1  0  0  0  0
  1  4  2  0  0  0  0
  2  5  1  0  0  0  0
  2  6  2  0  0  0  0
  3  7  2  0  0  0  0
  4  8  1  0  0  0  0
  5 11  2  0  0  0  0
  6 15  1  0  0  0  0
  7 16  1  0  0  0  0
  8 16  2  0  0  0  0
  9 12  2  0  0  0  0
  9 17  1  0  0  0  0
 10 13  1  0  0  0  0
 10 17  2  0  0  0  0
 11 18  1  0  0  0  0
 12 19  1  0  0  0  0
 13 19  2  0  0  0  0
 14 20  2  0  0  0  0
 14 29  1  0  0  0  0
 15 18  2  0  0  0  0
 15 20  1  0  0  0  0
 16 27  1  0  0  0  0
 17 28  1  0  0  0  0
 18 29  1  0  0  0  0
 19 30  1  0  0  0  0
 20 31  1  0  0  0  0
 21 23  1  0  0  0  0
 21 30  1  0  0  0  0
 21 32  2  0  0  0  0
 22 28  1  1  0  0  0
 22 31  1  0  0  0  0
 22 33  2  0  0  0  0
 23 24  1  0  0  0  0
 24 25  1  0  0  0  0
 25 26  1  0  0  0  0
 26 30  1  0  0  0  0
 27 28  1  0  0  0  0
  1 34  1  0  0  0  0
  2 35  1  0  0  0  0
  3 36  1  0  0  0  0
  4 37  1  0  0  0  0
  5 38  1  0  0  0  0
  6 39  1  0  0  0  0
  7 40  1  0  0  0  0
  8 41  1  0  0  0  0
  9 42  1  0  0  0  0
 10 43  1  0  0  0  0
 11 44  1  0  0  0  0
 12 45  1  0  0  0  0
 13 46  1  0  0  0  0
 14 47  1  0  0  0  0
 23 48  1  0  0  0  0
 23 49  1  0  0  0  0
 24 50  1  0  0  0  0
 24 51  1  0  0  0  0
 25 52  1  0  0  0  0
 25 53  1  0  0  0  0
 26 54  1  0  0  0  0
 26 55  1  0  0  0  0
 27 56  1  0  0  0  0
 27 57  1  0  0  0  0
 28 58  1  0  0  0  0
 29 59  1  0  0  0  0
 31 60  1  0  0  0  0
M  END
> <clash_score>
1.2728248649063287

> <docking_score>
-5.443948745727539

> <overlap_score>
0.9489558935165405

$$$$
BENZO_301_2
  -OEChem-08222022413D

 60 64  0     1  0  0  0  0  0999 V2000
   14.2657    1.3705   23.0372 C   0  0  0  0  0  0  0  0  0  0  0  0
    4.2970    1.6690   20.8430 C   0  0  0  0  0  0  0  0  0  0  0  0
   13.7726    0.6127   24.0994 C   0  0  0  0  0  0  0  0  0  0  0  0
   13.3825    2.0221   22.1763 C   0  0  0  0  0  0  0  0  0  0  0  0
    4.0980    2.1130   19.5350 C   0  0  0  0  0  0  0  0  0  0  0  0
    5.3360    0.8000   21.1530 C   0  0  0  0  0  0  0  0  0  0  0  0
   12.3965    0.5064   24.3006 C   0  0  0  0  0  0  0  0  0  0  0  0
   12.0064    1.9158   22.3775 C   0  0  0  0  0  0  0  0  0  0  0  0
    8.3510   -1.5420   24.6110 C   0  0  0  0  0  0  0  0  0  0  0  0
   10.2760   -2.3270   23.4020 C   0  0  0  0  0  0  0  0  0  0  0  0
    4.9400    1.7060   18.5060 C   0  0  0  0  0  0  0  0  0  0  0  0
    8.3310   -2.7170   25.3430 C   0  0  0  0  0  0  0  0  0  0  0  0
   10.2570   -3.5000   24.1350 C   0  0  0  0  0  0  0  0  0  0  0  0
    7.6830   -0.5170   18.7600 C   0  0  0  0  0  0  0  0  0  0  0  0
    6.1600    0.3870   20.1140 C   0  0  0  0  0  0  0  0  0  0  0  0
   11.5133    1.1580   23.4397 C   0  0  0  0  0  0  0  0  0  0  0  0
    9.3300   -1.3350   23.6390 C   0  0  0  0  0  0  0  0  0  0  0  0
    5.9810    0.8330   18.8060 C   0  0  0  0  0  0  0  0  0  0  0  0
    9.2850   -3.7090   25.1090 C   0  0  0  0  0  0  0  0  0  0  0  0
    7.2210   -0.4620   20.0350 C   0  0  0  0  0  0  0  0  0  0  0  0
    8.0643   -5.4721   26.3672 C   0  0  0  0  0  0  0  0  0  0  0  0
    8.9510    0.1280   21.6880 C   0  0  0  0  0  0  0  0  0  0  0  0
    8.2649   -6.7591   27.1477 C   0  0  0  0  0  0  0  0  0  0  0  0
    9.4073   -6.6157   28.1377 C   0  0  0  0  0  0  0  0  0  0  0  0
   10.6967   -6.1489   27.4694 C   0  0  0  0  0  0  0  0  0  0  0  0
   10.4950   -5.7059   26.0212 C   0  0  0  0  0  0  0  0  0  0  0  0
   10.0220    1.0430   23.6570 C   0  0  0  0  0  0  0  0  0  0  0  0
    9.4200   -0.0840   22.9530 C   0  0  2  0  0  0  0  0  0  0  0  0
    6.9440    0.2550   18.0100 N   0  0  0  0  0  0  0  0  0  0  0  0
    9.2624   -4.9267   25.8634 N   0  0  0  0  0  0  0  0  0  0  0  0
    8.0810   -0.9750   21.0820 N   0  0  0  0  0  0  0  0  0  0  0  0
    6.9247   -5.0497   26.1749 O   0  0  0  0  0  0  0  0  0  0  0  0
    9.1870    1.1500   21.0630 O   0  0  0  0  0  0  0  0  0  0  0  0
   15.3373    1.4543   22.8814 H   0  0  0  0  0  0  0  0  0  0  0  0
    3.6256    2.0106   21.6303 H   0  0  0  0  0  0  0  0  0  0  0  0
   14.4602    0.1062   24.7705 H   0  0  0  0  0  0  0  0  0  0  0  0
   13.7661    2.6131   21.3498 H   0  0  0  0  0  0  0  0  0  0  0  0
    3.2724    2.7868   19.3204 H   0  0  0  0  0  0  0  0  0  0  0  0
    5.4858    0.4664   22.1692 H   0  0  0  0  0  0  0  0  0  0  0  0
   12.0214   -0.0864   25.1308 H   0  0  0  0  0  0  0  0  0  0  0  0
   11.3258    2.4268   21.7016 H   0  0  0  0  0  0  0  0  0  0  0  0
    7.5948   -0.7783   24.7966 H   0  0  0  0  0  0  0  0  0  0  0  0
   11.0389   -2.1844   22.6342 H   0  0  0  0  0  0  0  0  0  0  0  0
    4.7836    2.0664   17.4848 H   0  0  0  0  0  0  0  0  0  0  0  0
    7.5642   -2.8624   26.1050 H   0  0  0  0  0  0  0  0  0  0  0  0
   11.0137   -4.2649   23.9418 H   0  0  0  0  0  0  0  0  0  0  0  0
    8.5274   -1.0858   18.3384 H   0  0  0  0  0  0  0  0  0  0  0  0
    7.3543   -6.9829   27.6818 H   0  0  0  0  0  0  0  0  0  0  0  0
    8.4783   -7.5436   26.4372 H   0  0  0  0  0  0  0  0  0  0  0  0
    9.1257   -5.9021   28.9399 H   0  0  0  0  0  0  0  0  0  0  0  0
    9.5814   -7.5840   28.6486 H   0  0  0  0  0  0  0  0  0  0  0  0
   11.1319   -5.3094   28.0513 H   0  0  0  0  0  0  0  0  0  0  0  0
   11.4591   -6.9570   27.5118 H   0  0  0  0  0  0  0  0  0  0  0  0
   11.3214   -5.0711   25.7158 H   0  0  0  0  0  0  0  0  0  0  0  0
   10.4496   -6.5786   25.3788 H   0  0  0  0  0  0  0  0  0  0  0  0
    9.8155    0.9894   24.7339 H   0  0  0  0  0  0  0  0  0  0  0  0
    9.5584    1.9798   23.3178 H   0  0  0  0  0  0  0  0  0  0  0  0
    8.1278    0.3254   23.5142 H   0  0  0  0  0  0  0  0  0  0  0  0
    7.0325    0.4238   17.0175 H   0  0  0  0  0  0  0  0  0  0  0  0
    8.1354   -1.7990   21.3694 H   0  0  0  0  0  0  0  0  0  0  0  0
  1  3  1  0  0  0  0
  1  4  2  0  0  0  0
  2  5  1  0  0  0  0
  2  6  2  0  0  0  0
  3  7  2  0  0  0  0
  4  8  1  0  0  0  0
  5 11  2  0  0  0  0
  6 15  1  0  0  0  0
  7 16  1  0  0  0  0
  8 16  2  0  0  0  0
  9 12  2  0  0  0  0
  9 17  1  0  0  0  0
 10 13  1  0  0  0  0
 10 17  2  0  0  0  0
 11 18  1  0  0  0  0
 12 19  1  0  0  0  0
 13 19  2  0  0  0  0
 14 20  2  0  0  0  0
 14 29  1  0  0  0  0
 15 18  2  0  0  0  0
 15 20  1  0  0  0  0
 16 27  1  0  0  0  0
 17 28  1  0  0  0  0
 18 29  1  0  0  0  0
 19 30  1  0  0  0  0
 20 31  1  0  0  0  0
 21 23  1  0  0  0  0
 21 30  1  0  0  0  0
 21 32  2  0  0  0  0
 22 28  1  6  0  0  0
 22 31  1  0  0  0  0
 22 33  2  0  0  0  0
 23 24  1  0  0  0  0
 24 25  1  0  0  0  0
 25 26  1  0  0  0  0
 26 30  1  0  0  0  0
 27 28  1  0  0  0  0
  1 34  1  0  0  0  0
  2 35  1  0  0  0  0
  3 36  1  0  0  0  0
  4 37  1  0  0  0  0
  5 38  1  0  0  0  0
  6 39  1  0  0  0  0
  7 40  1  0  0  0  0
  8 41  1  0  0  0  0
  9 42  1  0  0  0  0
 10 43  1  0  0  0  0
 11 44  1  0  0  0  0
 12 45  1  0  0  0  0
 13 46  1  0  0  0  0
 14 47  1  0  0  0  0
 23 48  1  0  0  0  0
 23 49  1  0  0  0  0
 24 50  1  0  0  0  0
 24 51  1  0  0  0  0
 25 52  1  0  0  0  0
 25 53  1  0  0  0  0
 26 54  1  0  0  0  0
 26 55  1  0  0  0  0
 27 56  1  0  0  0  0
 27 57  1  0  0  0  0
 28 58  1  0  0  0  0
 29 59  1  0  0  0  0
 31 60  1  0  0  0  0
M  END
> <clash_score>
1.2728248649063287

> <docking_score>
-6.396762371063232

> <overlap_score>
1.0258839130401611

$$$$
BENZO_300_2
  -OEChem-08222022413D

 57 61  0     1  0  0  0  0  0999 V2000
    4.2970    1.6690   20.8430 C   0  0  0  0  0  0  0  0  0  0  0  0
    4.0980    2.1130   19.5350 C   0  0  0  0  0  0  0  0  0  0  0  0
    5.3360    0.8000   21.1530 C   0  0  0  0  0  0  0  0  0  0  0  0
    8.3510   -1.5420   24.6110 C   0  0  0  0  0  0  0  0  0  0  0  0
   10.2760   -2.3270   23.4020 C   0  0  0  0  0  0  0  0  0  0  0  0
    4.9400    1.7060   18.5060 C   0  0  0  0  0  0  0  0  0  0  0  0
    8.3310   -2.7170   25.3430 C   0  0  0  0  0  0  0  0  0  0  0  0
   10.2570   -3.5000   24.1350 C   0  0  0  0  0  0  0  0  0  0  0  0
   12.2126    2.3973   23.3679 C   0  0  0  0  0  0  0  0  0  0  0  0
    7.6830   -0.5170   18.7600 C   0  0  0  0  0  0  0  0  0  0  0  0
   13.5630    2.2184   23.1632 C   0  0  0  0  0  0  0  0  0  0  0  0
   12.3560    0.0789   23.2868 C   0  0  0  0  0  0  0  0  0  0  0  0
    6.1600    0.3870   20.1140 C   0  0  0  0  0  0  0  0  0  0  0  0
    9.3300   -1.3350   23.6390 C   0  0  0  0  0  0  0  0  0  0  0  0
   11.5133    1.1580   23.4397 C   0  0  0  0  0  0  0  0  0  0  0  0
    5.9810    0.8330   18.8060 C   0  0  0  0  0  0  0  0  0  0  0  0
    9.2850   -3.7090   25.1090 C   0  0  0  0  0  0  0  0  0  0  0  0
    7.2210   -0.4620   20.0350 C   0  0  0  0  0  0  0  0  0  0  0  0
    8.0643   -5.4721   26.3672 C   0  0  0  0  0  0  0  0  0  0  0  0
    8.9510    0.1280   21.6880 C   0  0  0  0  0  0  0  0  0  0  0  0
    8.2649   -6.7591   27.1477 C   0  0  0  0  0  0  0  0  0  0  0  0
    9.4073   -6.6157   28.1377 C   0  0  0  0  0  0  0  0  0  0  0  0
   10.6967   -6.1489   27.4694 C   0  0  0  0  0  0  0  0  0  0  0  0
   10.4950   -5.7059   26.0212 C   0  0  0  0  0  0  0  0  0  0  0  0
   10.0220    1.0430   23.6570 C   0  0  0  0  0  0  0  0  0  0  0  0
    9.4200   -0.0840   22.9530 C   0  0  2  0  0  0  0  0  0  0  0  0
    6.9440    0.2550   18.0100 N   0  0  0  0  0  0  0  0  0  0  0  0
    9.2624   -4.9267   25.8634 N   0  0  0  0  0  0  0  0  0  0  0  0
    8.0810   -0.9750   21.0820 N   0  0  0  0  0  0  0  0  0  0  0  0
    6.9247   -5.0497   26.1749 O   0  0  0  0  0  0  0  0  0  0  0  0
    9.1870    1.1500   21.0630 O   0  0  0  0  0  0  0  0  0  0  0  0
   13.9830    0.5616   23.0583 S   0  0  0  0  0  0  0  0  0  0  0  0
    3.6256    2.0106   21.6303 H   0  0  0  0  0  0  0  0  0  0  0  0
    3.2724    2.7868   19.3204 H   0  0  0  0  0  0  0  0  0  0  0  0
    5.4858    0.4664   22.1692 H   0  0  0  0  0  0  0  0  0  0  0  0
    7.5948   -0.7783   24.7966 H   0  0  0  0  0  0  0  0  0  0  0  0
   11.0389   -2.1844   22.6342 H   0  0  0  0  0  0  0  0  0  0  0  0
    4.7836    2.0664   17.4848 H   0  0  0  0  0  0  0  0  0  0  0  0
    7.5642   -2.8624   26.1050 H   0  0  0  0  0  0  0  0  0  0  0  0
   11.0137   -4.2649   23.9418 H   0  0  0  0  0  0  0  0  0  0  0  0
   11.7523    3.3729   23.4608 H   0  0  0  0  0  0  0  0  0  0  0  0
    8.5274   -1.0858   18.3384 H   0  0  0  0  0  0  0  0  0  0  0  0
   14.3230    2.9812   23.0695 H   0  0  0  0  0  0  0  0  0  0  0  0
   12.0981   -0.9711   23.2966 H   0  0  0  0  0  0  0  0  0  0  0  0
    7.3543   -6.9829   27.6818 H   0  0  0  0  0  0  0  0  0  0  0  0
    8.4783   -7.5436   26.4372 H   0  0  0  0  0  0  0  0  0  0  0  0
    9.1257   -5.9021   28.9399 H   0  0  0  0  0  0  0  0  0  0  0  0
    9.5814   -7.5840   28.6486 H   0  0  0  0  0  0  0  0  0  0  0  0
   11.1319   -5.3094   28.0513 H   0  0  0  0  0  0  0  0  0  0  0  0
   11.4591   -6.9570   27.5118 H   0  0  0  0  0  0  0  0  0  0  0  0
   11.3214   -5.0711   25.7158 H   0  0  0  0  0  0  0  0  0  0  0  0
   10.4496   -6.5786   25.3788 H   0  0  0  0  0  0  0  0  0  0  0  0
    9.8155    0.9894   24.7339 H   0  0  0  0  0  0  0  0  0  0  0  0
    9.5584    1.9798   23.3178 H   0  0  0  0  0  0  0  0  0  0  0  0
    8.1278    0.3254   23.5142 H   0  0  0  0  0  0  0  0  0  0  0  0
    7.0325    0.4238   17.0175 H   0  0  0  0  0  0  0  0  0  0  0  0
    8.1354   -1.7990   21.3694 H   0  0  0  0  0  0  0  0  0  0  0  0
  1  2  1  0  0  0  0
  1  3  2  0  0  0  0
  2  6  2  0  0  0  0
  3 13  1  0  0  0  0
  4  7  2  0  0  0  0
  4 14  1  0  0  0  0
  5  8  1  0  0  0  0
  5 14  2  0  0  0  0
  6 16  1  0  0  0  0
  7 17  1  0  0  0  0
  8 17  2  0  0  0  0
  9 11  2  0  0  0  0
  9 15  1  0  0  0  0
 10 18  2  0  0  0  0
 10 27  1  0  0  0  0
 11 32  1  0  0  0  0
 12 15  2  0  0  0  0
 12 32  1  0  0  0  0
 13 16  2  0  0  0  0
 13 18  1  0  0  0  0
 14 26  1  0  0  0  0
 15 25  1  0  0  0  0
 16 27  1  0  0  0  0
 17 28  1  0  0  0  0
 18 29  1  0  0  0  0
 19 21  1  0  0  0  0
 19 28  1  0  0  0  0
 19 30  2  0  0  0  0
 20 26  1  6  0  0  0
 20 29  1  0  0  0  0
 20 31  2  0  0  0  0
 21 22  1  0  0  0  0
 22 23  1  0  0  0  0
 23 24  1  0  0  0  0
 24 28  1  0  0  0  0
 25 26  1  0  0  0  0
  1 33  1  0  0  0  0
  2 34  1  0  0  0  0
  3 35  1  0  0  0  0
  4 36  1  0  0  0  0
  5 37  1  0  0  0  0
  6 38  1  0  0  0  0
  7 39  1  0  0  0  0
  8 40  1  0  0  0  0
  9 41  1  0  0  0  0
 10 42  1  0  0  0  0
 11 43  1  0  0  0  0
 12 44  1  0  0  0  0
 21 45  1  0  0  0  0
 21 46  1  0  0  0  0
 22 47  1  0  0  0  0
 22 48  1  0  0  0  0
 23 49  1  0  0  0  0
 23 50  1  0  0  0  0
 24 51  1  0  0  0  0
 24 52  1  0  0  0  0
 25 53  1  0  0  0  0
 25 54  1  0  0  0  0
 26 55  1  0  0  0  0
 27 56  1  0  0  0  0
 29 57  1  0  0  0  0
M  END
> <clash_score>
1.2728248649063287

> <docking_score>
-7.205976963043213

> <overlap_score>
1.0132300853729248

$$$$
BENZO_300_1
  -OEChem-08222022413D

 57 61  0     1  0  0  0  0  0999 V2000
    4.2970    1.6690   20.8430 C   0  0  0  0  0  0  0  0  0  0  0  0
    4.0980    2.1130   19.5350 C   0  0  0  0  0  0  0  0  0  0  0  0
    5.3360    0.8000   21.1530 C   0  0  0  0  0  0  0  0  0  0  0  0
    8.3510   -1.5420   24.6110 C   0  0  0  0  0  0  0  0  0  0  0  0
   10.2760   -2.3270   23.4020 C   0  0  0  0  0  0  0  0  0  0  0  0
    4.9400    1.7060   18.5060 C   0  0  0  0  0  0  0  0  0  0  0  0
    8.3310   -2.7170   25.3430 C   0  0  0  0  0  0  0  0  0  0  0  0
   10.2570   -3.5000   24.1350 C   0  0  0  0  0  0  0  0  0  0  0  0
   11.0518    0.9846   26.0345 C   0  0  0  0  0  0  0  0  0  0  0  0
    7.6830   -0.5170   18.7600 C   0  0  0  0  0  0  0  0  0  0  0  0
   12.1353    0.4810   26.7201 C   0  0  0  0  0  0  0  0  0  0  0  0
   12.1840   -0.1301   24.3381 C   0  0  0  0  0  0  0  0  0  0  0  0
    6.1600    0.3870   20.1140 C   0  0  0  0  0  0  0  0  0  0  0  0
    9.3300   -1.3350   23.6390 C   0  0  0  0  0  0  0  0  0  0  0  0
   11.0798    0.6306   24.6546 C   0  0  0  0  0  0  0  0  0  0  0  0
    5.9810    0.8330   18.8060 C   0  0  0  0  0  0  0  0  0  0  0  0
    9.2850   -3.7090   25.1090 C   0  0  0  0  0  0  0  0  0  0  0  0
    7.2210   -0.4620   20.0350 C   0  0  0  0  0  0  0  0  0  0  0  0
    8.0643   -5.4721   26.3672 C   0  0  0  0  0  0  0  0  0  0  0  0
    8.9510    0.1280   21.6880 C   0  0  0  0  0  0  0  0  0  0  0  0
    8.2649   -6.7591   27.1477 C   0  0  0  0  0  0  0  0  0  0  0  0
    9.4073   -6.6157   28.1377 C   0  0  0  0  0  0  0  0  0  0  0  0
   10.6967   -6.1489   27.4694 C   0  0  0  0  0  0  0  0  0  0  0  0
   10.4950   -5.7059   26.0212 C   0  0  0  0  0  0  0  0  0  0  0  0
   10.0220    1.0430   23.6570 C   0  0  0  0  0  0  0  0  0  0  0  0
    9.4200   -0.0840   22.9530 C   0  0  1  0  0  0  0  0  0  0  0  0
    6.9440    0.2550   18.0100 N   0  0  0  0  0  0  0  0  0  0  0  0
    9.2624   -4.9267   25.8634 N   0  0  0  0  0  0  0  0  0  0  0  0
    8.0810   -0.9750   21.0820 N   0  0  0  0  0  0  0  0  0  0  0  0
    6.9247   -5.0497   26.1749 O   0  0  0  0  0  0  0  0  0  0  0  0
    9.1870    1.1500   21.0630 O   0  0  0  0  0  0  0  0  0  0  0  0
   13.1804   -0.4146   25.7013 S   0  0  0  0  0  0  0  0  0  0  0  0
    3.6256    2.0106   21.6303 H   0  0  0  0  0  0  0  0  0  0  0  0
    3.2724    2.7868   19.3204 H   0  0  0  0  0  0  0  0  0  0  0  0
    5.4858    0.4664   22.1692 H   0  0  0  0  0  0  0  0  0  0  0  0
    7.5948   -0.7783   24.7966 H   0  0  0  0  0  0  0  0  0  0  0  0
   11.0389   -2.1844   22.6342 H   0  0  0  0  0  0  0  0  0  0  0  0
    4.7836    2.0664   17.4848 H   0  0  0  0  0  0  0  0  0  0  0  0
    7.5642   -2.8624   26.1050 H   0  0  0  0  0  0  0  0  0  0  0  0
   11.0137   -4.2649   23.9418 H   0  0  0  0  0  0  0  0  0  0  0  0
   10.2782    1.5788   26.5045 H   0  0  0  0  0  0  0  0  0  0  0  0
    8.5274   -1.0858   18.3384 H   0  0  0  0  0  0  0  0  0  0  0  0
   12.3635    0.5966   27.7702 H   0  0  0  0  0  0  0  0  0  0  0  0
   12.4574   -0.5333   23.3728 H   0  0  0  0  0  0  0  0  0  0  0  0
    7.3543   -6.9829   27.6818 H   0  0  0  0  0  0  0  0  0  0  0  0
    8.4783   -7.5436   26.4372 H   0  0  0  0  0  0  0  0  0  0  0  0
    9.1257   -5.9021   28.9399 H   0  0  0  0  0  0  0  0  0  0  0  0
    9.5814   -7.5840   28.6486 H   0  0  0  0  0  0  0  0  0  0  0  0
   11.1319   -5.3094   28.0513 H   0  0  0  0  0  0  0  0  0  0  0  0
   11.4591   -6.9570   27.5118 H   0  0  0  0  0  0  0  0  0  0  0  0
   11.3214   -5.0711   25.7158 H   0  0  0  0  0  0  0  0  0  0  0  0
   10.4496   -6.5786   25.3788 H   0  0  0  0  0  0  0  0  0  0  0  0
    9.2564    1.6421   24.1671 H   0  0  0  0  0  0  0  0  0  0  0  0
   10.4893    1.7237   22.9318 H   0  0  0  0  0  0  0  0  0  0  0  0
   10.7366   -0.4277   22.4442 H   0  0  0  0  0  0  0  0  0  0  0  0
    7.0325    0.4238   17.0175 H   0  0  0  0  0  0  0  0  0  0  0  0
    8.1354   -1.7990   21.3694 H   0  0  0  0  0  0  0  0  0  0  0  0
  1  2  1  0  0  0  0
  1  3  2  0  0  0  0
  2  6  2  0  0  0  0
  3 13  1  0  0  0  0
  4  7  2  0  0  0  0
  4 14  1  0  0  0  0
  5  8  1  0  0  0  0
  5 14  2  0  0  0  0
  6 16  1  0  0  0  0
  7 17  1  0  0  0  0
  8 17  2  0  0  0  0
  9 11  2  0  0  0  0
  9 15  1  0  0  0  0
 10 18  2  0  0  0  0
 10 27  1  0  0  0  0
 11 32  1  0  0  0  0
 12 15  2  0  0  0  0
 12 32  1  0  0  0  0
 13 16  2  0  0  0  0
 13 18  1  0  0  0  0
 14 26  1  0  0  0  0
 15 25  1  0  0  0  0
 16 27  1  0  0  0  0
 17 28  1  0  0  0  0
 18 29  1  0  0  0  0
 19 21  1  0  0  0  0
 19 28  1  0  0  0  0
 19 30  2  0  0  0  0
 20 26  1  1  0  0  0
 20 29  1  0  0  0  0
 20 31  2  0  0  0  0
 21 22  1  0  0  0  0
 22 23  1  0  0  0  0
 23 24  1  0  0  0  0
 24 28  1  0  0  0  0
 25 26  1  0  0  0  0
  1 33  1  0  0  0  0
  2 34  1  0  0  0  0
  3 35  1  0  0  0  0
  4 36  1  0  0  0  0
  5 37  1  0  0  0  0
  6 38  1  0  0  0  0
  7 39  1  0  0  0  0
  8 40  1  0  0  0  0
  9 41  1  0  0  0  0
 10 42  1  0  0  0  0
 11 43  1  0  0  0  0
 12 44  1  0  0  0  0
 21 45  1  0  0  0  0
 21 46  1  0  0  0  0
 22 47  1  0  0  0  0
 22 48  1  0  0  0  0
 23 49  1  0  0  0  0
 23 50  1  0  0  0  0
 24 51  1  0  0  0  0
 24 52  1  0  0  0  0
 25 53  1  0  0  0  0
 25 54  1  0  0  0  0
 26 55  1  0  0  0  0
 27 56  1  0  0  0  0
 29 57  1  0  0  0  0
M  END
> <clash_score>
1.2728248649063287

> <docking_score>
-4.42231559753418

> <overlap_score>
0.8992475271224976

$$$$
BENZO_302_2
  -OEChem-08222022413D

 60 64  0     1  0  0  0  0  0999 V2000
    4.2970    1.6690   20.8430 C   0  0  0  0  0  0  0  0  0  0  0  0
    4.0980    2.1130   19.5350 C   0  0  0  0  0  0  0  0  0  0  0  0
   13.7717    0.6099   24.1002 C   0  0  0  0  0  0  0  0  0  0  0  0
    5.3360    0.8000   21.1530 C   0  0  0  0  0  0  0  0  0  0  0  0
   12.3953    0.5052   24.3009 C   0  0  0  0  0  0  0  0  0  0  0  0
    8.3510   -1.5420   24.6110 C   0  0  0  0  0  0  0  0  0  0  0  0
   10.2760   -2.3270   23.4020 C   0  0  0  0  0  0  0  0  0  0  0  0
    4.9400    1.7060   18.5060 C   0  0  0  0  0  0  0  0  0  0  0  0
    8.3310   -2.7170   25.3430 C   0  0  0  0  0  0  0  0  0  0  0  0
   10.2570   -3.5000   24.1350 C   0  0  0  0  0  0  0  0  0  0  0  0
   14.2660    1.3675   23.0384 C   0  0  0  0  0  0  0  0  0  0  0  0
   12.0077    1.9155   22.3778 C   0  0  0  0  0  0  0  0  0  0  0  0
    7.6830   -0.5170   18.7600 C   0  0  0  0  0  0  0  0  0  0  0  0
    6.1600    0.3870   20.1140 C   0  0  0  0  0  0  0  0  0  0  0  0
    9.3300   -1.3350   23.6390 C   0  0  0  0  0  0  0  0  0  0  0  0
   11.5133    1.1580   23.4397 C   0  0  0  0  0  0  0  0  0  0  0  0
    5.9810    0.8330   18.8060 C   0  0  0  0  0  0  0  0  0  0  0  0
    9.2850   -3.7090   25.1090 C   0  0  0  0  0  0  0  0  0  0  0  0
    7.2210   -0.4620   20.0350 C   0  0  0  0  0  0  0  0  0  0  0  0
   13.3840    2.0203   22.1772 C   0  0  0  0  0  0  0  0  0  0  0  0
    8.2936   -5.1727   26.8573 C   0  0  0  0  0  0  0  0  0  0  0  0
    8.9510    0.1280   21.6880 C   0  0  0  0  0  0  0  0  0  0  0  0
    8.4570   -6.5172   27.5438 C   0  0  0  0  0  0  0  0  0  0  0  0
    9.9041   -6.7452   27.9437 C   0  0  0  0  0  0  0  0  0  0  0  0
   10.8613   -6.5876   26.7664 C   0  0  0  0  0  0  0  0  0  0  0  0
   10.1902   -6.0099   25.5212 C   0  0  0  0  0  0  0  0  0  0  0  0
   10.0220    1.0430   23.6570 C   0  0  0  0  0  0  0  0  0  0  0  0
    9.4200   -0.0840   22.9530 C   0  0  2  0  0  0  0  0  0  0  0  0
    6.9440    0.2550   18.0100 N   0  0  0  0  0  0  0  0  0  0  0  0
    9.2624   -4.9267   25.8634 N   0  0  0  0  0  0  0  0  0  0  0  0
    8.0810   -0.9750   21.0820 N   0  0  0  0  0  0  0  0  0  0  0  0
    7.3372   -4.4549   27.1472 O   0  0  0  0  0  0  0  0  0  0  0  0
    9.1870    1.1500   21.0630 O   0  0  0  0  0  0  0  0  0  0  0  0
   13.9945    2.9538   20.8667 Cl  0  0  0  0  0  0  0  0  0  0  0  0
    3.6256    2.0106   21.6303 H   0  0  0  0  0  0  0  0  0  0  0  0
    3.2724    2.7868   19.3204 H   0  0  0  0  0  0  0  0  0  0  0  0
   14.4581    0.1014   24.7709 H   0  0  0  0  0  0  0  0  0  0  0  0
    5.4858    0.4664   22.1692 H   0  0  0  0  0  0  0  0  0  0  0  0
   12.0190   -0.0873   25.1307 H   0  0  0  0  0  0  0  0  0  0  0  0
    7.5948   -0.7783   24.7966 H   0  0  0  0  0  0  0  0  0  0  0  0
   11.0389   -2.1844   22.6342 H   0  0  0  0  0  0  0  0  0  0  0  0
    4.7836    2.0664   17.4848 H   0  0  0  0  0  0  0  0  0  0  0  0
    7.5642   -2.8624   26.1050 H   0  0  0  0  0  0  0  0  0  0  0  0
   11.0137   -4.2649   23.9418 H   0  0  0  0  0  0  0  0  0  0  0  0
   15.3412    1.4401   22.8940 H   0  0  0  0  0  0  0  0  0  0  0  0
   11.3158    2.4230   21.7095 H   0  0  0  0  0  0  0  0  0  0  0  0
    8.5274   -1.0858   18.3384 H   0  0  0  0  0  0  0  0  0  0  0  0
    7.8354   -6.5308   28.4258 H   0  0  0  0  0  0  0  0  0  0  0  0
    8.1327   -7.2802   26.8520 H   0  0  0  0  0  0  0  0  0  0  0  0
   10.1894   -6.0388   28.7510 H   0  0  0  0  0  0  0  0  0  0  0  0
   10.0147   -7.7577   28.3814 H   0  0  0  0  0  0  0  0  0  0  0  0
   11.7074   -5.9326   27.0628 H   0  0  0  0  0  0  0  0  0  0  0  0
   11.3252   -7.5678   26.5219 H   0  0  0  0  0  0  0  0  0  0  0  0
   10.9447   -5.5942   24.8603 H   0  0  0  0  0  0  0  0  0  0  0  0
    9.6472   -6.7947   25.0059 H   0  0  0  0  0  0  0  0  0  0  0  0
    9.8155    0.9894   24.7339 H   0  0  0  0  0  0  0  0  0  0  0  0
    9.5584    1.9798   23.3178 H   0  0  0  0  0  0  0  0  0  0  0  0
    8.1278    0.3254   23.5142 H   0  0  0  0  0  0  0  0  0  0  0  0
    7.0325    0.4238   17.0175 H   0  0  0  0  0  0  0  0  0  0  0  0
    8.1354   -1.7990   21.3694 H   0  0  0  0  0  0  0  0  0  0  0  0
  1  2  1  0  0  0  0
  1  4  2  0  0  0  0
  2  8  2  0  0  0  0
  3  5  2  0  0  0  0
  3 11  1  0  0  0  0
  4 14  1  0  0  0  0
  5 16  1  0  0  0  0
  6  9  2  0  0  0  0
  6 15  1  0  0  0  0
  7 10  1  0  0  0  0
  7 15  2  0  0  0  0
  8 17  1  0  0  0  0
  9 18  1  0  0  0  0
 10 18  2  0  0  0  0
 11 20  2  0  0  0  0
 12 16  2  0  0  0  0
 12 20  1  0  0  0  0
 13 19  2  0  0  0  0
 13 29  1  0  0  0  0
 14 17  2  0  0  0  0
 14 19  1  0  0  0  0
 15 28  1  0  0  0  0
 16 27  1  0  0  0  0
 17 29  1  0  0  0  0
 18 30  1  0  0  0  0
 19 31  1  0  0  0  0
 20 34  1  0  0  0  0
 21 23  1  0  0  0  0
 21 30  1  0  0  0  0
 21 32  2  0  0  0  0
 22 28  1  6  0  0  0
 22 31  1  0  0  0  0
 22 33  2  0  0  0  0
 23 24  1  0  0  0  0
 24 25  1  0  0  0  0
 25 26  1  0  0  0  0
 26 30  1  0  0  0  0
 27 28  1  0  0  0  0
  1 35  1  0  0  0  0
  2 36  1  0  0  0  0
  3 37  1  0  0  0  0
  4 38  1  0  0  0  0
  5 39  1  0  0  0  0
  6 40  1  0  0  0  0
  7 41  1  0  0  0  0
  8 42  1  0  0  0  0
  9 43  1  0  0  0  0
 10 44  1  0  0  0  0
 11 45  1  0  0  0  0
 12 46  1  0  0  0  0
 13 47  1  0  0  0  0
 23 48  1  0  0  0  0
 23 49  1  0  0  0  0
 24 50  1  0  0  0  0
 24 51  1  0  0  0  0
 25 52  1  0  0  0  0
 25 53  1  0  0  0  0
 26 54  1  0  0  0  0
 26 55  1  0  0  0  0
 27 56  1  0  0  0  0
 27 57  1  0  0  0  0
 28 58  1  0  0  0  0
 29 59  1  0  0  0  0
 31 60  1  0  0  0  0
M  END
> <clash_score>
2.0601108515385818

> <docking_score>
-5.532619476318359

> <overlap_score>
1.0297893285751343

$$$$
BENZO_302_1
  -OEChem-08222022413D

 60 64  0     1  0  0  0  0  0999 V2000
    4.2970    1.6690   20.8430 C   0  0  0  0  0  0  0  0  0  0  0  0
    4.0980    2.1130   19.5350 C   0  0  0  0  0  0  0  0  0  0  0  0
   13.7706    0.6101   24.1094 C   0  0  0  0  0  0  0  0  0  0  0  0
    5.3360    0.8000   21.1530 C   0  0  0  0  0  0  0  0  0  0  0  0
   12.5330    0.9096   23.5401 C   0  0  0  0  0  0  0  0  0  0  0  0
    8.3510   -1.5420   24.6110 C   0  0  0  0  0  0  0  0  0  0  0  0
   10.2760   -2.3270   23.4020 C   0  0  0  0  0  0  0  0  0  0  0  0
    4.9400    1.7060   18.5060 C   0  0  0  0  0  0  0  0  0  0  0  0
    8.3310   -2.7170   25.3430 C   0  0  0  0  0  0  0  0  0  0  0  0
   10.2570   -3.5000   24.1350 C   0  0  0  0  0  0  0  0  0  0  0  0
   13.8379    0.1181   25.4130 C   0  0  0  0  0  0  0  0  0  0  0  0
   11.4299    0.2252   25.5777 C   0  0  0  0  0  0  0  0  0  0  0  0
    7.6830   -0.5170   18.7600 C   0  0  0  0  0  0  0  0  0  0  0  0
    6.1600    0.3870   20.1140 C   0  0  0  0  0  0  0  0  0  0  0  0
    9.3300   -1.3350   23.6390 C   0  0  0  0  0  0  0  0  0  0  0  0
   11.3626    0.7171   24.2742 C   0  0  0  0  0  0  0  0  0  0  0  0
    5.9810    0.8330   18.8060 C   0  0  0  0  0  0  0  0  0  0  0  0
    9.2850   -3.7090   25.1090 C   0  0  0  0  0  0  0  0  0  0  0  0
    7.2210   -0.4620   20.0350 C   0  0  0  0  0  0  0  0  0  0  0  0
   12.6676   -0.0743   26.1471 C   0  0  0  0  0  0  0  0  0  0  0  0
    8.0643   -5.4721   26.3672 C   0  0  0  0  0  0  0  0  0  0  0  0
    8.9510    0.1280   21.6880 C   0  0  0  0  0  0  0  0  0  0  0  0
    8.2649   -6.7591   27.1477 C   0  0  0  0  0  0  0  0  0  0  0  0
    9.4073   -6.6157   28.1377 C   0  0  0  0  0  0  0  0  0  0  0  0
   10.6967   -6.1489   27.4694 C   0  0  0  0  0  0  0  0  0  0  0  0
   10.4950   -5.7059   26.0212 C   0  0  0  0  0  0  0  0  0  0  0  0
   10.0220    1.0430   23.6570 C   0  0  0  0  0  0  0  0  0  0  0  0
    9.4200   -0.0840   22.9530 C   0  0  1  0  0  0  0  0  0  0  0  0
    6.9440    0.2550   18.0100 N   0  0  0  0  0  0  0  0  0  0  0  0
    9.2624   -4.9267   25.8634 N   0  0  0  0  0  0  0  0  0  0  0  0
    8.0810   -0.9750   21.0820 N   0  0  0  0  0  0  0  0  0  0  0  0
    6.9247   -5.0497   26.1749 O   0  0  0  0  0  0  0  0  0  0  0  0
    9.1870    1.1500   21.0630 O   0  0  0  0  0  0  0  0  0  0  0  0
   12.7514   -0.6802   27.7557 Cl  0  0  0  0  0  0  0  0  0  0  0  0
    3.6256    2.0106   21.6303 H   0  0  0  0  0  0  0  0  0  0  0  0
    3.2724    2.7868   19.3204 H   0  0  0  0  0  0  0  0  0  0  0  0
   14.6817    0.7602   23.5375 H   0  0  0  0  0  0  0  0  0  0  0  0
    5.4858    0.4664   22.1692 H   0  0  0  0  0  0  0  0  0  0  0  0
   12.4900    1.2926   22.5238 H   0  0  0  0  0  0  0  0  0  0  0  0
    7.5948   -0.7783   24.7966 H   0  0  0  0  0  0  0  0  0  0  0  0
   11.0389   -2.1844   22.6342 H   0  0  0  0  0  0  0  0  0  0  0  0
    4.7836    2.0664   17.4848 H   0  0  0  0  0  0  0  0  0  0  0  0
    7.5642   -2.8624   26.1050 H   0  0  0  0  0  0  0  0  0  0  0  0
   11.0137   -4.2649   23.9418 H   0  0  0  0  0  0  0  0  0  0  0  0
   14.8095   -0.1107   25.8440 H   0  0  0  0  0  0  0  0  0  0  0  0
   10.5145    0.0764   26.1458 H   0  0  0  0  0  0  0  0  0  0  0  0
    8.5274   -1.0858   18.3384 H   0  0  0  0  0  0  0  0  0  0  0  0
    7.3543   -6.9829   27.6818 H   0  0  0  0  0  0  0  0  0  0  0  0
    8.4783   -7.5436   26.4372 H   0  0  0  0  0  0  0  0  0  0  0  0
    9.1257   -5.9021   28.9399 H   0  0  0  0  0  0  0  0  0  0  0  0
    9.5814   -7.5840   28.6486 H   0  0  0  0  0  0  0  0  0  0  0  0
   11.1319   -5.3094   28.0513 H   0  0  0  0  0  0  0  0  0  0  0  0
   11.4591   -6.9570   27.5118 H   0  0  0  0  0  0  0  0  0  0  0  0
   11.3214   -5.0711   25.7158 H   0  0  0  0  0  0  0  0  0  0  0  0
   10.4496   -6.5786   25.3788 H   0  0  0  0  0  0  0  0  0  0  0  0
    9.3482    1.4259   24.4346 H   0  0  0  0  0  0  0  0  0  0  0  0
   10.1663    1.8793   22.9589 H   0  0  0  0  0  0  0  0  0  0  0  0
   10.7366   -0.4277   22.4442 H   0  0  0  0  0  0  0  0  0  0  0  0
    7.0325    0.4238   17.0175 H   0  0  0  0  0  0  0  0  0  0  0  0
    8.1354   -1.7990   21.3694 H   0  0  0  0  0  0  0  0  0  0  0  0
  1  2  1  0  0  0  0
  1  4  2  0  0  0  0
  2  8  2  0  0  0  0
  3  5  2  0  0  0  0
  3 11  1  0  0  0  0
  4 14  1  0  0  0  0
  5 16  1  0  0  0  0
  6  9  2  0  0  0  0
  6 15  1  0  0  0  0
  7 10  1  0  0  0  0
  7 15  2  0  0  0  0
  8 17  1  0  0  0  0
  9 18  1  0  0  0  0
 10 18  2  0  0  0  0
 11 20  2  0  0  0  0
 12 16  2  0  0  0  0
 12 20  1  0  0  0  0
 13 19  2  0  0  0  0
 13 29  1  0  0  0  0
 14 17  2  0  0  0  0
 14 19  1  0  0  0  0
 15 28  1  0  0  0  0
 16 27  1  0  0  0  0
 17 29  1  0  0  0  0
 18 30  1  0  0  0  0
 19 31  1  0  0  0  0
 20 34  1  0  0  0  0
 21 23  1  0  0  0  0
 21 30  1  0  0  0  0
 21 32  2  0  0  0  0
 22 28  1  1  0  0  0
 22 31  1  0  0  0  0
 22 33  2  0  0  0  0
 23 24  1  0  0  0  0
 24 25  1  0  0  0  0
 25 26  1  0  0  0  0
 26 30  1  0  0  0  0
 27 28  1  0  0  0  0
  1 35  1  0  0  0  0
  2 36  1  0  0  0  0
  3 37  1  0  0  0  0
  4 38  1  0  0  0  0
  5 39  1  0  0  0  0
  6 40  1  0  0  0  0
  7 41  1  0  0  0  0
  8 42  1  0  0  0  0
  9 43  1  0  0  0  0
 10 44  1  0  0  0  0
 11 45  1  0  0  0  0
 12 46  1  0  0  0  0
 13 47  1  0  0  0  0
 23 48  1  0  0  0  0
 23 49  1  0  0  0  0
 24 50  1  0  0  0  0
 24 51  1  0  0  0  0
 25 52  1  0  0  0  0
 25 53  1  0  0  0  0
 26 54  1  0  0  0  0
 26 55  1  0  0  0  0
 27 56  1  0  0  0  0
 27 57  1  0  0  0  0
 28 58  1  0  0  0  0
 29 59  1  0  0  0  0
 31 60  1  0  0  0  0
M  END
> <clash_score>
2.837865166907086

> <docking_score>
-4.504169940948486

> <overlap_score>
0.9476150870323181

$$$$
BENZO_303_1
  -OEChem-08222022413D

 60 64  0     1  0  0  0  0  0999 V2000
    4.2970    1.6690   20.8430 C   0  0  0  0  0  0  0  0  0  0  0  0
    4.0980    2.1130   19.5350 C   0  0  0  0  0  0  0  0  0  0  0  0
    5.3360    0.8000   21.1530 C   0  0  0  0  0  0  0  0  0  0  0  0
    8.3510   -1.5420   24.6110 C   0  0  0  0  0  0  0  0  0  0  0  0
   10.2760   -2.3270   23.4020 C   0  0  0  0  0  0  0  0  0  0  0  0
    4.9400    1.7060   18.5060 C   0  0  0  0  0  0  0  0  0  0  0  0
    8.3310   -2.7170   25.3430 C   0  0  0  0  0  0  0  0  0  0  0  0
   10.2570   -3.5000   24.1350 C   0  0  0  0  0  0  0  0  0  0  0  0
   12.2990    2.3261   23.4415 C   0  0  0  0  0  0  0  0  0  0  0  0
   12.4071    0.1434   23.1983 C   0  0  0  0  0  0  0  0  0  0  0  0
    7.6830   -0.5170   18.7600 C   0  0  0  0  0  0  0  0  0  0  0  0
    6.1600    0.3870   20.1140 C   0  0  0  0  0  0  0  0  0  0  0  0
    9.3300   -1.3350   23.6390 C   0  0  0  0  0  0  0  0  0  0  0  0
   11.5133    1.1580   23.4397 C   0  0  0  0  0  0  0  0  0  0  0  0
    5.9810    0.8330   18.8060 C   0  0  0  0  0  0  0  0  0  0  0  0
    9.2850   -3.7090   25.1090 C   0  0  0  0  0  0  0  0  0  0  0  0
    7.2210   -0.4620   20.0350 C   0  0  0  0  0  0  0  0  0  0  0  0
    8.0643   -5.4721   26.3672 C   0  0  0  0  0  0  0  0  0  0  0  0
    8.9510    0.1280   21.6880 C   0  0  0  0  0  0  0  0  0  0  0  0
    8.2649   -6.7591   27.1477 C   0  0  0  0  0  0  0  0  0  0  0  0
    9.4073   -6.6157   28.1377 C   0  0  0  0  0  0  0  0  0  0  0  0
   10.6967   -6.1489   27.4694 C   0  0  0  0  0  0  0  0  0  0  0  0
   10.4950   -5.7059   26.0212 C   0  0  0  0  0  0  0  0  0  0  0  0
   14.8827    0.0808   22.8159 C   0  0  0  0  0  0  0  0  0  0  0  0
   10.0220    1.0430   23.6570 C   0  0  0  0  0  0  0  0  0  0  0  0
    9.4200   -0.0840   22.9530 C   0  0  1  0  0  0  0  0  0  0  0  0
   13.5924    2.0778   23.2192 N   0  0  0  0  0  0  0  0  0  0  0  0
    6.9440    0.2550   18.0100 N   0  0  0  0  0  0  0  0  0  0  0  0
   13.6264    0.7421   23.0755 N   0  0  0  0  0  0  0  0  0  0  0  0
    9.2624   -4.9267   25.8634 N   0  0  0  0  0  0  0  0  0  0  0  0
    8.0810   -0.9750   21.0820 N   0  0  0  0  0  0  0  0  0  0  0  0
    6.9247   -5.0497   26.1749 O   0  0  0  0  0  0  0  0  0  0  0  0
    9.1870    1.1500   21.0630 O   0  0  0  0  0  0  0  0  0  0  0  0
    3.6256    2.0106   21.6303 H   0  0  0  0  0  0  0  0  0  0  0  0
    3.2724    2.7868   19.3204 H   0  0  0  0  0  0  0  0  0  0  0  0
    5.4858    0.4664   22.1692 H   0  0  0  0  0  0  0  0  0  0  0  0
    7.5948   -0.7783   24.7966 H   0  0  0  0  0  0  0  0  0  0  0  0
   11.0389   -2.1844   22.6342 H   0  0  0  0  0  0  0  0  0  0  0  0
    4.7836    2.0664   17.4848 H   0  0  0  0  0  0  0  0  0  0  0  0
    7.5642   -2.8624   26.1050 H   0  0  0  0  0  0  0  0  0  0  0  0
   11.0137   -4.2649   23.9418 H   0  0  0  0  0  0  0  0  0  0  0  0
   11.9854    3.3488   23.5963 H   0  0  0  0  0  0  0  0  0  0  0  0
   12.2826   -0.9272   23.1071 H   0  0  0  0  0  0  0  0  0  0  0  0
    8.5274   -1.0858   18.3384 H   0  0  0  0  0  0  0  0  0  0  0  0
    7.3543   -6.9829   27.6818 H   0  0  0  0  0  0  0  0  0  0  0  0
    8.4783   -7.5436   26.4372 H   0  0  0  0  0  0  0  0  0  0  0  0
    9.1257   -5.9021   28.9399 H   0  0  0  0  0  0  0  0  0  0  0  0
    9.5814   -7.5840   28.6486 H   0  0  0  0  0  0  0  0  0  0  0  0
   11.1319   -5.3094   28.0513 H   0  0  0  0  0  0  0  0  0  0  0  0
   11.4591   -6.9570   27.5118 H   0  0  0  0  0  0  0  0  0  0  0  0
   11.3214   -5.0711   25.7158 H   0  0  0  0  0  0  0  0  0  0  0  0
   10.4496   -6.5786   25.3788 H   0  0  0  0  0  0  0  0  0  0  0  0
   15.0210    0.0326   21.7326 H   0  0  0  0  0  0  0  0  0  0  0  0
   15.6949    0.6470   23.2802 H   0  0  0  0  0  0  0  0  0  0  0  0
   14.8568   -0.9251   23.2443 H   0  0  0  0  0  0  0  0  0  0  0  0
    9.8155    0.9894   24.7339 H   0  0  0  0  0  0  0  0  0  0  0  0
    9.5584    1.9798   23.3178 H   0  0  0  0  0  0  0  0  0  0  0  0
    8.1278    0.3254   23.5142 H   0  0  0  0  0  0  0  0  0  0  0  0
    7.0325    0.4238   17.0175 H   0  0  0  0  0  0  0  0  0  0  0  0
    8.1354   -1.7990   21.3694 H   0  0  0  0  0  0  0  0  0  0  0  0
  1  2  1  0  0  0  0
  1  3  2  0  0  0  0
  2  6  2  0  0  0  0
  3 12  1  0  0  0  0
  4  7  2  0  0  0  0
  4 13  1  0  0  0  0
  5  8  1  0  0  0  0
  5 13  2  0  0  0  0
  6 15  1  0  0  0  0
  7 16  1  0  0  0  0
  8 16  2  0  0  0  0
  9 14  1  0  0  0  0
  9 27  2  0  0  0  0
 10 14  2  0  0  0  0
 10 29  1  0  0  0  0
 11 17  2  0  0  0  0
 11 28  1  0  0  0  0
 12 15  2  0  0  0  0
 12 17  1  0  0  0  0
 13 26  1  0  0  0  0
 14 25  1  0  0  0  0
 15 28  1  0  0  0  0
 16 30  1  0  0  0  0
 17 31  1  0  0  0  0
 18 20  1  0  0  0  0
 18 30  1  0  0  0  0
 18 32  2  0  0  0  0
 19 26  1  0  0  0  0
 19 31  1  0  0  0  0
 19 33  2  0  0  0  0
 20 21  1  0  0  0  0
 21 22  1  0  0  0  0
 22 23  1  0  0  0  0
 23 30  1  0  0  0  0
 24 29  1  0  0  0  0
 25 26  1  1  0  0  0
 27 29  1  0  0  0  0
  1 34  1  0  0  0  0
  2 35  1  0  0  0  0
  3 36  1  0  0  0  0
  4 37  1  0  0  0  0
  5 38  1  0  0  0  0
  6 39  1  0  0  0  0
  7 40  1  0  0  0  0
  8 41  1  0  0  0  0
  9 42  1  0  0  0  0
 10 43  1  0  0  0  0
 11 44  1  0  0  0  0
 20 45  1  0  0  0  0
 20 46  1  0  0  0  0
 21 47  1  0  0  0  0
 21 48  1  0  0  0  0
 22 49  1  0  0  0  0
 22 50  1  0  0  0  0
 23 51  1  0  0  0  0
 23 52  1  0  0  0  0
 24 53  1  0  0  0  0
 24 54  1  0  0  0  0
 24 55  1  0  0  0  0
 25 56  1  0  0  0  0
 25 57  1  0  0  0  0
 26 58  1  0  0  0  0
 28 59  1  0  0  0  0
 31 60  1  0  0  0  0
M  END
> <clash_score>
1.2728248649063287

> <docking_score>
-7.065884590148926

> <overlap_score>
1.0278980731964111

$$$$
BENZO_303_2
  -OEChem-08222022413D

 60 64  0     1  0  0  0  0  0999 V2000
    4.2970    1.6690   20.8430 C   0  0  0  0  0  0  0  0  0  0  0  0
    4.0980    2.1130   19.5350 C   0  0  0  0  0  0  0  0  0  0  0  0
    5.3360    0.8000   21.1530 C   0  0  0  0  0  0  0  0  0  0  0  0
    8.3510   -1.5420   24.6110 C   0  0  0  0  0  0  0  0  0  0  0  0
   10.2760   -2.3270   23.4020 C   0  0  0  0  0  0  0  0  0  0  0  0
    4.9400    1.7060   18.5060 C   0  0  0  0  0  0  0  0  0  0  0  0
    8.3310   -2.7170   25.3430 C   0  0  0  0  0  0  0  0  0  0  0  0
   10.2570   -3.5000   24.1350 C   0  0  0  0  0  0  0  0  0  0  0  0
   12.6370    0.8477   23.6904 C   0  0  0  0  0  0  0  0  0  0  0  0
   11.6104    0.2288   25.5338 C   0  0  0  0  0  0  0  0  0  0  0  0
    7.6830   -0.5170   18.7600 C   0  0  0  0  0  0  0  0  0  0  0  0
    6.1600    0.3870   20.1140 C   0  0  0  0  0  0  0  0  0  0  0  0
    9.3300   -1.3350   23.6390 C   0  0  0  0  0  0  0  0  0  0  0  0
   11.3626    0.7171   24.2742 C   0  0  0  0  0  0  0  0  0  0  0  0
    5.9810    0.8330   18.8060 C   0  0  0  0  0  0  0  0  0  0  0  0
    9.2850   -3.7090   25.1090 C   0  0  0  0  0  0  0  0  0  0  0  0
    7.2210   -0.4620   20.0350 C   0  0  0  0  0  0  0  0  0  0  0  0
    8.0643   -5.4721   26.3672 C   0  0  0  0  0  0  0  0  0  0  0  0
    8.9510    0.1280   21.6880 C   0  0  0  0  0  0  0  0  0  0  0  0
    8.2649   -6.7591   27.1477 C   0  0  0  0  0  0  0  0  0  0  0  0
    9.4073   -6.6157   28.1377 C   0  0  0  0  0  0  0  0  0  0  0  0
   10.6967   -6.1489   27.4694 C   0  0  0  0  0  0  0  0  0  0  0  0
   10.4950   -5.7059   26.0212 C   0  0  0  0  0  0  0  0  0  0  0  0
   13.7058   -0.3764   26.7673 C   0  0  0  0  0  0  0  0  0  0  0  0
   10.0220    1.0430   23.6570 C   0  0  0  0  0  0  0  0  0  0  0  0
    9.4200   -0.0840   22.9530 C   0  0  2  0  0  0  0  0  0  0  0  0
   13.6213    0.4728   24.5118 N   0  0  0  0  0  0  0  0  0  0  0  0
    6.9440    0.2550   18.0100 N   0  0  0  0  0  0  0  0  0  0  0  0
   12.9653    0.1019   25.6246 N   0  0  0  0  0  0  0  0  0  0  0  0
    9.2624   -4.9267   25.8634 N   0  0  0  0  0  0  0  0  0  0  0  0
    8.0810   -0.9750   21.0820 N   0  0  0  0  0  0  0  0  0  0  0  0
    6.9247   -5.0497   26.1749 O   0  0  0  0  0  0  0  0  0  0  0  0
    9.1870    1.1500   21.0630 O   0  0  0  0  0  0  0  0  0  0  0  0
    3.6256    2.0106   21.6303 H   0  0  0  0  0  0  0  0  0  0  0  0
    3.2724    2.7868   19.3204 H   0  0  0  0  0  0  0  0  0  0  0  0
    5.4858    0.4664   22.1692 H   0  0  0  0  0  0  0  0  0  0  0  0
    7.5948   -0.7783   24.7966 H   0  0  0  0  0  0  0  0  0  0  0  0
   11.0389   -2.1844   22.6342 H   0  0  0  0  0  0  0  0  0  0  0  0
    4.7836    2.0664   17.4848 H   0  0  0  0  0  0  0  0  0  0  0  0
    7.5642   -2.8624   26.1050 H   0  0  0  0  0  0  0  0  0  0  0  0
   11.0137   -4.2649   23.9418 H   0  0  0  0  0  0  0  0  0  0  0  0
   12.8920    1.2011   22.7013 H   0  0  0  0  0  0  0  0  0  0  0  0
   10.9543   -0.0315   26.3534 H   0  0  0  0  0  0  0  0  0  0  0  0
    8.5274   -1.0858   18.3384 H   0  0  0  0  0  0  0  0  0  0  0  0
    7.3543   -6.9829   27.6818 H   0  0  0  0  0  0  0  0  0  0  0  0
    8.4783   -7.5436   26.4372 H   0  0  0  0  0  0  0  0  0  0  0  0
    9.1257   -5.9021   28.9399 H   0  0  0  0  0  0  0  0  0  0  0  0
    9.5814   -7.5840   28.6486 H   0  0  0  0  0  0  0  0  0  0  0  0
   11.1319   -5.3094   28.0513 H   0  0  0  0  0  0  0  0  0  0  0  0
   11.4591   -6.9570   27.5118 H   0  0  0  0  0  0  0  0  0  0  0  0
   11.3214   -5.0711   25.7158 H   0  0  0  0  0  0  0  0  0  0  0  0
   10.4496   -6.5786   25.3788 H   0  0  0  0  0  0  0  0  0  0  0  0
   13.8122   -1.4601   26.6708 H   0  0  0  0  0  0  0  0  0  0  0  0
   14.6882    0.1035   26.7915 H   0  0  0  0  0  0  0  0  0  0  0  0
   13.1616   -0.1245   27.6818 H   0  0  0  0  0  0  0  0  0  0  0  0
    9.3482    1.4259   24.4346 H   0  0  0  0  0  0  0  0  0  0  0  0
   10.1663    1.8793   22.9589 H   0  0  0  0  0  0  0  0  0  0  0  0
   10.7366   -0.4277   22.4442 H   0  0  0  0  0  0  0  0  0  0  0  0
    7.0325    0.4238   17.0175 H   0  0  0  0  0  0  0  0  0  0  0  0
    8.1354   -1.7990   21.3694 H   0  0  0  0  0  0  0  0  0  0  0  0
  1  2  1  0  0  0  0
  1  3  2  0  0  0  0
  2  6  2  0  0  0  0
  3 12  1  0  0  0  0
  4  7  2  0  0  0  0
  4 13  1  0  0  0  0
  5  8  1  0  0  0  0
  5 13  2  0  0  0  0
  6 15  1  0  0  0  0
  7 16  1  0  0  0  0
  8 16  2  0  0  0  0
  9 14  1  0  0  0  0
  9 27  2  0  0  0  0
 10 14  2  0  0  0  0
 10 29  1  0  0  0  0
 11 17  2  0  0  0  0
 11 28  1  0  0  0  0
 12 15  2  0  0  0  0
 12 17  1  0  0  0  0
 13 26  1  0  0  0  0
 14 25  1  0  0  0  0
 15 28  1  0  0  0  0
 16 30  1  0  0  0  0
 17 31  1  0  0  0  0
 18 20  1  0  0  0  0
 18 30  1  0  0  0  0
 18 32  2  0  0  0  0
 19 26  1  0  0  0  0
 19 31  1  0  0  0  0
 19 33  2  0  0  0  0
 20 21  1  0  0  0  0
 21 22  1  0  0  0  0
 22 23  1  0  0  0  0
 23 30  1  0  0  0  0
 24 29  1  0  0  0  0
 25 26  1  6  0  0  0
 27 29  1  0  0  0  0
  1 34  1  0  0  0  0
  2 35  1  0  0  0  0
  3 36  1  0  0  0  0
  4 37  1  0  0  0  0
  5 38  1  0  0  0  0
  6 39  1  0  0  0  0
  7 40  1  0  0  0  0
  8 41  1  0  0  0  0
  9 42  1  0  0  0  0
 10 43  1  0  0  0  0
 11 44  1  0  0  0  0
 20 45  1  0  0  0  0
 20 46  1  0  0  0  0
 21 47  1  0  0  0  0
 21 48  1  0  0  0  0
 22 49  1  0  0  0  0
 22 50  1  0  0  0  0
 23 51  1  0  0  0  0
 23 52  1  0  0  0  0
 24 53  1  0  0  0  0
 24 54  1  0  0  0  0
 24 55  1  0  0  0  0
 25 56  1  0  0  0  0
 25 57  1  0  0  0  0
 26 58  1  0  0  0  0
 28 59  1  0  0  0  0
 31 60  1  0  0  0  0
M  END
> <clash_score>
2.007716923079976

> <docking_score>
-5.2668328285217285

> <overlap_score>
0.9403040409088135

$$$$
BENZO_305_1
  -OEChem-08222022413D

 59 63  0     1  0  0  0  0  0999 V2000
   13.8295    0.0638   25.4018 C   0  0  0  0  0  0  0  0  0  0  0  0
    4.2970    1.6690   20.8430 C   0  0  0  0  0  0  0  0  0  0  0  0
   12.6583   -0.1175   26.1372 C   0  0  0  0  0  0  0  0  0  0  0  0
   13.7659    0.5627   24.1007 C   0  0  0  0  0  0  0  0  0  0  0  0
    4.0980    2.1130   19.5350 C   0  0  0  0  0  0  0  0  0  0  0  0
    5.3360    0.8000   21.1530 C   0  0  0  0  0  0  0  0  0  0  0  0
   11.4234    0.2001   25.5717 C   0  0  0  0  0  0  0  0  0  0  0  0
   12.5310    0.8802   23.5351 C   0  0  0  0  0  0  0  0  0  0  0  0
    8.3510   -1.5420   24.6110 C   0  0  0  0  0  0  0  0  0  0  0  0
   10.2760   -2.3270   23.4020 C   0  0  0  0  0  0  0  0  0  0  0  0
    4.9400    1.7060   18.5060 C   0  0  0  0  0  0  0  0  0  0  0  0
    8.3310   -2.7170   25.3430 C   0  0  0  0  0  0  0  0  0  0  0  0
   10.2570   -3.5000   24.1350 C   0  0  0  0  0  0  0  0  0  0  0  0
    7.6830   -0.5170   18.7600 C   0  0  0  0  0  0  0  0  0  0  0  0
    6.1600    0.3870   20.1140 C   0  0  0  0  0  0  0  0  0  0  0  0
   11.3598    0.6989   24.2706 C   0  0  0  0  0  0  0  0  0  0  0  0
    9.3300   -1.3350   23.6390 C   0  0  0  0  0  0  0  0  0  0  0  0
    5.9810    0.8330   18.8060 C   0  0  0  0  0  0  0  0  0  0  0  0
    9.2850   -3.7090   25.1090 C   0  0  0  0  0  0  0  0  0  0  0  0
    7.2210   -0.4620   20.0350 C   0  0  0  0  0  0  0  0  0  0  0  0
    8.9510    0.1280   21.6880 C   0  0  0  0  0  0  0  0  0  0  0  0
    8.7672   -4.9539   27.2147 C   0  0  0  0  0  0  0  0  0  0  0  0
    9.3060   -6.1863   25.1644 C   0  0  0  0  0  0  0  0  0  0  0  0
    7.3845   -5.5968   27.1999 C   0  0  0  0  0  0  0  0  0  0  0  0
    7.9062   -6.7991   25.2257 C   0  0  0  0  0  0  0  0  0  0  0  0
   10.0220    1.0430   23.6570 C   0  0  0  0  0  0  0  0  0  0  0  0
    9.4200   -0.0840   22.9530 C   0  0  1  0  0  0  0  0  0  0  0  0
    6.9440    0.2550   18.0100 N   0  0  0  0  0  0  0  0  0  0  0  0
    9.2641   -4.8845   25.8388 N   0  0  0  0  0  0  0  0  0  0  0  0
    8.0810   -0.9750   21.0820 N   0  0  0  0  0  0  0  0  0  0  0  0
    9.1870    1.1500   21.0630 O   0  0  0  0  0  0  0  0  0  0  0  0
    7.4526   -6.8873   26.5811 O   0  0  0  0  0  0  0  0  0  0  0  0
   14.7910   -0.1823   25.8428 H   0  0  0  0  0  0  0  0  0  0  0  0
    3.6256    2.0106   21.6303 H   0  0  0  0  0  0  0  0  0  0  0  0
   12.7077   -0.5049   27.1507 H   0  0  0  0  0  0  0  0  0  0  0  0
   14.6777    0.7050   23.5282 H   0  0  0  0  0  0  0  0  0  0  0  0
    3.2724    2.7868   19.3204 H   0  0  0  0  0  0  0  0  0  0  0  0
    5.4858    0.4664   22.1692 H   0  0  0  0  0  0  0  0  0  0  0  0
   10.5160    0.0554   26.1521 H   0  0  0  0  0  0  0  0  0  0  0  0
   12.4911    1.2683   22.5207 H   0  0  0  0  0  0  0  0  0  0  0  0
    7.5957   -0.7779   24.7973 H   0  0  0  0  0  0  0  0  0  0  0  0
   11.0384   -2.1852   22.6338 H   0  0  0  0  0  0  0  0  0  0  0  0
    4.7836    2.0664   17.4848 H   0  0  0  0  0  0  0  0  0  0  0  0
    7.5634   -2.8637   26.1037 H   0  0  0  0  0  0  0  0  0  0  0  0
   11.0139   -4.2645   23.9419 H   0  0  0  0  0  0  0  0  0  0  0  0
    8.5274   -1.0858   18.3384 H   0  0  0  0  0  0  0  0  0  0  0  0
    8.7043   -3.9576   27.6640 H   0  0  0  0  0  0  0  0  0  0  0  0
    9.4508   -5.5642   27.8158 H   0  0  0  0  0  0  0  0  0  0  0  0
   10.0157   -6.8385   25.6807 H   0  0  0  0  0  0  0  0  0  0  0  0
    9.6157   -6.0831   24.1225 H   0  0  0  0  0  0  0  0  0  0  0  0
    7.0304   -5.7389   28.2230 H   0  0  0  0  0  0  0  0  0  0  0  0
    6.6546   -4.9733   26.6758 H   0  0  0  0  0  0  0  0  0  0  0  0
    7.1886   -6.2213   24.6315 H   0  0  0  0  0  0  0  0  0  0  0  0
    7.9303   -7.8141   24.8176 H   0  0  0  0  0  0  0  0  0  0  0  0
    9.3529    1.4272   24.4380 H   0  0  0  0  0  0  0  0  0  0  0  0
   10.1743    1.8827   22.9648 H   0  0  0  0  0  0  0  0  0  0  0  0
   10.7346   -0.4307   22.4468 H   0  0  0  0  0  0  0  0  0  0  0  0
    7.0325    0.4238   17.0175 H   0  0  0  0  0  0  0  0  0  0  0  0
    8.1175   -1.8104   21.3538 H   0  0  0  0  0  0  0  0  0  0  0  0
  1  3  1  0  0  0  0
  1  4  2  0  0  0  0
  2  5  1  0  0  0  0
  2  6  2  0  0  0  0
  3  7  2  0  0  0  0
  4  8  1  0  0  0  0
  5 11  2  0  0  0  0
  6 15  1  0  0  0  0
  7 16  1  0  0  0  0
  8 16  2  0  0  0  0
  9 12  2  0  0  0  0
  9 17  1  0  0  0  0
 10 13  1  0  0  0  0
 10 17  2  0  0  0  0
 11 18  1  0  0  0  0
 12 19  1  0  0  0  0
 13 19  2  0  0  0  0
 14 20  2  0  0  0  0
 14 28  1  0  0  0  0
 15 18  2  0  0  0  0
 15 20  1  0  0  0  0
 16 26  1  0  0  0  0
 17 27  1  0  0  0  0
 18 28  1  0  0  0  0
 19 29  1  0  0  0  0
 20 30  1  0  0  0  0
 21 27  1  1  0  0  0
 21 30  1  0  0  0  0
 21 31  2  0  0  0  0
 22 24  1  0  0  0  0
 22 29  1  0  0  0  0
 23 25  1  0  0  0  0
 23 29  1  0  0  0  0
 24 32  1  0  0  0  0
 25 32  1  0  0  0  0
 26 27  1  0  0  0  0
  1 33  1  0  0  0  0
  2 34  1  0  0  0  0
  3 35  1  0  0  0  0
  4 36  1  0  0  0  0
  5 37  1  0  0  0  0
  6 38  1  0  0  0  0
  7 39  1  0  0  0  0
  8 40  1  0  0  0  0
  9 41  1  0  0  0  0
 10 42  1  0  0  0  0
 11 43  1  0  0  0  0
 12 44  1  0  0  0  0
 13 45  1  0  0  0  0
 14 46  1  0  0  0  0
 22 47  1  0  0  0  0
 22 48  1  0  0  0  0
 23 49  1  0  0  0  0
 23 50  1  0  0  0  0
 24 51  1  0  0  0  0
 24 52  1  0  0  0  0
 25 53  1  0  0  0  0
 25 54  1  0  0  0  0
 26 55  1  0  0  0  0
 26 56  1  0  0  0  0
 27 57  1  0  0  0  0
 28 58  1  0  0  0  0
 30 59  1  0  0  0  0
M  END
> <clash_score>
0.6066498463373579

> <docking_score>
-6.670515060424805

> <overlap_score>
0.9492980241775513

$$$$
BENZO_305_2
  -OEChem-08222022413D

 59 63  0     1  0  0  0  0  0999 V2000
   14.2623    1.3345   22.9975 C   0  0  0  0  0  0  0  0  0  0  0  0
    4.2970    1.6690   20.8430 C   0  0  0  0  0  0  0  0  0  0  0  0
   13.7729    0.5817   24.0649 C   0  0  0  0  0  0  0  0  0  0  0  0
   13.3767    1.9928   22.1442 C   0  0  0  0  0  0  0  0  0  0  0  0
    4.0980    2.1130   19.5350 C   0  0  0  0  0  0  0  0  0  0  0  0
    5.3360    0.8000   21.1530 C   0  0  0  0  0  0  0  0  0  0  0  0
   12.3978    0.4871   24.2790 C   0  0  0  0  0  0  0  0  0  0  0  0
   12.0016    1.8982   22.3583 C   0  0  0  0  0  0  0  0  0  0  0  0
    8.3510   -1.5420   24.6110 C   0  0  0  0  0  0  0  0  0  0  0  0
   10.2760   -2.3270   23.4020 C   0  0  0  0  0  0  0  0  0  0  0  0
    4.9400    1.7060   18.5060 C   0  0  0  0  0  0  0  0  0  0  0  0
    8.3310   -2.7170   25.3430 C   0  0  0  0  0  0  0  0  0  0  0  0
   10.2570   -3.5000   24.1350 C   0  0  0  0  0  0  0  0  0  0  0  0
    7.6830   -0.5170   18.7600 C   0  0  0  0  0  0  0  0  0  0  0  0
    6.1600    0.3870   20.1140 C   0  0  0  0  0  0  0  0  0  0  0  0
   11.5121    1.1453   23.4257 C   0  0  0  0  0  0  0  0  0  0  0  0
    9.3300   -1.3350   23.6390 C   0  0  0  0  0  0  0  0  0  0  0  0
    5.9810    0.8330   18.8060 C   0  0  0  0  0  0  0  0  0  0  0  0
    9.2850   -3.7090   25.1090 C   0  0  0  0  0  0  0  0  0  0  0  0
    7.2210   -0.4620   20.0350 C   0  0  0  0  0  0  0  0  0  0  0  0
    8.9510    0.1280   21.6880 C   0  0  0  0  0  0  0  0  0  0  0  0
    8.7672   -4.9539   27.2147 C   0  0  0  0  0  0  0  0  0  0  0  0
    9.3060   -6.1863   25.1644 C   0  0  0  0  0  0  0  0  0  0  0  0
    7.3845   -5.5968   27.1999 C   0  0  0  0  0  0  0  0  0  0  0  0
    7.9062   -6.7991   25.2257 C   0  0  0  0  0  0  0  0  0  0  0  0
   10.0220    1.0430   23.6570 C   0  0  0  0  0  0  0  0  0  0  0  0
    9.4200   -0.0840   22.9530 C   0  0  2  0  0  0  0  0  0  0  0  0
    6.9440    0.2550   18.0100 N   0  0  0  0  0  0  0  0  0  0  0  0
    9.2641   -4.8845   25.8388 N   0  0  0  0  0  0  0  0  0  0  0  0
    8.0810   -0.9750   21.0820 N   0  0  0  0  0  0  0  0  0  0  0  0
    9.1870    1.1500   21.0630 O   0  0  0  0  0  0  0  0  0  0  0  0
    7.4526   -6.8873   26.5811 O   0  0  0  0  0  0  0  0  0  0  0  0
   15.3331    1.4092   22.8317 H   0  0  0  0  0  0  0  0  0  0  0  0
    3.6256    2.0106   21.6303 H   0  0  0  0  0  0  0  0  0  0  0  0
   14.4624    0.0700   24.7300 H   0  0  0  0  0  0  0  0  0  0  0  0
   13.7574    2.5799   21.3137 H   0  0  0  0  0  0  0  0  0  0  0  0
    3.2724    2.7868   19.3204 H   0  0  0  0  0  0  0  0  0  0  0  0
    5.4858    0.4664   22.1692 H   0  0  0  0  0  0  0  0  0  0  0  0
   12.0255   -0.1019   25.1131 H   0  0  0  0  0  0  0  0  0  0  0  0
   11.3191    2.4143   21.6883 H   0  0  0  0  0  0  0  0  0  0  0  0
    7.5957   -0.7779   24.7973 H   0  0  0  0  0  0  0  0  0  0  0  0
   11.0384   -2.1852   22.6338 H   0  0  0  0  0  0  0  0  0  0  0  0
    4.7836    2.0664   17.4848 H   0  0  0  0  0  0  0  0  0  0  0  0
    7.5634   -2.8637   26.1037 H   0  0  0  0  0  0  0  0  0  0  0  0
   11.0139   -4.2645   23.9419 H   0  0  0  0  0  0  0  0  0  0  0  0
    8.5274   -1.0858   18.3384 H   0  0  0  0  0  0  0  0  0  0  0  0
    8.7043   -3.9576   27.6640 H   0  0  0  0  0  0  0  0  0  0  0  0
    9.4508   -5.5642   27.8158 H   0  0  0  0  0  0  0  0  0  0  0  0
   10.0157   -6.8385   25.6807 H   0  0  0  0  0  0  0  0  0  0  0  0
    9.6157   -6.0831   24.1225 H   0  0  0  0  0  0  0  0  0  0  0  0
    7.0304   -5.7389   28.2230 H   0  0  0  0  0  0  0  0  0  0  0  0
    6.6546   -4.9733   26.6758 H   0  0  0  0  0  0  0  0  0  0  0  0
    7.1886   -6.2213   24.6315 H   0  0  0  0  0  0  0  0  0  0  0  0
    7.9303   -7.8141   24.8176 H   0  0  0  0  0  0  0  0  0  0  0  0
    9.8253    0.9889   24.7357 H   0  0  0  0  0  0  0  0  0  0  0  0
    9.5635    1.9845   23.3241 H   0  0  0  0  0  0  0  0  0  0  0  0
    8.1288    0.3205   23.5156 H   0  0  0  0  0  0  0  0  0  0  0  0
    7.0325    0.4238   17.0175 H   0  0  0  0  0  0  0  0  0  0  0  0
    8.1175   -1.8104   21.3538 H   0  0  0  0  0  0  0  0  0  0  0  0
  1  3  1  0  0  0  0
  1  4  2  0  0  0  0
  2  5  1  0  0  0  0
  2  6  2  0  0  0  0
  3  7  2  0  0  0  0
  4  8  1  0  0  0  0
  5 11  2  0  0  0  0
  6 15  1  0  0  0  0
  7 16  1  0  0  0  0
  8 16  2  0  0  0  0
  9 12  2  0  0  0  0
  9 17  1  0  0  0  0
 10 13  1  0  0  0  0
 10 17  2  0  0  0  0
 11 18  1  0  0  0  0
 12 19  1  0  0  0  0
 13 19  2  0  0  0  0
 14 20  2  0  0  0  0
 14 28  1  0  0  0  0
 15 18  2  0  0  0  0
 15 20  1  0  0  0  0
 16 26  1  0  0  0  0
 17 27  1  0  0  0  0
 18 28  1  0  0  0  0
 19 29  1  0  0  0  0
 20 30  1  0  0  0  0
 21 27  1  6  0  0  0
 21 30  1  0  0  0  0
 21 31  2  0  0  0  0
 22 24  1  0  0  0  0
 22 29  1  0  0  0  0
 23 25  1  0  0  0  0
 23 29  1  0  0  0  0
 24 32  1  0  0  0  0
 25 32  1  0  0  0  0
 26 27  1  0  0  0  0
  1 33  1  0  0  0  0
  2 34  1  0  0  0  0
  3 35  1  0  0  0  0
  4 36  1  0  0  0  0
  5 37  1  0  0  0  0
  6 38  1  0  0  0  0
  7 39  1  0  0  0  0
  8 40  1  0  0  0  0
  9 41  1  0  0  0  0
 10 42  1  0  0  0  0
 11 43  1  0  0  0  0
 12 44  1  0  0  0  0
 13 45  1  0  0  0  0
 14 46  1  0  0  0  0
 22 47  1  0  0  0  0
 22 48  1  0  0  0  0
 23 49  1  0  0  0  0
 23 50  1  0  0  0  0
 24 51  1  0  0  0  0
 24 52  1  0  0  0  0
 25 53  1  0  0  0  0
 25 54  1  0  0  0  0
 26 55  1  0  0  0  0
 26 56  1  0  0  0  0
 27 57  1  0  0  0  0
 28 58  1  0  0  0  0
 30 59  1  0  0  0  0
M  END
> <clash_score>
0

> <docking_score>
-7.608057022094727

> <overlap_score>
1.026633620262146

$$$$
BENZO_304_1
  -OEChem-08222022413D

 56 60  0     1  0  0  0  0  0999 V2000
    4.2970    1.6690   20.8430 C   0  0  0  0  0  0  0  0  0  0  0  0
    4.0980    2.1130   19.5350 C   0  0  0  0  0  0  0  0  0  0  0  0
    5.3360    0.8000   21.1530 C   0  0  0  0  0  0  0  0  0  0  0  0
    8.3510   -1.5420   24.6110 C   0  0  0  0  0  0  0  0  0  0  0  0
   10.2760   -2.3270   23.4020 C   0  0  0  0  0  0  0  0  0  0  0  0
    4.9400    1.7060   18.5060 C   0  0  0  0  0  0  0  0  0  0  0  0
    8.3310   -2.7170   25.3430 C   0  0  0  0  0  0  0  0  0  0  0  0
   10.2570   -3.5000   24.1350 C   0  0  0  0  0  0  0  0  0  0  0  0
   11.0468    0.9536   26.0357 C   0  0  0  0  0  0  0  0  0  0  0  0
    7.6830   -0.5170   18.7600 C   0  0  0  0  0  0  0  0  0  0  0  0
   12.1250    0.4349   26.7183 C   0  0  0  0  0  0  0  0  0  0  0  0
   12.1733   -0.1537   24.3307 C   0  0  0  0  0  0  0  0  0  0  0  0
    6.1600    0.3870   20.1140 C   0  0  0  0  0  0  0  0  0  0  0  0
    9.3300   -1.3350   23.6390 C   0  0  0  0  0  0  0  0  0  0  0  0
   11.0747    0.6126   24.6525 C   0  0  0  0  0  0  0  0  0  0  0  0
    5.9810    0.8330   18.8060 C   0  0  0  0  0  0  0  0  0  0  0  0
    9.2850   -3.7090   25.1090 C   0  0  0  0  0  0  0  0  0  0  0  0
    7.2210   -0.4620   20.0350 C   0  0  0  0  0  0  0  0  0  0  0  0
    8.9510    0.1280   21.6880 C   0  0  0  0  0  0  0  0  0  0  0  0
    8.7672   -4.9539   27.2147 C   0  0  0  0  0  0  0  0  0  0  0  0
    9.3060   -6.1863   25.1644 C   0  0  0  0  0  0  0  0  0  0  0  0
    7.3845   -5.5968   27.1999 C   0  0  0  0  0  0  0  0  0  0  0  0
    7.9062   -6.7991   25.2257 C   0  0  0  0  0  0  0  0  0  0  0  0
   10.0220    1.0430   23.6570 C   0  0  0  0  0  0  0  0  0  0  0  0
    9.4200   -0.0840   22.9530 C   0  0  1  0  0  0  0  0  0  0  0  0
    6.9440    0.2550   18.0100 N   0  0  0  0  0  0  0  0  0  0  0  0
    9.2641   -4.8845   25.8388 N   0  0  0  0  0  0  0  0  0  0  0  0
    8.0810   -0.9750   21.0820 N   0  0  0  0  0  0  0  0  0  0  0  0
    9.1870    1.1500   21.0630 O   0  0  0  0  0  0  0  0  0  0  0  0
    7.4526   -6.8873   26.5811 O   0  0  0  0  0  0  0  0  0  0  0  0
   13.1649   -0.4592   25.6929 S   0  0  0  0  0  0  0  0  0  0  0  0
    3.6256    2.0106   21.6303 H   0  0  0  0  0  0  0  0  0  0  0  0
    3.2724    2.7868   19.3204 H   0  0  0  0  0  0  0  0  0  0  0  0
    5.4858    0.4664   22.1692 H   0  0  0  0  0  0  0  0  0  0  0  0
    7.5957   -0.7779   24.7973 H   0  0  0  0  0  0  0  0  0  0  0  0
   11.0384   -2.1852   22.6338 H   0  0  0  0  0  0  0  0  0  0  0  0
    4.7836    2.0664   17.4848 H   0  0  0  0  0  0  0  0  0  0  0  0
    7.5634   -2.8637   26.1037 H   0  0  0  0  0  0  0  0  0  0  0  0
   11.0139   -4.2645   23.9419 H   0  0  0  0  0  0  0  0  0  0  0  0
   10.2771    1.5494   26.5100 H   0  0  0  0  0  0  0  0  0  0  0  0
    8.5274   -1.0858   18.3384 H   0  0  0  0  0  0  0  0  0  0  0  0
   12.3522    0.5386   27.7699 H   0  0  0  0  0  0  0  0  0  0  0  0
   12.4454   -0.5497   23.3621 H   0  0  0  0  0  0  0  0  0  0  0  0
    8.7043   -3.9576   27.6640 H   0  0  0  0  0  0  0  0  0  0  0  0
    9.4508   -5.5642   27.8158 H   0  0  0  0  0  0  0  0  0  0  0  0
   10.0157   -6.8385   25.6807 H   0  0  0  0  0  0  0  0  0  0  0  0
    9.6157   -6.0831   24.1225 H   0  0  0  0  0  0  0  0  0  0  0  0
    7.0304   -5.7389   28.2230 H   0  0  0  0  0  0  0  0  0  0  0  0
    6.6546   -4.9733   26.6758 H   0  0  0  0  0  0  0  0  0  0  0  0
    7.1886   -6.2213   24.6315 H   0  0  0  0  0  0  0  0  0  0  0  0
    7.9303   -7.8141   24.8176 H   0  0  0  0  0  0  0  0  0  0  0  0
    9.2602    1.6432   24.1714 H   0  0  0  0  0  0  0  0  0  0  0  0
   10.4960    1.7269   22.9392 H   0  0  0  0  0  0  0  0  0  0  0  0
   10.7346   -0.4307   22.4468 H   0  0  0  0  0  0  0  0  0  0  0  0
    7.0325    0.4238   17.0175 H   0  0  0  0  0  0  0  0  0  0  0  0
    8.1175   -1.8104   21.3538 H   0  0  0  0  0  0  0  0  0  0  0  0
  1  2  1  0  0  0  0
  1  3  2  0  0  0  0
  2  6  2  0  0  0  0
  3 13  1  0  0  0  0
  4  7  2  0  0  0  0
  4 14  1  0  0  0  0
  5  8  1  0  0  0  0
  5 14  2  0  0  0  0
  6 16  1  0  0  0  0
  7 17  1  0  0  0  0
  8 17  2  0  0  0  0
  9 11  2  0  0  0  0
  9 15  1  0  0  0  0
 10 18  2  0  0  0  0
 10 26  1  0  0  0  0
 11 31  1  0  0  0  0
 12 15  2  0  0  0  0
 12 31  1  0  0  0  0
 13 16  2  0  0  0  0
 13 18  1  0  0  0  0
 14 25  1  0  0  0  0
 15 24  1  0  0  0  0
 16 26  1  0  0  0  0
 17 27  1  0  0  0  0
 18 28  1  0  0  0  0
 19 25  1  1  0  0  0
 19 28  1  0  0  0  0
 19 29  2  0  0  0  0
 20 22  1  0  0  0  0
 20 27  1  0  0  0  0
 21 23  1  0  0  0  0
 21 27  1  0  0  0  0
 22 30  1  0  0  0  0
 23 30  1  0  0  0  0
 24 25  1  0  0  0  0
  1 32  1  0  0  0  0
  2 33  1  0  0  0  0
  3 34  1  0  0  0  0
  4 35  1  0  0  0  0
  5 36  1  0  0  0  0
  6 37  1  0  0  0  0
  7 38  1  0  0  0  0
  8 39  1  0  0  0  0
  9 40  1  0  0  0  0
 10 41  1  0  0  0  0
 11 42  1  0  0  0  0
 12 43  1  0  0  0  0
 20 44  1  0  0  0  0
 20 45  1  0  0  0  0
 21 46  1  0  0  0  0
 21 47  1  0  0  0  0
 22 48  1  0  0  0  0
 22 49  1  0  0  0  0
 23 50  1  0  0  0  0
 23 51  1  0  0  0  0
 24 52  1  0  0  0  0
 24 53  1  0  0  0  0
 25 54  1  0  0  0  0
 26 55  1  0  0  0  0
 28 56  1  0  0  0  0
M  END
> <clash_score>
0

> <docking_score>
-5.664681434631348

> <overlap_score>
0.899434506893158

$$$$
BENZO_304_2
  -OEChem-08222022413D

 56 60  0     1  0  0  0  0  0999 V2000
    4.2970    1.6690   20.8430 C   0  0  0  0  0  0  0  0  0  0  0  0
    4.0980    2.1130   19.5350 C   0  0  0  0  0  0  0  0  0  0  0  0
    5.3360    0.8000   21.1530 C   0  0  0  0  0  0  0  0  0  0  0  0
    8.3510   -1.5420   24.6110 C   0  0  0  0  0  0  0  0  0  0  0  0
   10.2760   -2.3270   23.4020 C   0  0  0  0  0  0  0  0  0  0  0  0
    4.9400    1.7060   18.5060 C   0  0  0  0  0  0  0  0  0  0  0  0
    8.3310   -2.7170   25.3430 C   0  0  0  0  0  0  0  0  0  0  0  0
   10.2570   -3.5000   24.1350 C   0  0  0  0  0  0  0  0  0  0  0  0
   12.2216    2.3786   23.3498 C   0  0  0  0  0  0  0  0  0  0  0  0
    7.6830   -0.5170   18.7600 C   0  0  0  0  0  0  0  0  0  0  0  0
   13.5684    2.1883   23.1319 C   0  0  0  0  0  0  0  0  0  0  0  0
   12.3438    0.0592   23.2626 C   0  0  0  0  0  0  0  0  0  0  0  0
    6.1600    0.3870   20.1140 C   0  0  0  0  0  0  0  0  0  0  0  0
    9.3300   -1.3350   23.6390 C   0  0  0  0  0  0  0  0  0  0  0  0
   11.5121    1.1453   23.4257 C   0  0  0  0  0  0  0  0  0  0  0  0
    5.9810    0.8330   18.8060 C   0  0  0  0  0  0  0  0  0  0  0  0
    9.2850   -3.7090   25.1090 C   0  0  0  0  0  0  0  0  0  0  0  0
    7.2210   -0.4620   20.0350 C   0  0  0  0  0  0  0  0  0  0  0  0
    8.9510    0.1280   21.6880 C   0  0  0  0  0  0  0  0  0  0  0  0
    8.7672   -4.9539   27.2147 C   0  0  0  0  0  0  0  0  0  0  0  0
    9.3060   -6.1863   25.1644 C   0  0  0  0  0  0  0  0  0  0  0  0
    7.3845   -5.5968   27.1999 C   0  0  0  0  0  0  0  0  0  0  0  0
    7.9062   -6.7991   25.2257 C   0  0  0  0  0  0  0  0  0  0  0  0
   10.0220    1.0430   23.6570 C   0  0  0  0  0  0  0  0  0  0  0  0
    9.4200   -0.0840   22.9530 C   0  0  2  0  0  0  0  0  0  0  0  0
    6.9440    0.2550   18.0100 N   0  0  0  0  0  0  0  0  0  0  0  0
    9.2641   -4.8845   25.8388 N   0  0  0  0  0  0  0  0  0  0  0  0
    8.0810   -0.9750   21.0820 N   0  0  0  0  0  0  0  0  0  0  0  0
    9.1870    1.1500   21.0630 O   0  0  0  0  0  0  0  0  0  0  0  0
    7.4526   -6.8873   26.5811 O   0  0  0  0  0  0  0  0  0  0  0  0
   13.9727    0.5281   23.0196 S   0  0  0  0  0  0  0  0  0  0  0  0
    3.6256    2.0106   21.6303 H   0  0  0  0  0  0  0  0  0  0  0  0
    3.2724    2.7868   19.3204 H   0  0  0  0  0  0  0  0  0  0  0  0
    5.4858    0.4664   22.1692 H   0  0  0  0  0  0  0  0  0  0  0  0
    7.5957   -0.7779   24.7973 H   0  0  0  0  0  0  0  0  0  0  0  0
   11.0384   -2.1852   22.6338 H   0  0  0  0  0  0  0  0  0  0  0  0
    4.7836    2.0664   17.4848 H   0  0  0  0  0  0  0  0  0  0  0  0
    7.5634   -2.8637   26.1037 H   0  0  0  0  0  0  0  0  0  0  0  0
   11.0139   -4.2645   23.9419 H   0  0  0  0  0  0  0  0  0  0  0  0
   11.7708    3.3580   23.4491 H   0  0  0  0  0  0  0  0  0  0  0  0
    8.5274   -1.0858   18.3384 H   0  0  0  0  0  0  0  0  0  0  0  0
   14.3341    2.9446   23.0326 H   0  0  0  0  0  0  0  0  0  0  0  0
   12.0768   -0.9885   23.2727 H   0  0  0  0  0  0  0  0  0  0  0  0
    8.7043   -3.9576   27.6640 H   0  0  0  0  0  0  0  0  0  0  0  0
    9.4508   -5.5642   27.8158 H   0  0  0  0  0  0  0  0  0  0  0  0
   10.0157   -6.8385   25.6807 H   0  0  0  0  0  0  0  0  0  0  0  0
    9.6157   -6.0831   24.1225 H   0  0  0  0  0  0  0  0  0  0  0  0
    7.0304   -5.7389   28.2230 H   0  0  0  0  0  0  0  0  0  0  0  0
    6.6546   -4.9733   26.6758 H   0  0  0  0  0  0  0  0  0  0  0  0
    7.1886   -6.2213   24.6315 H   0  0  0  0  0  0  0  0  0  0  0  0
    7.9303   -7.8141   24.8176 H   0  0  0  0  0  0  0  0  0  0  0  0
    9.8253    0.9889   24.7357 H   0  0  0  0  0  0  0  0  0  0  0  0
    9.5635    1.9845   23.3241 H   0  0  0  0  0  0  0  0  0  0  0  0
    8.1288    0.3205   23.5156 H   0  0  0  0  0  0  0  0  0  0  0  0
    7.0325    0.4238   17.0175 H   0  0  0  0  0  0  0  0  0  0  0  0
    8.1175   -1.8104   21.3538 H   0  0  0  0  0  0  0  0  0  0  0  0
  1  2  1  0  0  0  0
  1  3  2  0  0  0  0
  2  6  2  0  0  0  0
  3 13  1  0  0  0  0
  4  7  2  0  0  0  0
  4 14  1  0  0  0  0
  5  8  1  0  0  0  0
  5 14  2  0  0  0  0
  6 16  1  0  0  0  0
  7 17  1  0  0  0  0
  8 17  2  0  0  0  0
  9 11  2  0  0  0  0
  9 15  1  0  0  0  0
 10 18  2  0  0  0  0
 10 26  1  0  0  0  0
 11 31  1  0  0  0  0
 12 15  2  0  0  0  0
 12 31  1  0  0  0  0
 13 16  2  0  0  0  0
 13 18  1  0  0  0  0
 14 25  1  0  0  0  0
 15 24  1  0  0  0  0
 16 26  1  0  0  0  0
 17 27  1  0  0  0  0
 18 28  1  0  0  0  0
 19 25  1  6  0  0  0
 19 28  1  0  0  0  0
 19 29  2  0  0  0  0
 20 22  1  0  0  0  0
 20 27  1  0  0  0  0
 21 23  1  0  0  0  0
 21 27  1  0  0  0  0
 22 30  1  0  0  0  0
 23 30  1  0  0  0  0
 24 25  1  0  0  0  0
  1 32  1  0  0  0  0
  2 33  1  0  0  0  0
  3 34  1  0  0  0  0
  4 35  1  0  0  0  0
  5 36  1  0  0  0  0
  6 37  1  0  0  0  0
  7 38  1  0  0  0  0
  8 39  1  0  0  0  0
  9 40  1  0  0  0  0
 10 41  1  0  0  0  0
 11 42  1  0  0  0  0
 12 43  1  0  0  0  0
 20 44  1  0  0  0  0
 20 45  1  0  0  0  0
 21 46  1  0  0  0  0
 21 47  1  0  0  0  0
 22 48  1  0  0  0  0
 22 49  1  0  0  0  0
 23 50  1  0  0  0  0
 23 51  1  0  0  0  0
 24 52  1  0  0  0  0
 24 53  1  0  0  0  0
 25 54  1  0  0  0  0
 26 55  1  0  0  0  0
 28 56  1  0  0  0  0
M  END
> <clash_score>
0

> <docking_score>
-8.504297256469727

> <overlap_score>
1.0141586065292358

$$$$
BENZO_309_1
  -OEChem-08222022413D

 52 55  0     1  0  0  0  0  0999 V2000
   14.2623    1.3345   22.9975 C   0  0  0  0  0  0  0  0  0  0  0  0
   13.7729    0.5817   24.0649 C   0  0  0  0  0  0  0  0  0  0  0  0
   13.3767    1.9928   22.1442 C   0  0  0  0  0  0  0  0  0  0  0  0
   12.3978    0.4871   24.2790 C   0  0  0  0  0  0  0  0  0  0  0  0
   12.0016    1.8981   22.3583 C   0  0  0  0  0  0  0  0  0  0  0  0
    8.3510   -1.5420   24.6110 C   0  0  0  0  0  0  0  0  0  0  0  0
   10.2760   -2.3270   23.4020 C   0  0  0  0  0  0  0  0  0  0  0  0
    8.3310   -2.7170   25.3430 C   0  0  0  0  0  0  0  0  0  0  0  0
   10.2570   -3.5000   24.1350 C   0  0  0  0  0  0  0  0  0  0  0  0
   11.5121    1.1453   23.4257 C   0  0  0  0  0  0  0  0  0  0  0  0
    9.3300   -1.3350   23.6390 C   0  0  0  0  0  0  0  0  0  0  0  0
    9.2850   -3.7090   25.1090 C   0  0  0  0  0  0  0  0  0  0  0  0
    5.9810    0.8330   18.8060 C   0  0  0  0  0  0  0  0  0  0  0  0
    7.2210   -0.4620   20.0350 C   0  0  0  0  0  0  0  0  0  0  0  0
    4.9400    1.7060   18.5060 C   0  0  0  0  0  0  0  0  0  0  0  0
    4.0980    2.1130   19.5350 C   0  0  0  0  0  0  0  0  0  0  0  0
    4.2970    1.6690   20.8430 C   0  0  0  0  0  0  0  0  0  0  0  0
    5.3360    0.8000   21.1530 C   0  0  0  0  0  0  0  0  0  0  0  0
    8.9510    0.1280   21.6880 C   0  0  0  0  0  0  0  0  0  0  0  0
    8.2526   -5.1189   26.8655 C   0  0  0  0  0  0  0  0  0  0  0  0
   10.2443   -5.9398   25.5977 C   0  0  0  0  0  0  0  0  0  0  0  0
   10.0220    1.0430   23.6570 C   0  0  0  0  0  0  0  0  0  0  0  0
    9.4200   -0.0840   22.9530 C   0  0  1  0  0  0  0  0  0  0  0  0
    6.9440    0.2550   18.0100 N   0  0  0  0  0  0  0  0  0  0  0  0
    7.6830   -0.5170   18.7600 N   0  0  0  0  0  0  0  0  0  0  0  0
    6.1600    0.3870   20.1140 N   0  0  0  0  0  0  0  0  0  0  0  0
    8.0810   -0.9750   21.0820 N   0  0  0  0  0  0  0  0  0  0  0  0
    9.2638   -4.9025   25.8500 N   0  0  0  0  0  0  0  0  0  0  0  0
    9.1870    1.1500   21.0630 O   0  0  0  0  0  0  0  0  0  0  0  0
   15.3331    1.4092   22.8317 H   0  0  0  0  0  0  0  0  0  0  0  0
   14.4623    0.0700   24.7300 H   0  0  0  0  0  0  0  0  0  0  0  0
   13.7574    2.5799   21.3137 H   0  0  0  0  0  0  0  0  0  0  0  0
   12.0255   -0.1019   25.1131 H   0  0  0  0  0  0  0  0  0  0  0  0
   11.3191    2.4143   21.6883 H   0  0  0  0  0  0  0  0  0  0  0  0
    7.5957   -0.7779   24.7973 H   0  0  0  0  0  0  0  0  0  0  0  0
   11.0384   -2.1852   22.6338 H   0  0  0  0  0  0  0  0  0  0  0  0
    7.5634   -2.8637   26.1037 H   0  0  0  0  0  0  0  0  0  0  0  0
   11.0139   -4.2645   23.9419 H   0  0  0  0  0  0  0  0  0  0  0  0
    4.7733    2.0700   17.5071 H   0  0  0  0  0  0  0  0  0  0  0  0
    3.2813    2.7836   19.2995 H   0  0  0  0  0  0  0  0  0  0  0  0
    3.6335    1.9977   21.6542 H   0  0  0  0  0  0  0  0  0  0  0  0
    5.5067    0.4537   22.1474 H   0  0  0  0  0  0  0  0  0  0  0  0
    8.4030   -6.1050   27.3292 H   0  0  0  0  0  0  0  0  0  0  0  0
    8.3320   -4.3364   27.6345 H   0  0  0  0  0  0  0  0  0  0  0  0
    7.2550   -5.0794   26.4037 H   0  0  0  0  0  0  0  0  0  0  0  0
   10.0625   -6.7890   26.2728 H   0  0  0  0  0  0  0  0  0  0  0  0
   10.1609   -6.2770   24.5540 H   0  0  0  0  0  0  0  0  0  0  0  0
   11.2540   -5.5406   25.7744 H   0  0  0  0  0  0  0  0  0  0  0  0
    9.8253    0.9889   24.7357 H   0  0  0  0  0  0  0  0  0  0  0  0
    9.5635    1.9845   23.3241 H   0  0  0  0  0  0  0  0  0  0  0  0
    8.1288    0.3205   23.5156 H   0  0  0  0  0  0  0  0  0  0  0  0
    8.1152   -1.8120   21.3518 H   0  0  0  0  0  0  0  0  0  0  0  0
  1  2  1  0  0  0  0
  1  3  2  0  0  0  0
  2  4  2  0  0  0  0
  3  5  1  0  0  0  0
  4 10  1  0  0  0  0
  5 10  2  0  0  0  0
  6  8  2  0  0  0  0
  6 11  1  0  0  0  0
  7  9  1  0  0  0  0
  7 11  2  0  0  0  0
  8 12  1  0  0  0  0
  9 12  2  0  0  0  0
 10 22  1  0  0  0  0
 11 23  1  0  0  0  0
 12 28  1  0  0  0  0
 13 15  1  0  0  0  0
 13 24  2  0  0  0  0
 13 26  1  0  0  0  0
 14 25  2  0  0  0  0
 14 26  1  0  0  0  0
 14 27  1  0  0  0  0
 15 16  2  0  0  0  0
 16 17  1  0  0  0  0
 17 18  2  0  0  0  0
 18 26  1  0  0  0  0
 19 23  1  0  0  0  0
 19 27  1  0  0  0  0
 19 29  2  0  0  0  0
 20 28  1  0  0  0  0
 21 28  1  0  0  0  0
 22 23  1  1  0  0  0
 24 25  1  0  0  0  0
  1 30  1  0  0  0  0
  2 31  1  0  0  0  0
  3 32  1  0  0  0  0
  4 33  1  0  0  0  0
  5 34  1  0  0  0  0
  6 35  1  0  0  0  0
  7 36  1  0  0  0  0
  8 37  1  0  0  0  0
  9 38  1  0  0  0  0
 15 39  1  0  0  0  0
 16 40  1  0  0  0  0
 17 41  1  0  0  0  0
 18 42  1  0  0  0  0
 20 43  1  0  0  0  0
 20 44  1  0  0  0  0
 20 45  1  0  0  0  0
 21 46  1  0  0  0  0
 21 47  1  0  0  0  0
 21 48  1  0  0  0  0
 22 49  1  0  0  0  0
 22 50  1  0  0  0  0
 23 51  1  0  0  0  0
 27 52  1  0  0  0  0
M  END
> <clash_score>
0

> <docking_score>
-9.42824935913086

> <overlap_score>
1.0132732391357422

$$$$
BENZO_308_1
  -OEChem-08222022413D

 49 52  0     1  0  0  0  0  0999 V2000
    8.3510   -1.5420   24.6110 C   0  0  0  0  0  0  0  0  0  0  0  0
   10.2760   -2.3270   23.4020 C   0  0  0  0  0  0  0  0  0  0  0  0
    8.3310   -2.7170   25.3430 C   0  0  0  0  0  0  0  0  0  0  0  0
   10.2570   -3.5000   24.1350 C   0  0  0  0  0  0  0  0  0  0  0  0
   12.2216    2.3786   23.3498 C   0  0  0  0  0  0  0  0  0  0  0  0
   13.5684    2.1883   23.1319 C   0  0  0  0  0  0  0  0  0  0  0  0
   12.3438    0.0592   23.2626 C   0  0  0  0  0  0  0  0  0  0  0  0
    9.3300   -1.3350   23.6390 C   0  0  0  0  0  0  0  0  0  0  0  0
   11.5121    1.1453   23.4257 C   0  0  0  0  0  0  0  0  0  0  0  0
    9.2850   -3.7090   25.1090 C   0  0  0  0  0  0  0  0  0  0  0  0
    5.9810    0.8330   18.8060 C   0  0  0  0  0  0  0  0  0  0  0  0
    7.2210   -0.4620   20.0350 C   0  0  0  0  0  0  0  0  0  0  0  0
    4.9400    1.7060   18.5060 C   0  0  0  0  0  0  0  0  0  0  0  0
    4.0980    2.1130   19.5350 C   0  0  0  0  0  0  0  0  0  0  0  0
    4.2970    1.6690   20.8430 C   0  0  0  0  0  0  0  0  0  0  0  0
    5.3360    0.8000   21.1530 C   0  0  0  0  0  0  0  0  0  0  0  0
    8.9510    0.1280   21.6880 C   0  0  0  0  0  0  0  0  0  0  0  0
    8.2526   -5.1189   26.8655 C   0  0  0  0  0  0  0  0  0  0  0  0
   10.2443   -5.9398   25.5977 C   0  0  0  0  0  0  0  0  0  0  0  0
   10.0220    1.0430   23.6570 C   0  0  0  0  0  0  0  0  0  0  0  0
    9.4200   -0.0840   22.9530 C   0  0  1  0  0  0  0  0  0  0  0  0
    6.9440    0.2550   18.0100 N   0  0  0  0  0  0  0  0  0  0  0  0
    7.6830   -0.5170   18.7600 N   0  0  0  0  0  0  0  0  0  0  0  0
    6.1600    0.3870   20.1140 N   0  0  0  0  0  0  0  0  0  0  0  0
    8.0810   -0.9750   21.0820 N   0  0  0  0  0  0  0  0  0  0  0  0
    9.2638   -4.9025   25.8500 N   0  0  0  0  0  0  0  0  0  0  0  0
    9.1870    1.1500   21.0630 O   0  0  0  0  0  0  0  0  0  0  0  0
   13.9727    0.5281   23.0196 S   0  0  0  0  0  0  0  0  0  0  0  0
    7.5957   -0.7779   24.7973 H   0  0  0  0  0  0  0  0  0  0  0  0
   11.0384   -2.1852   22.6338 H   0  0  0  0  0  0  0  0  0  0  0  0
    7.5634   -2.8637   26.1037 H   0  0  0  0  0  0  0  0  0  0  0  0
   11.0139   -4.2645   23.9419 H   0  0  0  0  0  0  0  0  0  0  0  0
   11.7708    3.3580   23.4491 H   0  0  0  0  0  0  0  0  0  0  0  0
   14.3341    2.9446   23.0326 H   0  0  0  0  0  0  0  0  0  0  0  0
   12.0768   -0.9885   23.2727 H   0  0  0  0  0  0  0  0  0  0  0  0
    4.7733    2.0700   17.5071 H   0  0  0  0  0  0  0  0  0  0  0  0
    3.2813    2.7836   19.2995 H   0  0  0  0  0  0  0  0  0  0  0  0
    3.6335    1.9977   21.6542 H   0  0  0  0  0  0  0  0  0  0  0  0
    5.5067    0.4537   22.1474 H   0  0  0  0  0  0  0  0  0  0  0  0
    8.4030   -6.1050   27.3292 H   0  0  0  0  0  0  0  0  0  0  0  0
    8.3320   -4.3364   27.6345 H   0  0  0  0  0  0  0  0  0  0  0  0
    7.2550   -5.0794   26.4037 H   0  0  0  0  0  0  0  0  0  0  0  0
   10.0625   -6.7890   26.2728 H   0  0  0  0  0  0  0  0  0  0  0  0
   10.1609   -6.2770   24.5540 H   0  0  0  0  0  0  0  0  0  0  0  0
   11.2540   -5.5406   25.7744 H   0  0  0  0  0  0  0  0  0  0  0  0
    9.8253    0.9889   24.7357 H   0  0  0  0  0  0  0  0  0  0  0  0
    9.5635    1.9845   23.3241 H   0  0  0  0  0  0  0  0  0  0  0  0
    8.1288    0.3205   23.5156 H   0  0  0  0  0  0  0  0  0  0  0  0
    8.1152   -1.8120   21.3518 H   0  0  0  0  0  0  0  0  0  0  0  0
  1  3  2  0  0  0  0
  1  8  1  0  0  0  0
  2  4  1  0  0  0  0
  2  8  2  0  0  0  0
  3 10  1  0  0  0  0
  4 10  2  0  0  0  0
  5  6  2  0  0  0  0
  5  9  1  0  0  0  0
  6 28  1  0  0  0  0
  7  9  2  0  0  0  0
  7 28  1  0  0  0  0
  8 21  1  0  0  0  0
  9 20  1  0  0  0  0
 10 26  1  0  0  0  0
 11 13  1  0  0  0  0
 11 22  2  0  0  0  0
 11 24  1  0  0  0  0
 12 23  2  0  0  0  0
 12 24  1  0  0  0  0
 12 25  1  0  0  0  0
 13 14  2  0  0  0  0
 14 15  1  0  0  0  0
 15 16  2  0  0  0  0
 16 24  1  0  0  0  0
 17 21  1  0  0  0  0
 17 25  1  0  0  0  0
 17 27  2  0  0  0  0
 18 26  1  0  0  0  0
 19 26  1  0  0  0  0
 20 21  1  1  0  0  0
 22 23  1  0  0  0  0
  1 29  1  0  0  0  0
  2 30  1  0  0  0  0
  3 31  1  0  0  0  0
  4 32  1  0  0  0  0
  5 33  1  0  0  0  0
  6 34  1  0  0  0  0
  7 35  1  0  0  0  0
 13 36  1  0  0  0  0
 14 37  1  0  0  0  0
 15 38  1  0  0  0  0
 16 39  1  0  0  0  0
 18 40  1  0  0  0  0
 18 41  1  0  0  0  0
 18 42  1  0  0  0  0
 19 43  1  0  0  0  0
 19 44  1  0  0  0  0
 19 45  1  0  0  0  0
 20 46  1  0  0  0  0
 20 47  1  0  0  0  0
 21 48  1  0  0  0  0
 25 49  1  0  0  0  0
M  END
> <clash_score>
0

> <docking_score>
-10.324519157409668

> <overlap_score>
1.0006928443908691

$$$$
BENZO_306_1
  -OEChem-08222022413D

 59 63  0     1  0  0  0  0  0999 V2000
    4.2970    1.6690   20.8430 C   0  0  0  0  0  0  0  0  0  0  0  0
    4.0980    2.1130   19.5350 C   0  0  0  0  0  0  0  0  0  0  0  0
   12.6560   -0.1194   26.1378 C   0  0  0  0  0  0  0  0  0  0  0  0
    5.3360    0.8000   21.1530 C   0  0  0  0  0  0  0  0  0  0  0  0
   11.4219    0.1994   25.5714 C   0  0  0  0  0  0  0  0  0  0  0  0
    8.3510   -1.5420   24.6110 C   0  0  0  0  0  0  0  0  0  0  0  0
   10.2760   -2.3270   23.4020 C   0  0  0  0  0  0  0  0  0  0  0  0
    4.9400    1.7060   18.5060 C   0  0  0  0  0  0  0  0  0  0  0  0
    8.3310   -2.7170   25.3430 C   0  0  0  0  0  0  0  0  0  0  0  0
   10.2570   -3.5000   24.1350 C   0  0  0  0  0  0  0  0  0  0  0  0
   13.8281    0.0614   25.4035 C   0  0  0  0  0  0  0  0  0  0  0  0
   12.5318    0.8798   23.5362 C   0  0  0  0  0  0  0  0  0  0  0  0
    7.6830   -0.5170   18.7600 C   0  0  0  0  0  0  0  0  0  0  0  0
    6.1600    0.3870   20.1140 C   0  0  0  0  0  0  0  0  0  0  0  0
    9.3300   -1.3350   23.6390 C   0  0  0  0  0  0  0  0  0  0  0  0
   11.3598    0.6989   24.2706 C   0  0  0  0  0  0  0  0  0  0  0  0
    5.9810    0.8330   18.8060 C   0  0  0  0  0  0  0  0  0  0  0  0
    9.2850   -3.7090   25.1090 C   0  0  0  0  0  0  0  0  0  0  0  0
    7.2210   -0.4620   20.0350 C   0  0  0  0  0  0  0  0  0  0  0  0
   13.7660    0.5610   24.1026 C   0  0  0  0  0  0  0  0  0  0  0  0
    8.9510    0.1280   21.6880 C   0  0  0  0  0  0  0  0  0  0  0  0
    8.7672   -4.9539   27.2147 C   0  0  0  0  0  0  0  0  0  0  0  0
    9.3060   -6.1863   25.1644 C   0  0  0  0  0  0  0  0  0  0  0  0
    7.3845   -5.5968   27.1999 C   0  0  0  0  0  0  0  0  0  0  0  0
    7.9062   -6.7991   25.2257 C   0  0  0  0  0  0  0  0  0  0  0  0
   10.0220    1.0430   23.6570 C   0  0  0  0  0  0  0  0  0  0  0  0
    9.4200   -0.0840   22.9530 C   0  0  1  0  0  0  0  0  0  0  0  0
    6.9440    0.2550   18.0100 N   0  0  0  0  0  0  0  0  0  0  0  0
    9.2641   -4.8845   25.8388 N   0  0  0  0  0  0  0  0  0  0  0  0
    8.0810   -0.9750   21.0820 N   0  0  0  0  0  0  0  0  0  0  0  0
    9.1870    1.1500   21.0630 O   0  0  0  0  0  0  0  0  0  0  0  0
    7.4526   -6.8873   26.5811 O   0  0  0  0  0  0  0  0  0  0  0  0
   15.2122    0.7829   23.1967 Cl  0  0  0  0  0  0  0  0  0  0  0  0
    3.6256    2.0106   21.6303 H   0  0  0  0  0  0  0  0  0  0  0  0
    3.2724    2.7868   19.3204 H   0  0  0  0  0  0  0  0  0  0  0  0
   12.7039   -0.5086   27.1508 H   0  0  0  0  0  0  0  0  0  0  0  0
    5.4858    0.4664   22.1692 H   0  0  0  0  0  0  0  0  0  0  0  0
   10.5137    0.0551   26.1509 H   0  0  0  0  0  0  0  0  0  0  0  0
    7.5957   -0.7779   24.7973 H   0  0  0  0  0  0  0  0  0  0  0  0
   11.0384   -2.1852   22.6338 H   0  0  0  0  0  0  0  0  0  0  0  0
    4.7836    2.0664   17.4848 H   0  0  0  0  0  0  0  0  0  0  0  0
    7.5634   -2.8637   26.1037 H   0  0  0  0  0  0  0  0  0  0  0  0
   11.0139   -4.2645   23.9419 H   0  0  0  0  0  0  0  0  0  0  0  0
   14.7829   -0.1916   25.8577 H   0  0  0  0  0  0  0  0  0  0  0  0
   12.4781    1.2701   22.5225 H   0  0  0  0  0  0  0  0  0  0  0  0
    8.5274   -1.0858   18.3384 H   0  0  0  0  0  0  0  0  0  0  0  0
    8.7043   -3.9576   27.6640 H   0  0  0  0  0  0  0  0  0  0  0  0
    9.4508   -5.5642   27.8158 H   0  0  0  0  0  0  0  0  0  0  0  0
   10.0157   -6.8385   25.6807 H   0  0  0  0  0  0  0  0  0  0  0  0
    9.6157   -6.0831   24.1225 H   0  0  0  0  0  0  0  0  0  0  0  0
    7.0304   -5.7389   28.2230 H   0  0  0  0  0  0  0  0  0  0  0  0
    6.6546   -4.9733   26.6758 H   0  0  0  0  0  0  0  0  0  0  0  0
    7.1886   -6.2213   24.6315 H   0  0  0  0  0  0  0  0  0  0  0  0
    7.9303   -7.8141   24.8176 H   0  0  0  0  0  0  0  0  0  0  0  0
    9.3529    1.4272   24.4380 H   0  0  0  0  0  0  0  0  0  0  0  0
   10.1743    1.8827   22.9648 H   0  0  0  0  0  0  0  0  0  0  0  0
   10.7346   -0.4307   22.4468 H   0  0  0  0  0  0  0  0  0  0  0  0
    7.0325    0.4238   17.0175 H   0  0  0  0  0  0  0  0  0  0  0  0
    8.1175   -1.8104   21.3538 H   0  0  0  0  0  0  0  0  0  0  0  0
  1  2  1  0  0  0  0
  1  4  2  0  0  0  0
  2  8  2  0  0  0  0
  3  5  2  0  0  0  0
  3 11  1  0  0  0  0
  4 14  1  0  0  0  0
  5 16  1  0  0  0  0
  6  9  2  0  0  0  0
  6 15  1  0  0  0  0
  7 10  1  0  0  0  0
  7 15  2  0  0  0  0
  8 17  1  0  0  0  0
  9 18  1  0  0  0  0
 10 18  2  0  0  0  0
 11 20  2  0  0  0  0
 12 16  2  0  0  0  0
 12 20  1  0  0  0  0
 13 19  2  0  0  0  0
 13 28  1  0  0  0  0
 14 17  2  0  0  0  0
 14 19  1  0  0  0  0
 15 27  1  0  0  0  0
 16 26  1  0  0  0  0
 17 28  1  0  0  0  0
 18 29  1  0  0  0  0
 19 30  1  0  0  0  0
 20 33  1  0  0  0  0
 21 27  1  1  0  0  0
 21 30  1  0  0  0  0
 21 31  2  0  0  0  0
 22 24  1  0  0  0  0
 22 29  1  0  0  0  0
 23 25  1  0  0  0  0
 23 29  1  0  0  0  0
 24 32  1  0  0  0  0
 25 32  1  0  0  0  0
 26 27  1  0  0  0  0
  1 34  1  0  0  0  0
  2 35  1  0  0  0  0
  3 36  1  0  0  0  0
  4 37  1  0  0  0  0
  5 38  1  0  0  0  0
  6 39  1  0  0  0  0
  7 40  1  0  0  0  0
  8 41  1  0  0  0  0
  9 42  1  0  0  0  0
 10 43  1  0  0  0  0
 11 44  1  0  0  0  0
 12 45  1  0  0  0  0
 13 46  1  0  0  0  0
 22 47  1  0  0  0  0
 22 48  1  0  0  0  0
 23 49  1  0  0  0  0
 23 50  1  0  0  0  0
 24 51  1  0  0  0  0
 24 52  1  0  0  0  0
 25 53  1  0  0  0  0
 25 54  1  0  0  0  0
 26 55  1  0  0  0  0
 26 56  1  0  0  0  0
 27 57  1  0  0  0  0
 28 58  1  0  0  0  0
 30 59  1  0  0  0  0
M  END
> <clash_score>
0.6070860020543517

> <docking_score>
-5.743069171905518

> <overlap_score>
0.9584041237831116

$$$$
BENZO_309_2
  -OEChem-08222022413D

 52 55  0     1  0  0  0  0  0999 V2000
   13.8295    0.0638   25.4018 C   0  0  0  0  0  0  0  0  0  0  0  0
   12.6583   -0.1175   26.1373 C   0  0  0  0  0  0  0  0  0  0  0  0
   13.7659    0.5627   24.1007 C   0  0  0  0  0  0  0  0  0  0  0  0
   11.4234    0.2001   25.5717 C   0  0  0  0  0  0  0  0  0  0  0  0
   12.5310    0.8802   23.5351 C   0  0  0  0  0  0  0  0  0  0  0  0
    8.3510   -1.5420   24.6110 C   0  0  0  0  0  0  0  0  0  0  0  0
   10.2760   -2.3270   23.4020 C   0  0  0  0  0  0  0  0  0  0  0  0
    8.3310   -2.7170   25.3430 C   0  0  0  0  0  0  0  0  0  0  0  0
   10.2570   -3.5000   24.1350 C   0  0  0  0  0  0  0  0  0  0  0  0
   11.3597    0.6989   24.2706 C   0  0  0  0  0  0  0  0  0  0  0  0
    9.3300   -1.3350   23.6390 C   0  0  0  0  0  0  0  0  0  0  0  0
    9.2850   -3.7090   25.1090 C   0  0  0  0  0  0  0  0  0  0  0  0
    5.9810    0.8330   18.8060 C   0  0  0  0  0  0  0  0  0  0  0  0
    7.2210   -0.4620   20.0350 C   0  0  0  0  0  0  0  0  0  0  0  0
    4.9400    1.7060   18.5060 C   0  0  0  0  0  0  0  0  0  0  0  0
    4.0980    2.1130   19.5350 C   0  0  0  0  0  0  0  0  0  0  0  0
    4.2970    1.6690   20.8430 C   0  0  0  0  0  0  0  0  0  0  0  0
    5.3360    0.8000   21.1530 C   0  0  0  0  0  0  0  0  0  0  0  0
    8.9510    0.1280   21.6880 C   0  0  0  0  0  0  0  0  0  0  0  0
    8.2526   -5.1189   26.8655 C   0  0  0  0  0  0  0  0  0  0  0  0
   10.2443   -5.9398   25.5977 C   0  0  0  0  0  0  0  0  0  0  0  0
   10.0220    1.0430   23.6570 C   0  0  0  0  0  0  0  0  0  0  0  0
    9.4200   -0.0840   22.9530 C   0  0  2  0  0  0  0  0  0  0  0  0
    6.9440    0.2550   18.0100 N   0  0  0  0  0  0  0  0  0  0  0  0
    7.6830   -0.5170   18.7600 N   0  0  0  0  0  0  0  0  0  0  0  0
    6.1600    0.3870   20.1140 N   0  0  0  0  0  0  0  0  0  0  0  0
    8.0810   -0.9750   21.0820 N   0  0  0  0  0  0  0  0  0  0  0  0
    9.2638   -4.9025   25.8500 N   0  0  0  0  0  0  0  0  0  0  0  0
    9.1870    1.1500   21.0630 O   0  0  0  0  0  0  0  0  0  0  0  0
   14.7910   -0.1822   25.8428 H   0  0  0  0  0  0  0  0  0  0  0  0
   12.7077   -0.5049   27.1507 H   0  0  0  0  0  0  0  0  0  0  0  0
   14.6777    0.7050   23.5282 H   0  0  0  0  0  0  0  0  0  0  0  0
   10.5160    0.0554   26.1521 H   0  0  0  0  0  0  0  0  0  0  0  0
   12.4911    1.2683   22.5207 H   0  0  0  0  0  0  0  0  0  0  0  0
    7.5957   -0.7779   24.7973 H   0  0  0  0  0  0  0  0  0  0  0  0
   11.0384   -2.1852   22.6338 H   0  0  0  0  0  0  0  0  0  0  0  0
    7.5634   -2.8637   26.1037 H   0  0  0  0  0  0  0  0  0  0  0  0
   11.0139   -4.2645   23.9419 H   0  0  0  0  0  0  0  0  0  0  0  0
    4.7733    2.0700   17.5071 H   0  0  0  0  0  0  0  0  0  0  0  0
    3.2813    2.7836   19.2995 H   0  0  0  0  0  0  0  0  0  0  0  0
    3.6335    1.9977   21.6542 H   0  0  0  0  0  0  0  0  0  0  0  0
    5.5067    0.4537   22.1474 H   0  0  0  0  0  0  0  0  0  0  0  0
    8.4030   -6.1050   27.3292 H   0  0  0  0  0  0  0  0  0  0  0  0
    8.3320   -4.3364   27.6345 H   0  0  0  0  0  0  0  0  0  0  0  0
    7.2550   -5.0794   26.4037 H   0  0  0  0  0  0  0  0  0  0  0  0
   10.0625   -6.7890   26.2728 H   0  0  0  0  0  0  0  0  0  0  0  0
   10.1609   -6.2770   24.5540 H   0  0  0  0  0  0  0  0  0  0  0  0
   11.2540   -5.5406   25.7744 H   0  0  0  0  0  0  0  0  0  0  0  0
    9.3529    1.4272   24.4380 H   0  0  0  0  0  0  0  0  0  0  0  0
   10.1743    1.8827   22.9648 H   0  0  0  0  0  0  0  0  0  0  0  0
   10.7346   -0.4307   22.4468 H   0  0  0  0  0  0  0  0  0  0  0  0
    8.1152   -1.8120   21.3518 H   0  0  0  0  0  0  0  0  0  0  0  0
  1  2  1  0  0  0  0
  1  3  2  0  0  0  0
  2  4  2  0  0  0  0
  3  5  1  0  0  0  0
  4 10  1  0  0  0  0
  5 10  2  0  0  0  0
  6  8  2  0  0  0  0
  6 11  1  0  0  0  0
  7  9  1  0  0  0  0
  7 11  2  0  0  0  0
  8 12  1  0  0  0  0
  9 12  2  0  0  0  0
 10 22  1  0  0  0  0
 11 23  1  0  0  0  0
 12 28  1  0  0  0  0
 13 15  1  0  0  0  0
 13 24  2  0  0  0  0
 13 26  1  0  0  0  0
 14 25  2  0  0  0  0
 14 26  1  0  0  0  0
 14 27  1  0  0  0  0
 15 16  2  0  0  0  0
 16 17  1  0  0  0  0
 17 18  2  0  0  0  0
 18 26  1  0  0  0  0
 19 23  1  0  0  0  0
 19 27  1  0  0  0  0
 19 29  2  0  0  0  0
 20 28  1  0  0  0  0
 21 28  1  0  0  0  0
 22 23  1  6  0  0  0
 24 25  1  0  0  0  0
  1 30  1  0  0  0  0
  2 31  1  0  0  0  0
  3 32  1  0  0  0  0
  4 33  1  0  0  0  0
  5 34  1  0  0  0  0
  6 35  1  0  0  0  0
  7 36  1  0  0  0  0
  8 37  1  0  0  0  0
  9 38  1  0  0  0  0
 15 39  1  0  0  0  0
 16 40  1  0  0  0  0
 17 41  1  0  0  0  0
 18 42  1  0  0  0  0
 20 43  1  0  0  0  0
 20 44  1  0  0  0  0
 20 45  1  0  0  0  0
 21 46  1  0  0  0  0
 21 47  1  0  0  0  0
 21 48  1  0  0  0  0
 22 49  1  0  0  0  0
 22 50  1  0  0  0  0
 23 51  1  0  0  0  0
 27 52  1  0  0  0  0
M  END
> <clash_score>
0.6066498424716199

> <docking_score>
-8.490720748901367

> <overlap_score>
0.9354801774024963

$$$$
BENZO_306_2
  -OEChem-08222022413D

 59 63  0     1  0  0  0  0  0999 V2000
    4.2970    1.6690   20.8430 C   0  0  0  0  0  0  0  0  0  0  0  0
    4.0980    2.1130   19.5350 C   0  0  0  0  0  0  0  0  0  0  0  0
   13.7719    0.5789   24.0657 C   0  0  0  0  0  0  0  0  0  0  0  0
    5.3360    0.8000   21.1530 C   0  0  0  0  0  0  0  0  0  0  0  0
   12.3966    0.4859   24.2792 C   0  0  0  0  0  0  0  0  0  0  0  0
    8.3510   -1.5420   24.6110 C   0  0  0  0  0  0  0  0  0  0  0  0
   10.2760   -2.3270   23.4020 C   0  0  0  0  0  0  0  0  0  0  0  0
    4.9400    1.7060   18.5060 C   0  0  0  0  0  0  0  0  0  0  0  0
    8.3310   -2.7170   25.3430 C   0  0  0  0  0  0  0  0  0  0  0  0
   10.2570   -3.5000   24.1350 C   0  0  0  0  0  0  0  0  0  0  0  0
   14.2627    1.3315   22.9987 C   0  0  0  0  0  0  0  0  0  0  0  0
   12.0029    1.8978   22.3587 C   0  0  0  0  0  0  0  0  0  0  0  0
    7.6830   -0.5170   18.7600 C   0  0  0  0  0  0  0  0  0  0  0  0
    6.1600    0.3870   20.1140 C   0  0  0  0  0  0  0  0  0  0  0  0
    9.3300   -1.3350   23.6390 C   0  0  0  0  0  0  0  0  0  0  0  0
   11.5121    1.1453   23.4257 C   0  0  0  0  0  0  0  0  0  0  0  0
    5.9810    0.8330   18.8060 C   0  0  0  0  0  0  0  0  0  0  0  0
    9.2850   -3.7090   25.1090 C   0  0  0  0  0  0  0  0  0  0  0  0
    7.2210   -0.4620   20.0350 C   0  0  0  0  0  0  0  0  0  0  0  0
   13.3782    1.9909   22.1452 C   0  0  0  0  0  0  0  0  0  0  0  0
    8.9510    0.1280   21.6880 C   0  0  0  0  0  0  0  0  0  0  0  0
    8.7672   -4.9539   27.2147 C   0  0  0  0  0  0  0  0  0  0  0  0
    9.3060   -6.1863   25.1644 C   0  0  0  0  0  0  0  0  0  0  0  0
    7.3845   -5.5968   27.1999 C   0  0  0  0  0  0  0  0  0  0  0  0
    7.9062   -6.7991   25.2257 C   0  0  0  0  0  0  0  0  0  0  0  0
   10.0220    1.0430   23.6570 C   0  0  0  0  0  0  0  0  0  0  0  0
    9.4200   -0.0840   22.9530 C   0  0  2  0  0  0  0  0  0  0  0  0
    6.9440    0.2550   18.0100 N   0  0  0  0  0  0  0  0  0  0  0  0
    9.2641   -4.8845   25.8388 N   0  0  0  0  0  0  0  0  0  0  0  0
    8.0810   -0.9750   21.0820 N   0  0  0  0  0  0  0  0  0  0  0  0
    9.1870    1.1500   21.0630 O   0  0  0  0  0  0  0  0  0  0  0  0
    7.4526   -6.8873   26.5811 O   0  0  0  0  0  0  0  0  0  0  0  0
   13.9842    2.9183   20.8282 Cl  0  0  0  0  0  0  0  0  0  0  0  0
    3.6256    2.0106   21.6303 H   0  0  0  0  0  0  0  0  0  0  0  0
    3.2724    2.7868   19.3204 H   0  0  0  0  0  0  0  0  0  0  0  0
   14.4603    0.0652   24.7304 H   0  0  0  0  0  0  0  0  0  0  0  0
    5.4858    0.4664   22.1692 H   0  0  0  0  0  0  0  0  0  0  0  0
   12.0231   -0.1028   25.1130 H   0  0  0  0  0  0  0  0  0  0  0  0
    7.5957   -0.7779   24.7973 H   0  0  0  0  0  0  0  0  0  0  0  0
   11.0384   -2.1852   22.6338 H   0  0  0  0  0  0  0  0  0  0  0  0
    4.7836    2.0664   17.4848 H   0  0  0  0  0  0  0  0  0  0  0  0
    7.5634   -2.8637   26.1037 H   0  0  0  0  0  0  0  0  0  0  0  0
   11.0139   -4.2645   23.9419 H   0  0  0  0  0  0  0  0  0  0  0  0
   15.3370    1.3949   22.8442 H   0  0  0  0  0  0  0  0  0  0  0  0
   11.3092    2.4105   21.6963 H   0  0  0  0  0  0  0  0  0  0  0  0
    8.5274   -1.0858   18.3384 H   0  0  0  0  0  0  0  0  0  0  0  0
    8.7043   -3.9576   27.6640 H   0  0  0  0  0  0  0  0  0  0  0  0
    9.4508   -5.5642   27.8158 H   0  0  0  0  0  0  0  0  0  0  0  0
   10.0157   -6.8385   25.6807 H   0  0  0  0  0  0  0  0  0  0  0  0
    9.6157   -6.0831   24.1225 H   0  0  0  0  0  0  0  0  0  0  0  0
    7.0304   -5.7389   28.2230 H   0  0  0  0  0  0  0  0  0  0  0  0
    6.6546   -4.9733   26.6758 H   0  0  0  0  0  0  0  0  0  0  0  0
    7.1886   -6.2213   24.6315 H   0  0  0  0  0  0  0  0  0  0  0  0
    7.9303   -7.8141   24.8176 H   0  0  0  0  0  0  0  0  0  0  0  0
    9.8253    0.9889   24.7357 H   0  0  0  0  0  0  0  0  0  0  0  0
    9.5635    1.9845   23.3241 H   0  0  0  0  0  0  0  0  0  0  0  0
    8.1288    0.3205   23.5156 H   0  0  0  0  0  0  0  0  0  0  0  0
    7.0325    0.4238   17.0175 H   0  0  0  0  0  0  0  0  0  0  0  0
    8.1175   -1.8104   21.3538 H   0  0  0  0  0  0  0  0  0  0  0  0
  1  2  1  0  0  0  0
  1  4  2  0  0  0  0
  2  8  2  0  0  0  0
  3  5  2  0  0  0  0
  3 11  1  0  0  0  0
  4 14  1  0  0  0  0
  5 16  1  0  0  0  0
  6  9  2  0  0  0  0
  6 15  1  0  0  0  0
  7 10  1  0  0  0  0
  7 15  2  0  0  0  0
  8 17  1  0  0  0  0
  9 18  1  0  0  0  0
 10 18  2  0  0  0  0
 11 20  2  0  0  0  0
 12 16  2  0  0  0  0
 12 20  1  0  0  0  0
 13 19  2  0  0  0  0
 13 28  1  0  0  0  0
 14 17  2  0  0  0  0
 14 19  1  0  0  0  0
 15 27  1  0  0  0  0
 16 26  1  0  0  0  0
 17 28  1  0  0  0  0
 18 29  1  0  0  0  0
 19 30  1  0  0  0  0
 20 33  1  0  0  0  0
 21 27  1  6  0  0  0
 21 30  1  0  0  0  0
 21 31  2  0  0  0  0
 22 24  1  0  0  0  0
 22 29  1  0  0  0  0
 23 25  1  0  0  0  0
 23 29  1  0  0  0  0
 24 32  1  0  0  0  0
 25 32  1  0  0  0  0
 26 27  1  0  0  0  0
  1 34  1  0  0  0  0
  2 35  1  0  0  0  0
  3 36  1  0  0  0  0
  4 37  1  0  0  0  0
  5 38  1  0  0  0  0
  6 39  1  0  0  0  0
  7 40  1  0  0  0  0
  8 41  1  0  0  0  0
  9 42  1  0  0  0  0
 10 43  1  0  0  0  0
 11 44  1  0  0  0  0
 12 45  1  0  0  0  0
 13 46  1  0  0  0  0
 22 47  1  0  0  0  0
 22 48  1  0  0  0  0
 23 49  1  0  0  0  0
 23 50  1  0  0  0  0
 24 51  1  0  0  0  0
 24 52  1  0  0  0  0
 25 53  1  0  0  0  0
 25 54  1  0  0  0  0
 26 55  1  0  0  0  0
 26 56  1  0  0  0  0
 27 57  1  0  0  0  0
 28 58  1  0  0  0  0
 30 59  1  0  0  0  0
M  END
> <clash_score>
0

> <docking_score>
-6.7490081787109375

> <overlap_score>
1.0296812057495117

$$$$
BENZO_308_2
  -OEChem-08222022413D

 49 52  0     1  0  0  0  0  0999 V2000
    8.3510   -1.5420   24.6110 C   0  0  0  0  0  0  0  0  0  0  0  0
   10.2760   -2.3270   23.4020 C   0  0  0  0  0  0  0  0  0  0  0  0
    8.3310   -2.7170   25.3430 C   0  0  0  0  0  0  0  0  0  0  0  0
   10.2570   -3.5000   24.1350 C   0  0  0  0  0  0  0  0  0  0  0  0
   11.0468    0.9536   26.0357 C   0  0  0  0  0  0  0  0  0  0  0  0
   12.1250    0.4348   26.7183 C   0  0  0  0  0  0  0  0  0  0  0  0
   12.1733   -0.1537   24.3307 C   0  0  0  0  0  0  0  0  0  0  0  0
    9.3300   -1.3350   23.6390 C   0  0  0  0  0  0  0  0  0  0  0  0
   11.0747    0.6126   24.6525 C   0  0  0  0  0  0  0  0  0  0  0  0
    9.2850   -3.7090   25.1090 C   0  0  0  0  0  0  0  0  0  0  0  0
    5.9810    0.8330   18.8060 C   0  0  0  0  0  0  0  0  0  0  0  0
    7.2210   -0.4620   20.0350 C   0  0  0  0  0  0  0  0  0  0  0  0
    4.9400    1.7060   18.5060 C   0  0  0  0  0  0  0  0  0  0  0  0
    4.0980    2.1130   19.5350 C   0  0  0  0  0  0  0  0  0  0  0  0
    4.2970    1.6690   20.8430 C   0  0  0  0  0  0  0  0  0  0  0  0
    5.3360    0.8000   21.1530 C   0  0  0  0  0  0  0  0  0  0  0  0
    8.9510    0.1280   21.6880 C   0  0  0  0  0  0  0  0  0  0  0  0
    8.2526   -5.1189   26.8655 C   0  0  0  0  0  0  0  0  0  0  0  0
   10.2443   -5.9398   25.5977 C   0  0  0  0  0  0  0  0  0  0  0  0
   10.0220    1.0430   23.6570 C   0  0  0  0  0  0  0  0  0  0  0  0
    9.4200   -0.0840   22.9530 C   0  0  2  0  0  0  0  0  0  0  0  0
    6.9440    0.2550   18.0100 N   0  0  0  0  0  0  0  0  0  0  0  0
    7.6830   -0.5170   18.7600 N   0  0  0  0  0  0  0  0  0  0  0  0
    6.1600    0.3870   20.1140 N   0  0  0  0  0  0  0  0  0  0  0  0
    8.0810   -0.9750   21.0820 N   0  0  0  0  0  0  0  0  0  0  0  0
    9.2638   -4.9025   25.8500 N   0  0  0  0  0  0  0  0  0  0  0  0
    9.1870    1.1500   21.0630 O   0  0  0  0  0  0  0  0  0  0  0  0
   13.1649   -0.4592   25.6929 S   0  0  0  0  0  0  0  0  0  0  0  0
    7.5957   -0.7779   24.7973 H   0  0  0  0  0  0  0  0  0  0  0  0
   11.0384   -2.1852   22.6338 H   0  0  0  0  0  0  0  0  0  0  0  0
    7.5634   -2.8637   26.1037 H   0  0  0  0  0  0  0  0  0  0  0  0
   11.0139   -4.2645   23.9419 H   0  0  0  0  0  0  0  0  0  0  0  0
   10.2771    1.5494   26.5100 H   0  0  0  0  0  0  0  0  0  0  0  0
   12.3521    0.5386   27.7699 H   0  0  0  0  0  0  0  0  0  0  0  0
   12.4454   -0.5497   23.3621 H   0  0  0  0  0  0  0  0  0  0  0  0
    4.7733    2.0700   17.5071 H   0  0  0  0  0  0  0  0  0  0  0  0
    3.2813    2.7836   19.2995 H   0  0  0  0  0  0  0  0  0  0  0  0
    3.6335    1.9977   21.6542 H   0  0  0  0  0  0  0  0  0  0  0  0
    5.5067    0.4537   22.1474 H   0  0  0  0  0  0  0  0  0  0  0  0
    8.4030   -6.1050   27.3292 H   0  0  0  0  0  0  0  0  0  0  0  0
    8.3320   -4.3364   27.6345 H   0  0  0  0  0  0  0  0  0  0  0  0
    7.2550   -5.0794   26.4037 H   0  0  0  0  0  0  0  0  0  0  0  0
   10.0625   -6.7890   26.2728 H   0  0  0  0  0  0  0  0  0  0  0  0
   10.1609   -6.2770   24.5540 H   0  0  0  0  0  0  0  0  0  0  0  0
   11.2540   -5.5406   25.7744 H   0  0  0  0  0  0  0  0  0  0  0  0
    9.2602    1.6432   24.1714 H   0  0  0  0  0  0  0  0  0  0  0  0
   10.4960    1.7269   22.9392 H   0  0  0  0  0  0  0  0  0  0  0  0
   10.7346   -0.4307   22.4468 H   0  0  0  0  0  0  0  0  0  0  0  0
    8.1152   -1.8120   21.3518 H   0  0  0  0  0  0  0  0  0  0  0  0
  1  3  2  0  0  0  0
  1  8  1  0  0  0  0
  2  4  1  0  0  0  0
  2  8  2  0  0  0  0
  3 10  1  0  0  0  0
  4 10  2  0  0  0  0
  5  6  2  0  0  0  0
  5  9  1  0  0  0  0
  6 28  1  0  0  0  0
  7  9  2  0  0  0  0
  7 28  1  0  0  0  0
  8 21  1  0  0  0  0
  9 20  1  0  0  0  0
 10 26  1  0  0  0  0
 11 13  1  0  0  0  0
 11 22  2  0  0  0  0
 11 24  1  0  0  0  0
 12 23  2  0  0  0  0
 12 24  1  0  0  0  0
 12 25  1  0  0  0  0
 13 14  2  0  0  0  0
 14 15  1  0  0  0  0
 15 16  2  0  0  0  0
 16 24  1  0  0  0  0
 17 21  1  0  0  0  0
 17 25  1  0  0  0  0
 17 27  2  0  0  0  0
 18 26  1  0  0  0  0
 19 26  1  0  0  0  0
 20 21  1  6  0  0  0
 22 23  1  0  0  0  0
  1 29  1  0  0  0  0
  2 30  1  0  0  0  0
  3 31  1  0  0  0  0
  4 32  1  0  0  0  0
  5 33  1  0  0  0  0
  6 34  1  0  0  0  0
  7 35  1  0  0  0  0
 13 36  1  0  0  0  0
 14 37  1  0  0  0  0
 15 38  1  0  0  0  0
 16 39  1  0  0  0  0
 18 40  1  0  0  0  0
 18 41  1  0  0  0  0
 18 42  1  0  0  0  0
 19 43  1  0  0  0  0
 19 44  1  0  0  0  0
 19 45  1  0  0  0  0
 20 46  1  0  0  0  0
 20 47  1  0  0  0  0
 21 48  1  0  0  0  0
 25 49  1  0  0  0  0
M  END
> <clash_score>
0

> <docking_score>
-7.484885215759277

> <overlap_score>
0.8852887153625488

$$$$
BENZO_307_2
  -OEChem-08222022413D

 59 63  0     1  0  0  0  0  0999 V2000
    4.2970    1.6690   20.8430 C   0  0  0  0  0  0  0  0  0  0  0  0
    4.0980    2.1130   19.5350 C   0  0  0  0  0  0  0  0  0  0  0  0
    5.3360    0.8000   21.1530 C   0  0  0  0  0  0  0  0  0  0  0  0
    8.3510   -1.5420   24.6110 C   0  0  0  0  0  0  0  0  0  0  0  0
   10.2760   -2.3270   23.4020 C   0  0  0  0  0  0  0  0  0  0  0  0
    4.9400    1.7060   18.5060 C   0  0  0  0  0  0  0  0  0  0  0  0
    8.3310   -2.7170   25.3430 C   0  0  0  0  0  0  0  0  0  0  0  0
   10.2570   -3.5000   24.1350 C   0  0  0  0  0  0  0  0  0  0  0  0
   12.6346    0.8176   23.6854 C   0  0  0  0  0  0  0  0  0  0  0  0
   11.6038    0.2020   25.5275 C   0  0  0  0  0  0  0  0  0  0  0  0
    7.6830   -0.5170   18.7600 C   0  0  0  0  0  0  0  0  0  0  0  0
    6.1600    0.3870   20.1140 C   0  0  0  0  0  0  0  0  0  0  0  0
    9.3300   -1.3350   23.6390 C   0  0  0  0  0  0  0  0  0  0  0  0
   11.3598    0.6989   24.2706 C   0  0  0  0  0  0  0  0  0  0  0  0
    5.9810    0.8330   18.8060 C   0  0  0  0  0  0  0  0  0  0  0  0
    9.2850   -3.7090   25.1090 C   0  0  0  0  0  0  0  0  0  0  0  0
    7.2210   -0.4620   20.0350 C   0  0  0  0  0  0  0  0  0  0  0  0
    8.9510    0.1280   21.6880 C   0  0  0  0  0  0  0  0  0  0  0  0
    8.7672   -4.9539   27.2147 C   0  0  0  0  0  0  0  0  0  0  0  0
    9.3060   -6.1863   25.1644 C   0  0  0  0  0  0  0  0  0  0  0  0
    7.3845   -5.5968   27.1999 C   0  0  0  0  0  0  0  0  0  0  0  0
    7.9062   -6.7991   25.2257 C   0  0  0  0  0  0  0  0  0  0  0  0
   13.6941   -0.4329   26.7549 C   0  0  0  0  0  0  0  0  0  0  0  0
   10.0220    1.0430   23.6570 C   0  0  0  0  0  0  0  0  0  0  0  0
    9.4200   -0.0840   22.9530 C   0  0  2  0  0  0  0  0  0  0  0  0
   13.6158    0.4276   24.5035 N   0  0  0  0  0  0  0  0  0  0  0  0
    6.9440    0.2550   18.0100 N   0  0  0  0  0  0  0  0  0  0  0  0
   12.9573    0.0591   25.6156 N   0  0  0  0  0  0  0  0  0  0  0  0
    9.2641   -4.8845   25.8388 N   0  0  0  0  0  0  0  0  0  0  0  0
    8.0810   -0.9750   21.0820 N   0  0  0  0  0  0  0  0  0  0  0  0
    9.1870    1.1500   21.0630 O   0  0  0  0  0  0  0  0  0  0  0  0
    7.4526   -6.8873   26.5811 O   0  0  0  0  0  0  0  0  0  0  0  0
    3.6256    2.0106   21.6303 H   0  0  0  0  0  0  0  0  0  0  0  0
    3.2724    2.7868   19.3204 H   0  0  0  0  0  0  0  0  0  0  0  0
    5.4858    0.4664   22.1692 H   0  0  0  0  0  0  0  0  0  0  0  0
    7.5957   -0.7779   24.7973 H   0  0  0  0  0  0  0  0  0  0  0  0
   11.0384   -2.1852   22.6338 H   0  0  0  0  0  0  0  0  0  0  0  0
    4.7836    2.0664   17.4848 H   0  0  0  0  0  0  0  0  0  0  0  0
    7.5634   -2.8637   26.1037 H   0  0  0  0  0  0  0  0  0  0  0  0
   11.0139   -4.2645   23.9419 H   0  0  0  0  0  0  0  0  0  0  0  0
   12.8922    1.1725   22.6975 H   0  0  0  0  0  0  0  0  0  0  0  0
   10.9461   -0.0545   26.3470 H   0  0  0  0  0  0  0  0  0  0  0  0
    8.5274   -1.0858   18.3384 H   0  0  0  0  0  0  0  0  0  0  0  0
    8.7043   -3.9576   27.6640 H   0  0  0  0  0  0  0  0  0  0  0  0
    9.4508   -5.5642   27.8158 H   0  0  0  0  0  0  0  0  0  0  0  0
   10.0157   -6.8385   25.6807 H   0  0  0  0  0  0  0  0  0  0  0  0
    9.6157   -6.0831   24.1225 H   0  0  0  0  0  0  0  0  0  0  0  0
    7.0304   -5.7389   28.2230 H   0  0  0  0  0  0  0  0  0  0  0  0
    6.6546   -4.9733   26.6758 H   0  0  0  0  0  0  0  0  0  0  0  0
    7.1886   -6.2213   24.6315 H   0  0  0  0  0  0  0  0  0  0  0  0
    7.9303   -7.8141   24.8176 H   0  0  0  0  0  0  0  0  0  0  0  0
   13.7879   -1.5173   26.6532 H   0  0  0  0  0  0  0  0  0  0  0  0
   14.6819    0.0356   26.7797 H   0  0  0  0  0  0  0  0  0  0  0  0
   13.1542   -0.1790   27.6714 H   0  0  0  0  0  0  0  0  0  0  0  0
    9.3529    1.4272   24.4380 H   0  0  0  0  0  0  0  0  0  0  0  0
   10.1743    1.8827   22.9648 H   0  0  0  0  0  0  0  0  0  0  0  0
   10.7346   -0.4307   22.4468 H   0  0  0  0  0  0  0  0  0  0  0  0
    7.0325    0.4238   17.0175 H   0  0  0  0  0  0  0  0  0  0  0  0
    8.1175   -1.8104   21.3538 H   0  0  0  0  0  0  0  0  0  0  0  0
  1  2  1  0  0  0  0
  1  3  2  0  0  0  0
  2  6  2  0  0  0  0
  3 12  1  0  0  0  0
  4  7  2  0  0  0  0
  4 13  1  0  0  0  0
  5  8  1  0  0  0  0
  5 13  2  0  0  0  0
  6 15  1  0  0  0  0
  7 16  1  0  0  0  0
  8 16  2  0  0  0  0
  9 14  1  0  0  0  0
  9 26  2  0  0  0  0
 10 14  2  0  0  0  0
 10 28  1  0  0  0  0
 11 17  2  0  0  0  0
 11 27  1  0  0  0  0
 12 15  2  0  0  0  0
 12 17  1  0  0  0  0
 13 25  1  0  0  0  0
 14 24  1  0  0  0  0
 15 27  1  0  0  0  0
 16 29  1  0  0  0  0
 17 30  1  0  0  0  0
 18 25  1  0  0  0  0
 18 30  1  0  0  0  0
 18 31  2  0  0  0  0
 19 21  1  0  0  0  0
 19 29  1  0  0  0  0
 20 22  1  0  0  0  0
 20 29  1  0  0  0  0
 21 32  1  0  0  0  0
 22 32  1  0  0  0  0
 23 28  1  0  0  0  0
 24 25  1  6  0  0  0
 26 28  1  0  0  0  0
  1 33  1  0  0  0  0
  2 34  1  0  0  0  0
  3 35  1  0  0  0  0
  4 36  1  0  0  0  0
  5 37  1  0  0  0  0
  6 38  1  0  0  0  0
  7 39  1  0  0  0  0
  8 40  1  0  0  0  0
  9 41  1  0  0  0  0
 10 42  1  0  0  0  0
 11 43  1  0  0  0  0
 19 44  1  0  0  0  0
 19 45  1  0  0  0  0
 20 46  1  0  0  0  0
 20 47  1  0  0  0  0
 21 48  1  0  0  0  0
 21 49  1  0  0  0  0
 22 50  1  0  0  0  0
 22 51  1  0  0  0  0
 23 52  1  0  0  0  0
 23 53  1  0  0  0  0
 23 54  1  0  0  0  0
 24 55  1  0  0  0  0
 24 56  1  0  0  0  0
 25 57  1  0  0  0  0
 27 58  1  0  0  0  0
 30 59  1  0  0  0  0
M  END
> <clash_score>
0.7451162278443915

> <docking_score>
-6.510548114776611

> <overlap_score>
0.9406833052635193

$$$$
BENZO_307_1
  -OEChem-08222022413D

 59 63  0     1  0  0  0  0  0999 V2000
    4.2970    1.6690   20.8430 C   0  0  0  0  0  0  0  0  0  0  0  0
    4.0980    2.1130   19.5350 C   0  0  0  0  0  0  0  0  0  0  0  0
    5.3360    0.8000   21.1530 C   0  0  0  0  0  0  0  0  0  0  0  0
    8.3510   -1.5420   24.6110 C   0  0  0  0  0  0  0  0  0  0  0  0
   10.2760   -2.3270   23.4020 C   0  0  0  0  0  0  0  0  0  0  0  0
    4.9400    1.7060   18.5060 C   0  0  0  0  0  0  0  0  0  0  0  0
    8.3310   -2.7170   25.3430 C   0  0  0  0  0  0  0  0  0  0  0  0
   10.2570   -3.5000   24.1350 C   0  0  0  0  0  0  0  0  0  0  0  0
   12.3075    2.3068   23.4193 C   0  0  0  0  0  0  0  0  0  0  0  0
   12.3951    0.1231   23.1770 C   0  0  0  0  0  0  0  0  0  0  0  0
    7.6830   -0.5170   18.7600 C   0  0  0  0  0  0  0  0  0  0  0  0
    6.1600    0.3870   20.1140 C   0  0  0  0  0  0  0  0  0  0  0  0
    9.3300   -1.3350   23.6390 C   0  0  0  0  0  0  0  0  0  0  0  0
   11.5121    1.1453   23.4257 C   0  0  0  0  0  0  0  0  0  0  0  0
    5.9810    0.8330   18.8060 C   0  0  0  0  0  0  0  0  0  0  0  0
    9.2850   -3.7090   25.1090 C   0  0  0  0  0  0  0  0  0  0  0  0
    7.2210   -0.4620   20.0350 C   0  0  0  0  0  0  0  0  0  0  0  0
    8.9510    0.1280   21.6880 C   0  0  0  0  0  0  0  0  0  0  0  0
    8.7672   -4.9539   27.2147 C   0  0  0  0  0  0  0  0  0  0  0  0
    9.3060   -6.1863   25.1644 C   0  0  0  0  0  0  0  0  0  0  0  0
    7.3845   -5.5968   27.1999 C   0  0  0  0  0  0  0  0  0  0  0  0
    7.9062   -6.7991   25.2257 C   0  0  0  0  0  0  0  0  0  0  0  0
   14.8664    0.0395   22.7716 C   0  0  0  0  0  0  0  0  0  0  0  0
   10.0220    1.0430   23.6570 C   0  0  0  0  0  0  0  0  0  0  0  0
    9.4200   -0.0840   22.9530 C   0  0  1  0  0  0  0  0  0  0  0  0
   13.5967    2.0476   23.1852 N   0  0  0  0  0  0  0  0  0  0  0  0
    6.9440    0.2550   18.0100 N   0  0  0  0  0  0  0  0  0  0  0  0
   13.6181    0.7115   23.0422 N   0  0  0  0  0  0  0  0  0  0  0  0
    9.2641   -4.8845   25.8388 N   0  0  0  0  0  0  0  0  0  0  0  0
    8.0810   -0.9750   21.0820 N   0  0  0  0  0  0  0  0  0  0  0  0
    9.1870    1.1500   21.0630 O   0  0  0  0  0  0  0  0  0  0  0  0
    7.4526   -6.8873   26.5811 O   0  0  0  0  0  0  0  0  0  0  0  0
    3.6256    2.0106   21.6303 H   0  0  0  0  0  0  0  0  0  0  0  0
    3.2724    2.7868   19.3204 H   0  0  0  0  0  0  0  0  0  0  0  0
    5.4858    0.4664   22.1692 H   0  0  0  0  0  0  0  0  0  0  0  0
    7.5957   -0.7779   24.7973 H   0  0  0  0  0  0  0  0  0  0  0  0
   11.0384   -2.1852   22.6338 H   0  0  0  0  0  0  0  0  0  0  0  0
    4.7836    2.0664   17.4848 H   0  0  0  0  0  0  0  0  0  0  0  0
    7.5634   -2.8637   26.1037 H   0  0  0  0  0  0  0  0  0  0  0  0
   11.0139   -4.2645   23.9419 H   0  0  0  0  0  0  0  0  0  0  0  0
   12.0040    3.3322   23.5761 H   0  0  0  0  0  0  0  0  0  0  0  0
   12.2609   -0.9465   23.0878 H   0  0  0  0  0  0  0  0  0  0  0  0
    8.5274   -1.0858   18.3384 H   0  0  0  0  0  0  0  0  0  0  0  0
    8.7043   -3.9576   27.6640 H   0  0  0  0  0  0  0  0  0  0  0  0
    9.4508   -5.5642   27.8158 H   0  0  0  0  0  0  0  0  0  0  0  0
   10.0157   -6.8385   25.6807 H   0  0  0  0  0  0  0  0  0  0  0  0
    9.6157   -6.0831   24.1225 H   0  0  0  0  0  0  0  0  0  0  0  0
    7.0304   -5.7389   28.2230 H   0  0  0  0  0  0  0  0  0  0  0  0
    6.6546   -4.9733   26.6758 H   0  0  0  0  0  0  0  0  0  0  0  0
    7.1886   -6.2213   24.6315 H   0  0  0  0  0  0  0  0  0  0  0  0
    7.9303   -7.8141   24.8176 H   0  0  0  0  0  0  0  0  0  0  0  0
   14.9942   -0.0107   21.6871 H   0  0  0  0  0  0  0  0  0  0  0  0
   15.6877    0.5992   23.2278 H   0  0  0  0  0  0  0  0  0  0  0  0
   14.8362   -0.9658   23.2010 H   0  0  0  0  0  0  0  0  0  0  0  0
    9.8253    0.9889   24.7357 H   0  0  0  0  0  0  0  0  0  0  0  0
    9.5635    1.9845   23.3241 H   0  0  0  0  0  0  0  0  0  0  0  0
    8.1288    0.3205   23.5156 H   0  0  0  0  0  0  0  0  0  0  0  0
    7.0325    0.4238   17.0175 H   0  0  0  0  0  0  0  0  0  0  0  0
    8.1175   -1.8104   21.3538 H   0  0  0  0  0  0  0  0  0  0  0  0
  1  2  1  0  0  0  0
  1  3  2  0  0  0  0
  2  6  2  0  0  0  0
  3 12  1  0  0  0  0
  4  7  2  0  0  0  0
  4 13  1  0  0  0  0
  5  8  1  0  0  0  0
  5 13  2  0  0  0  0
  6 15  1  0  0  0  0
  7 16  1  0  0  0  0
  8 16  2  0  0  0  0
  9 14  1  0  0  0  0
  9 26  2  0  0  0  0
 10 14  2  0  0  0  0
 10 28  1  0  0  0  0
 11 17  2  0  0  0  0
 11 27  1  0  0  0  0
 12 15  2  0  0  0  0
 12 17  1  0  0  0  0
 13 25  1  0  0  0  0
 14 24  1  0  0  0  0
 15 27  1  0  0  0  0
 16 29  1  0  0  0  0
 17 30  1  0  0  0  0
 18 25  1  0  0  0  0
 18 30  1  0  0  0  0
 18 31  2  0  0  0  0
 19 21  1  0  0  0  0
 19 29  1  0  0  0  0
 20 22  1  0  0  0  0
 20 29  1  0  0  0  0
 21 32  1  0  0  0  0
 22 32  1  0  0  0  0
 23 28  1  0  0  0  0
 24 25  1  1  0  0  0
 26 28  1  0  0  0  0
  1 33  1  0  0  0  0
  2 34  1  0  0  0  0
  3 35  1  0  0  0  0
  4 36  1  0  0  0  0
  5 37  1  0  0  0  0
  6 38  1  0  0  0  0
  7 39  1  0  0  0  0
  8 40  1  0  0  0  0
  9 41  1  0  0  0  0
 10 42  1  0  0  0  0
 11 43  1  0  0  0  0
 19 44  1  0  0  0  0
 19 45  1  0  0  0  0
 20 46  1  0  0  0  0
 20 47  1  0  0  0  0
 21 48  1  0  0  0  0
 21 49  1  0  0  0  0
 22 50  1  0  0  0  0
 22 51  1  0  0  0  0
 23 52  1  0  0  0  0
 23 53  1  0  0  0  0
 23 54  1  0  0  0  0
 24 55  1  0  0  0  0
 24 56  1  0  0  0  0
 25 57  1  0  0  0  0
 27 58  1  0  0  0  0
 30 59  1  0  0  0  0
M  END
> <clash_score>
0

> <docking_score>
-8.377233505249023

> <overlap_score>
1.0286661386489868

$$$$
BENZO_310_1
  -OEChem-08222022413D

 52 55  0     1  0  0  0  0  0999 V2000
   13.7719    0.5789   24.0657 C   0  0  0  0  0  0  0  0  0  0  0  0
   12.3966    0.4859   24.2792 C   0  0  0  0  0  0  0  0  0  0  0  0
    8.3510   -1.5420   24.6110 C   0  0  0  0  0  0  0  0  0  0  0  0
   10.2760   -2.3270   23.4020 C   0  0  0  0  0  0  0  0  0  0  0  0
    8.3310   -2.7170   25.3430 C   0  0  0  0  0  0  0  0  0  0  0  0
   10.2570   -3.5000   24.1350 C   0  0  0  0  0  0  0  0  0  0  0  0
   14.2627    1.3315   22.9987 C   0  0  0  0  0  0  0  0  0  0  0  0
   12.0029    1.8978   22.3587 C   0  0  0  0  0  0  0  0  0  0  0  0
    9.3300   -1.3350   23.6390 C   0  0  0  0  0  0  0  0  0  0  0  0
   11.5121    1.1453   23.4257 C   0  0  0  0  0  0  0  0  0  0  0  0
    9.2850   -3.7090   25.1090 C   0  0  0  0  0  0  0  0  0  0  0  0
   13.3782    1.9909   22.1452 C   0  0  0  0  0  0  0  0  0  0  0  0
    5.9810    0.8330   18.8060 C   0  0  0  0  0  0  0  0  0  0  0  0
    7.2210   -0.4620   20.0350 C   0  0  0  0  0  0  0  0  0  0  0  0
    4.9400    1.7060   18.5060 C   0  0  0  0  0  0  0  0  0  0  0  0
    4.0980    2.1130   19.5350 C   0  0  0  0  0  0  0  0  0  0  0  0
    4.2970    1.6690   20.8430 C   0  0  0  0  0  0  0  0  0  0  0  0
    5.3360    0.8000   21.1530 C   0  0  0  0  0  0  0  0  0  0  0  0
    8.9510    0.1280   21.6880 C   0  0  0  0  0  0  0  0  0  0  0  0
    8.2526   -5.1189   26.8655 C   0  0  0  0  0  0  0  0  0  0  0  0
   10.2443   -5.9398   25.5977 C   0  0  0  0  0  0  0  0  0  0  0  0
   10.0220    1.0430   23.6570 C   0  0  0  0  0  0  0  0  0  0  0  0
    9.4200   -0.0840   22.9530 C   0  0  1  0  0  0  0  0  0  0  0  0
    6.9440    0.2550   18.0100 N   0  0  0  0  0  0  0  0  0  0  0  0
    7.6830   -0.5170   18.7600 N   0  0  0  0  0  0  0  0  0  0  0  0
    6.1600    0.3870   20.1140 N   0  0  0  0  0  0  0  0  0  0  0  0
    8.0810   -0.9750   21.0820 N   0  0  0  0  0  0  0  0  0  0  0  0
    9.2638   -4.9025   25.8500 N   0  0  0  0  0  0  0  0  0  0  0  0
    9.1870    1.1500   21.0630 O   0  0  0  0  0  0  0  0  0  0  0  0
   13.9842    2.9183   20.8282 Cl  0  0  0  0  0  0  0  0  0  0  0  0
   14.4603    0.0652   24.7304 H   0  0  0  0  0  0  0  0  0  0  0  0
   12.0231   -0.1028   25.1130 H   0  0  0  0  0  0  0  0  0  0  0  0
    7.5957   -0.7779   24.7973 H   0  0  0  0  0  0  0  0  0  0  0  0
   11.0384   -2.1852   22.6338 H   0  0  0  0  0  0  0  0  0  0  0  0
    7.5634   -2.8637   26.1037 H   0  0  0  0  0  0  0  0  0  0  0  0
   11.0139   -4.2645   23.9419 H   0  0  0  0  0  0  0  0  0  0  0  0
   15.3370    1.3949   22.8442 H   0  0  0  0  0  0  0  0  0  0  0  0
   11.3092    2.4105   21.6963 H   0  0  0  0  0  0  0  0  0  0  0  0
    4.7733    2.0700   17.5071 H   0  0  0  0  0  0  0  0  0  0  0  0
    3.2813    2.7836   19.2995 H   0  0  0  0  0  0  0  0  0  0  0  0
    3.6335    1.9977   21.6542 H   0  0  0  0  0  0  0  0  0  0  0  0
    5.5067    0.4537   22.1474 H   0  0  0  0  0  0  0  0  0  0  0  0
    8.4030   -6.1050   27.3292 H   0  0  0  0  0  0  0  0  0  0  0  0
    8.3320   -4.3364   27.6345 H   0  0  0  0  0  0  0  0  0  0  0  0
    7.2550   -5.0794   26.4037 H   0  0  0  0  0  0  0  0  0  0  0  0
   10.0625   -6.7890   26.2728 H   0  0  0  0  0  0  0  0  0  0  0  0
   10.1609   -6.2770   24.5540 H   0  0  0  0  0  0  0  0  0  0  0  0
   11.2540   -5.5406   25.7744 H   0  0  0  0  0  0  0  0  0  0  0  0
    9.8253    0.9889   24.7357 H   0  0  0  0  0  0  0  0  0  0  0  0
    9.5635    1.9845   23.3241 H   0  0  0  0  0  0  0  0  0  0  0  0
    8.1288    0.3205   23.5156 H   0  0  0  0  0  0  0  0  0  0  0  0
    8.1152   -1.8120   21.3518 H   0  0  0  0  0  0  0  0  0  0  0  0
  1  2  2  0  0  0  0
  1  7  1  0  0  0  0
  2 10  1  0  0  0  0
  3  5  2  0  0  0  0
  3  9  1  0  0  0  0
  4  6  1  0  0  0  0
  4  9  2  0  0  0  0
  5 11  1  0  0  0  0
  6 11  2  0  0  0  0
  7 12  2  0  0  0  0
  8 10  2  0  0  0  0
  8 12  1  0  0  0  0
  9 23  1  0  0  0  0
 10 22  1  0  0  0  0
 11 28  1  0  0  0  0
 12 30  1  0  0  0  0
 13 15  1  0  0  0  0
 13 24  2  0  0  0  0
 13 26  1  0  0  0  0
 14 25  2  0  0  0  0
 14 26  1  0  0  0  0
 14 27  1  0  0  0  0
 15 16  2  0  0  0  0
 16 17  1  0  0  0  0
 17 18  2  0  0  0  0
 18 26  1  0  0  0  0
 19 23  1  0  0  0  0
 19 27  1  0  0  0  0
 19 29  2  0  0  0  0
 20 28  1  0  0  0  0
 21 28  1  0  0  0  0
 22 23  1  1  0  0  0
 24 25  1  0  0  0  0
  1 31  1  0  0  0  0
  2 32  1  0  0  0  0
  3 33  1  0  0  0  0
  4 34  1  0  0  0  0
  5 35  1  0  0  0  0
  6 36  1  0  0  0  0
  7 37  1  0  0  0  0
  8 38  1  0  0  0  0
 15 39  1  0  0  0  0
 16 40  1  0  0  0  0
 17 41  1  0  0  0  0
 18 42  1  0  0  0  0
 20 43  1  0  0  0  0
 20 44  1  0  0  0  0
 20 45  1  0  0  0  0
 21 46  1  0  0  0  0
 21 47  1  0  0  0  0
 21 48  1  0  0  0  0
 22 49  1  0  0  0  0
 22 50  1  0  0  0  0
 23 51  1  0  0  0  0
 27 52  1  0  0  0  0
M  END
> <clash_score>
0

> <docking_score>
-8.569204330444336

> <overlap_score>
1.0163580179214478

$$$$
BENZO_311_1
  -OEChem-08222022413D

 52 55  0     1  0  0  0  0  0999 V2000
    8.3510   -1.5420   24.6110 C   0  0  0  0  0  0  0  0  0  0  0  0
   10.2760   -2.3270   23.4020 C   0  0  0  0  0  0  0  0  0  0  0  0
    8.3310   -2.7170   25.3430 C   0  0  0  0  0  0  0  0  0  0  0  0
   10.2570   -3.5000   24.1350 C   0  0  0  0  0  0  0  0  0  0  0  0
   12.3075    2.3068   23.4193 C   0  0  0  0  0  0  0  0  0  0  0  0
   12.3951    0.1231   23.1770 C   0  0  0  0  0  0  0  0  0  0  0  0
    9.3300   -1.3350   23.6390 C   0  0  0  0  0  0  0  0  0  0  0  0
   11.5121    1.1453   23.4257 C   0  0  0  0  0  0  0  0  0  0  0  0
    9.2850   -3.7090   25.1090 C   0  0  0  0  0  0  0  0  0  0  0  0
    5.9810    0.8330   18.8060 C   0  0  0  0  0  0  0  0  0  0  0  0
    7.2210   -0.4620   20.0350 C   0  0  0  0  0  0  0  0  0  0  0  0
    4.9400    1.7060   18.5060 C   0  0  0  0  0  0  0  0  0  0  0  0
    4.0980    2.1130   19.5350 C   0  0  0  0  0  0  0  0  0  0  0  0
    4.2970    1.6690   20.8430 C   0  0  0  0  0  0  0  0  0  0  0  0
    5.3360    0.8000   21.1530 C   0  0  0  0  0  0  0  0  0  0  0  0
    8.9510    0.1280   21.6880 C   0  0  0  0  0  0  0  0  0  0  0  0
   14.8664    0.0395   22.7716 C   0  0  0  0  0  0  0  0  0  0  0  0
    8.2526   -5.1189   26.8655 C   0  0  0  0  0  0  0  0  0  0  0  0
   10.2443   -5.9398   25.5977 C   0  0  0  0  0  0  0  0  0  0  0  0
   10.0220    1.0430   23.6570 C   0  0  0  0  0  0  0  0  0  0  0  0
    9.4200   -0.0840   22.9530 C   0  0  1  0  0  0  0  0  0  0  0  0
   13.5967    2.0476   23.1851 N   0  0  0  0  0  0  0  0  0  0  0  0
    6.9440    0.2550   18.0100 N   0  0  0  0  0  0  0  0  0  0  0  0
    7.6830   -0.5170   18.7600 N   0  0  0  0  0  0  0  0  0  0  0  0
   13.6181    0.7115   23.0422 N   0  0  0  0  0  0  0  0  0  0  0  0
    6.1600    0.3870   20.1140 N   0  0  0  0  0  0  0  0  0  0  0  0
    8.0810   -0.9750   21.0820 N   0  0  0  0  0  0  0  0  0  0  0  0
    9.2638   -4.9025   25.8500 N   0  0  0  0  0  0  0  0  0  0  0  0
    9.1870    1.1500   21.0630 O   0  0  0  0  0  0  0  0  0  0  0  0
    7.5957   -0.7779   24.7973 H   0  0  0  0  0  0  0  0  0  0  0  0
   11.0384   -2.1852   22.6338 H   0  0  0  0  0  0  0  0  0  0  0  0
    7.5634   -2.8637   26.1037 H   0  0  0  0  0  0  0  0  0  0  0  0
   11.0139   -4.2645   23.9419 H   0  0  0  0  0  0  0  0  0  0  0  0
   12.0040    3.3322   23.5761 H   0  0  0  0  0  0  0  0  0  0  0  0
   12.2609   -0.9465   23.0878 H   0  0  0  0  0  0  0  0  0  0  0  0
    4.7733    2.0700   17.5071 H   0  0  0  0  0  0  0  0  0  0  0  0
    3.2813    2.7836   19.2995 H   0  0  0  0  0  0  0  0  0  0  0  0
    3.6335    1.9977   21.6542 H   0  0  0  0  0  0  0  0  0  0  0  0
    5.5067    0.4537   22.1474 H   0  0  0  0  0  0  0  0  0  0  0  0
   14.9942   -0.0107   21.6871 H   0  0  0  0  0  0  0  0  0  0  0  0
   15.6877    0.5992   23.2278 H   0  0  0  0  0  0  0  0  0  0  0  0
   14.8362   -0.9658   23.2010 H   0  0  0  0  0  0  0  0  0  0  0  0
    8.4030   -6.1050   27.3292 H   0  0  0  0  0  0  0  0  0  0  0  0
    8.3320   -4.3364   27.6345 H   0  0  0  0  0  0  0  0  0  0  0  0
    7.2550   -5.0794   26.4037 H   0  0  0  0  0  0  0  0  0  0  0  0
   10.0625   -6.7890   26.2728 H   0  0  0  0  0  0  0  0  0  0  0  0
   10.1609   -6.2770   24.5540 H   0  0  0  0  0  0  0  0  0  0  0  0
   11.2540   -5.5406   25.7744 H   0  0  0  0  0  0  0  0  0  0  0  0
    9.8253    0.9889   24.7357 H   0  0  0  0  0  0  0  0  0  0  0  0
    9.5635    1.9845   23.3241 H   0  0  0  0  0  0  0  0  0  0  0  0
    8.1288    0.3205   23.5156 H   0  0  0  0  0  0  0  0  0  0  0  0
    8.1152   -1.8120   21.3518 H   0  0  0  0  0  0  0  0  0  0  0  0
  1  3  2  0  0  0  0
  1  7  1  0  0  0  0
  2  4  1  0  0  0  0
  2  7  2  0  0  0  0
  3  9  1  0  0  0  0
  4  9  2  0  0  0  0
  5  8  1  0  0  0  0
  5 22  2  0  0  0  0
  6  8  2  0  0  0  0
  6 25  1  0  0  0  0
  7 21  1  0  0  0  0
  8 20  1  0  0  0  0
  9 28  1  0  0  0  0
 10 12  1  0  0  0  0
 10 23  2  0  0  0  0
 10 26  1  0  0  0  0
 11 24  2  0  0  0  0
 11 26  1  0  0  0  0
 11 27  1  0  0  0  0
 12 13  2  0  0  0  0
 13 14  1  0  0  0  0
 14 15  2  0  0  0  0
 15 26  1  0  0  0  0
 16 21  1  0  0  0  0
 16 27  1  0  0  0  0
 16 29  2  0  0  0  0
 17 25  1  0  0  0  0
 18 28  1  0  0  0  0
 19 28  1  0  0  0  0
 20 21  1  1  0  0  0
 22 25  1  0  0  0  0
 23 24  1  0  0  0  0
  1 30  1  0  0  0  0
  2 31  1  0  0  0  0
  3 32  1  0  0  0  0
  4 33  1  0  0  0  0
  5 34  1  0  0  0  0
  6 35  1  0  0  0  0
 12 36  1  0  0  0  0
 13 37  1  0  0  0  0
 14 38  1  0  0  0  0
 15 39  1  0  0  0  0
 17 40  1  0  0  0  0
 17 41  1  0  0  0  0
 17 42  1  0  0  0  0
 18 43  1  0  0  0  0
 18 44  1  0  0  0  0
 18 45  1  0  0  0  0
 19 46  1  0  0  0  0
 19 47  1  0  0  0  0
 19 48  1  0  0  0  0
 20 49  1  0  0  0  0
 20 50  1  0  0  0  0
 21 51  1  0  0  0  0
 27 52  1  0  0  0  0
M  END
> <clash_score>
0

> <docking_score>
-10.197464942932129

> <overlap_score>
1.0153228044509888

$$$$
BENZO_311_2
  -OEChem-08222022413D

 52 55  0     1  0  0  0  0  0999 V2000
    8.3510   -1.5420   24.6110 C   0  0  0  0  0  0  0  0  0  0  0  0
   10.2760   -2.3270   23.4020 C   0  0  0  0  0  0  0  0  0  0  0  0
    8.3310   -2.7170   25.3430 C   0  0  0  0  0  0  0  0  0  0  0  0
   10.2570   -3.5000   24.1350 C   0  0  0  0  0  0  0  0  0  0  0  0
   12.6346    0.8176   23.6854 C   0  0  0  0  0  0  0  0  0  0  0  0
   11.6038    0.2020   25.5275 C   0  0  0  0  0  0  0  0  0  0  0  0
    9.3300   -1.3350   23.6390 C   0  0  0  0  0  0  0  0  0  0  0  0
   11.3598    0.6989   24.2706 C   0  0  0  0  0  0  0  0  0  0  0  0
    9.2850   -3.7090   25.1090 C   0  0  0  0  0  0  0  0  0  0  0  0
    5.9810    0.8330   18.8060 C   0  0  0  0  0  0  0  0  0  0  0  0
    7.2210   -0.4620   20.0350 C   0  0  0  0  0  0  0  0  0  0  0  0
    4.9400    1.7060   18.5060 C   0  0  0  0  0  0  0  0  0  0  0  0
    4.0980    2.1130   19.5350 C   0  0  0  0  0  0  0  0  0  0  0  0
    4.2970    1.6690   20.8430 C   0  0  0  0  0  0  0  0  0  0  0  0
    5.3360    0.8000   21.1530 C   0  0  0  0  0  0  0  0  0  0  0  0
    8.9510    0.1280   21.6880 C   0  0  0  0  0  0  0  0  0  0  0  0
   13.6941   -0.4329   26.7549 C   0  0  0  0  0  0  0  0  0  0  0  0
    8.2526   -5.1189   26.8655 C   0  0  0  0  0  0  0  0  0  0  0  0
   10.2443   -5.9398   25.5977 C   0  0  0  0  0  0  0  0  0  0  0  0
   10.0220    1.0430   23.6570 C   0  0  0  0  0  0  0  0  0  0  0  0
    9.4200   -0.0840   22.9530 C   0  0  2  0  0  0  0  0  0  0  0  0
   13.6158    0.4277   24.5035 N   0  0  0  0  0  0  0  0  0  0  0  0
    6.9440    0.2550   18.0100 N   0  0  0  0  0  0  0  0  0  0  0  0
    7.6830   -0.5170   18.7600 N   0  0  0  0  0  0  0  0  0  0  0  0
   12.9573    0.0592   25.6156 N   0  0  0  0  0  0  0  0  0  0  0  0
    6.1600    0.3870   20.1140 N   0  0  0  0  0  0  0  0  0  0  0  0
    8.0810   -0.9750   21.0820 N   0  0  0  0  0  0  0  0  0  0  0  0
    9.2638   -4.9025   25.8500 N   0  0  0  0  0  0  0  0  0  0  0  0
    9.1870    1.1500   21.0630 O   0  0  0  0  0  0  0  0  0  0  0  0
    7.5957   -0.7779   24.7973 H   0  0  0  0  0  0  0  0  0  0  0  0
   11.0384   -2.1852   22.6338 H   0  0  0  0  0  0  0  0  0  0  0  0
    7.5634   -2.8637   26.1037 H   0  0  0  0  0  0  0  0  0  0  0  0
   11.0139   -4.2645   23.9419 H   0  0  0  0  0  0  0  0  0  0  0  0
   12.8922    1.1725   22.6975 H   0  0  0  0  0  0  0  0  0  0  0  0
   10.9461   -0.0545   26.3470 H   0  0  0  0  0  0  0  0  0  0  0  0
    4.7733    2.0700   17.5071 H   0  0  0  0  0  0  0  0  0  0  0  0
    3.2813    2.7836   19.2995 H   0  0  0  0  0  0  0  0  0  0  0  0
    3.6335    1.9977   21.6542 H   0  0  0  0  0  0  0  0  0  0  0  0
    5.5067    0.4537   22.1474 H   0  0  0  0  0  0  0  0  0  0  0  0
   13.7879   -1.5173   26.6532 H   0  0  0  0  0  0  0  0  0  0  0  0
   14.6819    0.0356   26.7797 H   0  0  0  0  0  0  0  0  0  0  0  0
   13.1542   -0.1790   27.6714 H   0  0  0  0  0  0  0  0  0  0  0  0
    8.4030   -6.1050   27.3292 H   0  0  0  0  0  0  0  0  0  0  0  0
    8.3320   -4.3364   27.6345 H   0  0  0  0  0  0  0  0  0  0  0  0
    7.2550   -5.0794   26.4037 H   0  0  0  0  0  0  0  0  0  0  0  0
   10.0625   -6.7890   26.2728 H   0  0  0  0  0  0  0  0  0  0  0  0
   10.1609   -6.2770   24.5540 H   0  0  0  0  0  0  0  0  0  0  0  0
   11.2540   -5.5406   25.7744 H   0  0  0  0  0  0  0  0  0  0  0  0
    9.3529    1.4272   24.4380 H   0  0  0  0  0  0  0  0  0  0  0  0
   10.1743    1.8827   22.9648 H   0  0  0  0  0  0  0  0  0  0  0  0
   10.7346   -0.4307   22.4468 H   0  0  0  0  0  0  0  0  0  0  0  0
    8.1152   -1.8120   21.3518 H   0  0  0  0  0  0  0  0  0  0  0  0
  1  3  2  0  0  0  0
  1  7  1  0  0  0  0
  2  4  1  0  0  0  0
  2  7  2  0  0  0  0
  3  9  1  0  0  0  0
  4  9  2  0  0  0  0
  5  8  1  0  0  0  0
  5 22  2  0  0  0  0
  6  8  2  0  0  0  0
  6 25  1  0  0  0  0
  7 21  1  0  0  0  0
  8 20  1  0  0  0  0
  9 28  1  0  0  0  0
 10 12  1  0  0  0  0
 10 23  2  0  0  0  0
 10 26  1  0  0  0  0
 11 24  2  0  0  0  0
 11 26  1  0  0  0  0
 11 27  1  0  0  0  0
 12 13  2  0  0  0  0
 13 14  1  0  0  0  0
 14 15  2  0  0  0  0
 15 26  1  0  0  0  0
 16 21  1  0  0  0  0
 16 27  1  0  0  0  0
 16 29  2  0  0  0  0
 17 25  1  0  0  0  0
 18 28  1  0  0  0  0
 19 28  1  0  0  0  0
 20 21  1  6  0  0  0
 22 25  1  0  0  0  0
 23 24  1  0  0  0  0
  1 30  1  0  0  0  0
  2 31  1  0  0  0  0
  3 32  1  0  0  0  0
  4 33  1  0  0  0  0
  5 34  1  0  0  0  0
  6 35  1  0  0  0  0
 12 36  1  0  0  0  0
 13 37  1  0  0  0  0
 14 38  1  0  0  0  0
 15 39  1  0  0  0  0
 17 40  1  0  0  0  0
 17 41  1  0  0  0  0
 17 42  1  0  0  0  0
 18 43  1  0  0  0  0
 18 44  1  0  0  0  0
 18 45  1  0  0  0  0
 19 46  1  0  0  0  0
 19 47  1  0  0  0  0
 19 48  1  0  0  0  0
 20 49  1  0  0  0  0
 20 50  1  0  0  0  0
 21 51  1  0  0  0  0
 27 52  1  0  0  0  0
M  END
> <clash_score>
0.7451135945813081

> <docking_score>
-8.330764770507812

> <overlap_score>
0.9268195033073425

$$$$
BENZO_310_2
  -OEChem-08222022413D

 52 55  0     1  0  0  0  0  0999 V2000
   12.6560   -0.1194   26.1379 C   0  0  0  0  0  0  0  0  0  0  0  0
   11.4219    0.1994   25.5714 C   0  0  0  0  0  0  0  0  0  0  0  0
    8.3510   -1.5420   24.6110 C   0  0  0  0  0  0  0  0  0  0  0  0
   10.2760   -2.3270   23.4020 C   0  0  0  0  0  0  0  0  0  0  0  0
    8.3310   -2.7170   25.3430 C   0  0  0  0  0  0  0  0  0  0  0  0
   10.2570   -3.5000   24.1350 C   0  0  0  0  0  0  0  0  0  0  0  0
   13.8281    0.0614   25.4035 C   0  0  0  0  0  0  0  0  0  0  0  0
   12.5318    0.8798   23.5362 C   0  0  0  0  0  0  0  0  0  0  0  0
    9.3300   -1.3350   23.6390 C   0  0  0  0  0  0  0  0  0  0  0  0
   11.3598    0.6989   24.2706 C   0  0  0  0  0  0  0  0  0  0  0  0
    9.2850   -3.7090   25.1090 C   0  0  0  0  0  0  0  0  0  0  0  0
   13.7660    0.5610   24.1027 C   0  0  0  0  0  0  0  0  0  0  0  0
    5.9810    0.8330   18.8060 C   0  0  0  0  0  0  0  0  0  0  0  0
    7.2210   -0.4620   20.0350 C   0  0  0  0  0  0  0  0  0  0  0  0
    4.9400    1.7060   18.5060 C   0  0  0  0  0  0  0  0  0  0  0  0
    4.0980    2.1130   19.5350 C   0  0  0  0  0  0  0  0  0  0  0  0
    4.2970    1.6690   20.8430 C   0  0  0  0  0  0  0  0  0  0  0  0
    5.3360    0.8000   21.1530 C   0  0  0  0  0  0  0  0  0  0  0  0
    8.9510    0.1280   21.6880 C   0  0  0  0  0  0  0  0  0  0  0  0
    8.2526   -5.1189   26.8655 C   0  0  0  0  0  0  0  0  0  0  0  0
   10.2443   -5.9398   25.5977 C   0  0  0  0  0  0  0  0  0  0  0  0
   10.0220    1.0430   23.6570 C   0  0  0  0  0  0  0  0  0  0  0  0
    9.4200   -0.0840   22.9530 C   0  0  2  0  0  0  0  0  0  0  0  0
    6.9440    0.2550   18.0100 N   0  0  0  0  0  0  0  0  0  0  0  0
    7.6830   -0.5170   18.7600 N   0  0  0  0  0  0  0  0  0  0  0  0
    6.1600    0.3870   20.1140 N   0  0  0  0  0  0  0  0  0  0  0  0
    8.0810   -0.9750   21.0820 N   0  0  0  0  0  0  0  0  0  0  0  0
    9.2638   -4.9025   25.8500 N   0  0  0  0  0  0  0  0  0  0  0  0
    9.1870    1.1500   21.0630 O   0  0  0  0  0  0  0  0  0  0  0  0
   15.2122    0.7829   23.1967 Cl  0  0  0  0  0  0  0  0  0  0  0  0
   12.7039   -0.5086   27.1508 H   0  0  0  0  0  0  0  0  0  0  0  0
   10.5137    0.0551   26.1509 H   0  0  0  0  0  0  0  0  0  0  0  0
    7.5957   -0.7779   24.7973 H   0  0  0  0  0  0  0  0  0  0  0  0
   11.0384   -2.1852   22.6338 H   0  0  0  0  0  0  0  0  0  0  0  0
    7.5634   -2.8637   26.1037 H   0  0  0  0  0  0  0  0  0  0  0  0
   11.0139   -4.2645   23.9419 H   0  0  0  0  0  0  0  0  0  0  0  0
   14.7829   -0.1916   25.8577 H   0  0  0  0  0  0  0  0  0  0  0  0
   12.4781    1.2701   22.5225 H   0  0  0  0  0  0  0  0  0  0  0  0
    4.7733    2.0700   17.5071 H   0  0  0  0  0  0  0  0  0  0  0  0
    3.2813    2.7836   19.2995 H   0  0  0  0  0  0  0  0  0  0  0  0
    3.6335    1.9977   21.6542 H   0  0  0  0  0  0  0  0  0  0  0  0
    5.5067    0.4537   22.1474 H   0  0  0  0  0  0  0  0  0  0  0  0
    8.4030   -6.1050   27.3292 H   0  0  0  0  0  0  0  0  0  0  0  0
    8.3320   -4.3364   27.6345 H   0  0  0  0  0  0  0  0  0  0  0  0
    7.2550   -5.0794   26.4037 H   0  0  0  0  0  0  0  0  0  0  0  0
   10.0625   -6.7890   26.2728 H   0  0  0  0  0  0  0  0  0  0  0  0
   10.1609   -6.2770   24.5540 H   0  0  0  0  0  0  0  0  0  0  0  0
   11.2540   -5.5406   25.7744 H   0  0  0  0  0  0  0  0  0  0  0  0
    9.3529    1.4272   24.4380 H   0  0  0  0  0  0  0  0  0  0  0  0
   10.1743    1.8827   22.9648 H   0  0  0  0  0  0  0  0  0  0  0  0
   10.7346   -0.4307   22.4468 H   0  0  0  0  0  0  0  0  0  0  0  0
    8.1152   -1.8120   21.3518 H   0  0  0  0  0  0  0  0  0  0  0  0
  1  2  2  0  0  0  0
  1  7  1  0  0  0  0
  2 10  1  0  0  0  0
  3  5  2  0  0  0  0
  3  9  1  0  0  0  0
  4  6  1  0  0  0  0
  4  9  2  0  0  0  0
  5 11  1  0  0  0  0
  6 11  2  0  0  0  0
  7 12  2  0  0  0  0
  8 10  2  0  0  0  0
  8 12  1  0  0  0  0
  9 23  1  0  0  0  0
 10 22  1  0  0  0  0
 11 28  1  0  0  0  0
 12 30  1  0  0  0  0
 13 15  1  0  0  0  0
 13 24  2  0  0  0  0
 13 26  1  0  0  0  0
 14 25  2  0  0  0  0
 14 26  1  0  0  0  0
 14 27  1  0  0  0  0
 15 16  2  0  0  0  0
 16 17  1  0  0  0  0
 17 18  2  0  0  0  0
 18 26  1  0  0  0  0
 19 23  1  0  0  0  0
 19 27  1  0  0  0  0
 19 29  2  0  0  0  0
 20 28  1  0  0  0  0
 21 28  1  0  0  0  0
 22 23  1  6  0  0  0
 24 25  1  0  0  0  0
  1 31  1  0  0  0  0
  2 32  1  0  0  0  0
  3 33  1  0  0  0  0
  4 34  1  0  0  0  0
  5 35  1  0  0  0  0
  6 36  1  0  0  0  0
  7 37  1  0  0  0  0
  8 38  1  0  0  0  0
 15 39  1  0  0  0  0
 16 40  1  0  0  0  0
 17 41  1  0  0  0  0
 18 42  1  0  0  0  0
 20 43  1  0  0  0  0
 20 44  1  0  0  0  0
 20 45  1  0  0  0  0
 21 46  1  0  0  0  0
 21 47  1  0  0  0  0
 21 48  1  0  0  0  0
 22 49  1  0  0  0  0
 22 50  1  0  0  0  0
 23 51  1  0  0  0  0
 27 52  1  0  0  0  0
M  END
> <clash_score>
0.6070850149950604

> <docking_score>
-7.563271522521973

> <overlap_score>
0.9446600675582886

$$$$
BENZO_313_1
  -OEChem-08222022413D

 54 57  0     1  0  0  0  0  0999 V2000
   14.2623    1.3345   22.9975 C   0  0  0  0  0  0  0  0  0  0  0  0
   13.7729    0.5817   24.0649 C   0  0  0  0  0  0  0  0  0  0  0  0
   13.3767    1.9928   22.1442 C   0  0  0  0  0  0  0  0  0  0  0  0
   12.3978    0.4871   24.2790 C   0  0  0  0  0  0  0  0  0  0  0  0
   12.0016    1.8981   22.3583 C   0  0  0  0  0  0  0  0  0  0  0  0
    8.3510   -1.5420   24.6110 C   0  0  0  0  0  0  0  0  0  0  0  0
   10.2760   -2.3270   23.4020 C   0  0  0  0  0  0  0  0  0  0  0  0
    8.3310   -2.7170   25.3430 C   0  0  0  0  0  0  0  0  0  0  0  0
   10.2570   -3.5000   24.1350 C   0  0  0  0  0  0  0  0  0  0  0  0
   11.5121    1.1453   23.4257 C   0  0  0  0  0  0  0  0  0  0  0  0
    9.3300   -1.3350   23.6390 C   0  0  0  0  0  0  0  0  0  0  0  0
    9.2850   -3.7090   25.1090 C   0  0  0  0  0  0  0  0  0  0  0  0
    5.9810    0.8330   18.8060 C   0  0  0  0  0  0  0  0  0  0  0  0
    7.2210   -0.4620   20.0350 C   0  0  0  0  0  0  0  0  0  0  0  0
    4.9400    1.7060   18.5060 C   0  0  0  0  0  0  0  0  0  0  0  0
    4.0980    2.1130   19.5350 C   0  0  0  0  0  0  0  0  0  0  0  0
    4.2970    1.6690   20.8430 C   0  0  0  0  0  0  0  0  0  0  0  0
    5.3360    0.8000   21.1530 C   0  0  0  0  0  0  0  0  0  0  0  0
    8.1533   -5.5442   26.4004 C   0  0  0  0  0  0  0  0  0  0  0  0
    8.9510    0.1280   21.6880 C   0  0  0  0  0  0  0  0  0  0  0  0
    9.7865   -7.4752   26.4986 C   0  0  0  0  0  0  0  0  0  0  0  0
   10.0220    1.0430   23.6570 C   0  0  0  0  0  0  0  0  0  0  0  0
    8.5718   -6.8147   27.1254 C   0  0  0  0  0  0  0  0  0  0  0  0
    9.4200   -0.0840   22.9530 C   0  0  1  0  0  0  0  0  0  0  0  0
    6.9440    0.2550   18.0100 N   0  0  0  0  0  0  0  0  0  0  0  0
    7.6830   -0.5170   18.7600 N   0  0  0  0  0  0  0  0  0  0  0  0
    6.1600    0.3870   20.1140 N   0  0  0  0  0  0  0  0  0  0  0  0
    9.2630   -4.8903   25.8409 N   0  0  0  0  0  0  0  0  0  0  0  0
    8.0810   -0.9750   21.0820 N   0  0  0  0  0  0  0  0  0  0  0  0
    6.9823   -5.1841   26.3423 O   0  0  0  0  0  0  0  0  0  0  0  0
    9.1870    1.1500   21.0630 O   0  0  0  0  0  0  0  0  0  0  0  0
   15.3331    1.4092   22.8317 H   0  0  0  0  0  0  0  0  0  0  0  0
   14.4623    0.0700   24.7300 H   0  0  0  0  0  0  0  0  0  0  0  0
   13.7574    2.5799   21.3137 H   0  0  0  0  0  0  0  0  0  0  0  0
   12.0255   -0.1019   25.1131 H   0  0  0  0  0  0  0  0  0  0  0  0
   11.3191    2.4143   21.6883 H   0  0  0  0  0  0  0  0  0  0  0  0
    7.5948   -0.7783   24.7966 H   0  0  0  0  0  0  0  0  0  0  0  0
   11.0389   -2.1844   22.6342 H   0  0  0  0  0  0  0  0  0  0  0  0
    7.5642   -2.8624   26.1050 H   0  0  0  0  0  0  0  0  0  0  0  0
   11.0137   -4.2649   23.9418 H   0  0  0  0  0  0  0  0  0  0  0  0
    4.7733    2.0700   17.5071 H   0  0  0  0  0  0  0  0  0  0  0  0
    3.2813    2.7836   19.2995 H   0  0  0  0  0  0  0  0  0  0  0  0
    3.6335    1.9977   21.6542 H   0  0  0  0  0  0  0  0  0  0  0  0
    5.5067    0.4537   22.1474 H   0  0  0  0  0  0  0  0  0  0  0  0
    9.5955   -7.7381   25.4529 H   0  0  0  0  0  0  0  0  0  0  0  0
   10.0442   -8.3908   27.0398 H   0  0  0  0  0  0  0  0  0  0  0  0
   10.6539   -6.8074   26.5236 H   0  0  0  0  0  0  0  0  0  0  0  0
    9.8253    0.9889   24.7357 H   0  0  0  0  0  0  0  0  0  0  0  0
    9.5635    1.9845   23.3241 H   0  0  0  0  0  0  0  0  0  0  0  0
    8.7908   -6.5628   28.1695 H   0  0  0  0  0  0  0  0  0  0  0  0
    7.7286   -7.5148   27.1147 H   0  0  0  0  0  0  0  0  0  0  0  0
    8.1288    0.3205   23.5156 H   0  0  0  0  0  0  0  0  0  0  0  0
   10.1694   -5.3468   25.9962 H   0  0  0  0  0  0  0  0  0  0  0  0
    8.1152   -1.8120   21.3518 H   0  0  0  0  0  0  0  0  0  0  0  0
  1  2  1  0  0  0  0
  1  3  2  0  0  0  0
  2  4  2  0  0  0  0
  3  5  1  0  0  0  0
  4 10  1  0  0  0  0
  5 10  2  0  0  0  0
  6  8  2  0  0  0  0
  6 11  1  0  0  0  0
  7  9  1  0  0  0  0
  7 11  2  0  0  0  0
  8 12  1  0  0  0  0
  9 12  2  0  0  0  0
 10 22  1  0  0  0  0
 11 24  1  0  0  0  0
 12 28  1  0  0  0  0
 13 15  1  0  0  0  0
 13 25  2  0  0  0  0
 13 27  1  0  0  0  0
 14 26  2  0  0  0  0
 14 27  1  0  0  0  0
 14 29  1  0  0  0  0
 15 16  2  0  0  0  0
 16 17  1  0  0  0  0
 17 18  2  0  0  0  0
 18 27  1  0  0  0  0
 19 23  1  0  0  0  0
 19 28  1  0  0  0  0
 19 30  2  0  0  0  0
 20 24  1  0  0  0  0
 20 29  1  0  0  0  0
 20 31  2  0  0  0  0
 21 23  1  0  0  0  0
 22 24  1  1  0  0  0
 25 26  1  0  0  0  0
  1 32  1  0  0  0  0
  2 33  1  0  0  0  0
  3 34  1  0  0  0  0
  4 35  1  0  0  0  0
  5 36  1  0  0  0  0
  6 37  1  0  0  0  0
  7 38  1  0  0  0  0
  8 39  1  0  0  0  0
  9 40  1  0  0  0  0
 15 41  1  0  0  0  0
 16 42  1  0  0  0  0
 17 43  1  0  0  0  0
 18 44  1  0  0  0  0
 21 45  1  0  0  0  0
 21 46  1  0  0  0  0
 21 47  1  0  0  0  0
 22 48  1  0  0  0  0
 22 49  1  0  0  0  0
 23 50  1  0  0  0  0
 23 51  1  0  0  0  0
 24 52  1  0  0  0  0
 28 53  1  0  0  0  0
 29 54  1  0  0  0  0
M  END
> <clash_score>
0.7457684252583453

> <docking_score>
-7.538437843322754

> <overlap_score>
1.0191850662231445

$$$$
BENZO_313_2
  -OEChem-08222022413D

 54 57  0     1  0  0  0  0  0999 V2000
   13.8295    0.0638   25.4018 C   0  0  0  0  0  0  0  0  0  0  0  0
   12.6583   -0.1175   26.1373 C   0  0  0  0  0  0  0  0  0  0  0  0
   13.7659    0.5627   24.1007 C   0  0  0  0  0  0  0  0  0  0  0  0
   11.4234    0.2001   25.5717 C   0  0  0  0  0  0  0  0  0  0  0  0
   12.5310    0.8802   23.5351 C   0  0  0  0  0  0  0  0  0  0  0  0
    8.3510   -1.5420   24.6110 C   0  0  0  0  0  0  0  0  0  0  0  0
   10.2760   -2.3270   23.4020 C   0  0  0  0  0  0  0  0  0  0  0  0
    8.3310   -2.7170   25.3430 C   0  0  0  0  0  0  0  0  0  0  0  0
   10.2570   -3.5000   24.1350 C   0  0  0  0  0  0  0  0  0  0  0  0
   11.3597    0.6989   24.2706 C   0  0  0  0  0  0  0  0  0  0  0  0
    9.3300   -1.3350   23.6390 C   0  0  0  0  0  0  0  0  0  0  0  0
    9.2850   -3.7090   25.1090 C   0  0  0  0  0  0  0  0  0  0  0  0
    5.9810    0.8330   18.8060 C   0  0  0  0  0  0  0  0  0  0  0  0
    7.2210   -0.4620   20.0350 C   0  0  0  0  0  0  0  0  0  0  0  0
    4.9400    1.7060   18.5060 C   0  0  0  0  0  0  0  0  0  0  0  0
    4.0980    2.1130   19.5350 C   0  0  0  0  0  0  0  0  0  0  0  0
    4.2970    1.6690   20.8430 C   0  0  0  0  0  0  0  0  0  0  0  0
    5.3360    0.8000   21.1530 C   0  0  0  0  0  0  0  0  0  0  0  0
    8.3657   -5.2677   26.8531 C   0  0  0  0  0  0  0  0  0  0  0  0
    8.9510    0.1280   21.6880 C   0  0  0  0  0  0  0  0  0  0  0  0
    7.9616   -7.7593   26.6677 C   0  0  0  0  0  0  0  0  0  0  0  0
   10.0220    1.0430   23.6570 C   0  0  0  0  0  0  0  0  0  0  0  0
    8.6986   -6.6495   27.3958 C   0  0  0  0  0  0  0  0  0  0  0  0
    9.4200   -0.0840   22.9530 C   0  0  2  0  0  0  0  0  0  0  0  0
    6.9440    0.2550   18.0100 N   0  0  0  0  0  0  0  0  0  0  0  0
    7.6830   -0.5170   18.7600 N   0  0  0  0  0  0  0  0  0  0  0  0
    6.1600    0.3870   20.1140 N   0  0  0  0  0  0  0  0  0  0  0  0
    9.2630   -4.8903   25.8409 N   0  0  0  0  0  0  0  0  0  0  0  0
    8.0810   -0.9750   21.0820 N   0  0  0  0  0  0  0  0  0  0  0  0
    7.4224   -4.6107   27.2809 O   0  0  0  0  0  0  0  0  0  0  0  0
    9.1870    1.1500   21.0630 O   0  0  0  0  0  0  0  0  0  0  0  0
   14.7910   -0.1822   25.8428 H   0  0  0  0  0  0  0  0  0  0  0  0
   12.7077   -0.5049   27.1507 H   0  0  0  0  0  0  0  0  0  0  0  0
   14.6777    0.7050   23.5282 H   0  0  0  0  0  0  0  0  0  0  0  0
   10.5160    0.0554   26.1521 H   0  0  0  0  0  0  0  0  0  0  0  0
   12.4911    1.2683   22.5207 H   0  0  0  0  0  0  0  0  0  0  0  0
    7.5948   -0.7783   24.7966 H   0  0  0  0  0  0  0  0  0  0  0  0
   11.0389   -2.1844   22.6342 H   0  0  0  0  0  0  0  0  0  0  0  0
    7.5642   -2.8624   26.1050 H   0  0  0  0  0  0  0  0  0  0  0  0
   11.0137   -4.2649   23.9418 H   0  0  0  0  0  0  0  0  0  0  0  0
    4.7733    2.0700   17.5071 H   0  0  0  0  0  0  0  0  0  0  0  0
    3.2813    2.7836   19.2995 H   0  0  0  0  0  0  0  0  0  0  0  0
    3.6335    1.9977   21.6542 H   0  0  0  0  0  0  0  0  0  0  0  0
    5.5067    0.4537   22.1474 H   0  0  0  0  0  0  0  0  0  0  0  0
    6.8773   -7.6263   26.7426 H   0  0  0  0  0  0  0  0  0  0  0  0
    8.2173   -8.7325   27.0977 H   0  0  0  0  0  0  0  0  0  0  0  0
    8.2252   -7.7749   25.6050 H   0  0  0  0  0  0  0  0  0  0  0  0
    9.3529    1.4272   24.4380 H   0  0  0  0  0  0  0  0  0  0  0  0
   10.1743    1.8827   22.9648 H   0  0  0  0  0  0  0  0  0  0  0  0
    9.7794   -6.8076   27.3045 H   0  0  0  0  0  0  0  0  0  0  0  0
    8.4402   -6.6763   28.4606 H   0  0  0  0  0  0  0  0  0  0  0  0
   10.7346   -0.4307   22.4468 H   0  0  0  0  0  0  0  0  0  0  0  0
    9.9927   -5.5774   25.6187 H   0  0  0  0  0  0  0  0  0  0  0  0
    8.1152   -1.8120   21.3518 H   0  0  0  0  0  0  0  0  0  0  0  0
  1  2  1  0  0  0  0
  1  3  2  0  0  0  0
  2  4  2  0  0  0  0
  3  5  1  0  0  0  0
  4 10  1  0  0  0  0
  5 10  2  0  0  0  0
  6  8  2  0  0  0  0
  6 11  1  0  0  0  0
  7  9  1  0  0  0  0
  7 11  2  0  0  0  0
  8 12  1  0  0  0  0
  9 12  2  0  0  0  0
 10 22  1  0  0  0  0
 11 24  1  0  0  0  0
 12 28  1  0  0  0  0
 13 15  1  0  0  0  0
 13 25  2  0  0  0  0
 13 27  1  0  0  0  0
 14 26  2  0  0  0  0
 14 27  1  0  0  0  0
 14 29  1  0  0  0  0
 15 16  2  0  0  0  0
 16 17  1  0  0  0  0
 17 18  2  0  0  0  0
 18 27  1  0  0  0  0
 19 23  1  0  0  0  0
 19 28  1  0  0  0  0
 19 30  2  0  0  0  0
 20 24  1  0  0  0  0
 20 29  1  0  0  0  0
 20 31  2  0  0  0  0
 21 23  1  0  0  0  0
 22 24  1  6  0  0  0
 25 26  1  0  0  0  0
  1 32  1  0  0  0  0
  2 33  1  0  0  0  0
  3 34  1  0  0  0  0
  4 35  1  0  0  0  0
  5 36  1  0  0  0  0
  6 37  1  0  0  0  0
  7 38  1  0  0  0  0
  8 39  1  0  0  0  0
  9 40  1  0  0  0  0
 15 41  1  0  0  0  0
 16 42  1  0  0  0  0
 17 43  1  0  0  0  0
 18 44  1  0  0  0  0
 21 45  1  0  0  0  0
 21 46  1  0  0  0  0
 21 47  1  0  0  0  0
 22 48  1  0  0  0  0
 22 49  1  0  0  0  0
 23 50  1  0  0  0  0
 23 51  1  0  0  0  0
 24 52  1  0  0  0  0
 28 53  1  0  0  0  0
 29 54  1  0  0  0  0
M  END
> <clash_score>
1.3868841075312073

> <docking_score>
-6.315061569213867

> <overlap_score>
0.9425653219223022

$$$$
BENZO_312_1
  -OEChem-08222022413D

 51 54  0     1  0  0  0  0  0999 V2000
    8.3510   -1.5420   24.6110 C   0  0  0  0  0  0  0  0  0  0  0  0
   10.2760   -2.3270   23.4020 C   0  0  0  0  0  0  0  0  0  0  0  0
    8.3310   -2.7170   25.3430 C   0  0  0  0  0  0  0  0  0  0  0  0
   10.2570   -3.5000   24.1350 C   0  0  0  0  0  0  0  0  0  0  0  0
   12.2216    2.3786   23.3498 C   0  0  0  0  0  0  0  0  0  0  0  0
   13.5684    2.1883   23.1319 C   0  0  0  0  0  0  0  0  0  0  0  0
   12.3438    0.0592   23.2626 C   0  0  0  0  0  0  0  0  0  0  0  0
    9.3300   -1.3350   23.6390 C   0  0  0  0  0  0  0  0  0  0  0  0
   11.5121    1.1453   23.4257 C   0  0  0  0  0  0  0  0  0  0  0  0
    9.2850   -3.7090   25.1090 C   0  0  0  0  0  0  0  0  0  0  0  0
    5.9810    0.8330   18.8060 C   0  0  0  0  0  0  0  0  0  0  0  0
    7.2210   -0.4620   20.0350 C   0  0  0  0  0  0  0  0  0  0  0  0
    4.9400    1.7060   18.5060 C   0  0  0  0  0  0  0  0  0  0  0  0
    4.0980    2.1130   19.5350 C   0  0  0  0  0  0  0  0  0  0  0  0
    4.2970    1.6690   20.8430 C   0  0  0  0  0  0  0  0  0  0  0  0
    5.3360    0.8000   21.1530 C   0  0  0  0  0  0  0  0  0  0  0  0
    8.3657   -5.2677   26.8531 C   0  0  0  0  0  0  0  0  0  0  0  0
    8.9510    0.1280   21.6880 C   0  0  0  0  0  0  0  0  0  0  0  0
    7.9616   -7.7593   26.6677 C   0  0  0  0  0  0  0  0  0  0  0  0
   10.0220    1.0430   23.6570 C   0  0  0  0  0  0  0  0  0  0  0  0
    8.6986   -6.6495   27.3958 C   0  0  0  0  0  0  0  0  0  0  0  0
    9.4200   -0.0840   22.9530 C   0  0  1  0  0  0  0  0  0  0  0  0
    6.9440    0.2550   18.0100 N   0  0  0  0  0  0  0  0  0  0  0  0
    7.6830   -0.5170   18.7600 N   0  0  0  0  0  0  0  0  0  0  0  0
    6.1600    0.3870   20.1140 N   0  0  0  0  0  0  0  0  0  0  0  0
    9.2630   -4.8903   25.8409 N   0  0  0  0  0  0  0  0  0  0  0  0
    8.0810   -0.9750   21.0820 N   0  0  0  0  0  0  0  0  0  0  0  0
    7.4224   -4.6107   27.2809 O   0  0  0  0  0  0  0  0  0  0  0  0
    9.1870    1.1500   21.0630 O   0  0  0  0  0  0  0  0  0  0  0  0
   13.9727    0.5281   23.0196 S   0  0  0  0  0  0  0  0  0  0  0  0
    7.5948   -0.7783   24.7966 H   0  0  0  0  0  0  0  0  0  0  0  0
   11.0389   -2.1844   22.6342 H   0  0  0  0  0  0  0  0  0  0  0  0
    7.5642   -2.8624   26.1050 H   0  0  0  0  0  0  0  0  0  0  0  0
   11.0137   -4.2649   23.9418 H   0  0  0  0  0  0  0  0  0  0  0  0
   11.7708    3.3580   23.4491 H   0  0  0  0  0  0  0  0  0  0  0  0
   14.3341    2.9446   23.0326 H   0  0  0  0  0  0  0  0  0  0  0  0
   12.0768   -0.9885   23.2727 H   0  0  0  0  0  0  0  0  0  0  0  0
    4.7733    2.0700   17.5071 H   0  0  0  0  0  0  0  0  0  0  0  0
    3.2813    2.7836   19.2995 H   0  0  0  0  0  0  0  0  0  0  0  0
    3.6335    1.9977   21.6542 H   0  0  0  0  0  0  0  0  0  0  0  0
    5.5067    0.4537   22.1474 H   0  0  0  0  0  0  0  0  0  0  0  0
    6.8773   -7.6263   26.7426 H   0  0  0  0  0  0  0  0  0  0  0  0
    8.2173   -8.7325   27.0977 H   0  0  0  0  0  0  0  0  0  0  0  0
    8.2252   -7.7749   25.6050 H   0  0  0  0  0  0  0  0  0  0  0  0
    9.8253    0.9889   24.7357 H   0  0  0  0  0  0  0  0  0  0  0  0
    9.5635    1.9845   23.3241 H   0  0  0  0  0  0  0  0  0  0  0  0
    9.7794   -6.8076   27.3045 H   0  0  0  0  0  0  0  0  0  0  0  0
    8.4402   -6.6763   28.4606 H   0  0  0  0  0  0  0  0  0  0  0  0
    8.1288    0.3205   23.5156 H   0  0  0  0  0  0  0  0  0  0  0  0
    9.9927   -5.5774   25.6187 H   0  0  0  0  0  0  0  0  0  0  0  0
    8.1152   -1.8120   21.3518 H   0  0  0  0  0  0  0  0  0  0  0  0
  1  3  2  0  0  0  0
  1  8  1  0  0  0  0
  2  4  1  0  0  0  0
  2  8  2  0  0  0  0
  3 10  1  0  0  0  0
  4 10  2  0  0  0  0
  5  6  2  0  0  0  0
  5  9  1  0  0  0  0
  6 30  1  0  0  0  0
  7  9  2  0  0  0  0
  7 30  1  0  0  0  0
  8 22  1  0  0  0  0
  9 20  1  0  0  0  0
 10 26  1  0  0  0  0
 11 13  1  0  0  0  0
 11 23  2  0  0  0  0
 11 25  1  0  0  0  0
 12 24  2  0  0  0  0
 12 25  1  0  0  0  0
 12 27  1  0  0  0  0
 13 14  2  0  0  0  0
 14 15  1  0  0  0  0
 15 16  2  0  0  0  0
 16 25  1  0  0  0  0
 17 21  1  0  0  0  0
 17 26  1  0  0  0  0
 17 28  2  0  0  0  0
 18 22  1  0  0  0  0
 18 27  1  0  0  0  0
 18 29  2  0  0  0  0
 19 21  1  0  0  0  0
 20 22  1  1  0  0  0
 23 24  1  0  0  0  0
  1 31  1  0  0  0  0
  2 32  1  0  0  0  0
  3 33  1  0  0  0  0
  4 34  1  0  0  0  0
  5 35  1  0  0  0  0
  6 36  1  0  0  0  0
  7 37  1  0  0  0  0
 13 38  1  0  0  0  0
 14 39  1  0  0  0  0
 15 40  1  0  0  0  0
 16 41  1  0  0  0  0
 19 42  1  0  0  0  0
 19 43  1  0  0  0  0
 19 44  1  0  0  0  0
 20 45  1  0  0  0  0
 20 46  1  0  0  0  0
 21 47  1  0  0  0  0
 21 48  1  0  0  0  0
 22 49  1  0  0  0  0
 26 50  1  0  0  0  0
 27 51  1  0  0  0  0
M  END
> <clash_score>
0.7802342650595874

> <docking_score>
-8.1488618850708

> <overlap_score>
1.0075703859329224

$$$$
BENZO_312_2
  -OEChem-08222022413D

 51 54  0     1  0  0  0  0  0999 V2000
    8.3510   -1.5420   24.6110 C   0  0  0  0  0  0  0  0  0  0  0  0
   10.2760   -2.3270   23.4020 C   0  0  0  0  0  0  0  0  0  0  0  0
    8.3310   -2.7170   25.3430 C   0  0  0  0  0  0  0  0  0  0  0  0
   10.2570   -3.5000   24.1350 C   0  0  0  0  0  0  0  0  0  0  0  0
   11.6656    0.8624   25.6525 C   0  0  0  0  0  0  0  0  0  0  0  0
   12.9541    0.4739   25.9468 C   0  0  0  0  0  0  0  0  0  0  0  0
   12.4263    0.1919   23.5611 C   0  0  0  0  0  0  0  0  0  0  0  0
    9.3300   -1.3350   23.6390 C   0  0  0  0  0  0  0  0  0  0  0  0
   11.3597    0.6989   24.2706 C   0  0  0  0  0  0  0  0  0  0  0  0
    9.2850   -3.7090   25.1090 C   0  0  0  0  0  0  0  0  0  0  0  0
    5.9810    0.8330   18.8060 C   0  0  0  0  0  0  0  0  0  0  0  0
    7.2210   -0.4620   20.0350 C   0  0  0  0  0  0  0  0  0  0  0  0
    4.9400    1.7060   18.5060 C   0  0  0  0  0  0  0  0  0  0  0  0
    4.0980    2.1130   19.5350 C   0  0  0  0  0  0  0  0  0  0  0  0
    4.2970    1.6690   20.8430 C   0  0  0  0  0  0  0  0  0  0  0  0
    5.3360    0.8000   21.1530 C   0  0  0  0  0  0  0  0  0  0  0  0
    8.3657   -5.2677   26.8531 C   0  0  0  0  0  0  0  0  0  0  0  0
    8.9510    0.1280   21.6880 C   0  0  0  0  0  0  0  0  0  0  0  0
    7.4788   -7.3812   27.9264 C   0  0  0  0  0  0  0  0  0  0  0  0
   10.0220    1.0430   23.6570 C   0  0  0  0  0  0  0  0  0  0  0  0
    8.6986   -6.6495   27.3958 C   0  0  0  0  0  0  0  0  0  0  0  0
    9.4200   -0.0840   22.9530 C   0  0  2  0  0  0  0  0  0  0  0  0
    6.9440    0.2550   18.0100 N   0  0  0  0  0  0  0  0  0  0  0  0
    7.6830   -0.5170   18.7600 N   0  0  0  0  0  0  0  0  0  0  0  0
    6.1600    0.3870   20.1140 N   0  0  0  0  0  0  0  0  0  0  0  0
    9.2630   -4.8903   25.8409 N   0  0  0  0  0  0  0  0  0  0  0  0
    8.0810   -0.9750   21.0820 N   0  0  0  0  0  0  0  0  0  0  0  0
    7.4224   -4.6107   27.2809 O   0  0  0  0  0  0  0  0  0  0  0  0
    9.1870    1.1500   21.0630 O   0  0  0  0  0  0  0  0  0  0  0  0
   13.7891   -0.0851   24.5602 S   0  0  0  0  0  0  0  0  0  0  0  0
    7.5948   -0.7783   24.7966 H   0  0  0  0  0  0  0  0  0  0  0  0
   11.0389   -2.1844   22.6342 H   0  0  0  0  0  0  0  0  0  0  0  0
    7.5642   -2.8624   26.1050 H   0  0  0  0  0  0  0  0  0  0  0  0
   11.0137   -4.2649   23.9418 H   0  0  0  0  0  0  0  0  0  0  0  0
   10.9786    1.2455   26.3965 H   0  0  0  0  0  0  0  0  0  0  0  0
   13.4452    0.4923   26.9094 H   0  0  0  0  0  0  0  0  0  0  0  0
   12.4750   -0.0294   22.5039 H   0  0  0  0  0  0  0  0  0  0  0  0
    4.7733    2.0700   17.5071 H   0  0  0  0  0  0  0  0  0  0  0  0
    3.2813    2.7836   19.2995 H   0  0  0  0  0  0  0  0  0  0  0  0
    3.6335    1.9977   21.6542 H   0  0  0  0  0  0  0  0  0  0  0  0
    5.5067    0.4537   22.1474 H   0  0  0  0  0  0  0  0  0  0  0  0
    7.0004   -6.8152   28.7324 H   0  0  0  0  0  0  0  0  0  0  0  0
    7.7639   -8.3619   28.3197 H   0  0  0  0  0  0  0  0  0  0  0  0
    6.7363   -7.5324   27.1359 H   0  0  0  0  0  0  0  0  0  0  0  0
    9.3529    1.4272   24.4380 H   0  0  0  0  0  0  0  0  0  0  0  0
   10.1743    1.8827   22.9648 H   0  0  0  0  0  0  0  0  0  0  0  0
    9.1564   -7.2375   26.5920 H   0  0  0  0  0  0  0  0  0  0  0  0
    9.4367   -6.5392   28.1986 H   0  0  0  0  0  0  0  0  0  0  0  0
   10.7346   -0.4307   22.4468 H   0  0  0  0  0  0  0  0  0  0  0  0
    9.9927   -5.5774   25.6187 H   0  0  0  0  0  0  0  0  0  0  0  0
    8.1152   -1.8120   21.3518 H   0  0  0  0  0  0  0  0  0  0  0  0
  1  3  2  0  0  0  0
  1  8  1  0  0  0  0
  2  4  1  0  0  0  0
  2  8  2  0  0  0  0
  3 10  1  0  0  0  0
  4 10  2  0  0  0  0
  5  6  2  0  0  0  0
  5  9  1  0  0  0  0
  6 30  1  0  0  0  0
  7  9  2  0  0  0  0
  7 30  1  0  0  0  0
  8 22  1  0  0  0  0
  9 20  1  0  0  0  0
 10 26  1  0  0  0  0
 11 13  1  0  0  0  0
 11 23  2  0  0  0  0
 11 25  1  0  0  0  0
 12 24  2  0  0  0  0
 12 25  1  0  0  0  0
 12 27  1  0  0  0  0
 13 14  2  0  0  0  0
 14 15  1  0  0  0  0
 15 16  2  0  0  0  0
 16 25  1  0  0  0  0
 17 21  1  0  0  0  0
 17 26  1  0  0  0  0
 17 28  2  0  0  0  0
 18 22  1  0  0  0  0
 18 27  1  0  0  0  0
 18 29  2  0  0  0  0
 19 21  1  0  0  0  0
 20 22  1  6  0  0  0
 23 24  1  0  0  0  0
  1 31  1  0  0  0  0
  2 32  1  0  0  0  0
  3 33  1  0  0  0  0
  4 34  1  0  0  0  0
  5 35  1  0  0  0  0
  6 36  1  0  0  0  0
  7 37  1  0  0  0  0
 13 38  1  0  0  0  0
 14 39  1  0  0  0  0
 15 40  1  0  0  0  0
 16 41  1  0  0  0  0
 19 42  1  0  0  0  0
 19 43  1  0  0  0  0
 19 44  1  0  0  0  0
 20 45  1  0  0  0  0
 20 46  1  0  0  0  0
 21 47  1  0  0  0  0
 21 48  1  0  0  0  0
 22 49  1  0  0  0  0
 26 50  1  0  0  0  0
 27 51  1  0  0  0  0
M  END
> <clash_score>
0

> <docking_score>
-5.930992126464844

> <overlap_score>
0.9248477220535278

$$$$
BENZO_317_1
  -OEChem-08222022413D

 59 63  0     1  0  0  0  0  0999 V2000
   13.8377    0.1157   25.4121 C   0  0  0  0  0  0  0  0  0  0  0  0
   12.6675   -0.0757   26.1466 C   0  0  0  0  0  0  0  0  0  0  0  0
   13.7705    0.6079   24.1087 C   0  0  0  0  0  0  0  0  0  0  0  0
   11.4299    0.2250   25.5777 C   0  0  0  0  0  0  0  0  0  0  0  0
   12.5329    0.9086   23.5397 C   0  0  0  0  0  0  0  0  0  0  0  0
    8.3510   -1.5420   24.6110 C   0  0  0  0  0  0  0  0  0  0  0  0
   10.2760   -2.3270   23.4020 C   0  0  0  0  0  0  0  0  0  0  0  0
    8.3310   -2.7170   25.3430 C   0  0  0  0  0  0  0  0  0  0  0  0
   10.2570   -3.5000   24.1350 C   0  0  0  0  0  0  0  0  0  0  0  0
   11.3626    0.7172   24.2742 C   0  0  0  0  0  0  0  0  0  0  0  0
    9.3300   -1.3350   23.6390 C   0  0  0  0  0  0  0  0  0  0  0  0
    9.2850   -3.7090   25.1090 C   0  0  0  0  0  0  0  0  0  0  0  0
    5.9810    0.8330   18.8060 C   0  0  0  0  0  0  0  0  0  0  0  0
    7.2210   -0.4620   20.0350 C   0  0  0  0  0  0  0  0  0  0  0  0
    4.9400    1.7060   18.5060 C   0  0  0  0  0  0  0  0  0  0  0  0
    4.0980    2.1130   19.5350 C   0  0  0  0  0  0  0  0  0  0  0  0
    4.2970    1.6690   20.8430 C   0  0  0  0  0  0  0  0  0  0  0  0
    5.3360    0.8000   21.1530 C   0  0  0  0  0  0  0  0  0  0  0  0
    8.9510    0.1280   21.6880 C   0  0  0  0  0  0  0  0  0  0  0  0
    7.3211   -6.8875   26.5227 C   0  0  0  0  0  0  0  0  0  0  0  0
    7.3523   -5.5278   27.2244 C   0  0  0  0  0  0  0  0  0  0  0  0
    7.9422   -6.8107   25.1261 C   0  0  0  0  0  0  0  0  0  0  0  0
    8.7641   -4.9418   27.2163 C   0  0  0  0  0  0  0  0  0  0  0  0
    9.3411   -6.1879   25.1670 C   0  0  0  0  0  0  0  0  0  0  0  0
   10.0220    1.0430   23.6570 C   0  0  0  0  0  0  0  0  0  0  0  0
    9.4200   -0.0840   22.9530 C   0  0  1  0  0  0  0  0  0  0  0  0
    6.9440    0.2550   18.0100 N   0  0  0  0  0  0  0  0  0  0  0  0
    7.6830   -0.5170   18.7600 N   0  0  0  0  0  0  0  0  0  0  0  0
    6.1600    0.3870   20.1140 N   0  0  0  0  0  0  0  0  0  0  0  0
    9.2641   -4.8861   25.8398 N   0  0  0  0  0  0  0  0  0  0  0  0
    8.0810   -0.9750   21.0820 N   0  0  0  0  0  0  0  0  0  0  0  0
    9.1870    1.1500   21.0630 O   0  0  0  0  0  0  0  0  0  0  0  0
   14.8013   -0.1172   25.8558 H   0  0  0  0  0  0  0  0  0  0  0  0
   12.7197   -0.4578   27.1619 H   0  0  0  0  0  0  0  0  0  0  0  0
   14.6814    0.7580   23.5369 H   0  0  0  0  0  0  0  0  0  0  0  0
   10.5233    0.0726   26.1574 H   0  0  0  0  0  0  0  0  0  0  0  0
   12.4902    1.2914   22.5235 H   0  0  0  0  0  0  0  0  0  0  0  0
    7.5957   -0.7779   24.7973 H   0  0  0  0  0  0  0  0  0  0  0  0
   11.0384   -2.1852   22.6338 H   0  0  0  0  0  0  0  0  0  0  0  0
    7.5634   -2.8637   26.1037 H   0  0  0  0  0  0  0  0  0  0  0  0
   11.0139   -4.2645   23.9419 H   0  0  0  0  0  0  0  0  0  0  0  0
    4.7733    2.0700   17.5071 H   0  0  0  0  0  0  0  0  0  0  0  0
    3.2813    2.7836   19.2995 H   0  0  0  0  0  0  0  0  0  0  0  0
    3.6335    1.9977   21.6542 H   0  0  0  0  0  0  0  0  0  0  0  0
    5.5067    0.4537   22.1474 H   0  0  0  0  0  0  0  0  0  0  0  0
    7.8644   -7.6283   27.1289 H   0  0  0  0  0  0  0  0  0  0  0  0
    6.2830   -7.2423   26.4478 H   0  0  0  0  0  0  0  0  0  0  0  0
    6.6663   -4.8405   26.7221 H   0  0  0  0  0  0  0  0  0  0  0  0
    7.0062   -5.6400   28.2540 H   0  0  0  0  0  0  0  0  0  0  0  0
    8.0018   -7.8160   24.6962 H   0  0  0  0  0  0  0  0  0  0  0  0
    7.2963   -6.2182   24.4678 H   0  0  0  0  0  0  0  0  0  0  0  0
    8.7322   -3.9404   27.6532 H   0  0  0  0  0  0  0  0  0  0  0  0
    9.4260   -5.5610   27.8283 H   0  0  0  0  0  0  0  0  0  0  0  0
   10.0249   -6.8474   25.7028 H   0  0  0  0  0  0  0  0  0  0  0  0
    9.7015   -6.0700   24.1446 H   0  0  0  0  0  0  0  0  0  0  0  0
    9.3482    1.4259   24.4346 H   0  0  0  0  0  0  0  0  0  0  0  0
   10.1663    1.8792   22.9588 H   0  0  0  0  0  0  0  0  0  0  0  0
   10.7366   -0.4277   22.4442 H   0  0  0  0  0  0  0  0  0  0  0  0
    8.1354   -1.7990   21.3694 H   0  0  0  0  0  0  0  0  0  0  0  0
  1  2  1  0  0  0  0
  1  3  2  0  0  0  0
  2  4  2  0  0  0  0
  3  5  1  0  0  0  0
  4 10  1  0  0  0  0
  5 10  2  0  0  0  0
  6  8  2  0  0  0  0
  6 11  1  0  0  0  0
  7  9  1  0  0  0  0
  7 11  2  0  0  0  0
  8 12  1  0  0  0  0
  9 12  2  0  0  0  0
 10 25  1  0  0  0  0
 11 26  1  0  0  0  0
 12 30  1  0  0  0  0
 13 15  1  0  0  0  0
 13 27  2  0  0  0  0
 13 29  1  0  0  0  0
 14 28  2  0  0  0  0
 14 29  1  0  0  0  0
 14 31  1  0  0  0  0
 15 16  2  0  0  0  0
 16 17  1  0  0  0  0
 17 18  2  0  0  0  0
 18 29  1  0  0  0  0
 19 26  1  1  0  0  0
 19 31  1  0  0  0  0
 19 32  2  0  0  0  0
 20 21  1  0  0  0  0
 20 22  1  0  0  0  0
 21 23  1  0  0  0  0
 22 24  1  0  0  0  0
 23 30  1  0  0  0  0
 24 30  1  0  0  0  0
 25 26  1  0  0  0  0
 27 28  1  0  0  0  0
  1 33  1  0  0  0  0
  2 34  1  0  0  0  0
  3 35  1  0  0  0  0
  4 36  1  0  0  0  0
  5 37  1  0  0  0  0
  6 38  1  0  0  0  0
  7 39  1  0  0  0  0
  8 40  1  0  0  0  0
  9 41  1  0  0  0  0
 15 42  1  0  0  0  0
 16 43  1  0  0  0  0
 17 44  1  0  0  0  0
 18 45  1  0  0  0  0
 20 46  1  0  0  0  0
 20 47  1  0  0  0  0
 21 48  1  0  0  0  0
 21 49  1  0  0  0  0
 22 50  1  0  0  0  0
 22 51  1  0  0  0  0
 23 52  1  0  0  0  0
 23 53  1  0  0  0  0
 24 54  1  0  0  0  0
 24 55  1  0  0  0  0
 25 56  1  0  0  0  0
 25 57  1  0  0  0  0
 26 58  1  0  0  0  0
 31 59  1  0  0  0  0
M  END
> <clash_score>
0

> <docking_score>
-7.208687782287598

> <overlap_score>
0.9484655857086182

$$$$
BENZO_317_2
  -OEChem-08222022413D

 59 63  0     1  0  0  0  0  0999 V2000
   14.2657    1.3706   23.0373 C   0  0  0  0  0  0  0  0  0  0  0  0
   13.7726    0.6128   24.0995 C   0  0  0  0  0  0  0  0  0  0  0  0
   13.3825    2.0222   22.1763 C   0  0  0  0  0  0  0  0  0  0  0  0
   12.3965    0.5065   24.3007 C   0  0  0  0  0  0  0  0  0  0  0  0
   12.0064    1.9158   22.3775 C   0  0  0  0  0  0  0  0  0  0  0  0
    8.3510   -1.5420   24.6110 C   0  0  0  0  0  0  0  0  0  0  0  0
   10.2760   -2.3270   23.4020 C   0  0  0  0  0  0  0  0  0  0  0  0
    8.3310   -2.7170   25.3430 C   0  0  0  0  0  0  0  0  0  0  0  0
   10.2570   -3.5000   24.1350 C   0  0  0  0  0  0  0  0  0  0  0  0
   11.5133    1.1580   23.4397 C   0  0  0  0  0  0  0  0  0  0  0  0
    9.3300   -1.3350   23.6390 C   0  0  0  0  0  0  0  0  0  0  0  0
    9.2850   -3.7090   25.1090 C   0  0  0  0  0  0  0  0  0  0  0  0
    5.9810    0.8330   18.8060 C   0  0  0  0  0  0  0  0  0  0  0  0
    7.2210   -0.4620   20.0350 C   0  0  0  0  0  0  0  0  0  0  0  0
    4.9400    1.7060   18.5060 C   0  0  0  0  0  0  0  0  0  0  0  0
    4.0980    2.1130   19.5350 C   0  0  0  0  0  0  0  0  0  0  0  0
    4.2970    1.6690   20.8430 C   0  0  0  0  0  0  0  0  0  0  0  0
    5.3360    0.8000   21.1530 C   0  0  0  0  0  0  0  0  0  0  0  0
    8.9510    0.1280   21.6880 C   0  0  0  0  0  0  0  0  0  0  0  0
    7.3211   -6.8875   26.5227 C   0  0  0  0  0  0  0  0  0  0  0  0
    7.3523   -5.5278   27.2244 C   0  0  0  0  0  0  0  0  0  0  0  0
    7.9422   -6.8107   25.1261 C   0  0  0  0  0  0  0  0  0  0  0  0
    8.7641   -4.9418   27.2163 C   0  0  0  0  0  0  0  0  0  0  0  0
    9.3411   -6.1879   25.1670 C   0  0  0  0  0  0  0  0  0  0  0  0
   10.0220    1.0430   23.6570 C   0  0  0  0  0  0  0  0  0  0  0  0
    9.4200   -0.0840   22.9530 C   0  0  2  0  0  0  0  0  0  0  0  0
    6.9440    0.2550   18.0100 N   0  0  0  0  0  0  0  0  0  0  0  0
    7.6830   -0.5170   18.7600 N   0  0  0  0  0  0  0  0  0  0  0  0
    6.1600    0.3870   20.1140 N   0  0  0  0  0  0  0  0  0  0  0  0
    9.2641   -4.8861   25.8398 N   0  0  0  0  0  0  0  0  0  0  0  0
    8.0810   -0.9750   21.0820 N   0  0  0  0  0  0  0  0  0  0  0  0
    9.1870    1.1500   21.0630 O   0  0  0  0  0  0  0  0  0  0  0  0
   15.3373    1.4544   22.8816 H   0  0  0  0  0  0  0  0  0  0  0  0
   14.4602    0.1063   24.7706 H   0  0  0  0  0  0  0  0  0  0  0  0
   13.7661    2.6131   21.3499 H   0  0  0  0  0  0  0  0  0  0  0  0
   12.0213   -0.0863   25.1308 H   0  0  0  0  0  0  0  0  0  0  0  0
   11.3258    2.4268   21.7016 H   0  0  0  0  0  0  0  0  0  0  0  0
    7.5957   -0.7779   24.7973 H   0  0  0  0  0  0  0  0  0  0  0  0
   11.0384   -2.1852   22.6338 H   0  0  0  0  0  0  0  0  0  0  0  0
    7.5634   -2.8637   26.1037 H   0  0  0  0  0  0  0  0  0  0  0  0
   11.0139   -4.2645   23.9419 H   0  0  0  0  0  0  0  0  0  0  0  0
    4.7733    2.0700   17.5071 H   0  0  0  0  0  0  0  0  0  0  0  0
    3.2813    2.7836   19.2995 H   0  0  0  0  0  0  0  0  0  0  0  0
    3.6335    1.9977   21.6542 H   0  0  0  0  0  0  0  0  0  0  0  0
    5.5067    0.4537   22.1474 H   0  0  0  0  0  0  0  0  0  0  0  0
    7.8644   -7.6283   27.1289 H   0  0  0  0  0  0  0  0  0  0  0  0
    6.2830   -7.2423   26.4478 H   0  0  0  0  0  0  0  0  0  0  0  0
    6.6663   -4.8405   26.7221 H   0  0  0  0  0  0  0  0  0  0  0  0
    7.0062   -5.6400   28.2540 H   0  0  0  0  0  0  0  0  0  0  0  0
    8.0018   -7.8160   24.6962 H   0  0  0  0  0  0  0  0  0  0  0  0
    7.2963   -6.2182   24.4678 H   0  0  0  0  0  0  0  0  0  0  0  0
    8.7322   -3.9404   27.6532 H   0  0  0  0  0  0  0  0  0  0  0  0
    9.4260   -5.5610   27.8283 H   0  0  0  0  0  0  0  0  0  0  0  0
   10.0249   -6.8474   25.7028 H   0  0  0  0  0  0  0  0  0  0  0  0
    9.7015   -6.0700   24.1446 H   0  0  0  0  0  0  0  0  0  0  0  0
    9.8155    0.9894   24.7339 H   0  0  0  0  0  0  0  0  0  0  0  0
    9.5584    1.9798   23.3178 H   0  0  0  0  0  0  0  0  0  0  0  0
    8.1278    0.3254   23.5142 H   0  0  0  0  0  0  0  0  0  0  0  0
    8.1354   -1.7990   21.3694 H   0  0  0  0  0  0  0  0  0  0  0  0
  1  2  1  0  0  0  0
  1  3  2  0  0  0  0
  2  4  2  0  0  0  0
  3  5  1  0  0  0  0
  4 10  1  0  0  0  0
  5 10  2  0  0  0  0
  6  8  2  0  0  0  0
  6 11  1  0  0  0  0
  7  9  1  0  0  0  0
  7 11  2  0  0  0  0
  8 12  1  0  0  0  0
  9 12  2  0  0  0  0
 10 25  1  0  0  0  0
 11 26  1  0  0  0  0
 12 30  1  0  0  0  0
 13 15  1  0  0  0  0
 13 27  2  0  0  0  0
 13 29  1  0  0  0  0
 14 28  2  0  0  0  0
 14 29  1  0  0  0  0
 14 31  1  0  0  0  0
 15 16  2  0  0  0  0
 16 17  1  0  0  0  0
 17 18  2  0  0  0  0
 18 29  1  0  0  0  0
 19 26  1  6  0  0  0
 19 31  1  0  0  0  0
 19 32  2  0  0  0  0
 20 21  1  0  0  0  0
 20 22  1  0  0  0  0
 21 23  1  0  0  0  0
 22 24  1  0  0  0  0
 23 30  1  0  0  0  0
 24 30  1  0  0  0  0
 25 26  1  0  0  0  0
 27 28  1  0  0  0  0
  1 33  1  0  0  0  0
  2 34  1  0  0  0  0
  3 35  1  0  0  0  0
  4 36  1  0  0  0  0
  5 37  1  0  0  0  0
  6 38  1  0  0  0  0
  7 39  1  0  0  0  0
  8 40  1  0  0  0  0
  9 41  1  0  0  0  0
 15 42  1  0  0  0  0
 16 43  1  0  0  0  0
 17 44  1  0  0  0  0
 18 45  1  0  0  0  0
 20 46  1  0  0  0  0
 20 47  1  0  0  0  0
 21 48  1  0  0  0  0
 21 49  1  0  0  0  0
 22 50  1  0  0  0  0
 22 51  1  0  0  0  0
 23 52  1  0  0  0  0
 23 53  1  0  0  0  0
 24 54  1  0  0  0  0
 24 55  1  0  0  0  0
 25 56  1  0  0  0  0
 25 57  1  0  0  0  0
 26 58  1  0  0  0  0
 31 59  1  0  0  0  0
M  END
> <clash_score>
0

> <docking_score>
-8.161534309387207

> <overlap_score>
1.0255537033081055

$$$$
BENZO_314_1
  -OEChem-08222022413D

 54 57  0     1  0  0  0  0  0999 V2000
   13.7719    0.5789   24.0657 C   0  0  0  0  0  0  0  0  0  0  0  0
   12.3966    0.4859   24.2792 C   0  0  0  0  0  0  0  0  0  0  0  0
    8.3510   -1.5420   24.6110 C   0  0  0  0  0  0  0  0  0  0  0  0
   10.2760   -2.3270   23.4020 C   0  0  0  0  0  0  0  0  0  0  0  0
    8.3310   -2.7170   25.3430 C   0  0  0  0  0  0  0  0  0  0  0  0
   10.2570   -3.5000   24.1350 C   0  0  0  0  0  0  0  0  0  0  0  0
   14.2627    1.3315   22.9987 C   0  0  0  0  0  0  0  0  0  0  0  0
   12.0029    1.8978   22.3587 C   0  0  0  0  0  0  0  0  0  0  0  0
    9.3300   -1.3350   23.6390 C   0  0  0  0  0  0  0  0  0  0  0  0
   11.5121    1.1453   23.4257 C   0  0  0  0  0  0  0  0  0  0  0  0
    9.2850   -3.7090   25.1090 C   0  0  0  0  0  0  0  0  0  0  0  0
   13.3782    1.9909   22.1452 C   0  0  0  0  0  0  0  0  0  0  0  0
    5.9810    0.8330   18.8060 C   0  0  0  0  0  0  0  0  0  0  0  0
    7.2210   -0.4620   20.0350 C   0  0  0  0  0  0  0  0  0  0  0  0
    4.9400    1.7060   18.5060 C   0  0  0  0  0  0  0  0  0  0  0  0
    4.0980    2.1130   19.5350 C   0  0  0  0  0  0  0  0  0  0  0  0
    4.2970    1.6690   20.8430 C   0  0  0  0  0  0  0  0  0  0  0  0
    5.3360    0.8000   21.1530 C   0  0  0  0  0  0  0  0  0  0  0  0
    8.1533   -5.5442   26.4004 C   0  0  0  0  0  0  0  0  0  0  0  0
    8.9510    0.1280   21.6880 C   0  0  0  0  0  0  0  0  0  0  0  0
    9.7865   -7.4752   26.4986 C   0  0  0  0  0  0  0  0  0  0  0  0
   10.0220    1.0430   23.6570 C   0  0  0  0  0  0  0  0  0  0  0  0
    8.5718   -6.8147   27.1254 C   0  0  0  0  0  0  0  0  0  0  0  0
    9.4200   -0.0840   22.9530 C   0  0  1  0  0  0  0  0  0  0  0  0
    6.9440    0.2550   18.0100 N   0  0  0  0  0  0  0  0  0  0  0  0
    7.6830   -0.5170   18.7600 N   0  0  0  0  0  0  0  0  0  0  0  0
    6.1600    0.3870   20.1140 N   0  0  0  0  0  0  0  0  0  0  0  0
    9.2630   -4.8903   25.8409 N   0  0  0  0  0  0  0  0  0  0  0  0
    8.0810   -0.9750   21.0820 N   0  0  0  0  0  0  0  0  0  0  0  0
    6.9823   -5.1841   26.3423 O   0  0  0  0  0  0  0  0  0  0  0  0
    9.1870    1.1500   21.0630 O   0  0  0  0  0  0  0  0  0  0  0  0
   13.9842    2.9183   20.8282 Cl  0  0  0  0  0  0  0  0  0  0  0  0
   14.4603    0.0652   24.7304 H   0  0  0  0  0  0  0  0  0  0  0  0
   12.0231   -0.1028   25.1130 H   0  0  0  0  0  0  0  0  0  0  0  0
    7.5948   -0.7783   24.7966 H   0  0  0  0  0  0  0  0  0  0  0  0
   11.0389   -2.1844   22.6342 H   0  0  0  0  0  0  0  0  0  0  0  0
    7.5642   -2.8624   26.1050 H   0  0  0  0  0  0  0  0  0  0  0  0
   11.0137   -4.2649   23.9418 H   0  0  0  0  0  0  0  0  0  0  0  0
   15.3370    1.3949   22.8442 H   0  0  0  0  0  0  0  0  0  0  0  0
   11.3092    2.4105   21.6963 H   0  0  0  0  0  0  0  0  0  0  0  0
    4.7733    2.0700   17.5071 H   0  0  0  0  0  0  0  0  0  0  0  0
    3.2813    2.7836   19.2995 H   0  0  0  0  0  0  0  0  0  0  0  0
    3.6335    1.9977   21.6542 H   0  0  0  0  0  0  0  0  0  0  0  0
    5.5067    0.4537   22.1474 H   0  0  0  0  0  0  0  0  0  0  0  0
    9.5955   -7.7381   25.4529 H   0  0  0  0  0  0  0  0  0  0  0  0
   10.0442   -8.3908   27.0398 H   0  0  0  0  0  0  0  0  0  0  0  0
   10.6539   -6.8074   26.5236 H   0  0  0  0  0  0  0  0  0  0  0  0
    9.8253    0.9889   24.7357 H   0  0  0  0  0  0  0  0  0  0  0  0
    9.5635    1.9845   23.3241 H   0  0  0  0  0  0  0  0  0  0  0  0
    8.7908   -6.5628   28.1695 H   0  0  0  0  0  0  0  0  0  0  0  0
    7.7286   -7.5148   27.1147 H   0  0  0  0  0  0  0  0  0  0  0  0
    8.1288    0.3205   23.5156 H   0  0  0  0  0  0  0  0  0  0  0  0
   10.1694   -5.3468   25.9962 H   0  0  0  0  0  0  0  0  0  0  0  0
    8.1152   -1.8120   21.3518 H   0  0  0  0  0  0  0  0  0  0  0  0
  1  2  2  0  0  0  0
  1  7  1  0  0  0  0
  2 10  1  0  0  0  0
  3  5  2  0  0  0  0
  3  9  1  0  0  0  0
  4  6  1  0  0  0  0
  4  9  2  0  0  0  0
  5 11  1  0  0  0  0
  6 11  2  0  0  0  0
  7 12  2  0  0  0  0
  8 10  2  0  0  0  0
  8 12  1  0  0  0  0
  9 24  1  0  0  0  0
 10 22  1  0  0  0  0
 11 28  1  0  0  0  0
 12 32  1  0  0  0  0
 13 15  1  0  0  0  0
 13 25  2  0  0  0  0
 13 27  1  0  0  0  0
 14 26  2  0  0  0  0
 14 27  1  0  0  0  0
 14 29  1  0  0  0  0
 15 16  2  0  0  0  0
 16 17  1  0  0  0  0
 17 18  2  0  0  0  0
 18 27  1  0  0  0  0
 19 23  1  0  0  0  0
 19 28  1  0  0  0  0
 19 30  2  0  0  0  0
 20 24  1  0  0  0  0
 20 29  1  0  0  0  0
 20 31  2  0  0  0  0
 21 23  1  0  0  0  0
 22 24  1  1  0  0  0
 25 26  1  0  0  0  0
  1 33  1  0  0  0  0
  2 34  1  0  0  0  0
  3 35  1  0  0  0  0
  4 36  1  0  0  0  0
  5 37  1  0  0  0  0
  6 38  1  0  0  0  0
  7 39  1  0  0  0  0
  8 40  1  0  0  0  0
 15 41  1  0  0  0  0
 16 42  1  0  0  0  0
 17 43  1  0  0  0  0
 18 44  1  0  0  0  0
 21 45  1  0  0  0  0
 21 46  1  0  0  0  0
 21 47  1  0  0  0  0
 22 48  1  0  0  0  0
 22 49  1  0  0  0  0
 23 50  1  0  0  0  0
 23 51  1  0  0  0  0
 24 52  1  0  0  0  0
 28 53  1  0  0  0  0
 29 54  1  0  0  0  0
M  END
> <clash_score>
0.7457684252583453

> <docking_score>
-6.679393768310547

> <overlap_score>
1.022250771522522

$$$$
BENZO_314_2
  -OEChem-08222022413D

 54 57  0     1  0  0  0  0  0999 V2000
   12.6560   -0.1194   26.1379 C   0  0  0  0  0  0  0  0  0  0  0  0
   11.4219    0.1994   25.5714 C   0  0  0  0  0  0  0  0  0  0  0  0
    8.3510   -1.5420   24.6110 C   0  0  0  0  0  0  0  0  0  0  0  0
   10.2760   -2.3270   23.4020 C   0  0  0  0  0  0  0  0  0  0  0  0
    8.3310   -2.7170   25.3430 C   0  0  0  0  0  0  0  0  0  0  0  0
   10.2570   -3.5000   24.1350 C   0  0  0  0  0  0  0  0  0  0  0  0
   13.8281    0.0614   25.4035 C   0  0  0  0  0  0  0  0  0  0  0  0
   12.5318    0.8798   23.5362 C   0  0  0  0  0  0  0  0  0  0  0  0
    9.3300   -1.3350   23.6390 C   0  0  0  0  0  0  0  0  0  0  0  0
   11.3598    0.6989   24.2706 C   0  0  0  0  0  0  0  0  0  0  0  0
    9.2850   -3.7090   25.1090 C   0  0  0  0  0  0  0  0  0  0  0  0
   13.7660    0.5610   24.1027 C   0  0  0  0  0  0  0  0  0  0  0  0
    5.9810    0.8330   18.8060 C   0  0  0  0  0  0  0  0  0  0  0  0
    7.2210   -0.4620   20.0350 C   0  0  0  0  0  0  0  0  0  0  0  0
    4.9400    1.7060   18.5060 C   0  0  0  0  0  0  0  0  0  0  0  0
    4.0980    2.1130   19.5350 C   0  0  0  0  0  0  0  0  0  0  0  0
    4.2970    1.6690   20.8430 C   0  0  0  0  0  0  0  0  0  0  0  0
    5.3360    0.8000   21.1530 C   0  0  0  0  0  0  0  0  0  0  0  0
    8.3657   -5.2677   26.8531 C   0  0  0  0  0  0  0  0  0  0  0  0
    8.9510    0.1280   21.6880 C   0  0  0  0  0  0  0  0  0  0  0  0
    7.9616   -7.7593   26.6677 C   0  0  0  0  0  0  0  0  0  0  0  0
   10.0220    1.0430   23.6570 C   0  0  0  0  0  0  0  0  0  0  0  0
    8.6986   -6.6495   27.3958 C   0  0  0  0  0  0  0  0  0  0  0  0
    9.4200   -0.0840   22.9530 C   0  0  2  0  0  0  0  0  0  0  0  0
    6.9440    0.2550   18.0100 N   0  0  0  0  0  0  0  0  0  0  0  0
    7.6830   -0.5170   18.7600 N   0  0  0  0  0  0  0  0  0  0  0  0
    6.1600    0.3870   20.1140 N   0  0  0  0  0  0  0  0  0  0  0  0
    9.2630   -4.8903   25.8409 N   0  0  0  0  0  0  0  0  0  0  0  0
    8.0810   -0.9750   21.0820 N   0  0  0  0  0  0  0  0  0  0  0  0
    7.4224   -4.6107   27.2809 O   0  0  0  0  0  0  0  0  0  0  0  0
    9.1870    1.1500   21.0630 O   0  0  0  0  0  0  0  0  0  0  0  0
   15.2122    0.7829   23.1967 Cl  0  0  0  0  0  0  0  0  0  0  0  0
   12.7039   -0.5086   27.1508 H   0  0  0  0  0  0  0  0  0  0  0  0
   10.5137    0.0551   26.1509 H   0  0  0  0  0  0  0  0  0  0  0  0
    7.5948   -0.7783   24.7966 H   0  0  0  0  0  0  0  0  0  0  0  0
   11.0389   -2.1844   22.6342 H   0  0  0  0  0  0  0  0  0  0  0  0
    7.5642   -2.8624   26.1050 H   0  0  0  0  0  0  0  0  0  0  0  0
   11.0137   -4.2649   23.9418 H   0  0  0  0  0  0  0  0  0  0  0  0
   14.7829   -0.1916   25.8577 H   0  0  0  0  0  0  0  0  0  0  0  0
   12.4781    1.2701   22.5225 H   0  0  0  0  0  0  0  0  0  0  0  0
    4.7733    2.0700   17.5071 H   0  0  0  0  0  0  0  0  0  0  0  0
    3.2813    2.7836   19.2995 H   0  0  0  0  0  0  0  0  0  0  0  0
    3.6335    1.9977   21.6542 H   0  0  0  0  0  0  0  0  0  0  0  0
    5.5067    0.4537   22.1474 H   0  0  0  0  0  0  0  0  0  0  0  0
    6.8773   -7.6263   26.7426 H   0  0  0  0  0  0  0  0  0  0  0  0
    8.2173   -8.7325   27.0977 H   0  0  0  0  0  0  0  0  0  0  0  0
    8.2252   -7.7749   25.6050 H   0  0  0  0  0  0  0  0  0  0  0  0
    9.3529    1.4272   24.4380 H   0  0  0  0  0  0  0  0  0  0  0  0
   10.1743    1.8827   22.9648 H   0  0  0  0  0  0  0  0  0  0  0  0
    9.7794   -6.8076   27.3045 H   0  0  0  0  0  0  0  0  0  0  0  0
    8.4402   -6.6763   28.4606 H   0  0  0  0  0  0  0  0  0  0  0  0
   10.7346   -0.4307   22.4468 H   0  0  0  0  0  0  0  0  0  0  0  0
    9.9927   -5.5774   25.6187 H   0  0  0  0  0  0  0  0  0  0  0  0
    8.1152   -1.8120   21.3518 H   0  0  0  0  0  0  0  0  0  0  0  0
  1  2  2  0  0  0  0
  1  7  1  0  0  0  0
  2 10  1  0  0  0  0
  3  5  2  0  0  0  0
  3  9  1  0  0  0  0
  4  6  1  0  0  0  0
  4  9  2  0  0  0  0
  5 11  1  0  0  0  0
  6 11  2  0  0  0  0
  7 12  2  0  0  0  0
  8 10  2  0  0  0  0
  8 12  1  0  0  0  0
  9 24  1  0  0  0  0
 10 22  1  0  0  0  0
 11 28  1  0  0  0  0
 12 32  1  0  0  0  0
 13 15  1  0  0  0  0
 13 25  2  0  0  0  0
 13 27  1  0  0  0  0
 14 26  2  0  0  0  0
 14 27  1  0  0  0  0
 14 29  1  0  0  0  0
 15 16  2  0  0  0  0
 16 17  1  0  0  0  0
 17 18  2  0  0  0  0
 18 27  1  0  0  0  0
 19 23  1  0  0  0  0
 19 28  1  0  0  0  0
 19 30  2  0  0  0  0
 20 24  1  0  0  0  0
 20 29  1  0  0  0  0
 20 31  2  0  0  0  0
 21 23  1  0  0  0  0
 22 24  1  6  0  0  0
 25 26  1  0  0  0  0
  1 33  1  0  0  0  0
  2 34  1  0  0  0  0
  3 35  1  0  0  0  0
  4 36  1  0  0  0  0
  5 37  1  0  0  0  0
  6 38  1  0  0  0  0
  7 39  1  0  0  0  0
  8 40  1  0  0  0  0
 15 41  1  0  0  0  0
 16 42  1  0  0  0  0
 17 43  1  0  0  0  0
 18 44  1  0  0  0  0
 21 45  1  0  0  0  0
 21 46  1  0  0  0  0
 21 47  1  0  0  0  0
 22 48  1  0  0  0  0
 22 49  1  0  0  0  0
 23 50  1  0  0  0  0
 23 51  1  0  0  0  0
 24 52  1  0  0  0  0
 28 53  1  0  0  0  0
 29 54  1  0  0  0  0
M  END
> <clash_score>
1.3873192800546477

> <docking_score>
-5.387613296508789

> <overlap_score>
0.9517035484313965

$$$$
BENZO_315_1
  -OEChem-08222022413D

 54 57  0     1  0  0  0  0  0999 V2000
    8.3510   -1.5420   24.6110 C   0  0  0  0  0  0  0  0  0  0  0  0
   10.2760   -2.3270   23.4020 C   0  0  0  0  0  0  0  0  0  0  0  0
    8.3310   -2.7170   25.3430 C   0  0  0  0  0  0  0  0  0  0  0  0
   10.2570   -3.5000   24.1350 C   0  0  0  0  0  0  0  0  0  0  0  0
   12.3075    2.3068   23.4193 C   0  0  0  0  0  0  0  0  0  0  0  0
   12.3951    0.1231   23.1770 C   0  0  0  0  0  0  0  0  0  0  0  0
    9.3300   -1.3350   23.6390 C   0  0  0  0  0  0  0  0  0  0  0  0
   11.5121    1.1453   23.4257 C   0  0  0  0  0  0  0  0  0  0  0  0
    9.2850   -3.7090   25.1090 C   0  0  0  0  0  0  0  0  0  0  0  0
    5.9810    0.8330   18.8060 C   0  0  0  0  0  0  0  0  0  0  0  0
    7.2210   -0.4620   20.0350 C   0  0  0  0  0  0  0  0  0  0  0  0
    4.9400    1.7060   18.5060 C   0  0  0  0  0  0  0  0  0  0  0  0
    4.0980    2.1130   19.5350 C   0  0  0  0  0  0  0  0  0  0  0  0
    4.2970    1.6690   20.8430 C   0  0  0  0  0  0  0  0  0  0  0  0
    5.3360    0.8000   21.1530 C   0  0  0  0  0  0  0  0  0  0  0  0
    8.3657   -5.2677   26.8531 C   0  0  0  0  0  0  0  0  0  0  0  0
    8.9510    0.1280   21.6880 C   0  0  0  0  0  0  0  0  0  0  0  0
    7.9616   -7.7593   26.6677 C   0  0  0  0  0  0  0  0  0  0  0  0
   14.8664    0.0395   22.7716 C   0  0  0  0  0  0  0  0  0  0  0  0
   10.0220    1.0430   23.6570 C   0  0  0  0  0  0  0  0  0  0  0  0
    8.6986   -6.6495   27.3958 C   0  0  0  0  0  0  0  0  0  0  0  0
    9.4200   -0.0840   22.9530 C   0  0  1  0  0  0  0  0  0  0  0  0
   13.5967    2.0476   23.1851 N   0  0  0  0  0  0  0  0  0  0  0  0
    6.9440    0.2550   18.0100 N   0  0  0  0  0  0  0  0  0  0  0  0
    7.6830   -0.5170   18.7600 N   0  0  0  0  0  0  0  0  0  0  0  0
   13.6181    0.7115   23.0422 N   0  0  0  0  0  0  0  0  0  0  0  0
    6.1600    0.3870   20.1140 N   0  0  0  0  0  0  0  0  0  0  0  0
    9.2630   -4.8903   25.8409 N   0  0  0  0  0  0  0  0  0  0  0  0
    8.0810   -0.9750   21.0820 N   0  0  0  0  0  0  0  0  0  0  0  0
    7.4224   -4.6107   27.2809 O   0  0  0  0  0  0  0  0  0  0  0  0
    9.1870    1.1500   21.0630 O   0  0  0  0  0  0  0  0  0  0  0  0
    7.5948   -0.7783   24.7966 H   0  0  0  0  0  0  0  0  0  0  0  0
   11.0389   -2.1844   22.6342 H   0  0  0  0  0  0  0  0  0  0  0  0
    7.5642   -2.8624   26.1050 H   0  0  0  0  0  0  0  0  0  0  0  0
   11.0137   -4.2649   23.9418 H   0  0  0  0  0  0  0  0  0  0  0  0
   12.0040    3.3322   23.5761 H   0  0  0  0  0  0  0  0  0  0  0  0
   12.2609   -0.9465   23.0878 H   0  0  0  0  0  0  0  0  0  0  0  0
    4.7733    2.0700   17.5071 H   0  0  0  0  0  0  0  0  0  0  0  0
    3.2813    2.7836   19.2995 H   0  0  0  0  0  0  0  0  0  0  0  0
    3.6335    1.9977   21.6542 H   0  0  0  0  0  0  0  0  0  0  0  0
    5.5067    0.4537   22.1474 H   0  0  0  0  0  0  0  0  0  0  0  0
    6.8773   -7.6263   26.7426 H   0  0  0  0  0  0  0  0  0  0  0  0
    8.2173   -8.7325   27.0977 H   0  0  0  0  0  0  0  0  0  0  0  0
    8.2252   -7.7749   25.6050 H   0  0  0  0  0  0  0  0  0  0  0  0
   14.9942   -0.0107   21.6871 H   0  0  0  0  0  0  0  0  0  0  0  0
   15.6877    0.5992   23.2278 H   0  0  0  0  0  0  0  0  0  0  0  0
   14.8362   -0.9658   23.2010 H   0  0  0  0  0  0  0  0  0  0  0  0
    9.8253    0.9889   24.7357 H   0  0  0  0  0  0  0  0  0  0  0  0
    9.5635    1.9845   23.3241 H   0  0  0  0  0  0  0  0  0  0  0  0
    9.7794   -6.8076   27.3045 H   0  0  0  0  0  0  0  0  0  0  0  0
    8.4402   -6.6763   28.4606 H   0  0  0  0  0  0  0  0  0  0  0  0
    8.1288    0.3205   23.5156 H   0  0  0  0  0  0  0  0  0  0  0  0
    9.9927   -5.5774   25.6187 H   0  0  0  0  0  0  0  0  0  0  0  0
    8.1152   -1.8120   21.3518 H   0  0  0  0  0  0  0  0  0  0  0  0
  1  3  2  0  0  0  0
  1  7  1  0  0  0  0
  2  4  1  0  0  0  0
  2  7  2  0  0  0  0
  3  9  1  0  0  0  0
  4  9  2  0  0  0  0
  5  8  1  0  0  0  0
  5 23  2  0  0  0  0
  6  8  2  0  0  0  0
  6 26  1  0  0  0  0
  7 22  1  0  0  0  0
  8 20  1  0  0  0  0
  9 28  1  0  0  0  0
 10 12  1  0  0  0  0
 10 24  2  0  0  0  0
 10 27  1  0  0  0  0
 11 25  2  0  0  0  0
 11 27  1  0  0  0  0
 11 29  1  0  0  0  0
 12 13  2  0  0  0  0
 13 14  1  0  0  0  0
 14 15  2  0  0  0  0
 15 27  1  0  0  0  0
 16 21  1  0  0  0  0
 16 28  1  0  0  0  0
 16 30  2  0  0  0  0
 17 22  1  0  0  0  0
 17 29  1  0  0  0  0
 17 31  2  0  0  0  0
 18 21  1  0  0  0  0
 19 26  1  0  0  0  0
 20 22  1  1  0  0  0
 23 26  1  0  0  0  0
 24 25  1  0  0  0  0
  1 32  1  0  0  0  0
  2 33  1  0  0  0  0
  3 34  1  0  0  0  0
  4 35  1  0  0  0  0
  5 36  1  0  0  0  0
  6 37  1  0  0  0  0
 12 38  1  0  0  0  0
 13 39  1  0  0  0  0
 14 40  1  0  0  0  0
 15 41  1  0  0  0  0
 18 42  1  0  0  0  0
 18 43  1  0  0  0  0
 18 44  1  0  0  0  0
 19 45  1  0  0  0  0
 19 46  1  0  0  0  0
 19 47  1  0  0  0  0
 20 48  1  0  0  0  0
 20 49  1  0  0  0  0
 21 50  1  0  0  0  0
 21 51  1  0  0  0  0
 22 52  1  0  0  0  0
 28 53  1  0  0  0  0
 29 54  1  0  0  0  0
M  END
> <clash_score>
0.7802342650595874

> <docking_score>
-8.021804809570312

> <overlap_score>
1.0221315622329712

$$$$
BENZO_315_2
  -OEChem-08222022413D

 54 57  0     1  0  0  0  0  0999 V2000
    8.3510   -1.5420   24.6110 C   0  0  0  0  0  0  0  0  0  0  0  0
   10.2760   -2.3270   23.4020 C   0  0  0  0  0  0  0  0  0  0  0  0
    8.3310   -2.7170   25.3430 C   0  0  0  0  0  0  0  0  0  0  0  0
   10.2570   -3.5000   24.1350 C   0  0  0  0  0  0  0  0  0  0  0  0
   12.6346    0.8176   23.6854 C   0  0  0  0  0  0  0  0  0  0  0  0
   11.6038    0.2020   25.5275 C   0  0  0  0  0  0  0  0  0  0  0  0
    9.3300   -1.3350   23.6390 C   0  0  0  0  0  0  0  0  0  0  0  0
   11.3598    0.6989   24.2706 C   0  0  0  0  0  0  0  0  0  0  0  0
    9.2850   -3.7090   25.1090 C   0  0  0  0  0  0  0  0  0  0  0  0
    5.9810    0.8330   18.8060 C   0  0  0  0  0  0  0  0  0  0  0  0
    7.2210   -0.4620   20.0350 C   0  0  0  0  0  0  0  0  0  0  0  0
    4.9400    1.7060   18.5060 C   0  0  0  0  0  0  0  0  0  0  0  0
    4.0980    2.1130   19.5350 C   0  0  0  0  0  0  0  0  0  0  0  0
    4.2970    1.6690   20.8430 C   0  0  0  0  0  0  0  0  0  0  0  0
    5.3360    0.8000   21.1530 C   0  0  0  0  0  0  0  0  0  0  0  0
    8.3657   -5.2677   26.8531 C   0  0  0  0  0  0  0  0  0  0  0  0
    8.9510    0.1280   21.6880 C   0  0  0  0  0  0  0  0  0  0  0  0
    7.9616   -7.7593   26.6677 C   0  0  0  0  0  0  0  0  0  0  0  0
   13.6941   -0.4329   26.7549 C   0  0  0  0  0  0  0  0  0  0  0  0
   10.0220    1.0430   23.6570 C   0  0  0  0  0  0  0  0  0  0  0  0
    8.6986   -6.6495   27.3958 C   0  0  0  0  0  0  0  0  0  0  0  0
    9.4200   -0.0840   22.9530 C   0  0  2  0  0  0  0  0  0  0  0  0
   13.6158    0.4277   24.5035 N   0  0  0  0  0  0  0  0  0  0  0  0
    6.9440    0.2550   18.0100 N   0  0  0  0  0  0  0  0  0  0  0  0
    7.6830   -0.5170   18.7600 N   0  0  0  0  0  0  0  0  0  0  0  0
   12.9573    0.0592   25.6156 N   0  0  0  0  0  0  0  0  0  0  0  0
    6.1600    0.3870   20.1140 N   0  0  0  0  0  0  0  0  0  0  0  0
    9.2630   -4.8903   25.8409 N   0  0  0  0  0  0  0  0  0  0  0  0
    8.0810   -0.9750   21.0820 N   0  0  0  0  0  0  0  0  0  0  0  0
    7.4224   -4.6107   27.2809 O   0  0  0  0  0  0  0  0  0  0  0  0
    9.1870    1.1500   21.0630 O   0  0  0  0  0  0  0  0  0  0  0  0
    7.5948   -0.7783   24.7966 H   0  0  0  0  0  0  0  0  0  0  0  0
   11.0389   -2.1844   22.6342 H   0  0  0  0  0  0  0  0  0  0  0  0
    7.5642   -2.8624   26.1050 H   0  0  0  0  0  0  0  0  0  0  0  0
   11.0137   -4.2649   23.9418 H   0  0  0  0  0  0  0  0  0  0  0  0
   12.8922    1.1725   22.6975 H   0  0  0  0  0  0  0  0  0  0  0  0
   10.9461   -0.0545   26.3470 H   0  0  0  0  0  0  0  0  0  0  0  0
    4.7733    2.0700   17.5071 H   0  0  0  0  0  0  0  0  0  0  0  0
    3.2813    2.7836   19.2995 H   0  0  0  0  0  0  0  0  0  0  0  0
    3.6335    1.9977   21.6542 H   0  0  0  0  0  0  0  0  0  0  0  0
    5.5067    0.4537   22.1474 H   0  0  0  0  0  0  0  0  0  0  0  0
    6.8773   -7.6263   26.7426 H   0  0  0  0  0  0  0  0  0  0  0  0
    8.2173   -8.7325   27.0977 H   0  0  0  0  0  0  0  0  0  0  0  0
    8.2252   -7.7749   25.6050 H   0  0  0  0  0  0  0  0  0  0  0  0
   13.7879   -1.5173   26.6532 H   0  0  0  0  0  0  0  0  0  0  0  0
   14.6819    0.0356   26.7797 H   0  0  0  0  0  0  0  0  0  0  0  0
   13.1542   -0.1790   27.6714 H   0  0  0  0  0  0  0  0  0  0  0  0
    9.3529    1.4272   24.4380 H   0  0  0  0  0  0  0  0  0  0  0  0
   10.1743    1.8827   22.9648 H   0  0  0  0  0  0  0  0  0  0  0  0
    9.7794   -6.8076   27.3045 H   0  0  0  0  0  0  0  0  0  0  0  0
    8.4402   -6.6763   28.4606 H   0  0  0  0  0  0  0  0  0  0  0  0
   10.7346   -0.4307   22.4468 H   0  0  0  0  0  0  0  0  0  0  0  0
    9.9927   -5.5774   25.6187 H   0  0  0  0  0  0  0  0  0  0  0  0
    8.1152   -1.8120   21.3518 H   0  0  0  0  0  0  0  0  0  0  0  0
  1  3  2  0  0  0  0
  1  7  1  0  0  0  0
  2  4  1  0  0  0  0
  2  7  2  0  0  0  0
  3  9  1  0  0  0  0
  4  9  2  0  0  0  0
  5  8  1  0  0  0  0
  5 23  2  0  0  0  0
  6  8  2  0  0  0  0
  6 26  1  0  0  0  0
  7 22  1  0  0  0  0
  8 20  1  0  0  0  0
  9 28  1  0  0  0  0
 10 12  1  0  0  0  0
 10 24  2  0  0  0  0
 10 27  1  0  0  0  0
 11 25  2  0  0  0  0
 11 27  1  0  0  0  0
 11 29  1  0  0  0  0
 12 13  2  0  0  0  0
 13 14  1  0  0  0  0
 14 15  2  0  0  0  0
 15 27  1  0  0  0  0
 16 21  1  0  0  0  0
 16 28  1  0  0  0  0
 16 30  2  0  0  0  0
 17 22  1  0  0  0  0
 17 29  1  0  0  0  0
 17 31  2  0  0  0  0
 18 21  1  0  0  0  0
 19 26  1  0  0  0  0
 20 22  1  6  0  0  0
 23 26  1  0  0  0  0
 24 25  1  0  0  0  0
  1 32  1  0  0  0  0
  2 33  1  0  0  0  0
  3 34  1  0  0  0  0
  4 35  1  0  0  0  0
  5 36  1  0  0  0  0
  6 37  1  0  0  0  0
 12 38  1  0  0  0  0
 13 39  1  0  0  0  0
 14 40  1  0  0  0  0
 15 41  1  0  0  0  0
 18 42  1  0  0  0  0
 18 43  1  0  0  0  0
 18 44  1  0  0  0  0
 19 45  1  0  0  0  0
 19 46  1  0  0  0  0
 19 47  1  0  0  0  0
 20 48  1  0  0  0  0
 20 49  1  0  0  0  0
 21 50  1  0  0  0  0
 21 51  1  0  0  0  0
 22 52  1  0  0  0  0
 28 53  1  0  0  0  0
 29 54  1  0  0  0  0
M  END
> <clash_score>
1.5253478596408954

> <docking_score>
-6.1551055908203125

> <overlap_score>
0.9339320063591003

$$$$
BENZO_316_1
  -OEChem-08222022413D

 56 60  0     1  0  0  0  0  0999 V2000
    8.3510   -1.5420   24.6110 C   0  0  0  0  0  0  0  0  0  0  0  0
   10.2760   -2.3270   23.4020 C   0  0  0  0  0  0  0  0  0  0  0  0
    8.3310   -2.7170   25.3430 C   0  0  0  0  0  0  0  0  0  0  0  0
   10.2570   -3.5000   24.1350 C   0  0  0  0  0  0  0  0  0  0  0  0
   11.0518    0.9847   26.0345 C   0  0  0  0  0  0  0  0  0  0  0  0
   12.1353    0.4811   26.7201 C   0  0  0  0  0  0  0  0  0  0  0  0
   12.1840   -0.1301   24.3381 C   0  0  0  0  0  0  0  0  0  0  0  0
    9.3300   -1.3350   23.6390 C   0  0  0  0  0  0  0  0  0  0  0  0
   11.0798    0.6306   24.6546 C   0  0  0  0  0  0  0  0  0  0  0  0
    9.2850   -3.7090   25.1090 C   0  0  0  0  0  0  0  0  0  0  0  0
    5.9810    0.8330   18.8060 C   0  0  0  0  0  0  0  0  0  0  0  0
    7.2210   -0.4620   20.0350 C   0  0  0  0  0  0  0  0  0  0  0  0
    4.9400    1.7060   18.5060 C   0  0  0  0  0  0  0  0  0  0  0  0
    4.0980    2.1130   19.5350 C   0  0  0  0  0  0  0  0  0  0  0  0
    4.2970    1.6690   20.8430 C   0  0  0  0  0  0  0  0  0  0  0  0
    5.3360    0.8000   21.1530 C   0  0  0  0  0  0  0  0  0  0  0  0
    8.9510    0.1280   21.6880 C   0  0  0  0  0  0  0  0  0  0  0  0
    7.3211   -6.8875   26.5227 C   0  0  0  0  0  0  0  0  0  0  0  0
    7.3523   -5.5278   27.2244 C   0  0  0  0  0  0  0  0  0  0  0  0
    7.9422   -6.8107   25.1261 C   0  0  0  0  0  0  0  0  0  0  0  0
    8.7641   -4.9418   27.2163 C   0  0  0  0  0  0  0  0  0  0  0  0
    9.3411   -6.1879   25.1670 C   0  0  0  0  0  0  0  0  0  0  0  0
   10.0220    1.0430   23.6570 C   0  0  0  0  0  0  0  0  0  0  0  0
    9.4200   -0.0840   22.9530 C   0  0  1  0  0  0  0  0  0  0  0  0
    6.9440    0.2550   18.0100 N   0  0  0  0  0  0  0  0  0  0  0  0
    7.6830   -0.5170   18.7600 N   0  0  0  0  0  0  0  0  0  0  0  0
    6.1600    0.3870   20.1140 N   0  0  0  0  0  0  0  0  0  0  0  0
    9.2641   -4.8861   25.8398 N   0  0  0  0  0  0  0  0  0  0  0  0
    8.0810   -0.9750   21.0820 N   0  0  0  0  0  0  0  0  0  0  0  0
    9.1870    1.1500   21.0630 O   0  0  0  0  0  0  0  0  0  0  0  0
   13.1804   -0.4145   25.7013 S   0  0  0  0  0  0  0  0  0  0  0  0
    7.5957   -0.7779   24.7973 H   0  0  0  0  0  0  0  0  0  0  0  0
   11.0384   -2.1852   22.6338 H   0  0  0  0  0  0  0  0  0  0  0  0
    7.5634   -2.8637   26.1037 H   0  0  0  0  0  0  0  0  0  0  0  0
   11.0139   -4.2645   23.9419 H   0  0  0  0  0  0  0  0  0  0  0  0
   10.2782    1.5788   26.5045 H   0  0  0  0  0  0  0  0  0  0  0  0
   12.3635    0.5968   27.7702 H   0  0  0  0  0  0  0  0  0  0  0  0
   12.4575   -0.5332   23.3728 H   0  0  0  0  0  0  0  0  0  0  0  0
    4.7733    2.0700   17.5071 H   0  0  0  0  0  0  0  0  0  0  0  0
    3.2813    2.7836   19.2995 H   0  0  0  0  0  0  0  0  0  0  0  0
    3.6335    1.9977   21.6542 H   0  0  0  0  0  0  0  0  0  0  0  0
    5.5067    0.4537   22.1474 H   0  0  0  0  0  0  0  0  0  0  0  0
    7.8644   -7.6283   27.1289 H   0  0  0  0  0  0  0  0  0  0  0  0
    6.2830   -7.2423   26.4478 H   0  0  0  0  0  0  0  0  0  0  0  0
    6.6663   -4.8405   26.7221 H   0  0  0  0  0  0  0  0  0  0  0  0
    7.0062   -5.6400   28.2540 H   0  0  0  0  0  0  0  0  0  0  0  0
    8.0018   -7.8160   24.6962 H   0  0  0  0  0  0  0  0  0  0  0  0
    7.2963   -6.2182   24.4678 H   0  0  0  0  0  0  0  0  0  0  0  0
    8.7322   -3.9404   27.6532 H   0  0  0  0  0  0  0  0  0  0  0  0
    9.4260   -5.5610   27.8283 H   0  0  0  0  0  0  0  0  0  0  0  0
   10.0249   -6.8474   25.7028 H   0  0  0  0  0  0  0  0  0  0  0  0
    9.7015   -6.0700   24.1446 H   0  0  0  0  0  0  0  0  0  0  0  0
    9.2564    1.6421   24.1671 H   0  0  0  0  0  0  0  0  0  0  0  0
   10.4892    1.7236   22.9318 H   0  0  0  0  0  0  0  0  0  0  0  0
   10.7366   -0.4277   22.4442 H   0  0  0  0  0  0  0  0  0  0  0  0
    8.1354   -1.7990   21.3694 H   0  0  0  0  0  0  0  0  0  0  0  0
  1  3  2  0  0  0  0
  1  8  1  0  0  0  0
  2  4  1  0  0  0  0
  2  8  2  0  0  0  0
  3 10  1  0  0  0  0
  4 10  2  0  0  0  0
  5  6  2  0  0  0  0
  5  9  1  0  0  0  0
  6 31  1  0  0  0  0
  7  9  2  0  0  0  0
  7 31  1  0  0  0  0
  8 24  1  0  0  0  0
  9 23  1  0  0  0  0
 10 28  1  0  0  0  0
 11 13  1  0  0  0  0
 11 25  2  0  0  0  0
 11 27  1  0  0  0  0
 12 26  2  0  0  0  0
 12 27  1  0  0  0  0
 12 29  1  0  0  0  0
 13 14  2  0  0  0  0
 14 15  1  0  0  0  0
 15 16  2  0  0  0  0
 16 27  1  0  0  0  0
 17 24  1  1  0  0  0
 17 29  1  0  0  0  0
 17 30  2  0  0  0  0
 18 19  1  0  0  0  0
 18 20  1  0  0  0  0
 19 21  1  0  0  0  0
 20 22  1  0  0  0  0
 21 28  1  0  0  0  0
 22 28  1  0  0  0  0
 23 24  1  0  0  0  0
 25 26  1  0  0  0  0
  1 32  1  0  0  0  0
  2 33  1  0  0  0  0
  3 34  1  0  0  0  0
  4 35  1  0  0  0  0
  5 36  1  0  0  0  0
  6 37  1  0  0  0  0
  7 38  1  0  0  0  0
 13 39  1  0  0  0  0
 14 40  1  0  0  0  0
 15 41  1  0  0  0  0
 16 42  1  0  0  0  0
 18 43  1  0  0  0  0
 18 44  1  0  0  0  0
 19 45  1  0  0  0  0
 19 46  1  0  0  0  0
 20 47  1  0  0  0  0
 20 48  1  0  0  0  0
 21 49  1  0  0  0  0
 21 50  1  0  0  0  0
 22 51  1  0  0  0  0
 22 52  1  0  0  0  0
 23 53  1  0  0  0  0
 23 54  1  0  0  0  0
 24 55  1  0  0  0  0
 29 56  1  0  0  0  0
M  END
> <clash_score>
0

> <docking_score>
-6.187015533447266

> <overlap_score>
0.8986520171165466

$$$$
BENZO_316_2
  -OEChem-08222022413D

 56 60  0     1  0  0  0  0  0999 V2000
    8.3510   -1.5420   24.6110 C   0  0  0  0  0  0  0  0  0  0  0  0
   10.2760   -2.3270   23.4020 C   0  0  0  0  0  0  0  0  0  0  0  0
    8.3310   -2.7170   25.3430 C   0  0  0  0  0  0  0  0  0  0  0  0
   10.2570   -3.5000   24.1350 C   0  0  0  0  0  0  0  0  0  0  0  0
   12.2126    2.3974   23.3680 C   0  0  0  0  0  0  0  0  0  0  0  0
   13.5630    2.2185   23.1633 C   0  0  0  0  0  0  0  0  0  0  0  0
   12.3560    0.0789   23.2869 C   0  0  0  0  0  0  0  0  0  0  0  0
    9.3300   -1.3350   23.6390 C   0  0  0  0  0  0  0  0  0  0  0  0
   11.5133    1.1580   23.4397 C   0  0  0  0  0  0  0  0  0  0  0  0
    9.2850   -3.7090   25.1090 C   0  0  0  0  0  0  0  0  0  0  0  0
    5.9810    0.8330   18.8060 C   0  0  0  0  0  0  0  0  0  0  0  0
    7.2210   -0.4620   20.0350 C   0  0  0  0  0  0  0  0  0  0  0  0
    4.9400    1.7060   18.5060 C   0  0  0  0  0  0  0  0  0  0  0  0
    4.0980    2.1130   19.5350 C   0  0  0  0  0  0  0  0  0  0  0  0
    4.2970    1.6690   20.8430 C   0  0  0  0  0  0  0  0  0  0  0  0
    5.3360    0.8000   21.1530 C   0  0  0  0  0  0  0  0  0  0  0  0
    8.9510    0.1280   21.6880 C   0  0  0  0  0  0  0  0  0  0  0  0
    7.3211   -6.8875   26.5227 C   0  0  0  0  0  0  0  0  0  0  0  0
    7.3523   -5.5278   27.2244 C   0  0  0  0  0  0  0  0  0  0  0  0
    7.9422   -6.8107   25.1261 C   0  0  0  0  0  0  0  0  0  0  0  0
    8.7641   -4.9418   27.2163 C   0  0  0  0  0  0  0  0  0  0  0  0
    9.3411   -6.1879   25.1670 C   0  0  0  0  0  0  0  0  0  0  0  0
   10.0220    1.0430   23.6570 C   0  0  0  0  0  0  0  0  0  0  0  0
    9.4200   -0.0840   22.9530 C   0  0  2  0  0  0  0  0  0  0  0  0
    6.9440    0.2550   18.0100 N   0  0  0  0  0  0  0  0  0  0  0  0
    7.6830   -0.5170   18.7600 N   0  0  0  0  0  0  0  0  0  0  0  0
    6.1600    0.3870   20.1140 N   0  0  0  0  0  0  0  0  0  0  0  0
    9.2641   -4.8861   25.8398 N   0  0  0  0  0  0  0  0  0  0  0  0
    8.0810   -0.9750   21.0820 N   0  0  0  0  0  0  0  0  0  0  0  0
    9.1870    1.1500   21.0630 O   0  0  0  0  0  0  0  0  0  0  0  0
   13.9830    0.5617   23.0583 S   0  0  0  0  0  0  0  0  0  0  0  0
    7.5957   -0.7779   24.7973 H   0  0  0  0  0  0  0  0  0  0  0  0
   11.0384   -2.1852   22.6338 H   0  0  0  0  0  0  0  0  0  0  0  0
    7.5634   -2.8637   26.1037 H   0  0  0  0  0  0  0  0  0  0  0  0
   11.0139   -4.2645   23.9419 H   0  0  0  0  0  0  0  0  0  0  0  0
   11.7522    3.3729   23.4608 H   0  0  0  0  0  0  0  0  0  0  0  0
   14.3229    2.9813   23.0696 H   0  0  0  0  0  0  0  0  0  0  0  0
   12.0982   -0.9711   23.2967 H   0  0  0  0  0  0  0  0  0  0  0  0
    4.7733    2.0700   17.5071 H   0  0  0  0  0  0  0  0  0  0  0  0
    3.2813    2.7836   19.2995 H   0  0  0  0  0  0  0  0  0  0  0  0
    3.6335    1.9977   21.6542 H   0  0  0  0  0  0  0  0  0  0  0  0
    5.5067    0.4537   22.1474 H   0  0  0  0  0  0  0  0  0  0  0  0
    7.8644   -7.6283   27.1289 H   0  0  0  0  0  0  0  0  0  0  0  0
    6.2830   -7.2423   26.4478 H   0  0  0  0  0  0  0  0  0  0  0  0
    6.6663   -4.8405   26.7221 H   0  0  0  0  0  0  0  0  0  0  0  0
    7.0062   -5.6400   28.2540 H   0  0  0  0  0  0  0  0  0  0  0  0
    8.0018   -7.8160   24.6962 H   0  0  0  0  0  0  0  0  0  0  0  0
    7.2963   -6.2182   24.4678 H   0  0  0  0  0  0  0  0  0  0  0  0
    8.7322   -3.9404   27.6532 H   0  0  0  0  0  0  0  0  0  0  0  0
    9.4260   -5.5610   27.8283 H   0  0  0  0  0  0  0  0  0  0  0  0
   10.0249   -6.8474   25.7028 H   0  0  0  0  0  0  0  0  0  0  0  0
    9.7015   -6.0700   24.1446 H   0  0  0  0  0  0  0  0  0  0  0  0
    9.8155    0.9894   24.7339 H   0  0  0  0  0  0  0  0  0  0  0  0
    9.5584    1.9798   23.3178 H   0  0  0  0  0  0  0  0  0  0  0  0
    8.1278    0.3254   23.5142 H   0  0  0  0  0  0  0  0  0  0  0  0
    8.1354   -1.7990   21.3694 H   0  0  0  0  0  0  0  0  0  0  0  0
  1  3  2  0  0  0  0
  1  8  1  0  0  0  0
  2  4  1  0  0  0  0
  2  8  2  0  0  0  0
  3 10  1  0  0  0  0
  4 10  2  0  0  0  0
  5  6  2  0  0  0  0
  5  9  1  0  0  0  0
  6 31  1  0  0  0  0
  7  9  2  0  0  0  0
  7 31  1  0  0  0  0
  8 24  1  0  0  0  0
  9 23  1  0  0  0  0
 10 28  1  0  0  0  0
 11 13  1  0  0  0  0
 11 25  2  0  0  0  0
 11 27  1  0  0  0  0
 12 26  2  0  0  0  0
 12 27  1  0  0  0  0
 12 29  1  0  0  0  0
 13 14  2  0  0  0  0
 14 15  1  0  0  0  0
 15 16  2  0  0  0  0
 16 27  1  0  0  0  0
 17 24  1  6  0  0  0
 17 29  1  0  0  0  0
 17 30  2  0  0  0  0
 18 19  1  0  0  0  0
 18 20  1  0  0  0  0
 19 21  1  0  0  0  0
 20 22  1  0  0  0  0
 21 28  1  0  0  0  0
 22 28  1  0  0  0  0
 23 24  1  0  0  0  0
 25 26  1  0  0  0  0
  1 32  1  0  0  0  0
  2 33  1  0  0  0  0
  3 34  1  0  0  0  0
  4 35  1  0  0  0  0
  5 36  1  0  0  0  0
  6 37  1  0  0  0  0
  7 38  1  0  0  0  0
 13 39  1  0  0  0  0
 14 40  1  0  0  0  0
 15 41  1  0  0  0  0
 16 42  1  0  0  0  0
 18 43  1  0  0  0  0
 18 44  1  0  0  0  0
 19 45  1  0  0  0  0
 19 46  1  0  0  0  0
 20 47  1  0  0  0  0
 20 48  1  0  0  0  0
 21 49  1  0  0  0  0
 21 50  1  0  0  0  0
 22 51  1  0  0  0  0
 22 52  1  0  0  0  0
 23 53  1  0  0  0  0
 23 54  1  0  0  0  0
 24 55  1  0  0  0  0
 29 56  1  0  0  0  0
M  END
> <clash_score>
0

> <docking_score>
-8.970569610595703

> <overlap_score>
1.012872338294983

$$$$
BENZO_321_1
  -OEChem-08222022413D

 47 50  0     1  0  0  0  0  0999 V2000
   14.2623    1.3345   22.9975 C   0  0  0  0  0  0  0  0  0  0  0  0
   13.7729    0.5817   24.0649 C   0  0  0  0  0  0  0  0  0  0  0  0
   13.3767    1.9928   22.1442 C   0  0  0  0  0  0  0  0  0  0  0  0
   12.3978    0.4871   24.2790 C   0  0  0  0  0  0  0  0  0  0  0  0
   12.0016    1.8981   22.3583 C   0  0  0  0  0  0  0  0  0  0  0  0
    8.3310   -2.7170   25.3430 C   0  0  0  0  0  0  0  0  0  0  0  0
   10.2570   -3.5000   24.1350 C   0  0  0  0  0  0  0  0  0  0  0  0
    8.3510   -1.5420   24.6110 C   0  0  0  0  0  0  0  0  0  0  0  0
   10.2760   -2.3270   23.4020 C   0  0  0  0  0  0  0  0  0  0  0  0
    9.2850   -3.7090   25.1090 C   0  0  0  0  0  0  0  0  0  0  0  0
   11.5121    1.1453   23.4257 C   0  0  0  0  0  0  0  0  0  0  0  0
    9.3300   -1.3350   23.6390 C   0  0  0  0  0  0  0  0  0  0  0  0
    5.9810    0.8330   18.8060 C   0  0  0  0  0  0  0  0  0  0  0  0
    7.2210   -0.4620   20.0350 C   0  0  0  0  0  0  0  0  0  0  0  0
    4.9400    1.7060   18.5060 C   0  0  0  0  0  0  0  0  0  0  0  0
    4.0980    2.1130   19.5350 C   0  0  0  0  0  0  0  0  0  0  0  0
    4.2970    1.6690   20.8430 C   0  0  0  0  0  0  0  0  0  0  0  0
    5.3360    0.8000   21.1530 C   0  0  0  0  0  0  0  0  0  0  0  0
    8.9510    0.1280   21.6880 C   0  0  0  0  0  0  0  0  0  0  0  0
    9.2618   -4.9724   25.8910 C   0  0  0  0  0  0  0  0  0  0  0  0
   10.0220    1.0430   23.6570 C   0  0  0  0  0  0  0  0  0  0  0  0
    9.4200   -0.0840   22.9530 C   0  0  1  0  0  0  0  0  0  0  0  0
    6.9440    0.2550   18.0100 N   0  0  0  0  0  0  0  0  0  0  0  0
    7.6830   -0.5170   18.7600 N   0  0  0  0  0  0  0  0  0  0  0  0
    6.1600    0.3870   20.1140 N   0  0  0  0  0  0  0  0  0  0  0  0
    8.0810   -0.9750   21.0820 N   0  0  0  0  0  0  0  0  0  0  0  0
    9.1870    1.1500   21.0630 O   0  0  0  0  0  0  0  0  0  0  0  0
   15.3331    1.4092   22.8317 H   0  0  0  0  0  0  0  0  0  0  0  0
   14.4623    0.0700   24.7300 H   0  0  0  0  0  0  0  0  0  0  0  0
   13.7574    2.5799   21.3137 H   0  0  0  0  0  0  0  0  0  0  0  0
   12.0255   -0.1019   25.1131 H   0  0  0  0  0  0  0  0  0  0  0  0
   11.3191    2.4143   21.6883 H   0  0  0  0  0  0  0  0  0  0  0  0
    7.5655   -2.8644   26.1055 H   0  0  0  0  0  0  0  0  0  0  0  0
   11.0125   -4.2662   23.9435 H   0  0  0  0  0  0  0  0  0  0  0  0
    7.5953   -0.7782   24.7971 H   0  0  0  0  0  0  0  0  0  0  0  0
   11.0394   -2.1837   22.6349 H   0  0  0  0  0  0  0  0  0  0  0  0
    4.7733    2.0700   17.5071 H   0  0  0  0  0  0  0  0  0  0  0  0
    3.2813    2.7836   19.2995 H   0  0  0  0  0  0  0  0  0  0  0  0
    3.6335    1.9977   21.6542 H   0  0  0  0  0  0  0  0  0  0  0  0
    5.5067    0.4537   22.1474 H   0  0  0  0  0  0  0  0  0  0  0  0
    8.6408   -5.7227   25.3864 H   0  0  0  0  0  0  0  0  0  0  0  0
   10.2726   -5.3829   26.0135 H   0  0  0  0  0  0  0  0  0  0  0  0
    8.8606   -4.8102   26.9000 H   0  0  0  0  0  0  0  0  0  0  0  0
    9.8253    0.9889   24.7357 H   0  0  0  0  0  0  0  0  0  0  0  0
    9.5635    1.9845   23.3241 H   0  0  0  0  0  0  0  0  0  0  0  0
    8.1288    0.3205   23.5156 H   0  0  0  0  0  0  0  0  0  0  0  0
    8.1152   -1.8120   21.3518 H   0  0  0  0  0  0  0  0  0  0  0  0
  1  2  1  0  0  0  0
  1  3  2  0  0  0  0
  2  4  2  0  0  0  0
  3  5  1  0  0  0  0
  4 11  1  0  0  0  0
  5 11  2  0  0  0  0
  6  8  2  0  0  0  0
  6 10  1  0  0  0  0
  7  9  1  0  0  0  0
  7 10  2  0  0  0  0
  8 12  1  0  0  0  0
  9 12  2  0  0  0  0
 10 20  1  0  0  0  0
 11 21  1  0  0  0  0
 12 22  1  0  0  0  0
 13 15  1  0  0  0  0
 13 23  2  0  0  0  0
 13 25  1  0  0  0  0
 14 24  2  0  0  0  0
 14 25  1  0  0  0  0
 14 26  1  0  0  0  0
 15 16  2  0  0  0  0
 16 17  1  0  0  0  0
 17 18  2  0  0  0  0
 18 25  1  0  0  0  0
 19 22  1  0  0  0  0
 19 26  1  0  0  0  0
 19 27  2  0  0  0  0
 21 22  1  1  0  0  0
 23 24  1  0  0  0  0
  1 28  1  0  0  0  0
  2 29  1  0  0  0  0
  3 30  1  0  0  0  0
  4 31  1  0  0  0  0
  5 32  1  0  0  0  0
  6 33  1  0  0  0  0
  7 34  1  0  0  0  0
  8 35  1  0  0  0  0
  9 36  1  0  0  0  0
 15 37  1  0  0  0  0
 16 38  1  0  0  0  0
 17 39  1  0  0  0  0
 18 40  1  0  0  0  0
 20 41  1  0  0  0  0
 20 42  1  0  0  0  0
 20 43  1  0  0  0  0
 21 44  1  0  0  0  0
 21 45  1  0  0  0  0
 22 46  1  0  0  0  0
 26 47  1  0  0  0  0
M  END
> <clash_score>
0

> <docking_score>
-9.098795890808105

> <overlap_score>
0.9820054769515991

$$$$
BENZO_321_2
  -OEChem-08222022413D

 47 50  0     1  0  0  0  0  0999 V2000
   13.8295    0.0638   25.4018 C   0  0  0  0  0  0  0  0  0  0  0  0
   12.6583   -0.1175   26.1373 C   0  0  0  0  0  0  0  0  0  0  0  0
   13.7659    0.5627   24.1007 C   0  0  0  0  0  0  0  0  0  0  0  0
   11.4234    0.2001   25.5717 C   0  0  0  0  0  0  0  0  0  0  0  0
   12.5310    0.8802   23.5351 C   0  0  0  0  0  0  0  0  0  0  0  0
    8.3310   -2.7170   25.3430 C   0  0  0  0  0  0  0  0  0  0  0  0
   10.2570   -3.5000   24.1350 C   0  0  0  0  0  0  0  0  0  0  0  0
    8.3510   -1.5420   24.6110 C   0  0  0  0  0  0  0  0  0  0  0  0
   10.2760   -2.3270   23.4020 C   0  0  0  0  0  0  0  0  0  0  0  0
    9.2850   -3.7090   25.1090 C   0  0  0  0  0  0  0  0  0  0  0  0
   11.3597    0.6989   24.2706 C   0  0  0  0  0  0  0  0  0  0  0  0
    9.3300   -1.3350   23.6390 C   0  0  0  0  0  0  0  0  0  0  0  0
    5.9810    0.8330   18.8060 C   0  0  0  0  0  0  0  0  0  0  0  0
    7.2210   -0.4620   20.0350 C   0  0  0  0  0  0  0  0  0  0  0  0
    4.9400    1.7060   18.5060 C   0  0  0  0  0  0  0  0  0  0  0  0
    4.0980    2.1130   19.5350 C   0  0  0  0  0  0  0  0  0  0  0  0
    4.2970    1.6690   20.8430 C   0  0  0  0  0  0  0  0  0  0  0  0
    5.3360    0.8000   21.1530 C   0  0  0  0  0  0  0  0  0  0  0  0
    8.9510    0.1280   21.6880 C   0  0  0  0  0  0  0  0  0  0  0  0
    9.2618   -4.9724   25.8910 C   0  0  0  0  0  0  0  0  0  0  0  0
   10.0220    1.0430   23.6570 C   0  0  0  0  0  0  0  0  0  0  0  0
    9.4200   -0.0840   22.9530 C   0  0  2  0  0  0  0  0  0  0  0  0
    6.9440    0.2550   18.0100 N   0  0  0  0  0  0  0  0  0  0  0  0
    7.6830   -0.5170   18.7600 N   0  0  0  0  0  0  0  0  0  0  0  0
    6.1600    0.3870   20.1140 N   0  0  0  0  0  0  0  0  0  0  0  0
    8.0810   -0.9750   21.0820 N   0  0  0  0  0  0  0  0  0  0  0  0
    9.1870    1.1500   21.0630 O   0  0  0  0  0  0  0  0  0  0  0  0
   14.7910   -0.1822   25.8428 H   0  0  0  0  0  0  0  0  0  0  0  0
   12.7077   -0.5049   27.1507 H   0  0  0  0  0  0  0  0  0  0  0  0
   14.6777    0.7050   23.5282 H   0  0  0  0  0  0  0  0  0  0  0  0
   10.5160    0.0554   26.1521 H   0  0  0  0  0  0  0  0  0  0  0  0
   12.4911    1.2683   22.5207 H   0  0  0  0  0  0  0  0  0  0  0  0
    7.5655   -2.8644   26.1055 H   0  0  0  0  0  0  0  0  0  0  0  0
   11.0125   -4.2662   23.9435 H   0  0  0  0  0  0  0  0  0  0  0  0
    7.5953   -0.7782   24.7971 H   0  0  0  0  0  0  0  0  0  0  0  0
   11.0394   -2.1837   22.6349 H   0  0  0  0  0  0  0  0  0  0  0  0
    4.7733    2.0700   17.5071 H   0  0  0  0  0  0  0  0  0  0  0  0
    3.2813    2.7836   19.2995 H   0  0  0  0  0  0  0  0  0  0  0  0
    3.6335    1.9977   21.6542 H   0  0  0  0  0  0  0  0  0  0  0  0
    5.5067    0.4537   22.1474 H   0  0  0  0  0  0  0  0  0  0  0  0
    8.6408   -5.7227   25.3864 H   0  0  0  0  0  0  0  0  0  0  0  0
   10.2726   -5.3829   26.0135 H   0  0  0  0  0  0  0  0  0  0  0  0
    8.8606   -4.8102   26.9000 H   0  0  0  0  0  0  0  0  0  0  0  0
    9.3529    1.4272   24.4380 H   0  0  0  0  0  0  0  0  0  0  0  0
   10.1743    1.8827   22.9648 H   0  0  0  0  0  0  0  0  0  0  0  0
   10.7346   -0.4307   22.4468 H   0  0  0  0  0  0  0  0  0  0  0  0
    8.1152   -1.8120   21.3518 H   0  0  0  0  0  0  0  0  0  0  0  0
  1  2  1  0  0  0  0
  1  3  2  0  0  0  0
  2  4  2  0  0  0  0
  3  5  1  0  0  0  0
  4 11  1  0  0  0  0
  5 11  2  0  0  0  0
  6  8  2  0  0  0  0
  6 10  1  0  0  0  0
  7  9  1  0  0  0  0
  7 10  2  0  0  0  0
  8 12  1  0  0  0  0
  9 12  2  0  0  0  0
 10 20  1  0  0  0  0
 11 21  1  0  0  0  0
 12 22  1  0  0  0  0
 13 15  1  0  0  0  0
 13 23  2  0  0  0  0
 13 25  1  0  0  0  0
 14 24  2  0  0  0  0
 14 25  1  0  0  0  0
 14 26  1  0  0  0  0
 15 16  2  0  0  0  0
 16 17  1  0  0  0  0
 17 18  2  0  0  0  0
 18 25  1  0  0  0  0
 19 22  1  0  0  0  0
 19 26  1  0  0  0  0
 19 27  2  0  0  0  0
 21 22  1  6  0  0  0
 23 24  1  0  0  0  0
  1 28  1  0  0  0  0
  2 29  1  0  0  0  0
  3 30  1  0  0  0  0
  4 31  1  0  0  0  0
  5 32  1  0  0  0  0
  6 33  1  0  0  0  0
  7 34  1  0  0  0  0
  8 35  1  0  0  0  0
  9 36  1  0  0  0  0
 15 37  1  0  0  0  0
 16 38  1  0  0  0  0
 17 39  1  0  0  0  0
 18 40  1  0  0  0  0
 20 41  1  0  0  0  0
 20 42  1  0  0  0  0
 20 43  1  0  0  0  0
 21 44  1  0  0  0  0
 21 45  1  0  0  0  0
 22 46  1  0  0  0  0
 26 47  1  0  0  0  0
M  END
> <clash_score>
0.6066498424716199

> <docking_score>
-8.161266326904297

> <overlap_score>
0.9039358496665955

$$$$
BENZO_320_1
  -OEChem-08222022413D

 44 47  0     1  0  0  0  0  0999 V2000
    8.3310   -2.7170   25.3430 C   0  0  0  0  0  0  0  0  0  0  0  0
   10.2570   -3.5000   24.1350 C   0  0  0  0  0  0  0  0  0  0  0  0
    8.3510   -1.5420   24.6110 C   0  0  0  0  0  0  0  0  0  0  0  0
   10.2760   -2.3270   23.4020 C   0  0  0  0  0  0  0  0  0  0  0  0
   12.2216    2.3786   23.3498 C   0  0  0  0  0  0  0  0  0  0  0  0
   13.5684    2.1883   23.1319 C   0  0  0  0  0  0  0  0  0  0  0  0
   12.3438    0.0592   23.2626 C   0  0  0  0  0  0  0  0  0  0  0  0
    9.2850   -3.7090   25.1090 C   0  0  0  0  0  0  0  0  0  0  0  0
    9.3300   -1.3350   23.6390 C   0  0  0  0  0  0  0  0  0  0  0  0
   11.5121    1.1453   23.4257 C   0  0  0  0  0  0  0  0  0  0  0  0
    5.9810    0.8330   18.8060 C   0  0  0  0  0  0  0  0  0  0  0  0
    7.2210   -0.4620   20.0350 C   0  0  0  0  0  0  0  0  0  0  0  0
    4.9400    1.7060   18.5060 C   0  0  0  0  0  0  0  0  0  0  0  0
    4.0980    2.1130   19.5350 C   0  0  0  0  0  0  0  0  0  0  0  0
    4.2970    1.6690   20.8430 C   0  0  0  0  0  0  0  0  0  0  0  0
    5.3360    0.8000   21.1530 C   0  0  0  0  0  0  0  0  0  0  0  0
    8.9510    0.1280   21.6880 C   0  0  0  0  0  0  0  0  0  0  0  0
    9.2618   -4.9724   25.8910 C   0  0  0  0  0  0  0  0  0  0  0  0
   10.0220    1.0430   23.6570 C   0  0  0  0  0  0  0  0  0  0  0  0
    9.4200   -0.0840   22.9530 C   0  0  1  0  0  0  0  0  0  0  0  0
    6.9440    0.2550   18.0100 N   0  0  0  0  0  0  0  0  0  0  0  0
    7.6830   -0.5170   18.7600 N   0  0  0  0  0  0  0  0  0  0  0  0
    6.1600    0.3870   20.1140 N   0  0  0  0  0  0  0  0  0  0  0  0
    8.0810   -0.9750   21.0820 N   0  0  0  0  0  0  0  0  0  0  0  0
    9.1870    1.1500   21.0630 O   0  0  0  0  0  0  0  0  0  0  0  0
   13.9727    0.5281   23.0196 S   0  0  0  0  0  0  0  0  0  0  0  0
    7.5655   -2.8644   26.1055 H   0  0  0  0  0  0  0  0  0  0  0  0
   11.0125   -4.2662   23.9435 H   0  0  0  0  0  0  0  0  0  0  0  0
    7.5953   -0.7782   24.7971 H   0  0  0  0  0  0  0  0  0  0  0  0
   11.0394   -2.1837   22.6349 H   0  0  0  0  0  0  0  0  0  0  0  0
   11.7708    3.3580   23.4491 H   0  0  0  0  0  0  0  0  0  0  0  0
   14.3341    2.9446   23.0326 H   0  0  0  0  0  0  0  0  0  0  0  0
   12.0768   -0.9885   23.2727 H   0  0  0  0  0  0  0  0  0  0  0  0
    4.7733    2.0700   17.5071 H   0  0  0  0  0  0  0  0  0  0  0  0
    3.2813    2.7836   19.2995 H   0  0  0  0  0  0  0  0  0  0  0  0
    3.6335    1.9977   21.6542 H   0  0  0  0  0  0  0  0  0  0  0  0
    5.5067    0.4537   22.1474 H   0  0  0  0  0  0  0  0  0  0  0  0
    8.6408   -5.7227   25.3864 H   0  0  0  0  0  0  0  0  0  0  0  0
   10.2726   -5.3829   26.0135 H   0  0  0  0  0  0  0  0  0  0  0  0
    8.8606   -4.8102   26.9000 H   0  0  0  0  0  0  0  0  0  0  0  0
    9.8253    0.9889   24.7357 H   0  0  0  0  0  0  0  0  0  0  0  0
    9.5635    1.9845   23.3241 H   0  0  0  0  0  0  0  0  0  0  0  0
    8.1288    0.3205   23.5156 H   0  0  0  0  0  0  0  0  0  0  0  0
    8.1152   -1.8120   21.3518 H   0  0  0  0  0  0  0  0  0  0  0  0
  1  3  2  0  0  0  0
  1  8  1  0  0  0  0
  2  4  1  0  0  0  0
  2  8  2  0  0  0  0
  3  9  1  0  0  0  0
  4  9  2  0  0  0  0
  5  6  2  0  0  0  0
  5 10  1  0  0  0  0
  6 26  1  0  0  0  0
  7 10  2  0  0  0  0
  7 26  1  0  0  0  0
  8 18  1  0  0  0  0
  9 20  1  0  0  0  0
 10 19  1  0  0  0  0
 11 13  1  0  0  0  0
 11 21  2  0  0  0  0
 11 23  1  0  0  0  0
 12 22  2  0  0  0  0
 12 23  1  0  0  0  0
 12 24  1  0  0  0  0
 13 14  2  0  0  0  0
 14 15  1  0  0  0  0
 15 16  2  0  0  0  0
 16 23  1  0  0  0  0
 17 20  1  0  0  0  0
 17 24  1  0  0  0  0
 17 25  2  0  0  0  0
 19 20  1  1  0  0  0
 21 22  1  0  0  0  0
  1 27  1  0  0  0  0
  2 28  1  0  0  0  0
  3 29  1  0  0  0  0
  4 30  1  0  0  0  0
  5 31  1  0  0  0  0
  6 32  1  0  0  0  0
  7 33  1  0  0  0  0
 13 34  1  0  0  0  0
 14 35  1  0  0  0  0
 15 36  1  0  0  0  0
 16 37  1  0  0  0  0
 18 38  1  0  0  0  0
 18 39  1  0  0  0  0
 18 40  1  0  0  0  0
 19 41  1  0  0  0  0
 19 42  1  0  0  0  0
 20 43  1  0  0  0  0
 24 44  1  0  0  0  0
M  END
> <clash_score>
0

> <docking_score>
-9.995065689086914

> <overlap_score>
0.9693055748939514

$$$$
BENZO_320_2
  -OEChem-08222022413D

 44 47  0     1  0  0  0  0  0999 V2000
    8.3310   -2.7170   25.3430 C   0  0  0  0  0  0  0  0  0  0  0  0
   10.2570   -3.5000   24.1350 C   0  0  0  0  0  0  0  0  0  0  0  0
    8.3510   -1.5420   24.6110 C   0  0  0  0  0  0  0  0  0  0  0  0
   10.2760   -2.3270   23.4020 C   0  0  0  0  0  0  0  0  0  0  0  0
   12.2093   -0.1809   24.3161 C   0  0  0  0  0  0  0  0  0  0  0  0
   13.0091   -0.4299   25.4096 C   0  0  0  0  0  0  0  0  0  0  0  0
   11.0505    0.9396   25.9906 C   0  0  0  0  0  0  0  0  0  0  0  0
    9.2850   -3.7090   25.1090 C   0  0  0  0  0  0  0  0  0  0  0  0
    9.3300   -1.3350   23.6390 C   0  0  0  0  0  0  0  0  0  0  0  0
   11.0747    0.6126   24.6525 C   0  0  0  0  0  0  0  0  0  0  0  0
    5.9810    0.8330   18.8060 C   0  0  0  0  0  0  0  0  0  0  0  0
    7.2210   -0.4620   20.0350 C   0  0  0  0  0  0  0  0  0  0  0  0
    4.9400    1.7060   18.5060 C   0  0  0  0  0  0  0  0  0  0  0  0
    4.0980    2.1130   19.5350 C   0  0  0  0  0  0  0  0  0  0  0  0
    4.2970    1.6690   20.8430 C   0  0  0  0  0  0  0  0  0  0  0  0
    5.3360    0.8000   21.1530 C   0  0  0  0  0  0  0  0  0  0  0  0
    8.9510    0.1280   21.6880 C   0  0  0  0  0  0  0  0  0  0  0  0
    9.2618   -4.9724   25.8910 C   0  0  0  0  0  0  0  0  0  0  0  0
   10.0220    1.0430   23.6570 C   0  0  0  0  0  0  0  0  0  0  0  0
    9.4200   -0.0840   22.9530 C   0  0  2  0  0  0  0  0  0  0  0  0
    6.9440    0.2550   18.0100 N   0  0  0  0  0  0  0  0  0  0  0  0
    7.6830   -0.5170   18.7600 N   0  0  0  0  0  0  0  0  0  0  0  0
    6.1600    0.3870   20.1140 N   0  0  0  0  0  0  0  0  0  0  0  0
    8.0810   -0.9750   21.0820 N   0  0  0  0  0  0  0  0  0  0  0  0
    9.1870    1.1500   21.0630 O   0  0  0  0  0  0  0  0  0  0  0  0
   12.3919    0.2913   26.8348 S   0  0  0  0  0  0  0  0  0  0  0  0
    7.5655   -2.8644   26.1055 H   0  0  0  0  0  0  0  0  0  0  0  0
   11.0125   -4.2662   23.9435 H   0  0  0  0  0  0  0  0  0  0  0  0
    7.5953   -0.7782   24.7971 H   0  0  0  0  0  0  0  0  0  0  0  0
   11.0394   -2.1837   22.6349 H   0  0  0  0  0  0  0  0  0  0  0  0
   12.4311   -0.5526   23.3237 H   0  0  0  0  0  0  0  0  0  0  0  0
   13.9260   -1.0015   25.4400 H   0  0  0  0  0  0  0  0  0  0  0  0
   10.3108    1.5269   26.5170 H   0  0  0  0  0  0  0  0  0  0  0  0
    4.7733    2.0700   17.5071 H   0  0  0  0  0  0  0  0  0  0  0  0
    3.2813    2.7836   19.2995 H   0  0  0  0  0  0  0  0  0  0  0  0
    3.6335    1.9977   21.6542 H   0  0  0  0  0  0  0  0  0  0  0  0
    5.5067    0.4537   22.1474 H   0  0  0  0  0  0  0  0  0  0  0  0
    8.6408   -5.7227   25.3864 H   0  0  0  0  0  0  0  0  0  0  0  0
   10.2726   -5.3829   26.0135 H   0  0  0  0  0  0  0  0  0  0  0  0
    8.8606   -4.8102   26.9000 H   0  0  0  0  0  0  0  0  0  0  0  0
    9.2602    1.6432   24.1714 H   0  0  0  0  0  0  0  0  0  0  0  0
   10.4960    1.7269   22.9392 H   0  0  0  0  0  0  0  0  0  0  0  0
   10.7346   -0.4307   22.4468 H   0  0  0  0  0  0  0  0  0  0  0  0
    8.1152   -1.8120   21.3518 H   0  0  0  0  0  0  0  0  0  0  0  0
  1  3  2  0  0  0  0
  1  8  1  0  0  0  0
  2  4  1  0  0  0  0
  2  8  2  0  0  0  0
  3  9  1  0  0  0  0
  4  9  2  0  0  0  0
  5  6  2  0  0  0  0
  5 10  1  0  0  0  0
  6 26  1  0  0  0  0
  7 10  2  0  0  0  0
  7 26  1  0  0  0  0
  8 18  1  0  0  0  0
  9 20  1  0  0  0  0
 10 19  1  0  0  0  0
 11 13  1  0  0  0  0
 11 21  2  0  0  0  0
 11 23  1  0  0  0  0
 12 22  2  0  0  0  0
 12 23  1  0  0  0  0
 12 24  1  0  0  0  0
 13 14  2  0  0  0  0
 14 15  1  0  0  0  0
 15 16  2  0  0  0  0
 16 23  1  0  0  0  0
 17 20  1  0  0  0  0
 17 24  1  0  0  0  0
 17 25  2  0  0  0  0
 19 20  1  6  0  0  0
 21 22  1  0  0  0  0
  1 27  1  0  0  0  0
  2 28  1  0  0  0  0
  3 29  1  0  0  0  0
  4 30  1  0  0  0  0
  5 31  1  0  0  0  0
  6 32  1  0  0  0  0
  7 33  1  0  0  0  0
 13 34  1  0  0  0  0
 14 35  1  0  0  0  0
 15 36  1  0  0  0  0
 16 37  1  0  0  0  0
 18 38  1  0  0  0  0
 18 39  1  0  0  0  0
 18 40  1  0  0  0  0
 19 41  1  0  0  0  0
 19 42  1  0  0  0  0
 20 43  1  0  0  0  0
 24 44  1  0  0  0  0
M  END
> <clash_score>
0.6203223404535666

> <docking_score>
-7.149901390075684

> <overlap_score>
0.8551724553108215

$$$$
BENZO_319_2
  -OEChem-08222022413D

 59 63  0     1  0  0  0  0  0999 V2000
    8.3510   -1.5420   24.6110 C   0  0  0  0  0  0  0  0  0  0  0  0
   10.2760   -2.3270   23.4020 C   0  0  0  0  0  0  0  0  0  0  0  0
    8.3310   -2.7170   25.3430 C   0  0  0  0  0  0  0  0  0  0  0  0
   10.2570   -3.5000   24.1350 C   0  0  0  0  0  0  0  0  0  0  0  0
   12.6370    0.8478   23.6905 C   0  0  0  0  0  0  0  0  0  0  0  0
   11.6104    0.2289   25.5338 C   0  0  0  0  0  0  0  0  0  0  0  0
    9.3300   -1.3350   23.6390 C   0  0  0  0  0  0  0  0  0  0  0  0
   11.3626    0.7172   24.2742 C   0  0  0  0  0  0  0  0  0  0  0  0
    9.2850   -3.7090   25.1090 C   0  0  0  0  0  0  0  0  0  0  0  0
    5.9810    0.8330   18.8060 C   0  0  0  0  0  0  0  0  0  0  0  0
    7.2210   -0.4620   20.0350 C   0  0  0  0  0  0  0  0  0  0  0  0
    4.9400    1.7060   18.5060 C   0  0  0  0  0  0  0  0  0  0  0  0
    4.0980    2.1130   19.5350 C   0  0  0  0  0  0  0  0  0  0  0  0
    4.2970    1.6690   20.8430 C   0  0  0  0  0  0  0  0  0  0  0  0
    5.3360    0.8000   21.1530 C   0  0  0  0  0  0  0  0  0  0  0  0
    8.9510    0.1280   21.6880 C   0  0  0  0  0  0  0  0  0  0  0  0
    7.3211   -6.8875   26.5227 C   0  0  0  0  0  0  0  0  0  0  0  0
    7.3523   -5.5278   27.2244 C   0  0  0  0  0  0  0  0  0  0  0  0
    7.9422   -6.8107   25.1261 C   0  0  0  0  0  0  0  0  0  0  0  0
    8.7641   -4.9418   27.2163 C   0  0  0  0  0  0  0  0  0  0  0  0
    9.3411   -6.1879   25.1670 C   0  0  0  0  0  0  0  0  0  0  0  0
   13.7059   -0.3763   26.7673 C   0  0  0  0  0  0  0  0  0  0  0  0
   10.0220    1.0430   23.6570 C   0  0  0  0  0  0  0  0  0  0  0  0
    9.4200   -0.0840   22.9530 C   0  0  2  0  0  0  0  0  0  0  0  0
   13.6213    0.4729   24.5118 N   0  0  0  0  0  0  0  0  0  0  0  0
    6.9440    0.2550   18.0100 N   0  0  0  0  0  0  0  0  0  0  0  0
    7.6830   -0.5170   18.7600 N   0  0  0  0  0  0  0  0  0  0  0  0
   12.9653    0.1020   25.6246 N   0  0  0  0  0  0  0  0  0  0  0  0
    6.1600    0.3870   20.1140 N   0  0  0  0  0  0  0  0  0  0  0  0
    9.2641   -4.8861   25.8398 N   0  0  0  0  0  0  0  0  0  0  0  0
    8.0810   -0.9750   21.0820 N   0  0  0  0  0  0  0  0  0  0  0  0
    9.1870    1.1500   21.0630 O   0  0  0  0  0  0  0  0  0  0  0  0
    7.5957   -0.7779   24.7973 H   0  0  0  0  0  0  0  0  0  0  0  0
   11.0384   -2.1852   22.6338 H   0  0  0  0  0  0  0  0  0  0  0  0
    7.5634   -2.8637   26.1037 H   0  0  0  0  0  0  0  0  0  0  0  0
   11.0139   -4.2645   23.9419 H   0  0  0  0  0  0  0  0  0  0  0  0
   12.8920    1.2011   22.7014 H   0  0  0  0  0  0  0  0  0  0  0  0
   10.9544   -0.0314   26.3534 H   0  0  0  0  0  0  0  0  0  0  0  0
    4.7733    2.0700   17.5071 H   0  0  0  0  0  0  0  0  0  0  0  0
    3.2813    2.7836   19.2995 H   0  0  0  0  0  0  0  0  0  0  0  0
    3.6335    1.9977   21.6542 H   0  0  0  0  0  0  0  0  0  0  0  0
    5.5067    0.4537   22.1474 H   0  0  0  0  0  0  0  0  0  0  0  0
    7.8644   -7.6283   27.1289 H   0  0  0  0  0  0  0  0  0  0  0  0
    6.2830   -7.2423   26.4478 H   0  0  0  0  0  0  0  0  0  0  0  0
    6.6663   -4.8405   26.7221 H   0  0  0  0  0  0  0  0  0  0  0  0
    7.0062   -5.6400   28.2540 H   0  0  0  0  0  0  0  0  0  0  0  0
    8.0018   -7.8160   24.6962 H   0  0  0  0  0  0  0  0  0  0  0  0
    7.2963   -6.2182   24.4678 H   0  0  0  0  0  0  0  0  0  0  0  0
    8.7322   -3.9404   27.6532 H   0  0  0  0  0  0  0  0  0  0  0  0
    9.4260   -5.5610   27.8283 H   0  0  0  0  0  0  0  0  0  0  0  0
   10.0249   -6.8474   25.7028 H   0  0  0  0  0  0  0  0  0  0  0  0
    9.7015   -6.0700   24.1446 H   0  0  0  0  0  0  0  0  0  0  0  0
   13.8123   -1.4600   26.6708 H   0  0  0  0  0  0  0  0  0  0  0  0
   14.6882    0.1037   26.7915 H   0  0  0  0  0  0  0  0  0  0  0  0
   13.1616   -0.1244   27.6818 H   0  0  0  0  0  0  0  0  0  0  0  0
    9.3482    1.4259   24.4346 H   0  0  0  0  0  0  0  0  0  0  0  0
   10.1663    1.8792   22.9588 H   0  0  0  0  0  0  0  0  0  0  0  0
   10.7366   -0.4277   22.4442 H   0  0  0  0  0  0  0  0  0  0  0  0
    8.1354   -1.7990   21.3694 H   0  0  0  0  0  0  0  0  0  0  0  0
  1  3  2  0  0  0  0
  1  7  1  0  0  0  0
  2  4  1  0  0  0  0
  2  7  2  0  0  0  0
  3  9  1  0  0  0  0
  4  9  2  0  0  0  0
  5  8  1  0  0  0  0
  5 25  2  0  0  0  0
  6  8  2  0  0  0  0
  6 28  1  0  0  0  0
  7 24  1  0  0  0  0
  8 23  1  0  0  0  0
  9 30  1  0  0  0  0
 10 12  1  0  0  0  0
 10 26  2  0  0  0  0
 10 29  1  0  0  0  0
 11 27  2  0  0  0  0
 11 29  1  0  0  0  0
 11 31  1  0  0  0  0
 12 13  2  0  0  0  0
 13 14  1  0  0  0  0
 14 15  2  0  0  0  0
 15 29  1  0  0  0  0
 16 24  1  0  0  0  0
 16 31  1  0  0  0  0
 16 32  2  0  0  0  0
 17 18  1  0  0  0  0
 17 19  1  0  0  0  0
 18 20  1  0  0  0  0
 19 21  1  0  0  0  0
 20 30  1  0  0  0  0
 21 30  1  0  0  0  0
 22 28  1  0  0  0  0
 23 24  1  6  0  0  0
 25 28  1  0  0  0  0
 26 27  1  0  0  0  0
  1 33  1  0  0  0  0
  2 34  1  0  0  0  0
  3 35  1  0  0  0  0
  4 36  1  0  0  0  0
  5 37  1  0  0  0  0
  6 38  1  0  0  0  0
 12 39  1  0  0  0  0
 13 40  1  0  0  0  0
 14 41  1  0  0  0  0
 15 42  1  0  0  0  0
 17 43  1  0  0  0  0
 17 44  1  0  0  0  0
 18 45  1  0  0  0  0
 18 46  1  0  0  0  0
 19 47  1  0  0  0  0
 19 48  1  0  0  0  0
 20 49  1  0  0  0  0
 20 50  1  0  0  0  0
 21 51  1  0  0  0  0
 21 52  1  0  0  0  0
 22 53  1  0  0  0  0
 22 54  1  0  0  0  0
 22 55  1  0  0  0  0
 23 56  1  0  0  0  0
 23 57  1  0  0  0  0
 24 58  1  0  0  0  0
 31 59  1  0  0  0  0
M  END
> <clash_score>
0.7348697102430726

> <docking_score>
-7.031517028808594

> <overlap_score>
0.9397954344749451

$$$$
BENZO_318_1
  -OEChem-08222022413D

 59 63  0     1  0  0  0  0  0999 V2000
   13.7706    0.6102   24.1095 C   0  0  0  0  0  0  0  0  0  0  0  0
   12.5330    0.9096   23.5401 C   0  0  0  0  0  0  0  0  0  0  0  0
    8.3510   -1.5420   24.6110 C   0  0  0  0  0  0  0  0  0  0  0  0
   10.2760   -2.3270   23.4020 C   0  0  0  0  0  0  0  0  0  0  0  0
    8.3310   -2.7170   25.3430 C   0  0  0  0  0  0  0  0  0  0  0  0
   10.2570   -3.5000   24.1350 C   0  0  0  0  0  0  0  0  0  0  0  0
   13.8379    0.1183   25.4130 C   0  0  0  0  0  0  0  0  0  0  0  0
   11.4299    0.2253   25.5778 C   0  0  0  0  0  0  0  0  0  0  0  0
    9.3300   -1.3350   23.6390 C   0  0  0  0  0  0  0  0  0  0  0  0
   11.3626    0.7172   24.2742 C   0  0  0  0  0  0  0  0  0  0  0  0
    9.2850   -3.7090   25.1090 C   0  0  0  0  0  0  0  0  0  0  0  0
   12.6676   -0.0742   26.1471 C   0  0  0  0  0  0  0  0  0  0  0  0
    5.9810    0.8330   18.8060 C   0  0  0  0  0  0  0  0  0  0  0  0
    7.2210   -0.4620   20.0350 C   0  0  0  0  0  0  0  0  0  0  0  0
    4.9400    1.7060   18.5060 C   0  0  0  0  0  0  0  0  0  0  0  0
    4.0980    2.1130   19.5350 C   0  0  0  0  0  0  0  0  0  0  0  0
    4.2970    1.6690   20.8430 C   0  0  0  0  0  0  0  0  0  0  0  0
    5.3360    0.8000   21.1530 C   0  0  0  0  0  0  0  0  0  0  0  0
    8.9510    0.1280   21.6880 C   0  0  0  0  0  0  0  0  0  0  0  0
    7.3211   -6.8875   26.5227 C   0  0  0  0  0  0  0  0  0  0  0  0
    7.3523   -5.5278   27.2244 C   0  0  0  0  0  0  0  0  0  0  0  0
    7.9422   -6.8107   25.1261 C   0  0  0  0  0  0  0  0  0  0  0  0
    8.7641   -4.9418   27.2163 C   0  0  0  0  0  0  0  0  0  0  0  0
    9.3411   -6.1879   25.1670 C   0  0  0  0  0  0  0  0  0  0  0  0
   10.0220    1.0430   23.6570 C   0  0  0  0  0  0  0  0  0  0  0  0
    9.4200   -0.0840   22.9530 C   0  0  1  0  0  0  0  0  0  0  0  0
    6.9440    0.2550   18.0100 N   0  0  0  0  0  0  0  0  0  0  0  0
    7.6830   -0.5170   18.7600 N   0  0  0  0  0  0  0  0  0  0  0  0
    6.1600    0.3870   20.1140 N   0  0  0  0  0  0  0  0  0  0  0  0
    9.2641   -4.8861   25.8398 N   0  0  0  0  0  0  0  0  0  0  0  0
    8.0810   -0.9750   21.0820 N   0  0  0  0  0  0  0  0  0  0  0  0
    9.1870    1.1500   21.0630 O   0  0  0  0  0  0  0  0  0  0  0  0
   12.7514   -0.6800   27.7558 Cl  0  0  0  0  0  0  0  0  0  0  0  0
   14.6817    0.7603   23.5375 H   0  0  0  0  0  0  0  0  0  0  0  0
   12.4900    1.2926   22.5238 H   0  0  0  0  0  0  0  0  0  0  0  0
    7.5957   -0.7779   24.7973 H   0  0  0  0  0  0  0  0  0  0  0  0
   11.0384   -2.1852   22.6338 H   0  0  0  0  0  0  0  0  0  0  0  0
    7.5634   -2.8637   26.1037 H   0  0  0  0  0  0  0  0  0  0  0  0
   11.0139   -4.2645   23.9419 H   0  0  0  0  0  0  0  0  0  0  0  0
   14.8095   -0.1105   25.8440 H   0  0  0  0  0  0  0  0  0  0  0  0
   10.5146    0.0765   26.1458 H   0  0  0  0  0  0  0  0  0  0  0  0
    4.7733    2.0700   17.5071 H   0  0  0  0  0  0  0  0  0  0  0  0
    3.2813    2.7836   19.2995 H   0  0  0  0  0  0  0  0  0  0  0  0
    3.6335    1.9977   21.6542 H   0  0  0  0  0  0  0  0  0  0  0  0
    5.5067    0.4537   22.1474 H   0  0  0  0  0  0  0  0  0  0  0  0
    7.8644   -7.6283   27.1289 H   0  0  0  0  0  0  0  0  0  0  0  0
    6.2830   -7.2423   26.4478 H   0  0  0  0  0  0  0  0  0  0  0  0
    6.6663   -4.8405   26.7221 H   0  0  0  0  0  0  0  0  0  0  0  0
    7.0062   -5.6400   28.2540 H   0  0  0  0  0  0  0  0  0  0  0  0
    8.0018   -7.8160   24.6962 H   0  0  0  0  0  0  0  0  0  0  0  0
    7.2963   -6.2182   24.4678 H   0  0  0  0  0  0  0  0  0  0  0  0
    8.7322   -3.9404   27.6532 H   0  0  0  0  0  0  0  0  0  0  0  0
    9.4260   -5.5610   27.8283 H   0  0  0  0  0  0  0  0  0  0  0  0
   10.0249   -6.8474   25.7028 H   0  0  0  0  0  0  0  0  0  0  0  0
    9.7015   -6.0700   24.1446 H   0  0  0  0  0  0  0  0  0  0  0  0
    9.3482    1.4259   24.4346 H   0  0  0  0  0  0  0  0  0  0  0  0
   10.1663    1.8792   22.9588 H   0  0  0  0  0  0  0  0  0  0  0  0
   10.7366   -0.4277   22.4442 H   0  0  0  0  0  0  0  0  0  0  0  0
    8.1354   -1.7990   21.3694 H   0  0  0  0  0  0  0  0  0  0  0  0
  1  2  2  0  0  0  0
  1  7  1  0  0  0  0
  2 10  1  0  0  0  0
  3  5  2  0  0  0  0
  3  9  1  0  0  0  0
  4  6  1  0  0  0  0
  4  9  2  0  0  0  0
  5 11  1  0  0  0  0
  6 11  2  0  0  0  0
  7 12  2  0  0  0  0
  8 10  2  0  0  0  0
  8 12  1  0  0  0  0
  9 26  1  0  0  0  0
 10 25  1  0  0  0  0
 11 30  1  0  0  0  0
 12 33  1  0  0  0  0
 13 15  1  0  0  0  0
 13 27  2  0  0  0  0
 13 29  1  0  0  0  0
 14 28  2  0  0  0  0
 14 29  1  0  0  0  0
 14 31  1  0  0  0  0
 15 16  2  0  0  0  0
 16 17  1  0  0  0  0
 17 18  2  0  0  0  0
 18 29  1  0  0  0  0
 19 26  1  1  0  0  0
 19 31  1  0  0  0  0
 19 32  2  0  0  0  0
 20 21  1  0  0  0  0
 20 22  1  0  0  0  0
 21 23  1  0  0  0  0
 22 24  1  0  0  0  0
 23 30  1  0  0  0  0
 24 30  1  0  0  0  0
 25 26  1  0  0  0  0
 27 28  1  0  0  0  0
  1 34  1  0  0  0  0
  2 35  1  0  0  0  0
  3 36  1  0  0  0  0
  4 37  1  0  0  0  0
  5 38  1  0  0  0  0
  6 39  1  0  0  0  0
  7 40  1  0  0  0  0
  8 41  1  0  0  0  0
 15 42  1  0  0  0  0
 16 43  1  0  0  0  0
 17 44  1  0  0  0  0
 18 45  1  0  0  0  0
 20 46  1  0  0  0  0
 20 47  1  0  0  0  0
 21 48  1  0  0  0  0
 21 49  1  0  0  0  0
 22 50  1  0  0  0  0
 22 51  1  0  0  0  0
 23 52  1  0  0  0  0
 23 53  1  0  0  0  0
 24 54  1  0  0  0  0
 24 55  1  0  0  0  0
 25 56  1  0  0  0  0
 25 57  1  0  0  0  0
 26 58  1  0  0  0  0
 31 59  1  0  0  0  0
M  END
> <clash_score>
1.5650085706569739

> <docking_score>
-6.268900394439697

> <overlap_score>
0.9471225738525391

$$$$
BENZO_319_1
  -OEChem-08222022413D

 59 63  0     1  0  0  0  0  0999 V2000
    8.3510   -1.5420   24.6110 C   0  0  0  0  0  0  0  0  0  0  0  0
   10.2760   -2.3270   23.4020 C   0  0  0  0  0  0  0  0  0  0  0  0
    8.3310   -2.7170   25.3430 C   0  0  0  0  0  0  0  0  0  0  0  0
   10.2570   -3.5000   24.1350 C   0  0  0  0  0  0  0  0  0  0  0  0
   12.2990    2.3261   23.4416 C   0  0  0  0  0  0  0  0  0  0  0  0
   12.4071    0.1434   23.1984 C   0  0  0  0  0  0  0  0  0  0  0  0
    9.3300   -1.3350   23.6390 C   0  0  0  0  0  0  0  0  0  0  0  0
   11.5133    1.1580   23.4397 C   0  0  0  0  0  0  0  0  0  0  0  0
    9.2850   -3.7090   25.1090 C   0  0  0  0  0  0  0  0  0  0  0  0
    5.9810    0.8330   18.8060 C   0  0  0  0  0  0  0  0  0  0  0  0
    7.2210   -0.4620   20.0350 C   0  0  0  0  0  0  0  0  0  0  0  0
    4.9400    1.7060   18.5060 C   0  0  0  0  0  0  0  0  0  0  0  0
    4.0980    2.1130   19.5350 C   0  0  0  0  0  0  0  0  0  0  0  0
    4.2970    1.6690   20.8430 C   0  0  0  0  0  0  0  0  0  0  0  0
    5.3360    0.8000   21.1530 C   0  0  0  0  0  0  0  0  0  0  0  0
    8.9510    0.1280   21.6880 C   0  0  0  0  0  0  0  0  0  0  0  0
    7.3211   -6.8875   26.5227 C   0  0  0  0  0  0  0  0  0  0  0  0
    7.3523   -5.5278   27.2244 C   0  0  0  0  0  0  0  0  0  0  0  0
    7.9422   -6.8107   25.1261 C   0  0  0  0  0  0  0  0  0  0  0  0
    8.7641   -4.9418   27.2163 C   0  0  0  0  0  0  0  0  0  0  0  0
    9.3411   -6.1879   25.1670 C   0  0  0  0  0  0  0  0  0  0  0  0
   14.8827    0.0809   22.8160 C   0  0  0  0  0  0  0  0  0  0  0  0
   10.0220    1.0430   23.6570 C   0  0  0  0  0  0  0  0  0  0  0  0
    9.4200   -0.0840   22.9530 C   0  0  1  0  0  0  0  0  0  0  0  0
   13.5924    2.0779   23.2193 N   0  0  0  0  0  0  0  0  0  0  0  0
    6.9440    0.2550   18.0100 N   0  0  0  0  0  0  0  0  0  0  0  0
    7.6830   -0.5170   18.7600 N   0  0  0  0  0  0  0  0  0  0  0  0
   13.6264    0.7422   23.0755 N   0  0  0  0  0  0  0  0  0  0  0  0
    6.1600    0.3870   20.1140 N   0  0  0  0  0  0  0  0  0  0  0  0
    9.2641   -4.8861   25.8398 N   0  0  0  0  0  0  0  0  0  0  0  0
    8.0810   -0.9750   21.0820 N   0  0  0  0  0  0  0  0  0  0  0  0
    9.1870    1.1500   21.0630 O   0  0  0  0  0  0  0  0  0  0  0  0
    7.5957   -0.7779   24.7973 H   0  0  0  0  0  0  0  0  0  0  0  0
   11.0384   -2.1852   22.6338 H   0  0  0  0  0  0  0  0  0  0  0  0
    7.5634   -2.8637   26.1037 H   0  0  0  0  0  0  0  0  0  0  0  0
   11.0139   -4.2645   23.9419 H   0  0  0  0  0  0  0  0  0  0  0  0
   11.9854    3.3488   23.5963 H   0  0  0  0  0  0  0  0  0  0  0  0
   12.2827   -0.9271   23.1072 H   0  0  0  0  0  0  0  0  0  0  0  0
    4.7733    2.0700   17.5071 H   0  0  0  0  0  0  0  0  0  0  0  0
    3.2813    2.7836   19.2995 H   0  0  0  0  0  0  0  0  0  0  0  0
    3.6335    1.9977   21.6542 H   0  0  0  0  0  0  0  0  0  0  0  0
    5.5067    0.4537   22.1474 H   0  0  0  0  0  0  0  0  0  0  0  0
    7.8644   -7.6283   27.1289 H   0  0  0  0  0  0  0  0  0  0  0  0
    6.2830   -7.2423   26.4478 H   0  0  0  0  0  0  0  0  0  0  0  0
    6.6663   -4.8405   26.7221 H   0  0  0  0  0  0  0  0  0  0  0  0
    7.0062   -5.6400   28.2540 H   0  0  0  0  0  0  0  0  0  0  0  0
    8.0018   -7.8160   24.6962 H   0  0  0  0  0  0  0  0  0  0  0  0
    7.2963   -6.2182   24.4678 H   0  0  0  0  0  0  0  0  0  0  0  0
    8.7322   -3.9404   27.6532 H   0  0  0  0  0  0  0  0  0  0  0  0
    9.4260   -5.5610   27.8283 H   0  0  0  0  0  0  0  0  0  0  0  0
   10.0249   -6.8474   25.7028 H   0  0  0  0  0  0  0  0  0  0  0  0
    9.7015   -6.0700   24.1446 H   0  0  0  0  0  0  0  0  0  0  0  0
   15.0211    0.0327   21.7327 H   0  0  0  0  0  0  0  0  0  0  0  0
   15.6949    0.6471   23.2804 H   0  0  0  0  0  0  0  0  0  0  0  0
   14.8569   -0.9250   23.2444 H   0  0  0  0  0  0  0  0  0  0  0  0
    9.8155    0.9894   24.7339 H   0  0  0  0  0  0  0  0  0  0  0  0
    9.5584    1.9798   23.3178 H   0  0  0  0  0  0  0  0  0  0  0  0
    8.1278    0.3254   23.5142 H   0  0  0  0  0  0  0  0  0  0  0  0
    8.1354   -1.7990   21.3694 H   0  0  0  0  0  0  0  0  0  0  0  0
  1  3  2  0  0  0  0
  1  7  1  0  0  0  0
  2  4  1  0  0  0  0
  2  7  2  0  0  0  0
  3  9  1  0  0  0  0
  4  9  2  0  0  0  0
  5  8  1  0  0  0  0
  5 25  2  0  0  0  0
  6  8  2  0  0  0  0
  6 28  1  0  0  0  0
  7 24  1  0  0  0  0
  8 23  1  0  0  0  0
  9 30  1  0  0  0  0
 10 12  1  0  0  0  0
 10 26  2  0  0  0  0
 10 29  1  0  0  0  0
 11 27  2  0  0  0  0
 11 29  1  0  0  0  0
 11 31  1  0  0  0  0
 12 13  2  0  0  0  0
 13 14  1  0  0  0  0
 14 15  2  0  0  0  0
 15 29  1  0  0  0  0
 16 24  1  0  0  0  0
 16 31  1  0  0  0  0
 16 32  2  0  0  0  0
 17 18  1  0  0  0  0
 17 19  1  0  0  0  0
 18 20  1  0  0  0  0
 19 21  1  0  0  0  0
 20 30  1  0  0  0  0
 21 30  1  0  0  0  0
 22 28  1  0  0  0  0
 23 24  1  1  0  0  0
 25 28  1  0  0  0  0
 26 27  1  0  0  0  0
  1 33  1  0  0  0  0
  2 34  1  0  0  0  0
  3 35  1  0  0  0  0
  4 36  1  0  0  0  0
  5 37  1  0  0  0  0
  6 38  1  0  0  0  0
 12 39  1  0  0  0  0
 13 40  1  0  0  0  0
 14 41  1  0  0  0  0
 15 42  1  0  0  0  0
 17 43  1  0  0  0  0
 17 44  1  0  0  0  0
 18 45  1  0  0  0  0
 18 46  1  0  0  0  0
 19 47  1  0  0  0  0
 19 48  1  0  0  0  0
 20 49  1  0  0  0  0
 20 50  1  0  0  0  0
 21 51  1  0  0  0  0
 21 52  1  0  0  0  0
 22 53  1  0  0  0  0
 22 54  1  0  0  0  0
 22 55  1  0  0  0  0
 23 56  1  0  0  0  0
 23 57  1  0  0  0  0
 24 58  1  0  0  0  0
 31 59  1  0  0  0  0
M  END
> <clash_score>
0

> <docking_score>
-8.830449104309082

> <overlap_score>
1.0275722742080688

$$$$
BENZO_318_2
  -OEChem-08222022413D

 59 63  0     1  0  0  0  0  0999 V2000
   13.7717    0.6100   24.1003 C   0  0  0  0  0  0  0  0  0  0  0  0
   12.3953    0.5053   24.3009 C   0  0  0  0  0  0  0  0  0  0  0  0
    8.3510   -1.5420   24.6110 C   0  0  0  0  0  0  0  0  0  0  0  0
   10.2760   -2.3270   23.4020 C   0  0  0  0  0  0  0  0  0  0  0  0
    8.3310   -2.7170   25.3430 C   0  0  0  0  0  0  0  0  0  0  0  0
   10.2570   -3.5000   24.1350 C   0  0  0  0  0  0  0  0  0  0  0  0
   14.2661    1.3676   23.0385 C   0  0  0  0  0  0  0  0  0  0  0  0
   12.0077    1.9155   22.3779 C   0  0  0  0  0  0  0  0  0  0  0  0
    9.3300   -1.3350   23.6390 C   0  0  0  0  0  0  0  0  0  0  0  0
   11.5133    1.1580   23.4397 C   0  0  0  0  0  0  0  0  0  0  0  0
    9.2850   -3.7090   25.1090 C   0  0  0  0  0  0  0  0  0  0  0  0
   13.3841    2.0203   22.1773 C   0  0  0  0  0  0  0  0  0  0  0  0
    5.9810    0.8330   18.8060 C   0  0  0  0  0  0  0  0  0  0  0  0
    7.2210   -0.4620   20.0350 C   0  0  0  0  0  0  0  0  0  0  0  0
    4.9400    1.7060   18.5060 C   0  0  0  0  0  0  0  0  0  0  0  0
    4.0980    2.1130   19.5350 C   0  0  0  0  0  0  0  0  0  0  0  0
    4.2970    1.6690   20.8430 C   0  0  0  0  0  0  0  0  0  0  0  0
    5.3360    0.8000   21.1530 C   0  0  0  0  0  0  0  0  0  0  0  0
    8.9510    0.1280   21.6880 C   0  0  0  0  0  0  0  0  0  0  0  0
    7.3211   -6.8875   26.5227 C   0  0  0  0  0  0  0  0  0  0  0  0
    7.3523   -5.5278   27.2244 C   0  0  0  0  0  0  0  0  0  0  0  0
    7.9422   -6.8107   25.1261 C   0  0  0  0  0  0  0  0  0  0  0  0
    8.7641   -4.9418   27.2163 C   0  0  0  0  0  0  0  0  0  0  0  0
    9.3411   -6.1879   25.1670 C   0  0  0  0  0  0  0  0  0  0  0  0
   10.0220    1.0430   23.6570 C   0  0  0  0  0  0  0  0  0  0  0  0
    9.4200   -0.0840   22.9530 C   0  0  2  0  0  0  0  0  0  0  0  0
    6.9440    0.2550   18.0100 N   0  0  0  0  0  0  0  0  0  0  0  0
    7.6830   -0.5170   18.7600 N   0  0  0  0  0  0  0  0  0  0  0  0
    6.1600    0.3870   20.1140 N   0  0  0  0  0  0  0  0  0  0  0  0
    9.2641   -4.8861   25.8398 N   0  0  0  0  0  0  0  0  0  0  0  0
    8.0810   -0.9750   21.0820 N   0  0  0  0  0  0  0  0  0  0  0  0
    9.1870    1.1500   21.0630 O   0  0  0  0  0  0  0  0  0  0  0  0
   13.9946    2.9539   20.8668 Cl  0  0  0  0  0  0  0  0  0  0  0  0
   14.4581    0.1015   24.7710 H   0  0  0  0  0  0  0  0  0  0  0  0
   12.0190   -0.0873   25.1307 H   0  0  0  0  0  0  0  0  0  0  0  0
    7.5957   -0.7779   24.7973 H   0  0  0  0  0  0  0  0  0  0  0  0
   11.0384   -2.1852   22.6338 H   0  0  0  0  0  0  0  0  0  0  0  0
    7.5634   -2.8637   26.1037 H   0  0  0  0  0  0  0  0  0  0  0  0
   11.0139   -4.2645   23.9419 H   0  0  0  0  0  0  0  0  0  0  0  0
   15.3412    1.4401   22.8941 H   0  0  0  0  0  0  0  0  0  0  0  0
   11.3159    2.4230   21.7095 H   0  0  0  0  0  0  0  0  0  0  0  0
    4.7733    2.0700   17.5071 H   0  0  0  0  0  0  0  0  0  0  0  0
    3.2813    2.7836   19.2995 H   0  0  0  0  0  0  0  0  0  0  0  0
    3.6335    1.9977   21.6542 H   0  0  0  0  0  0  0  0  0  0  0  0
    5.5067    0.4537   22.1474 H   0  0  0  0  0  0  0  0  0  0  0  0
    7.8644   -7.6283   27.1289 H   0  0  0  0  0  0  0  0  0  0  0  0
    6.2830   -7.2423   26.4478 H   0  0  0  0  0  0  0  0  0  0  0  0
    6.6663   -4.8405   26.7221 H   0  0  0  0  0  0  0  0  0  0  0  0
    7.0062   -5.6400   28.2540 H   0  0  0  0  0  0  0  0  0  0  0  0
    8.0018   -7.8160   24.6962 H   0  0  0  0  0  0  0  0  0  0  0  0
    7.2963   -6.2182   24.4678 H   0  0  0  0  0  0  0  0  0  0  0  0
    8.7322   -3.9404   27.6532 H   0  0  0  0  0  0  0  0  0  0  0  0
    9.4260   -5.5610   27.8283 H   0  0  0  0  0  0  0  0  0  0  0  0
   10.0249   -6.8474   25.7028 H   0  0  0  0  0  0  0  0  0  0  0  0
    9.7015   -6.0700   24.1446 H   0  0  0  0  0  0  0  0  0  0  0  0
    9.8155    0.9894   24.7339 H   0  0  0  0  0  0  0  0  0  0  0  0
    9.5584    1.9798   23.3178 H   0  0  0  0  0  0  0  0  0  0  0  0
    8.1278    0.3254   23.5142 H   0  0  0  0  0  0  0  0  0  0  0  0
    8.1354   -1.7990   21.3694 H   0  0  0  0  0  0  0  0  0  0  0  0
  1  2  2  0  0  0  0
  1  7  1  0  0  0  0
  2 10  1  0  0  0  0
  3  5  2  0  0  0  0
  3  9  1  0  0  0  0
  4  6  1  0  0  0  0
  4  9  2  0  0  0  0
  5 11  1  0  0  0  0
  6 11  2  0  0  0  0
  7 12  2  0  0  0  0
  8 10  2  0  0  0  0
  8 12  1  0  0  0  0
  9 26  1  0  0  0  0
 10 25  1  0  0  0  0
 11 30  1  0  0  0  0
 12 33  1  0  0  0  0
 13 15  1  0  0  0  0
 13 27  2  0  0  0  0
 13 29  1  0  0  0  0
 14 28  2  0  0  0  0
 14 29  1  0  0  0  0
 14 31  1  0  0  0  0
 15 16  2  0  0  0  0
 16 17  1  0  0  0  0
 17 18  2  0  0  0  0
 18 29  1  0  0  0  0
 19 26  1  6  0  0  0
 19 31  1  0  0  0  0
 19 32  2  0  0  0  0
 20 21  1  0  0  0  0
 20 22  1  0  0  0  0
 21 23  1  0  0  0  0
 22 24  1  0  0  0  0
 23 30  1  0  0  0  0
 24 30  1  0  0  0  0
 25 26  1  0  0  0  0
 27 28  1  0  0  0  0
  1 34  1  0  0  0  0
  2 35  1  0  0  0  0
  3 36  1  0  0  0  0
  4 37  1  0  0  0  0
  5 38  1  0  0  0  0
  6 39  1  0  0  0  0
  7 40  1  0  0  0  0
  8 41  1  0  0  0  0
 15 42  1  0  0  0  0
 16 43  1  0  0  0  0
 17 44  1  0  0  0  0
 18 45  1  0  0  0  0
 20 46  1  0  0  0  0
 20 47  1  0  0  0  0
 21 48  1  0  0  0  0
 21 49  1  0  0  0  0
 22 50  1  0  0  0  0
 22 51  1  0  0  0  0
 23 52  1  0  0  0  0
 23 53  1  0  0  0  0
 24 54  1  0  0  0  0
 24 55  1  0  0  0  0
 25 56  1  0  0  0  0
 25 57  1  0  0  0  0
 26 58  1  0  0  0  0
 31 59  1  0  0  0  0
M  END
> <clash_score>
0

> <docking_score>
-7.287343978881836

> <overlap_score>
1.0287415981292725

$$$$
BENZO_323_2
  -OEChem-08222022413D

 47 50  0     1  0  0  0  0  0999 V2000
    8.3310   -2.7170   25.3430 C   0  0  0  0  0  0  0  0  0  0  0  0
   10.2570   -3.5000   24.1350 C   0  0  0  0  0  0  0  0  0  0  0  0
    8.3510   -1.5420   24.6110 C   0  0  0  0  0  0  0  0  0  0  0  0
   10.2760   -2.3270   23.4020 C   0  0  0  0  0  0  0  0  0  0  0  0
   10.9173    2.8198   21.9486 C   0  0  0  0  0  0  0  0  0  0  0  0
   12.4283    1.4668   22.7978 C   0  0  0  0  0  0  0  0  0  0  0  0
    9.2850   -3.7090   25.1090 C   0  0  0  0  0  0  0  0  0  0  0  0
    9.3300   -1.3350   23.6390 C   0  0  0  0  0  0  0  0  0  0  0  0
   11.0832    1.7414   22.8382 C   0  0  0  0  0  0  0  0  0  0  0  0
    5.9810    0.8330   18.8060 C   0  0  0  0  0  0  0  0  0  0  0  0
    7.2210   -0.4620   20.0350 C   0  0  0  0  0  0  0  0  0  0  0  0
    4.9400    1.7060   18.5060 C   0  0  0  0  0  0  0  0  0  0  0  0
    4.0980    2.1130   19.5350 C   0  0  0  0  0  0  0  0  0  0  0  0
    4.2970    1.6690   20.8430 C   0  0  0  0  0  0  0  0  0  0  0  0
    5.3360    0.8000   21.1530 C   0  0  0  0  0  0  0  0  0  0  0  0
    8.9510    0.1280   21.6880 C   0  0  0  0  0  0  0  0  0  0  0  0
    9.2618   -4.9724   25.8910 C   0  0  0  0  0  0  0  0  0  0  0  0
   14.3557    2.4668   21.5472 C   0  0  0  0  0  0  0  0  0  0  0  0
   10.0220    1.0430   23.6570 C   0  0  0  0  0  0  0  0  0  0  0  0
    9.4200   -0.0840   22.9530 C   0  0  2  0  0  0  0  0  0  0  0  0
   12.0654    3.2041   21.3845 N   0  0  0  0  0  0  0  0  0  0  0  0
    6.9440    0.2550   18.0100 N   0  0  0  0  0  0  0  0  0  0  0  0
    7.6830   -0.5170   18.7600 N   0  0  0  0  0  0  0  0  0  0  0  0
   12.9656    2.3627   21.9209 N   0  0  0  0  0  0  0  0  0  0  0  0
    6.1600    0.3870   20.1140 N   0  0  0  0  0  0  0  0  0  0  0  0
    8.0810   -0.9750   21.0820 N   0  0  0  0  0  0  0  0  0  0  0  0
    9.1870    1.1500   21.0630 O   0  0  0  0  0  0  0  0  0  0  0  0
    7.5655   -2.8644   26.1055 H   0  0  0  0  0  0  0  0  0  0  0  0
   11.0125   -4.2662   23.9435 H   0  0  0  0  0  0  0  0  0  0  0  0
    7.5953   -0.7782   24.7971 H   0  0  0  0  0  0  0  0  0  0  0  0
   11.0394   -2.1837   22.6349 H   0  0  0  0  0  0  0  0  0  0  0  0
   10.0090    3.3439   21.6870 H   0  0  0  0  0  0  0  0  0  0  0  0
   13.0342    0.7293   23.3067 H   0  0  0  0  0  0  0  0  0  0  0  0
    4.7733    2.0700   17.5071 H   0  0  0  0  0  0  0  0  0  0  0  0
    3.2813    2.7836   19.2995 H   0  0  0  0  0  0  0  0  0  0  0  0
    3.6335    1.9977   21.6542 H   0  0  0  0  0  0  0  0  0  0  0  0
    5.5067    0.4537   22.1474 H   0  0  0  0  0  0  0  0  0  0  0  0
    8.6408   -5.7227   25.3864 H   0  0  0  0  0  0  0  0  0  0  0  0
   10.2726   -5.3829   26.0135 H   0  0  0  0  0  0  0  0  0  0  0  0
    8.8606   -4.8102   26.9000 H   0  0  0  0  0  0  0  0  0  0  0  0
   14.5208    1.8230   20.6793 H   0  0  0  0  0  0  0  0  0  0  0  0
   14.5900    3.5065   21.3020 H   0  0  0  0  0  0  0  0  0  0  0  0
   14.9803    2.1472   22.3860 H   0  0  0  0  0  0  0  0  0  0  0  0
   10.4530    0.7282   24.6164 H   0  0  0  0  0  0  0  0  0  0  0  0
    9.2514    1.7835   23.9128 H   0  0  0  0  0  0  0  0  0  0  0  0
   10.7346   -0.4307   22.4468 H   0  0  0  0  0  0  0  0  0  0  0  0
    8.1152   -1.8120   21.3518 H   0  0  0  0  0  0  0  0  0  0  0  0
  1  3  2  0  0  0  0
  1  7  1  0  0  0  0
  2  4  1  0  0  0  0
  2  7  2  0  0  0  0
  3  8  1  0  0  0  0
  4  8  2  0  0  0  0
  5  9  1  0  0  0  0
  5 21  2  0  0  0  0
  6  9  2  0  0  0  0
  6 24  1  0  0  0  0
  7 17  1  0  0  0  0
  8 20  1  0  0  0  0
  9 19  1  0  0  0  0
 10 12  1  0  0  0  0
 10 22  2  0  0  0  0
 10 25  1  0  0  0  0
 11 23  2  0  0  0  0
 11 25  1  0  0  0  0
 11 26  1  0  0  0  0
 12 13  2  0  0  0  0
 13 14  1  0  0  0  0
 14 15  2  0  0  0  0
 15 25  1  0  0  0  0
 16 20  1  0  0  0  0
 16 26  1  0  0  0  0
 16 27  2  0  0  0  0
 18 24  1  0  0  0  0
 19 20  1  6  0  0  0
 21 24  1  0  0  0  0
 22 23  1  0  0  0  0
  1 28  1  0  0  0  0
  2 29  1  0  0  0  0
  3 30  1  0  0  0  0
  4 31  1  0  0  0  0
  5 32  1  0  0  0  0
  6 33  1  0  0  0  0
 12 34  1  0  0  0  0
 13 35  1  0  0  0  0
 14 36  1  0  0  0  0
 15 37  1  0  0  0  0
 17 38  1  0  0  0  0
 17 39  1  0  0  0  0
 17 40  1  0  0  0  0
 18 41  1  0  0  0  0
 18 42  1  0  0  0  0
 18 43  1  0  0  0  0
 19 44  1  0  0  0  0
 19 45  1  0  0  0  0
 20 46  1  0  0  0  0
 26 47  1  0  0  0  0
M  END
> <clash_score>
0

> <docking_score>
-7.8311381340026855

> <overlap_score>
0.9399561285972595

$$$$
BENZO_323_1
  -OEChem-08222022413D

 47 50  0     1  0  0  0  0  0999 V2000
    8.3310   -2.7170   25.3430 C   0  0  0  0  0  0  0  0  0  0  0  0
   10.2570   -3.5000   24.1350 C   0  0  0  0  0  0  0  0  0  0  0  0
    8.3510   -1.5420   24.6110 C   0  0  0  0  0  0  0  0  0  0  0  0
   10.2760   -2.3270   23.4020 C   0  0  0  0  0  0  0  0  0  0  0  0
   12.3075    2.3068   23.4193 C   0  0  0  0  0  0  0  0  0  0  0  0
   12.3951    0.1231   23.1770 C   0  0  0  0  0  0  0  0  0  0  0  0
    9.2850   -3.7090   25.1090 C   0  0  0  0  0  0  0  0  0  0  0  0
    9.3300   -1.3350   23.6390 C   0  0  0  0  0  0  0  0  0  0  0  0
   11.5121    1.1453   23.4257 C   0  0  0  0  0  0  0  0  0  0  0  0
    5.9810    0.8330   18.8060 C   0  0  0  0  0  0  0  0  0  0  0  0
    7.2210   -0.4620   20.0350 C   0  0  0  0  0  0  0  0  0  0  0  0
    4.9400    1.7060   18.5060 C   0  0  0  0  0  0  0  0  0  0  0  0
    4.0980    2.1130   19.5350 C   0  0  0  0  0  0  0  0  0  0  0  0
    4.2970    1.6690   20.8430 C   0  0  0  0  0  0  0  0  0  0  0  0
    5.3360    0.8000   21.1530 C   0  0  0  0  0  0  0  0  0  0  0  0
    8.9510    0.1280   21.6880 C   0  0  0  0  0  0  0  0  0  0  0  0
    9.2618   -4.9724   25.8910 C   0  0  0  0  0  0  0  0  0  0  0  0
   14.8664    0.0395   22.7716 C   0  0  0  0  0  0  0  0  0  0  0  0
   10.0220    1.0430   23.6570 C   0  0  0  0  0  0  0  0  0  0  0  0
    9.4200   -0.0840   22.9530 C   0  0  1  0  0  0  0  0  0  0  0  0
   13.5967    2.0476   23.1851 N   0  0  0  0  0  0  0  0  0  0  0  0
    6.9440    0.2550   18.0100 N   0  0  0  0  0  0  0  0  0  0  0  0
    7.6830   -0.5170   18.7600 N   0  0  0  0  0  0  0  0  0  0  0  0
   13.6181    0.7115   23.0422 N   0  0  0  0  0  0  0  0  0  0  0  0
    6.1600    0.3870   20.1140 N   0  0  0  0  0  0  0  0  0  0  0  0
    8.0810   -0.9750   21.0820 N   0  0  0  0  0  0  0  0  0  0  0  0
    9.1870    1.1500   21.0630 O   0  0  0  0  0  0  0  0  0  0  0  0
    7.5655   -2.8644   26.1055 H   0  0  0  0  0  0  0  0  0  0  0  0
   11.0125   -4.2662   23.9435 H   0  0  0  0  0  0  0  0  0  0  0  0
    7.5953   -0.7782   24.7971 H   0  0  0  0  0  0  0  0  0  0  0  0
   11.0394   -2.1837   22.6349 H   0  0  0  0  0  0  0  0  0  0  0  0
   12.0040    3.3322   23.5761 H   0  0  0  0  0  0  0  0  0  0  0  0
   12.2609   -0.9465   23.0878 H   0  0  0  0  0  0  0  0  0  0  0  0
    4.7733    2.0700   17.5071 H   0  0  0  0  0  0  0  0  0  0  0  0
    3.2813    2.7836   19.2995 H   0  0  0  0  0  0  0  0  0  0  0  0
    3.6335    1.9977   21.6542 H   0  0  0  0  0  0  0  0  0  0  0  0
    5.5067    0.4537   22.1474 H   0  0  0  0  0  0  0  0  0  0  0  0
    8.6408   -5.7227   25.3864 H   0  0  0  0  0  0  0  0  0  0  0  0
   10.2726   -5.3829   26.0135 H   0  0  0  0  0  0  0  0  0  0  0  0
    8.8606   -4.8102   26.9000 H   0  0  0  0  0  0  0  0  0  0  0  0
   14.9942   -0.0107   21.6871 H   0  0  0  0  0  0  0  0  0  0  0  0
   15.6877    0.5992   23.2278 H   0  0  0  0  0  0  0  0  0  0  0  0
   14.8362   -0.9658   23.2010 H   0  0  0  0  0  0  0  0  0  0  0  0
    9.8253    0.9889   24.7357 H   0  0  0  0  0  0  0  0  0  0  0  0
    9.5635    1.9845   23.3241 H   0  0  0  0  0  0  0  0  0  0  0  0
    8.1288    0.3205   23.5156 H   0  0  0  0  0  0  0  0  0  0  0  0
    8.1152   -1.8120   21.3518 H   0  0  0  0  0  0  0  0  0  0  0  0
  1  3  2  0  0  0  0
  1  7  1  0  0  0  0
  2  4  1  0  0  0  0
  2  7  2  0  0  0  0
  3  8  1  0  0  0  0
  4  8  2  0  0  0  0
  5  9  1  0  0  0  0
  5 21  2  0  0  0  0
  6  9  2  0  0  0  0
  6 24  1  0  0  0  0
  7 17  1  0  0  0  0
  8 20  1  0  0  0  0
  9 19  1  0  0  0  0
 10 12  1  0  0  0  0
 10 22  2  0  0  0  0
 10 25  1  0  0  0  0
 11 23  2  0  0  0  0
 11 25  1  0  0  0  0
 11 26  1  0  0  0  0
 12 13  2  0  0  0  0
 13 14  1  0  0  0  0
 14 15  2  0  0  0  0
 15 25  1  0  0  0  0
 16 20  1  0  0  0  0
 16 26  1  0  0  0  0
 16 27  2  0  0  0  0
 18 24  1  0  0  0  0
 19 20  1  1  0  0  0
 21 24  1  0  0  0  0
 22 23  1  0  0  0  0
  1 28  1  0  0  0  0
  2 29  1  0  0  0  0
  3 30  1  0  0  0  0
  4 31  1  0  0  0  0
  5 32  1  0  0  0  0
  6 33  1  0  0  0  0
 12 34  1  0  0  0  0
 13 35  1  0  0  0  0
 14 36  1  0  0  0  0
 15 37  1  0  0  0  0
 17 38  1  0  0  0  0
 17 39  1  0  0  0  0
 17 40  1  0  0  0  0
 18 41  1  0  0  0  0
 18 42  1  0  0  0  0
 18 43  1  0  0  0  0
 19 44  1  0  0  0  0
 19 45  1  0  0  0  0
 20 46  1  0  0  0  0
 26 47  1  0  0  0  0
M  END
> <clash_score>
0

> <docking_score>
-9.868010520935059

> <overlap_score>
0.9840735197067261

$$$$
BENZO_322_1
  -OEChem-08222022413D

 47 50  0     1  0  0  0  0  0999 V2000
   13.7719    0.5789   24.0657 C   0  0  0  0  0  0  0  0  0  0  0  0
   12.3966    0.4859   24.2792 C   0  0  0  0  0  0  0  0  0  0  0  0
    8.3310   -2.7170   25.3430 C   0  0  0  0  0  0  0  0  0  0  0  0
   10.2570   -3.5000   24.1350 C   0  0  0  0  0  0  0  0  0  0  0  0
    8.3510   -1.5420   24.6110 C   0  0  0  0  0  0  0  0  0  0  0  0
   10.2760   -2.3270   23.4020 C   0  0  0  0  0  0  0  0  0  0  0  0
   14.2627    1.3315   22.9987 C   0  0  0  0  0  0  0  0  0  0  0  0
   12.0029    1.8978   22.3587 C   0  0  0  0  0  0  0  0  0  0  0  0
    9.2850   -3.7090   25.1090 C   0  0  0  0  0  0  0  0  0  0  0  0
    9.3300   -1.3350   23.6390 C   0  0  0  0  0  0  0  0  0  0  0  0
   11.5121    1.1453   23.4257 C   0  0  0  0  0  0  0  0  0  0  0  0
   13.3782    1.9909   22.1452 C   0  0  0  0  0  0  0  0  0  0  0  0
    5.9810    0.8330   18.8060 C   0  0  0  0  0  0  0  0  0  0  0  0
    7.2210   -0.4620   20.0350 C   0  0  0  0  0  0  0  0  0  0  0  0
    4.9400    1.7060   18.5060 C   0  0  0  0  0  0  0  0  0  0  0  0
    4.0980    2.1130   19.5350 C   0  0  0  0  0  0  0  0  0  0  0  0
    4.2970    1.6690   20.8430 C   0  0  0  0  0  0  0  0  0  0  0  0
    5.3360    0.8000   21.1530 C   0  0  0  0  0  0  0  0  0  0  0  0
    8.9510    0.1280   21.6880 C   0  0  0  0  0  0  0  0  0  0  0  0
    9.2618   -4.9724   25.8910 C   0  0  0  0  0  0  0  0  0  0  0  0
   10.0220    1.0430   23.6570 C   0  0  0  0  0  0  0  0  0  0  0  0
    9.4200   -0.0840   22.9530 C   0  0  1  0  0  0  0  0  0  0  0  0
    6.9440    0.2550   18.0100 N   0  0  0  0  0  0  0  0  0  0  0  0
    7.6830   -0.5170   18.7600 N   0  0  0  0  0  0  0  0  0  0  0  0
    6.1600    0.3870   20.1140 N   0  0  0  0  0  0  0  0  0  0  0  0
    8.0810   -0.9750   21.0820 N   0  0  0  0  0  0  0  0  0  0  0  0
    9.1870    1.1500   21.0630 O   0  0  0  0  0  0  0  0  0  0  0  0
   13.9842    2.9183   20.8282 Cl  0  0  0  0  0  0  0  0  0  0  0  0
   14.4603    0.0652   24.7304 H   0  0  0  0  0  0  0  0  0  0  0  0
   12.0231   -0.1028   25.1130 H   0  0  0  0  0  0  0  0  0  0  0  0
    7.5655   -2.8644   26.1055 H   0  0  0  0  0  0  0  0  0  0  0  0
   11.0125   -4.2662   23.9435 H   0  0  0  0  0  0  0  0  0  0  0  0
    7.5953   -0.7782   24.7971 H   0  0  0  0  0  0  0  0  0  0  0  0
   11.0394   -2.1837   22.6349 H   0  0  0  0  0  0  0  0  0  0  0  0
   15.3370    1.3949   22.8442 H   0  0  0  0  0  0  0  0  0  0  0  0
   11.3092    2.4105   21.6963 H   0  0  0  0  0  0  0  0  0  0  0  0
    4.7733    2.0700   17.5071 H   0  0  0  0  0  0  0  0  0  0  0  0
    3.2813    2.7836   19.2995 H   0  0  0  0  0  0  0  0  0  0  0  0
    3.6335    1.9977   21.6542 H   0  0  0  0  0  0  0  0  0  0  0  0
    5.5067    0.4537   22.1474 H   0  0  0  0  0  0  0  0  0  0  0  0
    8.6408   -5.7227   25.3864 H   0  0  0  0  0  0  0  0  0  0  0  0
   10.2726   -5.3829   26.0135 H   0  0  0  0  0  0  0  0  0  0  0  0
    8.8606   -4.8102   26.9000 H   0  0  0  0  0  0  0  0  0  0  0  0
    9.8253    0.9889   24.7357 H   0  0  0  0  0  0  0  0  0  0  0  0
    9.5635    1.9845   23.3241 H   0  0  0  0  0  0  0  0  0  0  0  0
    8.1288    0.3205   23.5156 H   0  0  0  0  0  0  0  0  0  0  0  0
    8.1152   -1.8120   21.3518 H   0  0  0  0  0  0  0  0  0  0  0  0
  1  2  2  0  0  0  0
  1  7  1  0  0  0  0
  2 11  1  0  0  0  0
  3  5  2  0  0  0  0
  3  9  1  0  0  0  0
  4  6  1  0  0  0  0
  4  9  2  0  0  0  0
  5 10  1  0  0  0  0
  6 10  2  0  0  0  0
  7 12  2  0  0  0  0
  8 11  2  0  0  0  0
  8 12  1  0  0  0  0
  9 20  1  0  0  0  0
 10 22  1  0  0  0  0
 11 21  1  0  0  0  0
 12 28  1  0  0  0  0
 13 15  1  0  0  0  0
 13 23  2  0  0  0  0
 13 25  1  0  0  0  0
 14 24  2  0  0  0  0
 14 25  1  0  0  0  0
 14 26  1  0  0  0  0
 15 16  2  0  0  0  0
 16 17  1  0  0  0  0
 17 18  2  0  0  0  0
 18 25  1  0  0  0  0
 19 22  1  0  0  0  0
 19 26  1  0  0  0  0
 19 27  2  0  0  0  0
 21 22  1  1  0  0  0
 23 24  1  0  0  0  0
  1 29  1  0  0  0  0
  2 30  1  0  0  0  0
  3 31  1  0  0  0  0
  4 32  1  0  0  0  0
  5 33  1  0  0  0  0
  6 34  1  0  0  0  0
  7 35  1  0  0  0  0
  8 36  1  0  0  0  0
 15 37  1  0  0  0  0
 16 38  1  0  0  0  0
 17 39  1  0  0  0  0
 18 40  1  0  0  0  0
 20 41  1  0  0  0  0
 20 42  1  0  0  0  0
 20 43  1  0  0  0  0
 21 44  1  0  0  0  0
 21 45  1  0  0  0  0
 22 46  1  0  0  0  0
 26 47  1  0  0  0  0
M  END
> <clash_score>
0

> <docking_score>
-8.239751815795898

> <overlap_score>
0.9851461052894592

$$$$
BENZO_322_2
  -OEChem-08222022413D

 47 50  0     1  0  0  0  0  0999 V2000
   12.6560   -0.1194   26.1379 C   0  0  0  0  0  0  0  0  0  0  0  0
   11.4219    0.1994   25.5714 C   0  0  0  0  0  0  0  0  0  0  0  0
    8.3310   -2.7170   25.3430 C   0  0  0  0  0  0  0  0  0  0  0  0
   10.2570   -3.5000   24.1350 C   0  0  0  0  0  0  0  0  0  0  0  0
    8.3510   -1.5420   24.6110 C   0  0  0  0  0  0  0  0  0  0  0  0
   10.2760   -2.3270   23.4020 C   0  0  0  0  0  0  0  0  0  0  0  0
   13.8281    0.0614   25.4035 C   0  0  0  0  0  0  0  0  0  0  0  0
   12.5318    0.8798   23.5362 C   0  0  0  0  0  0  0  0  0  0  0  0
    9.2850   -3.7090   25.1090 C   0  0  0  0  0  0  0  0  0  0  0  0
    9.3300   -1.3350   23.6390 C   0  0  0  0  0  0  0  0  0  0  0  0
   11.3598    0.6989   24.2706 C   0  0  0  0  0  0  0  0  0  0  0  0
   13.7660    0.5610   24.1027 C   0  0  0  0  0  0  0  0  0  0  0  0
    5.9810    0.8330   18.8060 C   0  0  0  0  0  0  0  0  0  0  0  0
    7.2210   -0.4620   20.0350 C   0  0  0  0  0  0  0  0  0  0  0  0
    4.9400    1.7060   18.5060 C   0  0  0  0  0  0  0  0  0  0  0  0
    4.0980    2.1130   19.5350 C   0  0  0  0  0  0  0  0  0  0  0  0
    4.2970    1.6690   20.8430 C   0  0  0  0  0  0  0  0  0  0  0  0
    5.3360    0.8000   21.1530 C   0  0  0  0  0  0  0  0  0  0  0  0
    8.9510    0.1280   21.6880 C   0  0  0  0  0  0  0  0  0  0  0  0
    9.2618   -4.9724   25.8910 C   0  0  0  0  0  0  0  0  0  0  0  0
   10.0220    1.0430   23.6570 C   0  0  0  0  0  0  0  0  0  0  0  0
    9.4200   -0.0840   22.9530 C   0  0  2  0  0  0  0  0  0  0  0  0
    6.9440    0.2550   18.0100 N   0  0  0  0  0  0  0  0  0  0  0  0
    7.6830   -0.5170   18.7600 N   0  0  0  0  0  0  0  0  0  0  0  0
    6.1600    0.3870   20.1140 N   0  0  0  0  0  0  0  0  0  0  0  0
    8.0810   -0.9750   21.0820 N   0  0  0  0  0  0  0  0  0  0  0  0
    9.1870    1.1500   21.0630 O   0  0  0  0  0  0  0  0  0  0  0  0
   15.2122    0.7829   23.1967 Cl  0  0  0  0  0  0  0  0  0  0  0  0
   12.7039   -0.5086   27.1508 H   0  0  0  0  0  0  0  0  0  0  0  0
   10.5137    0.0551   26.1509 H   0  0  0  0  0  0  0  0  0  0  0  0
    7.5655   -2.8644   26.1055 H   0  0  0  0  0  0  0  0  0  0  0  0
   11.0125   -4.2662   23.9435 H   0  0  0  0  0  0  0  0  0  0  0  0
    7.5953   -0.7782   24.7971 H   0  0  0  0  0  0  0  0  0  0  0  0
   11.0394   -2.1837   22.6349 H   0  0  0  0  0  0  0  0  0  0  0  0
   14.7829   -0.1916   25.8577 H   0  0  0  0  0  0  0  0  0  0  0  0
   12.4781    1.2701   22.5225 H   0  0  0  0  0  0  0  0  0  0  0  0
    4.7733    2.0700   17.5071 H   0  0  0  0  0  0  0  0  0  0  0  0
    3.2813    2.7836   19.2995 H   0  0  0  0  0  0  0  0  0  0  0  0
    3.6335    1.9977   21.6542 H   0  0  0  0  0  0  0  0  0  0  0  0
    5.5067    0.4537   22.1474 H   0  0  0  0  0  0  0  0  0  0  0  0
    8.6408   -5.7227   25.3864 H   0  0  0  0  0  0  0  0  0  0  0  0
   10.2726   -5.3829   26.0135 H   0  0  0  0  0  0  0  0  0  0  0  0
    8.8606   -4.8102   26.9000 H   0  0  0  0  0  0  0  0  0  0  0  0
    9.3529    1.4272   24.4380 H   0  0  0  0  0  0  0  0  0  0  0  0
   10.1743    1.8827   22.9648 H   0  0  0  0  0  0  0  0  0  0  0  0
   10.7346   -0.4307   22.4468 H   0  0  0  0  0  0  0  0  0  0  0  0
    8.1152   -1.8120   21.3518 H   0  0  0  0  0  0  0  0  0  0  0  0
  1  2  2  0  0  0  0
  1  7  1  0  0  0  0
  2 11  1  0  0  0  0
  3  5  2  0  0  0  0
  3  9  1  0  0  0  0
  4  6  1  0  0  0  0
  4  9  2  0  0  0  0
  5 10  1  0  0  0  0
  6 10  2  0  0  0  0
  7 12  2  0  0  0  0
  8 11  2  0  0  0  0
  8 12  1  0  0  0  0
  9 20  1  0  0  0  0
 10 22  1  0  0  0  0
 11 21  1  0  0  0  0
 12 28  1  0  0  0  0
 13 15  1  0  0  0  0
 13 23  2  0  0  0  0
 13 25  1  0  0  0  0
 14 24  2  0  0  0  0
 14 25  1  0  0  0  0
 14 26  1  0  0  0  0
 15 16  2  0  0  0  0
 16 17  1  0  0  0  0
 17 18  2  0  0  0  0
 18 25  1  0  0  0  0
 19 22  1  0  0  0  0
 19 26  1  0  0  0  0
 19 27  2  0  0  0  0
 21 22  1  6  0  0  0
 23 24  1  0  0  0  0
  1 29  1  0  0  0  0
  2 30  1  0  0  0  0
  3 31  1  0  0  0  0
  4 32  1  0  0  0  0
  5 33  1  0  0  0  0
  6 34  1  0  0  0  0
  7 35  1  0  0  0  0
  8 36  1  0  0  0  0
 15 37  1  0  0  0  0
 16 38  1  0  0  0  0
 17 39  1  0  0  0  0
 18 40  1  0  0  0  0
 20 41  1  0  0  0  0
 20 42  1  0  0  0  0
 20 43  1  0  0  0  0
 21 44  1  0  0  0  0
 21 45  1  0  0  0  0
 22 46  1  0  0  0  0
 26 47  1  0  0  0  0
M  END
> <clash_score>
0.6070850149950604

> <docking_score>
-7.233818054199219

> <overlap_score>
0.9131935238838196

$$$$
BENZO_325_1
  -OEChem-08222022413D

 48 51  0     1  0  0  0  0  0999 V2000
   14.2623    1.3345   22.9975 C   0  0  0  0  0  0  0  0  0  0  0  0
   13.7729    0.5817   24.0649 C   0  0  0  0  0  0  0  0  0  0  0  0
   13.3767    1.9928   22.1442 C   0  0  0  0  0  0  0  0  0  0  0  0
   12.3978    0.4871   24.2790 C   0  0  0  0  0  0  0  0  0  0  0  0
   12.0016    1.8981   22.3583 C   0  0  0  0  0  0  0  0  0  0  0  0
    8.3510   -1.5420   24.6110 C   0  0  0  0  0  0  0  0  0  0  0  0
   10.2760   -2.3270   23.4020 C   0  0  0  0  0  0  0  0  0  0  0  0
    8.3310   -2.7170   25.3430 C   0  0  0  0  0  0  0  0  0  0  0  0
   10.2570   -3.5000   24.1350 C   0  0  0  0  0  0  0  0  0  0  0  0
   11.5121    1.1453   23.4257 C   0  0  0  0  0  0  0  0  0  0  0  0
    9.3300   -1.3350   23.6390 C   0  0  0  0  0  0  0  0  0  0  0  0
    9.2850   -3.7090   25.1090 C   0  0  0  0  0  0  0  0  0  0  0  0
    5.9810    0.8330   18.8060 C   0  0  0  0  0  0  0  0  0  0  0  0
    7.2210   -0.4620   20.0350 C   0  0  0  0  0  0  0  0  0  0  0  0
    4.9400    1.7060   18.5060 C   0  0  0  0  0  0  0  0  0  0  0  0
    4.0980    2.1130   19.5350 C   0  0  0  0  0  0  0  0  0  0  0  0
    4.2970    1.6690   20.8430 C   0  0  0  0  0  0  0  0  0  0  0  0
    5.3360    0.8000   21.1530 C   0  0  0  0  0  0  0  0  0  0  0  0
    8.9510    0.1280   21.6880 C   0  0  0  0  0  0  0  0  0  0  0  0
    8.2362   -4.9970   26.8045 C   0  0  0  0  0  0  0  0  0  0  0  0
   10.0220    1.0430   23.6570 C   0  0  0  0  0  0  0  0  0  0  0  0
    9.4200   -0.0840   22.9530 C   0  0  1  0  0  0  0  0  0  0  0  0
    6.9440    0.2550   18.0100 N   0  0  0  0  0  0  0  0  0  0  0  0
    7.6830   -0.5170   18.7600 N   0  0  0  0  0  0  0  0  0  0  0  0
    6.1600    0.3870   20.1140 N   0  0  0  0  0  0  0  0  0  0  0  0
    8.0810   -0.9750   21.0820 N   0  0  0  0  0  0  0  0  0  0  0  0
    9.1870    1.1500   21.0630 O   0  0  0  0  0  0  0  0  0  0  0  0
    9.2637   -4.8607   25.8240 O   0  0  0  0  0  0  0  0  0  0  0  0
   15.3331    1.4092   22.8317 H   0  0  0  0  0  0  0  0  0  0  0  0
   14.4623    0.0700   24.7300 H   0  0  0  0  0  0  0  0  0  0  0  0
   13.7574    2.5799   21.3137 H   0  0  0  0  0  0  0  0  0  0  0  0
   12.0255   -0.1019   25.1131 H   0  0  0  0  0  0  0  0  0  0  0  0
   11.3191    2.4143   21.6883 H   0  0  0  0  0  0  0  0  0  0  0  0
    7.5962   -0.7776   24.7981 H   0  0  0  0  0  0  0  0  0  0  0  0
   11.0395   -2.1844   22.6346 H   0  0  0  0  0  0  0  0  0  0  0  0
    7.5664   -2.8672   26.1058 H   0  0  0  0  0  0  0  0  0  0  0  0
   11.0120   -4.2666   23.9463 H   0  0  0  0  0  0  0  0  0  0  0  0
    4.7733    2.0700   17.5071 H   0  0  0  0  0  0  0  0  0  0  0  0
    3.2813    2.7836   19.2995 H   0  0  0  0  0  0  0  0  0  0  0  0
    3.6335    1.9977   21.6542 H   0  0  0  0  0  0  0  0  0  0  0  0
    5.5067    0.4537   22.1474 H   0  0  0  0  0  0  0  0  0  0  0  0
    8.3331   -5.9645   27.3029 H   0  0  0  0  0  0  0  0  0  0  0  0
    7.2585   -4.9200   26.3221 H   0  0  0  0  0  0  0  0  0  0  0  0
    8.3403   -4.1976   27.5420 H   0  0  0  0  0  0  0  0  0  0  0  0
    9.8253    0.9889   24.7357 H   0  0  0  0  0  0  0  0  0  0  0  0
    9.5635    1.9845   23.3241 H   0  0  0  0  0  0  0  0  0  0  0  0
    8.1288    0.3205   23.5156 H   0  0  0  0  0  0  0  0  0  0  0  0
    8.1152   -1.8120   21.3518 H   0  0  0  0  0  0  0  0  0  0  0  0
  1  2  1  0  0  0  0
  1  3  2  0  0  0  0
  2  4  2  0  0  0  0
  3  5  1  0  0  0  0
  4 10  1  0  0  0  0
  5 10  2  0  0  0  0
  6  8  2  0  0  0  0
  6 11  1  0  0  0  0
  7  9  1  0  0  0  0
  7 11  2  0  0  0  0
  8 12  1  0  0  0  0
  9 12  2  0  0  0  0
 10 21  1  0  0  0  0
 11 22  1  0  0  0  0
 12 28  1  0  0  0  0
 13 15  1  0  0  0  0
 13 23  2  0  0  0  0
 13 25  1  0  0  0  0
 14 24  2  0  0  0  0
 14 25  1  0  0  0  0
 14 26  1  0  0  0  0
 15 16  2  0  0  0  0
 16 17  1  0  0  0  0
 17 18  2  0  0  0  0
 18 25  1  0  0  0  0
 19 22  1  0  0  0  0
 19 26  1  0  0  0  0
 19 27  2  0  0  0  0
 20 28  1  0  0  0  0
 21 22  1  1  0  0  0
 23 24  1  0  0  0  0
  1 29  1  0  0  0  0
  2 30  1  0  0  0  0
  3 31  1  0  0  0  0
  4 32  1  0  0  0  0
  5 33  1  0  0  0  0
  6 34  1  0  0  0  0
  7 35  1  0  0  0  0
  8 36  1  0  0  0  0
  9 37  1  0  0  0  0
 15 38  1  0  0  0  0
 16 39  1  0  0  0  0
 17 40  1  0  0  0  0
 18 41  1  0  0  0  0
 20 42  1  0  0  0  0
 20 43  1  0  0  0  0
 20 44  1  0  0  0  0
 21 45  1  0  0  0  0
 21 46  1  0  0  0  0
 22 47  1  0  0  0  0
 26 48  1  0  0  0  0
M  END
> <clash_score>
0

> <docking_score>
-8.807284355163574

> <overlap_score>
1.005861520767212

$$$$
BENZO_325_2
  -OEChem-08222022413D

 48 51  0     1  0  0  0  0  0999 V2000
   13.8295    0.0638   25.4018 C   0  0  0  0  0  0  0  0  0  0  0  0
   12.6583   -0.1175   26.1373 C   0  0  0  0  0  0  0  0  0  0  0  0
   13.7659    0.5627   24.1007 C   0  0  0  0  0  0  0  0  0  0  0  0
   11.4234    0.2001   25.5717 C   0  0  0  0  0  0  0  0  0  0  0  0
   12.5310    0.8802   23.5351 C   0  0  0  0  0  0  0  0  0  0  0  0
    8.3510   -1.5420   24.6110 C   0  0  0  0  0  0  0  0  0  0  0  0
   10.2760   -2.3270   23.4020 C   0  0  0  0  0  0  0  0  0  0  0  0
    8.3310   -2.7170   25.3430 C   0  0  0  0  0  0  0  0  0  0  0  0
   10.2570   -3.5000   24.1350 C   0  0  0  0  0  0  0  0  0  0  0  0
   11.3597    0.6989   24.2706 C   0  0  0  0  0  0  0  0  0  0  0  0
    9.3300   -1.3350   23.6390 C   0  0  0  0  0  0  0  0  0  0  0  0
    9.2850   -3.7090   25.1090 C   0  0  0  0  0  0  0  0  0  0  0  0
    5.9810    0.8330   18.8060 C   0  0  0  0  0  0  0  0  0  0  0  0
    7.2210   -0.4620   20.0350 C   0  0  0  0  0  0  0  0  0  0  0  0
    4.9400    1.7060   18.5060 C   0  0  0  0  0  0  0  0  0  0  0  0
    4.0980    2.1130   19.5350 C   0  0  0  0  0  0  0  0  0  0  0  0
    4.2970    1.6690   20.8430 C   0  0  0  0  0  0  0  0  0  0  0  0
    5.3360    0.8000   21.1530 C   0  0  0  0  0  0  0  0  0  0  0  0
    8.9510    0.1280   21.6880 C   0  0  0  0  0  0  0  0  0  0  0  0
    8.2362   -4.9970   26.8045 C   0  0  0  0  0  0  0  0  0  0  0  0
   10.0220    1.0430   23.6570 C   0  0  0  0  0  0  0  0  0  0  0  0
    9.4200   -0.0840   22.9530 C   0  0  2  0  0  0  0  0  0  0  0  0
    6.9440    0.2550   18.0100 N   0  0  0  0  0  0  0  0  0  0  0  0
    7.6830   -0.5170   18.7600 N   0  0  0  0  0  0  0  0  0  0  0  0
    6.1600    0.3870   20.1140 N   0  0  0  0  0  0  0  0  0  0  0  0
    8.0810   -0.9750   21.0820 N   0  0  0  0  0  0  0  0  0  0  0  0
    9.1870    1.1500   21.0630 O   0  0  0  0  0  0  0  0  0  0  0  0
    9.2637   -4.8607   25.8240 O   0  0  0  0  0  0  0  0  0  0  0  0
   14.7910   -0.1822   25.8428 H   0  0  0  0  0  0  0  0  0  0  0  0
   12.7077   -0.5049   27.1507 H   0  0  0  0  0  0  0  0  0  0  0  0
   14.6777    0.7050   23.5282 H   0  0  0  0  0  0  0  0  0  0  0  0
   10.5160    0.0554   26.1521 H   0  0  0  0  0  0  0  0  0  0  0  0
   12.4911    1.2683   22.5207 H   0  0  0  0  0  0  0  0  0  0  0  0
    7.5962   -0.7776   24.7981 H   0  0  0  0  0  0  0  0  0  0  0  0
   11.0395   -2.1844   22.6346 H   0  0  0  0  0  0  0  0  0  0  0  0
    7.5664   -2.8672   26.1058 H   0  0  0  0  0  0  0  0  0  0  0  0
   11.0120   -4.2666   23.9463 H   0  0  0  0  0  0  0  0  0  0  0  0
    4.7733    2.0700   17.5071 H   0  0  0  0  0  0  0  0  0  0  0  0
    3.2813    2.7836   19.2995 H   0  0  0  0  0  0  0  0  0  0  0  0
    3.6335    1.9977   21.6542 H   0  0  0  0  0  0  0  0  0  0  0  0
    5.5067    0.4537   22.1474 H   0  0  0  0  0  0  0  0  0  0  0  0
    8.3331   -5.9645   27.3029 H   0  0  0  0  0  0  0  0  0  0  0  0
    7.2585   -4.9200   26.3221 H   0  0  0  0  0  0  0  0  0  0  0  0
    8.3403   -4.1976   27.5420 H   0  0  0  0  0  0  0  0  0  0  0  0
    9.3529    1.4272   24.4380 H   0  0  0  0  0  0  0  0  0  0  0  0
   10.1743    1.8827   22.9648 H   0  0  0  0  0  0  0  0  0  0  0  0
   10.7346   -0.4307   22.4468 H   0  0  0  0  0  0  0  0  0  0  0  0
    8.1152   -1.8120   21.3518 H   0  0  0  0  0  0  0  0  0  0  0  0
  1  2  1  0  0  0  0
  1  3  2  0  0  0  0
  2  4  2  0  0  0  0
  3  5  1  0  0  0  0
  4 10  1  0  0  0  0
  5 10  2  0  0  0  0
  6  8  2  0  0  0  0
  6 11  1  0  0  0  0
  7  9  1  0  0  0  0
  7 11  2  0  0  0  0
  8 12  1  0  0  0  0
  9 12  2  0  0  0  0
 10 21  1  0  0  0  0
 11 22  1  0  0  0  0
 12 28  1  0  0  0  0
 13 15  1  0  0  0  0
 13 23  2  0  0  0  0
 13 25  1  0  0  0  0
 14 24  2  0  0  0  0
 14 25  1  0  0  0  0
 14 26  1  0  0  0  0
 15 16  2  0  0  0  0
 16 17  1  0  0  0  0
 17 18  2  0  0  0  0
 18 25  1  0  0  0  0
 19 22  1  0  0  0  0
 19 26  1  0  0  0  0
 19 27  2  0  0  0  0
 20 28  1  0  0  0  0
 21 22  1  6  0  0  0
 23 24  1  0  0  0  0
  1 29  1  0  0  0  0
  2 30  1  0  0  0  0
  3 31  1  0  0  0  0
  4 32  1  0  0  0  0
  5 33  1  0  0  0  0
  6 34  1  0  0  0  0
  7 35  1  0  0  0  0
  8 36  1  0  0  0  0
  9 37  1  0  0  0  0
 15 38  1  0  0  0  0
 16 39  1  0  0  0  0
 17 40  1  0  0  0  0
 18 41  1  0  0  0  0
 20 42  1  0  0  0  0
 20 43  1  0  0  0  0
 20 44  1  0  0  0  0
 21 45  1  0  0  0  0
 21 46  1  0  0  0  0
 22 47  1  0  0  0  0
 26 48  1  0  0  0  0
M  END
> <clash_score>
0.6066498424716199

> <docking_score>
-7.869753837585449

> <overlap_score>
0.9279405474662781

$$$$
BENZO_324_1
  -OEChem-08222022413D

 45 48  0     1  0  0  0  0  0999 V2000
    8.3510   -1.5420   24.6110 C   0  0  0  0  0  0  0  0  0  0  0  0
   10.2760   -2.3270   23.4020 C   0  0  0  0  0  0  0  0  0  0  0  0
    8.3310   -2.7170   25.3430 C   0  0  0  0  0  0  0  0  0  0  0  0
   10.2570   -3.5000   24.1350 C   0  0  0  0  0  0  0  0  0  0  0  0
   12.2216    2.3786   23.3498 C   0  0  0  0  0  0  0  0  0  0  0  0
   13.5684    2.1883   23.1319 C   0  0  0  0  0  0  0  0  0  0  0  0
   12.3438    0.0592   23.2626 C   0  0  0  0  0  0  0  0  0  0  0  0
    9.3300   -1.3350   23.6390 C   0  0  0  0  0  0  0  0  0  0  0  0
   11.5121    1.1453   23.4257 C   0  0  0  0  0  0  0  0  0  0  0  0
    9.2850   -3.7090   25.1090 C   0  0  0  0  0  0  0  0  0  0  0  0
    5.9810    0.8330   18.8060 C   0  0  0  0  0  0  0  0  0  0  0  0
    7.2210   -0.4620   20.0350 C   0  0  0  0  0  0  0  0  0  0  0  0
    4.9400    1.7060   18.5060 C   0  0  0  0  0  0  0  0  0  0  0  0
    4.0980    2.1130   19.5350 C   0  0  0  0  0  0  0  0  0  0  0  0
    4.2970    1.6690   20.8430 C   0  0  0  0  0  0  0  0  0  0  0  0
    5.3360    0.8000   21.1530 C   0  0  0  0  0  0  0  0  0  0  0  0
    8.9510    0.1280   21.6880 C   0  0  0  0  0  0  0  0  0  0  0  0
    8.2362   -4.9970   26.8045 C   0  0  0  0  0  0  0  0  0  0  0  0
   10.0220    1.0430   23.6570 C   0  0  0  0  0  0  0  0  0  0  0  0
    9.4200   -0.0840   22.9530 C   0  0  1  0  0  0  0  0  0  0  0  0
    6.9440    0.2550   18.0100 N   0  0  0  0  0  0  0  0  0  0  0  0
    7.6830   -0.5170   18.7600 N   0  0  0  0  0  0  0  0  0  0  0  0
    6.1600    0.3870   20.1140 N   0  0  0  0  0  0  0  0  0  0  0  0
    8.0810   -0.9750   21.0820 N   0  0  0  0  0  0  0  0  0  0  0  0
    9.1870    1.1500   21.0630 O   0  0  0  0  0  0  0  0  0  0  0  0
    9.2637   -4.8607   25.8240 O   0  0  0  0  0  0  0  0  0  0  0  0
   13.9727    0.5281   23.0196 S   0  0  0  0  0  0  0  0  0  0  0  0
    7.5962   -0.7776   24.7981 H   0  0  0  0  0  0  0  0  0  0  0  0
   11.0395   -2.1844   22.6346 H   0  0  0  0  0  0  0  0  0  0  0  0
    7.5664   -2.8672   26.1058 H   0  0  0  0  0  0  0  0  0  0  0  0
   11.0120   -4.2666   23.9463 H   0  0  0  0  0  0  0  0  0  0  0  0
   11.7708    3.3580   23.4491 H   0  0  0  0  0  0  0  0  0  0  0  0
   14.3341    2.9446   23.0326 H   0  0  0  0  0  0  0  0  0  0  0  0
   12.0768   -0.9885   23.2727 H   0  0  0  0  0  0  0  0  0  0  0  0
    4.7733    2.0700   17.5071 H   0  0  0  0  0  0  0  0  0  0  0  0
    3.2813    2.7836   19.2995 H   0  0  0  0  0  0  0  0  0  0  0  0
    3.6335    1.9977   21.6542 H   0  0  0  0  0  0  0  0  0  0  0  0
    5.5067    0.4537   22.1474 H   0  0  0  0  0  0  0  0  0  0  0  0
    8.3331   -5.9645   27.3029 H   0  0  0  0  0  0  0  0  0  0  0  0
    7.2585   -4.9200   26.3221 H   0  0  0  0  0  0  0  0  0  0  0  0
    8.3403   -4.1976   27.5420 H   0  0  0  0  0  0  0  0  0  0  0  0
    9.8253    0.9889   24.7357 H   0  0  0  0  0  0  0  0  0  0  0  0
    9.5635    1.9845   23.3241 H   0  0  0  0  0  0  0  0  0  0  0  0
    8.1288    0.3205   23.5156 H   0  0  0  0  0  0  0  0  0  0  0  0
    8.1152   -1.8120   21.3518 H   0  0  0  0  0  0  0  0  0  0  0  0
  1  3  2  0  0  0  0
  1  8  1  0  0  0  0
  2  4  1  0  0  0  0
  2  8  2  0  0  0  0
  3 10  1  0  0  0  0
  4 10  2  0  0  0  0
  5  6  2  0  0  0  0
  5  9  1  0  0  0  0
  6 27  1  0  0  0  0
  7  9  2  0  0  0  0
  7 27  1  0  0  0  0
  8 20  1  0  0  0  0
  9 19  1  0  0  0  0
 10 26  1  0  0  0  0
 11 13  1  0  0  0  0
 11 21  2  0  0  0  0
 11 23  1  0  0  0  0
 12 22  2  0  0  0  0
 12 23  1  0  0  0  0
 12 24  1  0  0  0  0
 13 14  2  0  0  0  0
 14 15  1  0  0  0  0
 15 16  2  0  0  0  0
 16 23  1  0  0  0  0
 17 20  1  0  0  0  0
 17 24  1  0  0  0  0
 17 25  2  0  0  0  0
 18 26  1  0  0  0  0
 19 20  1  1  0  0  0
 21 22  1  0  0  0  0
  1 28  1  0  0  0  0
  2 29  1  0  0  0  0
  3 30  1  0  0  0  0
  4 31  1  0  0  0  0
  5 32  1  0  0  0  0
  6 33  1  0  0  0  0
  7 34  1  0  0  0  0
 13 35  1  0  0  0  0
 14 36  1  0  0  0  0
 15 37  1  0  0  0  0
 16 38  1  0  0  0  0
 18 39  1  0  0  0  0
 18 40  1  0  0  0  0
 18 41  1  0  0  0  0
 19 42  1  0  0  0  0
 19 43  1  0  0  0  0
 20 44  1  0  0  0  0
 24 45  1  0  0  0  0
M  END
> <clash_score>
0

> <docking_score>
-9.70355224609375

> <overlap_score>
0.9932428002357483

$$$$
BENZO_324_2
  -OEChem-08222022413D

 45 48  0     1  0  0  0  0  0999 V2000
    8.3510   -1.5420   24.6110 C   0  0  0  0  0  0  0  0  0  0  0  0
   10.2760   -2.3270   23.4020 C   0  0  0  0  0  0  0  0  0  0  0  0
    8.3310   -2.7170   25.3430 C   0  0  0  0  0  0  0  0  0  0  0  0
   10.2570   -3.5000   24.1350 C   0  0  0  0  0  0  0  0  0  0  0  0
   11.0468    0.9536   26.0357 C   0  0  0  0  0  0  0  0  0  0  0  0
   12.1250    0.4348   26.7183 C   0  0  0  0  0  0  0  0  0  0  0  0
   12.1733   -0.1537   24.3307 C   0  0  0  0  0  0  0  0  0  0  0  0
    9.3300   -1.3350   23.6390 C   0  0  0  0  0  0  0  0  0  0  0  0
   11.0747    0.6126   24.6525 C   0  0  0  0  0  0  0  0  0  0  0  0
    9.2850   -3.7090   25.1090 C   0  0  0  0  0  0  0  0  0  0  0  0
    5.9810    0.8330   18.8060 C   0  0  0  0  0  0  0  0  0  0  0  0
    7.2210   -0.4620   20.0350 C   0  0  0  0  0  0  0  0  0  0  0  0
    4.9400    1.7060   18.5060 C   0  0  0  0  0  0  0  0  0  0  0  0
    4.0980    2.1130   19.5350 C   0  0  0  0  0  0  0  0  0  0  0  0
    4.2970    1.6690   20.8430 C   0  0  0  0  0  0  0  0  0  0  0  0
    5.3360    0.8000   21.1530 C   0  0  0  0  0  0  0  0  0  0  0  0
    8.9510    0.1280   21.6880 C   0  0  0  0  0  0  0  0  0  0  0  0
    8.2362   -4.9970   26.8045 C   0  0  0  0  0  0  0  0  0  0  0  0
   10.0220    1.0430   23.6570 C   0  0  0  0  0  0  0  0  0  0  0  0
    9.4200   -0.0840   22.9530 C   0  0  2  0  0  0  0  0  0  0  0  0
    6.9440    0.2550   18.0100 N   0  0  0  0  0  0  0  0  0  0  0  0
    7.6830   -0.5170   18.7600 N   0  0  0  0  0  0  0  0  0  0  0  0
    6.1600    0.3870   20.1140 N   0  0  0  0  0  0  0  0  0  0  0  0
    8.0810   -0.9750   21.0820 N   0  0  0  0  0  0  0  0  0  0  0  0
    9.1870    1.1500   21.0630 O   0  0  0  0  0  0  0  0  0  0  0  0
    9.2637   -4.8607   25.8240 O   0  0  0  0  0  0  0  0  0  0  0  0
   13.1649   -0.4592   25.6929 S   0  0  0  0  0  0  0  0  0  0  0  0
    7.5962   -0.7776   24.7981 H   0  0  0  0  0  0  0  0  0  0  0  0
   11.0395   -2.1844   22.6346 H   0  0  0  0  0  0  0  0  0  0  0  0
    7.5664   -2.8672   26.1058 H   0  0  0  0  0  0  0  0  0  0  0  0
   11.0120   -4.2666   23.9463 H   0  0  0  0  0  0  0  0  0  0  0  0
   10.2771    1.5494   26.5100 H   0  0  0  0  0  0  0  0  0  0  0  0
   12.3521    0.5386   27.7699 H   0  0  0  0  0  0  0  0  0  0  0  0
   12.4454   -0.5497   23.3621 H   0  0  0  0  0  0  0  0  0  0  0  0
    4.7733    2.0700   17.5071 H   0  0  0  0  0  0  0  0  0  0  0  0
    3.2813    2.7836   19.2995 H   0  0  0  0  0  0  0  0  0  0  0  0
    3.6335    1.9977   21.6542 H   0  0  0  0  0  0  0  0  0  0  0  0
    5.5067    0.4537   22.1474 H   0  0  0  0  0  0  0  0  0  0  0  0
    8.3331   -5.9645   27.3029 H   0  0  0  0  0  0  0  0  0  0  0  0
    7.2585   -4.9200   26.3221 H   0  0  0  0  0  0  0  0  0  0  0  0
    8.3403   -4.1976   27.5420 H   0  0  0  0  0  0  0  0  0  0  0  0
    9.2602    1.6432   24.1714 H   0  0  0  0  0  0  0  0  0  0  0  0
   10.4960    1.7269   22.9392 H   0  0  0  0  0  0  0  0  0  0  0  0
   10.7346   -0.4307   22.4468 H   0  0  0  0  0  0  0  0  0  0  0  0
    8.1152   -1.8120   21.3518 H   0  0  0  0  0  0  0  0  0  0  0  0
  1  3  2  0  0  0  0
  1  8  1  0  0  0  0
  2  4  1  0  0  0  0
  2  8  2  0  0  0  0
  3 10  1  0  0  0  0
  4 10  2  0  0  0  0
  5  6  2  0  0  0  0
  5  9  1  0  0  0  0
  6 27  1  0  0  0  0
  7  9  2  0  0  0  0
  7 27  1  0  0  0  0
  8 20  1  0  0  0  0
  9 19  1  0  0  0  0
 10 26  1  0  0  0  0
 11 13  1  0  0  0  0
 11 21  2  0  0  0  0
 11 23  1  0  0  0  0
 12 22  2  0  0  0  0
 12 23  1  0  0  0  0
 12 24  1  0  0  0  0
 13 14  2  0  0  0  0
 14 15  1  0  0  0  0
 15 16  2  0  0  0  0
 16 23  1  0  0  0  0
 17 20  1  0  0  0  0
 17 24  1  0  0  0  0
 17 25  2  0  0  0  0
 18 26  1  0  0  0  0
 19 20  1  6  0  0  0
 21 22  1  0  0  0  0
  1 28  1  0  0  0  0
  2 29  1  0  0  0  0
  3 30  1  0  0  0  0
  4 31  1  0  0  0  0
  5 32  1  0  0  0  0
  6 33  1  0  0  0  0
  7 34  1  0  0  0  0
 13 35  1  0  0  0  0
 14 36  1  0  0  0  0
 15 37  1  0  0  0  0
 16 38  1  0  0  0  0
 18 39  1  0  0  0  0
 18 40  1  0  0  0  0
 18 41  1  0  0  0  0
 19 42  1  0  0  0  0
 19 43  1  0  0  0  0
 20 44  1  0  0  0  0
 24 45  1  0  0  0  0
M  END
> <clash_score>
0

> <docking_score>
-6.863921165466309

> <overlap_score>
0.8776481747627258

$$$$
BENZO_327_1
  -OEChem-08222022413D

 48 51  0     1  0  0  0  0  0999 V2000
    8.3510   -1.5420   24.6110 C   0  0  0  0  0  0  0  0  0  0  0  0
   10.2760   -2.3270   23.4020 C   0  0  0  0  0  0  0  0  0  0  0  0
    8.3310   -2.7170   25.3430 C   0  0  0  0  0  0  0  0  0  0  0  0
   10.2570   -3.5000   24.1350 C   0  0  0  0  0  0  0  0  0  0  0  0
   12.3075    2.3068   23.4193 C   0  0  0  0  0  0  0  0  0  0  0  0
   12.3951    0.1231   23.1770 C   0  0  0  0  0  0  0  0  0  0  0  0
    9.3300   -1.3350   23.6390 C   0  0  0  0  0  0  0  0  0  0  0  0
   11.5121    1.1453   23.4257 C   0  0  0  0  0  0  0  0  0  0  0  0
    9.2850   -3.7090   25.1090 C   0  0  0  0  0  0  0  0  0  0  0  0
    5.9810    0.8330   18.8060 C   0  0  0  0  0  0  0  0  0  0  0  0
    7.2210   -0.4620   20.0350 C   0  0  0  0  0  0  0  0  0  0  0  0
    4.9400    1.7060   18.5060 C   0  0  0  0  0  0  0  0  0  0  0  0
    4.0980    2.1130   19.5350 C   0  0  0  0  0  0  0  0  0  0  0  0
    4.2970    1.6690   20.8430 C   0  0  0  0  0  0  0  0  0  0  0  0
    5.3360    0.8000   21.1530 C   0  0  0  0  0  0  0  0  0  0  0  0
    8.9510    0.1280   21.6880 C   0  0  0  0  0  0  0  0  0  0  0  0
   14.8664    0.0395   22.7716 C   0  0  0  0  0  0  0  0  0  0  0  0
    8.2362   -4.9970   26.8045 C   0  0  0  0  0  0  0  0  0  0  0  0
   10.0220    1.0430   23.6570 C   0  0  0  0  0  0  0  0  0  0  0  0
    9.4200   -0.0840   22.9530 C   0  0  1  0  0  0  0  0  0  0  0  0
   13.5967    2.0476   23.1851 N   0  0  0  0  0  0  0  0  0  0  0  0
    6.9440    0.2550   18.0100 N   0  0  0  0  0  0  0  0  0  0  0  0
    7.6830   -0.5170   18.7600 N   0  0  0  0  0  0  0  0  0  0  0  0
   13.6181    0.7115   23.0422 N   0  0  0  0  0  0  0  0  0  0  0  0
    6.1600    0.3870   20.1140 N   0  0  0  0  0  0  0  0  0  0  0  0
    8.0810   -0.9750   21.0820 N   0  0  0  0  0  0  0  0  0  0  0  0
    9.1870    1.1500   21.0630 O   0  0  0  0  0  0  0  0  0  0  0  0
    9.2637   -4.8607   25.8240 O   0  0  0  0  0  0  0  0  0  0  0  0
    7.5962   -0.7776   24.7981 H   0  0  0  0  0  0  0  0  0  0  0  0
   11.0395   -2.1844   22.6346 H   0  0  0  0  0  0  0  0  0  0  0  0
    7.5664   -2.8672   26.1058 H   0  0  0  0  0  0  0  0  0  0  0  0
   11.0120   -4.2666   23.9463 H   0  0  0  0  0  0  0  0  0  0  0  0
   12.0040    3.3322   23.5761 H   0  0  0  0  0  0  0  0  0  0  0  0
   12.2609   -0.9465   23.0878 H   0  0  0  0  0  0  0  0  0  0  0  0
    4.7733    2.0700   17.5071 H   0  0  0  0  0  0  0  0  0  0  0  0
    3.2813    2.7836   19.2995 H   0  0  0  0  0  0  0  0  0  0  0  0
    3.6335    1.9977   21.6542 H   0  0  0  0  0  0  0  0  0  0  0  0
    5.5067    0.4537   22.1474 H   0  0  0  0  0  0  0  0  0  0  0  0
   14.9942   -0.0107   21.6871 H   0  0  0  0  0  0  0  0  0  0  0  0
   15.6877    0.5992   23.2278 H   0  0  0  0  0  0  0  0  0  0  0  0
   14.8362   -0.9658   23.2010 H   0  0  0  0  0  0  0  0  0  0  0  0
    8.3331   -5.9645   27.3029 H   0  0  0  0  0  0  0  0  0  0  0  0
    7.2585   -4.9200   26.3221 H   0  0  0  0  0  0  0  0  0  0  0  0
    8.3403   -4.1976   27.5420 H   0  0  0  0  0  0  0  0  0  0  0  0
    9.8253    0.9889   24.7357 H   0  0  0  0  0  0  0  0  0  0  0  0
    9.5635    1.9845   23.3241 H   0  0  0  0  0  0  0  0  0  0  0  0
    8.1288    0.3205   23.5156 H   0  0  0  0  0  0  0  0  0  0  0  0
    8.1152   -1.8120   21.3518 H   0  0  0  0  0  0  0  0  0  0  0  0
  1  3  2  0  0  0  0
  1  7  1  0  0  0  0
  2  4  1  0  0  0  0
  2  7  2  0  0  0  0
  3  9  1  0  0  0  0
  4  9  2  0  0  0  0
  5  8  1  0  0  0  0
  5 21  2  0  0  0  0
  6  8  2  0  0  0  0
  6 24  1  0  0  0  0
  7 20  1  0  0  0  0
  8 19  1  0  0  0  0
  9 28  1  0  0  0  0
 10 12  1  0  0  0  0
 10 22  2  0  0  0  0
 10 25  1  0  0  0  0
 11 23  2  0  0  0  0
 11 25  1  0  0  0  0
 11 26  1  0  0  0  0
 12 13  2  0  0  0  0
 13 14  1  0  0  0  0
 14 15  2  0  0  0  0
 15 25  1  0  0  0  0
 16 20  1  0  0  0  0
 16 26  1  0  0  0  0
 16 27  2  0  0  0  0
 17 24  1  0  0  0  0
 18 28  1  0  0  0  0
 19 20  1  1  0  0  0
 21 24  1  0  0  0  0
 22 23  1  0  0  0  0
  1 29  1  0  0  0  0
  2 30  1  0  0  0  0
  3 31  1  0  0  0  0
  4 32  1  0  0  0  0
  5 33  1  0  0  0  0
  6 34  1  0  0  0  0
 12 35  1  0  0  0  0
 13 36  1  0  0  0  0
 14 37  1  0  0  0  0
 15 38  1  0  0  0  0
 17 39  1  0  0  0  0
 17 40  1  0  0  0  0
 17 41  1  0  0  0  0
 18 42  1  0  0  0  0
 18 43  1  0  0  0  0
 18 44  1  0  0  0  0
 19 45  1  0  0  0  0
 19 46  1  0  0  0  0
 20 47  1  0  0  0  0
 26 48  1  0  0  0  0
M  END
> <clash_score>
0

> <docking_score>
-9.576498031616211

> <overlap_score>
1.0079171657562256

$$$$
BENZO_327_2
  -OEChem-08222022413D

 48 51  0     1  0  0  0  0  0999 V2000
    8.3510   -1.5420   24.6110 C   0  0  0  0  0  0  0  0  0  0  0  0
   10.2760   -2.3270   23.4020 C   0  0  0  0  0  0  0  0  0  0  0  0
    8.3310   -2.7170   25.3430 C   0  0  0  0  0  0  0  0  0  0  0  0
   10.2570   -3.5000   24.1350 C   0  0  0  0  0  0  0  0  0  0  0  0
   10.9173    2.8198   21.9486 C   0  0  0  0  0  0  0  0  0  0  0  0
   12.4283    1.4668   22.7978 C   0  0  0  0  0  0  0  0  0  0  0  0
    9.3300   -1.3350   23.6390 C   0  0  0  0  0  0  0  0  0  0  0  0
   11.0832    1.7414   22.8382 C   0  0  0  0  0  0  0  0  0  0  0  0
    9.2850   -3.7090   25.1090 C   0  0  0  0  0  0  0  0  0  0  0  0
    5.9810    0.8330   18.8060 C   0  0  0  0  0  0  0  0  0  0  0  0
    7.2210   -0.4620   20.0350 C   0  0  0  0  0  0  0  0  0  0  0  0
    4.9400    1.7060   18.5060 C   0  0  0  0  0  0  0  0  0  0  0  0
    4.0980    2.1130   19.5350 C   0  0  0  0  0  0  0  0  0  0  0  0
    4.2970    1.6690   20.8430 C   0  0  0  0  0  0  0  0  0  0  0  0
    5.3360    0.8000   21.1530 C   0  0  0  0  0  0  0  0  0  0  0  0
    8.9510    0.1280   21.6880 C   0  0  0  0  0  0  0  0  0  0  0  0
   14.3557    2.4668   21.5472 C   0  0  0  0  0  0  0  0  0  0  0  0
    8.2362   -4.9970   26.8045 C   0  0  0  0  0  0  0  0  0  0  0  0
   10.0220    1.0430   23.6570 C   0  0  0  0  0  0  0  0  0  0  0  0
    9.4200   -0.0840   22.9530 C   0  0  2  0  0  0  0  0  0  0  0  0
   12.0654    3.2041   21.3845 N   0  0  0  0  0  0  0  0  0  0  0  0
    6.9440    0.2550   18.0100 N   0  0  0  0  0  0  0  0  0  0  0  0
    7.6830   -0.5170   18.7600 N   0  0  0  0  0  0  0  0  0  0  0  0
   12.9656    2.3627   21.9209 N   0  0  0  0  0  0  0  0  0  0  0  0
    6.1600    0.3870   20.1140 N   0  0  0  0  0  0  0  0  0  0  0  0
    8.0810   -0.9750   21.0820 N   0  0  0  0  0  0  0  0  0  0  0  0
    9.1870    1.1500   21.0630 O   0  0  0  0  0  0  0  0  0  0  0  0
    9.2637   -4.8607   25.8240 O   0  0  0  0  0  0  0  0  0  0  0  0
    7.5962   -0.7776   24.7981 H   0  0  0  0  0  0  0  0  0  0  0  0
   11.0395   -2.1844   22.6346 H   0  0  0  0  0  0  0  0  0  0  0  0
    7.5664   -2.8672   26.1058 H   0  0  0  0  0  0  0  0  0  0  0  0
   11.0120   -4.2666   23.9463 H   0  0  0  0  0  0  0  0  0  0  0  0
   10.0090    3.3439   21.6870 H   0  0  0  0  0  0  0  0  0  0  0  0
   13.0342    0.7293   23.3067 H   0  0  0  0  0  0  0  0  0  0  0  0
    4.7733    2.0700   17.5071 H   0  0  0  0  0  0  0  0  0  0  0  0
    3.2813    2.7836   19.2995 H   0  0  0  0  0  0  0  0  0  0  0  0
    3.6335    1.9977   21.6542 H   0  0  0  0  0  0  0  0  0  0  0  0
    5.5067    0.4537   22.1474 H   0  0  0  0  0  0  0  0  0  0  0  0
   14.5208    1.8230   20.6793 H   0  0  0  0  0  0  0  0  0  0  0  0
   14.5900    3.5065   21.3020 H   0  0  0  0  0  0  0  0  0  0  0  0
   14.9803    2.1472   22.3860 H   0  0  0  0  0  0  0  0  0  0  0  0
    8.3331   -5.9645   27.3029 H   0  0  0  0  0  0  0  0  0  0  0  0
    7.2585   -4.9200   26.3221 H   0  0  0  0  0  0  0  0  0  0  0  0
    8.3403   -4.1976   27.5420 H   0  0  0  0  0  0  0  0  0  0  0  0
   10.4530    0.7282   24.6164 H   0  0  0  0  0  0  0  0  0  0  0  0
    9.2514    1.7835   23.9128 H   0  0  0  0  0  0  0  0  0  0  0  0
   10.7346   -0.4307   22.4468 H   0  0  0  0  0  0  0  0  0  0  0  0
    8.1152   -1.8120   21.3518 H   0  0  0  0  0  0  0  0  0  0  0  0
  1  3  2  0  0  0  0
  1  7  1  0  0  0  0
  2  4  1  0  0  0  0
  2  7  2  0  0  0  0
  3  9  1  0  0  0  0
  4  9  2  0  0  0  0
  5  8  1  0  0  0  0
  5 21  2  0  0  0  0
  6  8  2  0  0  0  0
  6 24  1  0  0  0  0
  7 20  1  0  0  0  0
  8 19  1  0  0  0  0
  9 28  1  0  0  0  0
 10 12  1  0  0  0  0
 10 22  2  0  0  0  0
 10 25  1  0  0  0  0
 11 23  2  0  0  0  0
 11 25  1  0  0  0  0
 11 26  1  0  0  0  0
 12 13  2  0  0  0  0
 13 14  1  0  0  0  0
 14 15  2  0  0  0  0
 15 25  1  0  0  0  0
 16 20  1  0  0  0  0
 16 26  1  0  0  0  0
 16 27  2  0  0  0  0
 17 24  1  0  0  0  0
 18 28  1  0  0  0  0
 19 20  1  6  0  0  0
 21 24  1  0  0  0  0
 22 23  1  0  0  0  0
  1 29  1  0  0  0  0
  2 30  1  0  0  0  0
  3 31  1  0  0  0  0
  4 32  1  0  0  0  0
  5 33  1  0  0  0  0
  6 34  1  0  0  0  0
 12 35  1  0  0  0  0
 13 36  1  0  0  0  0
 14 37  1  0  0  0  0
 15 38  1  0  0  0  0
 17 39  1  0  0  0  0
 17 40  1  0  0  0  0
 17 41  1  0  0  0  0
 18 42  1  0  0  0  0
 18 43  1  0  0  0  0
 18 44  1  0  0  0  0
 19 45  1  0  0  0  0
 19 46  1  0  0  0  0
 20 47  1  0  0  0  0
 26 48  1  0  0  0  0
M  END
> <clash_score>
0

> <docking_score>
-7.539626598358154

> <overlap_score>
0.9638800024986267

$$$$
BENZO_326_2
  -OEChem-08222022413D

 48 51  0     1  0  0  0  0  0999 V2000
   12.6560   -0.1194   26.1379 C   0  0  0  0  0  0  0  0  0  0  0  0
   11.4219    0.1994   25.5714 C   0  0  0  0  0  0  0  0  0  0  0  0
    8.3510   -1.5420   24.6110 C   0  0  0  0  0  0  0  0  0  0  0  0
   10.2760   -2.3270   23.4020 C   0  0  0  0  0  0  0  0  0  0  0  0
    8.3310   -2.7170   25.3430 C   0  0  0  0  0  0  0  0  0  0  0  0
   10.2570   -3.5000   24.1350 C   0  0  0  0  0  0  0  0  0  0  0  0
   13.8281    0.0614   25.4035 C   0  0  0  0  0  0  0  0  0  0  0  0
   12.5318    0.8798   23.5362 C   0  0  0  0  0  0  0  0  0  0  0  0
    9.3300   -1.3350   23.6390 C   0  0  0  0  0  0  0  0  0  0  0  0
   11.3598    0.6989   24.2706 C   0  0  0  0  0  0  0  0  0  0  0  0
    9.2850   -3.7090   25.1090 C   0  0  0  0  0  0  0  0  0  0  0  0
   13.7660    0.5610   24.1027 C   0  0  0  0  0  0  0  0  0  0  0  0
    5.9810    0.8330   18.8060 C   0  0  0  0  0  0  0  0  0  0  0  0
    7.2210   -0.4620   20.0350 C   0  0  0  0  0  0  0  0  0  0  0  0
    4.9400    1.7060   18.5060 C   0  0  0  0  0  0  0  0  0  0  0  0
    4.0980    2.1130   19.5350 C   0  0  0  0  0  0  0  0  0  0  0  0
    4.2970    1.6690   20.8430 C   0  0  0  0  0  0  0  0  0  0  0  0
    5.3360    0.8000   21.1530 C   0  0  0  0  0  0  0  0  0  0  0  0
    8.9510    0.1280   21.6880 C   0  0  0  0  0  0  0  0  0  0  0  0
    8.2362   -4.9970   26.8045 C   0  0  0  0  0  0  0  0  0  0  0  0
   10.0220    1.0430   23.6570 C   0  0  0  0  0  0  0  0  0  0  0  0
    9.4200   -0.0840   22.9530 C   0  0  2  0  0  0  0  0  0  0  0  0
    6.9440    0.2550   18.0100 N   0  0  0  0  0  0  0  0  0  0  0  0
    7.6830   -0.5170   18.7600 N   0  0  0  0  0  0  0  0  0  0  0  0
    6.1600    0.3870   20.1140 N   0  0  0  0  0  0  0  0  0  0  0  0
    8.0810   -0.9750   21.0820 N   0  0  0  0  0  0  0  0  0  0  0  0
    9.1870    1.1500   21.0630 O   0  0  0  0  0  0  0  0  0  0  0  0
    9.2637   -4.8607   25.8240 O   0  0  0  0  0  0  0  0  0  0  0  0
   15.2122    0.7829   23.1967 Cl  0  0  0  0  0  0  0  0  0  0  0  0
   12.7039   -0.5086   27.1508 H   0  0  0  0  0  0  0  0  0  0  0  0
   10.5137    0.0551   26.1509 H   0  0  0  0  0  0  0  0  0  0  0  0
    7.5962   -0.7776   24.7981 H   0  0  0  0  0  0  0  0  0  0  0  0
   11.0395   -2.1844   22.6346 H   0  0  0  0  0  0  0  0  0  0  0  0
    7.5664   -2.8672   26.1058 H   0  0  0  0  0  0  0  0  0  0  0  0
   11.0120   -4.2666   23.9463 H   0  0  0  0  0  0  0  0  0  0  0  0
   14.7829   -0.1916   25.8577 H   0  0  0  0  0  0  0  0  0  0  0  0
   12.4781    1.2701   22.5225 H   0  0  0  0  0  0  0  0  0  0  0  0
    4.7733    2.0700   17.5071 H   0  0  0  0  0  0  0  0  0  0  0  0
    3.2813    2.7836   19.2995 H   0  0  0  0  0  0  0  0  0  0  0  0
    3.6335    1.9977   21.6542 H   0  0  0  0  0  0  0  0  0  0  0  0
    5.5067    0.4537   22.1474 H   0  0  0  0  0  0  0  0  0  0  0  0
    8.3331   -5.9645   27.3029 H   0  0  0  0  0  0  0  0  0  0  0  0
    7.2585   -4.9200   26.3221 H   0  0  0  0  0  0  0  0  0  0  0  0
    8.3403   -4.1976   27.5420 H   0  0  0  0  0  0  0  0  0  0  0  0
    9.3529    1.4272   24.4380 H   0  0  0  0  0  0  0  0  0  0  0  0
   10.1743    1.8827   22.9648 H   0  0  0  0  0  0  0  0  0  0  0  0
   10.7346   -0.4307   22.4468 H   0  0  0  0  0  0  0  0  0  0  0  0
    8.1152   -1.8120   21.3518 H   0  0  0  0  0  0  0  0  0  0  0  0
  1  2  2  0  0  0  0
  1  7  1  0  0  0  0
  2 10  1  0  0  0  0
  3  5  2  0  0  0  0
  3  9  1  0  0  0  0
  4  6  1  0  0  0  0
  4  9  2  0  0  0  0
  5 11  1  0  0  0  0
  6 11  2  0  0  0  0
  7 12  2  0  0  0  0
  8 10  2  0  0  0  0
  8 12  1  0  0  0  0
  9 22  1  0  0  0  0
 10 21  1  0  0  0  0
 11 28  1  0  0  0  0
 12 29  1  0  0  0  0
 13 15  1  0  0  0  0
 13 23  2  0  0  0  0
 13 25  1  0  0  0  0
 14 24  2  0  0  0  0
 14 25  1  0  0  0  0
 14 26  1  0  0  0  0
 15 16  2  0  0  0  0
 16 17  1  0  0  0  0
 17 18  2  0  0  0  0
 18 25  1  0  0  0  0
 19 22  1  0  0  0  0
 19 26  1  0  0  0  0
 19 27  2  0  0  0  0
 20 28  1  0  0  0  0
 21 22  1  6  0  0  0
 23 24  1  0  0  0  0
  1 30  1  0  0  0  0
  2 31  1  0  0  0  0
  3 32  1  0  0  0  0
  4 33  1  0  0  0  0
  5 34  1  0  0  0  0
  6 35  1  0  0  0  0
  7 36  1  0  0  0  0
  8 37  1  0  0  0  0
 15 38  1  0  0  0  0
 16 39  1  0  0  0  0
 17 40  1  0  0  0  0
 18 41  1  0  0  0  0
 20 42  1  0  0  0  0
 20 43  1  0  0  0  0
 20 44  1  0  0  0  0
 21 45  1  0  0  0  0
 21 46  1  0  0  0  0
 22 47  1  0  0  0  0
 26 48  1  0  0  0  0
M  END
> <clash_score>
0.6070850149950604

> <docking_score>
-6.942306041717529

> <overlap_score>
0.9371460676193237

$$$$
BENZO_326_1
  -OEChem-08222022413D

 48 51  0     1  0  0  0  0  0999 V2000
   13.7719    0.5789   24.0657 C   0  0  0  0  0  0  0  0  0  0  0  0
   12.3966    0.4859   24.2792 C   0  0  0  0  0  0  0  0  0  0  0  0
    8.3510   -1.5420   24.6110 C   0  0  0  0  0  0  0  0  0  0  0  0
   10.2760   -2.3270   23.4020 C   0  0  0  0  0  0  0  0  0  0  0  0
    8.3310   -2.7170   25.3430 C   0  0  0  0  0  0  0  0  0  0  0  0
   10.2570   -3.5000   24.1350 C   0  0  0  0  0  0  0  0  0  0  0  0
   14.2627    1.3315   22.9987 C   0  0  0  0  0  0  0  0  0  0  0  0
   12.0029    1.8978   22.3587 C   0  0  0  0  0  0  0  0  0  0  0  0
    9.3300   -1.3350   23.6390 C   0  0  0  0  0  0  0  0  0  0  0  0
   11.5121    1.1453   23.4257 C   0  0  0  0  0  0  0  0  0  0  0  0
    9.2850   -3.7090   25.1090 C   0  0  0  0  0  0  0  0  0  0  0  0
   13.3782    1.9909   22.1452 C   0  0  0  0  0  0  0  0  0  0  0  0
    5.9810    0.8330   18.8060 C   0  0  0  0  0  0  0  0  0  0  0  0
    7.2210   -0.4620   20.0350 C   0  0  0  0  0  0  0  0  0  0  0  0
    4.9400    1.7060   18.5060 C   0  0  0  0  0  0  0  0  0  0  0  0
    4.0980    2.1130   19.5350 C   0  0  0  0  0  0  0  0  0  0  0  0
    4.2970    1.6690   20.8430 C   0  0  0  0  0  0  0  0  0  0  0  0
    5.3360    0.8000   21.1530 C   0  0  0  0  0  0  0  0  0  0  0  0
    8.9510    0.1280   21.6880 C   0  0  0  0  0  0  0  0  0  0  0  0
    8.2362   -4.9970   26.8045 C   0  0  0  0  0  0  0  0  0  0  0  0
   10.0220    1.0430   23.6570 C   0  0  0  0  0  0  0  0  0  0  0  0
    9.4200   -0.0840   22.9530 C   0  0  1  0  0  0  0  0  0  0  0  0
    6.9440    0.2550   18.0100 N   0  0  0  0  0  0  0  0  0  0  0  0
    7.6830   -0.5170   18.7600 N   0  0  0  0  0  0  0  0  0  0  0  0
    6.1600    0.3870   20.1140 N   0  0  0  0  0  0  0  0  0  0  0  0
    8.0810   -0.9750   21.0820 N   0  0  0  0  0  0  0  0  0  0  0  0
    9.1870    1.1500   21.0630 O   0  0  0  0  0  0  0  0  0  0  0  0
    9.2637   -4.8607   25.8240 O   0  0  0  0  0  0  0  0  0  0  0  0
   13.9842    2.9183   20.8282 Cl  0  0  0  0  0  0  0  0  0  0  0  0
   14.4603    0.0652   24.7304 H   0  0  0  0  0  0  0  0  0  0  0  0
   12.0231   -0.1028   25.1130 H   0  0  0  0  0  0  0  0  0  0  0  0
    7.5962   -0.7776   24.7981 H   0  0  0  0  0  0  0  0  0  0  0  0
   11.0395   -2.1844   22.6346 H   0  0  0  0  0  0  0  0  0  0  0  0
    7.5664   -2.8672   26.1058 H   0  0  0  0  0  0  0  0  0  0  0  0
   11.0120   -4.2666   23.9463 H   0  0  0  0  0  0  0  0  0  0  0  0
   15.3370    1.3949   22.8442 H   0  0  0  0  0  0  0  0  0  0  0  0
   11.3092    2.4105   21.6963 H   0  0  0  0  0  0  0  0  0  0  0  0
    4.7733    2.0700   17.5071 H   0  0  0  0  0  0  0  0  0  0  0  0
    3.2813    2.7836   19.2995 H   0  0  0  0  0  0  0  0  0  0  0  0
    3.6335    1.9977   21.6542 H   0  0  0  0  0  0  0  0  0  0  0  0
    5.5067    0.4537   22.1474 H   0  0  0  0  0  0  0  0  0  0  0  0
    8.3331   -5.9645   27.3029 H   0  0  0  0  0  0  0  0  0  0  0  0
    7.2585   -4.9200   26.3221 H   0  0  0  0  0  0  0  0  0  0  0  0
    8.3403   -4.1976   27.5420 H   0  0  0  0  0  0  0  0  0  0  0  0
    9.8253    0.9889   24.7357 H   0  0  0  0  0  0  0  0  0  0  0  0
    9.5635    1.9845   23.3241 H   0  0  0  0  0  0  0  0  0  0  0  0
    8.1288    0.3205   23.5156 H   0  0  0  0  0  0  0  0  0  0  0  0
    8.1152   -1.8120   21.3518 H   0  0  0  0  0  0  0  0  0  0  0  0
  1  2  2  0  0  0  0
  1  7  1  0  0  0  0
  2 10  1  0  0  0  0
  3  5  2  0  0  0  0
  3  9  1  0  0  0  0
  4  6  1  0  0  0  0
  4  9  2  0  0  0  0
  5 11  1  0  0  0  0
  6 11  2  0  0  0  0
  7 12  2  0  0  0  0
  8 10  2  0  0  0  0
  8 12  1  0  0  0  0
  9 22  1  0  0  0  0
 10 21  1  0  0  0  0
 11 28  1  0  0  0  0
 12 29  1  0  0  0  0
 13 15  1  0  0  0  0
 13 23  2  0  0  0  0
 13 25  1  0  0  0  0
 14 24  2  0  0  0  0
 14 25  1  0  0  0  0
 14 26  1  0  0  0  0
 15 16  2  0  0  0  0
 16 17  1  0  0  0  0
 17 18  2  0  0  0  0
 18 25  1  0  0  0  0
 19 22  1  0  0  0  0
 19 26  1  0  0  0  0
 19 27  2  0  0  0  0
 20 28  1  0  0  0  0
 21 22  1  1  0  0  0
 23 24  1  0  0  0  0
  1 30  1  0  0  0  0
  2 31  1  0  0  0  0
  3 32  1  0  0  0  0
  4 33  1  0  0  0  0
  5 34  1  0  0  0  0
  6 35  1  0  0  0  0
  7 36  1  0  0  0  0
  8 37  1  0  0  0  0
 15 38  1  0  0  0  0
 16 39  1  0  0  0  0
 17 40  1  0  0  0  0
 18 41  1  0  0  0  0
 20 42  1  0  0  0  0
 20 43  1  0  0  0  0
 20 44  1  0  0  0  0
 21 45  1  0  0  0  0
 21 46  1  0  0  0  0
 22 47  1  0  0  0  0
 26 48  1  0  0  0  0
M  END
> <clash_score>
0

> <docking_score>
-7.948241233825684

> <overlap_score>
1.0089621543884277

$$$$
BENZO_329_1
  -OEChem-08222022413D

 58 62  0     1  0  0  0  0  0999 V2000
   13.8377    0.1156   25.4121 C   0  0  0  0  0  0  0  0  0  0  0  0
   12.6675   -0.0758   26.1466 C   0  0  0  0  0  0  0  0  0  0  0  0
   13.7705    0.6078   24.1087 C   0  0  0  0  0  0  0  0  0  0  0  0
   11.4299    0.2250   25.5777 C   0  0  0  0  0  0  0  0  0  0  0  0
   12.5329    0.9085   23.5397 C   0  0  0  0  0  0  0  0  0  0  0  0
    8.3510   -1.5420   24.6110 C   0  0  0  0  0  0  0  0  0  0  0  0
   10.2760   -2.3270   23.4020 C   0  0  0  0  0  0  0  0  0  0  0  0
    8.3310   -2.7170   25.3430 C   0  0  0  0  0  0  0  0  0  0  0  0
   10.2570   -3.5000   24.1350 C   0  0  0  0  0  0  0  0  0  0  0  0
   11.3626    0.7171   24.2742 C   0  0  0  0  0  0  0  0  0  0  0  0
    9.3300   -1.3350   23.6390 C   0  0  0  0  0  0  0  0  0  0  0  0
    9.2850   -3.7090   25.1090 C   0  0  0  0  0  0  0  0  0  0  0  0
    5.9810    0.8330   18.8060 C   0  0  0  0  0  0  0  0  0  0  0  0
    7.2210   -0.4620   20.0350 C   0  0  0  0  0  0  0  0  0  0  0  0
    4.9400    1.7060   18.5060 C   0  0  0  0  0  0  0  0  0  0  0  0
    4.0980    2.1130   19.5350 C   0  0  0  0  0  0  0  0  0  0  0  0
    4.2970    1.6690   20.8430 C   0  0  0  0  0  0  0  0  0  0  0  0
    5.3360    0.8000   21.1530 C   0  0  0  0  0  0  0  0  0  0  0  0
    8.0643   -5.4721   26.3672 C   0  0  0  0  0  0  0  0  0  0  0  0
    8.9510    0.1280   21.6880 C   0  0  0  0  0  0  0  0  0  0  0  0
    8.2649   -6.7591   27.1477 C   0  0  0  0  0  0  0  0  0  0  0  0
    9.4073   -6.6157   28.1377 C   0  0  0  0  0  0  0  0  0  0  0  0
   10.6967   -6.1489   27.4694 C   0  0  0  0  0  0  0  0  0  0  0  0
   10.4950   -5.7059   26.0212 C   0  0  0  0  0  0  0  0  0  0  0  0
   10.0220    1.0430   23.6570 C   0  0  0  0  0  0  0  0  0  0  0  0
    9.4200   -0.0840   22.9530 C   0  0  1  0  0  0  0  0  0  0  0  0
    6.9440    0.2550   18.0100 N   0  0  0  0  0  0  0  0  0  0  0  0
    7.6830   -0.5170   18.7600 N   0  0  0  0  0  0  0  0  0  0  0  0
    6.1600    0.3870   20.1140 N   0  0  0  0  0  0  0  0  0  0  0  0
    9.2624   -4.9267   25.8634 N   0  0  0  0  0  0  0  0  0  0  0  0
    8.0810   -0.9750   21.0820 N   0  0  0  0  0  0  0  0  0  0  0  0
    6.9247   -5.0497   26.1749 O   0  0  0  0  0  0  0  0  0  0  0  0
    9.1870    1.1500   21.0630 O   0  0  0  0  0  0  0  0  0  0  0  0
   14.8013   -0.1174   25.8558 H   0  0  0  0  0  0  0  0  0  0  0  0
   12.7197   -0.4579   27.1619 H   0  0  0  0  0  0  0  0  0  0  0  0
   14.6814    0.7579   23.5369 H   0  0  0  0  0  0  0  0  0  0  0  0
   10.5233    0.0726   26.1574 H   0  0  0  0  0  0  0  0  0  0  0  0
   12.4902    1.2914   22.5235 H   0  0  0  0  0  0  0  0  0  0  0  0
    7.5948   -0.7783   24.7966 H   0  0  0  0  0  0  0  0  0  0  0  0
   11.0389   -2.1844   22.6342 H   0  0  0  0  0  0  0  0  0  0  0  0
    7.5642   -2.8624   26.1050 H   0  0  0  0  0  0  0  0  0  0  0  0
   11.0137   -4.2649   23.9418 H   0  0  0  0  0  0  0  0  0  0  0  0
    4.7733    2.0700   17.5071 H   0  0  0  0  0  0  0  0  0  0  0  0
    3.2813    2.7836   19.2995 H   0  0  0  0  0  0  0  0  0  0  0  0
    3.6335    1.9977   21.6542 H   0  0  0  0  0  0  0  0  0  0  0  0
    5.5067    0.4537   22.1474 H   0  0  0  0  0  0  0  0  0  0  0  0
    7.3543   -6.9829   27.6818 H   0  0  0  0  0  0  0  0  0  0  0  0
    8.4783   -7.5436   26.4372 H   0  0  0  0  0  0  0  0  0  0  0  0
    9.1257   -5.9021   28.9399 H   0  0  0  0  0  0  0  0  0  0  0  0
    9.5814   -7.5840   28.6486 H   0  0  0  0  0  0  0  0  0  0  0  0
   11.1319   -5.3094   28.0513 H   0  0  0  0  0  0  0  0  0  0  0  0
   11.4591   -6.9570   27.5118 H   0  0  0  0  0  0  0  0  0  0  0  0
   11.3214   -5.0711   25.7158 H   0  0  0  0  0  0  0  0  0  0  0  0
   10.4496   -6.5786   25.3788 H   0  0  0  0  0  0  0  0  0  0  0  0
    9.3482    1.4259   24.4346 H   0  0  0  0  0  0  0  0  0  0  0  0
   10.1663    1.8793   22.9589 H   0  0  0  0  0  0  0  0  0  0  0  0
   10.7366   -0.4277   22.4442 H   0  0  0  0  0  0  0  0  0  0  0  0
    8.1354   -1.7990   21.3694 H   0  0  0  0  0  0  0  0  0  0  0  0
  1  2  1  0  0  0  0
  1  3  2  0  0  0  0
  2  4  2  0  0  0  0
  3  5  1  0  0  0  0
  4 10  1  0  0  0  0
  5 10  2  0  0  0  0
  6  8  2  0  0  0  0
  6 11  1  0  0  0  0
  7  9  1  0  0  0  0
  7 11  2  0  0  0  0
  8 12  1  0  0  0  0
  9 12  2  0  0  0  0
 10 25  1  0  0  0  0
 11 26  1  0  0  0  0
 12 30  1  0  0  0  0
 13 15  1  0  0  0  0
 13 27  2  0  0  0  0
 13 29  1  0  0  0  0
 14 28  2  0  0  0  0
 14 29  1  0  0  0  0
 14 31  1  0  0  0  0
 15 16  2  0  0  0  0
 16 17  1  0  0  0  0
 17 18  2  0  0  0  0
 18 29  1  0  0  0  0
 19 21  1  0  0  0  0
 19 30  1  0  0  0  0
 19 32  2  0  0  0  0
 20 26  1  1  0  0  0
 20 31  1  0  0  0  0
 20 33  2  0  0  0  0
 21 22  1  0  0  0  0
 22 23  1  0  0  0  0
 23 24  1  0  0  0  0
 24 30  1  0  0  0  0
 25 26  1  0  0  0  0
 27 28  1  0  0  0  0
  1 34  1  0  0  0  0
  2 35  1  0  0  0  0
  3 36  1  0  0  0  0
  4 37  1  0  0  0  0
  5 38  1  0  0  0  0
  6 39  1  0  0  0  0
  7 40  1  0  0  0  0
  8 41  1  0  0  0  0
  9 42  1  0  0  0  0
 15 43  1  0  0  0  0
 16 44  1  0  0  0  0
 17 45  1  0  0  0  0
 18 46  1  0  0  0  0
 21 47  1  0  0  0  0
 21 48  1  0  0  0  0
 22 49  1  0  0  0  0
 22 50  1  0  0  0  0
 23 51  1  0  0  0  0
 23 52  1  0  0  0  0
 24 53  1  0  0  0  0
 24 54  1  0  0  0  0
 25 55  1  0  0  0  0
 25 56  1  0  0  0  0
 26 57  1  0  0  0  0
 31 58  1  0  0  0  0
M  END
> <clash_score>
1.2728248649063287

> <docking_score>
-6.367802143096924

> <overlap_score>
0.9489558935165405

$$$$
BENZO_329_2
  -OEChem-08222022413D

 58 62  0     1  0  0  0  0  0999 V2000
   14.2657    1.3705   23.0372 C   0  0  0  0  0  0  0  0  0  0  0  0
   13.7726    0.6127   24.0994 C   0  0  0  0  0  0  0  0  0  0  0  0
   13.3825    2.0221   22.1763 C   0  0  0  0  0  0  0  0  0  0  0  0
   12.3965    0.5064   24.3006 C   0  0  0  0  0  0  0  0  0  0  0  0
   12.0064    1.9158   22.3775 C   0  0  0  0  0  0  0  0  0  0  0  0
    8.3510   -1.5420   24.6110 C   0  0  0  0  0  0  0  0  0  0  0  0
   10.2760   -2.3270   23.4020 C   0  0  0  0  0  0  0  0  0  0  0  0
    8.3310   -2.7170   25.3430 C   0  0  0  0  0  0  0  0  0  0  0  0
   10.2570   -3.5000   24.1350 C   0  0  0  0  0  0  0  0  0  0  0  0
   11.5133    1.1580   23.4397 C   0  0  0  0  0  0  0  0  0  0  0  0
    9.3300   -1.3350   23.6390 C   0  0  0  0  0  0  0  0  0  0  0  0
    9.2850   -3.7090   25.1090 C   0  0  0  0  0  0  0  0  0  0  0  0
    5.9810    0.8330   18.8060 C   0  0  0  0  0  0  0  0  0  0  0  0
    7.2210   -0.4620   20.0350 C   0  0  0  0  0  0  0  0  0  0  0  0
    4.9400    1.7060   18.5060 C   0  0  0  0  0  0  0  0  0  0  0  0
    4.0980    2.1130   19.5350 C   0  0  0  0  0  0  0  0  0  0  0  0
    4.2970    1.6690   20.8430 C   0  0  0  0  0  0  0  0  0  0  0  0
    5.3360    0.8000   21.1530 C   0  0  0  0  0  0  0  0  0  0  0  0
    8.0643   -5.4721   26.3672 C   0  0  0  0  0  0  0  0  0  0  0  0
    8.9510    0.1280   21.6880 C   0  0  0  0  0  0  0  0  0  0  0  0
    8.2649   -6.7591   27.1477 C   0  0  0  0  0  0  0  0  0  0  0  0
    9.4073   -6.6157   28.1377 C   0  0  0  0  0  0  0  0  0  0  0  0
   10.6967   -6.1489   27.4694 C   0  0  0  0  0  0  0  0  0  0  0  0
   10.4950   -5.7059   26.0212 C   0  0  0  0  0  0  0  0  0  0  0  0
   10.0220    1.0430   23.6570 C   0  0  0  0  0  0  0  0  0  0  0  0
    9.4200   -0.0840   22.9530 C   0  0  2  0  0  0  0  0  0  0  0  0
    6.9440    0.2550   18.0100 N   0  0  0  0  0  0  0  0  0  0  0  0
    7.6830   -0.5170   18.7600 N   0  0  0  0  0  0  0  0  0  0  0  0
    6.1600    0.3870   20.1140 N   0  0  0  0  0  0  0  0  0  0  0  0
    9.2624   -4.9267   25.8634 N   0  0  0  0  0  0  0  0  0  0  0  0
    8.0810   -0.9750   21.0820 N   0  0  0  0  0  0  0  0  0  0  0  0
    6.9247   -5.0497   26.1749 O   0  0  0  0  0  0  0  0  0  0  0  0
    9.1870    1.1500   21.0630 O   0  0  0  0  0  0  0  0  0  0  0  0
   15.3373    1.4543   22.8814 H   0  0  0  0  0  0  0  0  0  0  0  0
   14.4602    0.1062   24.7705 H   0  0  0  0  0  0  0  0  0  0  0  0
   13.7661    2.6131   21.3498 H   0  0  0  0  0  0  0  0  0  0  0  0
   12.0214   -0.0864   25.1308 H   0  0  0  0  0  0  0  0  0  0  0  0
   11.3258    2.4268   21.7016 H   0  0  0  0  0  0  0  0  0  0  0  0
    7.5948   -0.7783   24.7966 H   0  0  0  0  0  0  0  0  0  0  0  0
   11.0389   -2.1844   22.6342 H   0  0  0  0  0  0  0  0  0  0  0  0
    7.5642   -2.8624   26.1050 H   0  0  0  0  0  0  0  0  0  0  0  0
   11.0137   -4.2649   23.9418 H   0  0  0  0  0  0  0  0  0  0  0  0
    4.7733    2.0700   17.5071 H   0  0  0  0  0  0  0  0  0  0  0  0
    3.2813    2.7836   19.2995 H   0  0  0  0  0  0  0  0  0  0  0  0
    3.6335    1.9977   21.6542 H   0  0  0  0  0  0  0  0  0  0  0  0
    5.5067    0.4537   22.1474 H   0  0  0  0  0  0  0  0  0  0  0  0
    7.3543   -6.9829   27.6818 H   0  0  0  0  0  0  0  0  0  0  0  0
    8.4783   -7.5436   26.4372 H   0  0  0  0  0  0  0  0  0  0  0  0
    9.1257   -5.9021   28.9399 H   0  0  0  0  0  0  0  0  0  0  0  0
    9.5814   -7.5840   28.6486 H   0  0  0  0  0  0  0  0  0  0  0  0
   11.1319   -5.3094   28.0513 H   0  0  0  0  0  0  0  0  0  0  0  0
   11.4591   -6.9570   27.5118 H   0  0  0  0  0  0  0  0  0  0  0  0
   11.3214   -5.0711   25.7158 H   0  0  0  0  0  0  0  0  0  0  0  0
   10.4496   -6.5786   25.3788 H   0  0  0  0  0  0  0  0  0  0  0  0
    9.8155    0.9894   24.7339 H   0  0  0  0  0  0  0  0  0  0  0  0
    9.5584    1.9798   23.3178 H   0  0  0  0  0  0  0  0  0  0  0  0
    8.1278    0.3254   23.5142 H   0  0  0  0  0  0  0  0  0  0  0  0
    8.1354   -1.7990   21.3694 H   0  0  0  0  0  0  0  0  0  0  0  0
  1  2  1  0  0  0  0
  1  3  2  0  0  0  0
  2  4  2  0  0  0  0
  3  5  1  0  0  0  0
  4 10  1  0  0  0  0
  5 10  2  0  0  0  0
  6  8  2  0  0  0  0
  6 11  1  0  0  0  0
  7  9  1  0  0  0  0
  7 11  2  0  0  0  0
  8 12  1  0  0  0  0
  9 12  2  0  0  0  0
 10 25  1  0  0  0  0
 11 26  1  0  0  0  0
 12 30  1  0  0  0  0
 13 15  1  0  0  0  0
 13 27  2  0  0  0  0
 13 29  1  0  0  0  0
 14 28  2  0  0  0  0
 14 29  1  0  0  0  0
 14 31  1  0  0  0  0
 15 16  2  0  0  0  0
 16 17  1  0  0  0  0
 17 18  2  0  0  0  0
 18 29  1  0  0  0  0
 19 21  1  0  0  0  0
 19 30  1  0  0  0  0
 19 32  2  0  0  0  0
 20 26  1  6  0  0  0
 20 31  1  0  0  0  0
 20 33  2  0  0  0  0
 21 22  1  0  0  0  0
 22 23  1  0  0  0  0
 23 24  1  0  0  0  0
 24 30  1  0  0  0  0
 25 26  1  0  0  0  0
 27 28  1  0  0  0  0
  1 34  1  0  0  0  0
  2 35  1  0  0  0  0
  3 36  1  0  0  0  0
  4 37  1  0  0  0  0
  5 38  1  0  0  0  0
  6 39  1  0  0  0  0
  7 40  1  0  0  0  0
  8 41  1  0  0  0  0
  9 42  1  0  0  0  0
 15 43  1  0  0  0  0
 16 44  1  0  0  0  0
 17 45  1  0  0  0  0
 18 46  1  0  0  0  0
 21 47  1  0  0  0  0
 21 48  1  0  0  0  0
 22 49  1  0  0  0  0
 22 50  1  0  0  0  0
 23 51  1  0  0  0  0
 23 52  1  0  0  0  0
 24 53  1  0  0  0  0
 24 54  1  0  0  0  0
 25 55  1  0  0  0  0
 25 56  1  0  0  0  0
 26 57  1  0  0  0  0
 31 58  1  0  0  0  0
M  END
> <clash_score>
1.2728248649063287

> <docking_score>
-7.320613861083984

> <overlap_score>
1.0258839130401611

$$$$
BENZO_328_2
  -OEChem-08222022413D

 55 59  0     1  0  0  0  0  0999 V2000
    8.3510   -1.5420   24.6110 C   0  0  0  0  0  0  0  0  0  0  0  0
   10.2760   -2.3270   23.4020 C   0  0  0  0  0  0  0  0  0  0  0  0
    8.3310   -2.7170   25.3430 C   0  0  0  0  0  0  0  0  0  0  0  0
   10.2570   -3.5000   24.1350 C   0  0  0  0  0  0  0  0  0  0  0  0
   12.2126    2.3973   23.3679 C   0  0  0  0  0  0  0  0  0  0  0  0
   13.5630    2.2184   23.1632 C   0  0  0  0  0  0  0  0  0  0  0  0
   12.3560    0.0789   23.2868 C   0  0  0  0  0  0  0  0  0  0  0  0
    9.3300   -1.3350   23.6390 C   0  0  0  0  0  0  0  0  0  0  0  0
   11.5133    1.1580   23.4397 C   0  0  0  0  0  0  0  0  0  0  0  0
    9.2850   -3.7090   25.1090 C   0  0  0  0  0  0  0  0  0  0  0  0
    5.9810    0.8330   18.8060 C   0  0  0  0  0  0  0  0  0  0  0  0
    7.2210   -0.4620   20.0350 C   0  0  0  0  0  0  0  0  0  0  0  0
    4.9400    1.7060   18.5060 C   0  0  0  0  0  0  0  0  0  0  0  0
    4.0980    2.1130   19.5350 C   0  0  0  0  0  0  0  0  0  0  0  0
    4.2970    1.6690   20.8430 C   0  0  0  0  0  0  0  0  0  0  0  0
    5.3360    0.8000   21.1530 C   0  0  0  0  0  0  0  0  0  0  0  0
    8.0643   -5.4721   26.3672 C   0  0  0  0  0  0  0  0  0  0  0  0
    8.9510    0.1280   21.6880 C   0  0  0  0  0  0  0  0  0  0  0  0
    8.2649   -6.7591   27.1477 C   0  0  0  0  0  0  0  0  0  0  0  0
    9.4073   -6.6157   28.1377 C   0  0  0  0  0  0  0  0  0  0  0  0
   10.6967   -6.1489   27.4694 C   0  0  0  0  0  0  0  0  0  0  0  0
   10.4950   -5.7059   26.0212 C   0  0  0  0  0  0  0  0  0  0  0  0
   10.0220    1.0430   23.6570 C   0  0  0  0  0  0  0  0  0  0  0  0
    9.4200   -0.0840   22.9530 C   0  0  2  0  0  0  0  0  0  0  0  0
    6.9440    0.2550   18.0100 N   0  0  0  0  0  0  0  0  0  0  0  0
    7.6830   -0.5170   18.7600 N   0  0  0  0  0  0  0  0  0  0  0  0
    6.1600    0.3870   20.1140 N   0  0  0  0  0  0  0  0  0  0  0  0
    9.2624   -4.9267   25.8634 N   0  0  0  0  0  0  0  0  0  0  0  0
    8.0810   -0.9750   21.0820 N   0  0  0  0  0  0  0  0  0  0  0  0
    6.9247   -5.0497   26.1749 O   0  0  0  0  0  0  0  0  0  0  0  0
    9.1870    1.1500   21.0630 O   0  0  0  0  0  0  0  0  0  0  0  0
   13.9830    0.5616   23.0583 S   0  0  0  0  0  0  0  0  0  0  0  0
    7.5948   -0.7783   24.7966 H   0  0  0  0  0  0  0  0  0  0  0  0
   11.0389   -2.1844   22.6342 H   0  0  0  0  0  0  0  0  0  0  0  0
    7.5642   -2.8624   26.1050 H   0  0  0  0  0  0  0  0  0  0  0  0
   11.0137   -4.2649   23.9418 H   0  0  0  0  0  0  0  0  0  0  0  0
   11.7523    3.3729   23.4608 H   0  0  0  0  0  0  0  0  0  0  0  0
   14.3230    2.9812   23.0695 H   0  0  0  0  0  0  0  0  0  0  0  0
   12.0981   -0.9711   23.2966 H   0  0  0  0  0  0  0  0  0  0  0  0
    4.7733    2.0700   17.5071 H   0  0  0  0  0  0  0  0  0  0  0  0
    3.2813    2.7836   19.2995 H   0  0  0  0  0  0  0  0  0  0  0  0
    3.6335    1.9977   21.6542 H   0  0  0  0  0  0  0  0  0  0  0  0
    5.5067    0.4537   22.1474 H   0  0  0  0  0  0  0  0  0  0  0  0
    7.3543   -6.9829   27.6818 H   0  0  0  0  0  0  0  0  0  0  0  0
    8.4783   -7.5436   26.4372 H   0  0  0  0  0  0  0  0  0  0  0  0
    9.1257   -5.9021   28.9399 H   0  0  0  0  0  0  0  0  0  0  0  0
    9.5814   -7.5840   28.6486 H   0  0  0  0  0  0  0  0  0  0  0  0
   11.1319   -5.3094   28.0513 H   0  0  0  0  0  0  0  0  0  0  0  0
   11.4591   -6.9570   27.5118 H   0  0  0  0  0  0  0  0  0  0  0  0
   11.3214   -5.0711   25.7158 H   0  0  0  0  0  0  0  0  0  0  0  0
   10.4496   -6.5786   25.3788 H   0  0  0  0  0  0  0  0  0  0  0  0
    9.8155    0.9894   24.7339 H   0  0  0  0  0  0  0  0  0  0  0  0
    9.5584    1.9798   23.3178 H   0  0  0  0  0  0  0  0  0  0  0  0
    8.1278    0.3254   23.5142 H   0  0  0  0  0  0  0  0  0  0  0  0
    8.1354   -1.7990   21.3694 H   0  0  0  0  0  0  0  0  0  0  0  0
  1  3  2  0  0  0  0
  1  8  1  0  0  0  0
  2  4  1  0  0  0  0
  2  8  2  0  0  0  0
  3 10  1  0  0  0  0
  4 10  2  0  0  0  0
  5  6  2  0  0  0  0
  5  9  1  0  0  0  0
  6 32  1  0  0  0  0
  7  9  2  0  0  0  0
  7 32  1  0  0  0  0
  8 24  1  0  0  0  0
  9 23  1  0  0  0  0
 10 28  1  0  0  0  0
 11 13  1  0  0  0  0
 11 25  2  0  0  0  0
 11 27  1  0  0  0  0
 12 26  2  0  0  0  0
 12 27  1  0  0  0  0
 12 29  1  0  0  0  0
 13 14  2  0  0  0  0
 14 15  1  0  0  0  0
 15 16  2  0  0  0  0
 16 27  1  0  0  0  0
 17 19  1  0  0  0  0
 17 28  1  0  0  0  0
 17 30  2  0  0  0  0
 18 24  1  6  0  0  0
 18 29  1  0  0  0  0
 18 31  2  0  0  0  0
 19 20  1  0  0  0  0
 20 21  1  0  0  0  0
 21 22  1  0  0  0  0
 22 28  1  0  0  0  0
 23 24  1  0  0  0  0
 25 26  1  0  0  0  0
  1 33  1  0  0  0  0
  2 34  1  0  0  0  0
  3 35  1  0  0  0  0
  4 36  1  0  0  0  0
  5 37  1  0  0  0  0
  6 38  1  0  0  0  0
  7 39  1  0  0  0  0
 13 40  1  0  0  0  0
 14 41  1  0  0  0  0
 15 42  1  0  0  0  0
 16 43  1  0  0  0  0
 19 44  1  0  0  0  0
 19 45  1  0  0  0  0
 20 46  1  0  0  0  0
 20 47  1  0  0  0  0
 21 48  1  0  0  0  0
 21 49  1  0  0  0  0
 22 50  1  0  0  0  0
 22 51  1  0  0  0  0
 23 52  1  0  0  0  0
 23 53  1  0  0  0  0
 24 54  1  0  0  0  0
 29 55  1  0  0  0  0
M  END
> <clash_score>
1.2728248649063287

> <docking_score>
-8.129829406738281

> <overlap_score>
1.0132300853729248

$$$$
BENZO_328_1
  -OEChem-08222022413D

 55 59  0     1  0  0  0  0  0999 V2000
    8.3510   -1.5420   24.6110 C   0  0  0  0  0  0  0  0  0  0  0  0
   10.2760   -2.3270   23.4020 C   0  0  0  0  0  0  0  0  0  0  0  0
    8.3310   -2.7170   25.3430 C   0  0  0  0  0  0  0  0  0  0  0  0
   10.2570   -3.5000   24.1350 C   0  0  0  0  0  0  0  0  0  0  0  0
   11.0518    0.9846   26.0345 C   0  0  0  0  0  0  0  0  0  0  0  0
   12.1353    0.4810   26.7201 C   0  0  0  0  0  0  0  0  0  0  0  0
   12.1840   -0.1301   24.3381 C   0  0  0  0  0  0  0  0  0  0  0  0
    9.3300   -1.3350   23.6390 C   0  0  0  0  0  0  0  0  0  0  0  0
   11.0798    0.6306   24.6546 C   0  0  0  0  0  0  0  0  0  0  0  0
    9.2850   -3.7090   25.1090 C   0  0  0  0  0  0  0  0  0  0  0  0
    5.9810    0.8330   18.8060 C   0  0  0  0  0  0  0  0  0  0  0  0
    7.2210   -0.4620   20.0350 C   0  0  0  0  0  0  0  0  0  0  0  0
    4.9400    1.7060   18.5060 C   0  0  0  0  0  0  0  0  0  0  0  0
    4.0980    2.1130   19.5350 C   0  0  0  0  0  0  0  0  0  0  0  0
    4.2970    1.6690   20.8430 C   0  0  0  0  0  0  0  0  0  0  0  0
    5.3360    0.8000   21.1530 C   0  0  0  0  0  0  0  0  0  0  0  0
    8.0643   -5.4721   26.3672 C   0  0  0  0  0  0  0  0  0  0  0  0
    8.9510    0.1280   21.6880 C   0  0  0  0  0  0  0  0  0  0  0  0
    8.2649   -6.7591   27.1477 C   0  0  0  0  0  0  0  0  0  0  0  0
    9.4073   -6.6157   28.1377 C   0  0  0  0  0  0  0  0  0  0  0  0
   10.6967   -6.1489   27.4694 C   0  0  0  0  0  0  0  0  0  0  0  0
   10.4950   -5.7059   26.0212 C   0  0  0  0  0  0  0  0  0  0  0  0
   10.0220    1.0430   23.6570 C   0  0  0  0  0  0  0  0  0  0  0  0
    9.4200   -0.0840   22.9530 C   0  0  1  0  0  0  0  0  0  0  0  0
    6.9440    0.2550   18.0100 N   0  0  0  0  0  0  0  0  0  0  0  0
    7.6830   -0.5170   18.7600 N   0  0  0  0  0  0  0  0  0  0  0  0
    6.1600    0.3870   20.1140 N   0  0  0  0  0  0  0  0  0  0  0  0
    9.2624   -4.9267   25.8634 N   0  0  0  0  0  0  0  0  0  0  0  0
    8.0810   -0.9750   21.0820 N   0  0  0  0  0  0  0  0  0  0  0  0
    6.9247   -5.0497   26.1749 O   0  0  0  0  0  0  0  0  0  0  0  0
    9.1870    1.1500   21.0630 O   0  0  0  0  0  0  0  0  0  0  0  0
   13.1804   -0.4146   25.7013 S   0  0  0  0  0  0  0  0  0  0  0  0
    7.5948   -0.7783   24.7966 H   0  0  0  0  0  0  0  0  0  0  0  0
   11.0389   -2.1844   22.6342 H   0  0  0  0  0  0  0  0  0  0  0  0
    7.5642   -2.8624   26.1050 H   0  0  0  0  0  0  0  0  0  0  0  0
   11.0137   -4.2649   23.9418 H   0  0  0  0  0  0  0  0  0  0  0  0
   10.2782    1.5788   26.5045 H   0  0  0  0  0  0  0  0  0  0  0  0
   12.3635    0.5966   27.7702 H   0  0  0  0  0  0  0  0  0  0  0  0
   12.4574   -0.5333   23.3728 H   0  0  0  0  0  0  0  0  0  0  0  0
    4.7733    2.0700   17.5071 H   0  0  0  0  0  0  0  0  0  0  0  0
    3.2813    2.7836   19.2995 H   0  0  0  0  0  0  0  0  0  0  0  0
    3.6335    1.9977   21.6542 H   0  0  0  0  0  0  0  0  0  0  0  0
    5.5067    0.4537   22.1474 H   0  0  0  0  0  0  0  0  0  0  0  0
    7.3543   -6.9829   27.6818 H   0  0  0  0  0  0  0  0  0  0  0  0
    8.4783   -7.5436   26.4372 H   0  0  0  0  0  0  0  0  0  0  0  0
    9.1257   -5.9021   28.9399 H   0  0  0  0  0  0  0  0  0  0  0  0
    9.5814   -7.5840   28.6486 H   0  0  0  0  0  0  0  0  0  0  0  0
   11.1319   -5.3094   28.0513 H   0  0  0  0  0  0  0  0  0  0  0  0
   11.4591   -6.9570   27.5118 H   0  0  0  0  0  0  0  0  0  0  0  0
   11.3214   -5.0711   25.7158 H   0  0  0  0  0  0  0  0  0  0  0  0
   10.4496   -6.5786   25.3788 H   0  0  0  0  0  0  0  0  0  0  0  0
    9.2564    1.6421   24.1671 H   0  0  0  0  0  0  0  0  0  0  0  0
   10.4893    1.7237   22.9318 H   0  0  0  0  0  0  0  0  0  0  0  0
   10.7366   -0.4277   22.4442 H   0  0  0  0  0  0  0  0  0  0  0  0
    8.1354   -1.7990   21.3694 H   0  0  0  0  0  0  0  0  0  0  0  0
  1  3  2  0  0  0  0
  1  8  1  0  0  0  0
  2  4  1  0  0  0  0
  2  8  2  0  0  0  0
  3 10  1  0  0  0  0
  4 10  2  0  0  0  0
  5  6  2  0  0  0  0
  5  9  1  0  0  0  0
  6 32  1  0  0  0  0
  7  9  2  0  0  0  0
  7 32  1  0  0  0  0
  8 24  1  0  0  0  0
  9 23  1  0  0  0  0
 10 28  1  0  0  0  0
 11 13  1  0  0  0  0
 11 25  2  0  0  0  0
 11 27  1  0  0  0  0
 12 26  2  0  0  0  0
 12 27  1  0  0  0  0
 12 29  1  0  0  0  0
 13 14  2  0  0  0  0
 14 15  1  0  0  0  0
 15 16  2  0  0  0  0
 16 27  1  0  0  0  0
 17 19  1  0  0  0  0
 17 28  1  0  0  0  0
 17 30  2  0  0  0  0
 18 24  1  1  0  0  0
 18 29  1  0  0  0  0
 18 31  2  0  0  0  0
 19 20  1  0  0  0  0
 20 21  1  0  0  0  0
 21 22  1  0  0  0  0
 22 28  1  0  0  0  0
 23 24  1  0  0  0  0
 25 26  1  0  0  0  0
  1 33  1  0  0  0  0
  2 34  1  0  0  0  0
  3 35  1  0  0  0  0
  4 36  1  0  0  0  0
  5 37  1  0  0  0  0
  6 38  1  0  0  0  0
  7 39  1  0  0  0  0
 13 40  1  0  0  0  0
 14 41  1  0  0  0  0
 15 42  1  0  0  0  0
 16 43  1  0  0  0  0
 19 44  1  0  0  0  0
 19 45  1  0  0  0  0
 20 46  1  0  0  0  0
 20 47  1  0  0  0  0
 21 48  1  0  0  0  0
 21 49  1  0  0  0  0
 22 50  1  0  0  0  0
 22 51  1  0  0  0  0
 23 52  1  0  0  0  0
 23 53  1  0  0  0  0
 24 54  1  0  0  0  0
 29 55  1  0  0  0  0
M  END
> <clash_score>
1.2728248649063287

> <docking_score>
-5.346166610717773

> <overlap_score>
0.8992475271224976

$$$$
BENZO_330_2
  -OEChem-08222022413D

 58 62  0     1  0  0  0  0  0999 V2000
   13.7717    0.6099   24.1002 C   0  0  0  0  0  0  0  0  0  0  0  0
   12.3953    0.5052   24.3009 C   0  0  0  0  0  0  0  0  0  0  0  0
    8.3510   -1.5420   24.6110 C   0  0  0  0  0  0  0  0  0  0  0  0
   10.2760   -2.3270   23.4020 C   0  0  0  0  0  0  0  0  0  0  0  0
    8.3310   -2.7170   25.3430 C   0  0  0  0  0  0  0  0  0  0  0  0
   10.2570   -3.5000   24.1350 C   0  0  0  0  0  0  0  0  0  0  0  0
   14.2660    1.3675   23.0384 C   0  0  0  0  0  0  0  0  0  0  0  0
   12.0077    1.9155   22.3778 C   0  0  0  0  0  0  0  0  0  0  0  0
    9.3300   -1.3350   23.6390 C   0  0  0  0  0  0  0  0  0  0  0  0
   11.5133    1.1580   23.4397 C   0  0  0  0  0  0  0  0  0  0  0  0
    9.2850   -3.7090   25.1090 C   0  0  0  0  0  0  0  0  0  0  0  0
   13.3840    2.0203   22.1772 C   0  0  0  0  0  0  0  0  0  0  0  0
    5.9810    0.8330   18.8060 C   0  0  0  0  0  0  0  0  0  0  0  0
    7.2210   -0.4620   20.0350 C   0  0  0  0  0  0  0  0  0  0  0  0
    4.9400    1.7060   18.5060 C   0  0  0  0  0  0  0  0  0  0  0  0
    4.0980    2.1130   19.5350 C   0  0  0  0  0  0  0  0  0  0  0  0
    4.2970    1.6690   20.8430 C   0  0  0  0  0  0  0  0  0  0  0  0
    5.3360    0.8000   21.1530 C   0  0  0  0  0  0  0  0  0  0  0  0
    8.2936   -5.1727   26.8573 C   0  0  0  0  0  0  0  0  0  0  0  0
    8.9510    0.1280   21.6880 C   0  0  0  0  0  0  0  0  0  0  0  0
    8.4570   -6.5172   27.5438 C   0  0  0  0  0  0  0  0  0  0  0  0
    9.9041   -6.7452   27.9437 C   0  0  0  0  0  0  0  0  0  0  0  0
   10.8613   -6.5876   26.7664 C   0  0  0  0  0  0  0  0  0  0  0  0
   10.1902   -6.0099   25.5212 C   0  0  0  0  0  0  0  0  0  0  0  0
   10.0220    1.0430   23.6570 C   0  0  0  0  0  0  0  0  0  0  0  0
    9.4200   -0.0840   22.9530 C   0  0  2  0  0  0  0  0  0  0  0  0
    6.9440    0.2550   18.0100 N   0  0  0  0  0  0  0  0  0  0  0  0
    7.6830   -0.5170   18.7600 N   0  0  0  0  0  0  0  0  0  0  0  0
    6.1600    0.3870   20.1140 N   0  0  0  0  0  0  0  0  0  0  0  0
    9.2624   -4.9267   25.8634 N   0  0  0  0  0  0  0  0  0  0  0  0
    8.0810   -0.9750   21.0820 N   0  0  0  0  0  0  0  0  0  0  0  0
    7.3372   -4.4549   27.1472 O   0  0  0  0  0  0  0  0  0  0  0  0
    9.1870    1.1500   21.0630 O   0  0  0  0  0  0  0  0  0  0  0  0
   13.9945    2.9538   20.8667 Cl  0  0  0  0  0  0  0  0  0  0  0  0
   14.4581    0.1014   24.7709 H   0  0  0  0  0  0  0  0  0  0  0  0
   12.0190   -0.0873   25.1307 H   0  0  0  0  0  0  0  0  0  0  0  0
    7.5948   -0.7783   24.7966 H   0  0  0  0  0  0  0  0  0  0  0  0
   11.0389   -2.1844   22.6342 H   0  0  0  0  0  0  0  0  0  0  0  0
    7.5642   -2.8624   26.1050 H   0  0  0  0  0  0  0  0  0  0  0  0
   11.0137   -4.2649   23.9418 H   0  0  0  0  0  0  0  0  0  0  0  0
   15.3412    1.4401   22.8940 H   0  0  0  0  0  0  0  0  0  0  0  0
   11.3158    2.4230   21.7095 H   0  0  0  0  0  0  0  0  0  0  0  0
    4.7733    2.0700   17.5071 H   0  0  0  0  0  0  0  0  0  0  0  0
    3.2813    2.7836   19.2995 H   0  0  0  0  0  0  0  0  0  0  0  0
    3.6335    1.9977   21.6542 H   0  0  0  0  0  0  0  0  0  0  0  0
    5.5067    0.4537   22.1474 H   0  0  0  0  0  0  0  0  0  0  0  0
    7.8354   -6.5308   28.4258 H   0  0  0  0  0  0  0  0  0  0  0  0
    8.1327   -7.2802   26.8520 H   0  0  0  0  0  0  0  0  0  0  0  0
   10.1894   -6.0388   28.7510 H   0  0  0  0  0  0  0  0  0  0  0  0
   10.0147   -7.7577   28.3814 H   0  0  0  0  0  0  0  0  0  0  0  0
   11.7074   -5.9326   27.0628 H   0  0  0  0  0  0  0  0  0  0  0  0
   11.3252   -7.5678   26.5219 H   0  0  0  0  0  0  0  0  0  0  0  0
   10.9447   -5.5942   24.8603 H   0  0  0  0  0  0  0  0  0  0  0  0
    9.6472   -6.7947   25.0059 H   0  0  0  0  0  0  0  0  0  0  0  0
    9.8155    0.9894   24.7339 H   0  0  0  0  0  0  0  0  0  0  0  0
    9.5584    1.9798   23.3178 H   0  0  0  0  0  0  0  0  0  0  0  0
    8.1278    0.3254   23.5142 H   0  0  0  0  0  0  0  0  0  0  0  0
    8.1354   -1.7990   21.3694 H   0  0  0  0  0  0  0  0  0  0  0  0
  1  2  2  0  0  0  0
  1  7  1  0  0  0  0
  2 10  1  0  0  0  0
  3  5  2  0  0  0  0
  3  9  1  0  0  0  0
  4  6  1  0  0  0  0
  4  9  2  0  0  0  0
  5 11  1  0  0  0  0
  6 11  2  0  0  0  0
  7 12  2  0  0  0  0
  8 10  2  0  0  0  0
  8 12  1  0  0  0  0
  9 26  1  0  0  0  0
 10 25  1  0  0  0  0
 11 30  1  0  0  0  0
 12 34  1  0  0  0  0
 13 15  1  0  0  0  0
 13 27  2  0  0  0  0
 13 29  1  0  0  0  0
 14 28  2  0  0  0  0
 14 29  1  0  0  0  0
 14 31  1  0  0  0  0
 15 16  2  0  0  0  0
 16 17  1  0  0  0  0
 17 18  2  0  0  0  0
 18 29  1  0  0  0  0
 19 21  1  0  0  0  0
 19 30  1  0  0  0  0
 19 32  2  0  0  0  0
 20 26  1  6  0  0  0
 20 31  1  0  0  0  0
 20 33  2  0  0  0  0
 21 22  1  0  0  0  0
 22 23  1  0  0  0  0
 23 24  1  0  0  0  0
 24 30  1  0  0  0  0
 25 26  1  0  0  0  0
 27 28  1  0  0  0  0
  1 35  1  0  0  0  0
  2 36  1  0  0  0  0
  3 37  1  0  0  0  0
  4 38  1  0  0  0  0
  5 39  1  0  0  0  0
  6 40  1  0  0  0  0
  7 41  1  0  0  0  0
  8 42  1  0  0  0  0
 15 43  1  0  0  0  0
 16 44  1  0  0  0  0
 17 45  1  0  0  0  0
 18 46  1  0  0  0  0
 21 47  1  0  0  0  0
 21 48  1  0  0  0  0
 22 49  1  0  0  0  0
 22 50  1  0  0  0  0
 23 51  1  0  0  0  0
 23 52  1  0  0  0  0
 24 53  1  0  0  0  0
 24 54  1  0  0  0  0
 25 55  1  0  0  0  0
 25 56  1  0  0  0  0
 26 57  1  0  0  0  0
 31 58  1  0  0  0  0
M  END
> <clash_score>
2.0601108515385818

> <docking_score>
-6.456470966339111

> <overlap_score>
1.0297893285751343

$$$$
BENZO_330_1
  -OEChem-08222022413D

 58 62  0     1  0  0  0  0  0999 V2000
   13.7706    0.6101   24.1094 C   0  0  0  0  0  0  0  0  0  0  0  0
   12.5330    0.9096   23.5401 C   0  0  0  0  0  0  0  0  0  0  0  0
    8.3510   -1.5420   24.6110 C   0  0  0  0  0  0  0  0  0  0  0  0
   10.2760   -2.3270   23.4020 C   0  0  0  0  0  0  0  0  0  0  0  0
    8.3310   -2.7170   25.3430 C   0  0  0  0  0  0  0  0  0  0  0  0
   10.2570   -3.5000   24.1350 C   0  0  0  0  0  0  0  0  0  0  0  0
   13.8379    0.1181   25.4130 C   0  0  0  0  0  0  0  0  0  0  0  0
   11.4299    0.2252   25.5777 C   0  0  0  0  0  0  0  0  0  0  0  0
    9.3300   -1.3350   23.6390 C   0  0  0  0  0  0  0  0  0  0  0  0
   11.3626    0.7171   24.2742 C   0  0  0  0  0  0  0  0  0  0  0  0
    9.2850   -3.7090   25.1090 C   0  0  0  0  0  0  0  0  0  0  0  0
   12.6676   -0.0743   26.1471 C   0  0  0  0  0  0  0  0  0  0  0  0
    5.9810    0.8330   18.8060 C   0  0  0  0  0  0  0  0  0  0  0  0
    7.2210   -0.4620   20.0350 C   0  0  0  0  0  0  0  0  0  0  0  0
    4.9400    1.7060   18.5060 C   0  0  0  0  0  0  0  0  0  0  0  0
    4.0980    2.1130   19.5350 C   0  0  0  0  0  0  0  0  0  0  0  0
    4.2970    1.6690   20.8430 C   0  0  0  0  0  0  0  0  0  0  0  0
    5.3360    0.8000   21.1530 C   0  0  0  0  0  0  0  0  0  0  0  0
    8.0643   -5.4721   26.3672 C   0  0  0  0  0  0  0  0  0  0  0  0
    8.9510    0.1280   21.6880 C   0  0  0  0  0  0  0  0  0  0  0  0
    8.2649   -6.7591   27.1477 C   0  0  0  0  0  0  0  0  0  0  0  0
    9.4073   -6.6157   28.1377 C   0  0  0  0  0  0  0  0  0  0  0  0
   10.6967   -6.1489   27.4694 C   0  0  0  0  0  0  0  0  0  0  0  0
   10.4950   -5.7059   26.0212 C   0  0  0  0  0  0  0  0  0  0  0  0
   10.0220    1.0430   23.6570 C   0  0  0  0  0  0  0  0  0  0  0  0
    9.4200   -0.0840   22.9530 C   0  0  1  0  0  0  0  0  0  0  0  0
    6.9440    0.2550   18.0100 N   0  0  0  0  0  0  0  0  0  0  0  0
    7.6830   -0.5170   18.7600 N   0  0  0  0  0  0  0  0  0  0  0  0
    6.1600    0.3870   20.1140 N   0  0  0  0  0  0  0  0  0  0  0  0
    9.2624   -4.9267   25.8634 N   0  0  0  0  0  0  0  0  0  0  0  0
    8.0810   -0.9750   21.0820 N   0  0  0  0  0  0  0  0  0  0  0  0
    6.9247   -5.0497   26.1749 O   0  0  0  0  0  0  0  0  0  0  0  0
    9.1870    1.1500   21.0630 O   0  0  0  0  0  0  0  0  0  0  0  0
   12.7514   -0.6802   27.7557 Cl  0  0  0  0  0  0  0  0  0  0  0  0
   14.6817    0.7602   23.5375 H   0  0  0  0  0  0  0  0  0  0  0  0
   12.4900    1.2926   22.5238 H   0  0  0  0  0  0  0  0  0  0  0  0
    7.5948   -0.7783   24.7966 H   0  0  0  0  0  0  0  0  0  0  0  0
   11.0389   -2.1844   22.6342 H   0  0  0  0  0  0  0  0  0  0  0  0
    7.5642   -2.8624   26.1050 H   0  0  0  0  0  0  0  0  0  0  0  0
   11.0137   -4.2649   23.9418 H   0  0  0  0  0  0  0  0  0  0  0  0
   14.8095   -0.1107   25.8440 H   0  0  0  0  0  0  0  0  0  0  0  0
   10.5145    0.0764   26.1458 H   0  0  0  0  0  0  0  0  0  0  0  0
    4.7733    2.0700   17.5071 H   0  0  0  0  0  0  0  0  0  0  0  0
    3.2813    2.7836   19.2995 H   0  0  0  0  0  0  0  0  0  0  0  0
    3.6335    1.9977   21.6542 H   0  0  0  0  0  0  0  0  0  0  0  0
    5.5067    0.4537   22.1474 H   0  0  0  0  0  0  0  0  0  0  0  0
    7.3543   -6.9829   27.6818 H   0  0  0  0  0  0  0  0  0  0  0  0
    8.4783   -7.5436   26.4372 H   0  0  0  0  0  0  0  0  0  0  0  0
    9.1257   -5.9021   28.9399 H   0  0  0  0  0  0  0  0  0  0  0  0
    9.5814   -7.5840   28.6486 H   0  0  0  0  0  0  0  0  0  0  0  0
   11.1319   -5.3094   28.0513 H   0  0  0  0  0  0  0  0  0  0  0  0
   11.4591   -6.9570   27.5118 H   0  0  0  0  0  0  0  0  0  0  0  0
   11.3214   -5.0711   25.7158 H   0  0  0  0  0  0  0  0  0  0  0  0
   10.4496   -6.5786   25.3788 H   0  0  0  0  0  0  0  0  0  0  0  0
    9.3482    1.4259   24.4346 H   0  0  0  0  0  0  0  0  0  0  0  0
   10.1663    1.8793   22.9589 H   0  0  0  0  0  0  0  0  0  0  0  0
   10.7366   -0.4277   22.4442 H   0  0  0  0  0  0  0  0  0  0  0  0
    8.1354   -1.7990   21.3694 H   0  0  0  0  0  0  0  0  0  0  0  0
  1  2  2  0  0  0  0
  1  7  1  0  0  0  0
  2 10  1  0  0  0  0
  3  5  2  0  0  0  0
  3  9  1  0  0  0  0
  4  6  1  0  0  0  0
  4  9  2  0  0  0  0
  5 11  1  0  0  0  0
  6 11  2  0  0  0  0
  7 12  2  0  0  0  0
  8 10  2  0  0  0  0
  8 12  1  0  0  0  0
  9 26  1  0  0  0  0
 10 25  1  0  0  0  0
 11 30  1  0  0  0  0
 12 34  1  0  0  0  0
 13 15  1  0  0  0  0
 13 27  2  0  0  0  0
 13 29  1  0  0  0  0
 14 28  2  0  0  0  0
 14 29  1  0  0  0  0
 14 31  1  0  0  0  0
 15 16  2  0  0  0  0
 16 17  1  0  0  0  0
 17 18  2  0  0  0  0
 18 29  1  0  0  0  0
 19 21  1  0  0  0  0
 19 30  1  0  0  0  0
 19 32  2  0  0  0  0
 20 26  1  1  0  0  0
 20 31  1  0  0  0  0
 20 33  2  0  0  0  0
 21 22  1  0  0  0  0
 22 23  1  0  0  0  0
 23 24  1  0  0  0  0
 24 30  1  0  0  0  0
 25 26  1  0  0  0  0
 27 28  1  0  0  0  0
  1 35  1  0  0  0  0
  2 36  1  0  0  0  0
  3 37  1  0  0  0  0
  4 38  1  0  0  0  0
  5 39  1  0  0  0  0
  6 40  1  0  0  0  0
  7 41  1  0  0  0  0
  8 42  1  0  0  0  0
 15 43  1  0  0  0  0
 16 44  1  0  0  0  0
 17 45  1  0  0  0  0
 18 46  1  0  0  0  0
 21 47  1  0  0  0  0
 21 48  1  0  0  0  0
 22 49  1  0  0  0  0
 22 50  1  0  0  0  0
 23 51  1  0  0  0  0
 23 52  1  0  0  0  0
 24 53  1  0  0  0  0
 24 54  1  0  0  0  0
 25 55  1  0  0  0  0
 25 56  1  0  0  0  0
 26 57  1  0  0  0  0
 31 58  1  0  0  0  0
M  END
> <clash_score>
2.837865166907086

> <docking_score>
-5.428022384643555

> <overlap_score>
0.9476150870323181

$$$$
BENZO_331_2
  -OEChem-08222022413D

 58 62  0     1  0  0  0  0  0999 V2000
    8.3510   -1.5420   24.6110 C   0  0  0  0  0  0  0  0  0  0  0  0
   10.2760   -2.3270   23.4020 C   0  0  0  0  0  0  0  0  0  0  0  0
    8.3310   -2.7170   25.3430 C   0  0  0  0  0  0  0  0  0  0  0  0
   10.2570   -3.5000   24.1350 C   0  0  0  0  0  0  0  0  0  0  0  0
   12.6370    0.8477   23.6904 C   0  0  0  0  0  0  0  0  0  0  0  0
   11.6104    0.2288   25.5338 C   0  0  0  0  0  0  0  0  0  0  0  0
    9.3300   -1.3350   23.6390 C   0  0  0  0  0  0  0  0  0  0  0  0
   11.3626    0.7171   24.2742 C   0  0  0  0  0  0  0  0  0  0  0  0
    9.2850   -3.7090   25.1090 C   0  0  0  0  0  0  0  0  0  0  0  0
    5.9810    0.8330   18.8060 C   0  0  0  0  0  0  0  0  0  0  0  0
    7.2210   -0.4620   20.0350 C   0  0  0  0  0  0  0  0  0  0  0  0
    4.9400    1.7060   18.5060 C   0  0  0  0  0  0  0  0  0  0  0  0
    4.0980    2.1130   19.5350 C   0  0  0  0  0  0  0  0  0  0  0  0
    4.2970    1.6690   20.8430 C   0  0  0  0  0  0  0  0  0  0  0  0
    5.3360    0.8000   21.1530 C   0  0  0  0  0  0  0  0  0  0  0  0
    8.0643   -5.4721   26.3672 C   0  0  0  0  0  0  0  0  0  0  0  0
    8.9510    0.1280   21.6880 C   0  0  0  0  0  0  0  0  0  0  0  0
    8.2649   -6.7591   27.1477 C   0  0  0  0  0  0  0  0  0  0  0  0
    9.4073   -6.6157   28.1377 C   0  0  0  0  0  0  0  0  0  0  0  0
   10.6967   -6.1489   27.4694 C   0  0  0  0  0  0  0  0  0  0  0  0
   10.4950   -5.7059   26.0212 C   0  0  0  0  0  0  0  0  0  0  0  0
   13.7058   -0.3764   26.7673 C   0  0  0  0  0  0  0  0  0  0  0  0
   10.0220    1.0430   23.6570 C   0  0  0  0  0  0  0  0  0  0  0  0
    9.4200   -0.0840   22.9530 C   0  0  2  0  0  0  0  0  0  0  0  0
   13.6213    0.4728   24.5118 N   0  0  0  0  0  0  0  0  0  0  0  0
    6.9440    0.2550   18.0100 N   0  0  0  0  0  0  0  0  0  0  0  0
    7.6830   -0.5170   18.7600 N   0  0  0  0  0  0  0  0  0  0  0  0
   12.9653    0.1019   25.6246 N   0  0  0  0  0  0  0  0  0  0  0  0
    6.1600    0.3870   20.1140 N   0  0  0  0  0  0  0  0  0  0  0  0
    9.2624   -4.9267   25.8634 N   0  0  0  0  0  0  0  0  0  0  0  0
    8.0810   -0.9750   21.0820 N   0  0  0  0  0  0  0  0  0  0  0  0
    6.9247   -5.0497   26.1749 O   0  0  0  0  0  0  0  0  0  0  0  0
    9.1870    1.1500   21.0630 O   0  0  0  0  0  0  0  0  0  0  0  0
    7.5948   -0.7783   24.7966 H   0  0  0  0  0  0  0  0  0  0  0  0
   11.0389   -2.1844   22.6342 H   0  0  0  0  0  0  0  0  0  0  0  0
    7.5642   -2.8624   26.1050 H   0  0  0  0  0  0  0  0  0  0  0  0
   11.0137   -4.2649   23.9418 H   0  0  0  0  0  0  0  0  0  0  0  0
   12.8920    1.2011   22.7013 H   0  0  0  0  0  0  0  0  0  0  0  0
   10.9543   -0.0315   26.3534 H   0  0  0  0  0  0  0  0  0  0  0  0
    4.7733    2.0700   17.5071 H   0  0  0  0  0  0  0  0  0  0  0  0
    3.2813    2.7836   19.2995 H   0  0  0  0  0  0  0  0  0  0  0  0
    3.6335    1.9977   21.6542 H   0  0  0  0  0  0  0  0  0  0  0  0
    5.5067    0.4537   22.1474 H   0  0  0  0  0  0  0  0  0  0  0  0
    7.3543   -6.9829   27.6818 H   0  0  0  0  0  0  0  0  0  0  0  0
    8.4783   -7.5436   26.4372 H   0  0  0  0  0  0  0  0  0  0  0  0
    9.1257   -5.9021   28.9399 H   0  0  0  0  0  0  0  0  0  0  0  0
    9.5814   -7.5840   28.6486 H   0  0  0  0  0  0  0  0  0  0  0  0
   11.1319   -5.3094   28.0513 H   0  0  0  0  0  0  0  0  0  0  0  0
   11.4591   -6.9570   27.5118 H   0  0  0  0  0  0  0  0  0  0  0  0
   11.3214   -5.0711   25.7158 H   0  0  0  0  0  0  0  0  0  0  0  0
   10.4496   -6.5786   25.3788 H   0  0  0  0  0  0  0  0  0  0  0  0
   13.8122   -1.4601   26.6708 H   0  0  0  0  0  0  0  0  0  0  0  0
   14.6882    0.1035   26.7915 H   0  0  0  0  0  0  0  0  0  0  0  0
   13.1616   -0.1245   27.6818 H   0  0  0  0  0  0  0  0  0  0  0  0
    9.3482    1.4259   24.4346 H   0  0  0  0  0  0  0  0  0  0  0  0
   10.1663    1.8793   22.9589 H   0  0  0  0  0  0  0  0  0  0  0  0
   10.7366   -0.4277   22.4442 H   0  0  0  0  0  0  0  0  0  0  0  0
    8.1354   -1.7990   21.3694 H   0  0  0  0  0  0  0  0  0  0  0  0
  1  3  2  0  0  0  0
  1  7  1  0  0  0  0
  2  4  1  0  0  0  0
  2  7  2  0  0  0  0
  3  9  1  0  0  0  0
  4  9  2  0  0  0  0
  5  8  1  0  0  0  0
  5 25  2  0  0  0  0
  6  8  2  0  0  0  0
  6 28  1  0  0  0  0
  7 24  1  0  0  0  0
  8 23  1  0  0  0  0
  9 30  1  0  0  0  0
 10 12  1  0  0  0  0
 10 26  2  0  0  0  0
 10 29  1  0  0  0  0
 11 27  2  0  0  0  0
 11 29  1  0  0  0  0
 11 31  1  0  0  0  0
 12 13  2  0  0  0  0
 13 14  1  0  0  0  0
 14 15  2  0  0  0  0
 15 29  1  0  0  0  0
 16 18  1  0  0  0  0
 16 30  1  0  0  0  0
 16 32  2  0  0  0  0
 17 24  1  0  0  0  0
 17 31  1  0  0  0  0
 17 33  2  0  0  0  0
 18 19  1  0  0  0  0
 19 20  1  0  0  0  0
 20 21  1  0  0  0  0
 21 30  1  0  0  0  0
 22 28  1  0  0  0  0
 23 24  1  6  0  0  0
 25 28  1  0  0  0  0
 26 27  1  0  0  0  0
  1 34  1  0  0  0  0
  2 35  1  0  0  0  0
  3 36  1  0  0  0  0
  4 37  1  0  0  0  0
  5 38  1  0  0  0  0
  6 39  1  0  0  0  0
 12 40  1  0  0  0  0
 13 41  1  0  0  0  0
 14 42  1  0  0  0  0
 15 43  1  0  0  0  0
 18 44  1  0  0  0  0
 18 45  1  0  0  0  0
 19 46  1  0  0  0  0
 19 47  1  0  0  0  0
 20 48  1  0  0  0  0
 20 49  1  0  0  0  0
 21 50  1  0  0  0  0
 21 51  1  0  0  0  0
 22 52  1  0  0  0  0
 22 53  1  0  0  0  0
 22 54  1  0  0  0  0
 23 55  1  0  0  0  0
 23 56  1  0  0  0  0
 24 57  1  0  0  0  0
 31 58  1  0  0  0  0
M  END
> <clash_score>
2.007716923079976

> <docking_score>
-6.190687656402588

> <overlap_score>
0.9403040409088135

$$$$
BENZO_331_1
  -OEChem-08222022413D

 58 62  0     1  0  0  0  0  0999 V2000
    8.3510   -1.5420   24.6110 C   0  0  0  0  0  0  0  0  0  0  0  0
   10.2760   -2.3270   23.4020 C   0  0  0  0  0  0  0  0  0  0  0  0
    8.3310   -2.7170   25.3430 C   0  0  0  0  0  0  0  0  0  0  0  0
   10.2570   -3.5000   24.1350 C   0  0  0  0  0  0  0  0  0  0  0  0
   12.2990    2.3261   23.4415 C   0  0  0  0  0  0  0  0  0  0  0  0
   12.4071    0.1434   23.1983 C   0  0  0  0  0  0  0  0  0  0  0  0
    9.3300   -1.3350   23.6390 C   0  0  0  0  0  0  0  0  0  0  0  0
   11.5133    1.1580   23.4397 C   0  0  0  0  0  0  0  0  0  0  0  0
    9.2850   -3.7090   25.1090 C   0  0  0  0  0  0  0  0  0  0  0  0
    5.9810    0.8330   18.8060 C   0  0  0  0  0  0  0  0  0  0  0  0
    7.2210   -0.4620   20.0350 C   0  0  0  0  0  0  0  0  0  0  0  0
    4.9400    1.7060   18.5060 C   0  0  0  0  0  0  0  0  0  0  0  0
    4.0980    2.1130   19.5350 C   0  0  0  0  0  0  0  0  0  0  0  0
    4.2970    1.6690   20.8430 C   0  0  0  0  0  0  0  0  0  0  0  0
    5.3360    0.8000   21.1530 C   0  0  0  0  0  0  0  0  0  0  0  0
    8.0643   -5.4721   26.3672 C   0  0  0  0  0  0  0  0  0  0  0  0
    8.9510    0.1280   21.6880 C   0  0  0  0  0  0  0  0  0  0  0  0
    8.2649   -6.7591   27.1477 C   0  0  0  0  0  0  0  0  0  0  0  0
    9.4073   -6.6157   28.1377 C   0  0  0  0  0  0  0  0  0  0  0  0
   10.6967   -6.1489   27.4694 C   0  0  0  0  0  0  0  0  0  0  0  0
   10.4950   -5.7059   26.0212 C   0  0  0  0  0  0  0  0  0  0  0  0
   14.8827    0.0808   22.8159 C   0  0  0  0  0  0  0  0  0  0  0  0
   10.0220    1.0430   23.6570 C   0  0  0  0  0  0  0  0  0  0  0  0
    9.4200   -0.0840   22.9530 C   0  0  1  0  0  0  0  0  0  0  0  0
   13.5924    2.0778   23.2192 N   0  0  0  0  0  0  0  0  0  0  0  0
    6.9440    0.2550   18.0100 N   0  0  0  0  0  0  0  0  0  0  0  0
    7.6830   -0.5170   18.7600 N   0  0  0  0  0  0  0  0  0  0  0  0
   13.6264    0.7421   23.0755 N   0  0  0  0  0  0  0  0  0  0  0  0
    6.1600    0.3870   20.1140 N   0  0  0  0  0  0  0  0  0  0  0  0
    9.2624   -4.9267   25.8634 N   0  0  0  0  0  0  0  0  0  0  0  0
    8.0810   -0.9750   21.0820 N   0  0  0  0  0  0  0  0  0  0  0  0
    6.9247   -5.0497   26.1749 O   0  0  0  0  0  0  0  0  0  0  0  0
    9.1870    1.1500   21.0630 O   0  0  0  0  0  0  0  0  0  0  0  0
    7.5948   -0.7783   24.7966 H   0  0  0  0  0  0  0  0  0  0  0  0
   11.0389   -2.1844   22.6342 H   0  0  0  0  0  0  0  0  0  0  0  0
    7.5642   -2.8624   26.1050 H   0  0  0  0  0  0  0  0  0  0  0  0
   11.0137   -4.2649   23.9418 H   0  0  0  0  0  0  0  0  0  0  0  0
   11.9854    3.3488   23.5963 H   0  0  0  0  0  0  0  0  0  0  0  0
   12.2826   -0.9272   23.1071 H   0  0  0  0  0  0  0  0  0  0  0  0
    4.7733    2.0700   17.5071 H   0  0  0  0  0  0  0  0  0  0  0  0
    3.2813    2.7836   19.2995 H   0  0  0  0  0  0  0  0  0  0  0  0
    3.6335    1.9977   21.6542 H   0  0  0  0  0  0  0  0  0  0  0  0
    5.5067    0.4537   22.1474 H   0  0  0  0  0  0  0  0  0  0  0  0
    7.3543   -6.9829   27.6818 H   0  0  0  0  0  0  0  0  0  0  0  0
    8.4783   -7.5436   26.4372 H   0  0  0  0  0  0  0  0  0  0  0  0
    9.1257   -5.9021   28.9399 H   0  0  0  0  0  0  0  0  0  0  0  0
    9.5814   -7.5840   28.6486 H   0  0  0  0  0  0  0  0  0  0  0  0
   11.1319   -5.3094   28.0513 H   0  0  0  0  0  0  0  0  0  0  0  0
   11.4591   -6.9570   27.5118 H   0  0  0  0  0  0  0  0  0  0  0  0
   11.3214   -5.0711   25.7158 H   0  0  0  0  0  0  0  0  0  0  0  0
   10.4496   -6.5786   25.3788 H   0  0  0  0  0  0  0  0  0  0  0  0
   15.0210    0.0326   21.7326 H   0  0  0  0  0  0  0  0  0  0  0  0
   15.6949    0.6470   23.2802 H   0  0  0  0  0  0  0  0  0  0  0  0
   14.8568   -0.9251   23.2443 H   0  0  0  0  0  0  0  0  0  0  0  0
    9.8155    0.9894   24.7339 H   0  0  0  0  0  0  0  0  0  0  0  0
    9.5584    1.9798   23.3178 H   0  0  0  0  0  0  0  0  0  0  0  0
    8.1278    0.3254   23.5142 H   0  0  0  0  0  0  0  0  0  0  0  0
    8.1354   -1.7990   21.3694 H   0  0  0  0  0  0  0  0  0  0  0  0
  1  3  2  0  0  0  0
  1  7  1  0  0  0  0
  2  4  1  0  0  0  0
  2  7  2  0  0  0  0
  3  9  1  0  0  0  0
  4  9  2  0  0  0  0
  5  8  1  0  0  0  0
  5 25  2  0  0  0  0
  6  8  2  0  0  0  0
  6 28  1  0  0  0  0
  7 24  1  0  0  0  0
  8 23  1  0  0  0  0
  9 30  1  0  0  0  0
 10 12  1  0  0  0  0
 10 26  2  0  0  0  0
 10 29  1  0  0  0  0
 11 27  2  0  0  0  0
 11 29  1  0  0  0  0
 11 31  1  0  0  0  0
 12 13  2  0  0  0  0
 13 14  1  0  0  0  0
 14 15  2  0  0  0  0
 15 29  1  0  0  0  0
 16 18  1  0  0  0  0
 16 30  1  0  0  0  0
 16 32  2  0  0  0  0
 17 24  1  0  0  0  0
 17 31  1  0  0  0  0
 17 33  2  0  0  0  0
 18 19  1  0  0  0  0
 19 20  1  0  0  0  0
 20 21  1  0  0  0  0
 21 30  1  0  0  0  0
 22 28  1  0  0  0  0
 23 24  1  1  0  0  0
 25 28  1  0  0  0  0
 26 27  1  0  0  0  0
  1 34  1  0  0  0  0
  2 35  1  0  0  0  0
  3 36  1  0  0  0  0
  4 37  1  0  0  0  0
  5 38  1  0  0  0  0
  6 39  1  0  0  0  0
 12 40  1  0  0  0  0
 13 41  1  0  0  0  0
 14 42  1  0  0  0  0
 15 43  1  0  0  0  0
 18 44  1  0  0  0  0
 18 45  1  0  0  0  0
 19 46  1  0  0  0  0
 19 47  1  0  0  0  0
 20 48  1  0  0  0  0
 20 49  1  0  0  0  0
 21 50  1  0  0  0  0
 21 51  1  0  0  0  0
 22 52  1  0  0  0  0
 22 53  1  0  0  0  0
 22 54  1  0  0  0  0
 23 55  1  0  0  0  0
 23 56  1  0  0  0  0
 24 57  1  0  0  0  0
 31 58  1  0  0  0  0
M  END
> <clash_score>
1.2728248649063287

> <docking_score>
-7.989739418029785

> <overlap_score>
1.0278980731964111

$$$$
BENZO_333_1
  -OEChem-08222022413D

 57 61  0     1  0  0  0  0  0999 V2000
   13.8377    0.1157   25.4121 C   0  0  0  0  0  0  0  0  0  0  0  0
   12.6675   -0.0757   26.1466 C   0  0  0  0  0  0  0  0  0  0  0  0
   13.7705    0.6079   24.1087 C   0  0  0  0  0  0  0  0  0  0  0  0
   11.4299    0.2251   25.5777 C   0  0  0  0  0  0  0  0  0  0  0  0
   12.5329    0.9086   23.5397 C   0  0  0  0  0  0  0  0  0  0  0  0
    8.3510   -1.5420   24.6110 C   0  0  0  0  0  0  0  0  0  0  0  0
   10.2760   -2.3270   23.4020 C   0  0  0  0  0  0  0  0  0  0  0  0
    8.3310   -2.7170   25.3430 C   0  0  0  0  0  0  0  0  0  0  0  0
   10.2570   -3.5000   24.1350 C   0  0  0  0  0  0  0  0  0  0  0  0
   11.3626    0.7172   24.2742 C   0  0  0  0  0  0  0  0  0  0  0  0
    9.3300   -1.3350   23.6390 C   0  0  0  0  0  0  0  0  0  0  0  0
    9.2850   -3.7090   25.1090 C   0  0  0  0  0  0  0  0  0  0  0  0
    5.9810    0.8330   18.8060 C   0  0  0  0  0  0  0  0  0  0  0  0
    7.2210   -0.4620   20.0350 C   0  0  0  0  0  0  0  0  0  0  0  0
    4.9400    1.7060   18.5060 C   0  0  0  0  0  0  0  0  0  0  0  0
    4.0980    2.1130   19.5350 C   0  0  0  0  0  0  0  0  0  0  0  0
    4.2970    1.6690   20.8430 C   0  0  0  0  0  0  0  0  0  0  0  0
    5.3360    0.8000   21.1530 C   0  0  0  0  0  0  0  0  0  0  0  0
    8.9510    0.1280   21.6880 C   0  0  0  0  0  0  0  0  0  0  0  0
    8.7671   -4.9535   27.2147 C   0  0  0  0  0  0  0  0  0  0  0  0
    9.3066   -6.1865   25.1649 C   0  0  0  0  0  0  0  0  0  0  0  0
    7.3847   -5.5970   27.2000 C   0  0  0  0  0  0  0  0  0  0  0  0
    7.9070   -6.7999   25.2264 C   0  0  0  0  0  0  0  0  0  0  0  0
   10.0220    1.0430   23.6570 C   0  0  0  0  0  0  0  0  0  0  0  0
    9.4200   -0.0840   22.9530 C   0  0  1  0  0  0  0  0  0  0  0  0
    6.9440    0.2550   18.0100 N   0  0  0  0  0  0  0  0  0  0  0  0
    7.6830   -0.5170   18.7600 N   0  0  0  0  0  0  0  0  0  0  0  0
    6.1600    0.3870   20.1140 N   0  0  0  0  0  0  0  0  0  0  0  0
    9.2641   -4.8845   25.8388 N   0  0  0  0  0  0  0  0  0  0  0  0
    8.0810   -0.9750   21.0820 N   0  0  0  0  0  0  0  0  0  0  0  0
    9.1870    1.1500   21.0630 O   0  0  0  0  0  0  0  0  0  0  0  0
    7.4533   -6.8877   26.5818 O   0  0  0  0  0  0  0  0  0  0  0  0
   14.8013   -0.1172   25.8558 H   0  0  0  0  0  0  0  0  0  0  0  0
   12.7197   -0.4578   27.1619 H   0  0  0  0  0  0  0  0  0  0  0  0
   14.6814    0.7580   23.5370 H   0  0  0  0  0  0  0  0  0  0  0  0
   10.5233    0.0726   26.1574 H   0  0  0  0  0  0  0  0  0  0  0  0
   12.4902    1.2914   22.5235 H   0  0  0  0  0  0  0  0  0  0  0  0
    7.5957   -0.7779   24.7973 H   0  0  0  0  0  0  0  0  0  0  0  0
   11.0384   -2.1852   22.6338 H   0  0  0  0  0  0  0  0  0  0  0  0
    7.5634   -2.8637   26.1037 H   0  0  0  0  0  0  0  0  0  0  0  0
   11.0139   -4.2645   23.9419 H   0  0  0  0  0  0  0  0  0  0  0  0
    4.7733    2.0700   17.5071 H   0  0  0  0  0  0  0  0  0  0  0  0
    3.2813    2.7836   19.2995 H   0  0  0  0  0  0  0  0  0  0  0  0
    3.6335    1.9977   21.6542 H   0  0  0  0  0  0  0  0  0  0  0  0
    5.5067    0.4537   22.1474 H   0  0  0  0  0  0  0  0  0  0  0  0
    8.7013   -3.9575   27.6574 H   0  0  0  0  0  0  0  0  0  0  0  0
    9.4480   -5.5636   27.8142 H   0  0  0  0  0  0  0  0  0  0  0  0
   10.0131   -6.8375   25.6814 H   0  0  0  0  0  0  0  0  0  0  0  0
    9.6116   -6.0794   24.1250 H   0  0  0  0  0  0  0  0  0  0  0  0
    7.0306   -5.7388   28.2232 H   0  0  0  0  0  0  0  0  0  0  0  0
    6.6546   -4.9740   26.6757 H   0  0  0  0  0  0  0  0  0  0  0  0
    7.1892   -6.2226   24.6319 H   0  0  0  0  0  0  0  0  0  0  0  0
    7.9315   -7.8151   24.8187 H   0  0  0  0  0  0  0  0  0  0  0  0
    9.3482    1.4259   24.4346 H   0  0  0  0  0  0  0  0  0  0  0  0
   10.1663    1.8792   22.9588 H   0  0  0  0  0  0  0  0  0  0  0  0
   10.7366   -0.4277   22.4442 H   0  0  0  0  0  0  0  0  0  0  0  0
    8.1354   -1.7990   21.3694 H   0  0  0  0  0  0  0  0  0  0  0  0
  1  2  1  0  0  0  0
  1  3  2  0  0  0  0
  2  4  2  0  0  0  0
  3  5  1  0  0  0  0
  4 10  1  0  0  0  0
  5 10  2  0  0  0  0
  6  8  2  0  0  0  0
  6 11  1  0  0  0  0
  7  9  1  0  0  0  0
  7 11  2  0  0  0  0
  8 12  1  0  0  0  0
  9 12  2  0  0  0  0
 10 24  1  0  0  0  0
 11 25  1  0  0  0  0
 12 29  1  0  0  0  0
 13 15  1  0  0  0  0
 13 26  2  0  0  0  0
 13 28  1  0  0  0  0
 14 27  2  0  0  0  0
 14 28  1  0  0  0  0
 14 30  1  0  0  0  0
 15 16  2  0  0  0  0
 16 17  1  0  0  0  0
 17 18  2  0  0  0  0
 18 28  1  0  0  0  0
 19 25  1  1  0  0  0
 19 30  1  0  0  0  0
 19 31  2  0  0  0  0
 20 22  1  0  0  0  0
 20 29  1  0  0  0  0
 21 23  1  0  0  0  0
 21 29  1  0  0  0  0
 22 32  1  0  0  0  0
 23 32  1  0  0  0  0
 24 25  1  0  0  0  0
 26 27  1  0  0  0  0
  1 33  1  0  0  0  0
  2 34  1  0  0  0  0
  3 35  1  0  0  0  0
  4 36  1  0  0  0  0
  5 37  1  0  0  0  0
  6 38  1  0  0  0  0
  7 39  1  0  0  0  0
  8 40  1  0  0  0  0
  9 41  1  0  0  0  0
 15 42  1  0  0  0  0
 16 43  1  0  0  0  0
 17 44  1  0  0  0  0
 18 45  1  0  0  0  0
 20 46  1  0  0  0  0
 20 47  1  0  0  0  0
 21 48  1  0  0  0  0
 21 49  1  0  0  0  0
 22 50  1  0  0  0  0
 22 51  1  0  0  0  0
 23 52  1  0  0  0  0
 23 53  1  0  0  0  0
 24 54  1  0  0  0  0
 24 55  1  0  0  0  0
 25 56  1  0  0  0  0
 30 57  1  0  0  0  0
M  END
> <clash_score>
0

> <docking_score>
-7.6038899421691895

> <overlap_score>
0.9494087100028992

$$$$
BENZO_333_2
  -OEChem-08222022413D

 57 61  0     1  0  0  0  0  0999 V2000
   14.2657    1.3706   23.0373 C   0  0  0  0  0  0  0  0  0  0  0  0
   13.7726    0.6128   24.0995 C   0  0  0  0  0  0  0  0  0  0  0  0
   13.3825    2.0222   22.1763 C   0  0  0  0  0  0  0  0  0  0  0  0
   12.3965    0.5065   24.3007 C   0  0  0  0  0  0  0  0  0  0  0  0
   12.0064    1.9158   22.3775 C   0  0  0  0  0  0  0  0  0  0  0  0
    8.3510   -1.5420   24.6110 C   0  0  0  0  0  0  0  0  0  0  0  0
   10.2760   -2.3270   23.4020 C   0  0  0  0  0  0  0  0  0  0  0  0
    8.3310   -2.7170   25.3430 C   0  0  0  0  0  0  0  0  0  0  0  0
   10.2570   -3.5000   24.1350 C   0  0  0  0  0  0  0  0  0  0  0  0
   11.5133    1.1580   23.4397 C   0  0  0  0  0  0  0  0  0  0  0  0
    9.3300   -1.3350   23.6390 C   0  0  0  0  0  0  0  0  0  0  0  0
    9.2850   -3.7090   25.1090 C   0  0  0  0  0  0  0  0  0  0  0  0
    5.9810    0.8330   18.8060 C   0  0  0  0  0  0  0  0  0  0  0  0
    7.2210   -0.4620   20.0350 C   0  0  0  0  0  0  0  0  0  0  0  0
    4.9400    1.7060   18.5060 C   0  0  0  0  0  0  0  0  0  0  0  0
    4.0980    2.1130   19.5350 C   0  0  0  0  0  0  0  0  0  0  0  0
    4.2970    1.6690   20.8430 C   0  0  0  0  0  0  0  0  0  0  0  0
    5.3360    0.8000   21.1530 C   0  0  0  0  0  0  0  0  0  0  0  0
    8.9510    0.1280   21.6880 C   0  0  0  0  0  0  0  0  0  0  0  0
    8.7671   -4.9535   27.2147 C   0  0  0  0  0  0  0  0  0  0  0  0
    9.3066   -6.1865   25.1649 C   0  0  0  0  0  0  0  0  0  0  0  0
    7.3847   -5.5970   27.2000 C   0  0  0  0  0  0  0  0  0  0  0  0
    7.9070   -6.7999   25.2264 C   0  0  0  0  0  0  0  0  0  0  0  0
   10.0220    1.0430   23.6570 C   0  0  0  0  0  0  0  0  0  0  0  0
    9.4200   -0.0840   22.9530 C   0  0  2  0  0  0  0  0  0  0  0  0
    6.9440    0.2550   18.0100 N   0  0  0  0  0  0  0  0  0  0  0  0
    7.6830   -0.5170   18.7600 N   0  0  0  0  0  0  0  0  0  0  0  0
    6.1600    0.3870   20.1140 N   0  0  0  0  0  0  0  0  0  0  0  0
    9.2641   -4.8845   25.8388 N   0  0  0  0  0  0  0  0  0  0  0  0
    8.0810   -0.9750   21.0820 N   0  0  0  0  0  0  0  0  0  0  0  0
    9.1870    1.1500   21.0630 O   0  0  0  0  0  0  0  0  0  0  0  0
    7.4533   -6.8877   26.5818 O   0  0  0  0  0  0  0  0  0  0  0  0
   15.3373    1.4544   22.8816 H   0  0  0  0  0  0  0  0  0  0  0  0
   14.4602    0.1063   24.7706 H   0  0  0  0  0  0  0  0  0  0  0  0
   13.7661    2.6131   21.3499 H   0  0  0  0  0  0  0  0  0  0  0  0
   12.0213   -0.0863   25.1308 H   0  0  0  0  0  0  0  0  0  0  0  0
   11.3258    2.4268   21.7016 H   0  0  0  0  0  0  0  0  0  0  0  0
    7.5957   -0.7779   24.7973 H   0  0  0  0  0  0  0  0  0  0  0  0
   11.0384   -2.1852   22.6338 H   0  0  0  0  0  0  0  0  0  0  0  0
    7.5634   -2.8637   26.1037 H   0  0  0  0  0  0  0  0  0  0  0  0
   11.0139   -4.2645   23.9419 H   0  0  0  0  0  0  0  0  0  0  0  0
    4.7733    2.0700   17.5071 H   0  0  0  0  0  0  0  0  0  0  0  0
    3.2813    2.7836   19.2995 H   0  0  0  0  0  0  0  0  0  0  0  0
    3.6335    1.9977   21.6542 H   0  0  0  0  0  0  0  0  0  0  0  0
    5.5067    0.4537   22.1474 H   0  0  0  0  0  0  0  0  0  0  0  0
    8.7013   -3.9575   27.6574 H   0  0  0  0  0  0  0  0  0  0  0  0
    9.4480   -5.5636   27.8142 H   0  0  0  0  0  0  0  0  0  0  0  0
   10.0131   -6.8375   25.6814 H   0  0  0  0  0  0  0  0  0  0  0  0
    9.6116   -6.0794   24.1250 H   0  0  0  0  0  0  0  0  0  0  0  0
    7.0306   -5.7388   28.2232 H   0  0  0  0  0  0  0  0  0  0  0  0
    6.6546   -4.9740   26.6757 H   0  0  0  0  0  0  0  0  0  0  0  0
    7.1892   -6.2226   24.6319 H   0  0  0  0  0  0  0  0  0  0  0  0
    7.9315   -7.8151   24.8187 H   0  0  0  0  0  0  0  0  0  0  0  0
    9.8155    0.9894   24.7339 H   0  0  0  0  0  0  0  0  0  0  0  0
    9.5584    1.9798   23.3178 H   0  0  0  0  0  0  0  0  0  0  0  0
    8.1278    0.3254   23.5142 H   0  0  0  0  0  0  0  0  0  0  0  0
    8.1354   -1.7990   21.3694 H   0  0  0  0  0  0  0  0  0  0  0  0
  1  2  1  0  0  0  0
  1  3  2  0  0  0  0
  2  4  2  0  0  0  0
  3  5  1  0  0  0  0
  4 10  1  0  0  0  0
  5 10  2  0  0  0  0
  6  8  2  0  0  0  0
  6 11  1  0  0  0  0
  7  9  1  0  0  0  0
  7 11  2  0  0  0  0
  8 12  1  0  0  0  0
  9 12  2  0  0  0  0
 10 24  1  0  0  0  0
 11 25  1  0  0  0  0
 12 29  1  0  0  0  0
 13 15  1  0  0  0  0
 13 26  2  0  0  0  0
 13 28  1  0  0  0  0
 14 27  2  0  0  0  0
 14 28  1  0  0  0  0
 14 30  1  0  0  0  0
 15 16  2  0  0  0  0
 16 17  1  0  0  0  0
 17 18  2  0  0  0  0
 18 28  1  0  0  0  0
 19 25  1  6  0  0  0
 19 30  1  0  0  0  0
 19 31  2  0  0  0  0
 20 22  1  0  0  0  0
 20 29  1  0  0  0  0
 21 23  1  0  0  0  0
 21 29  1  0  0  0  0
 22 32  1  0  0  0  0
 23 32  1  0  0  0  0
 24 25  1  0  0  0  0
 26 27  1  0  0  0  0
  1 33  1  0  0  0  0
  2 34  1  0  0  0  0
  3 35  1  0  0  0  0
  4 36  1  0  0  0  0
  5 37  1  0  0  0  0
  6 38  1  0  0  0  0
  7 39  1  0  0  0  0
  8 40  1  0  0  0  0
  9 41  1  0  0  0  0
 15 42  1  0  0  0  0
 16 43  1  0  0  0  0
 17 44  1  0  0  0  0
 18 45  1  0  0  0  0
 20 46  1  0  0  0  0
 20 47  1  0  0  0  0
 21 48  1  0  0  0  0
 21 49  1  0  0  0  0
 22 50  1  0  0  0  0
 22 51  1  0  0  0  0
 23 52  1  0  0  0  0
 23 53  1  0  0  0  0
 24 54  1  0  0  0  0
 24 55  1  0  0  0  0
 25 56  1  0  0  0  0
 30 57  1  0  0  0  0
M  END
> <clash_score>
0

> <docking_score>
-8.55674934387207

> <overlap_score>
1.0264744758605957

$$$$
BENZO_332_1
  -OEChem-08222022413D

 54 58  0     1  0  0  0  0  0999 V2000
    8.3510   -1.5420   24.6110 C   0  0  0  0  0  0  0  0  0  0  0  0
   10.2760   -2.3270   23.4020 C   0  0  0  0  0  0  0  0  0  0  0  0
    8.3310   -2.7170   25.3430 C   0  0  0  0  0  0  0  0  0  0  0  0
   10.2570   -3.5000   24.1350 C   0  0  0  0  0  0  0  0  0  0  0  0
   11.0518    0.9847   26.0345 C   0  0  0  0  0  0  0  0  0  0  0  0
   12.1353    0.4811   26.7201 C   0  0  0  0  0  0  0  0  0  0  0  0
   12.1840   -0.1301   24.3381 C   0  0  0  0  0  0  0  0  0  0  0  0
    9.3300   -1.3350   23.6390 C   0  0  0  0  0  0  0  0  0  0  0  0
   11.0798    0.6306   24.6546 C   0  0  0  0  0  0  0  0  0  0  0  0
    9.2850   -3.7090   25.1090 C   0  0  0  0  0  0  0  0  0  0  0  0
    5.9810    0.8330   18.8060 C   0  0  0  0  0  0  0  0  0  0  0  0
    7.2210   -0.4620   20.0350 C   0  0  0  0  0  0  0  0  0  0  0  0
    4.9400    1.7060   18.5060 C   0  0  0  0  0  0  0  0  0  0  0  0
    4.0980    2.1130   19.5350 C   0  0  0  0  0  0  0  0  0  0  0  0
    4.2970    1.6690   20.8430 C   0  0  0  0  0  0  0  0  0  0  0  0
    5.3360    0.8000   21.1530 C   0  0  0  0  0  0  0  0  0  0  0  0
    8.9510    0.1280   21.6880 C   0  0  0  0  0  0  0  0  0  0  0  0
    8.7671   -4.9535   27.2147 C   0  0  0  0  0  0  0  0  0  0  0  0
    9.3066   -6.1865   25.1649 C   0  0  0  0  0  0  0  0  0  0  0  0
    7.3847   -5.5970   27.2000 C   0  0  0  0  0  0  0  0  0  0  0  0
    7.9070   -6.7999   25.2264 C   0  0  0  0  0  0  0  0  0  0  0  0
   10.0220    1.0430   23.6570 C   0  0  0  0  0  0  0  0  0  0  0  0
    9.4200   -0.0840   22.9530 C   0  0  1  0  0  0  0  0  0  0  0  0
    6.9440    0.2550   18.0100 N   0  0  0  0  0  0  0  0  0  0  0  0
    7.6830   -0.5170   18.7600 N   0  0  0  0  0  0  0  0  0  0  0  0
    6.1600    0.3870   20.1140 N   0  0  0  0  0  0  0  0  0  0  0  0
    9.2641   -4.8845   25.8388 N   0  0  0  0  0  0  0  0  0  0  0  0
    8.0810   -0.9750   21.0820 N   0  0  0  0  0  0  0  0  0  0  0  0
    9.1870    1.1500   21.0630 O   0  0  0  0  0  0  0  0  0  0  0  0
    7.4533   -6.8877   26.5818 O   0  0  0  0  0  0  0  0  0  0  0  0
   13.1805   -0.4145   25.7013 S   0  0  0  0  0  0  0  0  0  0  0  0
    7.5957   -0.7779   24.7973 H   0  0  0  0  0  0  0  0  0  0  0  0
   11.0384   -2.1852   22.6338 H   0  0  0  0  0  0  0  0  0  0  0  0
    7.5634   -2.8637   26.1037 H   0  0  0  0  0  0  0  0  0  0  0  0
   11.0139   -4.2645   23.9419 H   0  0  0  0  0  0  0  0  0  0  0  0
   10.2782    1.5788   26.5045 H   0  0  0  0  0  0  0  0  0  0  0  0
   12.3635    0.5968   27.7702 H   0  0  0  0  0  0  0  0  0  0  0  0
   12.4575   -0.5332   23.3728 H   0  0  0  0  0  0  0  0  0  0  0  0
    4.7733    2.0700   17.5071 H   0  0  0  0  0  0  0  0  0  0  0  0
    3.2813    2.7836   19.2995 H   0  0  0  0  0  0  0  0  0  0  0  0
    3.6335    1.9977   21.6542 H   0  0  0  0  0  0  0  0  0  0  0  0
    5.5067    0.4537   22.1474 H   0  0  0  0  0  0  0  0  0  0  0  0
    8.7013   -3.9575   27.6574 H   0  0  0  0  0  0  0  0  0  0  0  0
    9.4480   -5.5636   27.8142 H   0  0  0  0  0  0  0  0  0  0  0  0
   10.0131   -6.8375   25.6814 H   0  0  0  0  0  0  0  0  0  0  0  0
    9.6116   -6.0794   24.1250 H   0  0  0  0  0  0  0  0  0  0  0  0
    7.0306   -5.7388   28.2232 H   0  0  0  0  0  0  0  0  0  0  0  0
    6.6546   -4.9740   26.6757 H   0  0  0  0  0  0  0  0  0  0  0  0
    7.1892   -6.2226   24.6319 H   0  0  0  0  0  0  0  0  0  0  0  0
    7.9315   -7.8151   24.8187 H   0  0  0  0  0  0  0  0  0  0  0  0
    9.2564    1.6421   24.1671 H   0  0  0  0  0  0  0  0  0  0  0  0
   10.4892    1.7236   22.9318 H   0  0  0  0  0  0  0  0  0  0  0  0
   10.7366   -0.4277   22.4442 H   0  0  0  0  0  0  0  0  0  0  0  0
    8.1354   -1.7990   21.3694 H   0  0  0  0  0  0  0  0  0  0  0  0
  1  3  2  0  0  0  0
  1  8  1  0  0  0  0
  2  4  1  0  0  0  0
  2  8  2  0  0  0  0
  3 10  1  0  0  0  0
  4 10  2  0  0  0  0
  5  6  2  0  0  0  0
  5  9  1  0  0  0  0
  6 31  1  0  0  0  0
  7  9  2  0  0  0  0
  7 31  1  0  0  0  0
  8 23  1  0  0  0  0
  9 22  1  0  0  0  0
 10 27  1  0  0  0  0
 11 13  1  0  0  0  0
 11 24  2  0  0  0  0
 11 26  1  0  0  0  0
 12 25  2  0  0  0  0
 12 26  1  0  0  0  0
 12 28  1  0  0  0  0
 13 14  2  0  0  0  0
 14 15  1  0  0  0  0
 15 16  2  0  0  0  0
 16 26  1  0  0  0  0
 17 23  1  1  0  0  0
 17 28  1  0  0  0  0
 17 29  2  0  0  0  0
 18 20  1  0  0  0  0
 18 27  1  0  0  0  0
 19 21  1  0  0  0  0
 19 27  1  0  0  0  0
 20 30  1  0  0  0  0
 21 30  1  0  0  0  0
 22 23  1  0  0  0  0
 24 25  1  0  0  0  0
  1 32  1  0  0  0  0
  2 33  1  0  0  0  0
  3 34  1  0  0  0  0
  4 35  1  0  0  0  0
  5 36  1  0  0  0  0
  6 37  1  0  0  0  0
  7 38  1  0  0  0  0
 13 39  1  0  0  0  0
 14 40  1  0  0  0  0
 15 41  1  0  0  0  0
 16 42  1  0  0  0  0
 18 43  1  0  0  0  0
 18 44  1  0  0  0  0
 19 45  1  0  0  0  0
 19 46  1  0  0  0  0
 20 47  1  0  0  0  0
 20 48  1  0  0  0  0
 21 49  1  0  0  0  0
 21 50  1  0  0  0  0
 22 51  1  0  0  0  0
 22 52  1  0  0  0  0
 23 53  1  0  0  0  0
 28 54  1  0  0  0  0
M  END
> <clash_score>
0

> <docking_score>
-6.5822224617004395

> <overlap_score>
0.8996121287345886

$$$$
BENZO_332_2
  -OEChem-08222022413D

 54 58  0     1  0  0  0  0  0999 V2000
    8.3510   -1.5420   24.6110 C   0  0  0  0  0  0  0  0  0  0  0  0
   10.2760   -2.3270   23.4020 C   0  0  0  0  0  0  0  0  0  0  0  0
    8.3310   -2.7170   25.3430 C   0  0  0  0  0  0  0  0  0  0  0  0
   10.2570   -3.5000   24.1350 C   0  0  0  0  0  0  0  0  0  0  0  0
   12.2126    2.3974   23.3680 C   0  0  0  0  0  0  0  0  0  0  0  0
   13.5630    2.2185   23.1633 C   0  0  0  0  0  0  0  0  0  0  0  0
   12.3560    0.0789   23.2869 C   0  0  0  0  0  0  0  0  0  0  0  0
    9.3300   -1.3350   23.6390 C   0  0  0  0  0  0  0  0  0  0  0  0
   11.5133    1.1580   23.4397 C   0  0  0  0  0  0  0  0  0  0  0  0
    9.2850   -3.7090   25.1090 C   0  0  0  0  0  0  0  0  0  0  0  0
    5.9810    0.8330   18.8060 C   0  0  0  0  0  0  0  0  0  0  0  0
    7.2210   -0.4620   20.0350 C   0  0  0  0  0  0  0  0  0  0  0  0
    4.9400    1.7060   18.5060 C   0  0  0  0  0  0  0  0  0  0  0  0
    4.0980    2.1130   19.5350 C   0  0  0  0  0  0  0  0  0  0  0  0
    4.2970    1.6690   20.8430 C   0  0  0  0  0  0  0  0  0  0  0  0
    5.3360    0.8000   21.1530 C   0  0  0  0  0  0  0  0  0  0  0  0
    8.9510    0.1280   21.6880 C   0  0  0  0  0  0  0  0  0  0  0  0
    8.7671   -4.9535   27.2147 C   0  0  0  0  0  0  0  0  0  0  0  0
    9.3066   -6.1865   25.1649 C   0  0  0  0  0  0  0  0  0  0  0  0
    7.3847   -5.5970   27.2000 C   0  0  0  0  0  0  0  0  0  0  0  0
    7.9070   -6.7999   25.2264 C   0  0  0  0  0  0  0  0  0  0  0  0
   10.0220    1.0430   23.6570 C   0  0  0  0  0  0  0  0  0  0  0  0
    9.4200   -0.0840   22.9530 C   0  0  2  0  0  0  0  0  0  0  0  0
    6.9440    0.2550   18.0100 N   0  0  0  0  0  0  0  0  0  0  0  0
    7.6830   -0.5170   18.7600 N   0  0  0  0  0  0  0  0  0  0  0  0
    6.1600    0.3870   20.1140 N   0  0  0  0  0  0  0  0  0  0  0  0
    9.2641   -4.8845   25.8388 N   0  0  0  0  0  0  0  0  0  0  0  0
    8.0810   -0.9750   21.0820 N   0  0  0  0  0  0  0  0  0  0  0  0
    9.1870    1.1500   21.0630 O   0  0  0  0  0  0  0  0  0  0  0  0
    7.4533   -6.8877   26.5818 O   0  0  0  0  0  0  0  0  0  0  0  0
   13.9830    0.5617   23.0584 S   0  0  0  0  0  0  0  0  0  0  0  0
    7.5957   -0.7779   24.7973 H   0  0  0  0  0  0  0  0  0  0  0  0
   11.0384   -2.1852   22.6338 H   0  0  0  0  0  0  0  0  0  0  0  0
    7.5634   -2.8637   26.1037 H   0  0  0  0  0  0  0  0  0  0  0  0
   11.0139   -4.2645   23.9419 H   0  0  0  0  0  0  0  0  0  0  0  0
   11.7522    3.3730   23.4608 H   0  0  0  0  0  0  0  0  0  0  0  0
   14.3229    2.9813   23.0696 H   0  0  0  0  0  0  0  0  0  0  0  0
   12.0982   -0.9711   23.2967 H   0  0  0  0  0  0  0  0  0  0  0  0
    4.7733    2.0700   17.5071 H   0  0  0  0  0  0  0  0  0  0  0  0
    3.2813    2.7836   19.2995 H   0  0  0  0  0  0  0  0  0  0  0  0
    3.6335    1.9977   21.6542 H   0  0  0  0  0  0  0  0  0  0  0  0
    5.5067    0.4537   22.1474 H   0  0  0  0  0  0  0  0  0  0  0  0
    8.7013   -3.9575   27.6574 H   0  0  0  0  0  0  0  0  0  0  0  0
    9.4480   -5.5636   27.8142 H   0  0  0  0  0  0  0  0  0  0  0  0
   10.0131   -6.8375   25.6814 H   0  0  0  0  0  0  0  0  0  0  0  0
    9.6116   -6.0794   24.1250 H   0  0  0  0  0  0  0  0  0  0  0  0
    7.0306   -5.7388   28.2232 H   0  0  0  0  0  0  0  0  0  0  0  0
    6.6546   -4.9740   26.6757 H   0  0  0  0  0  0  0  0  0  0  0  0
    7.1892   -6.2226   24.6319 H   0  0  0  0  0  0  0  0  0  0  0  0
    7.9315   -7.8151   24.8187 H   0  0  0  0  0  0  0  0  0  0  0  0
    9.8155    0.9894   24.7339 H   0  0  0  0  0  0  0  0  0  0  0  0
    9.5584    1.9798   23.3178 H   0  0  0  0  0  0  0  0  0  0  0  0
    8.1278    0.3254   23.5142 H   0  0  0  0  0  0  0  0  0  0  0  0
    8.1354   -1.7990   21.3694 H   0  0  0  0  0  0  0  0  0  0  0  0
  1  3  2  0  0  0  0
  1  8  1  0  0  0  0
  2  4  1  0  0  0  0
  2  8  2  0  0  0  0
  3 10  1  0  0  0  0
  4 10  2  0  0  0  0
  5  6  2  0  0  0  0
  5  9  1  0  0  0  0
  6 31  1  0  0  0  0
  7  9  2  0  0  0  0
  7 31  1  0  0  0  0
  8 23  1  0  0  0  0
  9 22  1  0  0  0  0
 10 27  1  0  0  0  0
 11 13  1  0  0  0  0
 11 24  2  0  0  0  0
 11 26  1  0  0  0  0
 12 25  2  0  0  0  0
 12 26  1  0  0  0  0
 12 28  1  0  0  0  0
 13 14  2  0  0  0  0
 14 15  1  0  0  0  0
 15 16  2  0  0  0  0
 16 26  1  0  0  0  0
 17 23  1  6  0  0  0
 17 28  1  0  0  0  0
 17 29  2  0  0  0  0
 18 20  1  0  0  0  0
 18 27  1  0  0  0  0
 19 21  1  0  0  0  0
 19 27  1  0  0  0  0
 20 30  1  0  0  0  0
 21 30  1  0  0  0  0
 22 23  1  0  0  0  0
 24 25  1  0  0  0  0
  1 32  1  0  0  0  0
  2 33  1  0  0  0  0
  3 34  1  0  0  0  0
  4 35  1  0  0  0  0
  5 36  1  0  0  0  0
  6 37  1  0  0  0  0
  7 38  1  0  0  0  0
 13 39  1  0  0  0  0
 14 40  1  0  0  0  0
 15 41  1  0  0  0  0
 16 42  1  0  0  0  0
 18 43  1  0  0  0  0
 18 44  1  0  0  0  0
 19 45  1  0  0  0  0
 19 46  1  0  0  0  0
 20 47  1  0  0  0  0
 20 48  1  0  0  0  0
 21 49  1  0  0  0  0
 21 50  1  0  0  0  0
 22 51  1  0  0  0  0
 22 52  1  0  0  0  0
 23 53  1  0  0  0  0
 28 54  1  0  0  0  0
M  END
> <clash_score>
0

> <docking_score>
-9.365766525268555

> <overlap_score>
1.0137988328933716

$$$$
BENZO_337_1
  -OEChem-08222022413D

 52 55  0     0  0  0  0  0  0999 V2000
   14.3082    0.9431   23.4783 C   0  0  0  0  0  0  0  0  0  0  0  0
   13.6391    0.3091   24.5251 C   0  0  0  0  0  0  0  0  0  0  0  0
   13.5841    1.6096   22.4898 C   0  0  0  0  0  0  0  0  0  0  0  0
    4.0980    2.1130   19.5350 C   0  0  0  0  0  0  0  0  0  0  0  0
    4.2970    1.6690   20.8430 C   0  0  0  0  0  0  0  0  0  0  0  0
   12.2459    0.3415   24.5835 C   0  0  0  0  0  0  0  0  0  0  0  0
   12.1908    1.6420   22.5481 C   0  0  0  0  0  0  0  0  0  0  0  0
    4.9400    1.7060   18.5060 C   0  0  0  0  0  0  0  0  0  0  0  0
    5.3360    0.8000   21.1530 C   0  0  0  0  0  0  0  0  0  0  0  0
    8.3510   -1.5420   24.6110 C   0  0  0  0  0  0  0  0  0  0  0  0
   10.2760   -2.3270   23.4020 C   0  0  0  0  0  0  0  0  0  0  0  0
    8.3310   -2.7170   25.3430 C   0  0  0  0  0  0  0  0  0  0  0  0
   10.2570   -3.5000   24.1350 C   0  0  0  0  0  0  0  0  0  0  0  0
   11.5217    1.0079   23.5949 C   0  0  0  0  0  0  0  0  0  0  0  0
    5.9810    0.8330   18.8060 C   0  0  0  0  0  0  0  0  0  0  0  0
    6.1600    0.3870   20.1140 C   0  0  0  0  0  0  0  0  0  0  0  0
    9.3300   -1.3350   23.6390 C   0  0  0  0  0  0  0  0  0  0  0  0
    9.2850   -3.7090   25.1090 C   0  0  0  0  0  0  0  0  0  0  0  0
    8.9510    0.1280   21.6880 C   0  0  0  0  0  0  0  0  0  0  0  0
    8.2496   -5.1174   26.8641 C   0  0  0  0  0  0  0  0  0  0  0  0
   10.2420   -5.9413   25.5990 C   0  0  0  0  0  0  0  0  0  0  0  0
   10.0220    1.0430   23.6570 C   0  0  0  0  0  0  0  0  0  0  0  0
    8.0810   -0.9750   21.0820 C   0  0  0  0  0  0  0  0  0  0  0  0
    6.9440    0.2550   18.0100 N   0  0  0  0  0  0  0  0  0  0  0  0
    7.6830   -0.5170   18.7600 N   0  0  0  0  0  0  0  0  0  0  0  0
    7.2210   -0.4620   20.0350 N   0  0  0  0  0  0  0  0  0  0  0  0
    9.4200   -0.0840   22.9530 N   0  0  0  0  0  0  0  0  0  0  0  0
    9.2624   -4.9028   25.8498 N   0  0  0  0  0  0  0  0  0  0  0  0
    9.1870    1.1500   21.0630 O   0  0  0  0  0  0  0  0  0  0  0  0
   15.3932    0.9189   23.4337 H   0  0  0  0  0  0  0  0  0  0  0  0
   14.2029   -0.2090   25.2955 H   0  0  0  0  0  0  0  0  0  0  0  0
   14.1048    2.1043   21.6752 H   0  0  0  0  0  0  0  0  0  0  0  0
    3.2714    2.7873   19.3199 H   0  0  0  0  0  0  0  0  0  0  0  0
    3.6281    2.0093   21.6291 H   0  0  0  0  0  0  0  0  0  0  0  0
   11.7330   -0.1555   25.4027 H   0  0  0  0  0  0  0  0  0  0  0  0
   11.6349    2.1636   21.7735 H   0  0  0  0  0  0  0  0  0  0  0  0
    4.7823    2.0669   17.4883 H   0  0  0  0  0  0  0  0  0  0  0  0
    5.4954    0.4562   22.1797 H   0  0  0  0  0  0  0  0  0  0  0  0
    7.5947   -0.7787   24.7997 H   0  0  0  0  0  0  0  0  0  0  0  0
   11.0404   -2.1861   22.6352 H   0  0  0  0  0  0  0  0  0  0  0  0
    7.5641   -2.8632   26.1047 H   0  0  0  0  0  0  0  0  0  0  0  0
   11.0135   -4.2647   23.9425 H   0  0  0  0  0  0  0  0  0  0  0  0
    8.3981   -6.1035   27.3284 H   0  0  0  0  0  0  0  0  0  0  0  0
    8.3290   -4.3346   27.6328 H   0  0  0  0  0  0  0  0  0  0  0  0
    7.2527   -5.0767   26.4009 H   0  0  0  0  0  0  0  0  0  0  0  0
   10.0583   -6.7900   26.2743 H   0  0  0  0  0  0  0  0  0  0  0  0
   10.1594   -6.2787   24.5553 H   0  0  0  0  0  0  0  0  0  0  0  0
   11.2519   -5.5433   25.7769 H   0  0  0  0  0  0  0  0  0  0  0  0
    9.6778    1.0140   24.6966 H   0  0  0  0  0  0  0  0  0  0  0  0
    9.6316    1.9637   23.2107 H   0  0  0  0  0  0  0  0  0  0  0  0
    8.7066   -1.7479   20.6383 H   0  0  0  0  0  0  0  0  0  0  0  0
    7.4345   -1.4041   21.8461 H   0  0  0  0  0  0  0  0  0  0  0  0
  1  2  1  0  0  0  0
  1  3  2  0  0  0  0
  2  6  2  0  0  0  0
  3  7  1  0  0  0  0
  4  5  1  0  0  0  0
  4  8  2  0  0  0  0
  5  9  2  0  0  0  0
  6 14  1  0  0  0  0
  7 14  2  0  0  0  0
  8 15  1  0  0  0  0
  9 16  1  0  0  0  0
 10 12  2  0  0  0  0
 10 17  1  0  0  0  0
 11 13  1  0  0  0  0
 11 17  2  0  0  0  0
 12 18  1  0  0  0  0
 13 18  2  0  0  0  0
 14 22  1  0  0  0  0
 15 16  2  0  0  0  0
 15 24  1  0  0  0  0
 16 26  1  0  0  0  0
 17 27  1  0  0  0  0
 18 28  1  0  0  0  0
 19 23  1  0  0  0  0
 19 27  1  0  0  0  0
 19 29  2  0  0  0  0
 20 28  1  0  0  0  0
 21 28  1  0  0  0  0
 22 27  1  0  0  0  0
 23 26  1  0  0  0  0
 24 25  2  0  0  0  0
 25 26  1  0  0  0  0
  1 30  1  0  0  0  0
  2 31  1  0  0  0  0
  3 32  1  0  0  0  0
  4 33  1  0  0  0  0
  5 34  1  0  0  0  0
  6 35  1  0  0  0  0
  7 36  1  0  0  0  0
  8 37  1  0  0  0  0
  9 38  1  0  0  0  0
 10 39  1  0  0  0  0
 11 40  1  0  0  0  0
 12 41  1  0  0  0  0
 13 42  1  0  0  0  0
 20 43  1  0  0  0  0
 20 44  1  0  0  0  0
 20 45  1  0  0  0  0
 21 46  1  0  0  0  0
 21 47  1  0  0  0  0
 21 48  1  0  0  0  0
 22 49  1  0  0  0  0
 22 50  1  0  0  0  0
 23 51  1  0  0  0  0
 23 52  1  0  0  0  0
M  END
> <clash_score>
0

> <docking_score>
-9.962409019470215

> <overlap_score>
1.0030866861343384

$$$$
BENZO_336_1
  -OEChem-08222022413D

 49 52  0     0  0  0  0  0  0999 V2000
    4.0980    2.1130   19.5350 C   0  0  0  0  0  0  0  0  0  0  0  0
    4.2970    1.6690   20.8430 C   0  0  0  0  0  0  0  0  0  0  0  0
    4.9400    1.7060   18.5060 C   0  0  0  0  0  0  0  0  0  0  0  0
    5.3360    0.8000   21.1530 C   0  0  0  0  0  0  0  0  0  0  0  0
    8.3510   -1.5420   24.6110 C   0  0  0  0  0  0  0  0  0  0  0  0
   10.2760   -2.3270   23.4020 C   0  0  0  0  0  0  0  0  0  0  0  0
    8.3310   -2.7170   25.3430 C   0  0  0  0  0  0  0  0  0  0  0  0
   10.2570   -3.5000   24.1350 C   0  0  0  0  0  0  0  0  0  0  0  0
   12.2675    1.0332   22.3812 C   0  0  0  0  0  0  0  0  0  0  0  0
   13.6257    0.9906   22.6074 C   0  0  0  0  0  0  0  0  0  0  0  0
   12.3384    0.9467   24.7028 C   0  0  0  0  0  0  0  0  0  0  0  0
   11.5217    1.0079   23.5949 C   0  0  0  0  0  0  0  0  0  0  0  0
    5.9810    0.8330   18.8060 C   0  0  0  0  0  0  0  0  0  0  0  0
    6.1600    0.3870   20.1140 C   0  0  0  0  0  0  0  0  0  0  0  0
    9.3300   -1.3350   23.6390 C   0  0  0  0  0  0  0  0  0  0  0  0
    9.2850   -3.7090   25.1090 C   0  0  0  0  0  0  0  0  0  0  0  0
    8.9510    0.1280   21.6880 C   0  0  0  0  0  0  0  0  0  0  0  0
    8.2496   -5.1174   26.8641 C   0  0  0  0  0  0  0  0  0  0  0  0
   10.2420   -5.9413   25.5990 C   0  0  0  0  0  0  0  0  0  0  0  0
   10.0220    1.0430   23.6570 C   0  0  0  0  0  0  0  0  0  0  0  0
    8.0810   -0.9750   21.0820 C   0  0  0  0  0  0  0  0  0  0  0  0
    6.9440    0.2550   18.0100 N   0  0  0  0  0  0  0  0  0  0  0  0
    7.6830   -0.5170   18.7600 N   0  0  0  0  0  0  0  0  0  0  0  0
    7.2210   -0.4620   20.0350 N   0  0  0  0  0  0  0  0  0  0  0  0
    9.4200   -0.0840   22.9530 N   0  0  0  0  0  0  0  0  0  0  0  0
    9.2624   -4.9028   25.8498 N   0  0  0  0  0  0  0  0  0  0  0  0
    9.1870    1.1500   21.0630 O   0  0  0  0  0  0  0  0  0  0  0  0
   13.9969    0.9202   24.2776 S   0  0  0  0  0  0  0  0  0  0  0  0
    3.2714    2.7873   19.3199 H   0  0  0  0  0  0  0  0  0  0  0  0
    3.6281    2.0093   21.6291 H   0  0  0  0  0  0  0  0  0  0  0  0
    4.7823    2.0669   17.4883 H   0  0  0  0  0  0  0  0  0  0  0  0
    5.4954    0.4562   22.1797 H   0  0  0  0  0  0  0  0  0  0  0  0
    7.5947   -0.7787   24.7997 H   0  0  0  0  0  0  0  0  0  0  0  0
   11.0404   -2.1861   22.6352 H   0  0  0  0  0  0  0  0  0  0  0  0
    7.5641   -2.8632   26.1047 H   0  0  0  0  0  0  0  0  0  0  0  0
   11.0135   -4.2647   23.9425 H   0  0  0  0  0  0  0  0  0  0  0  0
   11.8338    1.0798   21.3902 H   0  0  0  0  0  0  0  0  0  0  0  0
   14.4176    0.9966   21.8719 H   0  0  0  0  0  0  0  0  0  0  0  0
   12.0446    0.9149   25.7428 H   0  0  0  0  0  0  0  0  0  0  0  0
    8.3981   -6.1035   27.3284 H   0  0  0  0  0  0  0  0  0  0  0  0
    8.3290   -4.3346   27.6328 H   0  0  0  0  0  0  0  0  0  0  0  0
    7.2527   -5.0767   26.4009 H   0  0  0  0  0  0  0  0  0  0  0  0
   10.0583   -6.7900   26.2743 H   0  0  0  0  0  0  0  0  0  0  0  0
   10.1594   -6.2787   24.5553 H   0  0  0  0  0  0  0  0  0  0  0  0
   11.2519   -5.5433   25.7769 H   0  0  0  0  0  0  0  0  0  0  0  0
    9.6778    1.0140   24.6966 H   0  0  0  0  0  0  0  0  0  0  0  0
    9.6316    1.9637   23.2107 H   0  0  0  0  0  0  0  0  0  0  0  0
    8.7066   -1.7479   20.6383 H   0  0  0  0  0  0  0  0  0  0  0  0
    7.4345   -1.4041   21.8461 H   0  0  0  0  0  0  0  0  0  0  0  0
  1  2  1  0  0  0  0
  1  3  2  0  0  0  0
  2  4  2  0  0  0  0
  3 13  1  0  0  0  0
  4 14  1  0  0  0  0
  5  7  2  0  0  0  0
  5 15  1  0  0  0  0
  6  8  1  0  0  0  0
  6 15  2  0  0  0  0
  7 16  1  0  0  0  0
  8 16  2  0  0  0  0
  9 10  2  0  0  0  0
  9 12  1  0  0  0  0
 10 28  1  0  0  0  0
 11 12  2  0  0  0  0
 11 28  1  0  0  0  0
 12 20  1  0  0  0  0
 13 14  2  0  0  0  0
 13 22  1  0  0  0  0
 14 24  1  0  0  0  0
 15 25  1  0  0  0  0
 16 26  1  0  0  0  0
 17 21  1  0  0  0  0
 17 25  1  0  0  0  0
 17 27  2  0  0  0  0
 18 26  1  0  0  0  0
 19 26  1  0  0  0  0
 20 25  1  0  0  0  0
 21 24  1  0  0  0  0
 22 23  2  0  0  0  0
 23 24  1  0  0  0  0
  1 29  1  0  0  0  0
  2 30  1  0  0  0  0
  3 31  1  0  0  0  0
  4 32  1  0  0  0  0
  5 33  1  0  0  0  0
  6 34  1  0  0  0  0
  7 35  1  0  0  0  0
  8 36  1  0  0  0  0
  9 37  1  0  0  0  0
 10 38  1  0  0  0  0
 11 39  1  0  0  0  0
 18 40  1  0  0  0  0
 18 41  1  0  0  0  0
 18 42  1  0  0  0  0
 19 43  1  0  0  0  0
 19 44  1  0  0  0  0
 19 45  1  0  0  0  0
 20 46  1  0  0  0  0
 20 47  1  0  0  0  0
 21 48  1  0  0  0  0
 21 49  1  0  0  0  0
M  END
> <clash_score>
0

> <docking_score>
-10.20860767364502

> <overlap_score>
0.9772633910179138

$$$$
BENZO_339_1
  -OEChem-08222022413D

 52 55  0     0  0  0  0  0  0999 V2000
    4.0980    2.1130   19.5350 C   0  0  0  0  0  0  0  0  0  0  0  0
    4.2970    1.6690   20.8430 C   0  0  0  0  0  0  0  0  0  0  0  0
    4.9400    1.7060   18.5060 C   0  0  0  0  0  0  0  0  0  0  0  0
    5.3360    0.8000   21.1530 C   0  0  0  0  0  0  0  0  0  0  0  0
    8.3510   -1.5420   24.6110 C   0  0  0  0  0  0  0  0  0  0  0  0
   10.2760   -2.3270   23.4020 C   0  0  0  0  0  0  0  0  0  0  0  0
    8.3310   -2.7170   25.3430 C   0  0  0  0  0  0  0  0  0  0  0  0
   10.2570   -3.5000   24.1350 C   0  0  0  0  0  0  0  0  0  0  0  0
   12.4359    1.7439   24.3724 C   0  0  0  0  0  0  0  0  0  0  0  0
   12.3100    0.2469   22.7668 C   0  0  0  0  0  0  0  0  0  0  0  0
   11.5217    1.0079   23.5949 C   0  0  0  0  0  0  0  0  0  0  0  0
    5.9810    0.8330   18.8060 C   0  0  0  0  0  0  0  0  0  0  0  0
    6.1600    0.3870   20.1140 C   0  0  0  0  0  0  0  0  0  0  0  0
    9.3300   -1.3350   23.6390 C   0  0  0  0  0  0  0  0  0  0  0  0
    9.2850   -3.7090   25.1090 C   0  0  0  0  0  0  0  0  0  0  0  0
    8.9510    0.1280   21.6880 C   0  0  0  0  0  0  0  0  0  0  0  0
   14.7884    0.0124   22.4815 C   0  0  0  0  0  0  0  0  0  0  0  0
    8.2496   -5.1174   26.8641 C   0  0  0  0  0  0  0  0  0  0  0  0
   10.2420   -5.9413   25.5990 C   0  0  0  0  0  0  0  0  0  0  0  0
   10.0220    1.0430   23.6570 C   0  0  0  0  0  0  0  0  0  0  0  0
    8.0810   -0.9750   21.0820 C   0  0  0  0  0  0  0  0  0  0  0  0
   13.7076    1.4745   24.0657 N   0  0  0  0  0  0  0  0  0  0  0  0
    6.9440    0.2550   18.0100 N   0  0  0  0  0  0  0  0  0  0  0  0
    7.6830   -0.5170   18.7600 N   0  0  0  0  0  0  0  0  0  0  0  0
   13.5982    0.5607   23.0864 N   0  0  0  0  0  0  0  0  0  0  0  0
    7.2210   -0.4620   20.0350 N   0  0  0  0  0  0  0  0  0  0  0  0
    9.4200   -0.0840   22.9530 N   0  0  0  0  0  0  0  0  0  0  0  0
    9.2624   -4.9028   25.8498 N   0  0  0  0  0  0  0  0  0  0  0  0
    9.1870    1.1500   21.0630 O   0  0  0  0  0  0  0  0  0  0  0  0
    3.2714    2.7873   19.3199 H   0  0  0  0  0  0  0  0  0  0  0  0
    3.6281    2.0093   21.6291 H   0  0  0  0  0  0  0  0  0  0  0  0
    4.7823    2.0669   17.4883 H   0  0  0  0  0  0  0  0  0  0  0  0
    5.4954    0.4562   22.1797 H   0  0  0  0  0  0  0  0  0  0  0  0
    7.5947   -0.7787   24.7997 H   0  0  0  0  0  0  0  0  0  0  0  0
   11.0404   -2.1861   22.6352 H   0  0  0  0  0  0  0  0  0  0  0  0
    7.5641   -2.8632   26.1047 H   0  0  0  0  0  0  0  0  0  0  0  0
   11.0135   -4.2647   23.9425 H   0  0  0  0  0  0  0  0  0  0  0  0
   12.2308    2.4652   25.1508 H   0  0  0  0  0  0  0  0  0  0  0  0
   12.0700   -0.4744   21.9974 H   0  0  0  0  0  0  0  0  0  0  0  0
   15.0569    0.6453   21.6315 H   0  0  0  0  0  0  0  0  0  0  0  0
   15.5971   -0.0026   23.2174 H   0  0  0  0  0  0  0  0  0  0  0  0
   14.5870   -1.0100   22.1498 H   0  0  0  0  0  0  0  0  0  0  0  0
    8.3981   -6.1035   27.3284 H   0  0  0  0  0  0  0  0  0  0  0  0
    8.3290   -4.3346   27.6328 H   0  0  0  0  0  0  0  0  0  0  0  0
    7.2527   -5.0767   26.4009 H   0  0  0  0  0  0  0  0  0  0  0  0
   10.0583   -6.7900   26.2743 H   0  0  0  0  0  0  0  0  0  0  0  0
   10.1594   -6.2787   24.5553 H   0  0  0  0  0  0  0  0  0  0  0  0
   11.2519   -5.5433   25.7769 H   0  0  0  0  0  0  0  0  0  0  0  0
    9.6778    1.0140   24.6966 H   0  0  0  0  0  0  0  0  0  0  0  0
    9.6316    1.9637   23.2107 H   0  0  0  0  0  0  0  0  0  0  0  0
    8.7066   -1.7479   20.6383 H   0  0  0  0  0  0  0  0  0  0  0  0
    7.4345   -1.4041   21.8461 H   0  0  0  0  0  0  0  0  0  0  0  0
  1  2  1  0  0  0  0
  1  3  2  0  0  0  0
  2  4  2  0  0  0  0
  3 12  1  0  0  0  0
  4 13  1  0  0  0  0
  5  7  2  0  0  0  0
  5 14  1  0  0  0  0
  6  8  1  0  0  0  0
  6 14  2  0  0  0  0
  7 15  1  0  0  0  0
  8 15  2  0  0  0  0
  9 11  1  0  0  0  0
  9 22  2  0  0  0  0
 10 11  2  0  0  0  0
 10 25  1  0  0  0  0
 11 20  1  0  0  0  0
 12 13  2  0  0  0  0
 12 23  1  0  0  0  0
 13 26  1  0  0  0  0
 14 27  1  0  0  0  0
 15 28  1  0  0  0  0
 16 21  1  0  0  0  0
 16 27  1  0  0  0  0
 16 29  2  0  0  0  0
 17 25  1  0  0  0  0
 18 28  1  0  0  0  0
 19 28  1  0  0  0  0
 20 27  1  0  0  0  0
 21 26  1  0  0  0  0
 22 25  1  0  0  0  0
 23 24  2  0  0  0  0
 24 26  1  0  0  0  0
  1 30  1  0  0  0  0
  2 31  1  0  0  0  0
  3 32  1  0  0  0  0
  4 33  1  0  0  0  0
  5 34  1  0  0  0  0
  6 35  1  0  0  0  0
  7 36  1  0  0  0  0
  8 37  1  0  0  0  0
  9 38  1  0  0  0  0
 10 39  1  0  0  0  0
 17 40  1  0  0  0  0
 17 41  1  0  0  0  0
 17 42  1  0  0  0  0
 18 43  1  0  0  0  0
 18 44  1  0  0  0  0
 18 45  1  0  0  0  0
 19 46  1  0  0  0  0
 19 47  1  0  0  0  0
 19 48  1  0  0  0  0
 20 49  1  0  0  0  0
 20 50  1  0  0  0  0
 21 51  1  0  0  0  0
 21 52  1  0  0  0  0
M  END
> <clash_score>
0

> <docking_score>
-10.17701530456543

> <overlap_score>
0.9891872406005859

$$$$
BENZO_338_1
  -OEChem-08222022413D

 52 55  0     0  0  0  0  0  0999 V2000
    4.0980    2.1130   19.5350 C   0  0  0  0  0  0  0  0  0  0  0  0
    4.2970    1.6690   20.8430 C   0  0  0  0  0  0  0  0  0  0  0  0
   13.5977    1.8457   22.6865 C   0  0  0  0  0  0  0  0  0  0  0  0
   12.2044    1.8769   22.7438 C   0  0  0  0  0  0  0  0  0  0  0  0
    4.9400    1.7060   18.5060 C   0  0  0  0  0  0  0  0  0  0  0  0
    5.3360    0.8000   21.1530 C   0  0  0  0  0  0  0  0  0  0  0  0
    8.3510   -1.5420   24.6110 C   0  0  0  0  0  0  0  0  0  0  0  0
   10.2760   -2.3270   23.4020 C   0  0  0  0  0  0  0  0  0  0  0  0
    8.3310   -2.7170   25.3430 C   0  0  0  0  0  0  0  0  0  0  0  0
   10.2570   -3.5000   24.1350 C   0  0  0  0  0  0  0  0  0  0  0  0
   14.3084    0.9454   23.4803 C   0  0  0  0  0  0  0  0  0  0  0  0
   12.2323    0.1076   24.3888 C   0  0  0  0  0  0  0  0  0  0  0  0
   11.5217    1.0079   23.5949 C   0  0  0  0  0  0  0  0  0  0  0  0
    5.9810    0.8330   18.8060 C   0  0  0  0  0  0  0  0  0  0  0  0
    6.1600    0.3870   20.1140 C   0  0  0  0  0  0  0  0  0  0  0  0
    9.3300   -1.3350   23.6390 C   0  0  0  0  0  0  0  0  0  0  0  0
    9.2850   -3.7090   25.1090 C   0  0  0  0  0  0  0  0  0  0  0  0
   13.6257    0.0764   24.3314 C   0  0  0  0  0  0  0  0  0  0  0  0
    8.9510    0.1280   21.6880 C   0  0  0  0  0  0  0  0  0  0  0  0
    8.2496   -5.1174   26.8641 C   0  0  0  0  0  0  0  0  0  0  0  0
   10.2420   -5.9413   25.5990 C   0  0  0  0  0  0  0  0  0  0  0  0
   10.0220    1.0430   23.6570 C   0  0  0  0  0  0  0  0  0  0  0  0
    8.0810   -0.9750   21.0820 C   0  0  0  0  0  0  0  0  0  0  0  0
    6.9440    0.2550   18.0100 N   0  0  0  0  0  0  0  0  0  0  0  0
    7.6830   -0.5170   18.7600 N   0  0  0  0  0  0  0  0  0  0  0  0
    7.2210   -0.4620   20.0350 N   0  0  0  0  0  0  0  0  0  0  0  0
    9.4200   -0.0840   22.9530 N   0  0  0  0  0  0  0  0  0  0  0  0
    9.2624   -4.9028   25.8498 N   0  0  0  0  0  0  0  0  0  0  0  0
    9.1870    1.1500   21.0630 O   0  0  0  0  0  0  0  0  0  0  0  0
   14.5031   -1.0334   25.3114 Cl  0  0  0  0  0  0  0  0  0  0  0  0
    3.2714    2.7873   19.3199 H   0  0  0  0  0  0  0  0  0  0  0  0
    3.6281    2.0093   21.6291 H   0  0  0  0  0  0  0  0  0  0  0  0
   14.1289    2.5226   22.0237 H   0  0  0  0  0  0  0  0  0  0  0  0
   11.6588    2.5818   22.1218 H   0  0  0  0  0  0  0  0  0  0  0  0
    4.7823    2.0669   17.4883 H   0  0  0  0  0  0  0  0  0  0  0  0
    5.4954    0.4562   22.1797 H   0  0  0  0  0  0  0  0  0  0  0  0
    7.5947   -0.7787   24.7997 H   0  0  0  0  0  0  0  0  0  0  0  0
   11.0404   -2.1861   22.6352 H   0  0  0  0  0  0  0  0  0  0  0  0
    7.5641   -2.8632   26.1047 H   0  0  0  0  0  0  0  0  0  0  0  0
   11.0135   -4.2647   23.9425 H   0  0  0  0  0  0  0  0  0  0  0  0
   15.3941    0.9323   23.4255 H   0  0  0  0  0  0  0  0  0  0  0  0
   11.6954   -0.5682   25.0504 H   0  0  0  0  0  0  0  0  0  0  0  0
    8.3981   -6.1035   27.3284 H   0  0  0  0  0  0  0  0  0  0  0  0
    8.3290   -4.3346   27.6328 H   0  0  0  0  0  0  0  0  0  0  0  0
    7.2527   -5.0767   26.4009 H   0  0  0  0  0  0  0  0  0  0  0  0
   10.0583   -6.7900   26.2743 H   0  0  0  0  0  0  0  0  0  0  0  0
   10.1594   -6.2787   24.5553 H   0  0  0  0  0  0  0  0  0  0  0  0
   11.2519   -5.5433   25.7769 H   0  0  0  0  0  0  0  0  0  0  0  0
    9.6778    1.0140   24.6966 H   0  0  0  0  0  0  0  0  0  0  0  0
    9.6316    1.9637   23.2107 H   0  0  0  0  0  0  0  0  0  0  0  0
    8.7066   -1.7479   20.6383 H   0  0  0  0  0  0  0  0  0  0  0  0
    7.4345   -1.4041   21.8461 H   0  0  0  0  0  0  0  0  0  0  0  0
  1  2  1  0  0  0  0
  1  5  2  0  0  0  0
  2  6  2  0  0  0  0
  3  4  2  0  0  0  0
  3 11  1  0  0  0  0
  4 13  1  0  0  0  0
  5 14  1  0  0  0  0
  6 15  1  0  0  0  0
  7  9  2  0  0  0  0
  7 16  1  0  0  0  0
  8 10  1  0  0  0  0
  8 16  2  0  0  0  0
  9 17  1  0  0  0  0
 10 17  2  0  0  0  0
 11 18  2  0  0  0  0
 12 13  2  0  0  0  0
 12 18  1  0  0  0  0
 13 22  1  0  0  0  0
 14 15  2  0  0  0  0
 14 24  1  0  0  0  0
 15 26  1  0  0  0  0
 16 27  1  0  0  0  0
 17 28  1  0  0  0  0
 18 30  1  0  0  0  0
 19 23  1  0  0  0  0
 19 27  1  0  0  0  0
 19 29  2  0  0  0  0
 20 28  1  0  0  0  0
 21 28  1  0  0  0  0
 22 27  1  0  0  0  0
 23 26  1  0  0  0  0
 24 25  2  0  0  0  0
 25 26  1  0  0  0  0
  1 31  1  0  0  0  0
  2 32  1  0  0  0  0
  3 33  1  0  0  0  0
  4 34  1  0  0  0  0
  5 35  1  0  0  0  0
  6 36  1  0  0  0  0
  7 37  1  0  0  0  0
  8 38  1  0  0  0  0
  9 39  1  0  0  0  0
 10 40  1  0  0  0  0
 11 41  1  0  0  0  0
 12 42  1  0  0  0  0
 20 43  1  0  0  0  0
 20 44  1  0  0  0  0
 20 45  1  0  0  0  0
 21 46  1  0  0  0  0
 21 47  1  0  0  0  0
 21 48  1  0  0  0  0
 22 49  1  0  0  0  0
 22 50  1  0  0  0  0
 23 51  1  0  0  0  0
 23 52  1  0  0  0  0
M  END
> <clash_score>
0.7662461603438702

> <docking_score>
-9.144307136535645

> <overlap_score>
1.0082918405532837

$$$$
BENZO_335_1
  -OEChem-08222022413D

 57 61  0     1  0  0  0  0  0999 V2000
    8.3510   -1.5420   24.6110 C   0  0  0  0  0  0  0  0  0  0  0  0
   10.2760   -2.3270   23.4020 C   0  0  0  0  0  0  0  0  0  0  0  0
    8.3310   -2.7170   25.3430 C   0  0  0  0  0  0  0  0  0  0  0  0
   10.2570   -3.5000   24.1350 C   0  0  0  0  0  0  0  0  0  0  0  0
   12.2990    2.3261   23.4416 C   0  0  0  0  0  0  0  0  0  0  0  0
   12.4071    0.1434   23.1984 C   0  0  0  0  0  0  0  0  0  0  0  0
    9.3300   -1.3350   23.6390 C   0  0  0  0  0  0  0  0  0  0  0  0
   11.5133    1.1580   23.4397 C   0  0  0  0  0  0  0  0  0  0  0  0
    9.2850   -3.7090   25.1090 C   0  0  0  0  0  0  0  0  0  0  0  0
    5.9810    0.8330   18.8060 C   0  0  0  0  0  0  0  0  0  0  0  0
    7.2210   -0.4620   20.0350 C   0  0  0  0  0  0  0  0  0  0  0  0
    4.9400    1.7060   18.5060 C   0  0  0  0  0  0  0  0  0  0  0  0
    4.0980    2.1130   19.5350 C   0  0  0  0  0  0  0  0  0  0  0  0
    4.2970    1.6690   20.8430 C   0  0  0  0  0  0  0  0  0  0  0  0
    5.3360    0.8000   21.1530 C   0  0  0  0  0  0  0  0  0  0  0  0
    8.9510    0.1280   21.6880 C   0  0  0  0  0  0  0  0  0  0  0  0
    8.7671   -4.9535   27.2147 C   0  0  0  0  0  0  0  0  0  0  0  0
    9.3066   -6.1865   25.1649 C   0  0  0  0  0  0  0  0  0  0  0  0
    7.3847   -5.5970   27.2000 C   0  0  0  0  0  0  0  0  0  0  0  0
    7.9070   -6.7999   25.2264 C   0  0  0  0  0  0  0  0  0  0  0  0
   14.8827    0.0809   22.8160 C   0  0  0  0  0  0  0  0  0  0  0  0
   10.0220    1.0430   23.6570 C   0  0  0  0  0  0  0  0  0  0  0  0
    9.4200   -0.0840   22.9530 C   0  0  1  0  0  0  0  0  0  0  0  0
   13.5924    2.0779   23.2193 N   0  0  0  0  0  0  0  0  0  0  0  0
    6.9440    0.2550   18.0100 N   0  0  0  0  0  0  0  0  0  0  0  0
    7.6830   -0.5170   18.7600 N   0  0  0  0  0  0  0  0  0  0  0  0
   13.6264    0.7422   23.0755 N   0  0  0  0  0  0  0  0  0  0  0  0
    6.1600    0.3870   20.1140 N   0  0  0  0  0  0  0  0  0  0  0  0
    9.2641   -4.8845   25.8388 N   0  0  0  0  0  0  0  0  0  0  0  0
    8.0810   -0.9750   21.0820 N   0  0  0  0  0  0  0  0  0  0  0  0
    9.1870    1.1500   21.0630 O   0  0  0  0  0  0  0  0  0  0  0  0
    7.4533   -6.8877   26.5818 O   0  0  0  0  0  0  0  0  0  0  0  0
    7.5957   -0.7779   24.7973 H   0  0  0  0  0  0  0  0  0  0  0  0
   11.0384   -2.1852   22.6338 H   0  0  0  0  0  0  0  0  0  0  0  0
    7.5634   -2.8637   26.1037 H   0  0  0  0  0  0  0  0  0  0  0  0
   11.0139   -4.2645   23.9419 H   0  0  0  0  0  0  0  0  0  0  0  0
   11.9854    3.3488   23.5963 H   0  0  0  0  0  0  0  0  0  0  0  0
   12.2827   -0.9271   23.1072 H   0  0  0  0  0  0  0  0  0  0  0  0
    4.7733    2.0700   17.5071 H   0  0  0  0  0  0  0  0  0  0  0  0
    3.2813    2.7836   19.2995 H   0  0  0  0  0  0  0  0  0  0  0  0
    3.6335    1.9977   21.6542 H   0  0  0  0  0  0  0  0  0  0  0  0
    5.5067    0.4537   22.1474 H   0  0  0  0  0  0  0  0  0  0  0  0
    8.7013   -3.9575   27.6574 H   0  0  0  0  0  0  0  0  0  0  0  0
    9.4480   -5.5636   27.8142 H   0  0  0  0  0  0  0  0  0  0  0  0
   10.0131   -6.8375   25.6814 H   0  0  0  0  0  0  0  0  0  0  0  0
    9.6116   -6.0794   24.1250 H   0  0  0  0  0  0  0  0  0  0  0  0
    7.0306   -5.7388   28.2232 H   0  0  0  0  0  0  0  0  0  0  0  0
    6.6546   -4.9740   26.6757 H   0  0  0  0  0  0  0  0  0  0  0  0
    7.1892   -6.2226   24.6319 H   0  0  0  0  0  0  0  0  0  0  0  0
    7.9315   -7.8151   24.8187 H   0  0  0  0  0  0  0  0  0  0  0  0
   15.0211    0.0327   21.7327 H   0  0  0  0  0  0  0  0  0  0  0  0
   15.6949    0.6471   23.2804 H   0  0  0  0  0  0  0  0  0  0  0  0
   14.8569   -0.9250   23.2444 H   0  0  0  0  0  0  0  0  0  0  0  0
    9.8155    0.9894   24.7339 H   0  0  0  0  0  0  0  0  0  0  0  0
    9.5584    1.9798   23.3178 H   0  0  0  0  0  0  0  0  0  0  0  0
    8.1278    0.3254   23.5142 H   0  0  0  0  0  0  0  0  0  0  0  0
    8.1354   -1.7990   21.3694 H   0  0  0  0  0  0  0  0  0  0  0  0
  1  3  2  0  0  0  0
  1  7  1  0  0  0  0
  2  4  1  0  0  0  0
  2  7  2  0  0  0  0
  3  9  1  0  0  0  0
  4  9  2  0  0  0  0
  5  8  1  0  0  0  0
  5 24  2  0  0  0  0
  6  8  2  0  0  0  0
  6 27  1  0  0  0  0
  7 23  1  0  0  0  0
  8 22  1  0  0  0  0
  9 29  1  0  0  0  0
 10 12  1  0  0  0  0
 10 25  2  0  0  0  0
 10 28  1  0  0  0  0
 11 26  2  0  0  0  0
 11 28  1  0  0  0  0
 11 30  1  0  0  0  0
 12 13  2  0  0  0  0
 13 14  1  0  0  0  0
 14 15  2  0  0  0  0
 15 28  1  0  0  0  0
 16 23  1  0  0  0  0
 16 30  1  0  0  0  0
 16 31  2  0  0  0  0
 17 19  1  0  0  0  0
 17 29  1  0  0  0  0
 18 20  1  0  0  0  0
 18 29  1  0  0  0  0
 19 32  1  0  0  0  0
 20 32  1  0  0  0  0
 21 27  1  0  0  0  0
 22 23  1  1  0  0  0
 24 27  1  0  0  0  0
 25 26  1  0  0  0  0
  1 33  1  0  0  0  0
  2 34  1  0  0  0  0
  3 35  1  0  0  0  0
  4 36  1  0  0  0  0
  5 37  1  0  0  0  0
  6 38  1  0  0  0  0
 12 39  1  0  0  0  0
 13 40  1  0  0  0  0
 14 41  1  0  0  0  0
 15 42  1  0  0  0  0
 17 43  1  0  0  0  0
 17 44  1  0  0  0  0
 18 45  1  0  0  0  0
 18 46  1  0  0  0  0
 19 47  1  0  0  0  0
 19 48  1  0  0  0  0
 20 49  1  0  0  0  0
 20 50  1  0  0  0  0
 21 51  1  0  0  0  0
 21 52  1  0  0  0  0
 21 53  1  0  0  0  0
 22 54  1  0  0  0  0
 22 55  1  0  0  0  0
 23 56  1  0  0  0  0
 30 57  1  0  0  0  0
M  END
> <clash_score>
0

> <docking_score>
-9.2256498336792

> <overlap_score>
1.0284920930862427

$$$$
BENZO_335_2
  -OEChem-08222022413D

 57 61  0     1  0  0  0  0  0999 V2000
    8.3510   -1.5420   24.6110 C   0  0  0  0  0  0  0  0  0  0  0  0
   10.2760   -2.3270   23.4020 C   0  0  0  0  0  0  0  0  0  0  0  0
    8.3310   -2.7170   25.3430 C   0  0  0  0  0  0  0  0  0  0  0  0
   10.2570   -3.5000   24.1350 C   0  0  0  0  0  0  0  0  0  0  0  0
   12.6370    0.8478   23.6905 C   0  0  0  0  0  0  0  0  0  0  0  0
   11.6104    0.2289   25.5338 C   0  0  0  0  0  0  0  0  0  0  0  0
    9.3300   -1.3350   23.6390 C   0  0  0  0  0  0  0  0  0  0  0  0
   11.3626    0.7172   24.2742 C   0  0  0  0  0  0  0  0  0  0  0  0
    9.2850   -3.7090   25.1090 C   0  0  0  0  0  0  0  0  0  0  0  0
    5.9810    0.8330   18.8060 C   0  0  0  0  0  0  0  0  0  0  0  0
    7.2210   -0.4620   20.0350 C   0  0  0  0  0  0  0  0  0  0  0  0
    4.9400    1.7060   18.5060 C   0  0  0  0  0  0  0  0  0  0  0  0
    4.0980    2.1130   19.5350 C   0  0  0  0  0  0  0  0  0  0  0  0
    4.2970    1.6690   20.8430 C   0  0  0  0  0  0  0  0  0  0  0  0
    5.3360    0.8000   21.1530 C   0  0  0  0  0  0  0  0  0  0  0  0
    8.9510    0.1280   21.6880 C   0  0  0  0  0  0  0  0  0  0  0  0
    8.7671   -4.9535   27.2147 C   0  0  0  0  0  0  0  0  0  0  0  0
    9.3066   -6.1865   25.1649 C   0  0  0  0  0  0  0  0  0  0  0  0
    7.3847   -5.5970   27.2000 C   0  0  0  0  0  0  0  0  0  0  0  0
    7.9070   -6.7999   25.2264 C   0  0  0  0  0  0  0  0  0  0  0  0
   13.7059   -0.3763   26.7673 C   0  0  0  0  0  0  0  0  0  0  0  0
   10.0220    1.0430   23.6570 C   0  0  0  0  0  0  0  0  0  0  0  0
    9.4200   -0.0840   22.9530 C   0  0  2  0  0  0  0  0  0  0  0  0
   13.6213    0.4729   24.5118 N   0  0  0  0  0  0  0  0  0  0  0  0
    6.9440    0.2550   18.0100 N   0  0  0  0  0  0  0  0  0  0  0  0
    7.6830   -0.5170   18.7600 N   0  0  0  0  0  0  0  0  0  0  0  0
   12.9653    0.1020   25.6246 N   0  0  0  0  0  0  0  0  0  0  0  0
    6.1600    0.3870   20.1140 N   0  0  0  0  0  0  0  0  0  0  0  0
    9.2641   -4.8845   25.8388 N   0  0  0  0  0  0  0  0  0  0  0  0
    8.0810   -0.9750   21.0820 N   0  0  0  0  0  0  0  0  0  0  0  0
    9.1870    1.1500   21.0630 O   0  0  0  0  0  0  0  0  0  0  0  0
    7.4533   -6.8877   26.5818 O   0  0  0  0  0  0  0  0  0  0  0  0
    7.5957   -0.7779   24.7973 H   0  0  0  0  0  0  0  0  0  0  0  0
   11.0384   -2.1852   22.6338 H   0  0  0  0  0  0  0  0  0  0  0  0
    7.5634   -2.8637   26.1037 H   0  0  0  0  0  0  0  0  0  0  0  0
   11.0139   -4.2645   23.9419 H   0  0  0  0  0  0  0  0  0  0  0  0
   12.8920    1.2011   22.7014 H   0  0  0  0  0  0  0  0  0  0  0  0
   10.9544   -0.0314   26.3534 H   0  0  0  0  0  0  0  0  0  0  0  0
    4.7733    2.0700   17.5071 H   0  0  0  0  0  0  0  0  0  0  0  0
    3.2813    2.7836   19.2995 H   0  0  0  0  0  0  0  0  0  0  0  0
    3.6335    1.9977   21.6542 H   0  0  0  0  0  0  0  0  0  0  0  0
    5.5067    0.4537   22.1474 H   0  0  0  0  0  0  0  0  0  0  0  0
    8.7013   -3.9575   27.6574 H   0  0  0  0  0  0  0  0  0  0  0  0
    9.4480   -5.5636   27.8142 H   0  0  0  0  0  0  0  0  0  0  0  0
   10.0131   -6.8375   25.6814 H   0  0  0  0  0  0  0  0  0  0  0  0
    9.6116   -6.0794   24.1250 H   0  0  0  0  0  0  0  0  0  0  0  0
    7.0306   -5.7388   28.2232 H   0  0  0  0  0  0  0  0  0  0  0  0
    6.6546   -4.9740   26.6757 H   0  0  0  0  0  0  0  0  0  0  0  0
    7.1892   -6.2226   24.6319 H   0  0  0  0  0  0  0  0  0  0  0  0
    7.9315   -7.8151   24.8187 H   0  0  0  0  0  0  0  0  0  0  0  0
   13.8123   -1.4600   26.6708 H   0  0  0  0  0  0  0  0  0  0  0  0
   14.6882    0.1037   26.7915 H   0  0  0  0  0  0  0  0  0  0  0  0
   13.1616   -0.1244   27.6818 H   0  0  0  0  0  0  0  0  0  0  0  0
    9.3482    1.4259   24.4346 H   0  0  0  0  0  0  0  0  0  0  0  0
   10.1663    1.8792   22.9588 H   0  0  0  0  0  0  0  0  0  0  0  0
   10.7366   -0.4277   22.4442 H   0  0  0  0  0  0  0  0  0  0  0  0
    8.1354   -1.7990   21.3694 H   0  0  0  0  0  0  0  0  0  0  0  0
  1  3  2  0  0  0  0
  1  7  1  0  0  0  0
  2  4  1  0  0  0  0
  2  7  2  0  0  0  0
  3  9  1  0  0  0  0
  4  9  2  0  0  0  0
  5  8  1  0  0  0  0
  5 24  2  0  0  0  0
  6  8  2  0  0  0  0
  6 27  1  0  0  0  0
  7 23  1  0  0  0  0
  8 22  1  0  0  0  0
  9 29  1  0  0  0  0
 10 12  1  0  0  0  0
 10 25  2  0  0  0  0
 10 28  1  0  0  0  0
 11 26  2  0  0  0  0
 11 28  1  0  0  0  0
 11 30  1  0  0  0  0
 12 13  2  0  0  0  0
 13 14  1  0  0  0  0
 14 15  2  0  0  0  0
 15 28  1  0  0  0  0
 16 23  1  0  0  0  0
 16 30  1  0  0  0  0
 16 31  2  0  0  0  0
 17 19  1  0  0  0  0
 17 29  1  0  0  0  0
 18 20  1  0  0  0  0
 18 29  1  0  0  0  0
 19 32  1  0  0  0  0
 20 32  1  0  0  0  0
 21 27  1  0  0  0  0
 22 23  1  6  0  0  0
 24 27  1  0  0  0  0
 25 26  1  0  0  0  0
  1 33  1  0  0  0  0
  2 34  1  0  0  0  0
  3 35  1  0  0  0  0
  4 36  1  0  0  0  0
  5 37  1  0  0  0  0
  6 38  1  0  0  0  0
 12 39  1  0  0  0  0
 13 40  1  0  0  0  0
 14 41  1  0  0  0  0
 15 42  1  0  0  0  0
 17 43  1  0  0  0  0
 17 44  1  0  0  0  0
 18 45  1  0  0  0  0
 18 46  1  0  0  0  0
 19 47  1  0  0  0  0
 19 48  1  0  0  0  0
 20 49  1  0  0  0  0
 20 50  1  0  0  0  0
 21 51  1  0  0  0  0
 21 52  1  0  0  0  0
 21 53  1  0  0  0  0
 22 54  1  0  0  0  0
 22 55  1  0  0  0  0
 23 56  1  0  0  0  0
 30 57  1  0  0  0  0
M  END
> <clash_score>
0.7348700883676778

> <docking_score>
-7.426733493804932

> <overlap_score>
0.9407410621643066

$$$$
BENZO_334_2
  -OEChem-08222022413D

 57 61  0     1  0  0  0  0  0999 V2000
   13.7717    0.6100   24.1003 C   0  0  0  0  0  0  0  0  0  0  0  0
   12.3953    0.5053   24.3009 C   0  0  0  0  0  0  0  0  0  0  0  0
    8.3510   -1.5420   24.6110 C   0  0  0  0  0  0  0  0  0  0  0  0
   10.2760   -2.3270   23.4020 C   0  0  0  0  0  0  0  0  0  0  0  0
    8.3310   -2.7170   25.3430 C   0  0  0  0  0  0  0  0  0  0  0  0
   10.2570   -3.5000   24.1350 C   0  0  0  0  0  0  0  0  0  0  0  0
   14.2661    1.3676   23.0385 C   0  0  0  0  0  0  0  0  0  0  0  0
   12.0077    1.9155   22.3779 C   0  0  0  0  0  0  0  0  0  0  0  0
    9.3300   -1.3350   23.6390 C   0  0  0  0  0  0  0  0  0  0  0  0
   11.5133    1.1580   23.4397 C   0  0  0  0  0  0  0  0  0  0  0  0
    9.2850   -3.7090   25.1090 C   0  0  0  0  0  0  0  0  0  0  0  0
   13.3841    2.0203   22.1773 C   0  0  0  0  0  0  0  0  0  0  0  0
    5.9810    0.8330   18.8060 C   0  0  0  0  0  0  0  0  0  0  0  0
    7.2210   -0.4620   20.0350 C   0  0  0  0  0  0  0  0  0  0  0  0
    4.9400    1.7060   18.5060 C   0  0  0  0  0  0  0  0  0  0  0  0
    4.0980    2.1130   19.5350 C   0  0  0  0  0  0  0  0  0  0  0  0
    4.2970    1.6690   20.8430 C   0  0  0  0  0  0  0  0  0  0  0  0
    5.3360    0.8000   21.1530 C   0  0  0  0  0  0  0  0  0  0  0  0
    8.9510    0.1280   21.6880 C   0  0  0  0  0  0  0  0  0  0  0  0
    8.7671   -4.9535   27.2147 C   0  0  0  0  0  0  0  0  0  0  0  0
    9.3066   -6.1865   25.1649 C   0  0  0  0  0  0  0  0  0  0  0  0
    7.3847   -5.5970   27.2000 C   0  0  0  0  0  0  0  0  0  0  0  0
    7.9070   -6.7999   25.2264 C   0  0  0  0  0  0  0  0  0  0  0  0
   10.0220    1.0430   23.6570 C   0  0  0  0  0  0  0  0  0  0  0  0
    9.4200   -0.0840   22.9530 C   0  0  2  0  0  0  0  0  0  0  0  0
    6.9440    0.2550   18.0100 N   0  0  0  0  0  0  0  0  0  0  0  0
    7.6830   -0.5170   18.7600 N   0  0  0  0  0  0  0  0  0  0  0  0
    6.1600    0.3870   20.1140 N   0  0  0  0  0  0  0  0  0  0  0  0
    9.2641   -4.8845   25.8388 N   0  0  0  0  0  0  0  0  0  0  0  0
    8.0810   -0.9750   21.0820 N   0  0  0  0  0  0  0  0  0  0  0  0
    9.1870    1.1500   21.0630 O   0  0  0  0  0  0  0  0  0  0  0  0
    7.4533   -6.8877   26.5818 O   0  0  0  0  0  0  0  0  0  0  0  0
   13.9946    2.9539   20.8668 Cl  0  0  0  0  0  0  0  0  0  0  0  0
   14.4581    0.1015   24.7710 H   0  0  0  0  0  0  0  0  0  0  0  0
   12.0190   -0.0873   25.1307 H   0  0  0  0  0  0  0  0  0  0  0  0
    7.5957   -0.7779   24.7973 H   0  0  0  0  0  0  0  0  0  0  0  0
   11.0384   -2.1852   22.6338 H   0  0  0  0  0  0  0  0  0  0  0  0
    7.5634   -2.8637   26.1037 H   0  0  0  0  0  0  0  0  0  0  0  0
   11.0139   -4.2645   23.9419 H   0  0  0  0  0  0  0  0  0  0  0  0
   15.3412    1.4401   22.8941 H   0  0  0  0  0  0  0  0  0  0  0  0
   11.3159    2.4230   21.7095 H   0  0  0  0  0  0  0  0  0  0  0  0
    4.7733    2.0700   17.5071 H   0  0  0  0  0  0  0  0  0  0  0  0
    3.2813    2.7836   19.2995 H   0  0  0  0  0  0  0  0  0  0  0  0
    3.6335    1.9977   21.6542 H   0  0  0  0  0  0  0  0  0  0  0  0
    5.5067    0.4537   22.1474 H   0  0  0  0  0  0  0  0  0  0  0  0
    8.7013   -3.9575   27.6574 H   0  0  0  0  0  0  0  0  0  0  0  0
    9.4480   -5.5636   27.8142 H   0  0  0  0  0  0  0  0  0  0  0  0
   10.0131   -6.8375   25.6814 H   0  0  0  0  0  0  0  0  0  0  0  0
    9.6116   -6.0794   24.1250 H   0  0  0  0  0  0  0  0  0  0  0  0
    7.0306   -5.7388   28.2232 H   0  0  0  0  0  0  0  0  0  0  0  0
    6.6546   -4.9740   26.6757 H   0  0  0  0  0  0  0  0  0  0  0  0
    7.1892   -6.2226   24.6319 H   0  0  0  0  0  0  0  0  0  0  0  0
    7.9315   -7.8151   24.8187 H   0  0  0  0  0  0  0  0  0  0  0  0
    9.8155    0.9894   24.7339 H   0  0  0  0  0  0  0  0  0  0  0  0
    9.5584    1.9798   23.3178 H   0  0  0  0  0  0  0  0  0  0  0  0
    8.1278    0.3254   23.5142 H   0  0  0  0  0  0  0  0  0  0  0  0
    8.1354   -1.7990   21.3694 H   0  0  0  0  0  0  0  0  0  0  0  0
  1  2  2  0  0  0  0
  1  7  1  0  0  0  0
  2 10  1  0  0  0  0
  3  5  2  0  0  0  0
  3  9  1  0  0  0  0
  4  6  1  0  0  0  0
  4  9  2  0  0  0  0
  5 11  1  0  0  0  0
  6 11  2  0  0  0  0
  7 12  2  0  0  0  0
  8 10  2  0  0  0  0
  8 12  1  0  0  0  0
  9 25  1  0  0  0  0
 10 24  1  0  0  0  0
 11 29  1  0  0  0  0
 12 33  1  0  0  0  0
 13 15  1  0  0  0  0
 13 26  2  0  0  0  0
 13 28  1  0  0  0  0
 14 27  2  0  0  0  0
 14 28  1  0  0  0  0
 14 30  1  0  0  0  0
 15 16  2  0  0  0  0
 16 17  1  0  0  0  0
 17 18  2  0  0  0  0
 18 28  1  0  0  0  0
 19 25  1  6  0  0  0
 19 30  1  0  0  0  0
 19 31  2  0  0  0  0
 20 22  1  0  0  0  0
 20 29  1  0  0  0  0
 21 23  1  0  0  0  0
 21 29  1  0  0  0  0
 22 32  1  0  0  0  0
 23 32  1  0  0  0  0
 24 25  1  0  0  0  0
 26 27  1  0  0  0  0
  1 34  1  0  0  0  0
  2 35  1  0  0  0  0
  3 36  1  0  0  0  0
  4 37  1  0  0  0  0
  5 38  1  0  0  0  0
  6 39  1  0  0  0  0
  7 40  1  0  0  0  0
  8 41  1  0  0  0  0
 15 42  1  0  0  0  0
 16 43  1  0  0  0  0
 17 44  1  0  0  0  0
 18 45  1  0  0  0  0
 20 46  1  0  0  0  0
 20 47  1  0  0  0  0
 21 48  1  0  0  0  0
 21 49  1  0  0  0  0
 22 50  1  0  0  0  0
 22 51  1  0  0  0  0
 23 52  1  0  0  0  0
 23 53  1  0  0  0  0
 24 54  1  0  0  0  0
 24 55  1  0  0  0  0
 25 56  1  0  0  0  0
 30 57  1  0  0  0  0
M  END
> <clash_score>
0

> <docking_score>
-7.682551860809326

> <overlap_score>
1.0296601057052612

$$$$
BENZO_334_1
  -OEChem-08222022413D

 57 61  0     1  0  0  0  0  0999 V2000
   13.7706    0.6102   24.1095 C   0  0  0  0  0  0  0  0  0  0  0  0
   12.5330    0.9096   23.5401 C   0  0  0  0  0  0  0  0  0  0  0  0
    8.3510   -1.5420   24.6110 C   0  0  0  0  0  0  0  0  0  0  0  0
   10.2760   -2.3270   23.4020 C   0  0  0  0  0  0  0  0  0  0  0  0
    8.3310   -2.7170   25.3430 C   0  0  0  0  0  0  0  0  0  0  0  0
   10.2570   -3.5000   24.1350 C   0  0  0  0  0  0  0  0  0  0  0  0
   13.8379    0.1183   25.4130 C   0  0  0  0  0  0  0  0  0  0  0  0
   11.4299    0.2253   25.5778 C   0  0  0  0  0  0  0  0  0  0  0  0
    9.3300   -1.3350   23.6390 C   0  0  0  0  0  0  0  0  0  0  0  0
   11.3626    0.7172   24.2742 C   0  0  0  0  0  0  0  0  0  0  0  0
    9.2850   -3.7090   25.1090 C   0  0  0  0  0  0  0  0  0  0  0  0
   12.6676   -0.0742   26.1471 C   0  0  0  0  0  0  0  0  0  0  0  0
    5.9810    0.8330   18.8060 C   0  0  0  0  0  0  0  0  0  0  0  0
    7.2210   -0.4620   20.0350 C   0  0  0  0  0  0  0  0  0  0  0  0
    4.9400    1.7060   18.5060 C   0  0  0  0  0  0  0  0  0  0  0  0
    4.0980    2.1130   19.5350 C   0  0  0  0  0  0  0  0  0  0  0  0
    4.2970    1.6690   20.8430 C   0  0  0  0  0  0  0  0  0  0  0  0
    5.3360    0.8000   21.1530 C   0  0  0  0  0  0  0  0  0  0  0  0
    8.9510    0.1280   21.6880 C   0  0  0  0  0  0  0  0  0  0  0  0
    8.7671   -4.9535   27.2147 C   0  0  0  0  0  0  0  0  0  0  0  0
    9.3066   -6.1865   25.1649 C   0  0  0  0  0  0  0  0  0  0  0  0
    7.3847   -5.5970   27.2000 C   0  0  0  0  0  0  0  0  0  0  0  0
    7.9070   -6.7999   25.2264 C   0  0  0  0  0  0  0  0  0  0  0  0
   10.0220    1.0430   23.6570 C   0  0  0  0  0  0  0  0  0  0  0  0
    9.4200   -0.0840   22.9530 C   0  0  1  0  0  0  0  0  0  0  0  0
    6.9440    0.2550   18.0100 N   0  0  0  0  0  0  0  0  0  0  0  0
    7.6830   -0.5170   18.7600 N   0  0  0  0  0  0  0  0  0  0  0  0
    6.1600    0.3870   20.1140 N   0  0  0  0  0  0  0  0  0  0  0  0
    9.2641   -4.8845   25.8388 N   0  0  0  0  0  0  0  0  0  0  0  0
    8.0810   -0.9750   21.0820 N   0  0  0  0  0  0  0  0  0  0  0  0
    9.1870    1.1500   21.0630 O   0  0  0  0  0  0  0  0  0  0  0  0
    7.4533   -6.8877   26.5818 O   0  0  0  0  0  0  0  0  0  0  0  0
   12.7514   -0.6800   27.7557 Cl  0  0  0  0  0  0  0  0  0  0  0  0
   14.6817    0.7603   23.5375 H   0  0  0  0  0  0  0  0  0  0  0  0
   12.4900    1.2926   22.5238 H   0  0  0  0  0  0  0  0  0  0  0  0
    7.5957   -0.7779   24.7973 H   0  0  0  0  0  0  0  0  0  0  0  0
   11.0384   -2.1852   22.6338 H   0  0  0  0  0  0  0  0  0  0  0  0
    7.5634   -2.8637   26.1037 H   0  0  0  0  0  0  0  0  0  0  0  0
   11.0139   -4.2645   23.9419 H   0  0  0  0  0  0  0  0  0  0  0  0
   14.8095   -0.1105   25.8440 H   0  0  0  0  0  0  0  0  0  0  0  0
   10.5146    0.0765   26.1458 H   0  0  0  0  0  0  0  0  0  0  0  0
    4.7733    2.0700   17.5071 H   0  0  0  0  0  0  0  0  0  0  0  0
    3.2813    2.7836   19.2995 H   0  0  0  0  0  0  0  0  0  0  0  0
    3.6335    1.9977   21.6542 H   0  0  0  0  0  0  0  0  0  0  0  0
    5.5067    0.4537   22.1474 H   0  0  0  0  0  0  0  0  0  0  0  0
    8.7013   -3.9575   27.6574 H   0  0  0  0  0  0  0  0  0  0  0  0
    9.4480   -5.5636   27.8142 H   0  0  0  0  0  0  0  0  0  0  0  0
   10.0131   -6.8375   25.6814 H   0  0  0  0  0  0  0  0  0  0  0  0
    9.6116   -6.0794   24.1250 H   0  0  0  0  0  0  0  0  0  0  0  0
    7.0306   -5.7388   28.2232 H   0  0  0  0  0  0  0  0  0  0  0  0
    6.6546   -4.9740   26.6757 H   0  0  0  0  0  0  0  0  0  0  0  0
    7.1892   -6.2226   24.6319 H   0  0  0  0  0  0  0  0  0  0  0  0
    7.9315   -7.8151   24.8187 H   0  0  0  0  0  0  0  0  0  0  0  0
    9.3482    1.4259   24.4346 H   0  0  0  0  0  0  0  0  0  0  0  0
   10.1663    1.8792   22.9588 H   0  0  0  0  0  0  0  0  0  0  0  0
   10.7366   -0.4277   22.4442 H   0  0  0  0  0  0  0  0  0  0  0  0
    8.1354   -1.7990   21.3694 H   0  0  0  0  0  0  0  0  0  0  0  0
  1  2  2  0  0  0  0
  1  7  1  0  0  0  0
  2 10  1  0  0  0  0
  3  5  2  0  0  0  0
  3  9  1  0  0  0  0
  4  6  1  0  0  0  0
  4  9  2  0  0  0  0
  5 11  1  0  0  0  0
  6 11  2  0  0  0  0
  7 12  2  0  0  0  0
  8 10  2  0  0  0  0
  8 12  1  0  0  0  0
  9 25  1  0  0  0  0
 10 24  1  0  0  0  0
 11 29  1  0  0  0  0
 12 33  1  0  0  0  0
 13 15  1  0  0  0  0
 13 26  2  0  0  0  0
 13 28  1  0  0  0  0
 14 27  2  0  0  0  0
 14 28  1  0  0  0  0
 14 30  1  0  0  0  0
 15 16  2  0  0  0  0
 16 17  1  0  0  0  0
 17 18  2  0  0  0  0
 18 28  1  0  0  0  0
 19 25  1  1  0  0  0
 19 30  1  0  0  0  0
 19 31  2  0  0  0  0
 20 22  1  0  0  0  0
 20 29  1  0  0  0  0
 21 23  1  0  0  0  0
 21 29  1  0  0  0  0
 22 32  1  0  0  0  0
 23 32  1  0  0  0  0
 24 25  1  0  0  0  0
 26 27  1  0  0  0  0
  1 34  1  0  0  0  0
  2 35  1  0  0  0  0
  3 36  1  0  0  0  0
  4 37  1  0  0  0  0
  5 38  1  0  0  0  0
  6 39  1  0  0  0  0
  7 40  1  0  0  0  0
  8 41  1  0  0  0  0
 15 42  1  0  0  0  0
 16 43  1  0  0  0  0
 17 44  1  0  0  0  0
 18 45  1  0  0  0  0
 20 46  1  0  0  0  0
 20 47  1  0  0  0  0
 21 48  1  0  0  0  0
 21 49  1  0  0  0  0
 22 50  1  0  0  0  0
 22 51  1  0  0  0  0
 23 52  1  0  0  0  0
 23 53  1  0  0  0  0
 24 54  1  0  0  0  0
 24 55  1  0  0  0  0
 25 56  1  0  0  0  0
 30 57  1  0  0  0  0
M  END
> <clash_score>
1.5650094966294676

> <docking_score>
-6.664109706878662

> <overlap_score>
0.9480651021003723

$$$$
BENZO_341_1
  -OEChem-08222022413D

 54 57  0     0  0  0  0  0  0999 V2000
   14.3082    0.9431   23.4783 C   0  0  0  0  0  0  0  0  0  0  0  0
   13.6391    0.3091   24.5251 C   0  0  0  0  0  0  0  0  0  0  0  0
   13.5841    1.6096   22.4898 C   0  0  0  0  0  0  0  0  0  0  0  0
    4.0980    2.1130   19.5350 C   0  0  0  0  0  0  0  0  0  0  0  0
    4.2970    1.6690   20.8430 C   0  0  0  0  0  0  0  0  0  0  0  0
   12.2459    0.3415   24.5835 C   0  0  0  0  0  0  0  0  0  0  0  0
   12.1908    1.6420   22.5481 C   0  0  0  0  0  0  0  0  0  0  0  0
    4.9400    1.7060   18.5060 C   0  0  0  0  0  0  0  0  0  0  0  0
    5.3360    0.8000   21.1530 C   0  0  0  0  0  0  0  0  0  0  0  0
    8.3310   -2.7170   25.3430 C   0  0  0  0  0  0  0  0  0  0  0  0
   10.2570   -3.5000   24.1350 C   0  0  0  0  0  0  0  0  0  0  0  0
    8.3510   -1.5420   24.6110 C   0  0  0  0  0  0  0  0  0  0  0  0
   10.2760   -2.3270   23.4020 C   0  0  0  0  0  0  0  0  0  0  0  0
   11.5217    1.0079   23.5949 C   0  0  0  0  0  0  0  0  0  0  0  0
    5.9810    0.8330   18.8060 C   0  0  0  0  0  0  0  0  0  0  0  0
    6.1600    0.3870   20.1140 C   0  0  0  0  0  0  0  0  0  0  0  0
    9.2850   -3.7090   25.1090 C   0  0  0  0  0  0  0  0  0  0  0  0
    9.3300   -1.3350   23.6390 C   0  0  0  0  0  0  0  0  0  0  0  0
    9.6843   -6.1680   25.4389 C   0  0  0  0  0  0  0  0  0  0  0  0
    8.9510    0.1280   21.6880 C   0  0  0  0  0  0  0  0  0  0  0  0
    8.0401   -7.2913   27.0012 C   0  0  0  0  0  0  0  0  0  0  0  0
   10.0220    1.0430   23.6570 C   0  0  0  0  0  0  0  0  0  0  0  0
    9.4863   -7.1875   26.5508 C   0  0  0  0  0  0  0  0  0  0  0  0
    8.0810   -0.9750   21.0820 C   0  0  0  0  0  0  0  0  0  0  0  0
    6.9440    0.2550   18.0100 N   0  0  0  0  0  0  0  0  0  0  0  0
    7.6830   -0.5170   18.7600 N   0  0  0  0  0  0  0  0  0  0  0  0
    7.2210   -0.4620   20.0350 N   0  0  0  0  0  0  0  0  0  0  0  0
    9.2630   -4.8902   25.8410 N   0  0  0  0  0  0  0  0  0  0  0  0
    9.4200   -0.0840   22.9530 N   0  0  0  0  0  0  0  0  0  0  0  0
   10.1565   -6.4769   24.3498 O   0  0  0  0  0  0  0  0  0  0  0  0
    9.1870    1.1500   21.0630 O   0  0  0  0  0  0  0  0  0  0  0  0
   15.3932    0.9189   23.4337 H   0  0  0  0  0  0  0  0  0  0  0  0
   14.2029   -0.2090   25.2955 H   0  0  0  0  0  0  0  0  0  0  0  0
   14.1048    2.1043   21.6752 H   0  0  0  0  0  0  0  0  0  0  0  0
    3.2714    2.7873   19.3199 H   0  0  0  0  0  0  0  0  0  0  0  0
    3.6281    2.0093   21.6291 H   0  0  0  0  0  0  0  0  0  0  0  0
   11.7330   -0.1555   25.4027 H   0  0  0  0  0  0  0  0  0  0  0  0
   11.6349    2.1636   21.7735 H   0  0  0  0  0  0  0  0  0  0  0  0
    4.7823    2.0669   17.4883 H   0  0  0  0  0  0  0  0  0  0  0  0
    5.4954    0.4562   22.1797 H   0  0  0  0  0  0  0  0  0  0  0  0
    7.5639   -2.8621   26.1045 H   0  0  0  0  0  0  0  0  0  0  0  0
   11.0141   -4.2644   23.9422 H   0  0  0  0  0  0  0  0  0  0  0  0
    7.5950   -0.7788   24.8007 H   0  0  0  0  0  0  0  0  0  0  0  0
   11.0408   -2.1861   22.6359 H   0  0  0  0  0  0  0  0  0  0  0  0
    7.6718   -6.3270   27.3663 H   0  0  0  0  0  0  0  0  0  0  0  0
    7.9444   -8.0224   27.8098 H   0  0  0  0  0  0  0  0  0  0  0  0
    7.3932   -7.6071   26.1761 H   0  0  0  0  0  0  0  0  0  0  0  0
    9.6778    1.0140   24.6966 H   0  0  0  0  0  0  0  0  0  0  0  0
    9.6316    1.9637   23.2107 H   0  0  0  0  0  0  0  0  0  0  0  0
    9.8280   -8.1648   26.1911 H   0  0  0  0  0  0  0  0  0  0  0  0
   10.1145   -6.9002   27.4018 H   0  0  0  0  0  0  0  0  0  0  0  0
    8.7066   -1.7479   20.6383 H   0  0  0  0  0  0  0  0  0  0  0  0
    7.4345   -1.4041   21.8461 H   0  0  0  0  0  0  0  0  0  0  0  0
    8.8930   -4.8275   26.7966 H   0  0  0  0  0  0  0  0  0  0  0  0
  1  2  1  0  0  0  0
  1  3  2  0  0  0  0
  2  6  2  0  0  0  0
  3  7  1  0  0  0  0
  4  5  1  0  0  0  0
  4  8  2  0  0  0  0
  5  9  2  0  0  0  0
  6 14  1  0  0  0  0
  7 14  2  0  0  0  0
  8 15  1  0  0  0  0
  9 16  1  0  0  0  0
 10 12  2  0  0  0  0
 10 17  1  0  0  0  0
 11 13  1  0  0  0  0
 11 17  2  0  0  0  0
 12 18  1  0  0  0  0
 13 18  2  0  0  0  0
 14 22  1  0  0  0  0
 15 16  2  0  0  0  0
 15 25  1  0  0  0  0
 16 27  1  0  0  0  0
 17 28  1  0  0  0  0
 18 29  1  0  0  0  0
 19 23  1  0  0  0  0
 19 28  1  0  0  0  0
 19 30  2  0  0  0  0
 20 24  1  0  0  0  0
 20 29  1  0  0  0  0
 20 31  2  0  0  0  0
 21 23  1  0  0  0  0
 22 29  1  0  0  0  0
 24 27  1  0  0  0  0
 25 26  2  0  0  0  0
 26 27  1  0  0  0  0
  1 32  1  0  0  0  0
  2 33  1  0  0  0  0
  3 34  1  0  0  0  0
  4 35  1  0  0  0  0
  5 36  1  0  0  0  0
  6 37  1  0  0  0  0
  7 38  1  0  0  0  0
  8 39  1  0  0  0  0
  9 40  1  0  0  0  0
 10 41  1  0  0  0  0
 11 42  1  0  0  0  0
 12 43  1  0  0  0  0
 13 44  1  0  0  0  0
 21 45  1  0  0  0  0
 21 46  1  0  0  0  0
 21 47  1  0  0  0  0
 22 48  1  0  0  0  0
 22 49  1  0  0  0  0
 23 50  1  0  0  0  0
 23 51  1  0  0  0  0
 24 52  1  0  0  0  0
 24 53  1  0  0  0  0
 28 54  1  0  0  0  0
M  END
> <clash_score>
1.3337221088695097

> <docking_score>
-6.441977500915527

> <overlap_score>
0.9871413707733154

$$$$
BENZO_340_1
  -OEChem-08222022413D

 51 54  0     0  0  0  0  0  0999 V2000
    4.0980    2.1130   19.5350 C   0  0  0  0  0  0  0  0  0  0  0  0
    4.2970    1.6690   20.8430 C   0  0  0  0  0  0  0  0  0  0  0  0
    4.9400    1.7060   18.5060 C   0  0  0  0  0  0  0  0  0  0  0  0
    5.3360    0.8000   21.1530 C   0  0  0  0  0  0  0  0  0  0  0  0
    8.3310   -2.7170   25.3430 C   0  0  0  0  0  0  0  0  0  0  0  0
   10.2570   -3.5000   24.1350 C   0  0  0  0  0  0  0  0  0  0  0  0
    8.3510   -1.5420   24.6110 C   0  0  0  0  0  0  0  0  0  0  0  0
   10.2760   -2.3270   23.4020 C   0  0  0  0  0  0  0  0  0  0  0  0
   12.2675    1.0332   22.3812 C   0  0  0  0  0  0  0  0  0  0  0  0
   13.6257    0.9906   22.6074 C   0  0  0  0  0  0  0  0  0  0  0  0
   12.3384    0.9467   24.7028 C   0  0  0  0  0  0  0  0  0  0  0  0
   11.5217    1.0079   23.5949 C   0  0  0  0  0  0  0  0  0  0  0  0
    5.9810    0.8330   18.8060 C   0  0  0  0  0  0  0  0  0  0  0  0
    6.1600    0.3870   20.1140 C   0  0  0  0  0  0  0  0  0  0  0  0
    9.2850   -3.7090   25.1090 C   0  0  0  0  0  0  0  0  0  0  0  0
    9.3300   -1.3350   23.6390 C   0  0  0  0  0  0  0  0  0  0  0  0
    9.6843   -6.1680   25.4389 C   0  0  0  0  0  0  0  0  0  0  0  0
    8.9510    0.1280   21.6880 C   0  0  0  0  0  0  0  0  0  0  0  0
    8.0401   -7.2913   27.0012 C   0  0  0  0  0  0  0  0  0  0  0  0
   10.0220    1.0430   23.6570 C   0  0  0  0  0  0  0  0  0  0  0  0
    9.4863   -7.1875   26.5508 C   0  0  0  0  0  0  0  0  0  0  0  0
    8.0810   -0.9750   21.0820 C   0  0  0  0  0  0  0  0  0  0  0  0
    6.9440    0.2550   18.0100 N   0  0  0  0  0  0  0  0  0  0  0  0
    7.6830   -0.5170   18.7600 N   0  0  0  0  0  0  0  0  0  0  0  0
    7.2210   -0.4620   20.0350 N   0  0  0  0  0  0  0  0  0  0  0  0
    9.2630   -4.8902   25.8410 N   0  0  0  0  0  0  0  0  0  0  0  0
    9.4200   -0.0840   22.9530 N   0  0  0  0  0  0  0  0  0  0  0  0
   10.1565   -6.4769   24.3498 O   0  0  0  0  0  0  0  0  0  0  0  0
    9.1870    1.1500   21.0630 O   0  0  0  0  0  0  0  0  0  0  0  0
   13.9969    0.9202   24.2776 S   0  0  0  0  0  0  0  0  0  0  0  0
    3.2714    2.7873   19.3199 H   0  0  0  0  0  0  0  0  0  0  0  0
    3.6281    2.0093   21.6291 H   0  0  0  0  0  0  0  0  0  0  0  0
    4.7823    2.0669   17.4883 H   0  0  0  0  0  0  0  0  0  0  0  0
    5.4954    0.4562   22.1797 H   0  0  0  0  0  0  0  0  0  0  0  0
    7.5639   -2.8621   26.1045 H   0  0  0  0  0  0  0  0  0  0  0  0
   11.0141   -4.2644   23.9422 H   0  0  0  0  0  0  0  0  0  0  0  0
    7.5950   -0.7788   24.8007 H   0  0  0  0  0  0  0  0  0  0  0  0
   11.0408   -2.1861   22.6359 H   0  0  0  0  0  0  0  0  0  0  0  0
   11.8338    1.0798   21.3902 H   0  0  0  0  0  0  0  0  0  0  0  0
   14.4176    0.9966   21.8719 H   0  0  0  0  0  0  0  0  0  0  0  0
   12.0446    0.9149   25.7428 H   0  0  0  0  0  0  0  0  0  0  0  0
    7.6718   -6.3270   27.3663 H   0  0  0  0  0  0  0  0  0  0  0  0
    7.9444   -8.0224   27.8098 H   0  0  0  0  0  0  0  0  0  0  0  0
    7.3932   -7.6071   26.1761 H   0  0  0  0  0  0  0  0  0  0  0  0
    9.6778    1.0140   24.6966 H   0  0  0  0  0  0  0  0  0  0  0  0
    9.6316    1.9637   23.2107 H   0  0  0  0  0  0  0  0  0  0  0  0
    9.8280   -8.1648   26.1911 H   0  0  0  0  0  0  0  0  0  0  0  0
   10.1145   -6.9002   27.4018 H   0  0  0  0  0  0  0  0  0  0  0  0
    8.7066   -1.7479   20.6383 H   0  0  0  0  0  0  0  0  0  0  0  0
    7.4345   -1.4041   21.8461 H   0  0  0  0  0  0  0  0  0  0  0  0
    8.8930   -4.8275   26.7966 H   0  0  0  0  0  0  0  0  0  0  0  0
  1  2  1  0  0  0  0
  1  3  2  0  0  0  0
  2  4  2  0  0  0  0
  3 13  1  0  0  0  0
  4 14  1  0  0  0  0
  5  7  2  0  0  0  0
  5 15  1  0  0  0  0
  6  8  1  0  0  0  0
  6 15  2  0  0  0  0
  7 16  1  0  0  0  0
  8 16  2  0  0  0  0
  9 10  2  0  0  0  0
  9 12  1  0  0  0  0
 10 30  1  0  0  0  0
 11 12  2  0  0  0  0
 11 30  1  0  0  0  0
 12 20  1  0  0  0  0
 13 14  2  0  0  0  0
 13 23  1  0  0  0  0
 14 25  1  0  0  0  0
 15 26  1  0  0  0  0
 16 27  1  0  0  0  0
 17 21  1  0  0  0  0
 17 26  1  0  0  0  0
 17 28  2  0  0  0  0
 18 22  1  0  0  0  0
 18 27  1  0  0  0  0
 18 29  2  0  0  0  0
 19 21  1  0  0  0  0
 20 27  1  0  0  0  0
 22 25  1  0  0  0  0
 23 24  2  0  0  0  0
 24 25  1  0  0  0  0
  1 31  1  0  0  0  0
  2 32  1  0  0  0  0
  3 33  1  0  0  0  0
  4 34  1  0  0  0  0
  5 35  1  0  0  0  0
  6 36  1  0  0  0  0
  7 37  1  0  0  0  0
  8 38  1  0  0  0  0
  9 39  1  0  0  0  0
 10 40  1  0  0  0  0
 11 41  1  0  0  0  0
 19 42  1  0  0  0  0
 19 43  1  0  0  0  0
 19 44  1  0  0  0  0
 20 45  1  0  0  0  0
 20 46  1  0  0  0  0
 21 47  1  0  0  0  0
 21 48  1  0  0  0  0
 22 49  1  0  0  0  0
 22 50  1  0  0  0  0
 26 51  1  0  0  0  0
M  END
> <clash_score>
1.3337221088695097

> <docking_score>
-6.688175201416016

> <overlap_score>
0.9613685011863708

$$$$
BENZO_345_1
  -OEChem-08222022413D

 59 63  0     0  0  0  0  0  0999 V2000
   14.3082    0.9431   23.4783 C   0  0  0  0  0  0  0  0  0  0  0  0
   13.6391    0.3091   24.5251 C   0  0  0  0  0  0  0  0  0  0  0  0
   13.5841    1.6096   22.4898 C   0  0  0  0  0  0  0  0  0  0  0  0
    4.0980    2.1130   19.5350 C   0  0  0  0  0  0  0  0  0  0  0  0
    4.2970    1.6690   20.8430 C   0  0  0  0  0  0  0  0  0  0  0  0
   12.2459    0.3415   24.5835 C   0  0  0  0  0  0  0  0  0  0  0  0
   12.1908    1.6420   22.5481 C   0  0  0  0  0  0  0  0  0  0  0  0
    4.9400    1.7060   18.5060 C   0  0  0  0  0  0  0  0  0  0  0  0
    5.3360    0.8000   21.1530 C   0  0  0  0  0  0  0  0  0  0  0  0
    8.3310   -2.7170   25.3430 C   0  0  0  0  0  0  0  0  0  0  0  0
   10.2570   -3.5000   24.1350 C   0  0  0  0  0  0  0  0  0  0  0  0
    8.3510   -1.5420   24.6110 C   0  0  0  0  0  0  0  0  0  0  0  0
   10.2760   -2.3270   23.4020 C   0  0  0  0  0  0  0  0  0  0  0  0
   11.5217    1.0079   23.5949 C   0  0  0  0  0  0  0  0  0  0  0  0
    5.9810    0.8330   18.8060 C   0  0  0  0  0  0  0  0  0  0  0  0
    6.1600    0.3870   20.1140 C   0  0  0  0  0  0  0  0  0  0  0  0
    9.2850   -3.7090   25.1090 C   0  0  0  0  0  0  0  0  0  0  0  0
    9.3300   -1.3350   23.6390 C   0  0  0  0  0  0  0  0  0  0  0  0
    8.9510    0.1280   21.6880 C   0  0  0  0  0  0  0  0  0  0  0  0
    7.3162   -6.8835   26.5210 C   0  0  0  0  0  0  0  0  0  0  0  0
    7.3507   -5.5245   27.2240 C   0  0  0  0  0  0  0  0  0  0  0  0
    7.9375   -6.8069   25.1245 C   0  0  0  0  0  0  0  0  0  0  0  0
    8.7638   -4.9418   27.2163 C   0  0  0  0  0  0  0  0  0  0  0  0
    9.3378   -6.1874   25.1659 C   0  0  0  0  0  0  0  0  0  0  0  0
   10.0220    1.0430   23.6570 C   0  0  0  0  0  0  0  0  0  0  0  0
    8.0810   -0.9750   21.0820 C   0  0  0  0  0  0  0  0  0  0  0  0
    6.9440    0.2550   18.0100 N   0  0  0  0  0  0  0  0  0  0  0  0
    7.6830   -0.5170   18.7600 N   0  0  0  0  0  0  0  0  0  0  0  0
    7.2210   -0.4620   20.0350 N   0  0  0  0  0  0  0  0  0  0  0  0
    9.2639   -4.8860   25.8399 N   0  0  0  0  0  0  0  0  0  0  0  0
    9.4200   -0.0840   22.9530 N   0  0  0  0  0  0  0  0  0  0  0  0
    9.1870    1.1500   21.0630 O   0  0  0  0  0  0  0  0  0  0  0  0
   15.3932    0.9189   23.4337 H   0  0  0  0  0  0  0  0  0  0  0  0
   14.2029   -0.2090   25.2955 H   0  0  0  0  0  0  0  0  0  0  0  0
   14.1048    2.1043   21.6752 H   0  0  0  0  0  0  0  0  0  0  0  0
    3.2714    2.7873   19.3199 H   0  0  0  0  0  0  0  0  0  0  0  0
    3.6281    2.0094   21.6291 H   0  0  0  0  0  0  0  0  0  0  0  0
   11.7330   -0.1555   25.4027 H   0  0  0  0  0  0  0  0  0  0  0  0
   11.6349    2.1636   21.7735 H   0  0  0  0  0  0  0  0  0  0  0  0
    4.7823    2.0669   17.4883 H   0  0  0  0  0  0  0  0  0  0  0  0
    5.4954    0.4562   22.1797 H   0  0  0  0  0  0  0  0  0  0  0  0
    7.5647   -2.8621   26.1053 H   0  0  0  0  0  0  0  0  0  0  0  0
   11.0144   -4.2642   23.9425 H   0  0  0  0  0  0  0  0  0  0  0  0
    7.5958   -0.7779   24.8006 H   0  0  0  0  0  0  0  0  0  0  0  0
   11.0406   -2.1848   22.6356 H   0  0  0  0  0  0  0  0  0  0  0  0
    7.8578   -7.6261   27.1266 H   0  0  0  0  0  0  0  0  0  0  0  0
    6.2773   -7.2358   26.4459 H   0  0  0  0  0  0  0  0  0  0  0  0
    6.6663   -4.8351   26.7223 H   0  0  0  0  0  0  0  0  0  0  0  0
    7.0044   -5.6368   28.2534 H   0  0  0  0  0  0  0  0  0  0  0  0
    7.9946   -7.8119   24.6937 H   0  0  0  0  0  0  0  0  0  0  0  0
    7.2929   -6.2123   24.4668 H   0  0  0  0  0  0  0  0  0  0  0  0
    8.7343   -3.9408   27.6542 H   0  0  0  0  0  0  0  0  0  0  0  0
    9.4243   -5.5632   27.8278 H   0  0  0  0  0  0  0  0  0  0  0  0
   10.0200   -6.8490   25.7011 H   0  0  0  0  0  0  0  0  0  0  0  0
    9.6984   -6.0694   24.1436 H   0  0  0  0  0  0  0  0  0  0  0  0
    9.6778    1.0140   24.6966 H   0  0  0  0  0  0  0  0  0  0  0  0
    9.6316    1.9637   23.2107 H   0  0  0  0  0  0  0  0  0  0  0  0
    8.7136   -1.7499   20.6462 H   0  0  0  0  0  0  0  0  0  0  0  0
    7.4415   -1.4060   21.8540 H   0  0  0  0  0  0  0  0  0  0  0  0
  1  2  1  0  0  0  0
  1  3  2  0  0  0  0
  2  6  2  0  0  0  0
  3  7  1  0  0  0  0
  4  5  1  0  0  0  0
  4  8  2  0  0  0  0
  5  9  2  0  0  0  0
  6 14  1  0  0  0  0
  7 14  2  0  0  0  0
  8 15  1  0  0  0  0
  9 16  1  0  0  0  0
 10 12  2  0  0  0  0
 10 17  1  0  0  0  0
 11 13  1  0  0  0  0
 11 17  2  0  0  0  0
 12 18  1  0  0  0  0
 13 18  2  0  0  0  0
 14 25  1  0  0  0  0
 15 16  2  0  0  0  0
 15 27  1  0  0  0  0
 16 29  1  0  0  0  0
 17 30  1  0  0  0  0
 18 31  1  0  0  0  0
 19 26  1  0  0  0  0
 19 31  1  0  0  0  0
 19 32  2  0  0  0  0
 20 21  1  0  0  0  0
 20 22  1  0  0  0  0
 21 23  1  0  0  0  0
 22 24  1  0  0  0  0
 23 30  1  0  0  0  0
 24 30  1  0  0  0  0
 25 31  1  0  0  0  0
 26 29  1  0  0  0  0
 27 28  2  0  0  0  0
 28 29  1  0  0  0  0
  1 33  1  0  0  0  0
  2 34  1  0  0  0  0
  3 35  1  0  0  0  0
  4 36  1  0  0  0  0
  5 37  1  0  0  0  0
  6 38  1  0  0  0  0
  7 39  1  0  0  0  0
  8 40  1  0  0  0  0
  9 41  1  0  0  0  0
 10 42  1  0  0  0  0
 11 43  1  0  0  0  0
 12 44  1  0  0  0  0
 13 45  1  0  0  0  0
 20 46  1  0  0  0  0
 20 47  1  0  0  0  0
 21 48  1  0  0  0  0
 21 49  1  0  0  0  0
 22 50  1  0  0  0  0
 22 51  1  0  0  0  0
 23 52  1  0  0  0  0
 23 53  1  0  0  0  0
 24 54  1  0  0  0  0
 24 55  1  0  0  0  0
 25 56  1  0  0  0  0
 25 57  1  0  0  0  0
 26 58  1  0  0  0  0
 26 59  1  0  0  0  0
M  END
> <clash_score>
0

> <docking_score>
-8.674263000488281

> <overlap_score>
1.0155829191207886

$$$$
BENZO_344_1
  -OEChem-08222022413D

 56 60  0     0  0  0  0  0  0999 V2000
    4.0980    2.1130   19.5350 C   0  0  0  0  0  0  0  0  0  0  0  0
    4.2970    1.6690   20.8430 C   0  0  0  0  0  0  0  0  0  0  0  0
    4.9400    1.7060   18.5060 C   0  0  0  0  0  0  0  0  0  0  0  0
    5.3360    0.8000   21.1530 C   0  0  0  0  0  0  0  0  0  0  0  0
    8.3310   -2.7170   25.3430 C   0  0  0  0  0  0  0  0  0  0  0  0
   10.2570   -3.5000   24.1350 C   0  0  0  0  0  0  0  0  0  0  0  0
    8.3510   -1.5420   24.6110 C   0  0  0  0  0  0  0  0  0  0  0  0
   10.2760   -2.3270   23.4020 C   0  0  0  0  0  0  0  0  0  0  0  0
   12.2675    1.0332   22.3812 C   0  0  0  0  0  0  0  0  0  0  0  0
   13.6257    0.9906   22.6074 C   0  0  0  0  0  0  0  0  0  0  0  0
   12.3384    0.9467   24.7028 C   0  0  0  0  0  0  0  0  0  0  0  0
   11.5217    1.0079   23.5949 C   0  0  0  0  0  0  0  0  0  0  0  0
    5.9810    0.8330   18.8060 C   0  0  0  0  0  0  0  0  0  0  0  0
    6.1600    0.3870   20.1140 C   0  0  0  0  0  0  0  0  0  0  0  0
    9.2850   -3.7090   25.1090 C   0  0  0  0  0  0  0  0  0  0  0  0
    9.3300   -1.3350   23.6390 C   0  0  0  0  0  0  0  0  0  0  0  0
    8.9510    0.1280   21.6880 C   0  0  0  0  0  0  0  0  0  0  0  0
    7.3162   -6.8835   26.5210 C   0  0  0  0  0  0  0  0  0  0  0  0
    7.3507   -5.5245   27.2240 C   0  0  0  0  0  0  0  0  0  0  0  0
    7.9375   -6.8069   25.1245 C   0  0  0  0  0  0  0  0  0  0  0  0
    8.7638   -4.9418   27.2163 C   0  0  0  0  0  0  0  0  0  0  0  0
    9.3378   -6.1874   25.1659 C   0  0  0  0  0  0  0  0  0  0  0  0
   10.0220    1.0430   23.6570 C   0  0  0  0  0  0  0  0  0  0  0  0
    8.0810   -0.9750   21.0820 C   0  0  0  0  0  0  0  0  0  0  0  0
    6.9440    0.2550   18.0100 N   0  0  0  0  0  0  0  0  0  0  0  0
    7.6830   -0.5170   18.7600 N   0  0  0  0  0  0  0  0  0  0  0  0
    7.2210   -0.4620   20.0350 N   0  0  0  0  0  0  0  0  0  0  0  0
    9.2639   -4.8860   25.8399 N   0  0  0  0  0  0  0  0  0  0  0  0
    9.4200   -0.0840   22.9530 N   0  0  0  0  0  0  0  0  0  0  0  0
    9.1870    1.1500   21.0630 O   0  0  0  0  0  0  0  0  0  0  0  0
   13.9969    0.9203   24.2776 S   0  0  0  0  0  0  0  0  0  0  0  0
    3.2714    2.7873   19.3199 H   0  0  0  0  0  0  0  0  0  0  0  0
    3.6281    2.0094   21.6291 H   0  0  0  0  0  0  0  0  0  0  0  0
    4.7823    2.0669   17.4883 H   0  0  0  0  0  0  0  0  0  0  0  0
    5.4954    0.4562   22.1797 H   0  0  0  0  0  0  0  0  0  0  0  0
    7.5647   -2.8621   26.1053 H   0  0  0  0  0  0  0  0  0  0  0  0
   11.0144   -4.2642   23.9425 H   0  0  0  0  0  0  0  0  0  0  0  0
    7.5958   -0.7779   24.8006 H   0  0  0  0  0  0  0  0  0  0  0  0
   11.0406   -2.1848   22.6356 H   0  0  0  0  0  0  0  0  0  0  0  0
   11.8338    1.0798   21.3902 H   0  0  0  0  0  0  0  0  0  0  0  0
   14.4176    0.9966   21.8719 H   0  0  0  0  0  0  0  0  0  0  0  0
   12.0446    0.9149   25.7428 H   0  0  0  0  0  0  0  0  0  0  0  0
    7.8578   -7.6261   27.1266 H   0  0  0  0  0  0  0  0  0  0  0  0
    6.2773   -7.2358   26.4459 H   0  0  0  0  0  0  0  0  0  0  0  0
    6.6663   -4.8351   26.7223 H   0  0  0  0  0  0  0  0  0  0  0  0
    7.0044   -5.6368   28.2534 H   0  0  0  0  0  0  0  0  0  0  0  0
    7.9946   -7.8119   24.6937 H   0  0  0  0  0  0  0  0  0  0  0  0
    7.2929   -6.2123   24.4668 H   0  0  0  0  0  0  0  0  0  0  0  0
    8.7343   -3.9408   27.6542 H   0  0  0  0  0  0  0  0  0  0  0  0
    9.4243   -5.5632   27.8278 H   0  0  0  0  0  0  0  0  0  0  0  0
   10.0200   -6.8490   25.7011 H   0  0  0  0  0  0  0  0  0  0  0  0
    9.6984   -6.0694   24.1436 H   0  0  0  0  0  0  0  0  0  0  0  0
    9.6778    1.0140   24.6966 H   0  0  0  0  0  0  0  0  0  0  0  0
    9.6316    1.9637   23.2107 H   0  0  0  0  0  0  0  0  0  0  0  0
    8.7136   -1.7499   20.6462 H   0  0  0  0  0  0  0  0  0  0  0  0
    7.4415   -1.4060   21.8540 H   0  0  0  0  0  0  0  0  0  0  0  0
  1  2  1  0  0  0  0
  1  3  2  0  0  0  0
  2  4  2  0  0  0  0
  3 13  1  0  0  0  0
  4 14  1  0  0  0  0
  5  7  2  0  0  0  0
  5 15  1  0  0  0  0
  6  8  1  0  0  0  0
  6 15  2  0  0  0  0
  7 16  1  0  0  0  0
  8 16  2  0  0  0  0
  9 10  2  0  0  0  0
  9 12  1  0  0  0  0
 10 31  1  0  0  0  0
 11 12  2  0  0  0  0
 11 31  1  0  0  0  0
 12 23  1  0  0  0  0
 13 14  2  0  0  0  0
 13 25  1  0  0  0  0
 14 27  1  0  0  0  0
 15 28  1  0  0  0  0
 16 29  1  0  0  0  0
 17 24  1  0  0  0  0
 17 29  1  0  0  0  0
 17 30  2  0  0  0  0
 18 19  1  0  0  0  0
 18 20  1  0  0  0  0
 19 21  1  0  0  0  0
 20 22  1  0  0  0  0
 21 28  1  0  0  0  0
 22 28  1  0  0  0  0
 23 29  1  0  0  0  0
 24 27  1  0  0  0  0
 25 26  2  0  0  0  0
 26 27  1  0  0  0  0
  1 32  1  0  0  0  0
  2 33  1  0  0  0  0
  3 34  1  0  0  0  0
  4 35  1  0  0  0  0
  5 36  1  0  0  0  0
  6 37  1  0  0  0  0
  7 38  1  0  0  0  0
  8 39  1  0  0  0  0
  9 40  1  0  0  0  0
 10 41  1  0  0  0  0
 11 42  1  0  0  0  0
 18 43  1  0  0  0  0
 18 44  1  0  0  0  0
 19 45  1  0  0  0  0
 19 46  1  0  0  0  0
 20 47  1  0  0  0  0
 20 48  1  0  0  0  0
 21 49  1  0  0  0  0
 21 50  1  0  0  0  0
 22 51  1  0  0  0  0
 22 52  1  0  0  0  0
 23 53  1  0  0  0  0
 23 54  1  0  0  0  0
 24 55  1  0  0  0  0
 24 56  1  0  0  0  0
M  END
> <clash_score>
0

> <docking_score>
-8.920454978942871

> <overlap_score>
0.9899340271949768

$$$$
BENZO_343_1
  -OEChem-08222022413D

 54 57  0     0  0  0  0  0  0999 V2000
    4.0980    2.1130   19.5350 C   0  0  0  0  0  0  0  0  0  0  0  0
    4.2970    1.6690   20.8430 C   0  0  0  0  0  0  0  0  0  0  0  0
    4.9400    1.7060   18.5060 C   0  0  0  0  0  0  0  0  0  0  0  0
    5.3360    0.8000   21.1530 C   0  0  0  0  0  0  0  0  0  0  0  0
    8.3310   -2.7170   25.3430 C   0  0  0  0  0  0  0  0  0  0  0  0
   10.2570   -3.5000   24.1350 C   0  0  0  0  0  0  0  0  0  0  0  0
    8.3510   -1.5420   24.6110 C   0  0  0  0  0  0  0  0  0  0  0  0
   10.2760   -2.3270   23.4020 C   0  0  0  0  0  0  0  0  0  0  0  0
   12.4295    0.9466   24.6692 C   0  0  0  0  0  0  0  0  0  0  0  0
   12.3161    1.0259   22.4747 C   0  0  0  0  0  0  0  0  0  0  0  0
   11.5217    1.0079   23.5949 C   0  0  0  0  0  0  0  0  0  0  0  0
    5.9810    0.8330   18.8060 C   0  0  0  0  0  0  0  0  0  0  0  0
    6.1600    0.3870   20.1140 C   0  0  0  0  0  0  0  0  0  0  0  0
    9.2850   -3.7090   25.1090 C   0  0  0  0  0  0  0  0  0  0  0  0
    9.3300   -1.3350   23.6390 C   0  0  0  0  0  0  0  0  0  0  0  0
    9.6843   -6.1680   25.4389 C   0  0  0  0  0  0  0  0  0  0  0  0
    8.9510    0.1280   21.6880 C   0  0  0  0  0  0  0  0  0  0  0  0
    8.0401   -7.2913   27.0012 C   0  0  0  0  0  0  0  0  0  0  0  0
   14.7958    0.9722   22.1181 C   0  0  0  0  0  0  0  0  0  0  0  0
   10.0220    1.0430   23.6570 C   0  0  0  0  0  0  0  0  0  0  0  0
    9.4863   -7.1875   26.5508 C   0  0  0  0  0  0  0  0  0  0  0  0
    8.0810   -0.9750   21.0820 C   0  0  0  0  0  0  0  0  0  0  0  0
   13.7032    0.9267   24.2674 N   0  0  0  0  0  0  0  0  0  0  0  0
    6.9440    0.2550   18.0100 N   0  0  0  0  0  0  0  0  0  0  0  0
    7.6830   -0.5170   18.7600 N   0  0  0  0  0  0  0  0  0  0  0  0
   13.6014    0.9758   22.9283 N   0  0  0  0  0  0  0  0  0  0  0  0
    7.2210   -0.4620   20.0350 N   0  0  0  0  0  0  0  0  0  0  0  0
    9.2630   -4.8902   25.8410 N   0  0  0  0  0  0  0  0  0  0  0  0
    9.4200   -0.0840   22.9530 N   0  0  0  0  0  0  0  0  0  0  0  0
   10.1565   -6.4769   24.3498 O   0  0  0  0  0  0  0  0  0  0  0  0
    9.1870    1.1500   21.0630 O   0  0  0  0  0  0  0  0  0  0  0  0
    3.2714    2.7873   19.3199 H   0  0  0  0  0  0  0  0  0  0  0  0
    3.6281    2.0093   21.6291 H   0  0  0  0  0  0  0  0  0  0  0  0
    4.7823    2.0669   17.4883 H   0  0  0  0  0  0  0  0  0  0  0  0
    5.4954    0.4562   22.1797 H   0  0  0  0  0  0  0  0  0  0  0  0
    7.5639   -2.8621   26.1045 H   0  0  0  0  0  0  0  0  0  0  0  0
   11.0141   -4.2644   23.9422 H   0  0  0  0  0  0  0  0  0  0  0  0
    7.5950   -0.7788   24.8007 H   0  0  0  0  0  0  0  0  0  0  0  0
   11.0408   -2.1861   22.6359 H   0  0  0  0  0  0  0  0  0  0  0  0
   12.2184    0.9145   25.7287 H   0  0  0  0  0  0  0  0  0  0  0  0
   12.0821    1.0677   21.4195 H   0  0  0  0  0  0  0  0  0  0  0  0
    7.6718   -6.3270   27.3663 H   0  0  0  0  0  0  0  0  0  0  0  0
    7.9444   -8.0224   27.8098 H   0  0  0  0  0  0  0  0  0  0  0  0
    7.3932   -7.6071   26.1761 H   0  0  0  0  0  0  0  0  0  0  0  0
   15.1026    2.0102   21.9649 H   0  0  0  0  0  0  0  0  0  0  0  0
   15.5826    0.4128   22.6318 H   0  0  0  0  0  0  0  0  0  0  0  0
   14.5811    0.4906   21.1600 H   0  0  0  0  0  0  0  0  0  0  0  0
    9.6778    1.0140   24.6966 H   0  0  0  0  0  0  0  0  0  0  0  0
    9.6316    1.9637   23.2107 H   0  0  0  0  0  0  0  0  0  0  0  0
    9.8280   -8.1648   26.1911 H   0  0  0  0  0  0  0  0  0  0  0  0
   10.1145   -6.9002   27.4018 H   0  0  0  0  0  0  0  0  0  0  0  0
    8.7066   -1.7479   20.6383 H   0  0  0  0  0  0  0  0  0  0  0  0
    7.4345   -1.4041   21.8461 H   0  0  0  0  0  0  0  0  0  0  0  0
    8.8930   -4.8275   26.7966 H   0  0  0  0  0  0  0  0  0  0  0  0
  1  2  1  0  0  0  0
  1  3  2  0  0  0  0
  2  4  2  0  0  0  0
  3 12  1  0  0  0  0
  4 13  1  0  0  0  0
  5  7  2  0  0  0  0
  5 14  1  0  0  0  0
  6  8  1  0  0  0  0
  6 14  2  0  0  0  0
  7 15  1  0  0  0  0
  8 15  2  0  0  0  0
  9 11  1  0  0  0  0
  9 23  2  0  0  0  0
 10 11  2  0  0  0  0
 10 26  1  0  0  0  0
 11 20  1  0  0  0  0
 12 13  2  0  0  0  0
 12 24  1  0  0  0  0
 13 27  1  0  0  0  0
 14 28  1  0  0  0  0
 15 29  1  0  0  0  0
 16 21  1  0  0  0  0
 16 28  1  0  0  0  0
 16 30  2  0  0  0  0
 17 22  1  0  0  0  0
 17 29  1  0  0  0  0
 17 31  2  0  0  0  0
 18 21  1  0  0  0  0
 19 26  1  0  0  0  0
 20 29  1  0  0  0  0
 22 27  1  0  0  0  0
 23 26  1  0  0  0  0
 24 25  2  0  0  0  0
 25 27  1  0  0  0  0
  1 32  1  0  0  0  0
  2 33  1  0  0  0  0
  3 34  1  0  0  0  0
  4 35  1  0  0  0  0
  5 36  1  0  0  0  0
  6 37  1  0  0  0  0
  7 38  1  0  0  0  0
  8 39  1  0  0  0  0
  9 40  1  0  0  0  0
 10 41  1  0  0  0  0
 18 42  1  0  0  0  0
 18 43  1  0  0  0  0
 18 44  1  0  0  0  0
 19 45  1  0  0  0  0
 19 46  1  0  0  0  0
 19 47  1  0  0  0  0
 20 48  1  0  0  0  0
 20 49  1  0  0  0  0
 21 50  1  0  0  0  0
 21 51  1  0  0  0  0
 22 52  1  0  0  0  0
 22 53  1  0  0  0  0
 28 54  1  0  0  0  0
M  END
> <clash_score>
1.3337221088695097

> <docking_score>
-6.384027481079102

> <overlap_score>
0.9779848456382751

$$$$
BENZO_342_1
  -OEChem-08222022413D

 54 57  0     0  0  0  0  0  0999 V2000
    4.0980    2.1130   19.5350 C   0  0  0  0  0  0  0  0  0  0  0  0
    4.2970    1.6690   20.8430 C   0  0  0  0  0  0  0  0  0  0  0  0
   13.5977    1.8457   22.6865 C   0  0  0  0  0  0  0  0  0  0  0  0
   12.2044    1.8769   22.7438 C   0  0  0  0  0  0  0  0  0  0  0  0
    4.9400    1.7060   18.5060 C   0  0  0  0  0  0  0  0  0  0  0  0
    5.3360    0.8000   21.1530 C   0  0  0  0  0  0  0  0  0  0  0  0
    8.3310   -2.7170   25.3430 C   0  0  0  0  0  0  0  0  0  0  0  0
   10.2570   -3.5000   24.1350 C   0  0  0  0  0  0  0  0  0  0  0  0
    8.3510   -1.5420   24.6110 C   0  0  0  0  0  0  0  0  0  0  0  0
   10.2760   -2.3270   23.4020 C   0  0  0  0  0  0  0  0  0  0  0  0
   14.3084    0.9454   23.4803 C   0  0  0  0  0  0  0  0  0  0  0  0
   12.2323    0.1076   24.3888 C   0  0  0  0  0  0  0  0  0  0  0  0
   11.5217    1.0079   23.5949 C   0  0  0  0  0  0  0  0  0  0  0  0
    5.9810    0.8330   18.8060 C   0  0  0  0  0  0  0  0  0  0  0  0
    6.1600    0.3870   20.1140 C   0  0  0  0  0  0  0  0  0  0  0  0
    9.2850   -3.7090   25.1090 C   0  0  0  0  0  0  0  0  0  0  0  0
    9.3300   -1.3350   23.6390 C   0  0  0  0  0  0  0  0  0  0  0  0
   13.6257    0.0764   24.3314 C   0  0  0  0  0  0  0  0  0  0  0  0
    9.6843   -6.1680   25.4389 C   0  0  0  0  0  0  0  0  0  0  0  0
    8.9510    0.1280   21.6880 C   0  0  0  0  0  0  0  0  0  0  0  0
    8.0401   -7.2913   27.0012 C   0  0  0  0  0  0  0  0  0  0  0  0
   10.0220    1.0430   23.6570 C   0  0  0  0  0  0  0  0  0  0  0  0
    9.4863   -7.1875   26.5508 C   0  0  0  0  0  0  0  0  0  0  0  0
    8.0810   -0.9750   21.0820 C   0  0  0  0  0  0  0  0  0  0  0  0
    6.9440    0.2550   18.0100 N   0  0  0  0  0  0  0  0  0  0  0  0
    7.6830   -0.5170   18.7600 N   0  0  0  0  0  0  0  0  0  0  0  0
    7.2210   -0.4620   20.0350 N   0  0  0  0  0  0  0  0  0  0  0  0
    9.2630   -4.8902   25.8410 N   0  0  0  0  0  0  0  0  0  0  0  0
    9.4200   -0.0840   22.9530 N   0  0  0  0  0  0  0  0  0  0  0  0
   10.1565   -6.4769   24.3498 O   0  0  0  0  0  0  0  0  0  0  0  0
    9.1870    1.1500   21.0630 O   0  0  0  0  0  0  0  0  0  0  0  0
   14.5031   -1.0334   25.3114 Cl  0  0  0  0  0  0  0  0  0  0  0  0
    3.2714    2.7873   19.3199 H   0  0  0  0  0  0  0  0  0  0  0  0
    3.6281    2.0093   21.6291 H   0  0  0  0  0  0  0  0  0  0  0  0
   14.1289    2.5226   22.0237 H   0  0  0  0  0  0  0  0  0  0  0  0
   11.6588    2.5818   22.1218 H   0  0  0  0  0  0  0  0  0  0  0  0
    4.7823    2.0669   17.4883 H   0  0  0  0  0  0  0  0  0  0  0  0
    5.4954    0.4562   22.1797 H   0  0  0  0  0  0  0  0  0  0  0  0
    7.5639   -2.8621   26.1045 H   0  0  0  0  0  0  0  0  0  0  0  0
   11.0141   -4.2644   23.9422 H   0  0  0  0  0  0  0  0  0  0  0  0
    7.5950   -0.7788   24.8007 H   0  0  0  0  0  0  0  0  0  0  0  0
   11.0408   -2.1861   22.6359 H   0  0  0  0  0  0  0  0  0  0  0  0
   15.3941    0.9323   23.4255 H   0  0  0  0  0  0  0  0  0  0  0  0
   11.6954   -0.5682   25.0504 H   0  0  0  0  0  0  0  0  0  0  0  0
    7.6718   -6.3270   27.3663 H   0  0  0  0  0  0  0  0  0  0  0  0
    7.9444   -8.0224   27.8098 H   0  0  0  0  0  0  0  0  0  0  0  0
    7.3932   -7.6071   26.1761 H   0  0  0  0  0  0  0  0  0  0  0  0
    9.6778    1.0140   24.6966 H   0  0  0  0  0  0  0  0  0  0  0  0
    9.6316    1.9637   23.2107 H   0  0  0  0  0  0  0  0  0  0  0  0
    9.8280   -8.1648   26.1911 H   0  0  0  0  0  0  0  0  0  0  0  0
   10.1145   -6.9002   27.4018 H   0  0  0  0  0  0  0  0  0  0  0  0
    8.7066   -1.7479   20.6383 H   0  0  0  0  0  0  0  0  0  0  0  0
    7.4345   -1.4041   21.8461 H   0  0  0  0  0  0  0  0  0  0  0  0
    8.8930   -4.8275   26.7966 H   0  0  0  0  0  0  0  0  0  0  0  0
  1  2  1  0  0  0  0
  1  5  2  0  0  0  0
  2  6  2  0  0  0  0
  3  4  2  0  0  0  0
  3 11  1  0  0  0  0
  4 13  1  0  0  0  0
  5 14  1  0  0  0  0
  6 15  1  0  0  0  0
  7  9  2  0  0  0  0
  7 16  1  0  0  0  0
  8 10  1  0  0  0  0
  8 16  2  0  0  0  0
  9 17  1  0  0  0  0
 10 17  2  0  0  0  0
 11 18  2  0  0  0  0
 12 13  2  0  0  0  0
 12 18  1  0  0  0  0
 13 22  1  0  0  0  0
 14 15  2  0  0  0  0
 14 25  1  0  0  0  0
 15 27  1  0  0  0  0
 16 28  1  0  0  0  0
 17 29  1  0  0  0  0
 18 32  1  0  0  0  0
 19 23  1  0  0  0  0
 19 28  1  0  0  0  0
 19 30  2  0  0  0  0
 20 24  1  0  0  0  0
 20 29  1  0  0  0  0
 20 31  2  0  0  0  0
 21 23  1  0  0  0  0
 22 29  1  0  0  0  0
 24 27  1  0  0  0  0
 25 26  2  0  0  0  0
 26 27  1  0  0  0  0
  1 33  1  0  0  0  0
  2 34  1  0  0  0  0
  3 35  1  0  0  0  0
  4 36  1  0  0  0  0
  5 37  1  0  0  0  0
  6 38  1  0  0  0  0
  7 39  1  0  0  0  0
  8 40  1  0  0  0  0
  9 41  1  0  0  0  0
 10 42  1  0  0  0  0
 11 43  1  0  0  0  0
 12 44  1  0  0  0  0
 21 45  1  0  0  0  0
 21 46  1  0  0  0  0
 21 47  1  0  0  0  0
 22 48  1  0  0  0  0
 22 49  1  0  0  0  0
 23 50  1  0  0  0  0
 23 51  1  0  0  0  0
 24 52  1  0  0  0  0
 24 53  1  0  0  0  0
 28 54  1  0  0  0  0
M  END
> <clash_score>
2.09996826921338

> <docking_score>
-5.623875141143799

> <overlap_score>
0.9923515319824219

$$$$
BENZO_347_1
  -OEChem-08222022413D

 59 63  0     0  0  0  0  0  0999 V2000
    4.0980    2.1130   19.5350 C   0  0  0  0  0  0  0  0  0  0  0  0
    4.2970    1.6690   20.8430 C   0  0  0  0  0  0  0  0  0  0  0  0
    4.9400    1.7060   18.5060 C   0  0  0  0  0  0  0  0  0  0  0  0
    5.3360    0.8000   21.1530 C   0  0  0  0  0  0  0  0  0  0  0  0
    8.3310   -2.7170   25.3430 C   0  0  0  0  0  0  0  0  0  0  0  0
   10.2570   -3.5000   24.1350 C   0  0  0  0  0  0  0  0  0  0  0  0
    8.3510   -1.5420   24.6110 C   0  0  0  0  0  0  0  0  0  0  0  0
   10.2760   -2.3270   23.4020 C   0  0  0  0  0  0  0  0  0  0  0  0
   12.4359    1.7439   24.3724 C   0  0  0  0  0  0  0  0  0  0  0  0
   12.3100    0.2469   22.7668 C   0  0  0  0  0  0  0  0  0  0  0  0
   11.5217    1.0079   23.5949 C   0  0  0  0  0  0  0  0  0  0  0  0
    5.9810    0.8330   18.8060 C   0  0  0  0  0  0  0  0  0  0  0  0
    6.1600    0.3870   20.1140 C   0  0  0  0  0  0  0  0  0  0  0  0
    9.2850   -3.7090   25.1090 C   0  0  0  0  0  0  0  0  0  0  0  0
    9.3300   -1.3350   23.6390 C   0  0  0  0  0  0  0  0  0  0  0  0
    8.9510    0.1280   21.6880 C   0  0  0  0  0  0  0  0  0  0  0  0
    7.3162   -6.8835   26.5210 C   0  0  0  0  0  0  0  0  0  0  0  0
    7.3507   -5.5245   27.2240 C   0  0  0  0  0  0  0  0  0  0  0  0
    7.9375   -6.8069   25.1245 C   0  0  0  0  0  0  0  0  0  0  0  0
    8.7638   -4.9418   27.2163 C   0  0  0  0  0  0  0  0  0  0  0  0
    9.3378   -6.1874   25.1659 C   0  0  0  0  0  0  0  0  0  0  0  0
   14.7884    0.0124   22.4815 C   0  0  0  0  0  0  0  0  0  0  0  0
   10.0220    1.0430   23.6570 C   0  0  0  0  0  0  0  0  0  0  0  0
    8.0810   -0.9750   21.0820 C   0  0  0  0  0  0  0  0  0  0  0  0
   13.7076    1.4745   24.0657 N   0  0  0  0  0  0  0  0  0  0  0  0
    6.9440    0.2550   18.0100 N   0  0  0  0  0  0  0  0  0  0  0  0
    7.6830   -0.5170   18.7600 N   0  0  0  0  0  0  0  0  0  0  0  0
   13.5982    0.5607   23.0864 N   0  0  0  0  0  0  0  0  0  0  0  0
    7.2210   -0.4620   20.0350 N   0  0  0  0  0  0  0  0  0  0  0  0
    9.2639   -4.8860   25.8399 N   0  0  0  0  0  0  0  0  0  0  0  0
    9.4200   -0.0840   22.9530 N   0  0  0  0  0  0  0  0  0  0  0  0
    9.1870    1.1500   21.0630 O   0  0  0  0  0  0  0  0  0  0  0  0
    3.2714    2.7873   19.3199 H   0  0  0  0  0  0  0  0  0  0  0  0
    3.6281    2.0094   21.6291 H   0  0  0  0  0  0  0  0  0  0  0  0
    4.7823    2.0669   17.4883 H   0  0  0  0  0  0  0  0  0  0  0  0
    5.4954    0.4562   22.1797 H   0  0  0  0  0  0  0  0  0  0  0  0
    7.5647   -2.8621   26.1053 H   0  0  0  0  0  0  0  0  0  0  0  0
   11.0144   -4.2642   23.9425 H   0  0  0  0  0  0  0  0  0  0  0  0
    7.5958   -0.7779   24.8006 H   0  0  0  0  0  0  0  0  0  0  0  0
   11.0406   -2.1848   22.6356 H   0  0  0  0  0  0  0  0  0  0  0  0
   12.2308    2.4652   25.1508 H   0  0  0  0  0  0  0  0  0  0  0  0
   12.0700   -0.4744   21.9974 H   0  0  0  0  0  0  0  0  0  0  0  0
    7.8578   -7.6261   27.1266 H   0  0  0  0  0  0  0  0  0  0  0  0
    6.2773   -7.2358   26.4459 H   0  0  0  0  0  0  0  0  0  0  0  0
    6.6663   -4.8351   26.7223 H   0  0  0  0  0  0  0  0  0  0  0  0
    7.0044   -5.6368   28.2534 H   0  0  0  0  0  0  0  0  0  0  0  0
    7.9946   -7.8119   24.6937 H   0  0  0  0  0  0  0  0  0  0  0  0
    7.2929   -6.2123   24.4668 H   0  0  0  0  0  0  0  0  0  0  0  0
    8.7343   -3.9408   27.6542 H   0  0  0  0  0  0  0  0  0  0  0  0
    9.4243   -5.5632   27.8278 H   0  0  0  0  0  0  0  0  0  0  0  0
   10.0200   -6.8490   25.7011 H   0  0  0  0  0  0  0  0  0  0  0  0
    9.6984   -6.0694   24.1436 H   0  0  0  0  0  0  0  0  0  0  0  0
   15.0569    0.6453   21.6315 H   0  0  0  0  0  0  0  0  0  0  0  0
   15.5971   -0.0026   23.2174 H   0  0  0  0  0  0  0  0  0  0  0  0
   14.5870   -1.0100   22.1498 H   0  0  0  0  0  0  0  0  0  0  0  0
    9.6778    1.0140   24.6966 H   0  0  0  0  0  0  0  0  0  0  0  0
    9.6316    1.9637   23.2107 H   0  0  0  0  0  0  0  0  0  0  0  0
    8.7136   -1.7499   20.6462 H   0  0  0  0  0  0  0  0  0  0  0  0
    7.4415   -1.4060   21.8540 H   0  0  0  0  0  0  0  0  0  0  0  0
  1  2  1  0  0  0  0
  1  3  2  0  0  0  0
  2  4  2  0  0  0  0
  3 12  1  0  0  0  0
  4 13  1  0  0  0  0
  5  7  2  0  0  0  0
  5 14  1  0  0  0  0
  6  8  1  0  0  0  0
  6 14  2  0  0  0  0
  7 15  1  0  0  0  0
  8 15  2  0  0  0  0
  9 11  1  0  0  0  0
  9 25  2  0  0  0  0
 10 11  2  0  0  0  0
 10 28  1  0  0  0  0
 11 23  1  0  0  0  0
 12 13  2  0  0  0  0
 12 26  1  0  0  0  0
 13 29  1  0  0  0  0
 14 30  1  0  0  0  0
 15 31  1  0  0  0  0
 16 24  1  0  0  0  0
 16 31  1  0  0  0  0
 16 32  2  0  0  0  0
 17 18  1  0  0  0  0
 17 19  1  0  0  0  0
 18 20  1  0  0  0  0
 19 21  1  0  0  0  0
 20 30  1  0  0  0  0
 21 30  1  0  0  0  0
 22 28  1  0  0  0  0
 23 31  1  0  0  0  0
 24 29  1  0  0  0  0
 25 28  1  0  0  0  0
 26 27  2  0  0  0  0
 27 29  1  0  0  0  0
  1 33  1  0  0  0  0
  2 34  1  0  0  0  0
  3 35  1  0  0  0  0
  4 36  1  0  0  0  0
  5 37  1  0  0  0  0
  6 38  1  0  0  0  0
  7 39  1  0  0  0  0
  8 40  1  0  0  0  0
  9 41  1  0  0  0  0
 10 42  1  0  0  0  0
 17 43  1  0  0  0  0
 17 44  1  0  0  0  0
 18 45  1  0  0  0  0
 18 46  1  0  0  0  0
 19 47  1  0  0  0  0
 19 48  1  0  0  0  0
 20 49  1  0  0  0  0
 20 50  1  0  0  0  0
 21 51  1  0  0  0  0
 21 52  1  0  0  0  0
 22 53  1  0  0  0  0
 22 54  1  0  0  0  0
 22 55  1  0  0  0  0
 23 56  1  0  0  0  0
 23 57  1  0  0  0  0
 24 58  1  0  0  0  0
 24 59  1  0  0  0  0
M  END
> <clash_score>
0

> <docking_score>
-8.88886833190918

> <overlap_score>
1.0017563104629517

$$$$
BENZO_346_1
  -OEChem-08222022413D

 59 63  0     0  0  0  0  0  0999 V2000
    4.0980    2.1130   19.5350 C   0  0  0  0  0  0  0  0  0  0  0  0
    4.2970    1.6690   20.8430 C   0  0  0  0  0  0  0  0  0  0  0  0
   13.5977    1.8457   22.6865 C   0  0  0  0  0  0  0  0  0  0  0  0
   12.2044    1.8769   22.7438 C   0  0  0  0  0  0  0  0  0  0  0  0
    4.9400    1.7060   18.5060 C   0  0  0  0  0  0  0  0  0  0  0  0
    5.3360    0.8000   21.1530 C   0  0  0  0  0  0  0  0  0  0  0  0
    8.3310   -2.7170   25.3430 C   0  0  0  0  0  0  0  0  0  0  0  0
   10.2570   -3.5000   24.1350 C   0  0  0  0  0  0  0  0  0  0  0  0
    8.3510   -1.5420   24.6110 C   0  0  0  0  0  0  0  0  0  0  0  0
   10.2760   -2.3270   23.4020 C   0  0  0  0  0  0  0  0  0  0  0  0
   14.3084    0.9454   23.4803 C   0  0  0  0  0  0  0  0  0  0  0  0
   12.2323    0.1076   24.3888 C   0  0  0  0  0  0  0  0  0  0  0  0
   11.5217    1.0079   23.5949 C   0  0  0  0  0  0  0  0  0  0  0  0
    5.9810    0.8330   18.8060 C   0  0  0  0  0  0  0  0  0  0  0  0
    6.1600    0.3870   20.1140 C   0  0  0  0  0  0  0  0  0  0  0  0
    9.2850   -3.7090   25.1090 C   0  0  0  0  0  0  0  0  0  0  0  0
    9.3300   -1.3350   23.6390 C   0  0  0  0  0  0  0  0  0  0  0  0
   13.6257    0.0764   24.3314 C   0  0  0  0  0  0  0  0  0  0  0  0
    8.9510    0.1280   21.6880 C   0  0  0  0  0  0  0  0  0  0  0  0
    7.3162   -6.8835   26.5210 C   0  0  0  0  0  0  0  0  0  0  0  0
    7.3507   -5.5245   27.2240 C   0  0  0  0  0  0  0  0  0  0  0  0
    7.9375   -6.8069   25.1245 C   0  0  0  0  0  0  0  0  0  0  0  0
    8.7638   -4.9418   27.2163 C   0  0  0  0  0  0  0  0  0  0  0  0
    9.3378   -6.1874   25.1659 C   0  0  0  0  0  0  0  0  0  0  0  0
   10.0220    1.0430   23.6570 C   0  0  0  0  0  0  0  0  0  0  0  0
    8.0810   -0.9750   21.0820 C   0  0  0  0  0  0  0  0  0  0  0  0
    6.9440    0.2550   18.0100 N   0  0  0  0  0  0  0  0  0  0  0  0
    7.6830   -0.5170   18.7600 N   0  0  0  0  0  0  0  0  0  0  0  0
    7.2210   -0.4620   20.0350 N   0  0  0  0  0  0  0  0  0  0  0  0
    9.2639   -4.8860   25.8399 N   0  0  0  0  0  0  0  0  0  0  0  0
    9.4200   -0.0840   22.9530 N   0  0  0  0  0  0  0  0  0  0  0  0
    9.1870    1.1500   21.0630 O   0  0  0  0  0  0  0  0  0  0  0  0
   14.5031   -1.0334   25.3114 Cl  0  0  0  0  0  0  0  0  0  0  0  0
    3.2714    2.7873   19.3199 H   0  0  0  0  0  0  0  0  0  0  0  0
    3.6281    2.0094   21.6291 H   0  0  0  0  0  0  0  0  0  0  0  0
   14.1289    2.5227   22.0237 H   0  0  0  0  0  0  0  0  0  0  0  0
   11.6588    2.5818   22.1218 H   0  0  0  0  0  0  0  0  0  0  0  0
    4.7823    2.0669   17.4883 H   0  0  0  0  0  0  0  0  0  0  0  0
    5.4954    0.4562   22.1797 H   0  0  0  0  0  0  0  0  0  0  0  0
    7.5647   -2.8621   26.1053 H   0  0  0  0  0  0  0  0  0  0  0  0
   11.0144   -4.2642   23.9425 H   0  0  0  0  0  0  0  0  0  0  0  0
    7.5958   -0.7779   24.8006 H   0  0  0  0  0  0  0  0  0  0  0  0
   11.0406   -2.1848   22.6356 H   0  0  0  0  0  0  0  0  0  0  0  0
   15.3941    0.9323   23.4255 H   0  0  0  0  0  0  0  0  0  0  0  0
   11.6954   -0.5682   25.0504 H   0  0  0  0  0  0  0  0  0  0  0  0
    7.8578   -7.6261   27.1266 H   0  0  0  0  0  0  0  0  0  0  0  0
    6.2773   -7.2358   26.4459 H   0  0  0  0  0  0  0  0  0  0  0  0
    6.6663   -4.8351   26.7223 H   0  0  0  0  0  0  0  0  0  0  0  0
    7.0044   -5.6368   28.2534 H   0  0  0  0  0  0  0  0  0  0  0  0
    7.9946   -7.8119   24.6937 H   0  0  0  0  0  0  0  0  0  0  0  0
    7.2929   -6.2123   24.4668 H   0  0  0  0  0  0  0  0  0  0  0  0
    8.7343   -3.9408   27.6542 H   0  0  0  0  0  0  0  0  0  0  0  0
    9.4243   -5.5632   27.8278 H   0  0  0  0  0  0  0  0  0  0  0  0
   10.0200   -6.8490   25.7011 H   0  0  0  0  0  0  0  0  0  0  0  0
    9.6984   -6.0694   24.1436 H   0  0  0  0  0  0  0  0  0  0  0  0
    9.6778    1.0140   24.6966 H   0  0  0  0  0  0  0  0  0  0  0  0
    9.6316    1.9637   23.2107 H   0  0  0  0  0  0  0  0  0  0  0  0
    8.7136   -1.7499   20.6462 H   0  0  0  0  0  0  0  0  0  0  0  0
    7.4415   -1.4060   21.8540 H   0  0  0  0  0  0  0  0  0  0  0  0
  1  2  1  0  0  0  0
  1  5  2  0  0  0  0
  2  6  2  0  0  0  0
  3  4  2  0  0  0  0
  3 11  1  0  0  0  0
  4 13  1  0  0  0  0
  5 14  1  0  0  0  0
  6 15  1  0  0  0  0
  7  9  2  0  0  0  0
  7 16  1  0  0  0  0
  8 10  1  0  0  0  0
  8 16  2  0  0  0  0
  9 17  1  0  0  0  0
 10 17  2  0  0  0  0
 11 18  2  0  0  0  0
 12 13  2  0  0  0  0
 12 18  1  0  0  0  0
 13 25  1  0  0  0  0
 14 15  2  0  0  0  0
 14 27  1  0  0  0  0
 15 29  1  0  0  0  0
 16 30  1  0  0  0  0
 17 31  1  0  0  0  0
 18 33  1  0  0  0  0
 19 26  1  0  0  0  0
 19 31  1  0  0  0  0
 19 32  2  0  0  0  0
 20 21  1  0  0  0  0
 20 22  1  0  0  0  0
 21 23  1  0  0  0  0
 22 24  1  0  0  0  0
 23 30  1  0  0  0  0
 24 30  1  0  0  0  0
 25 31  1  0  0  0  0
 26 29  1  0  0  0  0
 27 28  2  0  0  0  0
 28 29  1  0  0  0  0
  1 34  1  0  0  0  0
  2 35  1  0  0  0  0
  3 36  1  0  0  0  0
  4 37  1  0  0  0  0
  5 38  1  0  0  0  0
  6 39  1  0  0  0  0
  7 40  1  0  0  0  0
  8 41  1  0  0  0  0
  9 42  1  0  0  0  0
 10 43  1  0  0  0  0
 11 44  1  0  0  0  0
 12 45  1  0  0  0  0
 20 46  1  0  0  0  0
 20 47  1  0  0  0  0
 21 48  1  0  0  0  0
 21 49  1  0  0  0  0
 22 50  1  0  0  0  0
 22 51  1  0  0  0  0
 23 52  1  0  0  0  0
 23 53  1  0  0  0  0
 24 54  1  0  0  0  0
 24 55  1  0  0  0  0
 25 56  1  0  0  0  0
 25 57  1  0  0  0  0
 26 58  1  0  0  0  0
 26 59  1  0  0  0  0
M  END
> <clash_score>
0.7662458510330248

> <docking_score>
-7.856161117553711

> <overlap_score>
1.0207408666610718

$$$$
BENZO_349_1
  -OEChem-08222022413D

 47 50  0     0  0  0  0  0  0999 V2000
   14.3082    0.9431   23.4783 C   0  0  0  0  0  0  0  0  0  0  0  0
   13.6391    0.3091   24.5251 C   0  0  0  0  0  0  0  0  0  0  0  0
   13.5841    1.6096   22.4898 C   0  0  0  0  0  0  0  0  0  0  0  0
    4.0980    2.1130   19.5350 C   0  0  0  0  0  0  0  0  0  0  0  0
    4.2970    1.6690   20.8430 C   0  0  0  0  0  0  0  0  0  0  0  0
   12.2459    0.3415   24.5835 C   0  0  0  0  0  0  0  0  0  0  0  0
   12.1908    1.6420   22.5481 C   0  0  0  0  0  0  0  0  0  0  0  0
    8.3310   -2.7170   25.3430 C   0  0  0  0  0  0  0  0  0  0  0  0
   10.2570   -3.5000   24.1350 C   0  0  0  0  0  0  0  0  0  0  0  0
    4.9400    1.7060   18.5060 C   0  0  0  0  0  0  0  0  0  0  0  0
    5.3360    0.8000   21.1530 C   0  0  0  0  0  0  0  0  0  0  0  0
    8.3510   -1.5420   24.6110 C   0  0  0  0  0  0  0  0  0  0  0  0
   10.2760   -2.3270   23.4020 C   0  0  0  0  0  0  0  0  0  0  0  0
    9.2850   -3.7090   25.1090 C   0  0  0  0  0  0  0  0  0  0  0  0
   11.5217    1.0079   23.5949 C   0  0  0  0  0  0  0  0  0  0  0  0
    5.9810    0.8330   18.8060 C   0  0  0  0  0  0  0  0  0  0  0  0
    6.1600    0.3870   20.1140 C   0  0  0  0  0  0  0  0  0  0  0  0
    9.3300   -1.3350   23.6390 C   0  0  0  0  0  0  0  0  0  0  0  0
    8.9510    0.1280   21.6880 C   0  0  0  0  0  0  0  0  0  0  0  0
    9.2610   -4.9721   25.8916 C   0  0  0  0  0  0  0  0  0  0  0  0
   10.0220    1.0430   23.6570 C   0  0  0  0  0  0  0  0  0  0  0  0
    8.0810   -0.9750   21.0820 C   0  0  0  0  0  0  0  0  0  0  0  0
    6.9440    0.2550   18.0100 N   0  0  0  0  0  0  0  0  0  0  0  0
    7.6830   -0.5170   18.7600 N   0  0  0  0  0  0  0  0  0  0  0  0
    7.2210   -0.4620   20.0350 N   0  0  0  0  0  0  0  0  0  0  0  0
    9.4200   -0.0840   22.9530 N   0  0  0  0  0  0  0  0  0  0  0  0
    9.1870    1.1500   21.0630 O   0  0  0  0  0  0  0  0  0  0  0  0
   15.3932    0.9189   23.4337 H   0  0  0  0  0  0  0  0  0  0  0  0
   14.2029   -0.2090   25.2955 H   0  0  0  0  0  0  0  0  0  0  0  0
   14.1048    2.1043   21.6752 H   0  0  0  0  0  0  0  0  0  0  0  0
    3.2714    2.7873   19.3199 H   0  0  0  0  0  0  0  0  0  0  0  0
    3.6281    2.0093   21.6291 H   0  0  0  0  0  0  0  0  0  0  0  0
   11.7330   -0.1555   25.4027 H   0  0  0  0  0  0  0  0  0  0  0  0
   11.6349    2.1636   21.7735 H   0  0  0  0  0  0  0  0  0  0  0  0
    7.5665   -2.8638   26.1066 H   0  0  0  0  0  0  0  0  0  0  0  0
   11.0137   -4.2652   23.9447 H   0  0  0  0  0  0  0  0  0  0  0  0
    4.7823    2.0669   17.4883 H   0  0  0  0  0  0  0  0  0  0  0  0
    5.4954    0.4562   22.1797 H   0  0  0  0  0  0  0  0  0  0  0  0
    7.5948   -0.7788   24.7997 H   0  0  0  0  0  0  0  0  0  0  0  0
   11.0411   -2.1856   22.6358 H   0  0  0  0  0  0  0  0  0  0  0  0
    8.6398   -5.7223   25.3871 H   0  0  0  0  0  0  0  0  0  0  0  0
   10.2715   -5.3829   26.0145 H   0  0  0  0  0  0  0  0  0  0  0  0
    8.8596   -4.8092   26.9004 H   0  0  0  0  0  0  0  0  0  0  0  0
    9.6778    1.0140   24.6966 H   0  0  0  0  0  0  0  0  0  0  0  0
    9.6316    1.9637   23.2107 H   0  0  0  0  0  0  0  0  0  0  0  0
    8.7066   -1.7479   20.6383 H   0  0  0  0  0  0  0  0  0  0  0  0
    7.4345   -1.4041   21.8461 H   0  0  0  0  0  0  0  0  0  0  0  0
  1  2  1  0  0  0  0
  1  3  2  0  0  0  0
  2  6  2  0  0  0  0
  3  7  1  0  0  0  0
  4  5  1  0  0  0  0
  4 10  2  0  0  0  0
  5 11  2  0  0  0  0
  6 15  1  0  0  0  0
  7 15  2  0  0  0  0
  8 12  2  0  0  0  0
  8 14  1  0  0  0  0
  9 13  1  0  0  0  0
  9 14  2  0  0  0  0
 10 16  1  0  0  0  0
 11 17  1  0  0  0  0
 12 18  1  0  0  0  0
 13 18  2  0  0  0  0
 14 20  1  0  0  0  0
 15 21  1  0  0  0  0
 16 17  2  0  0  0  0
 16 23  1  0  0  0  0
 17 25  1  0  0  0  0
 18 26  1  0  0  0  0
 19 22  1  0  0  0  0
 19 26  1  0  0  0  0
 19 27  2  0  0  0  0
 21 26  1  0  0  0  0
 22 25  1  0  0  0  0
 23 24  2  0  0  0  0
 24 25  1  0  0  0  0
  1 28  1  0  0  0  0
  2 29  1  0  0  0  0
  3 30  1  0  0  0  0
  4 31  1  0  0  0  0
  5 32  1  0  0  0  0
  6 33  1  0  0  0  0
  7 34  1  0  0  0  0
  8 35  1  0  0  0  0
  9 36  1  0  0  0  0
 10 37  1  0  0  0  0
 11 38  1  0  0  0  0
 12 39  1  0  0  0  0
 13 40  1  0  0  0  0
 20 41  1  0  0  0  0
 20 42  1  0  0  0  0
 20 43  1  0  0  0  0
 21 44  1  0  0  0  0
 21 45  1  0  0  0  0
 22 46  1  0  0  0  0
 22 47  1  0  0  0  0
M  END
> <clash_score>
0

> <docking_score>
-9.631927490234375

> <overlap_score>
0.971771776676178

$$$$
BENZO_348_1
  -OEChem-08222022413D

 44 47  0     0  0  0  0  0  0999 V2000
    4.0980    2.1130   19.5350 C   0  0  0  0  0  0  0  0  0  0  0  0
    4.2970    1.6690   20.8430 C   0  0  0  0  0  0  0  0  0  0  0  0
    8.3310   -2.7170   25.3430 C   0  0  0  0  0  0  0  0  0  0  0  0
   10.2570   -3.5000   24.1350 C   0  0  0  0  0  0  0  0  0  0  0  0
    4.9400    1.7060   18.5060 C   0  0  0  0  0  0  0  0  0  0  0  0
    5.3360    0.8000   21.1530 C   0  0  0  0  0  0  0  0  0  0  0  0
    8.3510   -1.5420   24.6110 C   0  0  0  0  0  0  0  0  0  0  0  0
   10.2760   -2.3270   23.4020 C   0  0  0  0  0  0  0  0  0  0  0  0
   12.2675    1.0332   22.3812 C   0  0  0  0  0  0  0  0  0  0  0  0
   13.6257    0.9906   22.6074 C   0  0  0  0  0  0  0  0  0  0  0  0
   12.3384    0.9467   24.7028 C   0  0  0  0  0  0  0  0  0  0  0  0
    9.2850   -3.7090   25.1090 C   0  0  0  0  0  0  0  0  0  0  0  0
   11.5217    1.0079   23.5949 C   0  0  0  0  0  0  0  0  0  0  0  0
    5.9810    0.8330   18.8060 C   0  0  0  0  0  0  0  0  0  0  0  0
    6.1600    0.3870   20.1140 C   0  0  0  0  0  0  0  0  0  0  0  0
    9.3300   -1.3350   23.6390 C   0  0  0  0  0  0  0  0  0  0  0  0
    8.9510    0.1280   21.6880 C   0  0  0  0  0  0  0  0  0  0  0  0
    9.2610   -4.9721   25.8916 C   0  0  0  0  0  0  0  0  0  0  0  0
   10.0220    1.0430   23.6570 C   0  0  0  0  0  0  0  0  0  0  0  0
    8.0810   -0.9750   21.0820 C   0  0  0  0  0  0  0  0  0  0  0  0
    6.9440    0.2550   18.0100 N   0  0  0  0  0  0  0  0  0  0  0  0
    7.6830   -0.5170   18.7600 N   0  0  0  0  0  0  0  0  0  0  0  0
    7.2210   -0.4620   20.0350 N   0  0  0  0  0  0  0  0  0  0  0  0
    9.4200   -0.0840   22.9530 N   0  0  0  0  0  0  0  0  0  0  0  0
    9.1870    1.1500   21.0630 O   0  0  0  0  0  0  0  0  0  0  0  0
   13.9969    0.9202   24.2776 S   0  0  0  0  0  0  0  0  0  0  0  0
    3.2714    2.7873   19.3199 H   0  0  0  0  0  0  0  0  0  0  0  0
    3.6281    2.0093   21.6291 H   0  0  0  0  0  0  0  0  0  0  0  0
    7.5665   -2.8638   26.1066 H   0  0  0  0  0  0  0  0  0  0  0  0
   11.0137   -4.2652   23.9447 H   0  0  0  0  0  0  0  0  0  0  0  0
    4.7823    2.0669   17.4883 H   0  0  0  0  0  0  0  0  0  0  0  0
    5.4954    0.4562   22.1797 H   0  0  0  0  0  0  0  0  0  0  0  0
    7.5948   -0.7788   24.7997 H   0  0  0  0  0  0  0  0  0  0  0  0
   11.0411   -2.1856   22.6358 H   0  0  0  0  0  0  0  0  0  0  0  0
   11.8338    1.0798   21.3902 H   0  0  0  0  0  0  0  0  0  0  0  0
   14.4176    0.9966   21.8719 H   0  0  0  0  0  0  0  0  0  0  0  0
   12.0446    0.9149   25.7428 H   0  0  0  0  0  0  0  0  0  0  0  0
    8.6398   -5.7223   25.3871 H   0  0  0  0  0  0  0  0  0  0  0  0
   10.2715   -5.3829   26.0145 H   0  0  0  0  0  0  0  0  0  0  0  0
    8.8596   -4.8092   26.9004 H   0  0  0  0  0  0  0  0  0  0  0  0
    9.6778    1.0140   24.6966 H   0  0  0  0  0  0  0  0  0  0  0  0
    9.6316    1.9637   23.2107 H   0  0  0  0  0  0  0  0  0  0  0  0
    8.7066   -1.7479   20.6383 H   0  0  0  0  0  0  0  0  0  0  0  0
    7.4345   -1.4041   21.8461 H   0  0  0  0  0  0  0  0  0  0  0  0
  1  2  1  0  0  0  0
  1  5  2  0  0  0  0
  2  6  2  0  0  0  0
  3  7  2  0  0  0  0
  3 12  1  0  0  0  0
  4  8  1  0  0  0  0
  4 12  2  0  0  0  0
  5 14  1  0  0  0  0
  6 15  1  0  0  0  0
  7 16  1  0  0  0  0
  8 16  2  0  0  0  0
  9 10  2  0  0  0  0
  9 13  1  0  0  0  0
 10 26  1  0  0  0  0
 11 13  2  0  0  0  0
 11 26  1  0  0  0  0
 12 18  1  0  0  0  0
 13 19  1  0  0  0  0
 14 15  2  0  0  0  0
 14 21  1  0  0  0  0
 15 23  1  0  0  0  0
 16 24  1  0  0  0  0
 17 20  1  0  0  0  0
 17 24  1  0  0  0  0
 17 25  2  0  0  0  0
 19 24  1  0  0  0  0
 20 23  1  0  0  0  0
 21 22  2  0  0  0  0
 22 23  1  0  0  0  0
  1 27  1  0  0  0  0
  2 28  1  0  0  0  0
  3 29  1  0  0  0  0
  4 30  1  0  0  0  0
  5 31  1  0  0  0  0
  6 32  1  0  0  0  0
  7 33  1  0  0  0  0
  8 34  1  0  0  0  0
  9 35  1  0  0  0  0
 10 36  1  0  0  0  0
 11 37  1  0  0  0  0
 18 38  1  0  0  0  0
 18 39  1  0  0  0  0
 18 40  1  0  0  0  0
 19 41  1  0  0  0  0
 19 42  1  0  0  0  0
 20 43  1  0  0  0  0
 20 44  1  0  0  0  0
M  END
> <clash_score>
0

> <docking_score>
-9.878124237060547

> <overlap_score>
0.9457805752754211

$$$$
BENZO_350_1
  -OEChem-08222022413D

 47 50  0     0  0  0  0  0  0999 V2000
    4.0980    2.1130   19.5350 C   0  0  0  0  0  0  0  0  0  0  0  0
    4.2970    1.6690   20.8430 C   0  0  0  0  0  0  0  0  0  0  0  0
   13.5977    1.8457   22.6865 C   0  0  0  0  0  0  0  0  0  0  0  0
   12.2044    1.8769   22.7438 C   0  0  0  0  0  0  0  0  0  0  0  0
    8.3310   -2.7170   25.3430 C   0  0  0  0  0  0  0  0  0  0  0  0
   10.2570   -3.5000   24.1350 C   0  0  0  0  0  0  0  0  0  0  0  0
    4.9400    1.7060   18.5060 C   0  0  0  0  0  0  0  0  0  0  0  0
    5.3360    0.8000   21.1530 C   0  0  0  0  0  0  0  0  0  0  0  0
    8.3510   -1.5420   24.6110 C   0  0  0  0  0  0  0  0  0  0  0  0
   10.2760   -2.3270   23.4020 C   0  0  0  0  0  0  0  0  0  0  0  0
   14.3084    0.9454   23.4803 C   0  0  0  0  0  0  0  0  0  0  0  0
   12.2323    0.1076   24.3888 C   0  0  0  0  0  0  0  0  0  0  0  0
    9.2850   -3.7090   25.1090 C   0  0  0  0  0  0  0  0  0  0  0  0
   11.5217    1.0079   23.5949 C   0  0  0  0  0  0  0  0  0  0  0  0
    5.9810    0.8330   18.8060 C   0  0  0  0  0  0  0  0  0  0  0  0
    6.1600    0.3870   20.1140 C   0  0  0  0  0  0  0  0  0  0  0  0
    9.3300   -1.3350   23.6390 C   0  0  0  0  0  0  0  0  0  0  0  0
   13.6257    0.0764   24.3314 C   0  0  0  0  0  0  0  0  0  0  0  0
    8.9510    0.1280   21.6880 C   0  0  0  0  0  0  0  0  0  0  0  0
    9.2610   -4.9721   25.8916 C   0  0  0  0  0  0  0  0  0  0  0  0
   10.0220    1.0430   23.6570 C   0  0  0  0  0  0  0  0  0  0  0  0
    8.0810   -0.9750   21.0820 C   0  0  0  0  0  0  0  0  0  0  0  0
    6.9440    0.2550   18.0100 N   0  0  0  0  0  0  0  0  0  0  0  0
    7.6830   -0.5170   18.7600 N   0  0  0  0  0  0  0  0  0  0  0  0
    7.2210   -0.4620   20.0350 N   0  0  0  0  0  0  0  0  0  0  0  0
    9.4200   -0.0840   22.9530 N   0  0  0  0  0  0  0  0  0  0  0  0
    9.1870    1.1500   21.0630 O   0  0  0  0  0  0  0  0  0  0  0  0
   14.5031   -1.0334   25.3114 Cl  0  0  0  0  0  0  0  0  0  0  0  0
    3.2714    2.7873   19.3199 H   0  0  0  0  0  0  0  0  0  0  0  0
    3.6281    2.0093   21.6291 H   0  0  0  0  0  0  0  0  0  0  0  0
   14.1289    2.5226   22.0237 H   0  0  0  0  0  0  0  0  0  0  0  0
   11.6588    2.5818   22.1218 H   0  0  0  0  0  0  0  0  0  0  0  0
    7.5665   -2.8638   26.1066 H   0  0  0  0  0  0  0  0  0  0  0  0
   11.0137   -4.2652   23.9447 H   0  0  0  0  0  0  0  0  0  0  0  0
    4.7823    2.0669   17.4883 H   0  0  0  0  0  0  0  0  0  0  0  0
    5.4954    0.4562   22.1797 H   0  0  0  0  0  0  0  0  0  0  0  0
    7.5948   -0.7788   24.7997 H   0  0  0  0  0  0  0  0  0  0  0  0
   11.0411   -2.1856   22.6358 H   0  0  0  0  0  0  0  0  0  0  0  0
   15.3941    0.9323   23.4255 H   0  0  0  0  0  0  0  0  0  0  0  0
   11.6954   -0.5682   25.0504 H   0  0  0  0  0  0  0  0  0  0  0  0
    8.6398   -5.7223   25.3871 H   0  0  0  0  0  0  0  0  0  0  0  0
   10.2715   -5.3829   26.0145 H   0  0  0  0  0  0  0  0  0  0  0  0
    8.8596   -4.8092   26.9004 H   0  0  0  0  0  0  0  0  0  0  0  0
    9.6778    1.0140   24.6966 H   0  0  0  0  0  0  0  0  0  0  0  0
    9.6316    1.9637   23.2107 H   0  0  0  0  0  0  0  0  0  0  0  0
    8.7066   -1.7479   20.6383 H   0  0  0  0  0  0  0  0  0  0  0  0
    7.4345   -1.4041   21.8461 H   0  0  0  0  0  0  0  0  0  0  0  0
  1  2  1  0  0  0  0
  1  7  2  0  0  0  0
  2  8  2  0  0  0  0
  3  4  2  0  0  0  0
  3 11  1  0  0  0  0
  4 14  1  0  0  0  0
  5  9  2  0  0  0  0
  5 13  1  0  0  0  0
  6 10  1  0  0  0  0
  6 13  2  0  0  0  0
  7 15  1  0  0  0  0
  8 16  1  0  0  0  0
  9 17  1  0  0  0  0
 10 17  2  0  0  0  0
 11 18  2  0  0  0  0
 12 14  2  0  0  0  0
 12 18  1  0  0  0  0
 13 20  1  0  0  0  0
 14 21  1  0  0  0  0
 15 16  2  0  0  0  0
 15 23  1  0  0  0  0
 16 25  1  0  0  0  0
 17 26  1  0  0  0  0
 18 28  1  0  0  0  0
 19 22  1  0  0  0  0
 19 26  1  0  0  0  0
 19 27  2  0  0  0  0
 21 26  1  0  0  0  0
 22 25  1  0  0  0  0
 23 24  2  0  0  0  0
 24 25  1  0  0  0  0
  1 29  1  0  0  0  0
  2 30  1  0  0  0  0
  3 31  1  0  0  0  0
  4 32  1  0  0  0  0
  5 33  1  0  0  0  0
  6 34  1  0  0  0  0
  7 35  1  0  0  0  0
  8 36  1  0  0  0  0
  9 37  1  0  0  0  0
 10 38  1  0  0  0  0
 11 39  1  0  0  0  0
 12 40  1  0  0  0  0
 20 41  1  0  0  0  0
 20 42  1  0  0  0  0
 20 43  1  0  0  0  0
 21 44  1  0  0  0  0
 21 45  1  0  0  0  0
 22 46  1  0  0  0  0
 22 47  1  0  0  0  0
M  END
> <clash_score>
0.7662461603438702

> <docking_score>
-8.813823699951172

> <overlap_score>
0.9770406484603882

$$$$
BENZO_351_1
  -OEChem-08222022413D

 47 50  0     0  0  0  0  0  0999 V2000
    4.0980    2.1130   19.5350 C   0  0  0  0  0  0  0  0  0  0  0  0
    4.2970    1.6690   20.8430 C   0  0  0  0  0  0  0  0  0  0  0  0
    8.3310   -2.7170   25.3430 C   0  0  0  0  0  0  0  0  0  0  0  0
   10.2570   -3.5000   24.1350 C   0  0  0  0  0  0  0  0  0  0  0  0
    4.9400    1.7060   18.5060 C   0  0  0  0  0  0  0  0  0  0  0  0
    5.3360    0.8000   21.1530 C   0  0  0  0  0  0  0  0  0  0  0  0
    8.3510   -1.5420   24.6110 C   0  0  0  0  0  0  0  0  0  0  0  0
   10.2760   -2.3270   23.4020 C   0  0  0  0  0  0  0  0  0  0  0  0
   12.4295    0.9466   24.6692 C   0  0  0  0  0  0  0  0  0  0  0  0
   12.3161    1.0259   22.4747 C   0  0  0  0  0  0  0  0  0  0  0  0
    9.2850   -3.7090   25.1090 C   0  0  0  0  0  0  0  0  0  0  0  0
   11.5217    1.0079   23.5949 C   0  0  0  0  0  0  0  0  0  0  0  0
    5.9810    0.8330   18.8060 C   0  0  0  0  0  0  0  0  0  0  0  0
    6.1600    0.3870   20.1140 C   0  0  0  0  0  0  0  0  0  0  0  0
    9.3300   -1.3350   23.6390 C   0  0  0  0  0  0  0  0  0  0  0  0
    8.9510    0.1280   21.6880 C   0  0  0  0  0  0  0  0  0  0  0  0
    9.2610   -4.9721   25.8916 C   0  0  0  0  0  0  0  0  0  0  0  0
   14.7958    0.9722   22.1181 C   0  0  0  0  0  0  0  0  0  0  0  0
   10.0220    1.0430   23.6570 C   0  0  0  0  0  0  0  0  0  0  0  0
    8.0810   -0.9750   21.0820 C   0  0  0  0  0  0  0  0  0  0  0  0
   13.7032    0.9267   24.2674 N   0  0  0  0  0  0  0  0  0  0  0  0
    6.9440    0.2550   18.0100 N   0  0  0  0  0  0  0  0  0  0  0  0
    7.6830   -0.5170   18.7600 N   0  0  0  0  0  0  0  0  0  0  0  0
   13.6014    0.9758   22.9283 N   0  0  0  0  0  0  0  0  0  0  0  0
    7.2210   -0.4620   20.0350 N   0  0  0  0  0  0  0  0  0  0  0  0
    9.4200   -0.0840   22.9530 N   0  0  0  0  0  0  0  0  0  0  0  0
    9.1870    1.1500   21.0630 O   0  0  0  0  0  0  0  0  0  0  0  0
    3.2714    2.7873   19.3199 H   0  0  0  0  0  0  0  0  0  0  0  0
    3.6281    2.0093   21.6291 H   0  0  0  0  0  0  0  0  0  0  0  0
    7.5665   -2.8638   26.1066 H   0  0  0  0  0  0  0  0  0  0  0  0
   11.0137   -4.2652   23.9447 H   0  0  0  0  0  0  0  0  0  0  0  0
    4.7823    2.0669   17.4883 H   0  0  0  0  0  0  0  0  0  0  0  0
    5.4954    0.4562   22.1797 H   0  0  0  0  0  0  0  0  0  0  0  0
    7.5948   -0.7788   24.7997 H   0  0  0  0  0  0  0  0  0  0  0  0
   11.0411   -2.1856   22.6358 H   0  0  0  0  0  0  0  0  0  0  0  0
   12.2184    0.9145   25.7287 H   0  0  0  0  0  0  0  0  0  0  0  0
   12.0821    1.0677   21.4195 H   0  0  0  0  0  0  0  0  0  0  0  0
    8.6398   -5.7223   25.3871 H   0  0  0  0  0  0  0  0  0  0  0  0
   10.2715   -5.3829   26.0145 H   0  0  0  0  0  0  0  0  0  0  0  0
    8.8596   -4.8092   26.9004 H   0  0  0  0  0  0  0  0  0  0  0  0
   15.1026    2.0102   21.9649 H   0  0  0  0  0  0  0  0  0  0  0  0
   15.5826    0.4128   22.6318 H   0  0  0  0  0  0  0  0  0  0  0  0
   14.5811    0.4906   21.1600 H   0  0  0  0  0  0  0  0  0  0  0  0
    9.6778    1.0140   24.6966 H   0  0  0  0  0  0  0  0  0  0  0  0
    9.6316    1.9637   23.2107 H   0  0  0  0  0  0  0  0  0  0  0  0
    8.7066   -1.7479   20.6383 H   0  0  0  0  0  0  0  0  0  0  0  0
    7.4345   -1.4041   21.8461 H   0  0  0  0  0  0  0  0  0  0  0  0
  1  2  1  0  0  0  0
  1  5  2  0  0  0  0
  2  6  2  0  0  0  0
  3  7  2  0  0  0  0
  3 11  1  0  0  0  0
  4  8  1  0  0  0  0
  4 11  2  0  0  0  0
  5 13  1  0  0  0  0
  6 14  1  0  0  0  0
  7 15  1  0  0  0  0
  8 15  2  0  0  0  0
  9 12  1  0  0  0  0
  9 21  2  0  0  0  0
 10 12  2  0  0  0  0
 10 24  1  0  0  0  0
 11 17  1  0  0  0  0
 12 19  1  0  0  0  0
 13 14  2  0  0  0  0
 13 22  1  0  0  0  0
 14 25  1  0  0  0  0
 15 26  1  0  0  0  0
 16 20  1  0  0  0  0
 16 26  1  0  0  0  0
 16 27  2  0  0  0  0
 18 24  1  0  0  0  0
 19 26  1  0  0  0  0
 20 25  1  0  0  0  0
 21 24  1  0  0  0  0
 22 23  2  0  0  0  0
 23 25  1  0  0  0  0
  1 28  1  0  0  0  0
  2 29  1  0  0  0  0
  3 30  1  0  0  0  0
  4 31  1  0  0  0  0
  5 32  1  0  0  0  0
  6 33  1  0  0  0  0
  7 34  1  0  0  0  0
  8 35  1  0  0  0  0
  9 36  1  0  0  0  0
 10 37  1  0  0  0  0
 17 38  1  0  0  0  0
 17 39  1  0  0  0  0
 17 40  1  0  0  0  0
 18 41  1  0  0  0  0
 18 42  1  0  0  0  0
 18 43  1  0  0  0  0
 19 44  1  0  0  0  0
 19 45  1  0  0  0  0
 20 46  1  0  0  0  0
 20 47  1  0  0  0  0
M  END
> <clash_score>
0

> <docking_score>
-9.573976516723633

> <overlap_score>
0.962556004524231

$$$$
BENZO_353_1
  -OEChem-08222022413D

 48 51  0     0  0  0  0  0  0999 V2000
   14.3082    0.9431   23.4783 C   0  0  0  0  0  0  0  0  0  0  0  0
   13.6391    0.3091   24.5251 C   0  0  0  0  0  0  0  0  0  0  0  0
   13.5841    1.6096   22.4898 C   0  0  0  0  0  0  0  0  0  0  0  0
    4.0980    2.1130   19.5350 C   0  0  0  0  0  0  0  0  0  0  0  0
    4.2970    1.6690   20.8430 C   0  0  0  0  0  0  0  0  0  0  0  0
   12.2459    0.3415   24.5835 C   0  0  0  0  0  0  0  0  0  0  0  0
   12.1908    1.6420   22.5481 C   0  0  0  0  0  0  0  0  0  0  0  0
    4.9400    1.7060   18.5060 C   0  0  0  0  0  0  0  0  0  0  0  0
    5.3360    0.8000   21.1530 C   0  0  0  0  0  0  0  0  0  0  0  0
    8.3510   -1.5420   24.6110 C   0  0  0  0  0  0  0  0  0  0  0  0
   10.2760   -2.3270   23.4020 C   0  0  0  0  0  0  0  0  0  0  0  0
    8.3310   -2.7170   25.3430 C   0  0  0  0  0  0  0  0  0  0  0  0
   10.2570   -3.5000   24.1350 C   0  0  0  0  0  0  0  0  0  0  0  0
   11.5217    1.0079   23.5949 C   0  0  0  0  0  0  0  0  0  0  0  0
    5.9810    0.8330   18.8060 C   0  0  0  0  0  0  0  0  0  0  0  0
    6.1600    0.3870   20.1140 C   0  0  0  0  0  0  0  0  0  0  0  0
    9.3300   -1.3350   23.6390 C   0  0  0  0  0  0  0  0  0  0  0  0
    9.2850   -3.7090   25.1090 C   0  0  0  0  0  0  0  0  0  0  0  0
    8.9510    0.1280   21.6880 C   0  0  0  0  0  0  0  0  0  0  0  0
    8.2346   -4.9977   26.8024 C   0  0  0  0  0  0  0  0  0  0  0  0
   10.0220    1.0430   23.6570 C   0  0  0  0  0  0  0  0  0  0  0  0
    8.0810   -0.9750   21.0820 C   0  0  0  0  0  0  0  0  0  0  0  0
    6.9440    0.2550   18.0100 N   0  0  0  0  0  0  0  0  0  0  0  0
    7.6830   -0.5170   18.7600 N   0  0  0  0  0  0  0  0  0  0  0  0
    7.2210   -0.4620   20.0350 N   0  0  0  0  0  0  0  0  0  0  0  0
    9.4200   -0.0840   22.9530 N   0  0  0  0  0  0  0  0  0  0  0  0
    9.1870    1.1500   21.0630 O   0  0  0  0  0  0  0  0  0  0  0  0
    9.2631   -4.8614   25.8229 O   0  0  0  0  0  0  0  0  0  0  0  0
   15.3932    0.9189   23.4337 H   0  0  0  0  0  0  0  0  0  0  0  0
   14.2029   -0.2090   25.2955 H   0  0  0  0  0  0  0  0  0  0  0  0
   14.1048    2.1043   21.6752 H   0  0  0  0  0  0  0  0  0  0  0  0
    3.2714    2.7873   19.3199 H   0  0  0  0  0  0  0  0  0  0  0  0
    3.6281    2.0093   21.6291 H   0  0  0  0  0  0  0  0  0  0  0  0
   11.7330   -0.1555   25.4027 H   0  0  0  0  0  0  0  0  0  0  0  0
   11.6349    2.1636   21.7735 H   0  0  0  0  0  0  0  0  0  0  0  0
    4.7823    2.0669   17.4883 H   0  0  0  0  0  0  0  0  0  0  0  0
    5.4954    0.4562   22.1797 H   0  0  0  0  0  0  0  0  0  0  0  0
    7.5951   -0.7786   24.8000 H   0  0  0  0  0  0  0  0  0  0  0  0
   11.0406   -2.1866   22.6351 H   0  0  0  0  0  0  0  0  0  0  0  0
    7.5664   -2.8674   26.1055 H   0  0  0  0  0  0  0  0  0  0  0  0
   11.0119   -4.2671   23.9461 H   0  0  0  0  0  0  0  0  0  0  0  0
    8.3310   -5.9654   27.3007 H   0  0  0  0  0  0  0  0  0  0  0  0
    7.2574   -4.9205   26.3190 H   0  0  0  0  0  0  0  0  0  0  0  0
    8.3382   -4.1986   27.5402 H   0  0  0  0  0  0  0  0  0  0  0  0
    9.6778    1.0140   24.6966 H   0  0  0  0  0  0  0  0  0  0  0  0
    9.6316    1.9637   23.2107 H   0  0  0  0  0  0  0  0  0  0  0  0
    8.7066   -1.7479   20.6383 H   0  0  0  0  0  0  0  0  0  0  0  0
    7.4345   -1.4041   21.8461 H   0  0  0  0  0  0  0  0  0  0  0  0
  1  2  1  0  0  0  0
  1  3  2  0  0  0  0
  2  6  2  0  0  0  0
  3  7  1  0  0  0  0
  4  5  1  0  0  0  0
  4  8  2  0  0  0  0
  5  9  2  0  0  0  0
  6 14  1  0  0  0  0
  7 14  2  0  0  0  0
  8 15  1  0  0  0  0
  9 16  1  0  0  0  0
 10 12  2  0  0  0  0
 10 17  1  0  0  0  0
 11 13  1  0  0  0  0
 11 17  2  0  0  0  0
 12 18  1  0  0  0  0
 13 18  2  0  0  0  0
 14 21  1  0  0  0  0
 15 16  2  0  0  0  0
 15 23  1  0  0  0  0
 16 25  1  0  0  0  0
 17 26  1  0  0  0  0
 18 28  1  0  0  0  0
 19 22  1  0  0  0  0
 19 26  1  0  0  0  0
 19 27  2  0  0  0  0
 20 28  1  0  0  0  0
 21 26  1  0  0  0  0
 22 25  1  0  0  0  0
 23 24  2  0  0  0  0
 24 25  1  0  0  0  0
  1 29  1  0  0  0  0
  2 30  1  0  0  0  0
  3 31  1  0  0  0  0
  4 32  1  0  0  0  0
  5 33  1  0  0  0  0
  6 34  1  0  0  0  0
  7 35  1  0  0  0  0
  8 36  1  0  0  0  0
  9 37  1  0  0  0  0
 10 38  1  0  0  0  0
 11 39  1  0  0  0  0
 12 40  1  0  0  0  0
 13 41  1  0  0  0  0
 20 42  1  0  0  0  0
 20 43  1  0  0  0  0
 20 44  1  0  0  0  0
 21 45  1  0  0  0  0
 21 46  1  0  0  0  0
 22 47  1  0  0  0  0
 22 48  1  0  0  0  0
M  END
> <clash_score>
0

> <docking_score>
-9.340987205505371

> <overlap_score>
0.9956544637680054

$$$$
BENZO_352_1
  -OEChem-08222022423D

 45 48  0     0  0  0  0  0  0999 V2000
    4.0980    2.1130   19.5350 C   0  0  0  0  0  0  0  0  0  0  0  0
    4.2970    1.6690   20.8430 C   0  0  0  0  0  0  0  0  0  0  0  0
    4.9400    1.7060   18.5060 C   0  0  0  0  0  0  0  0  0  0  0  0
    5.3360    0.8000   21.1530 C   0  0  0  0  0  0  0  0  0  0  0  0
    8.3510   -1.5420   24.6110 C   0  0  0  0  0  0  0  0  0  0  0  0
   10.2760   -2.3270   23.4020 C   0  0  0  0  0  0  0  0  0  0  0  0
    8.3310   -2.7170   25.3430 C   0  0  0  0  0  0  0  0  0  0  0  0
   10.2570   -3.5000   24.1350 C   0  0  0  0  0  0  0  0  0  0  0  0
   12.2675    1.0332   22.3812 C   0  0  0  0  0  0  0  0  0  0  0  0
   13.6257    0.9906   22.6074 C   0  0  0  0  0  0  0  0  0  0  0  0
   12.3384    0.9467   24.7028 C   0  0  0  0  0  0  0  0  0  0  0  0
   11.5217    1.0079   23.5949 C   0  0  0  0  0  0  0  0  0  0  0  0
    5.9810    0.8330   18.8060 C   0  0  0  0  0  0  0  0  0  0  0  0
    6.1600    0.3870   20.1140 C   0  0  0  0  0  0  0  0  0  0  0  0
    9.3300   -1.3350   23.6390 C   0  0  0  0  0  0  0  0  0  0  0  0
    9.2850   -3.7090   25.1090 C   0  0  0  0  0  0  0  0  0  0  0  0
    8.9510    0.1280   21.6880 C   0  0  0  0  0  0  0  0  0  0  0  0
    8.2346   -4.9977   26.8024 C   0  0  0  0  0  0  0  0  0  0  0  0
   10.0220    1.0430   23.6570 C   0  0  0  0  0  0  0  0  0  0  0  0
    8.0810   -0.9750   21.0820 C   0  0  0  0  0  0  0  0  0  0  0  0
    6.9440    0.2550   18.0100 N   0  0  0  0  0  0  0  0  0  0  0  0
    7.6830   -0.5170   18.7600 N   0  0  0  0  0  0  0  0  0  0  0  0
    7.2210   -0.4620   20.0350 N   0  0  0  0  0  0  0  0  0  0  0  0
    9.4200   -0.0840   22.9530 N   0  0  0  0  0  0  0  0  0  0  0  0
    9.1870    1.1500   21.0630 O   0  0  0  0  0  0  0  0  0  0  0  0
    9.2631   -4.8614   25.8229 O   0  0  0  0  0  0  0  0  0  0  0  0
   13.9969    0.9202   24.2776 S   0  0  0  0  0  0  0  0  0  0  0  0
    3.2714    2.7873   19.3199 H   0  0  0  0  0  0  0  0  0  0  0  0
    3.6281    2.0093   21.6291 H   0  0  0  0  0  0  0  0  0  0  0  0
    4.7823    2.0669   17.4883 H   0  0  0  0  0  0  0  0  0  0  0  0
    5.4954    0.4562   22.1797 H   0  0  0  0  0  0  0  0  0  0  0  0
    7.5951   -0.7786   24.8000 H   0  0  0  0  0  0  0  0  0  0  0  0
   11.0406   -2.1866   22.6351 H   0  0  0  0  0  0  0  0  0  0  0  0
    7.5664   -2.8674   26.1055 H   0  0  0  0  0  0  0  0  0  0  0  0
   11.0119   -4.2671   23.9461 H   0  0  0  0  0  0  0  0  0  0  0  0
   11.8338    1.0798   21.3902 H   0  0  0  0  0  0  0  0  0  0  0  0
   14.4176    0.9966   21.8719 H   0  0  0  0  0  0  0  0  0  0  0  0
   12.0446    0.9149   25.7428 H   0  0  0  0  0  0  0  0  0  0  0  0
    8.3310   -5.9654   27.3007 H   0  0  0  0  0  0  0  0  0  0  0  0
    7.2574   -4.9205   26.3190 H   0  0  0  0  0  0  0  0  0  0  0  0
    8.3382   -4.1986   27.5402 H   0  0  0  0  0  0  0  0  0  0  0  0
    9.6778    1.0140   24.6966 H   0  0  0  0  0  0  0  0  0  0  0  0
    9.6316    1.9637   23.2107 H   0  0  0  0  0  0  0  0  0  0  0  0
    8.7066   -1.7479   20.6383 H   0  0  0  0  0  0  0  0  0  0  0  0
    7.4345   -1.4041   21.8461 H   0  0  0  0  0  0  0  0  0  0  0  0
  1  2  1  0  0  0  0
  1  3  2  0  0  0  0
  2  4  2  0  0  0  0
  3 13  1  0  0  0  0
  4 14  1  0  0  0  0
  5  7  2  0  0  0  0
  5 15  1  0  0  0  0
  6  8  1  0  0  0  0
  6 15  2  0  0  0  0
  7 16  1  0  0  0  0
  8 16  2  0  0  0  0
  9 10  2  0  0  0  0
  9 12  1  0  0  0  0
 10 27  1  0  0  0  0
 11 12  2  0  0  0  0
 11 27  1  0  0  0  0
 12 19  1  0  0  0  0
 13 14  2  0  0  0  0
 13 21  1  0  0  0  0
 14 23  1  0  0  0  0
 15 24  1  0  0  0  0
 16 26  1  0  0  0  0
 17 20  1  0  0  0  0
 17 24  1  0  0  0  0
 17 25  2  0  0  0  0
 18 26  1  0  0  0  0
 19 24  1  0  0  0  0
 20 23  1  0  0  0  0
 21 22  2  0  0  0  0
 22 23  1  0  0  0  0
  1 28  1  0  0  0  0
  2 29  1  0  0  0  0
  3 30  1  0  0  0  0
  4 31  1  0  0  0  0
  5 32  1  0  0  0  0
  6 33  1  0  0  0  0
  7 34  1  0  0  0  0
  8 35  1  0  0  0  0
  9 36  1  0  0  0  0
 10 37  1  0  0  0  0
 11 38  1  0  0  0  0
 18 39  1  0  0  0  0
 18 40  1  0  0  0  0
 18 41  1  0  0  0  0
 19 42  1  0  0  0  0
 19 43  1  0  0  0  0
 20 44  1  0  0  0  0
 20 45  1  0  0  0  0
M  END
> <clash_score>
0

> <docking_score>
-9.587183952331543

> <overlap_score>
0.9697703123092651

$$$$
BENZO_355_1
  -OEChem-08222022423D

 48 51  0     0  0  0  0  0  0999 V2000
    4.0980    2.1130   19.5350 C   0  0  0  0  0  0  0  0  0  0  0  0
    4.2970    1.6690   20.8430 C   0  0  0  0  0  0  0  0  0  0  0  0
    4.9400    1.7060   18.5060 C   0  0  0  0  0  0  0  0  0  0  0  0
    5.3360    0.8000   21.1530 C   0  0  0  0  0  0  0  0  0  0  0  0
    8.3510   -1.5420   24.6110 C   0  0  0  0  0  0  0  0  0  0  0  0
   10.2760   -2.3270   23.4020 C   0  0  0  0  0  0  0  0  0  0  0  0
    8.3310   -2.7170   25.3430 C   0  0  0  0  0  0  0  0  0  0  0  0
   10.2570   -3.5000   24.1350 C   0  0  0  0  0  0  0  0  0  0  0  0
   12.4359    1.7439   24.3724 C   0  0  0  0  0  0  0  0  0  0  0  0
   12.3100    0.2469   22.7668 C   0  0  0  0  0  0  0  0  0  0  0  0
   11.5217    1.0079   23.5949 C   0  0  0  0  0  0  0  0  0  0  0  0
    5.9810    0.8330   18.8060 C   0  0  0  0  0  0  0  0  0  0  0  0
    6.1600    0.3870   20.1140 C   0  0  0  0  0  0  0  0  0  0  0  0
    9.3300   -1.3350   23.6390 C   0  0  0  0  0  0  0  0  0  0  0  0
    9.2850   -3.7090   25.1090 C   0  0  0  0  0  0  0  0  0  0  0  0
    8.9510    0.1280   21.6880 C   0  0  0  0  0  0  0  0  0  0  0  0
   14.7884    0.0124   22.4815 C   0  0  0  0  0  0  0  0  0  0  0  0
    8.2346   -4.9977   26.8024 C   0  0  0  0  0  0  0  0  0  0  0  0
   10.0220    1.0430   23.6570 C   0  0  0  0  0  0  0  0  0  0  0  0
    8.0810   -0.9750   21.0820 C   0  0  0  0  0  0  0  0  0  0  0  0
   13.7076    1.4745   24.0657 N   0  0  0  0  0  0  0  0  0  0  0  0
    6.9440    0.2550   18.0100 N   0  0  0  0  0  0  0  0  0  0  0  0
    7.6830   -0.5170   18.7600 N   0  0  0  0  0  0  0  0  0  0  0  0
   13.5982    0.5607   23.0864 N   0  0  0  0  0  0  0  0  0  0  0  0
    7.2210   -0.4620   20.0350 N   0  0  0  0  0  0  0  0  0  0  0  0
    9.4200   -0.0840   22.9530 N   0  0  0  0  0  0  0  0  0  0  0  0
    9.1870    1.1500   21.0630 O   0  0  0  0  0  0  0  0  0  0  0  0
    9.2631   -4.8614   25.8229 O   0  0  0  0  0  0  0  0  0  0  0  0
    3.2714    2.7873   19.3199 H   0  0  0  0  0  0  0  0  0  0  0  0
    3.6281    2.0093   21.6291 H   0  0  0  0  0  0  0  0  0  0  0  0
    4.7823    2.0669   17.4883 H   0  0  0  0  0  0  0  0  0  0  0  0
    5.4954    0.4562   22.1797 H   0  0  0  0  0  0  0  0  0  0  0  0
    7.5951   -0.7786   24.8000 H   0  0  0  0  0  0  0  0  0  0  0  0
   11.0406   -2.1866   22.6351 H   0  0  0  0  0  0  0  0  0  0  0  0
    7.5664   -2.8674   26.1055 H   0  0  0  0  0  0  0  0  0  0  0  0
   11.0119   -4.2671   23.9461 H   0  0  0  0  0  0  0  0  0  0  0  0
   12.2308    2.4652   25.1508 H   0  0  0  0  0  0  0  0  0  0  0  0
   12.0700   -0.4744   21.9974 H   0  0  0  0  0  0  0  0  0  0  0  0
   15.0569    0.6453   21.6315 H   0  0  0  0  0  0  0  0  0  0  0  0
   15.5971   -0.0026   23.2174 H   0  0  0  0  0  0  0  0  0  0  0  0
   14.5870   -1.0100   22.1498 H   0  0  0  0  0  0  0  0  0  0  0  0
    8.3310   -5.9654   27.3007 H   0  0  0  0  0  0  0  0  0  0  0  0
    7.2574   -4.9205   26.3190 H   0  0  0  0  0  0  0  0  0  0  0  0
    8.3382   -4.1986   27.5402 H   0  0  0  0  0  0  0  0  0  0  0  0
    9.6778    1.0140   24.6966 H   0  0  0  0  0  0  0  0  0  0  0  0
    9.6316    1.9637   23.2107 H   0  0  0  0  0  0  0  0  0  0  0  0
    8.7066   -1.7479   20.6383 H   0  0  0  0  0  0  0  0  0  0  0  0
    7.4345   -1.4041   21.8461 H   0  0  0  0  0  0  0  0  0  0  0  0
  1  2  1  0  0  0  0
  1  3  2  0  0  0  0
  2  4  2  0  0  0  0
  3 12  1  0  0  0  0
  4 13  1  0  0  0  0
  5  7  2  0  0  0  0
  5 14  1  0  0  0  0
  6  8  1  0  0  0  0
  6 14  2  0  0  0  0
  7 15  1  0  0  0  0
  8 15  2  0  0  0  0
  9 11  1  0  0  0  0
  9 21  2  0  0  0  0
 10 11  2  0  0  0  0
 10 24  1  0  0  0  0
 11 19  1  0  0  0  0
 12 13  2  0  0  0  0
 12 22  1  0  0  0  0
 13 25  1  0  0  0  0
 14 26  1  0  0  0  0
 15 28  1  0  0  0  0
 16 20  1  0  0  0  0
 16 26  1  0  0  0  0
 16 27  2  0  0  0  0
 17 24  1  0  0  0  0
 18 28  1  0  0  0  0
 19 26  1  0  0  0  0
 20 25  1  0  0  0  0
 21 24  1  0  0  0  0
 22 23  2  0  0  0  0
 23 25  1  0  0  0  0
  1 29  1  0  0  0  0
  2 30  1  0  0  0  0
  3 31  1  0  0  0  0
  4 32  1  0  0  0  0
  5 33  1  0  0  0  0
  6 34  1  0  0  0  0
  7 35  1  0  0  0  0
  8 36  1  0  0  0  0
  9 37  1  0  0  0  0
 10 38  1  0  0  0  0
 17 39  1  0  0  0  0
 17 40  1  0  0  0  0
 17 41  1  0  0  0  0
 18 42  1  0  0  0  0
 18 43  1  0  0  0  0
 18 44  1  0  0  0  0
 19 45  1  0  0  0  0
 19 46  1  0  0  0  0
 20 47  1  0  0  0  0
 20 48  1  0  0  0  0
M  END
> <clash_score>
0

> <docking_score>
-9.555591583251953

> <overlap_score>
0.9817348122596741

$$$$
BENZO_354_1
  -OEChem-08222022423D

 48 51  0     0  0  0  0  0  0999 V2000
    4.0980    2.1130   19.5350 C   0  0  0  0  0  0  0  0  0  0  0  0
    4.2970    1.6690   20.8430 C   0  0  0  0  0  0  0  0  0  0  0  0
   13.6668    1.7807   24.3938 C   0  0  0  0  0  0  0  0  0  0  0  0
   12.2735    1.8136   24.4501 C   0  0  0  0  0  0  0  0  0  0  0  0
    4.9400    1.7060   18.5060 C   0  0  0  0  0  0  0  0  0  0  0  0
    5.3360    0.8000   21.1530 C   0  0  0  0  0  0  0  0  0  0  0  0
    8.3510   -1.5420   24.6110 C   0  0  0  0  0  0  0  0  0  0  0  0
   10.2760   -2.3270   23.4020 C   0  0  0  0  0  0  0  0  0  0  0  0
    8.3310   -2.7170   25.3430 C   0  0  0  0  0  0  0  0  0  0  0  0
   10.2570   -3.5000   24.1350 C   0  0  0  0  0  0  0  0  0  0  0  0
   14.3084    0.9422   23.4822 C   0  0  0  0  0  0  0  0  0  0  0  0
   12.1632    0.1693   22.6834 C   0  0  0  0  0  0  0  0  0  0  0  0
   11.5217    1.0079   23.5949 C   0  0  0  0  0  0  0  0  0  0  0  0
    5.9810    0.8330   18.8060 C   0  0  0  0  0  0  0  0  0  0  0  0
    6.1600    0.3870   20.1140 C   0  0  0  0  0  0  0  0  0  0  0  0
    9.3300   -1.3350   23.6390 C   0  0  0  0  0  0  0  0  0  0  0  0
    9.2850   -3.7090   25.1090 C   0  0  0  0  0  0  0  0  0  0  0  0
   13.5566    0.1365   22.6270 C   0  0  0  0  0  0  0  0  0  0  0  0
    8.9510    0.1280   21.6880 C   0  0  0  0  0  0  0  0  0  0  0  0
    8.2346   -4.9977   26.8024 C   0  0  0  0  0  0  0  0  0  0  0  0
   10.0220    1.0430   23.6570 C   0  0  0  0  0  0  0  0  0  0  0  0
    8.0810   -0.9750   21.0820 C   0  0  0  0  0  0  0  0  0  0  0  0
    6.9440    0.2550   18.0100 N   0  0  0  0  0  0  0  0  0  0  0  0
    7.6830   -0.5170   18.7600 N   0  0  0  0  0  0  0  0  0  0  0  0
    7.2210   -0.4620   20.0350 N   0  0  0  0  0  0  0  0  0  0  0  0
    9.4200   -0.0840   22.9530 N   0  0  0  0  0  0  0  0  0  0  0  0
    9.1870    1.1500   21.0630 O   0  0  0  0  0  0  0  0  0  0  0  0
    9.2631   -4.8614   25.8229 O   0  0  0  0  0  0  0  0  0  0  0  0
   14.3487   -0.8988   21.5034 Cl  0  0  0  0  0  0  0  0  0  0  0  0
    3.2714    2.7873   19.3199 H   0  0  0  0  0  0  0  0  0  0  0  0
    3.6281    2.0093   21.6291 H   0  0  0  0  0  0  0  0  0  0  0  0
   14.2519    2.4082   25.0600 H   0  0  0  0  0  0  0  0  0  0  0  0
   11.7821    2.4700   25.1636 H   0  0  0  0  0  0  0  0  0  0  0  0
    4.7823    2.0669   17.4883 H   0  0  0  0  0  0  0  0  0  0  0  0
    5.4954    0.4562   22.1797 H   0  0  0  0  0  0  0  0  0  0  0  0
    7.5951   -0.7786   24.8000 H   0  0  0  0  0  0  0  0  0  0  0  0
   11.0406   -2.1866   22.6351 H   0  0  0  0  0  0  0  0  0  0  0  0
    7.5664   -2.8674   26.1055 H   0  0  0  0  0  0  0  0  0  0  0  0
   11.0119   -4.2671   23.9461 H   0  0  0  0  0  0  0  0  0  0  0  0
   15.3950    0.9267   23.4496 H   0  0  0  0  0  0  0  0  0  0  0  0
   11.5726   -0.4565   22.0184 H   0  0  0  0  0  0  0  0  0  0  0  0
    8.3310   -5.9654   27.3007 H   0  0  0  0  0  0  0  0  0  0  0  0
    7.2574   -4.9205   26.3190 H   0  0  0  0  0  0  0  0  0  0  0  0
    8.3382   -4.1986   27.5402 H   0  0  0  0  0  0  0  0  0  0  0  0
    9.6778    1.0140   24.6966 H   0  0  0  0  0  0  0  0  0  0  0  0
    9.6316    1.9637   23.2107 H   0  0  0  0  0  0  0  0  0  0  0  0
    8.7066   -1.7479   20.6383 H   0  0  0  0  0  0  0  0  0  0  0  0
    7.4345   -1.4041   21.8461 H   0  0  0  0  0  0  0  0  0  0  0  0
  1  2  1  0  0  0  0
  1  5  2  0  0  0  0
  2  6  2  0  0  0  0
  3  4  2  0  0  0  0
  3 11  1  0  0  0  0
  4 13  1  0  0  0  0
  5 14  1  0  0  0  0
  6 15  1  0  0  0  0
  7  9  2  0  0  0  0
  7 16  1  0  0  0  0
  8 10  1  0  0  0  0
  8 16  2  0  0  0  0
  9 17  1  0  0  0  0
 10 17  2  0  0  0  0
 11 18  2  0  0  0  0
 12 13  2  0  0  0  0
 12 18  1  0  0  0  0
 13 21  1  0  0  0  0
 14 15  2  0  0  0  0
 14 23  1  0  0  0  0
 15 25  1  0  0  0  0
 16 26  1  0  0  0  0
 17 28  1  0  0  0  0
 18 29  1  0  0  0  0
 19 22  1  0  0  0  0
 19 26  1  0  0  0  0
 19 27  2  0  0  0  0
 20 28  1  0  0  0  0
 21 26  1  0  0  0  0
 22 25  1  0  0  0  0
 23 24  2  0  0  0  0
 24 25  1  0  0  0  0
  1 30  1  0  0  0  0
  2 31  1  0  0  0  0
  3 32  1  0  0  0  0
  4 33  1  0  0  0  0
  5 34  1  0  0  0  0
  6 35  1  0  0  0  0
  7 36  1  0  0  0  0
  8 37  1  0  0  0  0
  9 38  1  0  0  0  0
 10 39  1  0  0  0  0
 11 40  1  0  0  0  0
 12 41  1  0  0  0  0
 20 42  1  0  0  0  0
 20 43  1  0  0  0  0
 20 44  1  0  0  0  0
 21 45  1  0  0  0  0
 21 46  1  0  0  0  0
 22 47  1  0  0  0  0
 22 48  1  0  0  0  0
M  END
> <clash_score>
0

> <docking_score>
-8.591912269592285

> <overlap_score>
0.976617157459259

$$$$
BENZO_357_1
  -OEChem-08222022423D

 58 62  0     0  0  0  0  0  0999 V2000
   14.3082    0.9431   23.4783 C   0  0  0  0  0  0  0  0  0  0  0  0
   13.6391    0.3091   24.5251 C   0  0  0  0  0  0  0  0  0  0  0  0
   13.5841    1.6096   22.4898 C   0  0  0  0  0  0  0  0  0  0  0  0
    4.0980    2.1130   19.5350 C   0  0  0  0  0  0  0  0  0  0  0  0
    4.2970    1.6690   20.8430 C   0  0  0  0  0  0  0  0  0  0  0  0
   12.2459    0.3415   24.5835 C   0  0  0  0  0  0  0  0  0  0  0  0
   12.1908    1.6420   22.5481 C   0  0  0  0  0  0  0  0  0  0  0  0
    4.9400    1.7060   18.5060 C   0  0  0  0  0  0  0  0  0  0  0  0
    5.3360    0.8000   21.1530 C   0  0  0  0  0  0  0  0  0  0  0  0
    8.3310   -2.7170   25.3430 C   0  0  0  0  0  0  0  0  0  0  0  0
   10.2570   -3.5000   24.1350 C   0  0  0  0  0  0  0  0  0  0  0  0
    8.3510   -1.5420   24.6110 C   0  0  0  0  0  0  0  0  0  0  0  0
   10.2760   -2.3270   23.4020 C   0  0  0  0  0  0  0  0  0  0  0  0
   11.5217    1.0079   23.5950 C   0  0  0  0  0  0  0  0  0  0  0  0
    5.9810    0.8330   18.8060 C   0  0  0  0  0  0  0  0  0  0  0  0
    6.1600    0.3870   20.1140 C   0  0  0  0  0  0  0  0  0  0  0  0
    9.2850   -3.7090   25.1090 C   0  0  0  0  0  0  0  0  0  0  0  0
    9.3300   -1.3350   23.6390 C   0  0  0  0  0  0  0  0  0  0  0  0
    8.0635   -5.4710   26.3667 C   0  0  0  0  0  0  0  0  0  0  0  0
    8.9510    0.1280   21.6880 C   0  0  0  0  0  0  0  0  0  0  0  0
    8.2626   -6.7580   27.1475 C   0  0  0  0  0  0  0  0  0  0  0  0
    9.4048   -6.6156   28.1380 C   0  0  0  0  0  0  0  0  0  0  0  0
   10.6949   -6.1500   27.4702 C   0  0  0  0  0  0  0  0  0  0  0  0
   10.4942   -5.7069   26.0219 C   0  0  0  0  0  0  0  0  0  0  0  0
   10.0220    1.0430   23.6570 C   0  0  0  0  0  0  0  0  0  0  0  0
    8.0810   -0.9750   21.0820 C   0  0  0  0  0  0  0  0  0  0  0  0
    6.9440    0.2550   18.0100 N   0  0  0  0  0  0  0  0  0  0  0  0
    7.6830   -0.5170   18.7600 N   0  0  0  0  0  0  0  0  0  0  0  0
    7.2210   -0.4620   20.0350 N   0  0  0  0  0  0  0  0  0  0  0  0
    9.2623   -4.9266   25.8635 N   0  0  0  0  0  0  0  0  0  0  0  0
    9.4200   -0.0840   22.9530 N   0  0  0  0  0  0  0  0  0  0  0  0
    6.9244   -5.0476   26.1739 O   0  0  0  0  0  0  0  0  0  0  0  0
    9.1870    1.1500   21.0630 O   0  0  0  0  0  0  0  0  0  0  0  0
   15.3932    0.9189   23.4337 H   0  0  0  0  0  0  0  0  0  0  0  0
   14.2029   -0.2090   25.2955 H   0  0  0  0  0  0  0  0  0  0  0  0
   14.1048    2.1043   21.6752 H   0  0  0  0  0  0  0  0  0  0  0  0
    3.2714    2.7873   19.3199 H   0  0  0  0  0  0  0  0  0  0  0  0
    3.6281    2.0093   21.6291 H   0  0  0  0  0  0  0  0  0  0  0  0
   11.7330   -0.1555   25.4027 H   0  0  0  0  0  0  0  0  0  0  0  0
   11.6349    2.1636   21.7735 H   0  0  0  0  0  0  0  0  0  0  0  0
    4.7823    2.0669   17.4883 H   0  0  0  0  0  0  0  0  0  0  0  0
    5.4954    0.4562   22.1797 H   0  0  0  0  0  0  0  0  0  0  0  0
    7.5639   -2.8621   26.1045 H   0  0  0  0  0  0  0  0  0  0  0  0
   11.0141   -4.2644   23.9422 H   0  0  0  0  0  0  0  0  0  0  0  0
    7.5950   -0.7788   24.8007 H   0  0  0  0  0  0  0  0  0  0  0  0
   11.0408   -2.1861   22.6359 H   0  0  0  0  0  0  0  0  0  0  0  0
    7.3516   -6.9810   27.6812 H   0  0  0  0  0  0  0  0  0  0  0  0
    8.4757   -7.5428   26.4371 H   0  0  0  0  0  0  0  0  0  0  0  0
    9.1234   -5.9016   28.9400 H   0  0  0  0  0  0  0  0  0  0  0  0
    9.5778   -7.5840   28.6491 H   0  0  0  0  0  0  0  0  0  0  0  0
   11.1305   -5.3108   28.0523 H   0  0  0  0  0  0  0  0  0  0  0  0
   11.4565   -6.9587   27.5131 H   0  0  0  0  0  0  0  0  0  0  0  0
   11.3212   -5.0729   25.7168 H   0  0  0  0  0  0  0  0  0  0  0  0
   10.4483   -6.5796   25.3796 H   0  0  0  0  0  0  0  0  0  0  0  0
    9.6778    1.0140   24.6966 H   0  0  0  0  0  0  0  0  0  0  0  0
    9.6316    1.9637   23.2107 H   0  0  0  0  0  0  0  0  0  0  0  0
    8.7136   -1.7499   20.6462 H   0  0  0  0  0  0  0  0  0  0  0  0
    7.4415   -1.4060   21.8540 H   0  0  0  0  0  0  0  0  0  0  0  0
  1  2  1  0  0  0  0
  1  3  2  0  0  0  0
  2  6  2  0  0  0  0
  3  7  1  0  0  0  0
  4  5  1  0  0  0  0
  4  8  2  0  0  0  0
  5  9  2  0  0  0  0
  6 14  1  0  0  0  0
  7 14  2  0  0  0  0
  8 15  1  0  0  0  0
  9 16  1  0  0  0  0
 10 12  2  0  0  0  0
 10 17  1  0  0  0  0
 11 13  1  0  0  0  0
 11 17  2  0  0  0  0
 12 18  1  0  0  0  0
 13 18  2  0  0  0  0
 14 25  1  0  0  0  0
 15 16  2  0  0  0  0
 15 27  1  0  0  0  0
 16 29  1  0  0  0  0
 17 30  1  0  0  0  0
 18 31  1  0  0  0  0
 19 21  1  0  0  0  0
 19 30  1  0  0  0  0
 19 32  2  0  0  0  0
 20 26  1  0  0  0  0
 20 31  1  0  0  0  0
 20 33  2  0  0  0  0
 21 22  1  0  0  0  0
 22 23  1  0  0  0  0
 23 24  1  0  0  0  0
 24 30  1  0  0  0  0
 25 31  1  0  0  0  0
 26 29  1  0  0  0  0
 27 28  2  0  0  0  0
 28 29  1  0  0  0  0
  1 34  1  0  0  0  0
  2 35  1  0  0  0  0
  3 36  1  0  0  0  0
  4 37  1  0  0  0  0
  5 38  1  0  0  0  0
  6 39  1  0  0  0  0
  7 40  1  0  0  0  0
  8 41  1  0  0  0  0
  9 42  1  0  0  0  0
 10 43  1  0  0  0  0
 11 44  1  0  0  0  0
 12 45  1  0  0  0  0
 13 46  1  0  0  0  0
 21 47  1  0  0  0  0
 21 48  1  0  0  0  0
 22 49  1  0  0  0  0
 22 50  1  0  0  0  0
 23 51  1  0  0  0  0
 23 52  1  0  0  0  0
 24 53  1  0  0  0  0
 24 54  1  0  0  0  0
 25 55  1  0  0  0  0
 25 56  1  0  0  0  0
 26 57  1  0  0  0  0
 26 58  1  0  0  0  0
M  END
> <clash_score>
1.272782601224562

> <docking_score>
-7.827458381652832

> <overlap_score>
1.0159265995025635

$$$$
BENZO_356_1
  -OEChem-08222022423D

 55 59  0     0  0  0  0  0  0999 V2000
    4.0980    2.1130   19.5350 C   0  0  0  0  0  0  0  0  0  0  0  0
    4.2970    1.6690   20.8430 C   0  0  0  0  0  0  0  0  0  0  0  0
    4.9400    1.7060   18.5060 C   0  0  0  0  0  0  0  0  0  0  0  0
    5.3360    0.8000   21.1530 C   0  0  0  0  0  0  0  0  0  0  0  0
    8.3310   -2.7170   25.3430 C   0  0  0  0  0  0  0  0  0  0  0  0
   10.2570   -3.5000   24.1350 C   0  0  0  0  0  0  0  0  0  0  0  0
    8.3510   -1.5420   24.6110 C   0  0  0  0  0  0  0  0  0  0  0  0
   10.2760   -2.3270   23.4020 C   0  0  0  0  0  0  0  0  0  0  0  0
   12.2675    1.0332   22.3812 C   0  0  0  0  0  0  0  0  0  0  0  0
   13.6257    0.9906   22.6074 C   0  0  0  0  0  0  0  0  0  0  0  0
   12.3384    0.9467   24.7028 C   0  0  0  0  0  0  0  0  0  0  0  0
   11.5217    1.0079   23.5950 C   0  0  0  0  0  0  0  0  0  0  0  0
    5.9810    0.8330   18.8060 C   0  0  0  0  0  0  0  0  0  0  0  0
    6.1600    0.3870   20.1140 C   0  0  0  0  0  0  0  0  0  0  0  0
    9.2850   -3.7090   25.1090 C   0  0  0  0  0  0  0  0  0  0  0  0
    9.3300   -1.3350   23.6390 C   0  0  0  0  0  0  0  0  0  0  0  0
    8.0635   -5.4710   26.3667 C   0  0  0  0  0  0  0  0  0  0  0  0
    8.9510    0.1280   21.6880 C   0  0  0  0  0  0  0  0  0  0  0  0
    8.2626   -6.7580   27.1475 C   0  0  0  0  0  0  0  0  0  0  0  0
    9.4048   -6.6156   28.1380 C   0  0  0  0  0  0  0  0  0  0  0  0
   10.6949   -6.1500   27.4702 C   0  0  0  0  0  0  0  0  0  0  0  0
   10.4942   -5.7069   26.0219 C   0  0  0  0  0  0  0  0  0  0  0  0
   10.0220    1.0430   23.6570 C   0  0  0  0  0  0  0  0  0  0  0  0
    8.0810   -0.9750   21.0820 C   0  0  0  0  0  0  0  0  0  0  0  0
    6.9440    0.2550   18.0100 N   0  0  0  0  0  0  0  0  0  0  0  0
    7.6830   -0.5170   18.7600 N   0  0  0  0  0  0  0  0  0  0  0  0
    7.2210   -0.4620   20.0350 N   0  0  0  0  0  0  0  0  0  0  0  0
    9.2623   -4.9266   25.8635 N   0  0  0  0  0  0  0  0  0  0  0  0
    9.4200   -0.0840   22.9530 N   0  0  0  0  0  0  0  0  0  0  0  0
    6.9244   -5.0476   26.1739 O   0  0  0  0  0  0  0  0  0  0  0  0
    9.1870    1.1500   21.0630 O   0  0  0  0  0  0  0  0  0  0  0  0
   13.9969    0.9202   24.2776 S   0  0  0  0  0  0  0  0  0  0  0  0
    3.2714    2.7873   19.3199 H   0  0  0  0  0  0  0  0  0  0  0  0
    3.6281    2.0093   21.6291 H   0  0  0  0  0  0  0  0  0  0  0  0
    4.7823    2.0669   17.4883 H   0  0  0  0  0  0  0  0  0  0  0  0
    5.4954    0.4562   22.1797 H   0  0  0  0  0  0  0  0  0  0  0  0
    7.5639   -2.8621   26.1045 H   0  0  0  0  0  0  0  0  0  0  0  0
   11.0141   -4.2644   23.9422 H   0  0  0  0  0  0  0  0  0  0  0  0
    7.5950   -0.7788   24.8007 H   0  0  0  0  0  0  0  0  0  0  0  0
   11.0408   -2.1861   22.6359 H   0  0  0  0  0  0  0  0  0  0  0  0
   11.8338    1.0798   21.3902 H   0  0  0  0  0  0  0  0  0  0  0  0
   14.4176    0.9966   21.8719 H   0  0  0  0  0  0  0  0  0  0  0  0
   12.0446    0.9149   25.7428 H   0  0  0  0  0  0  0  0  0  0  0  0
    7.3516   -6.9810   27.6812 H   0  0  0  0  0  0  0  0  0  0  0  0
    8.4757   -7.5428   26.4371 H   0  0  0  0  0  0  0  0  0  0  0  0
    9.1234   -5.9016   28.9400 H   0  0  0  0  0  0  0  0  0  0  0  0
    9.5778   -7.5840   28.6491 H   0  0  0  0  0  0  0  0  0  0  0  0
   11.1305   -5.3108   28.0523 H   0  0  0  0  0  0  0  0  0  0  0  0
   11.4565   -6.9587   27.5131 H   0  0  0  0  0  0  0  0  0  0  0  0
   11.3212   -5.0729   25.7168 H   0  0  0  0  0  0  0  0  0  0  0  0
   10.4483   -6.5796   25.3796 H   0  0  0  0  0  0  0  0  0  0  0  0
    9.6778    1.0140   24.6966 H   0  0  0  0  0  0  0  0  0  0  0  0
    9.6316    1.9637   23.2107 H   0  0  0  0  0  0  0  0  0  0  0  0
    8.7136   -1.7499   20.6462 H   0  0  0  0  0  0  0  0  0  0  0  0
    7.4415   -1.4060   21.8540 H   0  0  0  0  0  0  0  0  0  0  0  0
  1  2  1  0  0  0  0
  1  3  2  0  0  0  0
  2  4  2  0  0  0  0
  3 13  1  0  0  0  0
  4 14  1  0  0  0  0
  5  7  2  0  0  0  0
  5 15  1  0  0  0  0
  6  8  1  0  0  0  0
  6 15  2  0  0  0  0
  7 16  1  0  0  0  0
  8 16  2  0  0  0  0
  9 10  2  0  0  0  0
  9 12  1  0  0  0  0
 10 32  1  0  0  0  0
 11 12  2  0  0  0  0
 11 32  1  0  0  0  0
 12 23  1  0  0  0  0
 13 14  2  0  0  0  0
 13 25  1  0  0  0  0
 14 27  1  0  0  0  0
 15 28  1  0  0  0  0
 16 29  1  0  0  0  0
 17 19  1  0  0  0  0
 17 28  1  0  0  0  0
 17 30  2  0  0  0  0
 18 24  1  0  0  0  0
 18 29  1  0  0  0  0
 18 31  2  0  0  0  0
 19 20  1  0  0  0  0
 20 21  1  0  0  0  0
 21 22  1  0  0  0  0
 22 28  1  0  0  0  0
 23 29  1  0  0  0  0
 24 27  1  0  0  0  0
 25 26  2  0  0  0  0
 26 27  1  0  0  0  0
  1 33  1  0  0  0  0
  2 34  1  0  0  0  0
  3 35  1  0  0  0  0
  4 36  1  0  0  0  0
  5 37  1  0  0  0  0
  6 38  1  0  0  0  0
  7 39  1  0  0  0  0
  8 40  1  0  0  0  0
  9 41  1  0  0  0  0
 10 42  1  0  0  0  0
 11 43  1  0  0  0  0
 19 44  1  0  0  0  0
 19 45  1  0  0  0  0
 20 46  1  0  0  0  0
 20 47  1  0  0  0  0
 21 48  1  0  0  0  0
 21 49  1  0  0  0  0
 22 50  1  0  0  0  0
 22 51  1  0  0  0  0
 23 52  1  0  0  0  0
 23 53  1  0  0  0  0
 24 54  1  0  0  0  0
 24 55  1  0  0  0  0
M  END
> <clash_score>
1.272782601224562

> <docking_score>
-8.073676109313965

> <overlap_score>
0.9903323650360107

$$$$
BENZO_359_1
  -OEChem-08222022423D

 58 62  0     0  0  0  0  0  0999 V2000
    4.0980    2.1130   19.5350 C   0  0  0  0  0  0  0  0  0  0  0  0
    4.2970    1.6690   20.8430 C   0  0  0  0  0  0  0  0  0  0  0  0
    4.9400    1.7060   18.5060 C   0  0  0  0  0  0  0  0  0  0  0  0
    5.3360    0.8000   21.1530 C   0  0  0  0  0  0  0  0  0  0  0  0
    8.3310   -2.7170   25.3430 C   0  0  0  0  0  0  0  0  0  0  0  0
   10.2570   -3.5000   24.1350 C   0  0  0  0  0  0  0  0  0  0  0  0
    8.3510   -1.5420   24.6110 C   0  0  0  0  0  0  0  0  0  0  0  0
   10.2760   -2.3270   23.4020 C   0  0  0  0  0  0  0  0  0  0  0  0
   12.4359    1.7439   24.3724 C   0  0  0  0  0  0  0  0  0  0  0  0
   12.3100    0.2469   22.7668 C   0  0  0  0  0  0  0  0  0  0  0  0
   11.5217    1.0079   23.5949 C   0  0  0  0  0  0  0  0  0  0  0  0
    5.9810    0.8330   18.8060 C   0  0  0  0  0  0  0  0  0  0  0  0
    6.1600    0.3870   20.1140 C   0  0  0  0  0  0  0  0  0  0  0  0
    9.2850   -3.7090   25.1090 C   0  0  0  0  0  0  0  0  0  0  0  0
    9.3300   -1.3350   23.6390 C   0  0  0  0  0  0  0  0  0  0  0  0
    8.2934   -5.1724   26.8574 C   0  0  0  0  0  0  0  0  0  0  0  0
    8.9510    0.1280   21.6880 C   0  0  0  0  0  0  0  0  0  0  0  0
    8.4443   -6.5251   27.5306 C   0  0  0  0  0  0  0  0  0  0  0  0
    8.6421   -7.6210   26.4982 C   0  0  0  0  0  0  0  0  0  0  0  0
    9.8032   -7.3237   25.5546 C   0  0  0  0  0  0  0  0  0  0  0  0
   10.3452   -5.9024   25.6995 C   0  0  0  0  0  0  0  0  0  0  0  0
   14.7884    0.0124   22.4815 C   0  0  0  0  0  0  0  0  0  0  0  0
   10.0220    1.0430   23.6570 C   0  0  0  0  0  0  0  0  0  0  0  0
    8.0810   -0.9750   21.0820 C   0  0  0  0  0  0  0  0  0  0  0  0
   13.7076    1.4745   24.0657 N   0  0  0  0  0  0  0  0  0  0  0  0
    6.9440    0.2550   18.0100 N   0  0  0  0  0  0  0  0  0  0  0  0
    7.6830   -0.5170   18.7600 N   0  0  0  0  0  0  0  0  0  0  0  0
   13.5982    0.5607   23.0864 N   0  0  0  0  0  0  0  0  0  0  0  0
    7.2210   -0.4620   20.0350 N   0  0  0  0  0  0  0  0  0  0  0  0
    9.2623   -4.9267   25.8636 N   0  0  0  0  0  0  0  0  0  0  0  0
    9.4200   -0.0840   22.9530 N   0  0  0  0  0  0  0  0  0  0  0  0
    7.4269   -4.3921   27.2503 O   0  0  0  0  0  0  0  0  0  0  0  0
    9.1870    1.1500   21.0630 O   0  0  0  0  0  0  0  0  0  0  0  0
    3.2714    2.7873   19.3199 H   0  0  0  0  0  0  0  0  0  0  0  0
    3.6281    2.0093   21.6291 H   0  0  0  0  0  0  0  0  0  0  0  0
    4.7823    2.0669   17.4883 H   0  0  0  0  0  0  0  0  0  0  0  0
    5.4954    0.4562   22.1797 H   0  0  0  0  0  0  0  0  0  0  0  0
    7.5639   -2.8621   26.1045 H   0  0  0  0  0  0  0  0  0  0  0  0
   11.0141   -4.2644   23.9422 H   0  0  0  0  0  0  0  0  0  0  0  0
    7.5950   -0.7788   24.8007 H   0  0  0  0  0  0  0  0  0  0  0  0
   11.0408   -2.1861   22.6359 H   0  0  0  0  0  0  0  0  0  0  0  0
   12.2308    2.4652   25.1508 H   0  0  0  0  0  0  0  0  0  0  0  0
   12.0700   -0.4744   21.9974 H   0  0  0  0  0  0  0  0  0  0  0  0
    9.3021   -6.4901   28.1844 H   0  0  0  0  0  0  0  0  0  0  0  0
    7.5489   -6.7067   28.1060 H   0  0  0  0  0  0  0  0  0  0  0  0
    8.8161   -8.5925   27.0061 H   0  0  0  0  0  0  0  0  0  0  0  0
    7.7102   -7.7540   25.9127 H   0  0  0  0  0  0  0  0  0  0  0  0
   10.6240   -8.0484   25.7384 H   0  0  0  0  0  0  0  0  0  0  0  0
    9.4907   -7.5005   24.5024 H   0  0  0  0  0  0  0  0  0  0  0  0
   10.9741   -5.8406   26.5826 H   0  0  0  0  0  0  0  0  0  0  0  0
   10.9262   -5.6455   24.8203 H   0  0  0  0  0  0  0  0  0  0  0  0
   15.0569    0.6453   21.6315 H   0  0  0  0  0  0  0  0  0  0  0  0
   15.5971   -0.0026   23.2174 H   0  0  0  0  0  0  0  0  0  0  0  0
   14.5870   -1.0100   22.1498 H   0  0  0  0  0  0  0  0  0  0  0  0
    9.6778    1.0140   24.6966 H   0  0  0  0  0  0  0  0  0  0  0  0
    9.6316    1.9637   23.2107 H   0  0  0  0  0  0  0  0  0  0  0  0
    8.7136   -1.7499   20.6462 H   0  0  0  0  0  0  0  0  0  0  0  0
    7.4415   -1.4060   21.8540 H   0  0  0  0  0  0  0  0  0  0  0  0
  1  2  1  0  0  0  0
  1  3  2  0  0  0  0
  2  4  2  0  0  0  0
  3 12  1  0  0  0  0
  4 13  1  0  0  0  0
  5  7  2  0  0  0  0
  5 14  1  0  0  0  0
  6  8  1  0  0  0  0
  6 14  2  0  0  0  0
  7 15  1  0  0  0  0
  8 15  2  0  0  0  0
  9 11  1  0  0  0  0
  9 25  2  0  0  0  0
 10 11  2  0  0  0  0
 10 28  1  0  0  0  0
 11 23  1  0  0  0  0
 12 13  2  0  0  0  0
 12 26  1  0  0  0  0
 13 29  1  0  0  0  0
 14 30  1  0  0  0  0
 15 31  1  0  0  0  0
 16 18  1  0  0  0  0
 16 30  1  0  0  0  0
 16 32  2  0  0  0  0
 17 24  1  0  0  0  0
 17 31  1  0  0  0  0
 17 33  2  0  0  0  0
 18 19  1  0  0  0  0
 19 20  1  0  0  0  0
 20 21  1  0  0  0  0
 21 30  1  0  0  0  0
 22 28  1  0  0  0  0
 23 31  1  0  0  0  0
 24 29  1  0  0  0  0
 25 28  1  0  0  0  0
 26 27  2  0  0  0  0
 27 29  1  0  0  0  0
  1 34  1  0  0  0  0
  2 35  1  0  0  0  0
  3 36  1  0  0  0  0
  4 37  1  0  0  0  0
  5 38  1  0  0  0  0
  6 39  1  0  0  0  0
  7 40  1  0  0  0  0
  8 41  1  0  0  0  0
  9 42  1  0  0  0  0
 10 43  1  0  0  0  0
 18 44  1  0  0  0  0
 18 45  1  0  0  0  0
 19 46  1  0  0  0  0
 19 47  1  0  0  0  0
 20 48  1  0  0  0  0
 20 49  1  0  0  0  0
 21 50  1  0  0  0  0
 21 51  1  0  0  0  0
 22 52  1  0  0  0  0
 22 53  1  0  0  0  0
 22 54  1  0  0  0  0
 23 55  1  0  0  0  0
 23 56  1  0  0  0  0
 24 57  1  0  0  0  0
 24 58  1  0  0  0  0
M  END
> <clash_score>
0.6927847163055834

> <docking_score>
-7.817750453948975

> <overlap_score>
1.0033574104309082

$$$$
BENZO_361_1
  -OEChem-08222022423D

 57 61  0     0  0  0  0  0  0999 V2000
   14.3082    0.9431   23.4783 C   0  0  0  0  0  0  0  0  0  0  0  0
   13.6391    0.3091   24.5251 C   0  0  0  0  0  0  0  0  0  0  0  0
   13.5841    1.6096   22.4898 C   0  0  0  0  0  0  0  0  0  0  0  0
    4.0980    2.1130   19.5350 C   0  0  0  0  0  0  0  0  0  0  0  0
    4.2970    1.6690   20.8430 C   0  0  0  0  0  0  0  0  0  0  0  0
   12.2459    0.3415   24.5835 C   0  0  0  0  0  0  0  0  0  0  0  0
   12.1908    1.6420   22.5481 C   0  0  0  0  0  0  0  0  0  0  0  0
    4.9400    1.7060   18.5060 C   0  0  0  0  0  0  0  0  0  0  0  0
    5.3360    0.8000   21.1530 C   0  0  0  0  0  0  0  0  0  0  0  0
    8.3310   -2.7170   25.3430 C   0  0  0  0  0  0  0  0  0  0  0  0
   10.2570   -3.5000   24.1350 C   0  0  0  0  0  0  0  0  0  0  0  0
    8.3510   -1.5420   24.6110 C   0  0  0  0  0  0  0  0  0  0  0  0
   10.2760   -2.3270   23.4020 C   0  0  0  0  0  0  0  0  0  0  0  0
   11.5217    1.0079   23.5949 C   0  0  0  0  0  0  0  0  0  0  0  0
    5.9810    0.8330   18.8060 C   0  0  0  0  0  0  0  0  0  0  0  0
    6.1600    0.3870   20.1140 C   0  0  0  0  0  0  0  0  0  0  0  0
    9.2850   -3.7090   25.1090 C   0  0  0  0  0  0  0  0  0  0  0  0
    9.3300   -1.3350   23.6390 C   0  0  0  0  0  0  0  0  0  0  0  0
    8.9510    0.1280   21.6880 C   0  0  0  0  0  0  0  0  0  0  0  0
    8.7666   -4.9523   27.2147 C   0  0  0  0  0  0  0  0  0  0  0  0
    9.3034   -6.1866   25.1651 C   0  0  0  0  0  0  0  0  0  0  0  0
    7.3827   -5.5925   27.1999 C   0  0  0  0  0  0  0  0  0  0  0  0
    7.9024   -6.7967   25.2263 C   0  0  0  0  0  0  0  0  0  0  0  0
   10.0220    1.0430   23.6570 C   0  0  0  0  0  0  0  0  0  0  0  0
    8.0810   -0.9750   21.0820 C   0  0  0  0  0  0  0  0  0  0  0  0
    6.9440    0.2550   18.0100 N   0  0  0  0  0  0  0  0  0  0  0  0
    7.6830   -0.5170   18.7600 N   0  0  0  0  0  0  0  0  0  0  0  0
    7.2210   -0.4620   20.0350 N   0  0  0  0  0  0  0  0  0  0  0  0
    9.2640   -4.8844   25.8389 N   0  0  0  0  0  0  0  0  0  0  0  0
    9.4200   -0.0840   22.9530 N   0  0  0  0  0  0  0  0  0  0  0  0
    9.1870    1.1500   21.0630 O   0  0  0  0  0  0  0  0  0  0  0  0
    7.4483   -6.8833   26.5817 O   0  0  0  0  0  0  0  0  0  0  0  0
   15.3932    0.9189   23.4337 H   0  0  0  0  0  0  0  0  0  0  0  0
   14.2029   -0.2090   25.2955 H   0  0  0  0  0  0  0  0  0  0  0  0
   14.1048    2.1043   21.6752 H   0  0  0  0  0  0  0  0  0  0  0  0
    3.2714    2.7873   19.3199 H   0  0  0  0  0  0  0  0  0  0  0  0
    3.6281    2.0093   21.6291 H   0  0  0  0  0  0  0  0  0  0  0  0
   11.7330   -0.1555   25.4027 H   0  0  0  0  0  0  0  0  0  0  0  0
   11.6349    2.1636   21.7735 H   0  0  0  0  0  0  0  0  0  0  0  0
    4.7823    2.0669   17.4883 H   0  0  0  0  0  0  0  0  0  0  0  0
    5.4954    0.4562   22.1797 H   0  0  0  0  0  0  0  0  0  0  0  0
    7.5647   -2.8621   26.1053 H   0  0  0  0  0  0  0  0  0  0  0  0
   11.0144   -4.2642   23.9425 H   0  0  0  0  0  0  0  0  0  0  0  0
    7.5958   -0.7779   24.8006 H   0  0  0  0  0  0  0  0  0  0  0  0
   11.0406   -2.1848   22.6356 H   0  0  0  0  0  0  0  0  0  0  0  0
    8.7030   -3.9561   27.6574 H   0  0  0  0  0  0  0  0  0  0  0  0
    9.4460   -5.5639   27.8143 H   0  0  0  0  0  0  0  0  0  0  0  0
   10.0083   -6.8392   25.6817 H   0  0  0  0  0  0  0  0  0  0  0  0
    9.6089   -6.0802   24.1251 H   0  0  0  0  0  0  0  0  0  0  0  0
    7.0281   -5.7334   28.2231 H   0  0  0  0  0  0  0  0  0  0  0  0
    6.6541   -4.9678   26.6754 H   0  0  0  0  0  0  0  0  0  0  0  0
    7.1860   -6.2177   24.6318 H   0  0  0  0  0  0  0  0  0  0  0  0
    7.9246   -7.8119   24.8187 H   0  0  0  0  0  0  0  0  0  0  0  0
    9.6778    1.0140   24.6966 H   0  0  0  0  0  0  0  0  0  0  0  0
    9.6316    1.9637   23.2107 H   0  0  0  0  0  0  0  0  0  0  0  0
    8.7136   -1.7499   20.6462 H   0  0  0  0  0  0  0  0  0  0  0  0
    7.4415   -1.4060   21.8540 H   0  0  0  0  0  0  0  0  0  0  0  0
  1  2  1  0  0  0  0
  1  3  2  0  0  0  0
  2  6  2  0  0  0  0
  3  7  1  0  0  0  0
  4  5  1  0  0  0  0
  4  8  2  0  0  0  0
  5  9  2  0  0  0  0
  6 14  1  0  0  0  0
  7 14  2  0  0  0  0
  8 15  1  0  0  0  0
  9 16  1  0  0  0  0
 10 12  2  0  0  0  0
 10 17  1  0  0  0  0
 11 13  1  0  0  0  0
 11 17  2  0  0  0  0
 12 18  1  0  0  0  0
 13 18  2  0  0  0  0
 14 24  1  0  0  0  0
 15 16  2  0  0  0  0
 15 26  1  0  0  0  0
 16 28  1  0  0  0  0
 17 29  1  0  0  0  0
 18 30  1  0  0  0  0
 19 25  1  0  0  0  0
 19 30  1  0  0  0  0
 19 31  2  0  0  0  0
 20 22  1  0  0  0  0
 20 29  1  0  0  0  0
 21 23  1  0  0  0  0
 21 29  1  0  0  0  0
 22 32  1  0  0  0  0
 23 32  1  0  0  0  0
 24 30  1  0  0  0  0
 25 28  1  0  0  0  0
 26 27  2  0  0  0  0
 27 28  1  0  0  0  0
  1 33  1  0  0  0  0
  2 34  1  0  0  0  0
  3 35  1  0  0  0  0
  4 36  1  0  0  0  0
  5 37  1  0  0  0  0
  6 38  1  0  0  0  0
  7 39  1  0  0  0  0
  8 40  1  0  0  0  0
  9 41  1  0  0  0  0
 10 42  1  0  0  0  0
 11 43  1  0  0  0  0
 12 44  1  0  0  0  0
 13 45  1  0  0  0  0
 20 46  1  0  0  0  0
 20 47  1  0  0  0  0
 21 48  1  0  0  0  0
 21 49  1  0  0  0  0
 22 50  1  0  0  0  0
 22 51  1  0  0  0  0
 23 52  1  0  0  0  0
 23 53  1  0  0  0  0
 24 54  1  0  0  0  0
 24 55  1  0  0  0  0
 25 56  1  0  0  0  0
 25 57  1  0  0  0  0
M  END
> <clash_score>
0

> <docking_score>
-9.072587966918945

> <overlap_score>
1.0165159702301025

$$$$
BENZO_358_1
  -OEChem-08222022423D

 58 62  0     0  0  0  0  0  0999 V2000
    4.0980    2.1130   19.5350 C   0  0  0  0  0  0  0  0  0  0  0  0
    4.2970    1.6690   20.8430 C   0  0  0  0  0  0  0  0  0  0  0  0
   13.5977    1.8457   22.6865 C   0  0  0  0  0  0  0  0  0  0  0  0
   12.2044    1.8769   22.7438 C   0  0  0  0  0  0  0  0  0  0  0  0
    4.9400    1.7060   18.5060 C   0  0  0  0  0  0  0  0  0  0  0  0
    5.3360    0.8000   21.1530 C   0  0  0  0  0  0  0  0  0  0  0  0
    8.3310   -2.7170   25.3430 C   0  0  0  0  0  0  0  0  0  0  0  0
   10.2570   -3.5000   24.1350 C   0  0  0  0  0  0  0  0  0  0  0  0
    8.3510   -1.5420   24.6110 C   0  0  0  0  0  0  0  0  0  0  0  0
   10.2760   -2.3270   23.4020 C   0  0  0  0  0  0  0  0  0  0  0  0
   14.3084    0.9453   23.4803 C   0  0  0  0  0  0  0  0  0  0  0  0
   12.2323    0.1076   24.3888 C   0  0  0  0  0  0  0  0  0  0  0  0
   11.5217    1.0079   23.5950 C   0  0  0  0  0  0  0  0  0  0  0  0
    5.9810    0.8330   18.8060 C   0  0  0  0  0  0  0  0  0  0  0  0
    6.1600    0.3870   20.1140 C   0  0  0  0  0  0  0  0  0  0  0  0
    9.2850   -3.7090   25.1090 C   0  0  0  0  0  0  0  0  0  0  0  0
    9.3300   -1.3350   23.6390 C   0  0  0  0  0  0  0  0  0  0  0  0
   13.6257    0.0763   24.3314 C   0  0  0  0  0  0  0  0  0  0  0  0
    8.2930   -5.1714   26.8572 C   0  0  0  0  0  0  0  0  0  0  0  0
    8.9510    0.1280   21.6880 C   0  0  0  0  0  0  0  0  0  0  0  0
    8.4551   -6.5156   27.5444 C   0  0  0  0  0  0  0  0  0  0  0  0
    9.9019   -6.7444   27.9450 C   0  0  0  0  0  0  0  0  0  0  0  0
   10.8596   -6.5882   26.7680 C   0  0  0  0  0  0  0  0  0  0  0  0
   10.1895   -6.0108   25.5223 C   0  0  0  0  0  0  0  0  0  0  0  0
   10.0220    1.0430   23.6570 C   0  0  0  0  0  0  0  0  0  0  0  0
    8.0810   -0.9750   21.0820 C   0  0  0  0  0  0  0  0  0  0  0  0
    6.9440    0.2550   18.0100 N   0  0  0  0  0  0  0  0  0  0  0  0
    7.6830   -0.5170   18.7600 N   0  0  0  0  0  0  0  0  0  0  0  0
    7.2210   -0.4620   20.0350 N   0  0  0  0  0  0  0  0  0  0  0  0
    9.2623   -4.9266   25.8635 N   0  0  0  0  0  0  0  0  0  0  0  0
    9.4200   -0.0840   22.9530 N   0  0  0  0  0  0  0  0  0  0  0  0
    7.3370   -4.4527   27.1463 O   0  0  0  0  0  0  0  0  0  0  0  0
    9.1870    1.1500   21.0630 O   0  0  0  0  0  0  0  0  0  0  0  0
   14.5031   -1.0334   25.3114 Cl  0  0  0  0  0  0  0  0  0  0  0  0
    3.2714    2.7873   19.3199 H   0  0  0  0  0  0  0  0  0  0  0  0
    3.6281    2.0093   21.6291 H   0  0  0  0  0  0  0  0  0  0  0  0
   14.1289    2.5226   22.0237 H   0  0  0  0  0  0  0  0  0  0  0  0
   11.6588    2.5818   22.1218 H   0  0  0  0  0  0  0  0  0  0  0  0
    4.7823    2.0669   17.4883 H   0  0  0  0  0  0  0  0  0  0  0  0
    5.4954    0.4562   22.1797 H   0  0  0  0  0  0  0  0  0  0  0  0
    7.5639   -2.8621   26.1045 H   0  0  0  0  0  0  0  0  0  0  0  0
   11.0141   -4.2644   23.9422 H   0  0  0  0  0  0  0  0  0  0  0  0
    7.5950   -0.7788   24.8007 H   0  0  0  0  0  0  0  0  0  0  0  0
   11.0408   -2.1861   22.6359 H   0  0  0  0  0  0  0  0  0  0  0  0
   15.3941    0.9323   23.4255 H   0  0  0  0  0  0  0  0  0  0  0  0
   11.6954   -0.5682   25.0504 H   0  0  0  0  0  0  0  0  0  0  0  0
    7.8332   -6.5283   28.4263 H   0  0  0  0  0  0  0  0  0  0  0  0
    8.1305   -7.2787   26.8530 H   0  0  0  0  0  0  0  0  0  0  0  0
   10.1875   -6.0379   28.7521 H   0  0  0  0  0  0  0  0  0  0  0  0
   10.0116   -7.7568   28.3834 H   0  0  0  0  0  0  0  0  0  0  0  0
   11.7061   -5.9337   27.0644 H   0  0  0  0  0  0  0  0  0  0  0  0
   11.3230   -7.5689   26.5243 H   0  0  0  0  0  0  0  0  0  0  0  0
   10.9445   -5.5959   24.8614 H   0  0  0  0  0  0  0  0  0  0  0  0
    9.6461   -6.7954   25.0072 H   0  0  0  0  0  0  0  0  0  0  0  0
    9.6778    1.0140   24.6966 H   0  0  0  0  0  0  0  0  0  0  0  0
    9.6316    1.9637   23.2107 H   0  0  0  0  0  0  0  0  0  0  0  0
    8.7136   -1.7499   20.6462 H   0  0  0  0  0  0  0  0  0  0  0  0
    7.4415   -1.4060   21.8540 H   0  0  0  0  0  0  0  0  0  0  0  0
  1  2  1  0  0  0  0
  1  5  2  0  0  0  0
  2  6  2  0  0  0  0
  3  4  2  0  0  0  0
  3 11  1  0  0  0  0
  4 13  1  0  0  0  0
  5 14  1  0  0  0  0
  6 15  1  0  0  0  0
  7  9  2  0  0  0  0
  7 16  1  0  0  0  0
  8 10  1  0  0  0  0
  8 16  2  0  0  0  0
  9 17  1  0  0  0  0
 10 17  2  0  0  0  0
 11 18  2  0  0  0  0
 12 13  2  0  0  0  0
 12 18  1  0  0  0  0
 13 25  1  0  0  0  0
 14 15  2  0  0  0  0
 14 27  1  0  0  0  0
 15 29  1  0  0  0  0
 16 30  1  0  0  0  0
 17 31  1  0  0  0  0
 18 34  1  0  0  0  0
 19 21  1  0  0  0  0
 19 30  1  0  0  0  0
 19 32  2  0  0  0  0
 20 26  1  0  0  0  0
 20 31  1  0  0  0  0
 20 33  2  0  0  0  0
 21 22  1  0  0  0  0
 22 23  1  0  0  0  0
 23 24  1  0  0  0  0
 24 30  1  0  0  0  0
 25 31  1  0  0  0  0
 26 29  1  0  0  0  0
 27 28  2  0  0  0  0
 28 29  1  0  0  0  0
  1 35  1  0  0  0  0
  2 36  1  0  0  0  0
  3 37  1  0  0  0  0
  4 38  1  0  0  0  0
  5 39  1  0  0  0  0
  6 40  1  0  0  0  0
  7 41  1  0  0  0  0
  8 42  1  0  0  0  0
  9 43  1  0  0  0  0
 10 44  1  0  0  0  0
 11 45  1  0  0  0  0
 12 46  1  0  0  0  0
 21 47  1  0  0  0  0
 21 48  1  0  0  0  0
 22 49  1  0  0  0  0
 22 50  1  0  0  0  0
 23 51  1  0  0  0  0
 23 52  1  0  0  0  0
 24 53  1  0  0  0  0
 24 54  1  0  0  0  0
 25 55  1  0  0  0  0
 25 56  1  0  0  0  0
 26 57  1  0  0  0  0
 26 58  1  0  0  0  0
M  END
> <clash_score>
2.825944449818131

> <docking_score>
-7.0201921463012695

> <overlap_score>
1.0217952728271484

$$$$
BENZO_360_1
  -OEChem-08222022423D

 54 58  0     0  0  0  0  0  0999 V2000
    4.0980    2.1130   19.5350 C   0  0  0  0  0  0  0  0  0  0  0  0
    4.2970    1.6690   20.8430 C   0  0  0  0  0  0  0  0  0  0  0  0
    4.9400    1.7060   18.5060 C   0  0  0  0  0  0  0  0  0  0  0  0
    5.3360    0.8000   21.1530 C   0  0  0  0  0  0  0  0  0  0  0  0
    8.3310   -2.7170   25.3430 C   0  0  0  0  0  0  0  0  0  0  0  0
   10.2570   -3.5000   24.1350 C   0  0  0  0  0  0  0  0  0  0  0  0
    8.3510   -1.5420   24.6110 C   0  0  0  0  0  0  0  0  0  0  0  0
   10.2760   -2.3270   23.4020 C   0  0  0  0  0  0  0  0  0  0  0  0
   12.2675    1.0332   22.3812 C   0  0  0  0  0  0  0  0  0  0  0  0
   13.6257    0.9906   22.6074 C   0  0  0  0  0  0  0  0  0  0  0  0
   12.3384    0.9467   24.7028 C   0  0  0  0  0  0  0  0  0  0  0  0
   11.5217    1.0079   23.5949 C   0  0  0  0  0  0  0  0  0  0  0  0
    5.9810    0.8330   18.8060 C   0  0  0  0  0  0  0  0  0  0  0  0
    6.1600    0.3870   20.1140 C   0  0  0  0  0  0  0  0  0  0  0  0
    9.2850   -3.7090   25.1090 C   0  0  0  0  0  0  0  0  0  0  0  0
    9.3300   -1.3350   23.6390 C   0  0  0  0  0  0  0  0  0  0  0  0
    8.9510    0.1280   21.6880 C   0  0  0  0  0  0  0  0  0  0  0  0
    8.7666   -4.9523   27.2147 C   0  0  0  0  0  0  0  0  0  0  0  0
    9.3034   -6.1866   25.1651 C   0  0  0  0  0  0  0  0  0  0  0  0
    7.3827   -5.5925   27.1999 C   0  0  0  0  0  0  0  0  0  0  0  0
    7.9024   -6.7967   25.2263 C   0  0  0  0  0  0  0  0  0  0  0  0
   10.0220    1.0430   23.6570 C   0  0  0  0  0  0  0  0  0  0  0  0
    8.0810   -0.9750   21.0820 C   0  0  0  0  0  0  0  0  0  0  0  0
    6.9440    0.2550   18.0100 N   0  0  0  0  0  0  0  0  0  0  0  0
    7.6830   -0.5170   18.7600 N   0  0  0  0  0  0  0  0  0  0  0  0
    7.2210   -0.4620   20.0350 N   0  0  0  0  0  0  0  0  0  0  0  0
    9.2640   -4.8844   25.8389 N   0  0  0  0  0  0  0  0  0  0  0  0
    9.4200   -0.0840   22.9530 N   0  0  0  0  0  0  0  0  0  0  0  0
    9.1870    1.1500   21.0630 O   0  0  0  0  0  0  0  0  0  0  0  0
    7.4483   -6.8833   26.5817 O   0  0  0  0  0  0  0  0  0  0  0  0
   13.9969    0.9202   24.2776 S   0  0  0  0  0  0  0  0  0  0  0  0
    3.2714    2.7873   19.3199 H   0  0  0  0  0  0  0  0  0  0  0  0
    3.6281    2.0093   21.6291 H   0  0  0  0  0  0  0  0  0  0  0  0
    4.7823    2.0669   17.4883 H   0  0  0  0  0  0  0  0  0  0  0  0
    5.4954    0.4562   22.1797 H   0  0  0  0  0  0  0  0  0  0  0  0
    7.5647   -2.8621   26.1053 H   0  0  0  0  0  0  0  0  0  0  0  0
   11.0144   -4.2642   23.9425 H   0  0  0  0  0  0  0  0  0  0  0  0
    7.5958   -0.7779   24.8006 H   0  0  0  0  0  0  0  0  0  0  0  0
   11.0406   -2.1848   22.6356 H   0  0  0  0  0  0  0  0  0  0  0  0
   11.8338    1.0798   21.3902 H   0  0  0  0  0  0  0  0  0  0  0  0
   14.4176    0.9966   21.8719 H   0  0  0  0  0  0  0  0  0  0  0  0
   12.0446    0.9149   25.7428 H   0  0  0  0  0  0  0  0  0  0  0  0
    8.7030   -3.9561   27.6574 H   0  0  0  0  0  0  0  0  0  0  0  0
    9.4460   -5.5639   27.8143 H   0  0  0  0  0  0  0  0  0  0  0  0
   10.0083   -6.8392   25.6817 H   0  0  0  0  0  0  0  0  0  0  0  0
    9.6089   -6.0802   24.1251 H   0  0  0  0  0  0  0  0  0  0  0  0
    7.0281   -5.7334   28.2231 H   0  0  0  0  0  0  0  0  0  0  0  0
    6.6541   -4.9678   26.6754 H   0  0  0  0  0  0  0  0  0  0  0  0
    7.1860   -6.2177   24.6318 H   0  0  0  0  0  0  0  0  0  0  0  0
    7.9246   -7.8119   24.8187 H   0  0  0  0  0  0  0  0  0  0  0  0
    9.6778    1.0140   24.6966 H   0  0  0  0  0  0  0  0  0  0  0  0
    9.6316    1.9637   23.2107 H   0  0  0  0  0  0  0  0  0  0  0  0
    8.7136   -1.7499   20.6462 H   0  0  0  0  0  0  0  0  0  0  0  0
    7.4415   -1.4060   21.8540 H   0  0  0  0  0  0  0  0  0  0  0  0
  1  2  1  0  0  0  0
  1  3  2  0  0  0  0
  2  4  2  0  0  0  0
  3 13  1  0  0  0  0
  4 14  1  0  0  0  0
  5  7  2  0  0  0  0
  5 15  1  0  0  0  0
  6  8  1  0  0  0  0
  6 15  2  0  0  0  0
  7 16  1  0  0  0  0
  8 16  2  0  0  0  0
  9 10  2  0  0  0  0
  9 12  1  0  0  0  0
 10 31  1  0  0  0  0
 11 12  2  0  0  0  0
 11 31  1  0  0  0  0
 12 22  1  0  0  0  0
 13 14  2  0  0  0  0
 13 24  1  0  0  0  0
 14 26  1  0  0  0  0
 15 27  1  0  0  0  0
 16 28  1  0  0  0  0
 17 23  1  0  0  0  0
 17 28  1  0  0  0  0
 17 29  2  0  0  0  0
 18 20  1  0  0  0  0
 18 27  1  0  0  0  0
 19 21  1  0  0  0  0
 19 27  1  0  0  0  0
 20 30  1  0  0  0  0
 21 30  1  0  0  0  0
 22 28  1  0  0  0  0
 23 26  1  0  0  0  0
 24 25  2  0  0  0  0
 25 26  1  0  0  0  0
  1 32  1  0  0  0  0
  2 33  1  0  0  0  0
  3 34  1  0  0  0  0
  4 35  1  0  0  0  0
  5 36  1  0  0  0  0
  6 37  1  0  0  0  0
  7 38  1  0  0  0  0
  8 39  1  0  0  0  0
  9 40  1  0  0  0  0
 10 41  1  0  0  0  0
 11 42  1  0  0  0  0
 18 43  1  0  0  0  0
 18 44  1  0  0  0  0
 19 45  1  0  0  0  0
 19 46  1  0  0  0  0
 20 47  1  0  0  0  0
 20 48  1  0  0  0  0
 21 49  1  0  0  0  0
 21 50  1  0  0  0  0
 22 51  1  0  0  0  0
 22 52  1  0  0  0  0
 23 53  1  0  0  0  0
 23 54  1  0  0  0  0
M  END
> <clash_score>
0

> <docking_score>
-9.318793296813965

> <overlap_score>
0.9908767938613892

$$$$
BENZO_365_1
  -OEChem-08222022423D

 53 56  0     0  0  0  0  0  0999 V2000
   14.3082    0.9431   23.4783 C   0  0  0  0  0  0  0  0  0  0  0  0
   13.6391    0.3091   24.5251 C   0  0  0  0  0  0  0  0  0  0  0  0
   13.5841    1.6096   22.4898 C   0  0  0  0  0  0  0  0  0  0  0  0
    4.0980    2.1130   19.5350 C   0  0  0  0  0  0  0  0  0  0  0  0
    4.2970    1.6690   20.8430 C   0  0  0  0  0  0  0  0  0  0  0  0
   12.2459    0.3415   24.5835 C   0  0  0  0  0  0  0  0  0  0  0  0
   12.1908    1.6420   22.5481 C   0  0  0  0  0  0  0  0  0  0  0  0
    4.9400    1.7060   18.5060 C   0  0  0  0  0  0  0  0  0  0  0  0
    5.3360    0.8000   21.1530 C   0  0  0  0  0  0  0  0  0  0  0  0
    8.3510   -1.5420   24.6110 C   0  0  0  0  0  0  0  0  0  0  0  0
   10.2760   -2.3270   23.4020 C   0  0  0  0  0  0  0  0  0  0  0  0
    8.3310   -2.7170   25.3430 C   0  0  0  0  0  0  0  0  0  0  0  0
   10.2570   -3.5000   24.1350 C   0  0  0  0  0  0  0  0  0  0  0  0
    7.6830   -0.5170   18.7600 C   0  0  0  0  0  0  0  0  0  0  0  0
   11.5217    1.0079   23.5949 C   0  0  0  0  0  0  0  0  0  0  0  0
    5.9810    0.8330   18.8060 C   0  0  0  0  0  0  0  0  0  0  0  0
    6.1600    0.3870   20.1140 C   0  0  0  0  0  0  0  0  0  0  0  0
    9.3300   -1.3350   23.6390 C   0  0  0  0  0  0  0  0  0  0  0  0
    9.2850   -3.7090   25.1090 C   0  0  0  0  0  0  0  0  0  0  0  0
    8.9510    0.1280   21.6880 C   0  0  0  0  0  0  0  0  0  0  0  0
    8.2499   -5.1180   26.8642 C   0  0  0  0  0  0  0  0  0  0  0  0
   10.2422   -5.9410   25.5984 C   0  0  0  0  0  0  0  0  0  0  0  0
   10.0220    1.0430   23.6570 C   0  0  0  0  0  0  0  0  0  0  0  0
    8.0810   -0.9750   21.0820 C   0  0  0  0  0  0  0  0  0  0  0  0
    6.9440    0.2550   18.0100 N   0  0  0  0  0  0  0  0  0  0  0  0
    7.2210   -0.4620   20.0350 N   0  0  0  0  0  0  0  0  0  0  0  0
    9.4200   -0.0840   22.9530 N   0  0  0  0  0  0  0  0  0  0  0  0
    9.2624   -4.9028   25.8498 N   0  0  0  0  0  0  0  0  0  0  0  0
    9.1870    1.1500   21.0630 O   0  0  0  0  0  0  0  0  0  0  0  0
   15.3932    0.9189   23.4337 H   0  0  0  0  0  0  0  0  0  0  0  0
   14.2028   -0.2090   25.2955 H   0  0  0  0  0  0  0  0  0  0  0  0
   14.1048    2.1043   21.6752 H   0  0  0  0  0  0  0  0  0  0  0  0
    3.2711    2.7875   19.3201 H   0  0  0  0  0  0  0  0  0  0  0  0
    3.6281    2.0095   21.6292 H   0  0  0  0  0  0  0  0  0  0  0  0
   11.7330   -0.1555   25.4027 H   0  0  0  0  0  0  0  0  0  0  0  0
   11.6349    2.1636   21.7735 H   0  0  0  0  0  0  0  0  0  0  0  0
    4.7815    2.0665   17.4902 H   0  0  0  0  0  0  0  0  0  0  0  0
    5.4939    0.4577   22.1786 H   0  0  0  0  0  0  0  0  0  0  0  0
    7.5947   -0.7787   24.7997 H   0  0  0  0  0  0  0  0  0  0  0  0
   11.0404   -2.1861   22.6352 H   0  0  0  0  0  0  0  0  0  0  0  0
    7.5641   -2.8632   26.1047 H   0  0  0  0  0  0  0  0  0  0  0  0
   11.0135   -4.2647   23.9425 H   0  0  0  0  0  0  0  0  0  0  0  0
    8.5167   -1.1056   18.4550 H   0  0  0  0  0  0  0  0  0  0  0  0
    8.3988   -6.1043   27.3281 H   0  0  0  0  0  0  0  0  0  0  0  0
    8.3293   -4.3355   27.6332 H   0  0  0  0  0  0  0  0  0  0  0  0
    7.2529   -5.0774   26.4013 H   0  0  0  0  0  0  0  0  0  0  0  0
   10.0589   -6.7900   26.2734 H   0  0  0  0  0  0  0  0  0  0  0  0
   10.1595   -6.2780   24.5546 H   0  0  0  0  0  0  0  0  0  0  0  0
   11.2520   -5.5428   25.7763 H   0  0  0  0  0  0  0  0  0  0  0  0
    9.6778    1.0140   24.6966 H   0  0  0  0  0  0  0  0  0  0  0  0
    9.6316    1.9637   23.2107 H   0  0  0  0  0  0  0  0  0  0  0  0
    8.7073   -1.7481   20.6391 H   0  0  0  0  0  0  0  0  0  0  0  0
    7.4352   -1.4043   21.8468 H   0  0  0  0  0  0  0  0  0  0  0  0
  1  2  1  0  0  0  0
  1  3  2  0  0  0  0
  2  6  2  0  0  0  0
  3  7  1  0  0  0  0
  4  5  1  0  0  0  0
  4  8  2  0  0  0  0
  5  9  2  0  0  0  0
  6 15  1  0  0  0  0
  7 15  2  0  0  0  0
  8 16  1  0  0  0  0
  9 17  1  0  0  0  0
 10 12  2  0  0  0  0
 10 18  1  0  0  0  0
 11 13  1  0  0  0  0
 11 18  2  0  0  0  0
 12 19  1  0  0  0  0
 13 19  2  0  0  0  0
 14 25  2  0  0  0  0
 14 26  1  0  0  0  0
 15 23  1  0  0  0  0
 16 17  2  0  0  0  0
 16 25  1  0  0  0  0
 17 26  1  0  0  0  0
 18 27  1  0  0  0  0
 19 28  1  0  0  0  0
 20 24  1  0  0  0  0
 20 27  1  0  0  0  0
 20 29  2  0  0  0  0
 21 28  1  0  0  0  0
 22 28  1  0  0  0  0
 23 27  1  0  0  0  0
 24 26  1  0  0  0  0
  1 30  1  0  0  0  0
  2 31  1  0  0  0  0
  3 32  1  0  0  0  0
  4 33  1  0  0  0  0
  5 34  1  0  0  0  0
  6 35  1  0  0  0  0
  7 36  1  0  0  0  0
  8 37  1  0  0  0  0
  9 38  1  0  0  0  0
 10 39  1  0  0  0  0
 11 40  1  0  0  0  0
 12 41  1  0  0  0  0
 13 42  1  0  0  0  0
 14 43  1  0  0  0  0
 21 44  1  0  0  0  0
 21 45  1  0  0  0  0
 21 46  1  0  0  0  0
 22 47  1  0  0  0  0
 22 48  1  0  0  0  0
 22 49  1  0  0  0  0
 23 50  1  0  0  0  0
 23 51  1  0  0  0  0
 24 52  1  0  0  0  0
 24 53  1  0  0  0  0
M  END
> <clash_score>
0

> <docking_score>
-10.408259391784668

> <overlap_score>
1.0030865669250488

$$$$
BENZO_364_1
  -OEChem-08222022423D

 50 53  0     0  0  0  0  0  0999 V2000
    4.0980    2.1130   19.5350 C   0  0  0  0  0  0  0  0  0  0  0  0
    4.2970    1.6690   20.8430 C   0  0  0  0  0  0  0  0  0  0  0  0
    4.9400    1.7060   18.5060 C   0  0  0  0  0  0  0  0  0  0  0  0
    5.3360    0.8000   21.1530 C   0  0  0  0  0  0  0  0  0  0  0  0
    8.3510   -1.5420   24.6110 C   0  0  0  0  0  0  0  0  0  0  0  0
   10.2760   -2.3270   23.4020 C   0  0  0  0  0  0  0  0  0  0  0  0
    8.3310   -2.7170   25.3430 C   0  0  0  0  0  0  0  0  0  0  0  0
   10.2570   -3.5000   24.1350 C   0  0  0  0  0  0  0  0  0  0  0  0
   12.2675    1.0332   22.3812 C   0  0  0  0  0  0  0  0  0  0  0  0
   13.6257    0.9906   22.6074 C   0  0  0  0  0  0  0  0  0  0  0  0
   12.3384    0.9467   24.7028 C   0  0  0  0  0  0  0  0  0  0  0  0
    7.6830   -0.5170   18.7600 C   0  0  0  0  0  0  0  0  0  0  0  0
   11.5217    1.0079   23.5949 C   0  0  0  0  0  0  0  0  0  0  0  0
    5.9810    0.8330   18.8060 C   0  0  0  0  0  0  0  0  0  0  0  0
    6.1600    0.3870   20.1140 C   0  0  0  0  0  0  0  0  0  0  0  0
    9.3300   -1.3350   23.6390 C   0  0  0  0  0  0  0  0  0  0  0  0
    9.2850   -3.7090   25.1090 C   0  0  0  0  0  0  0  0  0  0  0  0
    8.9510    0.1280   21.6880 C   0  0  0  0  0  0  0  0  0  0  0  0
    8.2499   -5.1180   26.8642 C   0  0  0  0  0  0  0  0  0  0  0  0
   10.2422   -5.9410   25.5984 C   0  0  0  0  0  0  0  0  0  0  0  0
   10.0220    1.0430   23.6570 C   0  0  0  0  0  0  0  0  0  0  0  0
    8.0810   -0.9750   21.0820 C   0  0  0  0  0  0  0  0  0  0  0  0
    6.9440    0.2550   18.0100 N   0  0  0  0  0  0  0  0  0  0  0  0
    7.2210   -0.4620   20.0350 N   0  0  0  0  0  0  0  0  0  0  0  0
    9.4200   -0.0840   22.9530 N   0  0  0  0  0  0  0  0  0  0  0  0
    9.2624   -4.9028   25.8498 N   0  0  0  0  0  0  0  0  0  0  0  0
    9.1870    1.1500   21.0630 O   0  0  0  0  0  0  0  0  0  0  0  0
   13.9969    0.9202   24.2776 S   0  0  0  0  0  0  0  0  0  0  0  0
    3.2711    2.7875   19.3201 H   0  0  0  0  0  0  0  0  0  0  0  0
    3.6281    2.0095   21.6292 H   0  0  0  0  0  0  0  0  0  0  0  0
    4.7815    2.0665   17.4902 H   0  0  0  0  0  0  0  0  0  0  0  0
    5.4939    0.4577   22.1786 H   0  0  0  0  0  0  0  0  0  0  0  0
    7.5947   -0.7787   24.7997 H   0  0  0  0  0  0  0  0  0  0  0  0
   11.0404   -2.1861   22.6352 H   0  0  0  0  0  0  0  0  0  0  0  0
    7.5641   -2.8632   26.1047 H   0  0  0  0  0  0  0  0  0  0  0  0
   11.0135   -4.2647   23.9425 H   0  0  0  0  0  0  0  0  0  0  0  0
   11.8338    1.0798   21.3902 H   0  0  0  0  0  0  0  0  0  0  0  0
   14.4176    0.9966   21.8719 H   0  0  0  0  0  0  0  0  0  0  0  0
   12.0446    0.9149   25.7428 H   0  0  0  0  0  0  0  0  0  0  0  0
    8.5167   -1.1056   18.4550 H   0  0  0  0  0  0  0  0  0  0  0  0
    8.3988   -6.1043   27.3281 H   0  0  0  0  0  0  0  0  0  0  0  0
    8.3293   -4.3355   27.6332 H   0  0  0  0  0  0  0  0  0  0  0  0
    7.2529   -5.0774   26.4013 H   0  0  0  0  0  0  0  0  0  0  0  0
   10.0589   -6.7900   26.2734 H   0  0  0  0  0  0  0  0  0  0  0  0
   10.1595   -6.2780   24.5546 H   0  0  0  0  0  0  0  0  0  0  0  0
   11.2520   -5.5428   25.7763 H   0  0  0  0  0  0  0  0  0  0  0  0
    9.6778    1.0140   24.6966 H   0  0  0  0  0  0  0  0  0  0  0  0
    9.6316    1.9637   23.2107 H   0  0  0  0  0  0  0  0  0  0  0  0
    8.7073   -1.7481   20.6391 H   0  0  0  0  0  0  0  0  0  0  0  0
    7.4352   -1.4043   21.8468 H   0  0  0  0  0  0  0  0  0  0  0  0
  1  2  1  0  0  0  0
  1  3  2  0  0  0  0
  2  4  2  0  0  0  0
  3 14  1  0  0  0  0
  4 15  1  0  0  0  0
  5  7  2  0  0  0  0
  5 16  1  0  0  0  0
  6  8  1  0  0  0  0
  6 16  2  0  0  0  0
  7 17  1  0  0  0  0
  8 17  2  0  0  0  0
  9 10  2  0  0  0  0
  9 13  1  0  0  0  0
 10 28  1  0  0  0  0
 11 13  2  0  0  0  0
 11 28  1  0  0  0  0
 12 23  2  0  0  0  0
 12 24  1  0  0  0  0
 13 21  1  0  0  0  0
 14 15  2  0  0  0  0
 14 23  1  0  0  0  0
 15 24  1  0  0  0  0
 16 25  1  0  0  0  0
 17 26  1  0  0  0  0
 18 22  1  0  0  0  0
 18 25  1  0  0  0  0
 18 27  2  0  0  0  0
 19 26  1  0  0  0  0
 20 26  1  0  0  0  0
 21 25  1  0  0  0  0
 22 24  1  0  0  0  0
  1 29  1  0  0  0  0
  2 30  1  0  0  0  0
  3 31  1  0  0  0  0
  4 32  1  0  0  0  0
  5 33  1  0  0  0  0
  6 34  1  0  0  0  0
  7 35  1  0  0  0  0
  8 36  1  0  0  0  0
  9 37  1  0  0  0  0
 10 38  1  0  0  0  0
 11 39  1  0  0  0  0
 12 40  1  0  0  0  0
 19 41  1  0  0  0  0
 19 42  1  0  0  0  0
 19 43  1  0  0  0  0
 20 44  1  0  0  0  0
 20 45  1  0  0  0  0
 20 46  1  0  0  0  0
 21 47  1  0  0  0  0
 21 48  1  0  0  0  0
 22 49  1  0  0  0  0
 22 50  1  0  0  0  0
M  END
> <clash_score>
0

> <docking_score>
-10.654462814331055

> <overlap_score>
0.9772631525993347

$$$$
BENZO_363_1
  -OEChem-08222022423D

 57 61  0     0  0  0  0  0  0999 V2000
    4.0980    2.1130   19.5350 C   0  0  0  0  0  0  0  0  0  0  0  0
    4.2970    1.6690   20.8430 C   0  0  0  0  0  0  0  0  0  0  0  0
    4.9400    1.7060   18.5060 C   0  0  0  0  0  0  0  0  0  0  0  0
    5.3360    0.8000   21.1530 C   0  0  0  0  0  0  0  0  0  0  0  0
    8.3310   -2.7170   25.3430 C   0  0  0  0  0  0  0  0  0  0  0  0
   10.2570   -3.5000   24.1350 C   0  0  0  0  0  0  0  0  0  0  0  0
    8.3510   -1.5420   24.6110 C   0  0  0  0  0  0  0  0  0  0  0  0
   10.2760   -2.3270   23.4020 C   0  0  0  0  0  0  0  0  0  0  0  0
   12.4359    1.7439   24.3724 C   0  0  0  0  0  0  0  0  0  0  0  0
   12.3100    0.2469   22.7668 C   0  0  0  0  0  0  0  0  0  0  0  0
   11.5217    1.0079   23.5949 C   0  0  0  0  0  0  0  0  0  0  0  0
    5.9810    0.8330   18.8060 C   0  0  0  0  0  0  0  0  0  0  0  0
    6.1600    0.3870   20.1140 C   0  0  0  0  0  0  0  0  0  0  0  0
    9.2850   -3.7090   25.1090 C   0  0  0  0  0  0  0  0  0  0  0  0
    9.3300   -1.3350   23.6390 C   0  0  0  0  0  0  0  0  0  0  0  0
    8.9510    0.1280   21.6880 C   0  0  0  0  0  0  0  0  0  0  0  0
    8.7666   -4.9523   27.2147 C   0  0  0  0  0  0  0  0  0  0  0  0
    9.3034   -6.1866   25.1651 C   0  0  0  0  0  0  0  0  0  0  0  0
    7.3827   -5.5925   27.1999 C   0  0  0  0  0  0  0  0  0  0  0  0
    7.9024   -6.7967   25.2263 C   0  0  0  0  0  0  0  0  0  0  0  0
   14.7884    0.0124   22.4815 C   0  0  0  0  0  0  0  0  0  0  0  0
   10.0220    1.0430   23.6570 C   0  0  0  0  0  0  0  0  0  0  0  0
    8.0810   -0.9750   21.0820 C   0  0  0  0  0  0  0  0  0  0  0  0
   13.7076    1.4745   24.0657 N   0  0  0  0  0  0  0  0  0  0  0  0
    6.9440    0.2550   18.0100 N   0  0  0  0  0  0  0  0  0  0  0  0
    7.6830   -0.5170   18.7600 N   0  0  0  0  0  0  0  0  0  0  0  0
   13.5982    0.5607   23.0864 N   0  0  0  0  0  0  0  0  0  0  0  0
    7.2210   -0.4620   20.0350 N   0  0  0  0  0  0  0  0  0  0  0  0
    9.2640   -4.8844   25.8389 N   0  0  0  0  0  0  0  0  0  0  0  0
    9.4200   -0.0840   22.9530 N   0  0  0  0  0  0  0  0  0  0  0  0
    9.1870    1.1500   21.0630 O   0  0  0  0  0  0  0  0  0  0  0  0
    7.4483   -6.8833   26.5817 O   0  0  0  0  0  0  0  0  0  0  0  0
    3.2714    2.7873   19.3199 H   0  0  0  0  0  0  0  0  0  0  0  0
    3.6281    2.0093   21.6291 H   0  0  0  0  0  0  0  0  0  0  0  0
    4.7823    2.0669   17.4883 H   0  0  0  0  0  0  0  0  0  0  0  0
    5.4954    0.4562   22.1797 H   0  0  0  0  0  0  0  0  0  0  0  0
    7.5647   -2.8621   26.1053 H   0  0  0  0  0  0  0  0  0  0  0  0
   11.0144   -4.2642   23.9425 H   0  0  0  0  0  0  0  0  0  0  0  0
    7.5958   -0.7779   24.8006 H   0  0  0  0  0  0  0  0  0  0  0  0
   11.0406   -2.1848   22.6356 H   0  0  0  0  0  0  0  0  0  0  0  0
   12.2308    2.4652   25.1508 H   0  0  0  0  0  0  0  0  0  0  0  0
   12.0700   -0.4744   21.9974 H   0  0  0  0  0  0  0  0  0  0  0  0
    8.7030   -3.9561   27.6574 H   0  0  0  0  0  0  0  0  0  0  0  0
    9.4460   -5.5639   27.8143 H   0  0  0  0  0  0  0  0  0  0  0  0
   10.0083   -6.8392   25.6817 H   0  0  0  0  0  0  0  0  0  0  0  0
    9.6089   -6.0802   24.1251 H   0  0  0  0  0  0  0  0  0  0  0  0
    7.0281   -5.7334   28.2231 H   0  0  0  0  0  0  0  0  0  0  0  0
    6.6541   -4.9678   26.6754 H   0  0  0  0  0  0  0  0  0  0  0  0
    7.1860   -6.2177   24.6318 H   0  0  0  0  0  0  0  0  0  0  0  0
    7.9246   -7.8119   24.8187 H   0  0  0  0  0  0  0  0  0  0  0  0
   15.0569    0.6453   21.6315 H   0  0  0  0  0  0  0  0  0  0  0  0
   15.5971   -0.0026   23.2174 H   0  0  0  0  0  0  0  0  0  0  0  0
   14.5870   -1.0100   22.1498 H   0  0  0  0  0  0  0  0  0  0  0  0
    9.6778    1.0140   24.6966 H   0  0  0  0  0  0  0  0  0  0  0  0
    9.6316    1.9637   23.2107 H   0  0  0  0  0  0  0  0  0  0  0  0
    8.7136   -1.7499   20.6462 H   0  0  0  0  0  0  0  0  0  0  0  0
    7.4415   -1.4060   21.8540 H   0  0  0  0  0  0  0  0  0  0  0  0
  1  2  1  0  0  0  0
  1  3  2  0  0  0  0
  2  4  2  0  0  0  0
  3 12  1  0  0  0  0
  4 13  1  0  0  0  0
  5  7  2  0  0  0  0
  5 14  1  0  0  0  0
  6  8  1  0  0  0  0
  6 14  2  0  0  0  0
  7 15  1  0  0  0  0
  8 15  2  0  0  0  0
  9 11  1  0  0  0  0
  9 24  2  0  0  0  0
 10 11  2  0  0  0  0
 10 27  1  0  0  0  0
 11 22  1  0  0  0  0
 12 13  2  0  0  0  0
 12 25  1  0  0  0  0
 13 28  1  0  0  0  0
 14 29  1  0  0  0  0
 15 30  1  0  0  0  0
 16 23  1  0  0  0  0
 16 30  1  0  0  0  0
 16 31  2  0  0  0  0
 17 19  1  0  0  0  0
 17 29  1  0  0  0  0
 18 20  1  0  0  0  0
 18 29  1  0  0  0  0
 19 32  1  0  0  0  0
 20 32  1  0  0  0  0
 21 27  1  0  0  0  0
 22 30  1  0  0  0  0
 23 28  1  0  0  0  0
 24 27  1  0  0  0  0
 25 26  2  0  0  0  0
 26 28  1  0  0  0  0
  1 33  1  0  0  0  0
  2 34  1  0  0  0  0
  3 35  1  0  0  0  0
  4 36  1  0  0  0  0
  5 37  1  0  0  0  0
  6 38  1  0  0  0  0
  7 39  1  0  0  0  0
  8 40  1  0  0  0  0
  9 41  1  0  0  0  0
 10 42  1  0  0  0  0
 17 43  1  0  0  0  0
 17 44  1  0  0  0  0
 18 45  1  0  0  0  0
 18 46  1  0  0  0  0
 19 47  1  0  0  0  0
 19 48  1  0  0  0  0
 20 49  1  0  0  0  0
 20 50  1  0  0  0  0
 21 51  1  0  0  0  0
 21 52  1  0  0  0  0
 21 53  1  0  0  0  0
 22 54  1  0  0  0  0
 22 55  1  0  0  0  0
 23 56  1  0  0  0  0
 23 57  1  0  0  0  0
M  END
> <clash_score>
0

> <docking_score>
-9.287205696105957

> <overlap_score>
1.0026935338974

$$$$
BENZO_362_1
  -OEChem-08222022423D

 57 61  0     0  0  0  0  0  0999 V2000
    4.0980    2.1130   19.5350 C   0  0  0  0  0  0  0  0  0  0  0  0
    4.2970    1.6690   20.8430 C   0  0  0  0  0  0  0  0  0  0  0  0
   13.5977    1.8457   22.6865 C   0  0  0  0  0  0  0  0  0  0  0  0
   12.2044    1.8769   22.7438 C   0  0  0  0  0  0  0  0  0  0  0  0
    4.9400    1.7060   18.5060 C   0  0  0  0  0  0  0  0  0  0  0  0
    5.3360    0.8000   21.1530 C   0  0  0  0  0  0  0  0  0  0  0  0
    8.3310   -2.7170   25.3430 C   0  0  0  0  0  0  0  0  0  0  0  0
   10.2570   -3.5000   24.1350 C   0  0  0  0  0  0  0  0  0  0  0  0
    8.3510   -1.5420   24.6110 C   0  0  0  0  0  0  0  0  0  0  0  0
   10.2760   -2.3270   23.4020 C   0  0  0  0  0  0  0  0  0  0  0  0
   14.3084    0.9454   23.4803 C   0  0  0  0  0  0  0  0  0  0  0  0
   12.2323    0.1076   24.3888 C   0  0  0  0  0  0  0  0  0  0  0  0
   11.5217    1.0079   23.5949 C   0  0  0  0  0  0  0  0  0  0  0  0
    5.9810    0.8330   18.8060 C   0  0  0  0  0  0  0  0  0  0  0  0
    6.1600    0.3870   20.1140 C   0  0  0  0  0  0  0  0  0  0  0  0
    9.2850   -3.7090   25.1090 C   0  0  0  0  0  0  0  0  0  0  0  0
    9.3300   -1.3350   23.6390 C   0  0  0  0  0  0  0  0  0  0  0  0
   13.6257    0.0764   24.3314 C   0  0  0  0  0  0  0  0  0  0  0  0
    8.9510    0.1280   21.6880 C   0  0  0  0  0  0  0  0  0  0  0  0
    8.7666   -4.9523   27.2147 C   0  0  0  0  0  0  0  0  0  0  0  0
    9.3034   -6.1866   25.1651 C   0  0  0  0  0  0  0  0  0  0  0  0
    7.3827   -5.5925   27.1999 C   0  0  0  0  0  0  0  0  0  0  0  0
    7.9024   -6.7967   25.2263 C   0  0  0  0  0  0  0  0  0  0  0  0
   10.0220    1.0430   23.6570 C   0  0  0  0  0  0  0  0  0  0  0  0
    8.0810   -0.9750   21.0820 C   0  0  0  0  0  0  0  0  0  0  0  0
    6.9440    0.2550   18.0100 N   0  0  0  0  0  0  0  0  0  0  0  0
    7.6830   -0.5170   18.7600 N   0  0  0  0  0  0  0  0  0  0  0  0
    7.2210   -0.4620   20.0350 N   0  0  0  0  0  0  0  0  0  0  0  0
    9.2640   -4.8844   25.8389 N   0  0  0  0  0  0  0  0  0  0  0  0
    9.4200   -0.0840   22.9530 N   0  0  0  0  0  0  0  0  0  0  0  0
    9.1870    1.1500   21.0630 O   0  0  0  0  0  0  0  0  0  0  0  0
    7.4483   -6.8833   26.5817 O   0  0  0  0  0  0  0  0  0  0  0  0
   14.5031   -1.0334   25.3114 Cl  0  0  0  0  0  0  0  0  0  0  0  0
    3.2714    2.7873   19.3199 H   0  0  0  0  0  0  0  0  0  0  0  0
    3.6281    2.0093   21.6291 H   0  0  0  0  0  0  0  0  0  0  0  0
   14.1289    2.5226   22.0237 H   0  0  0  0  0  0  0  0  0  0  0  0
   11.6588    2.5818   22.1218 H   0  0  0  0  0  0  0  0  0  0  0  0
    4.7823    2.0669   17.4883 H   0  0  0  0  0  0  0  0  0  0  0  0
    5.4954    0.4562   22.1797 H   0  0  0  0  0  0  0  0  0  0  0  0
    7.5647   -2.8621   26.1053 H   0  0  0  0  0  0  0  0  0  0  0  0
   11.0144   -4.2642   23.9425 H   0  0  0  0  0  0  0  0  0  0  0  0
    7.5958   -0.7779   24.8006 H   0  0  0  0  0  0  0  0  0  0  0  0
   11.0406   -2.1848   22.6356 H   0  0  0  0  0  0  0  0  0  0  0  0
   15.3941    0.9323   23.4255 H   0  0  0  0  0  0  0  0  0  0  0  0
   11.6954   -0.5682   25.0504 H   0  0  0  0  0  0  0  0  0  0  0  0
    8.7030   -3.9561   27.6574 H   0  0  0  0  0  0  0  0  0  0  0  0
    9.4460   -5.5639   27.8143 H   0  0  0  0  0  0  0  0  0  0  0  0
   10.0083   -6.8392   25.6817 H   0  0  0  0  0  0  0  0  0  0  0  0
    9.6089   -6.0802   24.1251 H   0  0  0  0  0  0  0  0  0  0  0  0
    7.0281   -5.7334   28.2231 H   0  0  0  0  0  0  0  0  0  0  0  0
    6.6541   -4.9678   26.6754 H   0  0  0  0  0  0  0  0  0  0  0  0
    7.1860   -6.2177   24.6318 H   0  0  0  0  0  0  0  0  0  0  0  0
    7.9246   -7.8119   24.8187 H   0  0  0  0  0  0  0  0  0  0  0  0
    9.6778    1.0140   24.6966 H   0  0  0  0  0  0  0  0  0  0  0  0
    9.6316    1.9637   23.2107 H   0  0  0  0  0  0  0  0  0  0  0  0
    8.7136   -1.7499   20.6462 H   0  0  0  0  0  0  0  0  0  0  0  0
    7.4415   -1.4060   21.8540 H   0  0  0  0  0  0  0  0  0  0  0  0
  1  2  1  0  0  0  0
  1  5  2  0  0  0  0
  2  6  2  0  0  0  0
  3  4  2  0  0  0  0
  3 11  1  0  0  0  0
  4 13  1  0  0  0  0
  5 14  1  0  0  0  0
  6 15  1  0  0  0  0
  7  9  2  0  0  0  0
  7 16  1  0  0  0  0
  8 10  1  0  0  0  0
  8 16  2  0  0  0  0
  9 17  1  0  0  0  0
 10 17  2  0  0  0  0
 11 18  2  0  0  0  0
 12 13  2  0  0  0  0
 12 18  1  0  0  0  0
 13 24  1  0  0  0  0
 14 15  2  0  0  0  0
 14 26  1  0  0  0  0
 15 28  1  0  0  0  0
 16 29  1  0  0  0  0
 17 30  1  0  0  0  0
 18 33  1  0  0  0  0
 19 25  1  0  0  0  0
 19 30  1  0  0  0  0
 19 31  2  0  0  0  0
 20 22  1  0  0  0  0
 20 29  1  0  0  0  0
 21 23  1  0  0  0  0
 21 29  1  0  0  0  0
 22 32  1  0  0  0  0
 23 32  1  0  0  0  0
 24 30  1  0  0  0  0
 25 28  1  0  0  0  0
 26 27  2  0  0  0  0
 27 28  1  0  0  0  0
  1 34  1  0  0  0  0
  2 35  1  0  0  0  0
  3 36  1  0  0  0  0
  4 37  1  0  0  0  0
  5 38  1  0  0  0  0
  6 39  1  0  0  0  0
  7 40  1  0  0  0  0
  8 41  1  0  0  0  0
  9 42  1  0  0  0  0
 10 43  1  0  0  0  0
 11 44  1  0  0  0  0
 12 45  1  0  0  0  0
 20 46  1  0  0  0  0
 20 47  1  0  0  0  0
 21 48  1  0  0  0  0
 21 49  1  0  0  0  0
 22 50  1  0  0  0  0
 22 51  1  0  0  0  0
 23 52  1  0  0  0  0
 23 53  1  0  0  0  0
 24 54  1  0  0  0  0
 24 55  1  0  0  0  0
 25 56  1  0  0  0  0
 25 57  1  0  0  0  0
M  END
> <clash_score>
0.766244867567892

> <docking_score>
-8.254494667053223

> <overlap_score>
1.021671175956726

$$$$
BENZO_367_1
  -OEChem-08222022423D

 53 56  0     0  0  0  0  0  0999 V2000
    4.0980    2.1130   19.5350 C   0  0  0  0  0  0  0  0  0  0  0  0
    4.2970    1.6690   20.8430 C   0  0  0  0  0  0  0  0  0  0  0  0
    4.9400    1.7060   18.5060 C   0  0  0  0  0  0  0  0  0  0  0  0
    5.3360    0.8000   21.1530 C   0  0  0  0  0  0  0  0  0  0  0  0
    8.3510   -1.5420   24.6110 C   0  0  0  0  0  0  0  0  0  0  0  0
   10.2760   -2.3270   23.4020 C   0  0  0  0  0  0  0  0  0  0  0  0
    8.3310   -2.7170   25.3430 C   0  0  0  0  0  0  0  0  0  0  0  0
   10.2570   -3.5000   24.1350 C   0  0  0  0  0  0  0  0  0  0  0  0
   12.4359    1.7439   24.3724 C   0  0  0  0  0  0  0  0  0  0  0  0
   12.3100    0.2469   22.7668 C   0  0  0  0  0  0  0  0  0  0  0  0
    7.6830   -0.5170   18.7600 C   0  0  0  0  0  0  0  0  0  0  0  0
   11.5217    1.0079   23.5949 C   0  0  0  0  0  0  0  0  0  0  0  0
    5.9810    0.8330   18.8060 C   0  0  0  0  0  0  0  0  0  0  0  0
    6.1600    0.3870   20.1140 C   0  0  0  0  0  0  0  0  0  0  0  0
    9.3300   -1.3350   23.6390 C   0  0  0  0  0  0  0  0  0  0  0  0
    9.2850   -3.7090   25.1090 C   0  0  0  0  0  0  0  0  0  0  0  0
    8.9510    0.1280   21.6880 C   0  0  0  0  0  0  0  0  0  0  0  0
   14.7884    0.0124   22.4815 C   0  0  0  0  0  0  0  0  0  0  0  0
    8.2499   -5.1180   26.8642 C   0  0  0  0  0  0  0  0  0  0  0  0
   10.2422   -5.9410   25.5984 C   0  0  0  0  0  0  0  0  0  0  0  0
   10.0220    1.0430   23.6570 C   0  0  0  0  0  0  0  0  0  0  0  0
    8.0810   -0.9750   21.0820 C   0  0  0  0  0  0  0  0  0  0  0  0
   13.7076    1.4745   24.0657 N   0  0  0  0  0  0  0  0  0  0  0  0
    6.9440    0.2550   18.0100 N   0  0  0  0  0  0  0  0  0  0  0  0
   13.5982    0.5607   23.0864 N   0  0  0  0  0  0  0  0  0  0  0  0
    7.2210   -0.4620   20.0350 N   0  0  0  0  0  0  0  0  0  0  0  0
    9.4200   -0.0840   22.9530 N   0  0  0  0  0  0  0  0  0  0  0  0
    9.2624   -4.9028   25.8498 N   0  0  0  0  0  0  0  0  0  0  0  0
    9.1870    1.1500   21.0630 O   0  0  0  0  0  0  0  0  0  0  0  0
    3.2711    2.7875   19.3201 H   0  0  0  0  0  0  0  0  0  0  0  0
    3.6281    2.0095   21.6292 H   0  0  0  0  0  0  0  0  0  0  0  0
    4.7815    2.0665   17.4902 H   0  0  0  0  0  0  0  0  0  0  0  0
    5.4939    0.4577   22.1786 H   0  0  0  0  0  0  0  0  0  0  0  0
    7.5947   -0.7787   24.7997 H   0  0  0  0  0  0  0  0  0  0  0  0
   11.0404   -2.1861   22.6352 H   0  0  0  0  0  0  0  0  0  0  0  0
    7.5641   -2.8632   26.1047 H   0  0  0  0  0  0  0  0  0  0  0  0
   11.0135   -4.2647   23.9425 H   0  0  0  0  0  0  0  0  0  0  0  0
   12.2308    2.4652   25.1508 H   0  0  0  0  0  0  0  0  0  0  0  0
   12.0700   -0.4744   21.9974 H   0  0  0  0  0  0  0  0  0  0  0  0
    8.5167   -1.1056   18.4550 H   0  0  0  0  0  0  0  0  0  0  0  0
   15.0569    0.6453   21.6315 H   0  0  0  0  0  0  0  0  0  0  0  0
   15.5971   -0.0026   23.2174 H   0  0  0  0  0  0  0  0  0  0  0  0
   14.5870   -1.0100   22.1498 H   0  0  0  0  0  0  0  0  0  0  0  0
    8.3988   -6.1043   27.3281 H   0  0  0  0  0  0  0  0  0  0  0  0
    8.3293   -4.3355   27.6332 H   0  0  0  0  0  0  0  0  0  0  0  0
    7.2529   -5.0774   26.4013 H   0  0  0  0  0  0  0  0  0  0  0  0
   10.0589   -6.7900   26.2734 H   0  0  0  0  0  0  0  0  0  0  0  0
   10.1595   -6.2780   24.5546 H   0  0  0  0  0  0  0  0  0  0  0  0
   11.2520   -5.5428   25.7763 H   0  0  0  0  0  0  0  0  0  0  0  0
    9.6778    1.0140   24.6966 H   0  0  0  0  0  0  0  0  0  0  0  0
    9.6316    1.9637   23.2107 H   0  0  0  0  0  0  0  0  0  0  0  0
    8.7073   -1.7481   20.6391 H   0  0  0  0  0  0  0  0  0  0  0  0
    7.4352   -1.4043   21.8468 H   0  0  0  0  0  0  0  0  0  0  0  0
  1  2  1  0  0  0  0
  1  3  2  0  0  0  0
  2  4  2  0  0  0  0
  3 13  1  0  0  0  0
  4 14  1  0  0  0  0
  5  7  2  0  0  0  0
  5 15  1  0  0  0  0
  6  8  1  0  0  0  0
  6 15  2  0  0  0  0
  7 16  1  0  0  0  0
  8 16  2  0  0  0  0
  9 12  1  0  0  0  0
  9 23  2  0  0  0  0
 10 12  2  0  0  0  0
 10 25  1  0  0  0  0
 11 24  2  0  0  0  0
 11 26  1  0  0  0  0
 12 21  1  0  0  0  0
 13 14  2  0  0  0  0
 13 24  1  0  0  0  0
 14 26  1  0  0  0  0
 15 27  1  0  0  0  0
 16 28  1  0  0  0  0
 17 22  1  0  0  0  0
 17 27  1  0  0  0  0
 17 29  2  0  0  0  0
 18 25  1  0  0  0  0
 19 28  1  0  0  0  0
 20 28  1  0  0  0  0
 21 27  1  0  0  0  0
 22 26  1  0  0  0  0
 23 25  1  0  0  0  0
  1 30  1  0  0  0  0
  2 31  1  0  0  0  0
  3 32  1  0  0  0  0
  4 33  1  0  0  0  0
  5 34  1  0  0  0  0
  6 35  1  0  0  0  0
  7 36  1  0  0  0  0
  8 37  1  0  0  0  0
  9 38  1  0  0  0  0
 10 39  1  0  0  0  0
 11 40  1  0  0  0  0
 18 41  1  0  0  0  0
 18 42  1  0  0  0  0
 18 43  1  0  0  0  0
 19 44  1  0  0  0  0
 19 45  1  0  0  0  0
 19 46  1  0  0  0  0
 20 47  1  0  0  0  0
 20 48  1  0  0  0  0
 20 49  1  0  0  0  0
 21 50  1  0  0  0  0
 21 51  1  0  0  0  0
 22 52  1  0  0  0  0
 22 53  1  0  0  0  0
M  END
> <clash_score>
0

> <docking_score>
-10.622859001159668

> <overlap_score>
0.9891872406005859

$$$$
BENZO_366_1
  -OEChem-08222022423D

 53 56  0     0  0  0  0  0  0999 V2000
    4.0980    2.1130   19.5350 C   0  0  0  0  0  0  0  0  0  0  0  0
    4.2970    1.6690   20.8430 C   0  0  0  0  0  0  0  0  0  0  0  0
   13.5977    1.8457   22.6865 C   0  0  0  0  0  0  0  0  0  0  0  0
   12.2044    1.8769   22.7438 C   0  0  0  0  0  0  0  0  0  0  0  0
    4.9400    1.7060   18.5060 C   0  0  0  0  0  0  0  0  0  0  0  0
    5.3360    0.8000   21.1530 C   0  0  0  0  0  0  0  0  0  0  0  0
    8.3510   -1.5420   24.6110 C   0  0  0  0  0  0  0  0  0  0  0  0
   10.2760   -2.3270   23.4020 C   0  0  0  0  0  0  0  0  0  0  0  0
    8.3310   -2.7170   25.3430 C   0  0  0  0  0  0  0  0  0  0  0  0
   10.2570   -3.5000   24.1350 C   0  0  0  0  0  0  0  0  0  0  0  0
   14.3084    0.9454   23.4803 C   0  0  0  0  0  0  0  0  0  0  0  0
   12.2323    0.1076   24.3888 C   0  0  0  0  0  0  0  0  0  0  0  0
    7.6830   -0.5170   18.7600 C   0  0  0  0  0  0  0  0  0  0  0  0
   11.5217    1.0079   23.5949 C   0  0  0  0  0  0  0  0  0  0  0  0
    5.9810    0.8330   18.8060 C   0  0  0  0  0  0  0  0  0  0  0  0
    6.1600    0.3870   20.1140 C   0  0  0  0  0  0  0  0  0  0  0  0
    9.3300   -1.3350   23.6390 C   0  0  0  0  0  0  0  0  0  0  0  0
    9.2850   -3.7090   25.1090 C   0  0  0  0  0  0  0  0  0  0  0  0
   13.6257    0.0764   24.3314 C   0  0  0  0  0  0  0  0  0  0  0  0
    8.9510    0.1280   21.6880 C   0  0  0  0  0  0  0  0  0  0  0  0
    8.2499   -5.1180   26.8642 C   0  0  0  0  0  0  0  0  0  0  0  0
   10.2422   -5.9410   25.5984 C   0  0  0  0  0  0  0  0  0  0  0  0
   10.0220    1.0430   23.6570 C   0  0  0  0  0  0  0  0  0  0  0  0
    8.0810   -0.9750   21.0820 C   0  0  0  0  0  0  0  0  0  0  0  0
    6.9440    0.2550   18.0100 N   0  0  0  0  0  0  0  0  0  0  0  0
    7.2210   -0.4620   20.0350 N   0  0  0  0  0  0  0  0  0  0  0  0
    9.4200   -0.0840   22.9530 N   0  0  0  0  0  0  0  0  0  0  0  0
    9.2624   -4.9028   25.8498 N   0  0  0  0  0  0  0  0  0  0  0  0
    9.1870    1.1500   21.0630 O   0  0  0  0  0  0  0  0  0  0  0  0
   14.5031   -1.0334   25.3114 Cl  0  0  0  0  0  0  0  0  0  0  0  0
    3.2711    2.7875   19.3201 H   0  0  0  0  0  0  0  0  0  0  0  0
    3.6281    2.0095   21.6292 H   0  0  0  0  0  0  0  0  0  0  0  0
   14.1289    2.5226   22.0237 H   0  0  0  0  0  0  0  0  0  0  0  0
   11.6588    2.5818   22.1218 H   0  0  0  0  0  0  0  0  0  0  0  0
    4.7815    2.0665   17.4902 H   0  0  0  0  0  0  0  0  0  0  0  0
    5.4939    0.4577   22.1786 H   0  0  0  0  0  0  0  0  0  0  0  0
    7.5947   -0.7787   24.7997 H   0  0  0  0  0  0  0  0  0  0  0  0
   11.0404   -2.1861   22.6352 H   0  0  0  0  0  0  0  0  0  0  0  0
    7.5641   -2.8632   26.1047 H   0  0  0  0  0  0  0  0  0  0  0  0
   11.0135   -4.2647   23.9425 H   0  0  0  0  0  0  0  0  0  0  0  0
   15.3941    0.9323   23.4255 H   0  0  0  0  0  0  0  0  0  0  0  0
   11.6954   -0.5682   25.0504 H   0  0  0  0  0  0  0  0  0  0  0  0
    8.5167   -1.1056   18.4550 H   0  0  0  0  0  0  0  0  0  0  0  0
    8.3988   -6.1043   27.3281 H   0  0  0  0  0  0  0  0  0  0  0  0
    8.3293   -4.3355   27.6332 H   0  0  0  0  0  0  0  0  0  0  0  0
    7.2529   -5.0774   26.4013 H   0  0  0  0  0  0  0  0  0  0  0  0
   10.0589   -6.7900   26.2734 H   0  0  0  0  0  0  0  0  0  0  0  0
   10.1595   -6.2780   24.5546 H   0  0  0  0  0  0  0  0  0  0  0  0
   11.2520   -5.5428   25.7763 H   0  0  0  0  0  0  0  0  0  0  0  0
    9.6778    1.0140   24.6966 H   0  0  0  0  0  0  0  0  0  0  0  0
    9.6316    1.9637   23.2107 H   0  0  0  0  0  0  0  0  0  0  0  0
    8.7073   -1.7481   20.6391 H   0  0  0  0  0  0  0  0  0  0  0  0
    7.4352   -1.4043   21.8468 H   0  0  0  0  0  0  0  0  0  0  0  0
  1  2  1  0  0  0  0
  1  5  2  0  0  0  0
  2  6  2  0  0  0  0
  3  4  2  0  0  0  0
  3 11  1  0  0  0  0
  4 14  1  0  0  0  0
  5 15  1  0  0  0  0
  6 16  1  0  0  0  0
  7  9  2  0  0  0  0
  7 17  1  0  0  0  0
  8 10  1  0  0  0  0
  8 17  2  0  0  0  0
  9 18  1  0  0  0  0
 10 18  2  0  0  0  0
 11 19  2  0  0  0  0
 12 14  2  0  0  0  0
 12 19  1  0  0  0  0
 13 25  2  0  0  0  0
 13 26  1  0  0  0  0
 14 23  1  0  0  0  0
 15 16  2  0  0  0  0
 15 25  1  0  0  0  0
 16 26  1  0  0  0  0
 17 27  1  0  0  0  0
 18 28  1  0  0  0  0
 19 30  1  0  0  0  0
 20 24  1  0  0  0  0
 20 27  1  0  0  0  0
 20 29  2  0  0  0  0
 21 28  1  0  0  0  0
 22 28  1  0  0  0  0
 23 27  1  0  0  0  0
 24 26  1  0  0  0  0
  1 31  1  0  0  0  0
  2 32  1  0  0  0  0
  3 33  1  0  0  0  0
  4 34  1  0  0  0  0
  5 35  1  0  0  0  0
  6 36  1  0  0  0  0
  7 37  1  0  0  0  0
  8 38  1  0  0  0  0
  9 39  1  0  0  0  0
 10 40  1  0  0  0  0
 11 41  1  0  0  0  0
 12 42  1  0  0  0  0
 13 43  1  0  0  0  0
 21 44  1  0  0  0  0
 21 45  1  0  0  0  0
 21 46  1  0  0  0  0
 22 47  1  0  0  0  0
 22 48  1  0  0  0  0
 22 49  1  0  0  0  0
 23 50  1  0  0  0  0
 23 51  1  0  0  0  0
 24 52  1  0  0  0  0
 24 53  1  0  0  0  0
M  END
> <clash_score>
0.7662444831461174

> <docking_score>
-9.590149879455566

> <overlap_score>
1.008291482925415

$$$$
BENZO_369_1
  -OEChem-08222022423D

 55 58  0     0  0  0  0  0  0999 V2000
   14.3082    0.9431   23.4783 C   0  0  0  0  0  0  0  0  0  0  0  0
   13.6391    0.3091   24.5251 C   0  0  0  0  0  0  0  0  0  0  0  0
   13.5841    1.6096   22.4898 C   0  0  0  0  0  0  0  0  0  0  0  0
    4.0980    2.1130   19.5350 C   0  0  0  0  0  0  0  0  0  0  0  0
    4.2970    1.6690   20.8430 C   0  0  0  0  0  0  0  0  0  0  0  0
   12.2459    0.3415   24.5835 C   0  0  0  0  0  0  0  0  0  0  0  0
   12.1908    1.6420   22.5481 C   0  0  0  0  0  0  0  0  0  0  0  0
    4.9400    1.7060   18.5060 C   0  0  0  0  0  0  0  0  0  0  0  0
    5.3360    0.8000   21.1530 C   0  0  0  0  0  0  0  0  0  0  0  0
    8.3310   -2.7170   25.3430 C   0  0  0  0  0  0  0  0  0  0  0  0
   10.2570   -3.5000   24.1350 C   0  0  0  0  0  0  0  0  0  0  0  0
    8.3510   -1.5420   24.6110 C   0  0  0  0  0  0  0  0  0  0  0  0
   10.2760   -2.3270   23.4020 C   0  0  0  0  0  0  0  0  0  0  0  0
    7.6830   -0.5170   18.7600 C   0  0  0  0  0  0  0  0  0  0  0  0
   11.5217    1.0079   23.5949 C   0  0  0  0  0  0  0  0  0  0  0  0
    5.9810    0.8330   18.8060 C   0  0  0  0  0  0  0  0  0  0  0  0
    6.1600    0.3870   20.1140 C   0  0  0  0  0  0  0  0  0  0  0  0
    9.2850   -3.7090   25.1090 C   0  0  0  0  0  0  0  0  0  0  0  0
    9.3300   -1.3350   23.6390 C   0  0  0  0  0  0  0  0  0  0  0  0
    9.6851   -6.1686   25.4416 C   0  0  0  0  0  0  0  0  0  0  0  0
    8.9510    0.1280   21.6880 C   0  0  0  0  0  0  0  0  0  0  0  0
    8.0387   -7.2896   27.0032 C   0  0  0  0  0  0  0  0  0  0  0  0
   10.0220    1.0430   23.6570 C   0  0  0  0  0  0  0  0  0  0  0  0
    9.4855   -7.1863   26.5549 C   0  0  0  0  0  0  0  0  0  0  0  0
    8.0810   -0.9750   21.0820 C   0  0  0  0  0  0  0  0  0  0  0  0
    6.9440    0.2550   18.0100 N   0  0  0  0  0  0  0  0  0  0  0  0
    7.2210   -0.4620   20.0350 N   0  0  0  0  0  0  0  0  0  0  0  0
    9.2630   -4.8902   25.8410 N   0  0  0  0  0  0  0  0  0  0  0  0
    9.4200   -0.0840   22.9530 N   0  0  0  0  0  0  0  0  0  0  0  0
   10.1590   -6.4792   24.3537 O   0  0  0  0  0  0  0  0  0  0  0  0
    9.1870    1.1500   21.0630 O   0  0  0  0  0  0  0  0  0  0  0  0
   15.3932    0.9189   23.4337 H   0  0  0  0  0  0  0  0  0  0  0  0
   14.2028   -0.2090   25.2955 H   0  0  0  0  0  0  0  0  0  0  0  0
   14.1048    2.1043   21.6752 H   0  0  0  0  0  0  0  0  0  0  0  0
    3.2711    2.7875   19.3201 H   0  0  0  0  0  0  0  0  0  0  0  0
    3.6281    2.0095   21.6292 H   0  0  0  0  0  0  0  0  0  0  0  0
   11.7330   -0.1555   25.4027 H   0  0  0  0  0  0  0  0  0  0  0  0
   11.6349    2.1636   21.7735 H   0  0  0  0  0  0  0  0  0  0  0  0
    4.7815    2.0665   17.4902 H   0  0  0  0  0  0  0  0  0  0  0  0
    5.4939    0.4577   22.1786 H   0  0  0  0  0  0  0  0  0  0  0  0
    7.5639   -2.8621   26.1045 H   0  0  0  0  0  0  0  0  0  0  0  0
   11.0141   -4.2644   23.9422 H   0  0  0  0  0  0  0  0  0  0  0  0
    7.5950   -0.7788   24.8007 H   0  0  0  0  0  0  0  0  0  0  0  0
   11.0408   -2.1861   22.6359 H   0  0  0  0  0  0  0  0  0  0  0  0
    8.5167   -1.1056   18.4550 H   0  0  0  0  0  0  0  0  0  0  0  0
    7.6696   -6.3247   27.3662 H   0  0  0  0  0  0  0  0  0  0  0  0
    7.9418   -8.0194   27.8128 H   0  0  0  0  0  0  0  0  0  0  0  0
    7.3931   -7.6069   26.1776 H   0  0  0  0  0  0  0  0  0  0  0  0
    9.6778    1.0140   24.6966 H   0  0  0  0  0  0  0  0  0  0  0  0
    9.6316    1.9637   23.2107 H   0  0  0  0  0  0  0  0  0  0  0  0
    9.8279   -8.1642   26.1973 H   0  0  0  0  0  0  0  0  0  0  0  0
   10.1123   -6.8975   27.4064 H   0  0  0  0  0  0  0  0  0  0  0  0
    8.7073   -1.7481   20.6391 H   0  0  0  0  0  0  0  0  0  0  0  0
    7.4352   -1.4043   21.8468 H   0  0  0  0  0  0  0  0  0  0  0  0
    8.8927   -4.8257   26.7964 H   0  0  0  0  0  0  0  0  0  0  0  0
  1  2  1  0  0  0  0
  1  3  2  0  0  0  0
  2  6  2  0  0  0  0
  3  7  1  0  0  0  0
  4  5  1  0  0  0  0
  4  8  2  0  0  0  0
  5  9  2  0  0  0  0
  6 15  1  0  0  0  0
  7 15  2  0  0  0  0
  8 16  1  0  0  0  0
  9 17  1  0  0  0  0
 10 12  2  0  0  0  0
 10 18  1  0  0  0  0
 11 13  1  0  0  0  0
 11 18  2  0  0  0  0
 12 19  1  0  0  0  0
 13 19  2  0  0  0  0
 14 26  2  0  0  0  0
 14 27  1  0  0  0  0
 15 23  1  0  0  0  0
 16 17  2  0  0  0  0
 16 26  1  0  0  0  0
 17 27  1  0  0  0  0
 18 28  1  0  0  0  0
 19 29  1  0  0  0  0
 20 24  1  0  0  0  0
 20 28  1  0  0  0  0
 20 30  2  0  0  0  0
 21 25  1  0  0  0  0
 21 29  1  0  0  0  0
 21 31  2  0  0  0  0
 22 24  1  0  0  0  0
 23 29  1  0  0  0  0
 25 27  1  0  0  0  0
  1 32  1  0  0  0  0
  2 33  1  0  0  0  0
  3 34  1  0  0  0  0
  4 35  1  0  0  0  0
  5 36  1  0  0  0  0
  6 37  1  0  0  0  0
  7 38  1  0  0  0  0
  8 39  1  0  0  0  0
  9 40  1  0  0  0  0
 10 41  1  0  0  0  0
 11 42  1  0  0  0  0
 12 43  1  0  0  0  0
 13 44  1  0  0  0  0
 14 45  1  0  0  0  0
 22 46  1  0  0  0  0
 22 47  1  0  0  0  0
 22 48  1  0  0  0  0
 23 49  1  0  0  0  0
 23 50  1  0  0  0  0
 24 51  1  0  0  0  0
 24 52  1  0  0  0  0
 25 53  1  0  0  0  0
 25 54  1  0  0  0  0
 28 55  1  0  0  0  0
M  END
> <clash_score>
1.3337581357662123

> <docking_score>
-6.885087013244629

> <overlap_score>
0.9871466755867004

$$$$
BENZO_368_1
  -OEChem-08222022423D

 52 55  0     0  0  0  0  0  0999 V2000
    4.0980    2.1130   19.5350 C   0  0  0  0  0  0  0  0  0  0  0  0
    4.2970    1.6690   20.8430 C   0  0  0  0  0  0  0  0  0  0  0  0
    4.9400    1.7060   18.5060 C   0  0  0  0  0  0  0  0  0  0  0  0
    5.3360    0.8000   21.1530 C   0  0  0  0  0  0  0  0  0  0  0  0
    8.3310   -2.7170   25.3430 C   0  0  0  0  0  0  0  0  0  0  0  0
   10.2570   -3.5000   24.1350 C   0  0  0  0  0  0  0  0  0  0  0  0
    8.3510   -1.5420   24.6110 C   0  0  0  0  0  0  0  0  0  0  0  0
   10.2760   -2.3270   23.4020 C   0  0  0  0  0  0  0  0  0  0  0  0
   12.2675    1.0332   22.3812 C   0  0  0  0  0  0  0  0  0  0  0  0
   13.6257    0.9906   22.6074 C   0  0  0  0  0  0  0  0  0  0  0  0
   12.3384    0.9467   24.7028 C   0  0  0  0  0  0  0  0  0  0  0  0
    7.6830   -0.5170   18.7600 C   0  0  0  0  0  0  0  0  0  0  0  0
   11.5217    1.0079   23.5949 C   0  0  0  0  0  0  0  0  0  0  0  0
    5.9810    0.8330   18.8060 C   0  0  0  0  0  0  0  0  0  0  0  0
    6.1600    0.3870   20.1140 C   0  0  0  0  0  0  0  0  0  0  0  0
    9.2850   -3.7090   25.1090 C   0  0  0  0  0  0  0  0  0  0  0  0
    9.3300   -1.3350   23.6390 C   0  0  0  0  0  0  0  0  0  0  0  0
    9.6851   -6.1686   25.4416 C   0  0  0  0  0  0  0  0  0  0  0  0
    8.9510    0.1280   21.6880 C   0  0  0  0  0  0  0  0  0  0  0  0
    8.0387   -7.2896   27.0032 C   0  0  0  0  0  0  0  0  0  0  0  0
   10.0220    1.0430   23.6570 C   0  0  0  0  0  0  0  0  0  0  0  0
    9.4855   -7.1863   26.5549 C   0  0  0  0  0  0  0  0  0  0  0  0
    8.0810   -0.9750   21.0820 C   0  0  0  0  0  0  0  0  0  0  0  0
    6.9440    0.2550   18.0100 N   0  0  0  0  0  0  0  0  0  0  0  0
    7.2210   -0.4620   20.0350 N   0  0  0  0  0  0  0  0  0  0  0  0
    9.2630   -4.8902   25.8410 N   0  0  0  0  0  0  0  0  0  0  0  0
    9.4200   -0.0840   22.9530 N   0  0  0  0  0  0  0  0  0  0  0  0
   10.1590   -6.4792   24.3537 O   0  0  0  0  0  0  0  0  0  0  0  0
    9.1870    1.1500   21.0630 O   0  0  0  0  0  0  0  0  0  0  0  0
   13.9969    0.9202   24.2776 S   0  0  0  0  0  0  0  0  0  0  0  0
    3.2711    2.7875   19.3201 H   0  0  0  0  0  0  0  0  0  0  0  0
    3.6281    2.0095   21.6292 H   0  0  0  0  0  0  0  0  0  0  0  0
    4.7815    2.0665   17.4902 H   0  0  0  0  0  0  0  0  0  0  0  0
    5.4939    0.4577   22.1786 H   0  0  0  0  0  0  0  0  0  0  0  0
    7.5639   -2.8621   26.1045 H   0  0  0  0  0  0  0  0  0  0  0  0
   11.0141   -4.2644   23.9422 H   0  0  0  0  0  0  0  0  0  0  0  0
    7.5950   -0.7788   24.8007 H   0  0  0  0  0  0  0  0  0  0  0  0
   11.0408   -2.1861   22.6359 H   0  0  0  0  0  0  0  0  0  0  0  0
   11.8338    1.0798   21.3902 H   0  0  0  0  0  0  0  0  0  0  0  0
   14.4176    0.9966   21.8719 H   0  0  0  0  0  0  0  0  0  0  0  0
   12.0446    0.9149   25.7428 H   0  0  0  0  0  0  0  0  0  0  0  0
    8.5167   -1.1056   18.4550 H   0  0  0  0  0  0  0  0  0  0  0  0
    7.6696   -6.3247   27.3662 H   0  0  0  0  0  0  0  0  0  0  0  0
    7.9418   -8.0194   27.8128 H   0  0  0  0  0  0  0  0  0  0  0  0
    7.3931   -7.6069   26.1776 H   0  0  0  0  0  0  0  0  0  0  0  0
    9.6778    1.0140   24.6966 H   0  0  0  0  0  0  0  0  0  0  0  0
    9.6316    1.9637   23.2107 H   0  0  0  0  0  0  0  0  0  0  0  0
    9.8279   -8.1642   26.1973 H   0  0  0  0  0  0  0  0  0  0  0  0
   10.1123   -6.8975   27.4064 H   0  0  0  0  0  0  0  0  0  0  0  0
    8.7073   -1.7481   20.6391 H   0  0  0  0  0  0  0  0  0  0  0  0
    7.4352   -1.4043   21.8468 H   0  0  0  0  0  0  0  0  0  0  0  0
    8.8927   -4.8257   26.7964 H   0  0  0  0  0  0  0  0  0  0  0  0
  1  2  1  0  0  0  0
  1  3  2  0  0  0  0
  2  4  2  0  0  0  0
  3 14  1  0  0  0  0
  4 15  1  0  0  0  0
  5  7  2  0  0  0  0
  5 16  1  0  0  0  0
  6  8  1  0  0  0  0
  6 16  2  0  0  0  0
  7 17  1  0  0  0  0
  8 17  2  0  0  0  0
  9 10  2  0  0  0  0
  9 13  1  0  0  0  0
 10 30  1  0  0  0  0
 11 13  2  0  0  0  0
 11 30  1  0  0  0  0
 12 24  2  0  0  0  0
 12 25  1  0  0  0  0
 13 21  1  0  0  0  0
 14 15  2  0  0  0  0
 14 24  1  0  0  0  0
 15 25  1  0  0  0  0
 16 26  1  0  0  0  0
 17 27  1  0  0  0  0
 18 22  1  0  0  0  0
 18 26  1  0  0  0  0
 18 28  2  0  0  0  0
 19 23  1  0  0  0  0
 19 27  1  0  0  0  0
 19 29  2  0  0  0  0
 20 22  1  0  0  0  0
 21 27  1  0  0  0  0
 23 25  1  0  0  0  0
  1 31  1  0  0  0  0
  2 32  1  0  0  0  0
  3 33  1  0  0  0  0
  4 34  1  0  0  0  0
  5 35  1  0  0  0  0
  6 36  1  0  0  0  0
  7 37  1  0  0  0  0
  8 38  1  0  0  0  0
  9 39  1  0  0  0  0
 10 40  1  0  0  0  0
 11 41  1  0  0  0  0
 12 42  1  0  0  0  0
 20 43  1  0  0  0  0
 20 44  1  0  0  0  0
 20 45  1  0  0  0  0
 21 46  1  0  0  0  0
 21 47  1  0  0  0  0
 22 48  1  0  0  0  0
 22 49  1  0  0  0  0
 23 50  1  0  0  0  0
 23 51  1  0  0  0  0
 26 52  1  0  0  0  0
M  END
> <clash_score>
1.3337581357662123

> <docking_score>
-7.131290435791016

> <overlap_score>
0.9613738656044006

$$$$
BENZO_373_1
  -OEChem-08222022423D

 60 64  0     0  0  0  0  0  0999 V2000
   14.3082    0.9431   23.4783 C   0  0  0  0  0  0  0  0  0  0  0  0
   13.6391    0.3091   24.5251 C   0  0  0  0  0  0  0  0  0  0  0  0
   13.5841    1.6096   22.4898 C   0  0  0  0  0  0  0  0  0  0  0  0
    4.0980    2.1130   19.5350 C   0  0  0  0  0  0  0  0  0  0  0  0
    4.2970    1.6690   20.8430 C   0  0  0  0  0  0  0  0  0  0  0  0
   12.2459    0.3415   24.5835 C   0  0  0  0  0  0  0  0  0  0  0  0
   12.1908    1.6420   22.5481 C   0  0  0  0  0  0  0  0  0  0  0  0
    4.9400    1.7060   18.5060 C   0  0  0  0  0  0  0  0  0  0  0  0
    5.3360    0.8000   21.1530 C   0  0  0  0  0  0  0  0  0  0  0  0
    8.3310   -2.7170   25.3430 C   0  0  0  0  0  0  0  0  0  0  0  0
   10.2570   -3.5000   24.1350 C   0  0  0  0  0  0  0  0  0  0  0  0
    8.3510   -1.5420   24.6110 C   0  0  0  0  0  0  0  0  0  0  0  0
   10.2760   -2.3270   23.4020 C   0  0  0  0  0  0  0  0  0  0  0  0
    7.6830   -0.5170   18.7600 C   0  0  0  0  0  0  0  0  0  0  0  0
   11.5217    1.0079   23.5949 C   0  0  0  0  0  0  0  0  0  0  0  0
    5.9810    0.8330   18.8060 C   0  0  0  0  0  0  0  0  0  0  0  0
    6.1600    0.3870   20.1140 C   0  0  0  0  0  0  0  0  0  0  0  0
    9.2850   -3.7090   25.1090 C   0  0  0  0  0  0  0  0  0  0  0  0
    9.3300   -1.3350   23.6390 C   0  0  0  0  0  0  0  0  0  0  0  0
    8.9510    0.1280   21.6880 C   0  0  0  0  0  0  0  0  0  0  0  0
    7.3162   -6.8835   26.5210 C   0  0  0  0  0  0  0  0  0  0  0  0
    7.3507   -5.5245   27.2240 C   0  0  0  0  0  0  0  0  0  0  0  0
    7.9375   -6.8069   25.1245 C   0  0  0  0  0  0  0  0  0  0  0  0
    8.7638   -4.9418   27.2163 C   0  0  0  0  0  0  0  0  0  0  0  0
    9.3378   -6.1874   25.1659 C   0  0  0  0  0  0  0  0  0  0  0  0
   10.0220    1.0430   23.6570 C   0  0  0  0  0  0  0  0  0  0  0  0
    8.0810   -0.9750   21.0820 C   0  0  0  0  0  0  0  0  0  0  0  0
    6.9440    0.2550   18.0100 N   0  0  0  0  0  0  0  0  0  0  0  0
    7.2210   -0.4620   20.0350 N   0  0  0  0  0  0  0  0  0  0  0  0
    9.2639   -4.8860   25.8399 N   0  0  0  0  0  0  0  0  0  0  0  0
    9.4200   -0.0840   22.9530 N   0  0  0  0  0  0  0  0  0  0  0  0
    9.1870    1.1500   21.0630 O   0  0  0  0  0  0  0  0  0  0  0  0
   15.3932    0.9189   23.4337 H   0  0  0  0  0  0  0  0  0  0  0  0
   14.2029   -0.2090   25.2955 H   0  0  0  0  0  0  0  0  0  0  0  0
   14.1048    2.1043   21.6752 H   0  0  0  0  0  0  0  0  0  0  0  0
    3.2711    2.7875   19.3201 H   0  0  0  0  0  0  0  0  0  0  0  0
    3.6281    2.0095   21.6292 H   0  0  0  0  0  0  0  0  0  0  0  0
   11.7330   -0.1555   25.4027 H   0  0  0  0  0  0  0  0  0  0  0  0
   11.6349    2.1636   21.7735 H   0  0  0  0  0  0  0  0  0  0  0  0
    4.7815    2.0665   17.4902 H   0  0  0  0  0  0  0  0  0  0  0  0
    5.4939    0.4577   22.1786 H   0  0  0  0  0  0  0  0  0  0  0  0
    7.5647   -2.8621   26.1053 H   0  0  0  0  0  0  0  0  0  0  0  0
   11.0144   -4.2642   23.9425 H   0  0  0  0  0  0  0  0  0  0  0  0
    7.5958   -0.7779   24.8006 H   0  0  0  0  0  0  0  0  0  0  0  0
   11.0406   -2.1848   22.6356 H   0  0  0  0  0  0  0  0  0  0  0  0
    8.5167   -1.1056   18.4550 H   0  0  0  0  0  0  0  0  0  0  0  0
    7.8578   -7.6261   27.1266 H   0  0  0  0  0  0  0  0  0  0  0  0
    6.2773   -7.2358   26.4459 H   0  0  0  0  0  0  0  0  0  0  0  0
    6.6663   -4.8351   26.7223 H   0  0  0  0  0  0  0  0  0  0  0  0
    7.0044   -5.6368   28.2534 H   0  0  0  0  0  0  0  0  0  0  0  0
    7.9946   -7.8119   24.6937 H   0  0  0  0  0  0  0  0  0  0  0  0
    7.2929   -6.2123   24.4668 H   0  0  0  0  0  0  0  0  0  0  0  0
    8.7343   -3.9408   27.6542 H   0  0  0  0  0  0  0  0  0  0  0  0
    9.4243   -5.5632   27.8278 H   0  0  0  0  0  0  0  0  0  0  0  0
   10.0200   -6.8490   25.7011 H   0  0  0  0  0  0  0  0  0  0  0  0
    9.6984   -6.0694   24.1436 H   0  0  0  0  0  0  0  0  0  0  0  0
    9.6778    1.0140   24.6966 H   0  0  0  0  0  0  0  0  0  0  0  0
    9.6316    1.9637   23.2107 H   0  0  0  0  0  0  0  0  0  0  0  0
    8.7136   -1.7499   20.6462 H   0  0  0  0  0  0  0  0  0  0  0  0
    7.4415   -1.4060   21.8540 H   0  0  0  0  0  0  0  0  0  0  0  0
  1  2  1  0  0  0  0
  1  3  2  0  0  0  0
  2  6  2  0  0  0  0
  3  7  1  0  0  0  0
  4  5  1  0  0  0  0
  4  8  2  0  0  0  0
  5  9  2  0  0  0  0
  6 15  1  0  0  0  0
  7 15  2  0  0  0  0
  8 16  1  0  0  0  0
  9 17  1  0  0  0  0
 10 12  2  0  0  0  0
 10 18  1  0  0  0  0
 11 13  1  0  0  0  0
 11 18  2  0  0  0  0
 12 19  1  0  0  0  0
 13 19  2  0  0  0  0
 14 28  2  0  0  0  0
 14 29  1  0  0  0  0
 15 26  1  0  0  0  0
 16 17  2  0  0  0  0
 16 28  1  0  0  0  0
 17 29  1  0  0  0  0
 18 30  1  0  0  0  0
 19 31  1  0  0  0  0
 20 27  1  0  0  0  0
 20 31  1  0  0  0  0
 20 32  2  0  0  0  0
 21 22  1  0  0  0  0
 21 23  1  0  0  0  0
 22 24  1  0  0  0  0
 23 25  1  0  0  0  0
 24 30  1  0  0  0  0
 25 30  1  0  0  0  0
 26 31  1  0  0  0  0
 27 29  1  0  0  0  0
  1 33  1  0  0  0  0
  2 34  1  0  0  0  0
  3 35  1  0  0  0  0
  4 36  1  0  0  0  0
  5 37  1  0  0  0  0
  6 38  1  0  0  0  0
  7 39  1  0  0  0  0
  8 40  1  0  0  0  0
  9 41  1  0  0  0  0
 10 42  1  0  0  0  0
 11 43  1  0  0  0  0
 12 44  1  0  0  0  0
 13 45  1  0  0  0  0
 14 46  1  0  0  0  0
 21 47  1  0  0  0  0
 21 48  1  0  0  0  0
 22 49  1  0  0  0  0
 22 50  1  0  0  0  0
 23 51  1  0  0  0  0
 23 52  1  0  0  0  0
 24 53  1  0  0  0  0
 24 54  1  0  0  0  0
 25 55  1  0  0  0  0
 25 56  1  0  0  0  0
 26 57  1  0  0  0  0
 26 58  1  0  0  0  0
 27 59  1  0  0  0  0
 27 60  1  0  0  0  0
M  END
> <clash_score>
0

> <docking_score>
-9.11980152130127

> <overlap_score>
1.0155829191207886

$$$$
BENZO_372_1
  -OEChem-08222022423D

 57 61  0     0  0  0  0  0  0999 V2000
    4.0980    2.1130   19.5350 C   0  0  0  0  0  0  0  0  0  0  0  0
    4.2970    1.6690   20.8430 C   0  0  0  0  0  0  0  0  0  0  0  0
    4.9400    1.7060   18.5060 C   0  0  0  0  0  0  0  0  0  0  0  0
    5.3360    0.8000   21.1530 C   0  0  0  0  0  0  0  0  0  0  0  0
    8.3310   -2.7170   25.3430 C   0  0  0  0  0  0  0  0  0  0  0  0
   10.2570   -3.5000   24.1350 C   0  0  0  0  0  0  0  0  0  0  0  0
    8.3510   -1.5420   24.6110 C   0  0  0  0  0  0  0  0  0  0  0  0
   10.2760   -2.3270   23.4020 C   0  0  0  0  0  0  0  0  0  0  0  0
   12.2675    1.0332   22.3812 C   0  0  0  0  0  0  0  0  0  0  0  0
   13.6257    0.9906   22.6074 C   0  0  0  0  0  0  0  0  0  0  0  0
   12.3384    0.9467   24.7028 C   0  0  0  0  0  0  0  0  0  0  0  0
    7.6830   -0.5170   18.7600 C   0  0  0  0  0  0  0  0  0  0  0  0
   11.5217    1.0079   23.5949 C   0  0  0  0  0  0  0  0  0  0  0  0
    5.9810    0.8330   18.8060 C   0  0  0  0  0  0  0  0  0  0  0  0
    6.1600    0.3870   20.1140 C   0  0  0  0  0  0  0  0  0  0  0  0
    9.2850   -3.7090   25.1090 C   0  0  0  0  0  0  0  0  0  0  0  0
    9.3300   -1.3350   23.6390 C   0  0  0  0  0  0  0  0  0  0  0  0
    8.9510    0.1280   21.6880 C   0  0  0  0  0  0  0  0  0  0  0  0
    7.3162   -6.8835   26.5210 C   0  0  0  0  0  0  0  0  0  0  0  0
    7.3507   -5.5245   27.2240 C   0  0  0  0  0  0  0  0  0  0  0  0
    7.9375   -6.8069   25.1245 C   0  0  0  0  0  0  0  0  0  0  0  0
    8.7638   -4.9418   27.2163 C   0  0  0  0  0  0  0  0  0  0  0  0
    9.3378   -6.1874   25.1659 C   0  0  0  0  0  0  0  0  0  0  0  0
   10.0220    1.0430   23.6570 C   0  0  0  0  0  0  0  0  0  0  0  0
    8.0810   -0.9750   21.0820 C   0  0  0  0  0  0  0  0  0  0  0  0
    6.9440    0.2550   18.0100 N   0  0  0  0  0  0  0  0  0  0  0  0
    7.2210   -0.4620   20.0350 N   0  0  0  0  0  0  0  0  0  0  0  0
    9.2639   -4.8860   25.8399 N   0  0  0  0  0  0  0  0  0  0  0  0
    9.4200   -0.0840   22.9530 N   0  0  0  0  0  0  0  0  0  0  0  0
    9.1870    1.1500   21.0630 O   0  0  0  0  0  0  0  0  0  0  0  0
   13.9969    0.9203   24.2776 S   0  0  0  0  0  0  0  0  0  0  0  0
    3.2711    2.7875   19.3201 H   0  0  0  0  0  0  0  0  0  0  0  0
    3.6281    2.0095   21.6292 H   0  0  0  0  0  0  0  0  0  0  0  0
    4.7815    2.0665   17.4902 H   0  0  0  0  0  0  0  0  0  0  0  0
    5.4939    0.4577   22.1786 H   0  0  0  0  0  0  0  0  0  0  0  0
    7.5647   -2.8621   26.1053 H   0  0  0  0  0  0  0  0  0  0  0  0
   11.0144   -4.2642   23.9425 H   0  0  0  0  0  0  0  0  0  0  0  0
    7.5958   -0.7779   24.8006 H   0  0  0  0  0  0  0  0  0  0  0  0
   11.0406   -2.1848   22.6356 H   0  0  0  0  0  0  0  0  0  0  0  0
   11.8338    1.0798   21.3902 H   0  0  0  0  0  0  0  0  0  0  0  0
   14.4176    0.9966   21.8719 H   0  0  0  0  0  0  0  0  0  0  0  0
   12.0446    0.9149   25.7428 H   0  0  0  0  0  0  0  0  0  0  0  0
    8.5167   -1.1056   18.4550 H   0  0  0  0  0  0  0  0  0  0  0  0
    7.8578   -7.6261   27.1266 H   0  0  0  0  0  0  0  0  0  0  0  0
    6.2773   -7.2358   26.4459 H   0  0  0  0  0  0  0  0  0  0  0  0
    6.6663   -4.8351   26.7223 H   0  0  0  0  0  0  0  0  0  0  0  0
    7.0044   -5.6368   28.2534 H   0  0  0  0  0  0  0  0  0  0  0  0
    7.9946   -7.8119   24.6937 H   0  0  0  0  0  0  0  0  0  0  0  0
    7.2929   -6.2123   24.4668 H   0  0  0  0  0  0  0  0  0  0  0  0
    8.7343   -3.9408   27.6542 H   0  0  0  0  0  0  0  0  0  0  0  0
    9.4243   -5.5632   27.8278 H   0  0  0  0  0  0  0  0  0  0  0  0
   10.0200   -6.8490   25.7011 H   0  0  0  0  0  0  0  0  0  0  0  0
    9.6984   -6.0694   24.1436 H   0  0  0  0  0  0  0  0  0  0  0  0
    9.6778    1.0140   24.6966 H   0  0  0  0  0  0  0  0  0  0  0  0
    9.6316    1.9637   23.2107 H   0  0  0  0  0  0  0  0  0  0  0  0
    8.7136   -1.7499   20.6462 H   0  0  0  0  0  0  0  0  0  0  0  0
    7.4415   -1.4060   21.8540 H   0  0  0  0  0  0  0  0  0  0  0  0
  1  2  1  0  0  0  0
  1  3  2  0  0  0  0
  2  4  2  0  0  0  0
  3 14  1  0  0  0  0
  4 15  1  0  0  0  0
  5  7  2  0  0  0  0
  5 16  1  0  0  0  0
  6  8  1  0  0  0  0
  6 16  2  0  0  0  0
  7 17  1  0  0  0  0
  8 17  2  0  0  0  0
  9 10  2  0  0  0  0
  9 13  1  0  0  0  0
 10 31  1  0  0  0  0
 11 13  2  0  0  0  0
 11 31  1  0  0  0  0
 12 26  2  0  0  0  0
 12 27  1  0  0  0  0
 13 24  1  0  0  0  0
 14 15  2  0  0  0  0
 14 26  1  0  0  0  0
 15 27  1  0  0  0  0
 16 28  1  0  0  0  0
 17 29  1  0  0  0  0
 18 25  1  0  0  0  0
 18 29  1  0  0  0  0
 18 30  2  0  0  0  0
 19 20  1  0  0  0  0
 19 21  1  0  0  0  0
 20 22  1  0  0  0  0
 21 23  1  0  0  0  0
 22 28  1  0  0  0  0
 23 28  1  0  0  0  0
 24 29  1  0  0  0  0
 25 27  1  0  0  0  0
  1 32  1  0  0  0  0
  2 33  1  0  0  0  0
  3 34  1  0  0  0  0
  4 35  1  0  0  0  0
  5 36  1  0  0  0  0
  6 37  1  0  0  0  0
  7 38  1  0  0  0  0
  8 39  1  0  0  0  0
  9 40  1  0  0  0  0
 10 41  1  0  0  0  0
 11 42  1  0  0  0  0
 12 43  1  0  0  0  0
 19 44  1  0  0  0  0
 19 45  1  0  0  0  0
 20 46  1  0  0  0  0
 20 47  1  0  0  0  0
 21 48  1  0  0  0  0
 21 49  1  0  0  0  0
 22 50  1  0  0  0  0
 22 51  1  0  0  0  0
 23 52  1  0  0  0  0
 23 53  1  0  0  0  0
 24 54  1  0  0  0  0
 24 55  1  0  0  0  0
 25 56  1  0  0  0  0
 25 57  1  0  0  0  0
M  END
> <clash_score>
0

> <docking_score>
-9.36599349975586

> <overlap_score>
0.9899340271949768

$$$$
BENZO_370_1
  -OEChem-08222022423D

 55 58  0     0  0  0  0  0  0999 V2000
    4.0980    2.1130   19.5350 C   0  0  0  0  0  0  0  0  0  0  0  0
    4.2970    1.6690   20.8430 C   0  0  0  0  0  0  0  0  0  0  0  0
   13.5977    1.8457   22.6865 C   0  0  0  0  0  0  0  0  0  0  0  0
   12.2044    1.8769   22.7438 C   0  0  0  0  0  0  0  0  0  0  0  0
    4.9400    1.7060   18.5060 C   0  0  0  0  0  0  0  0  0  0  0  0
    5.3360    0.8000   21.1530 C   0  0  0  0  0  0  0  0  0  0  0  0
    8.3310   -2.7170   25.3430 C   0  0  0  0  0  0  0  0  0  0  0  0
   10.2570   -3.5000   24.1350 C   0  0  0  0  0  0  0  0  0  0  0  0
    8.3510   -1.5420   24.6110 C   0  0  0  0  0  0  0  0  0  0  0  0
   10.2760   -2.3270   23.4020 C   0  0  0  0  0  0  0  0  0  0  0  0
   14.3084    0.9454   23.4803 C   0  0  0  0  0  0  0  0  0  0  0  0
   12.2323    0.1076   24.3888 C   0  0  0  0  0  0  0  0  0  0  0  0
    7.6830   -0.5170   18.7600 C   0  0  0  0  0  0  0  0  0  0  0  0
   11.5217    1.0079   23.5949 C   0  0  0  0  0  0  0  0  0  0  0  0
    5.9810    0.8330   18.8060 C   0  0  0  0  0  0  0  0  0  0  0  0
    6.1600    0.3870   20.1140 C   0  0  0  0  0  0  0  0  0  0  0  0
    9.2850   -3.7090   25.1090 C   0  0  0  0  0  0  0  0  0  0  0  0
    9.3300   -1.3350   23.6390 C   0  0  0  0  0  0  0  0  0  0  0  0
   13.6257    0.0764   24.3314 C   0  0  0  0  0  0  0  0  0  0  0  0
    9.6851   -6.1686   25.4416 C   0  0  0  0  0  0  0  0  0  0  0  0
    8.9510    0.1280   21.6880 C   0  0  0  0  0  0  0  0  0  0  0  0
    8.0387   -7.2896   27.0032 C   0  0  0  0  0  0  0  0  0  0  0  0
   10.0220    1.0430   23.6570 C   0  0  0  0  0  0  0  0  0  0  0  0
    9.4855   -7.1863   26.5549 C   0  0  0  0  0  0  0  0  0  0  0  0
    8.0810   -0.9750   21.0820 C   0  0  0  0  0  0  0  0  0  0  0  0
    6.9440    0.2550   18.0100 N   0  0  0  0  0  0  0  0  0  0  0  0
    7.2210   -0.4620   20.0350 N   0  0  0  0  0  0  0  0  0  0  0  0
    9.2630   -4.8902   25.8410 N   0  0  0  0  0  0  0  0  0  0  0  0
    9.4200   -0.0840   22.9530 N   0  0  0  0  0  0  0  0  0  0  0  0
   10.1590   -6.4792   24.3537 O   0  0  0  0  0  0  0  0  0  0  0  0
    9.1870    1.1500   21.0630 O   0  0  0  0  0  0  0  0  0  0  0  0
   14.5031   -1.0334   25.3114 Cl  0  0  0  0  0  0  0  0  0  0  0  0
    3.2711    2.7875   19.3201 H   0  0  0  0  0  0  0  0  0  0  0  0
    3.6281    2.0095   21.6292 H   0  0  0  0  0  0  0  0  0  0  0  0
   14.1289    2.5226   22.0237 H   0  0  0  0  0  0  0  0  0  0  0  0
   11.6588    2.5818   22.1218 H   0  0  0  0  0  0  0  0  0  0  0  0
    4.7815    2.0665   17.4902 H   0  0  0  0  0  0  0  0  0  0  0  0
    5.4939    0.4577   22.1786 H   0  0  0  0  0  0  0  0  0  0  0  0
    7.5639   -2.8621   26.1045 H   0  0  0  0  0  0  0  0  0  0  0  0
   11.0141   -4.2644   23.9422 H   0  0  0  0  0  0  0  0  0  0  0  0
    7.5950   -0.7788   24.8007 H   0  0  0  0  0  0  0  0  0  0  0  0
   11.0408   -2.1861   22.6359 H   0  0  0  0  0  0  0  0  0  0  0  0
   15.3941    0.9323   23.4255 H   0  0  0  0  0  0  0  0  0  0  0  0
   11.6954   -0.5682   25.0504 H   0  0  0  0  0  0  0  0  0  0  0  0
    8.5167   -1.1056   18.4550 H   0  0  0  0  0  0  0  0  0  0  0  0
    7.6696   -6.3247   27.3662 H   0  0  0  0  0  0  0  0  0  0  0  0
    7.9418   -8.0194   27.8128 H   0  0  0  0  0  0  0  0  0  0  0  0
    7.3931   -7.6069   26.1776 H   0  0  0  0  0  0  0  0  0  0  0  0
    9.6778    1.0140   24.6966 H   0  0  0  0  0  0  0  0  0  0  0  0
    9.6316    1.9637   23.2107 H   0  0  0  0  0  0  0  0  0  0  0  0
    9.8279   -8.1642   26.1973 H   0  0  0  0  0  0  0  0  0  0  0  0
   10.1123   -6.8975   27.4064 H   0  0  0  0  0  0  0  0  0  0  0  0
    8.7073   -1.7481   20.6391 H   0  0  0  0  0  0  0  0  0  0  0  0
    7.4352   -1.4043   21.8468 H   0  0  0  0  0  0  0  0  0  0  0  0
    8.8927   -4.8257   26.7964 H   0  0  0  0  0  0  0  0  0  0  0  0
  1  2  1  0  0  0  0
  1  5  2  0  0  0  0
  2  6  2  0  0  0  0
  3  4  2  0  0  0  0
  3 11  1  0  0  0  0
  4 14  1  0  0  0  0
  5 15  1  0  0  0  0
  6 16  1  0  0  0  0
  7  9  2  0  0  0  0
  7 17  1  0  0  0  0
  8 10  1  0  0  0  0
  8 17  2  0  0  0  0
  9 18  1  0  0  0  0
 10 18  2  0  0  0  0
 11 19  2  0  0  0  0
 12 14  2  0  0  0  0
 12 19  1  0  0  0  0
 13 26  2  0  0  0  0
 13 27  1  0  0  0  0
 14 23  1  0  0  0  0
 15 16  2  0  0  0  0
 15 26  1  0  0  0  0
 16 27  1  0  0  0  0
 17 28  1  0  0  0  0
 18 29  1  0  0  0  0
 19 32  1  0  0  0  0
 20 24  1  0  0  0  0
 20 28  1  0  0  0  0
 20 30  2  0  0  0  0
 21 25  1  0  0  0  0
 21 29  1  0  0  0  0
 21 31  2  0  0  0  0
 22 24  1  0  0  0  0
 23 29  1  0  0  0  0
 25 27  1  0  0  0  0
  1 33  1  0  0  0  0
  2 34  1  0  0  0  0
  3 35  1  0  0  0  0
  4 36  1  0  0  0  0
  5 37  1  0  0  0  0
  6 38  1  0  0  0  0
  7 39  1  0  0  0  0
  8 40  1  0  0  0  0
  9 41  1  0  0  0  0
 10 42  1  0  0  0  0
 11 43  1  0  0  0  0
 12 44  1  0  0  0  0
 13 45  1  0  0  0  0
 22 46  1  0  0  0  0
 22 47  1  0  0  0  0
 22 48  1  0  0  0  0
 23 49  1  0  0  0  0
 23 50  1  0  0  0  0
 24 51  1  0  0  0  0
 24 52  1  0  0  0  0
 25 53  1  0  0  0  0
 25 54  1  0  0  0  0
 28 55  1  0  0  0  0
M  END
> <clash_score>
2.1000026189123298

> <docking_score>
-6.066977500915527

> <overlap_score>
0.9923566579818726

$$$$
BENZO_371_1
  -OEChem-08222022423D

 55 58  0     0  0  0  0  0  0999 V2000
    4.0980    2.1130   19.5350 C   0  0  0  0  0  0  0  0  0  0  0  0
    4.2970    1.6690   20.8430 C   0  0  0  0  0  0  0  0  0  0  0  0
    4.9400    1.7060   18.5060 C   0  0  0  0  0  0  0  0  0  0  0  0
    5.3360    0.8000   21.1530 C   0  0  0  0  0  0  0  0  0  0  0  0
    8.3310   -2.7170   25.3430 C   0  0  0  0  0  0  0  0  0  0  0  0
   10.2570   -3.5000   24.1350 C   0  0  0  0  0  0  0  0  0  0  0  0
    8.3510   -1.5420   24.6110 C   0  0  0  0  0  0  0  0  0  0  0  0
   10.2760   -2.3270   23.4020 C   0  0  0  0  0  0  0  0  0  0  0  0
   12.4295    0.9466   24.6692 C   0  0  0  0  0  0  0  0  0  0  0  0
   12.3161    1.0259   22.4747 C   0  0  0  0  0  0  0  0  0  0  0  0
    7.6830   -0.5170   18.7600 C   0  0  0  0  0  0  0  0  0  0  0  0
   11.5217    1.0079   23.5949 C   0  0  0  0  0  0  0  0  0  0  0  0
    5.9810    0.8330   18.8060 C   0  0  0  0  0  0  0  0  0  0  0  0
    6.1600    0.3870   20.1140 C   0  0  0  0  0  0  0  0  0  0  0  0
    9.2850   -3.7090   25.1090 C   0  0  0  0  0  0  0  0  0  0  0  0
    9.3300   -1.3350   23.6390 C   0  0  0  0  0  0  0  0  0  0  0  0
    9.6851   -6.1686   25.4416 C   0  0  0  0  0  0  0  0  0  0  0  0
    8.9510    0.1280   21.6880 C   0  0  0  0  0  0  0  0  0  0  0  0
    8.0387   -7.2896   27.0032 C   0  0  0  0  0  0  0  0  0  0  0  0
   14.7958    0.9722   22.1181 C   0  0  0  0  0  0  0  0  0  0  0  0
   10.0220    1.0430   23.6570 C   0  0  0  0  0  0  0  0  0  0  0  0
    9.4855   -7.1863   26.5549 C   0  0  0  0  0  0  0  0  0  0  0  0
    8.0810   -0.9750   21.0820 C   0  0  0  0  0  0  0  0  0  0  0  0
   13.7032    0.9267   24.2674 N   0  0  0  0  0  0  0  0  0  0  0  0
    6.9440    0.2550   18.0100 N   0  0  0  0  0  0  0  0  0  0  0  0
   13.6014    0.9758   22.9283 N   0  0  0  0  0  0  0  0  0  0  0  0
    7.2210   -0.4620   20.0350 N   0  0  0  0  0  0  0  0  0  0  0  0
    9.2630   -4.8902   25.8410 N   0  0  0  0  0  0  0  0  0  0  0  0
    9.4200   -0.0840   22.9530 N   0  0  0  0  0  0  0  0  0  0  0  0
   10.1590   -6.4792   24.3537 O   0  0  0  0  0  0  0  0  0  0  0  0
    9.1870    1.1500   21.0630 O   0  0  0  0  0  0  0  0  0  0  0  0
    3.2711    2.7875   19.3201 H   0  0  0  0  0  0  0  0  0  0  0  0
    3.6281    2.0095   21.6292 H   0  0  0  0  0  0  0  0  0  0  0  0
    4.7815    2.0665   17.4902 H   0  0  0  0  0  0  0  0  0  0  0  0
    5.4939    0.4577   22.1786 H   0  0  0  0  0  0  0  0  0  0  0  0
    7.5639   -2.8621   26.1045 H   0  0  0  0  0  0  0  0  0  0  0  0
   11.0141   -4.2644   23.9422 H   0  0  0  0  0  0  0  0  0  0  0  0
    7.5950   -0.7788   24.8007 H   0  0  0  0  0  0  0  0  0  0  0  0
   11.0408   -2.1861   22.6359 H   0  0  0  0  0  0  0  0  0  0  0  0
   12.2184    0.9145   25.7287 H   0  0  0  0  0  0  0  0  0  0  0  0
   12.0821    1.0677   21.4195 H   0  0  0  0  0  0  0  0  0  0  0  0
    8.5167   -1.1056   18.4550 H   0  0  0  0  0  0  0  0  0  0  0  0
    7.6696   -6.3247   27.3662 H   0  0  0  0  0  0  0  0  0  0  0  0
    7.9418   -8.0194   27.8128 H   0  0  0  0  0  0  0  0  0  0  0  0
    7.3931   -7.6069   26.1776 H   0  0  0  0  0  0  0  0  0  0  0  0
   15.1026    2.0102   21.9649 H   0  0  0  0  0  0  0  0  0  0  0  0
   15.5826    0.4128   22.6318 H   0  0  0  0  0  0  0  0  0  0  0  0
   14.5811    0.4906   21.1600 H   0  0  0  0  0  0  0  0  0  0  0  0
    9.6778    1.0140   24.6966 H   0  0  0  0  0  0  0  0  0  0  0  0
    9.6316    1.9637   23.2107 H   0  0  0  0  0  0  0  0  0  0  0  0
    9.8279   -8.1642   26.1973 H   0  0  0  0  0  0  0  0  0  0  0  0
   10.1123   -6.8975   27.4064 H   0  0  0  0  0  0  0  0  0  0  0  0
    8.7073   -1.7481   20.6391 H   0  0  0  0  0  0  0  0  0  0  0  0
    7.4352   -1.4043   21.8468 H   0  0  0  0  0  0  0  0  0  0  0  0
    8.8927   -4.8257   26.7964 H   0  0  0  0  0  0  0  0  0  0  0  0
  1  2  1  0  0  0  0
  1  3  2  0  0  0  0
  2  4  2  0  0  0  0
  3 13  1  0  0  0  0
  4 14  1  0  0  0  0
  5  7  2  0  0  0  0
  5 15  1  0  0  0  0
  6  8  1  0  0  0  0
  6 15  2  0  0  0  0
  7 16  1  0  0  0  0
  8 16  2  0  0  0  0
  9 12  1  0  0  0  0
  9 24  2  0  0  0  0
 10 12  2  0  0  0  0
 10 26  1  0  0  0  0
 11 25  2  0  0  0  0
 11 27  1  0  0  0  0
 12 21  1  0  0  0  0
 13 14  2  0  0  0  0
 13 25  1  0  0  0  0
 14 27  1  0  0  0  0
 15 28  1  0  0  0  0
 16 29  1  0  0  0  0
 17 22  1  0  0  0  0
 17 28  1  0  0  0  0
 17 30  2  0  0  0  0
 18 23  1  0  0  0  0
 18 29  1  0  0  0  0
 18 31  2  0  0  0  0
 19 22  1  0  0  0  0
 20 26  1  0  0  0  0
 21 29  1  0  0  0  0
 23 27  1  0  0  0  0
 24 26  1  0  0  0  0
  1 32  1  0  0  0  0
  2 33  1  0  0  0  0
  3 34  1  0  0  0  0
  4 35  1  0  0  0  0
  5 36  1  0  0  0  0
  6 37  1  0  0  0  0
  7 38  1  0  0  0  0
  8 39  1  0  0  0  0
  9 40  1  0  0  0  0
 10 41  1  0  0  0  0
 11 42  1  0  0  0  0
 19 43  1  0  0  0  0
 19 44  1  0  0  0  0
 19 45  1  0  0  0  0
 20 46  1  0  0  0  0
 20 47  1  0  0  0  0
 20 48  1  0  0  0  0
 21 49  1  0  0  0  0
 21 50  1  0  0  0  0
 22 51  1  0  0  0  0
 22 52  1  0  0  0  0
 23 53  1  0  0  0  0
 23 54  1  0  0  0  0
 28 55  1  0  0  0  0
M  END
> <clash_score>
1.3337581357662123

> <docking_score>
-6.827146530151367

> <overlap_score>
0.9779901504516602

$$$$
BENZO_377_1
  -OEChem-08222022423D

 48 51  0     0  0  0  0  0  0999 V2000
   14.3082    0.9431   23.4783 C   0  0  0  0  0  0  0  0  0  0  0  0
   13.6391    0.3091   24.5251 C   0  0  0  0  0  0  0  0  0  0  0  0
   13.5841    1.6096   22.4898 C   0  0  0  0  0  0  0  0  0  0  0  0
    4.0980    2.1130   19.5350 C   0  0  0  0  0  0  0  0  0  0  0  0
    4.2970    1.6690   20.8430 C   0  0  0  0  0  0  0  0  0  0  0  0
   12.2459    0.3415   24.5835 C   0  0  0  0  0  0  0  0  0  0  0  0
   12.1908    1.6420   22.5481 C   0  0  0  0  0  0  0  0  0  0  0  0
    8.3310   -2.7170   25.3430 C   0  0  0  0  0  0  0  0  0  0  0  0
   10.2570   -3.5000   24.1350 C   0  0  0  0  0  0  0  0  0  0  0  0
    4.9400    1.7060   18.5060 C   0  0  0  0  0  0  0  0  0  0  0  0
    5.3360    0.8000   21.1530 C   0  0  0  0  0  0  0  0  0  0  0  0
    8.3510   -1.5420   24.6110 C   0  0  0  0  0  0  0  0  0  0  0  0
   10.2760   -2.3270   23.4020 C   0  0  0  0  0  0  0  0  0  0  0  0
    7.6830   -0.5170   18.7600 C   0  0  0  0  0  0  0  0  0  0  0  0
    9.2850   -3.7090   25.1090 C   0  0  0  0  0  0  0  0  0  0  0  0
   11.5217    1.0079   23.5949 C   0  0  0  0  0  0  0  0  0  0  0  0
    5.9810    0.8330   18.8060 C   0  0  0  0  0  0  0  0  0  0  0  0
    6.1600    0.3870   20.1140 C   0  0  0  0  0  0  0  0  0  0  0  0
    9.3300   -1.3350   23.6390 C   0  0  0  0  0  0  0  0  0  0  0  0
    8.9510    0.1280   21.6880 C   0  0  0  0  0  0  0  0  0  0  0  0
    9.2610   -4.9721   25.8916 C   0  0  0  0  0  0  0  0  0  0  0  0
   10.0220    1.0430   23.6570 C   0  0  0  0  0  0  0  0  0  0  0  0
    8.0810   -0.9750   21.0820 C   0  0  0  0  0  0  0  0  0  0  0  0
    6.9440    0.2550   18.0100 N   0  0  0  0  0  0  0  0  0  0  0  0
    7.2210   -0.4620   20.0350 N   0  0  0  0  0  0  0  0  0  0  0  0
    9.4200   -0.0840   22.9530 N   0  0  0  0  0  0  0  0  0  0  0  0
    9.1870    1.1500   21.0630 O   0  0  0  0  0  0  0  0  0  0  0  0
   15.3932    0.9189   23.4337 H   0  0  0  0  0  0  0  0  0  0  0  0
   14.2028   -0.2090   25.2955 H   0  0  0  0  0  0  0  0  0  0  0  0
   14.1048    2.1043   21.6752 H   0  0  0  0  0  0  0  0  0  0  0  0
    3.2711    2.7875   19.3201 H   0  0  0  0  0  0  0  0  0  0  0  0
    3.6281    2.0095   21.6292 H   0  0  0  0  0  0  0  0  0  0  0  0
   11.7330   -0.1555   25.4027 H   0  0  0  0  0  0  0  0  0  0  0  0
   11.6349    2.1636   21.7735 H   0  0  0  0  0  0  0  0  0  0  0  0
    7.5665   -2.8638   26.1066 H   0  0  0  0  0  0  0  0  0  0  0  0
   11.0137   -4.2652   23.9447 H   0  0  0  0  0  0  0  0  0  0  0  0
    4.7815    2.0665   17.4902 H   0  0  0  0  0  0  0  0  0  0  0  0
    5.4939    0.4577   22.1786 H   0  0  0  0  0  0  0  0  0  0  0  0
    7.5948   -0.7788   24.7997 H   0  0  0  0  0  0  0  0  0  0  0  0
   11.0411   -2.1856   22.6358 H   0  0  0  0  0  0  0  0  0  0  0  0
    8.5167   -1.1056   18.4550 H   0  0  0  0  0  0  0  0  0  0  0  0
    8.6398   -5.7223   25.3871 H   0  0  0  0  0  0  0  0  0  0  0  0
   10.2715   -5.3829   26.0145 H   0  0  0  0  0  0  0  0  0  0  0  0
    8.8596   -4.8092   26.9004 H   0  0  0  0  0  0  0  0  0  0  0  0
    9.6778    1.0140   24.6966 H   0  0  0  0  0  0  0  0  0  0  0  0
    9.6316    1.9637   23.2107 H   0  0  0  0  0  0  0  0  0  0  0  0
    8.7073   -1.7481   20.6391 H   0  0  0  0  0  0  0  0  0  0  0  0
    7.4352   -1.4043   21.8468 H   0  0  0  0  0  0  0  0  0  0  0  0
  1  2  1  0  0  0  0
  1  3  2  0  0  0  0
  2  6  2  0  0  0  0
  3  7  1  0  0  0  0
  4  5  1  0  0  0  0
  4 10  2  0  0  0  0
  5 11  2  0  0  0  0
  6 16  1  0  0  0  0
  7 16  2  0  0  0  0
  8 12  2  0  0  0  0
  8 15  1  0  0  0  0
  9 13  1  0  0  0  0
  9 15  2  0  0  0  0
 10 17  1  0  0  0  0
 11 18  1  0  0  0  0
 12 19  1  0  0  0  0
 13 19  2  0  0  0  0
 14 24  2  0  0  0  0
 14 25  1  0  0  0  0
 15 21  1  0  0  0  0
 16 22  1  0  0  0  0
 17 18  2  0  0  0  0
 17 24  1  0  0  0  0
 18 25  1  0  0  0  0
 19 26  1  0  0  0  0
 20 23  1  0  0  0  0
 20 26  1  0  0  0  0
 20 27  2  0  0  0  0
 22 26  1  0  0  0  0
 23 25  1  0  0  0  0
  1 28  1  0  0  0  0
  2 29  1  0  0  0  0
  3 30  1  0  0  0  0
  4 31  1  0  0  0  0
  5 32  1  0  0  0  0
  6 33  1  0  0  0  0
  7 34  1  0  0  0  0
  8 35  1  0  0  0  0
  9 36  1  0  0  0  0
 10 37  1  0  0  0  0
 11 38  1  0  0  0  0
 12 39  1  0  0  0  0
 13 40  1  0  0  0  0
 14 41  1  0  0  0  0
 21 42  1  0  0  0  0
 21 43  1  0  0  0  0
 21 44  1  0  0  0  0
 22 45  1  0  0  0  0
 22 46  1  0  0  0  0
 23 47  1  0  0  0  0
 23 48  1  0  0  0  0
M  END
> <clash_score>
0

> <docking_score>
-10.077462196350098

> <overlap_score>
0.9717715382575989

$$$$
BENZO_376_1
  -OEChem-08222022423D

 45 48  0     0  0  0  0  0  0999 V2000
    4.0980    2.1130   19.5350 C   0  0  0  0  0  0  0  0  0  0  0  0
    4.2970    1.6690   20.8430 C   0  0  0  0  0  0  0  0  0  0  0  0
    8.3310   -2.7170   25.3430 C   0  0  0  0  0  0  0  0  0  0  0  0
   10.2570   -3.5000   24.1350 C   0  0  0  0  0  0  0  0  0  0  0  0
    4.9400    1.7060   18.5060 C   0  0  0  0  0  0  0  0  0  0  0  0
    5.3360    0.8000   21.1530 C   0  0  0  0  0  0  0  0  0  0  0  0
    8.3510   -1.5420   24.6110 C   0  0  0  0  0  0  0  0  0  0  0  0
   10.2760   -2.3270   23.4020 C   0  0  0  0  0  0  0  0  0  0  0  0
   12.2675    1.0332   22.3812 C   0  0  0  0  0  0  0  0  0  0  0  0
   13.6257    0.9906   22.6074 C   0  0  0  0  0  0  0  0  0  0  0  0
   12.3384    0.9467   24.7028 C   0  0  0  0  0  0  0  0  0  0  0  0
    7.6830   -0.5170   18.7600 C   0  0  0  0  0  0  0  0  0  0  0  0
    9.2850   -3.7090   25.1090 C   0  0  0  0  0  0  0  0  0  0  0  0
   11.5217    1.0079   23.5949 C   0  0  0  0  0  0  0  0  0  0  0  0
    5.9810    0.8330   18.8060 C   0  0  0  0  0  0  0  0  0  0  0  0
    6.1600    0.3870   20.1140 C   0  0  0  0  0  0  0  0  0  0  0  0
    9.3300   -1.3350   23.6390 C   0  0  0  0  0  0  0  0  0  0  0  0
    8.9510    0.1280   21.6880 C   0  0  0  0  0  0  0  0  0  0  0  0
    9.2610   -4.9721   25.8916 C   0  0  0  0  0  0  0  0  0  0  0  0
   10.0220    1.0430   23.6570 C   0  0  0  0  0  0  0  0  0  0  0  0
    8.0810   -0.9750   21.0820 C   0  0  0  0  0  0  0  0  0  0  0  0
    6.9440    0.2550   18.0100 N   0  0  0  0  0  0  0  0  0  0  0  0
    7.2210   -0.4620   20.0350 N   0  0  0  0  0  0  0  0  0  0  0  0
    9.4200   -0.0840   22.9530 N   0  0  0  0  0  0  0  0  0  0  0  0
    9.1870    1.1500   21.0630 O   0  0  0  0  0  0  0  0  0  0  0  0
   13.9969    0.9202   24.2776 S   0  0  0  0  0  0  0  0  0  0  0  0
    3.2711    2.7875   19.3201 H   0  0  0  0  0  0  0  0  0  0  0  0
    3.6281    2.0095   21.6292 H   0  0  0  0  0  0  0  0  0  0  0  0
    7.5665   -2.8638   26.1066 H   0  0  0  0  0  0  0  0  0  0  0  0
   11.0137   -4.2652   23.9447 H   0  0  0  0  0  0  0  0  0  0  0  0
    4.7815    2.0665   17.4902 H   0  0  0  0  0  0  0  0  0  0  0  0
    5.4939    0.4577   22.1786 H   0  0  0  0  0  0  0  0  0  0  0  0
    7.5948   -0.7788   24.7997 H   0  0  0  0  0  0  0  0  0  0  0  0
   11.0411   -2.1856   22.6358 H   0  0  0  0  0  0  0  0  0  0  0  0
   11.8338    1.0798   21.3902 H   0  0  0  0  0  0  0  0  0  0  0  0
   14.4176    0.9966   21.8719 H   0  0  0  0  0  0  0  0  0  0  0  0
   12.0446    0.9149   25.7428 H   0  0  0  0  0  0  0  0  0  0  0  0
    8.5167   -1.1056   18.4550 H   0  0  0  0  0  0  0  0  0  0  0  0
    8.6398   -5.7223   25.3871 H   0  0  0  0  0  0  0  0  0  0  0  0
   10.2715   -5.3829   26.0145 H   0  0  0  0  0  0  0  0  0  0  0  0
    8.8596   -4.8092   26.9004 H   0  0  0  0  0  0  0  0  0  0  0  0
    9.6778    1.0140   24.6966 H   0  0  0  0  0  0  0  0  0  0  0  0
    9.6316    1.9637   23.2107 H   0  0  0  0  0  0  0  0  0  0  0  0
    8.7073   -1.7481   20.6391 H   0  0  0  0  0  0  0  0  0  0  0  0
    7.4352   -1.4043   21.8468 H   0  0  0  0  0  0  0  0  0  0  0  0
  1  2  1  0  0  0  0
  1  5  2  0  0  0  0
  2  6  2  0  0  0  0
  3  7  2  0  0  0  0
  3 13  1  0  0  0  0
  4  8  1  0  0  0  0
  4 13  2  0  0  0  0
  5 15  1  0  0  0  0
  6 16  1  0  0  0  0
  7 17  1  0  0  0  0
  8 17  2  0  0  0  0
  9 10  2  0  0  0  0
  9 14  1  0  0  0  0
 10 26  1  0  0  0  0
 11 14  2  0  0  0  0
 11 26  1  0  0  0  0
 12 22  2  0  0  0  0
 12 23  1  0  0  0  0
 13 19  1  0  0  0  0
 14 20  1  0  0  0  0
 15 16  2  0  0  0  0
 15 22  1  0  0  0  0
 16 23  1  0  0  0  0
 17 24  1  0  0  0  0
 18 21  1  0  0  0  0
 18 24  1  0  0  0  0
 18 25  2  0  0  0  0
 20 24  1  0  0  0  0
 21 23  1  0  0  0  0
  1 27  1  0  0  0  0
  2 28  1  0  0  0  0
  3 29  1  0  0  0  0
  4 30  1  0  0  0  0
  5 31  1  0  0  0  0
  6 32  1  0  0  0  0
  7 33  1  0  0  0  0
  8 34  1  0  0  0  0
  9 35  1  0  0  0  0
 10 36  1  0  0  0  0
 11 37  1  0  0  0  0
 12 38  1  0  0  0  0
 19 39  1  0  0  0  0
 19 40  1  0  0  0  0
 19 41  1  0  0  0  0
 20 42  1  0  0  0  0
 20 43  1  0  0  0  0
 21 44  1  0  0  0  0
 21 45  1  0  0  0  0
M  END
> <clash_score>
0

> <docking_score>
-10.3236665725708

> <overlap_score>
0.9457805156707764

$$$$
BENZO_375_1
  -OEChem-08222022423D

 60 64  0     0  0  0  0  0  0999 V2000
    4.0980    2.1130   19.5350 C   0  0  0  0  0  0  0  0  0  0  0  0
    4.2970    1.6690   20.8430 C   0  0  0  0  0  0  0  0  0  0  0  0
    4.9400    1.7060   18.5060 C   0  0  0  0  0  0  0  0  0  0  0  0
    5.3360    0.8000   21.1530 C   0  0  0  0  0  0  0  0  0  0  0  0
    8.3310   -2.7170   25.3430 C   0  0  0  0  0  0  0  0  0  0  0  0
   10.2570   -3.5000   24.1350 C   0  0  0  0  0  0  0  0  0  0  0  0
    8.3510   -1.5420   24.6110 C   0  0  0  0  0  0  0  0  0  0  0  0
   10.2760   -2.3270   23.4020 C   0  0  0  0  0  0  0  0  0  0  0  0
   12.4359    1.7439   24.3724 C   0  0  0  0  0  0  0  0  0  0  0  0
   12.3100    0.2469   22.7668 C   0  0  0  0  0  0  0  0  0  0  0  0
    7.6830   -0.5170   18.7600 C   0  0  0  0  0  0  0  0  0  0  0  0
   11.5217    1.0079   23.5949 C   0  0  0  0  0  0  0  0  0  0  0  0
    5.9810    0.8330   18.8060 C   0  0  0  0  0  0  0  0  0  0  0  0
    6.1600    0.3870   20.1140 C   0  0  0  0  0  0  0  0  0  0  0  0
    9.2850   -3.7090   25.1090 C   0  0  0  0  0  0  0  0  0  0  0  0
    9.3300   -1.3350   23.6390 C   0  0  0  0  0  0  0  0  0  0  0  0
    8.9510    0.1280   21.6880 C   0  0  0  0  0  0  0  0  0  0  0  0
    7.3162   -6.8835   26.5210 C   0  0  0  0  0  0  0  0  0  0  0  0
    7.3507   -5.5245   27.2240 C   0  0  0  0  0  0  0  0  0  0  0  0
    7.9375   -6.8069   25.1245 C   0  0  0  0  0  0  0  0  0  0  0  0
    8.7638   -4.9418   27.2163 C   0  0  0  0  0  0  0  0  0  0  0  0
    9.3378   -6.1874   25.1659 C   0  0  0  0  0  0  0  0  0  0  0  0
   14.7884    0.0124   22.4815 C   0  0  0  0  0  0  0  0  0  0  0  0
   10.0220    1.0430   23.6570 C   0  0  0  0  0  0  0  0  0  0  0  0
    8.0810   -0.9750   21.0820 C   0  0  0  0  0  0  0  0  0  0  0  0
   13.7076    1.4745   24.0657 N   0  0  0  0  0  0  0  0  0  0  0  0
    6.9440    0.2550   18.0100 N   0  0  0  0  0  0  0  0  0  0  0  0
   13.5982    0.5607   23.0864 N   0  0  0  0  0  0  0  0  0  0  0  0
    7.2210   -0.4620   20.0350 N   0  0  0  0  0  0  0  0  0  0  0  0
    9.2639   -4.8860   25.8399 N   0  0  0  0  0  0  0  0  0  0  0  0
    9.4200   -0.0840   22.9530 N   0  0  0  0  0  0  0  0  0  0  0  0
    9.1870    1.1500   21.0630 O   0  0  0  0  0  0  0  0  0  0  0  0
    3.2711    2.7875   19.3201 H   0  0  0  0  0  0  0  0  0  0  0  0
    3.6281    2.0095   21.6292 H   0  0  0  0  0  0  0  0  0  0  0  0
    4.7815    2.0665   17.4902 H   0  0  0  0  0  0  0  0  0  0  0  0
    5.4939    0.4577   22.1786 H   0  0  0  0  0  0  0  0  0  0  0  0
    7.5647   -2.8621   26.1053 H   0  0  0  0  0  0  0  0  0  0  0  0
   11.0144   -4.2642   23.9425 H   0  0  0  0  0  0  0  0  0  0  0  0
    7.5958   -0.7779   24.8006 H   0  0  0  0  0  0  0  0  0  0  0  0
   11.0406   -2.1848   22.6356 H   0  0  0  0  0  0  0  0  0  0  0  0
   12.2308    2.4652   25.1508 H   0  0  0  0  0  0  0  0  0  0  0  0
   12.0700   -0.4744   21.9974 H   0  0  0  0  0  0  0  0  0  0  0  0
    8.5167   -1.1056   18.4550 H   0  0  0  0  0  0  0  0  0  0  0  0
    7.8578   -7.6261   27.1266 H   0  0  0  0  0  0  0  0  0  0  0  0
    6.2773   -7.2358   26.4459 H   0  0  0  0  0  0  0  0  0  0  0  0
    6.6663   -4.8351   26.7223 H   0  0  0  0  0  0  0  0  0  0  0  0
    7.0044   -5.6368   28.2534 H   0  0  0  0  0  0  0  0  0  0  0  0
    7.9946   -7.8119   24.6937 H   0  0  0  0  0  0  0  0  0  0  0  0
    7.2929   -6.2123   24.4668 H   0  0  0  0  0  0  0  0  0  0  0  0
    8.7343   -3.9408   27.6542 H   0  0  0  0  0  0  0  0  0  0  0  0
    9.4243   -5.5632   27.8278 H   0  0  0  0  0  0  0  0  0  0  0  0
   10.0200   -6.8490   25.7011 H   0  0  0  0  0  0  0  0  0  0  0  0
    9.6984   -6.0694   24.1436 H   0  0  0  0  0  0  0  0  0  0  0  0
   15.0569    0.6453   21.6315 H   0  0  0  0  0  0  0  0  0  0  0  0
   15.5971   -0.0026   23.2174 H   0  0  0  0  0  0  0  0  0  0  0  0
   14.5870   -1.0100   22.1498 H   0  0  0  0  0  0  0  0  0  0  0  0
    9.6778    1.0140   24.6966 H   0  0  0  0  0  0  0  0  0  0  0  0
    9.6316    1.9637   23.2107 H   0  0  0  0  0  0  0  0  0  0  0  0
    8.7136   -1.7499   20.6462 H   0  0  0  0  0  0  0  0  0  0  0  0
    7.4415   -1.4060   21.8540 H   0  0  0  0  0  0  0  0  0  0  0  0
  1  2  1  0  0  0  0
  1  3  2  0  0  0  0
  2  4  2  0  0  0  0
  3 13  1  0  0  0  0
  4 14  1  0  0  0  0
  5  7  2  0  0  0  0
  5 15  1  0  0  0  0
  6  8  1  0  0  0  0
  6 15  2  0  0  0  0
  7 16  1  0  0  0  0
  8 16  2  0  0  0  0
  9 12  1  0  0  0  0
  9 26  2  0  0  0  0
 10 12  2  0  0  0  0
 10 28  1  0  0  0  0
 11 27  2  0  0  0  0
 11 29  1  0  0  0  0
 12 24  1  0  0  0  0
 13 14  2  0  0  0  0
 13 27  1  0  0  0  0
 14 29  1  0  0  0  0
 15 30  1  0  0  0  0
 16 31  1  0  0  0  0
 17 25  1  0  0  0  0
 17 31  1  0  0  0  0
 17 32  2  0  0  0  0
 18 19  1  0  0  0  0
 18 20  1  0  0  0  0
 19 21  1  0  0  0  0
 20 22  1  0  0  0  0
 21 30  1  0  0  0  0
 22 30  1  0  0  0  0
 23 28  1  0  0  0  0
 24 31  1  0  0  0  0
 25 29  1  0  0  0  0
 26 28  1  0  0  0  0
  1 33  1  0  0  0  0
  2 34  1  0  0  0  0
  3 35  1  0  0  0  0
  4 36  1  0  0  0  0
  5 37  1  0  0  0  0
  6 38  1  0  0  0  0
  7 39  1  0  0  0  0
  8 40  1  0  0  0  0
  9 41  1  0  0  0  0
 10 42  1  0  0  0  0
 11 43  1  0  0  0  0
 18 44  1  0  0  0  0
 18 45  1  0  0  0  0
 19 46  1  0  0  0  0
 19 47  1  0  0  0  0
 20 48  1  0  0  0  0
 20 49  1  0  0  0  0
 21 50  1  0  0  0  0
 21 51  1  0  0  0  0
 22 52  1  0  0  0  0
 22 53  1  0  0  0  0
 23 54  1  0  0  0  0
 23 55  1  0  0  0  0
 23 56  1  0  0  0  0
 24 57  1  0  0  0  0
 24 58  1  0  0  0  0
 25 59  1  0  0  0  0
 25 60  1  0  0  0  0
M  END
> <clash_score>
0

> <docking_score>
-9.334403991699219

> <overlap_score>
1.0017563104629517

$$$$
BENZO_374_1
  -OEChem-08222022423D

 60 64  0     0  0  0  0  0  0999 V2000
    4.0980    2.1130   19.5350 C   0  0  0  0  0  0  0  0  0  0  0  0
    4.2970    1.6690   20.8430 C   0  0  0  0  0  0  0  0  0  0  0  0
   13.5977    1.8457   22.6865 C   0  0  0  0  0  0  0  0  0  0  0  0
   12.2044    1.8769   22.7438 C   0  0  0  0  0  0  0  0  0  0  0  0
    4.9400    1.7060   18.5060 C   0  0  0  0  0  0  0  0  0  0  0  0
    5.3360    0.8000   21.1530 C   0  0  0  0  0  0  0  0  0  0  0  0
    8.3310   -2.7170   25.3430 C   0  0  0  0  0  0  0  0  0  0  0  0
   10.2570   -3.5000   24.1350 C   0  0  0  0  0  0  0  0  0  0  0  0
    8.3510   -1.5420   24.6110 C   0  0  0  0  0  0  0  0  0  0  0  0
   10.2760   -2.3270   23.4020 C   0  0  0  0  0  0  0  0  0  0  0  0
   14.3084    0.9454   23.4803 C   0  0  0  0  0  0  0  0  0  0  0  0
   12.2323    0.1076   24.3888 C   0  0  0  0  0  0  0  0  0  0  0  0
    7.6830   -0.5170   18.7600 C   0  0  0  0  0  0  0  0  0  0  0  0
   11.5217    1.0079   23.5949 C   0  0  0  0  0  0  0  0  0  0  0  0
    5.9810    0.8330   18.8060 C   0  0  0  0  0  0  0  0  0  0  0  0
    6.1600    0.3870   20.1140 C   0  0  0  0  0  0  0  0  0  0  0  0
    9.2850   -3.7090   25.1090 C   0  0  0  0  0  0  0  0  0  0  0  0
    9.3300   -1.3350   23.6390 C   0  0  0  0  0  0  0  0  0  0  0  0
   13.6257    0.0764   24.3314 C   0  0  0  0  0  0  0  0  0  0  0  0
    8.9510    0.1280   21.6880 C   0  0  0  0  0  0  0  0  0  0  0  0
    7.3162   -6.8835   26.5210 C   0  0  0  0  0  0  0  0  0  0  0  0
    7.3507   -5.5245   27.2240 C   0  0  0  0  0  0  0  0  0  0  0  0
    7.9375   -6.8069   25.1245 C   0  0  0  0  0  0  0  0  0  0  0  0
    8.7638   -4.9418   27.2163 C   0  0  0  0  0  0  0  0  0  0  0  0
    9.3378   -6.1874   25.1659 C   0  0  0  0  0  0  0  0  0  0  0  0
   10.0220    1.0430   23.6570 C   0  0  0  0  0  0  0  0  0  0  0  0
    8.0810   -0.9750   21.0820 C   0  0  0  0  0  0  0  0  0  0  0  0
    6.9440    0.2550   18.0100 N   0  0  0  0  0  0  0  0  0  0  0  0
    7.2210   -0.4620   20.0350 N   0  0  0  0  0  0  0  0  0  0  0  0
    9.2639   -4.8860   25.8399 N   0  0  0  0  0  0  0  0  0  0  0  0
    9.4200   -0.0840   22.9530 N   0  0  0  0  0  0  0  0  0  0  0  0
    9.1870    1.1500   21.0630 O   0  0  0  0  0  0  0  0  0  0  0  0
   14.5031   -1.0334   25.3114 Cl  0  0  0  0  0  0  0  0  0  0  0  0
    3.2711    2.7875   19.3201 H   0  0  0  0  0  0  0  0  0  0  0  0
    3.6281    2.0095   21.6292 H   0  0  0  0  0  0  0  0  0  0  0  0
   14.1289    2.5227   22.0237 H   0  0  0  0  0  0  0  0  0  0  0  0
   11.6588    2.5818   22.1218 H   0  0  0  0  0  0  0  0  0  0  0  0
    4.7815    2.0665   17.4902 H   0  0  0  0  0  0  0  0  0  0  0  0
    5.4939    0.4577   22.1786 H   0  0  0  0  0  0  0  0  0  0  0  0
    7.5647   -2.8621   26.1053 H   0  0  0  0  0  0  0  0  0  0  0  0
   11.0144   -4.2642   23.9425 H   0  0  0  0  0  0  0  0  0  0  0  0
    7.5958   -0.7779   24.8006 H   0  0  0  0  0  0  0  0  0  0  0  0
   11.0406   -2.1848   22.6356 H   0  0  0  0  0  0  0  0  0  0  0  0
   15.3941    0.9323   23.4255 H   0  0  0  0  0  0  0  0  0  0  0  0
   11.6954   -0.5682   25.0504 H   0  0  0  0  0  0  0  0  0  0  0  0
    8.5167   -1.1056   18.4550 H   0  0  0  0  0  0  0  0  0  0  0  0
    7.8578   -7.6261   27.1266 H   0  0  0  0  0  0  0  0  0  0  0  0
    6.2773   -7.2358   26.4459 H   0  0  0  0  0  0  0  0  0  0  0  0
    6.6663   -4.8351   26.7223 H   0  0  0  0  0  0  0  0  0  0  0  0
    7.0044   -5.6368   28.2534 H   0  0  0  0  0  0  0  0  0  0  0  0
    7.9946   -7.8119   24.6937 H   0  0  0  0  0  0  0  0  0  0  0  0
    7.2929   -6.2123   24.4668 H   0  0  0  0  0  0  0  0  0  0  0  0
    8.7343   -3.9408   27.6542 H   0  0  0  0  0  0  0  0  0  0  0  0
    9.4243   -5.5632   27.8278 H   0  0  0  0  0  0  0  0  0  0  0  0
   10.0200   -6.8490   25.7011 H   0  0  0  0  0  0  0  0  0  0  0  0
    9.6984   -6.0694   24.1436 H   0  0  0  0  0  0  0  0  0  0  0  0
    9.6778    1.0140   24.6966 H   0  0  0  0  0  0  0  0  0  0  0  0
    9.6316    1.9637   23.2107 H   0  0  0  0  0  0  0  0  0  0  0  0
    8.7136   -1.7499   20.6462 H   0  0  0  0  0  0  0  0  0  0  0  0
    7.4415   -1.4060   21.8540 H   0  0  0  0  0  0  0  0  0  0  0  0
  1  2  1  0  0  0  0
  1  5  2  0  0  0  0
  2  6  2  0  0  0  0
  3  4  2  0  0  0  0
  3 11  1  0  0  0  0
  4 14  1  0  0  0  0
  5 15  1  0  0  0  0
  6 16  1  0  0  0  0
  7  9  2  0  0  0  0
  7 17  1  0  0  0  0
  8 10  1  0  0  0  0
  8 17  2  0  0  0  0
  9 18  1  0  0  0  0
 10 18  2  0  0  0  0
 11 19  2  0  0  0  0
 12 14  2  0  0  0  0
 12 19  1  0  0  0  0
 13 28  2  0  0  0  0
 13 29  1  0  0  0  0
 14 26  1  0  0  0  0
 15 16  2  0  0  0  0
 15 28  1  0  0  0  0
 16 29  1  0  0  0  0
 17 30  1  0  0  0  0
 18 31  1  0  0  0  0
 19 33  1  0  0  0  0
 20 27  1  0  0  0  0
 20 31  1  0  0  0  0
 20 32  2  0  0  0  0
 21 22  1  0  0  0  0
 21 23  1  0  0  0  0
 22 24  1  0  0  0  0
 23 25  1  0  0  0  0
 24 30  1  0  0  0  0
 25 30  1  0  0  0  0
 26 31  1  0  0  0  0
 27 29  1  0  0  0  0
  1 34  1  0  0  0  0
  2 35  1  0  0  0  0
  3 36  1  0  0  0  0
  4 37  1  0  0  0  0
  5 38  1  0  0  0  0
  6 39  1  0  0  0  0
  7 40  1  0  0  0  0
  8 41  1  0  0  0  0
  9 42  1  0  0  0  0
 10 43  1  0  0  0  0
 11 44  1  0  0  0  0
 12 45  1  0  0  0  0
 13 46  1  0  0  0  0
 21 47  1  0  0  0  0
 21 48  1  0  0  0  0
 22 49  1  0  0  0  0
 22 50  1  0  0  0  0
 23 51  1  0  0  0  0
 23 52  1  0  0  0  0
 24 53  1  0  0  0  0
 24 54  1  0  0  0  0
 25 55  1  0  0  0  0
 25 56  1  0  0  0  0
 26 57  1  0  0  0  0
 26 58  1  0  0  0  0
 27 59  1  0  0  0  0
 27 60  1  0  0  0  0
M  END
> <clash_score>
0.7662458510330248

> <docking_score>
-8.301697731018066

> <overlap_score>
1.0207408666610718

$$$$
BENZO_379_1
  -OEChem-08222022423D

 48 51  0     0  0  0  0  0  0999 V2000
    4.0980    2.1130   19.5350 C   0  0  0  0  0  0  0  0  0  0  0  0
    4.2970    1.6690   20.8430 C   0  0  0  0  0  0  0  0  0  0  0  0
    8.3310   -2.7170   25.3430 C   0  0  0  0  0  0  0  0  0  0  0  0
   10.2570   -3.5000   24.1350 C   0  0  0  0  0  0  0  0  0  0  0  0
    4.9400    1.7060   18.5060 C   0  0  0  0  0  0  0  0  0  0  0  0
    5.3360    0.8000   21.1530 C   0  0  0  0  0  0  0  0  0  0  0  0
    8.3510   -1.5420   24.6110 C   0  0  0  0  0  0  0  0  0  0  0  0
   10.2760   -2.3270   23.4020 C   0  0  0  0  0  0  0  0  0  0  0  0
   12.4295    0.9466   24.6692 C   0  0  0  0  0  0  0  0  0  0  0  0
   12.3161    1.0259   22.4747 C   0  0  0  0  0  0  0  0  0  0  0  0
    7.6830   -0.5170   18.7600 C   0  0  0  0  0  0  0  0  0  0  0  0
    9.2850   -3.7090   25.1090 C   0  0  0  0  0  0  0  0  0  0  0  0
   11.5217    1.0079   23.5949 C   0  0  0  0  0  0  0  0  0  0  0  0
    5.9810    0.8330   18.8060 C   0  0  0  0  0  0  0  0  0  0  0  0
    6.1600    0.3870   20.1140 C   0  0  0  0  0  0  0  0  0  0  0  0
    9.3300   -1.3350   23.6390 C   0  0  0  0  0  0  0  0  0  0  0  0
    8.9510    0.1280   21.6880 C   0  0  0  0  0  0  0  0  0  0  0  0
    9.2610   -4.9721   25.8916 C   0  0  0  0  0  0  0  0  0  0  0  0
   14.7958    0.9722   22.1181 C   0  0  0  0  0  0  0  0  0  0  0  0
   10.0220    1.0430   23.6570 C   0  0  0  0  0  0  0  0  0  0  0  0
    8.0810   -0.9750   21.0820 C   0  0  0  0  0  0  0  0  0  0  0  0
   13.7032    0.9267   24.2674 N   0  0  0  0  0  0  0  0  0  0  0  0
    6.9440    0.2550   18.0100 N   0  0  0  0  0  0  0  0  0  0  0  0
   13.6014    0.9758   22.9283 N   0  0  0  0  0  0  0  0  0  0  0  0
    7.2210   -0.4620   20.0350 N   0  0  0  0  0  0  0  0  0  0  0  0
    9.4200   -0.0840   22.9530 N   0  0  0  0  0  0  0  0  0  0  0  0
    9.1870    1.1500   21.0630 O   0  0  0  0  0  0  0  0  0  0  0  0
    3.2711    2.7875   19.3201 H   0  0  0  0  0  0  0  0  0  0  0  0
    3.6281    2.0095   21.6292 H   0  0  0  0  0  0  0  0  0  0  0  0
    7.5665   -2.8638   26.1066 H   0  0  0  0  0  0  0  0  0  0  0  0
   11.0137   -4.2652   23.9447 H   0  0  0  0  0  0  0  0  0  0  0  0
    4.7815    2.0665   17.4902 H   0  0  0  0  0  0  0  0  0  0  0  0
    5.4939    0.4577   22.1786 H   0  0  0  0  0  0  0  0  0  0  0  0
    7.5948   -0.7788   24.7997 H   0  0  0  0  0  0  0  0  0  0  0  0
   11.0411   -2.1856   22.6358 H   0  0  0  0  0  0  0  0  0  0  0  0
   12.2184    0.9145   25.7287 H   0  0  0  0  0  0  0  0  0  0  0  0
   12.0821    1.0677   21.4195 H   0  0  0  0  0  0  0  0  0  0  0  0
    8.5167   -1.1056   18.4550 H   0  0  0  0  0  0  0  0  0  0  0  0
    8.6398   -5.7223   25.3871 H   0  0  0  0  0  0  0  0  0  0  0  0
   10.2715   -5.3829   26.0145 H   0  0  0  0  0  0  0  0  0  0  0  0
    8.8596   -4.8092   26.9004 H   0  0  0  0  0  0  0  0  0  0  0  0
   15.1026    2.0102   21.9649 H   0  0  0  0  0  0  0  0  0  0  0  0
   15.5826    0.4128   22.6318 H   0  0  0  0  0  0  0  0  0  0  0  0
   14.5811    0.4906   21.1600 H   0  0  0  0  0  0  0  0  0  0  0  0
    9.6778    1.0140   24.6966 H   0  0  0  0  0  0  0  0  0  0  0  0
    9.6316    1.9637   23.2107 H   0  0  0  0  0  0  0  0  0  0  0  0
    8.7073   -1.7481   20.6391 H   0  0  0  0  0  0  0  0  0  0  0  0
    7.4352   -1.4043   21.8468 H   0  0  0  0  0  0  0  0  0  0  0  0
  1  2  1  0  0  0  0
  1  5  2  0  0  0  0
  2  6  2  0  0  0  0
  3  7  2  0  0  0  0
  3 12  1  0  0  0  0
  4  8  1  0  0  0  0
  4 12  2  0  0  0  0
  5 14  1  0  0  0  0
  6 15  1  0  0  0  0
  7 16  1  0  0  0  0
  8 16  2  0  0  0  0
  9 13  1  0  0  0  0
  9 22  2  0  0  0  0
 10 13  2  0  0  0  0
 10 24  1  0  0  0  0
 11 23  2  0  0  0  0
 11 25  1  0  0  0  0
 12 18  1  0  0  0  0
 13 20  1  0  0  0  0
 14 15  2  0  0  0  0
 14 23  1  0  0  0  0
 15 25  1  0  0  0  0
 16 26  1  0  0  0  0
 17 21  1  0  0  0  0
 17 26  1  0  0  0  0
 17 27  2  0  0  0  0
 19 24  1  0  0  0  0
 20 26  1  0  0  0  0
 21 25  1  0  0  0  0
 22 24  1  0  0  0  0
  1 28  1  0  0  0  0
  2 29  1  0  0  0  0
  3 30  1  0  0  0  0
  4 31  1  0  0  0  0
  5 32  1  0  0  0  0
  6 33  1  0  0  0  0
  7 34  1  0  0  0  0
  8 35  1  0  0  0  0
  9 36  1  0  0  0  0
 10 37  1  0  0  0  0
 11 38  1  0  0  0  0
 18 39  1  0  0  0  0
 18 40  1  0  0  0  0
 18 41  1  0  0  0  0
 19 42  1  0  0  0  0
 19 43  1  0  0  0  0
 19 44  1  0  0  0  0
 20 45  1  0  0  0  0
 20 46  1  0  0  0  0
 21 47  1  0  0  0  0
 21 48  1  0  0  0  0
M  END
> <clash_score>
0

> <docking_score>
-10.019521713256836

> <overlap_score>
0.962556004524231

$$$$
BENZO_378_1
  -OEChem-08222022423D

 48 51  0     0  0  0  0  0  0999 V2000
    4.0980    2.1130   19.5350 C   0  0  0  0  0  0  0  0  0  0  0  0
    4.2970    1.6690   20.8430 C   0  0  0  0  0  0  0  0  0  0  0  0
   13.5977    1.8457   22.6865 C   0  0  0  0  0  0  0  0  0  0  0  0
   12.2044    1.8769   22.7438 C   0  0  0  0  0  0  0  0  0  0  0  0
    8.3310   -2.7170   25.3430 C   0  0  0  0  0  0  0  0  0  0  0  0
   10.2570   -3.5000   24.1350 C   0  0  0  0  0  0  0  0  0  0  0  0
    4.9400    1.7060   18.5060 C   0  0  0  0  0  0  0  0  0  0  0  0
    5.3360    0.8000   21.1530 C   0  0  0  0  0  0  0  0  0  0  0  0
    8.3510   -1.5420   24.6110 C   0  0  0  0  0  0  0  0  0  0  0  0
   10.2760   -2.3270   23.4020 C   0  0  0  0  0  0  0  0  0  0  0  0
   14.3084    0.9454   23.4803 C   0  0  0  0  0  0  0  0  0  0  0  0
   12.2323    0.1076   24.3888 C   0  0  0  0  0  0  0  0  0  0  0  0
    7.6830   -0.5170   18.7600 C   0  0  0  0  0  0  0  0  0  0  0  0
    9.2850   -3.7090   25.1090 C   0  0  0  0  0  0  0  0  0  0  0  0
   11.5217    1.0079   23.5949 C   0  0  0  0  0  0  0  0  0  0  0  0
    5.9810    0.8330   18.8060 C   0  0  0  0  0  0  0  0  0  0  0  0
    6.1600    0.3870   20.1140 C   0  0  0  0  0  0  0  0  0  0  0  0
    9.3300   -1.3350   23.6390 C   0  0  0  0  0  0  0  0  0  0  0  0
   13.6257    0.0764   24.3314 C   0  0  0  0  0  0  0  0  0  0  0  0
    8.9510    0.1280   21.6880 C   0  0  0  0  0  0  0  0  0  0  0  0
    9.2610   -4.9721   25.8916 C   0  0  0  0  0  0  0  0  0  0  0  0
   10.0220    1.0430   23.6570 C   0  0  0  0  0  0  0  0  0  0  0  0
    8.0810   -0.9750   21.0820 C   0  0  0  0  0  0  0  0  0  0  0  0
    6.9440    0.2550   18.0100 N   0  0  0  0  0  0  0  0  0  0  0  0
    7.2210   -0.4620   20.0350 N   0  0  0  0  0  0  0  0  0  0  0  0
    9.4200   -0.0840   22.9530 N   0  0  0  0  0  0  0  0  0  0  0  0
    9.1870    1.1500   21.0630 O   0  0  0  0  0  0  0  0  0  0  0  0
   14.5031   -1.0334   25.3114 Cl  0  0  0  0  0  0  0  0  0  0  0  0
    3.2711    2.7875   19.3201 H   0  0  0  0  0  0  0  0  0  0  0  0
    3.6281    2.0095   21.6292 H   0  0  0  0  0  0  0  0  0  0  0  0
   14.1289    2.5226   22.0237 H   0  0  0  0  0  0  0  0  0  0  0  0
   11.6588    2.5818   22.1218 H   0  0  0  0  0  0  0  0  0  0  0  0
    7.5665   -2.8638   26.1066 H   0  0  0  0  0  0  0  0  0  0  0  0
   11.0137   -4.2652   23.9447 H   0  0  0  0  0  0  0  0  0  0  0  0
    4.7815    2.0665   17.4902 H   0  0  0  0  0  0  0  0  0  0  0  0
    5.4939    0.4577   22.1786 H   0  0  0  0  0  0  0  0  0  0  0  0
    7.5948   -0.7788   24.7997 H   0  0  0  0  0  0  0  0  0  0  0  0
   11.0411   -2.1856   22.6358 H   0  0  0  0  0  0  0  0  0  0  0  0
   15.3941    0.9323   23.4255 H   0  0  0  0  0  0  0  0  0  0  0  0
   11.6954   -0.5682   25.0504 H   0  0  0  0  0  0  0  0  0  0  0  0
    8.5167   -1.1056   18.4550 H   0  0  0  0  0  0  0  0  0  0  0  0
    8.6398   -5.7223   25.3871 H   0  0  0  0  0  0  0  0  0  0  0  0
   10.2715   -5.3829   26.0145 H   0  0  0  0  0  0  0  0  0  0  0  0
    8.8596   -4.8092   26.9004 H   0  0  0  0  0  0  0  0  0  0  0  0
    9.6778    1.0140   24.6966 H   0  0  0  0  0  0  0  0  0  0  0  0
    9.6316    1.9637   23.2107 H   0  0  0  0  0  0  0  0  0  0  0  0
    8.7073   -1.7481   20.6391 H   0  0  0  0  0  0  0  0  0  0  0  0
    7.4352   -1.4043   21.8468 H   0  0  0  0  0  0  0  0  0  0  0  0
  1  2  1  0  0  0  0
  1  7  2  0  0  0  0
  2  8  2  0  0  0  0
  3  4  2  0  0  0  0
  3 11  1  0  0  0  0
  4 15  1  0  0  0  0
  5  9  2  0  0  0  0
  5 14  1  0  0  0  0
  6 10  1  0  0  0  0
  6 14  2  0  0  0  0
  7 16  1  0  0  0  0
  8 17  1  0  0  0  0
  9 18  1  0  0  0  0
 10 18  2  0  0  0  0
 11 19  2  0  0  0  0
 12 15  2  0  0  0  0
 12 19  1  0  0  0  0
 13 24  2  0  0  0  0
 13 25  1  0  0  0  0
 14 21  1  0  0  0  0
 15 22  1  0  0  0  0
 16 17  2  0  0  0  0
 16 24  1  0  0  0  0
 17 25  1  0  0  0  0
 18 26  1  0  0  0  0
 19 28  1  0  0  0  0
 20 23  1  0  0  0  0
 20 26  1  0  0  0  0
 20 27  2  0  0  0  0
 22 26  1  0  0  0  0
 23 25  1  0  0  0  0
  1 29  1  0  0  0  0
  2 30  1  0  0  0  0
  3 31  1  0  0  0  0
  4 32  1  0  0  0  0
  5 33  1  0  0  0  0
  6 34  1  0  0  0  0
  7 35  1  0  0  0  0
  8 36  1  0  0  0  0
  9 37  1  0  0  0  0
 10 38  1  0  0  0  0
 11 39  1  0  0  0  0
 12 40  1  0  0  0  0
 13 41  1  0  0  0  0
 21 42  1  0  0  0  0
 21 43  1  0  0  0  0
 21 44  1  0  0  0  0
 22 45  1  0  0  0  0
 22 46  1  0  0  0  0
 23 47  1  0  0  0  0
 23 48  1  0  0  0  0
M  END
> <clash_score>
0.7662444831461174

> <docking_score>
-9.259354591369629

> <overlap_score>
0.9770404696464539

$$$$
BENZO_381_1
  -OEChem-08222022423D

 49 52  0     0  0  0  0  0  0999 V2000
   14.3082    0.9431   23.4783 C   0  0  0  0  0  0  0  0  0  0  0  0
   13.6391    0.3091   24.5251 C   0  0  0  0  0  0  0  0  0  0  0  0
   13.5841    1.6096   22.4898 C   0  0  0  0  0  0  0  0  0  0  0  0
    4.0980    2.1130   19.5350 C   0  0  0  0  0  0  0  0  0  0  0  0
    4.2970    1.6690   20.8430 C   0  0  0  0  0  0  0  0  0  0  0  0
   12.2459    0.3415   24.5835 C   0  0  0  0  0  0  0  0  0  0  0  0
   12.1908    1.6420   22.5481 C   0  0  0  0  0  0  0  0  0  0  0  0
    4.9400    1.7060   18.5060 C   0  0  0  0  0  0  0  0  0  0  0  0
    5.3360    0.8000   21.1530 C   0  0  0  0  0  0  0  0  0  0  0  0
    8.3510   -1.5420   24.6110 C   0  0  0  0  0  0  0  0  0  0  0  0
   10.2760   -2.3270   23.4020 C   0  0  0  0  0  0  0  0  0  0  0  0
    8.3310   -2.7170   25.3430 C   0  0  0  0  0  0  0  0  0  0  0  0
   10.2570   -3.5000   24.1350 C   0  0  0  0  0  0  0  0  0  0  0  0
    7.6830   -0.5170   18.7600 C   0  0  0  0  0  0  0  0  0  0  0  0
   11.5217    1.0079   23.5949 C   0  0  0  0  0  0  0  0  0  0  0  0
    5.9810    0.8330   18.8060 C   0  0  0  0  0  0  0  0  0  0  0  0
    6.1600    0.3870   20.1140 C   0  0  0  0  0  0  0  0  0  0  0  0
    9.3300   -1.3350   23.6390 C   0  0  0  0  0  0  0  0  0  0  0  0
    9.2850   -3.7090   25.1090 C   0  0  0  0  0  0  0  0  0  0  0  0
    8.9510    0.1280   21.6880 C   0  0  0  0  0  0  0  0  0  0  0  0
    8.2347   -4.9979   26.8024 C   0  0  0  0  0  0  0  0  0  0  0  0
   10.0220    1.0430   23.6570 C   0  0  0  0  0  0  0  0  0  0  0  0
    8.0810   -0.9750   21.0820 C   0  0  0  0  0  0  0  0  0  0  0  0
    6.9440    0.2550   18.0100 N   0  0  0  0  0  0  0  0  0  0  0  0
    7.2210   -0.4620   20.0350 N   0  0  0  0  0  0  0  0  0  0  0  0
    9.4200   -0.0840   22.9530 N   0  0  0  0  0  0  0  0  0  0  0  0
    9.1870    1.1500   21.0630 O   0  0  0  0  0  0  0  0  0  0  0  0
    9.2631   -4.8614   25.8229 O   0  0  0  0  0  0  0  0  0  0  0  0
   15.3932    0.9189   23.4337 H   0  0  0  0  0  0  0  0  0  0  0  0
   14.2028   -0.2090   25.2955 H   0  0  0  0  0  0  0  0  0  0  0  0
   14.1048    2.1043   21.6752 H   0  0  0  0  0  0  0  0  0  0  0  0
    3.2711    2.7875   19.3201 H   0  0  0  0  0  0  0  0  0  0  0  0
    3.6281    2.0095   21.6292 H   0  0  0  0  0  0  0  0  0  0  0  0
   11.7330   -0.1555   25.4027 H   0  0  0  0  0  0  0  0  0  0  0  0
   11.6349    2.1636   21.7735 H   0  0  0  0  0  0  0  0  0  0  0  0
    4.7815    2.0665   17.4902 H   0  0  0  0  0  0  0  0  0  0  0  0
    5.4939    0.4577   22.1786 H   0  0  0  0  0  0  0  0  0  0  0  0
    7.5951   -0.7786   24.8000 H   0  0  0  0  0  0  0  0  0  0  0  0
   11.0406   -2.1866   22.6351 H   0  0  0  0  0  0  0  0  0  0  0  0
    7.5664   -2.8674   26.1055 H   0  0  0  0  0  0  0  0  0  0  0  0
   11.0119   -4.2671   23.9461 H   0  0  0  0  0  0  0  0  0  0  0  0
    8.5167   -1.1056   18.4550 H   0  0  0  0  0  0  0  0  0  0  0  0
    8.3311   -5.9657   27.3006 H   0  0  0  0  0  0  0  0  0  0  0  0
    7.2575   -4.9205   26.3191 H   0  0  0  0  0  0  0  0  0  0  0  0
    8.3383   -4.1989   27.5403 H   0  0  0  0  0  0  0  0  0  0  0  0
    9.6778    1.0140   24.6966 H   0  0  0  0  0  0  0  0  0  0  0  0
    9.6316    1.9637   23.2107 H   0  0  0  0  0  0  0  0  0  0  0  0
    8.7073   -1.7481   20.6391 H   0  0  0  0  0  0  0  0  0  0  0  0
    7.4352   -1.4043   21.8468 H   0  0  0  0  0  0  0  0  0  0  0  0
  1  2  1  0  0  0  0
  1  3  2  0  0  0  0
  2  6  2  0  0  0  0
  3  7  1  0  0  0  0
  4  5  1  0  0  0  0
  4  8  2  0  0  0  0
  5  9  2  0  0  0  0
  6 15  1  0  0  0  0
  7 15  2  0  0  0  0
  8 16  1  0  0  0  0
  9 17  1  0  0  0  0
 10 12  2  0  0  0  0
 10 18  1  0  0  0  0
 11 13  1  0  0  0  0
 11 18  2  0  0  0  0
 12 19  1  0  0  0  0
 13 19  2  0  0  0  0
 14 24  2  0  0  0  0
 14 25  1  0  0  0  0
 15 22  1  0  0  0  0
 16 17  2  0  0  0  0
 16 24  1  0  0  0  0
 17 25  1  0  0  0  0
 18 26  1  0  0  0  0
 19 28  1  0  0  0  0
 20 23  1  0  0  0  0
 20 26  1  0  0  0  0
 20 27  2  0  0  0  0
 21 28  1  0  0  0  0
 22 26  1  0  0  0  0
 23 25  1  0  0  0  0
  1 29  1  0  0  0  0
  2 30  1  0  0  0  0
  3 31  1  0  0  0  0
  4 32  1  0  0  0  0
  5 33  1  0  0  0  0
  6 34  1  0  0  0  0
  7 35  1  0  0  0  0
  8 36  1  0  0  0  0
  9 37  1  0  0  0  0
 10 38  1  0  0  0  0
 11 39  1  0  0  0  0
 12 40  1  0  0  0  0
 13 41  1  0  0  0  0
 14 42  1  0  0  0  0
 21 43  1  0  0  0  0
 21 44  1  0  0  0  0
 21 45  1  0  0  0  0
 22 46  1  0  0  0  0
 22 47  1  0  0  0  0
 23 48  1  0  0  0  0
 23 49  1  0  0  0  0
M  END
> <clash_score>
0

> <docking_score>
-9.78656005859375

> <overlap_score>
0.995654284954071

$$$$
BENZO_380_1
  -OEChem-08222022423D

 46 49  0     0  0  0  0  0  0999 V2000
    4.0980    2.1130   19.5350 C   0  0  0  0  0  0  0  0  0  0  0  0
    4.2970    1.6690   20.8430 C   0  0  0  0  0  0  0  0  0  0  0  0
    4.9400    1.7060   18.5060 C   0  0  0  0  0  0  0  0  0  0  0  0
    5.3360    0.8000   21.1530 C   0  0  0  0  0  0  0  0  0  0  0  0
    8.3510   -1.5420   24.6110 C   0  0  0  0  0  0  0  0  0  0  0  0
   10.2760   -2.3270   23.4020 C   0  0  0  0  0  0  0  0  0  0  0  0
    8.3310   -2.7170   25.3430 C   0  0  0  0  0  0  0  0  0  0  0  0
   10.2570   -3.5000   24.1350 C   0  0  0  0  0  0  0  0  0  0  0  0
   12.2675    1.0332   22.3812 C   0  0  0  0  0  0  0  0  0  0  0  0
   13.6257    0.9906   22.6074 C   0  0  0  0  0  0  0  0  0  0  0  0
   12.3384    0.9467   24.7028 C   0  0  0  0  0  0  0  0  0  0  0  0
    7.6830   -0.5170   18.7600 C   0  0  0  0  0  0  0  0  0  0  0  0
   11.5217    1.0079   23.5949 C   0  0  0  0  0  0  0  0  0  0  0  0
    5.9810    0.8330   18.8060 C   0  0  0  0  0  0  0  0  0  0  0  0
    6.1600    0.3870   20.1140 C   0  0  0  0  0  0  0  0  0  0  0  0
    9.3300   -1.3350   23.6390 C   0  0  0  0  0  0  0  0  0  0  0  0
    9.2850   -3.7090   25.1090 C   0  0  0  0  0  0  0  0  0  0  0  0
    8.9510    0.1280   21.6880 C   0  0  0  0  0  0  0  0  0  0  0  0
    8.2347   -4.9979   26.8024 C   0  0  0  0  0  0  0  0  0  0  0  0
   10.0220    1.0430   23.6570 C   0  0  0  0  0  0  0  0  0  0  0  0
    8.0810   -0.9750   21.0820 C   0  0  0  0  0  0  0  0  0  0  0  0
    6.9440    0.2550   18.0100 N   0  0  0  0  0  0  0  0  0  0  0  0
    7.2210   -0.4620   20.0350 N   0  0  0  0  0  0  0  0  0  0  0  0
    9.4200   -0.0840   22.9530 N   0  0  0  0  0  0  0  0  0  0  0  0
    9.1870    1.1500   21.0630 O   0  0  0  0  0  0  0  0  0  0  0  0
    9.2631   -4.8614   25.8229 O   0  0  0  0  0  0  0  0  0  0  0  0
   13.9969    0.9202   24.2776 S   0  0  0  0  0  0  0  0  0  0  0  0
    3.2711    2.7875   19.3201 H   0  0  0  0  0  0  0  0  0  0  0  0
    3.6281    2.0095   21.6292 H   0  0  0  0  0  0  0  0  0  0  0  0
    4.7815    2.0665   17.4902 H   0  0  0  0  0  0  0  0  0  0  0  0
    5.4939    0.4577   22.1786 H   0  0  0  0  0  0  0  0  0  0  0  0
    7.5951   -0.7786   24.8000 H   0  0  0  0  0  0  0  0  0  0  0  0
   11.0406   -2.1866   22.6351 H   0  0  0  0  0  0  0  0  0  0  0  0
    7.5664   -2.8674   26.1055 H   0  0  0  0  0  0  0  0  0  0  0  0
   11.0119   -4.2671   23.9461 H   0  0  0  0  0  0  0  0  0  0  0  0
   11.8338    1.0798   21.3902 H   0  0  0  0  0  0  0  0  0  0  0  0
   14.4176    0.9966   21.8719 H   0  0  0  0  0  0  0  0  0  0  0  0
   12.0446    0.9149   25.7428 H   0  0  0  0  0  0  0  0  0  0  0  0
    8.5167   -1.1056   18.4550 H   0  0  0  0  0  0  0  0  0  0  0  0
    8.3311   -5.9657   27.3006 H   0  0  0  0  0  0  0  0  0  0  0  0
    7.2575   -4.9205   26.3191 H   0  0  0  0  0  0  0  0  0  0  0  0
    8.3383   -4.1989   27.5403 H   0  0  0  0  0  0  0  0  0  0  0  0
    9.6778    1.0140   24.6966 H   0  0  0  0  0  0  0  0  0  0  0  0
    9.6316    1.9637   23.2107 H   0  0  0  0  0  0  0  0  0  0  0  0
    8.7073   -1.7481   20.6391 H   0  0  0  0  0  0  0  0  0  0  0  0
    7.4352   -1.4043   21.8468 H   0  0  0  0  0  0  0  0  0  0  0  0
  1  2  1  0  0  0  0
  1  3  2  0  0  0  0
  2  4  2  0  0  0  0
  3 14  1  0  0  0  0
  4 15  1  0  0  0  0
  5  7  2  0  0  0  0
  5 16  1  0  0  0  0
  6  8  1  0  0  0  0
  6 16  2  0  0  0  0
  7 17  1  0  0  0  0
  8 17  2  0  0  0  0
  9 10  2  0  0  0  0
  9 13  1  0  0  0  0
 10 27  1  0  0  0  0
 11 13  2  0  0  0  0
 11 27  1  0  0  0  0
 12 22  2  0  0  0  0
 12 23  1  0  0  0  0
 13 20  1  0  0  0  0
 14 15  2  0  0  0  0
 14 22  1  0  0  0  0
 15 23  1  0  0  0  0
 16 24  1  0  0  0  0
 17 26  1  0  0  0  0
 18 21  1  0  0  0  0
 18 24  1  0  0  0  0
 18 25  2  0  0  0  0
 19 26  1  0  0  0  0
 20 24  1  0  0  0  0
 21 23  1  0  0  0  0
  1 28  1  0  0  0  0
  2 29  1  0  0  0  0
  3 30  1  0  0  0  0
  4 31  1  0  0  0  0
  5 32  1  0  0  0  0
  6 33  1  0  0  0  0
  7 34  1  0  0  0  0
  8 35  1  0  0  0  0
  9 36  1  0  0  0  0
 10 37  1  0  0  0  0
 11 38  1  0  0  0  0
 12 39  1  0  0  0  0
 19 40  1  0  0  0  0
 19 41  1  0  0  0  0
 19 42  1  0  0  0  0
 20 43  1  0  0  0  0
 20 44  1  0  0  0  0
 21 45  1  0  0  0  0
 21 46  1  0  0  0  0
M  END
> <clash_score>
0

> <docking_score>
-10.032763481140137

> <overlap_score>
0.9697704315185547

$$$$
BENZO_383_1
  -OEChem-08222022423D

 49 52  0     0  0  0  0  0  0999 V2000
    4.0980    2.1130   19.5350 C   0  0  0  0  0  0  0  0  0  0  0  0
    4.2970    1.6690   20.8430 C   0  0  0  0  0  0  0  0  0  0  0  0
    4.9400    1.7060   18.5060 C   0  0  0  0  0  0  0  0  0  0  0  0
    5.3360    0.8000   21.1530 C   0  0  0  0  0  0  0  0  0  0  0  0
    8.3510   -1.5420   24.6110 C   0  0  0  0  0  0  0  0  0  0  0  0
   10.2760   -2.3270   23.4020 C   0  0  0  0  0  0  0  0  0  0  0  0
    8.3310   -2.7170   25.3430 C   0  0  0  0  0  0  0  0  0  0  0  0
   10.2570   -3.5000   24.1350 C   0  0  0  0  0  0  0  0  0  0  0  0
   12.4359    1.7439   24.3724 C   0  0  0  0  0  0  0  0  0  0  0  0
   12.3100    0.2469   22.7668 C   0  0  0  0  0  0  0  0  0  0  0  0
    7.6830   -0.5170   18.7600 C   0  0  0  0  0  0  0  0  0  0  0  0
   11.5217    1.0079   23.5949 C   0  0  0  0  0  0  0  0  0  0  0  0
    5.9810    0.8330   18.8060 C   0  0  0  0  0  0  0  0  0  0  0  0
    6.1600    0.3870   20.1140 C   0  0  0  0  0  0  0  0  0  0  0  0
    9.3300   -1.3350   23.6390 C   0  0  0  0  0  0  0  0  0  0  0  0
    9.2850   -3.7090   25.1090 C   0  0  0  0  0  0  0  0  0  0  0  0
    8.9510    0.1280   21.6880 C   0  0  0  0  0  0  0  0  0  0  0  0
   14.7884    0.0124   22.4815 C   0  0  0  0  0  0  0  0  0  0  0  0
    8.2347   -4.9979   26.8024 C   0  0  0  0  0  0  0  0  0  0  0  0
   10.0220    1.0430   23.6570 C   0  0  0  0  0  0  0  0  0  0  0  0
    8.0810   -0.9750   21.0820 C   0  0  0  0  0  0  0  0  0  0  0  0
   13.7076    1.4745   24.0657 N   0  0  0  0  0  0  0  0  0  0  0  0
    6.9440    0.2550   18.0100 N   0  0  0  0  0  0  0  0  0  0  0  0
   13.5982    0.5607   23.0864 N   0  0  0  0  0  0  0  0  0  0  0  0
    7.2210   -0.4620   20.0350 N   0  0  0  0  0  0  0  0  0  0  0  0
    9.4200   -0.0840   22.9530 N   0  0  0  0  0  0  0  0  0  0  0  0
    9.1870    1.1500   21.0630 O   0  0  0  0  0  0  0  0  0  0  0  0
    9.2631   -4.8614   25.8229 O   0  0  0  0  0  0  0  0  0  0  0  0
    3.2711    2.7875   19.3201 H   0  0  0  0  0  0  0  0  0  0  0  0
    3.6281    2.0095   21.6292 H   0  0  0  0  0  0  0  0  0  0  0  0
    4.7815    2.0665   17.4902 H   0  0  0  0  0  0  0  0  0  0  0  0
    5.4939    0.4577   22.1786 H   0  0  0  0  0  0  0  0  0  0  0  0
    7.5951   -0.7786   24.8000 H   0  0  0  0  0  0  0  0  0  0  0  0
   11.0406   -2.1866   22.6351 H   0  0  0  0  0  0  0  0  0  0  0  0
    7.5664   -2.8674   26.1055 H   0  0  0  0  0  0  0  0  0  0  0  0
   11.0119   -4.2671   23.9461 H   0  0  0  0  0  0  0  0  0  0  0  0
   12.2308    2.4652   25.1508 H   0  0  0  0  0  0  0  0  0  0  0  0
   12.0700   -0.4744   21.9974 H   0  0  0  0  0  0  0  0  0  0  0  0
    8.5167   -1.1056   18.4550 H   0  0  0  0  0  0  0  0  0  0  0  0
   15.0569    0.6453   21.6315 H   0  0  0  0  0  0  0  0  0  0  0  0
   15.5971   -0.0026   23.2174 H   0  0  0  0  0  0  0  0  0  0  0  0
   14.5870   -1.0100   22.1498 H   0  0  0  0  0  0  0  0  0  0  0  0
    8.3311   -5.9657   27.3006 H   0  0  0  0  0  0  0  0  0  0  0  0
    7.2575   -4.9205   26.3191 H   0  0  0  0  0  0  0  0  0  0  0  0
    8.3383   -4.1989   27.5403 H   0  0  0  0  0  0  0  0  0  0  0  0
    9.6778    1.0140   24.6966 H   0  0  0  0  0  0  0  0  0  0  0  0
    9.6316    1.9637   23.2107 H   0  0  0  0  0  0  0  0  0  0  0  0
    8.7073   -1.7481   20.6391 H   0  0  0  0  0  0  0  0  0  0  0  0
    7.4352   -1.4043   21.8468 H   0  0  0  0  0  0  0  0  0  0  0  0
  1  2  1  0  0  0  0
  1  3  2  0  0  0  0
  2  4  2  0  0  0  0
  3 13  1  0  0  0  0
  4 14  1  0  0  0  0
  5  7  2  0  0  0  0
  5 15  1  0  0  0  0
  6  8  1  0  0  0  0
  6 15  2  0  0  0  0
  7 16  1  0  0  0  0
  8 16  2  0  0  0  0
  9 12  1  0  0  0  0
  9 22  2  0  0  0  0
 10 12  2  0  0  0  0
 10 24  1  0  0  0  0
 11 23  2  0  0  0  0
 11 25  1  0  0  0  0
 12 20  1  0  0  0  0
 13 14  2  0  0  0  0
 13 23  1  0  0  0  0
 14 25  1  0  0  0  0
 15 26  1  0  0  0  0
 16 28  1  0  0  0  0
 17 21  1  0  0  0  0
 17 26  1  0  0  0  0
 17 27  2  0  0  0  0
 18 24  1  0  0  0  0
 19 28  1  0  0  0  0
 20 26  1  0  0  0  0
 21 25  1  0  0  0  0
 22 24  1  0  0  0  0
  1 29  1  0  0  0  0
  2 30  1  0  0  0  0
  3 31  1  0  0  0  0
  4 32  1  0  0  0  0
  5 33  1  0  0  0  0
  6 34  1  0  0  0  0
  7 35  1  0  0  0  0
  8 36  1  0  0  0  0
  9 37  1  0  0  0  0
 10 38  1  0  0  0  0
 11 39  1  0  0  0  0
 18 40  1  0  0  0  0
 18 41  1  0  0  0  0
 18 42  1  0  0  0  0
 19 43  1  0  0  0  0
 19 44  1  0  0  0  0
 19 45  1  0  0  0  0
 20 46  1  0  0  0  0
 20 47  1  0  0  0  0
 21 48  1  0  0  0  0
 21 49  1  0  0  0  0
M  END
> <clash_score>
0

> <docking_score>
-10.0011625289917

> <overlap_score>
0.9817346930503845

$$$$
BENZO_382_1
  -OEChem-08222022423D

 49 52  0     0  0  0  0  0  0999 V2000
    4.0980    2.1130   19.5350 C   0  0  0  0  0  0  0  0  0  0  0  0
    4.2970    1.6690   20.8430 C   0  0  0  0  0  0  0  0  0  0  0  0
   13.6668    1.7807   24.3938 C   0  0  0  0  0  0  0  0  0  0  0  0
   12.2735    1.8136   24.4501 C   0  0  0  0  0  0  0  0  0  0  0  0
    4.9400    1.7060   18.5060 C   0  0  0  0  0  0  0  0  0  0  0  0
    5.3360    0.8000   21.1530 C   0  0  0  0  0  0  0  0  0  0  0  0
    8.3510   -1.5420   24.6110 C   0  0  0  0  0  0  0  0  0  0  0  0
   10.2760   -2.3270   23.4020 C   0  0  0  0  0  0  0  0  0  0  0  0
    8.3310   -2.7170   25.3430 C   0  0  0  0  0  0  0  0  0  0  0  0
   10.2570   -3.5000   24.1350 C   0  0  0  0  0  0  0  0  0  0  0  0
   14.3084    0.9422   23.4822 C   0  0  0  0  0  0  0  0  0  0  0  0
   12.1632    0.1693   22.6834 C   0  0  0  0  0  0  0  0  0  0  0  0
    7.6830   -0.5170   18.7600 C   0  0  0  0  0  0  0  0  0  0  0  0
   11.5217    1.0079   23.5949 C   0  0  0  0  0  0  0  0  0  0  0  0
    5.9810    0.8330   18.8060 C   0  0  0  0  0  0  0  0  0  0  0  0
    6.1600    0.3870   20.1140 C   0  0  0  0  0  0  0  0  0  0  0  0
    9.3300   -1.3350   23.6390 C   0  0  0  0  0  0  0  0  0  0  0  0
    9.2850   -3.7090   25.1090 C   0  0  0  0  0  0  0  0  0  0  0  0
   13.5566    0.1365   22.6270 C   0  0  0  0  0  0  0  0  0  0  0  0
    8.9510    0.1280   21.6880 C   0  0  0  0  0  0  0  0  0  0  0  0
    8.2347   -4.9979   26.8024 C   0  0  0  0  0  0  0  0  0  0  0  0
   10.0220    1.0430   23.6570 C   0  0  0  0  0  0  0  0  0  0  0  0
    8.0810   -0.9750   21.0820 C   0  0  0  0  0  0  0  0  0  0  0  0
    6.9440    0.2550   18.0100 N   0  0  0  0  0  0  0  0  0  0  0  0
    7.2210   -0.4620   20.0350 N   0  0  0  0  0  0  0  0  0  0  0  0
    9.4200   -0.0840   22.9530 N   0  0  0  0  0  0  0  0  0  0  0  0
    9.1870    1.1500   21.0630 O   0  0  0  0  0  0  0  0  0  0  0  0
    9.2631   -4.8614   25.8229 O   0  0  0  0  0  0  0  0  0  0  0  0
   14.3487   -0.8988   21.5034 Cl  0  0  0  0  0  0  0  0  0  0  0  0
    3.2711    2.7875   19.3201 H   0  0  0  0  0  0  0  0  0  0  0  0
    3.6281    2.0095   21.6292 H   0  0  0  0  0  0  0  0  0  0  0  0
   14.2519    2.4082   25.0600 H   0  0  0  0  0  0  0  0  0  0  0  0
   11.7821    2.4700   25.1636 H   0  0  0  0  0  0  0  0  0  0  0  0
    4.7815    2.0665   17.4902 H   0  0  0  0  0  0  0  0  0  0  0  0
    5.4939    0.4577   22.1786 H   0  0  0  0  0  0  0  0  0  0  0  0
    7.5951   -0.7786   24.8000 H   0  0  0  0  0  0  0  0  0  0  0  0
   11.0406   -2.1866   22.6351 H   0  0  0  0  0  0  0  0  0  0  0  0
    7.5664   -2.8674   26.1055 H   0  0  0  0  0  0  0  0  0  0  0  0
   11.0119   -4.2671   23.9461 H   0  0  0  0  0  0  0  0  0  0  0  0
   15.3950    0.9267   23.4496 H   0  0  0  0  0  0  0  0  0  0  0  0
   11.5726   -0.4565   22.0184 H   0  0  0  0  0  0  0  0  0  0  0  0
    8.5167   -1.1056   18.4550 H   0  0  0  0  0  0  0  0  0  0  0  0
    8.3311   -5.9657   27.3006 H   0  0  0  0  0  0  0  0  0  0  0  0
    7.2575   -4.9205   26.3191 H   0  0  0  0  0  0  0  0  0  0  0  0
    8.3383   -4.1989   27.5403 H   0  0  0  0  0  0  0  0  0  0  0  0
    9.6778    1.0140   24.6966 H   0  0  0  0  0  0  0  0  0  0  0  0
    9.6316    1.9637   23.2107 H   0  0  0  0  0  0  0  0  0  0  0  0
    8.7073   -1.7481   20.6391 H   0  0  0  0  0  0  0  0  0  0  0  0
    7.4352   -1.4043   21.8468 H   0  0  0  0  0  0  0  0  0  0  0  0
  1  2  1  0  0  0  0
  1  5  2  0  0  0  0
  2  6  2  0  0  0  0
  3  4  2  0  0  0  0
  3 11  1  0  0  0  0
  4 14  1  0  0  0  0
  5 15  1  0  0  0  0
  6 16  1  0  0  0  0
  7  9  2  0  0  0  0
  7 17  1  0  0  0  0
  8 10  1  0  0  0  0
  8 17  2  0  0  0  0
  9 18  1  0  0  0  0
 10 18  2  0  0  0  0
 11 19  2  0  0  0  0
 12 14  2  0  0  0  0
 12 19  1  0  0  0  0
 13 24  2  0  0  0  0
 13 25  1  0  0  0  0
 14 22  1  0  0  0  0
 15 16  2  0  0  0  0
 15 24  1  0  0  0  0
 16 25  1  0  0  0  0
 17 26  1  0  0  0  0
 18 28  1  0  0  0  0
 19 29  1  0  0  0  0
 20 23  1  0  0  0  0
 20 26  1  0  0  0  0
 20 27  2  0  0  0  0
 21 28  1  0  0  0  0
 22 26  1  0  0  0  0
 23 25  1  0  0  0  0
  1 30  1  0  0  0  0
  2 31  1  0  0  0  0
  3 32  1  0  0  0  0
  4 33  1  0  0  0  0
  5 34  1  0  0  0  0
  6 35  1  0  0  0  0
  7 36  1  0  0  0  0
  8 37  1  0  0  0  0
  9 38  1  0  0  0  0
 10 39  1  0  0  0  0
 11 40  1  0  0  0  0
 12 41  1  0  0  0  0
 13 42  1  0  0  0  0
 21 43  1  0  0  0  0
 21 44  1  0  0  0  0
 21 45  1  0  0  0  0
 22 46  1  0  0  0  0
 22 47  1  0  0  0  0
 23 48  1  0  0  0  0
 23 49  1  0  0  0  0
M  END
> <clash_score>
0

> <docking_score>
-9.0374755859375

> <overlap_score>
0.9766169786453247

$$$$
BENZO_385_1
  -OEChem-08222022423D

 59 63  0     0  0  0  0  0  0999 V2000
   14.3082    0.9431   23.4783 C   0  0  0  0  0  0  0  0  0  0  0  0
   13.6391    0.3091   24.5251 C   0  0  0  0  0  0  0  0  0  0  0  0
   13.5841    1.6096   22.4898 C   0  0  0  0  0  0  0  0  0  0  0  0
    4.0980    2.1130   19.5350 C   0  0  0  0  0  0  0  0  0  0  0  0
    4.2970    1.6690   20.8430 C   0  0  0  0  0  0  0  0  0  0  0  0
   12.2459    0.3415   24.5835 C   0  0  0  0  0  0  0  0  0  0  0  0
   12.1908    1.6420   22.5481 C   0  0  0  0  0  0  0  0  0  0  0  0
    4.9400    1.7060   18.5060 C   0  0  0  0  0  0  0  0  0  0  0  0
    5.3360    0.8000   21.1530 C   0  0  0  0  0  0  0  0  0  0  0  0
    8.3310   -2.7170   25.3430 C   0  0  0  0  0  0  0  0  0  0  0  0
   10.2570   -3.5000   24.1350 C   0  0  0  0  0  0  0  0  0  0  0  0
    8.3510   -1.5420   24.6110 C   0  0  0  0  0  0  0  0  0  0  0  0
   10.2760   -2.3270   23.4020 C   0  0  0  0  0  0  0  0  0  0  0  0
    7.6830   -0.5170   18.7600 C   0  0  0  0  0  0  0  0  0  0  0  0
   11.5217    1.0079   23.5950 C   0  0  0  0  0  0  0  0  0  0  0  0
    5.9810    0.8330   18.8060 C   0  0  0  0  0  0  0  0  0  0  0  0
    6.1600    0.3870   20.1140 C   0  0  0  0  0  0  0  0  0  0  0  0
    9.2850   -3.7090   25.1090 C   0  0  0  0  0  0  0  0  0  0  0  0
    9.3300   -1.3350   23.6390 C   0  0  0  0  0  0  0  0  0  0  0  0
    8.0635   -5.4710   26.3667 C   0  0  0  0  0  0  0  0  0  0  0  0
    8.9510    0.1280   21.6880 C   0  0  0  0  0  0  0  0  0  0  0  0
    8.2626   -6.7580   27.1475 C   0  0  0  0  0  0  0  0  0  0  0  0
    9.4048   -6.6156   28.1380 C   0  0  0  0  0  0  0  0  0  0  0  0
   10.6949   -6.1500   27.4702 C   0  0  0  0  0  0  0  0  0  0  0  0
   10.4942   -5.7069   26.0219 C   0  0  0  0  0  0  0  0  0  0  0  0
   10.0220    1.0430   23.6570 C   0  0  0  0  0  0  0  0  0  0  0  0
    8.0810   -0.9750   21.0820 C   0  0  0  0  0  0  0  0  0  0  0  0
    6.9440    0.2550   18.0100 N   0  0  0  0  0  0  0  0  0  0  0  0
    7.2210   -0.4620   20.0350 N   0  0  0  0  0  0  0  0  0  0  0  0
    9.2623   -4.9266   25.8635 N   0  0  0  0  0  0  0  0  0  0  0  0
    9.4200   -0.0840   22.9530 N   0  0  0  0  0  0  0  0  0  0  0  0
    6.9244   -5.0476   26.1739 O   0  0  0  0  0  0  0  0  0  0  0  0
    9.1870    1.1500   21.0630 O   0  0  0  0  0  0  0  0  0  0  0  0
   15.3932    0.9189   23.4337 H   0  0  0  0  0  0  0  0  0  0  0  0
   14.2029   -0.2090   25.2955 H   0  0  0  0  0  0  0  0  0  0  0  0
   14.1048    2.1043   21.6752 H   0  0  0  0  0  0  0  0  0  0  0  0
    3.2711    2.7875   19.3201 H   0  0  0  0  0  0  0  0  0  0  0  0
    3.6281    2.0095   21.6292 H   0  0  0  0  0  0  0  0  0  0  0  0
   11.7330   -0.1555   25.4027 H   0  0  0  0  0  0  0  0  0  0  0  0
   11.6349    2.1636   21.7735 H   0  0  0  0  0  0  0  0  0  0  0  0
    4.7815    2.0665   17.4902 H   0  0  0  0  0  0  0  0  0  0  0  0
    5.4939    0.4577   22.1786 H   0  0  0  0  0  0  0  0  0  0  0  0
    7.5639   -2.8621   26.1045 H   0  0  0  0  0  0  0  0  0  0  0  0
   11.0141   -4.2644   23.9422 H   0  0  0  0  0  0  0  0  0  0  0  0
    7.5950   -0.7788   24.8007 H   0  0  0  0  0  0  0  0  0  0  0  0
   11.0408   -2.1861   22.6359 H   0  0  0  0  0  0  0  0  0  0  0  0
    8.5167   -1.1056   18.4550 H   0  0  0  0  0  0  0  0  0  0  0  0
    7.3516   -6.9810   27.6812 H   0  0  0  0  0  0  0  0  0  0  0  0
    8.4757   -7.5428   26.4371 H   0  0  0  0  0  0  0  0  0  0  0  0
    9.1234   -5.9016   28.9400 H   0  0  0  0  0  0  0  0  0  0  0  0
    9.5778   -7.5840   28.6491 H   0  0  0  0  0  0  0  0  0  0  0  0
   11.1305   -5.3108   28.0523 H   0  0  0  0  0  0  0  0  0  0  0  0
   11.4565   -6.9587   27.5131 H   0  0  0  0  0  0  0  0  0  0  0  0
   11.3212   -5.0729   25.7168 H   0  0  0  0  0  0  0  0  0  0  0  0
   10.4483   -6.5796   25.3796 H   0  0  0  0  0  0  0  0  0  0  0  0
    9.6778    1.0140   24.6966 H   0  0  0  0  0  0  0  0  0  0  0  0
    9.6316    1.9637   23.2107 H   0  0  0  0  0  0  0  0  0  0  0  0
    8.7136   -1.7499   20.6462 H   0  0  0  0  0  0  0  0  0  0  0  0
    7.4415   -1.4060   21.8540 H   0  0  0  0  0  0  0  0  0  0  0  0
  1  2  1  0  0  0  0
  1  3  2  0  0  0  0
  2  6  2  0  0  0  0
  3  7  1  0  0  0  0
  4  5  1  0  0  0  0
  4  8  2  0  0  0  0
  5  9  2  0  0  0  0
  6 15  1  0  0  0  0
  7 15  2  0  0  0  0
  8 16  1  0  0  0  0
  9 17  1  0  0  0  0
 10 12  2  0  0  0  0
 10 18  1  0  0  0  0
 11 13  1  0  0  0  0
 11 18  2  0  0  0  0
 12 19  1  0  0  0  0
 13 19  2  0  0  0  0
 14 28  2  0  0  0  0
 14 29  1  0  0  0  0
 15 26  1  0  0  0  0
 16 17  2  0  0  0  0
 16 28  1  0  0  0  0
 17 29  1  0  0  0  0
 18 30  1  0  0  0  0
 19 31  1  0  0  0  0
 20 22  1  0  0  0  0
 20 30  1  0  0  0  0
 20 32  2  0  0  0  0
 21 27  1  0  0  0  0
 21 31  1  0  0  0  0
 21 33  2  0  0  0  0
 22 23  1  0  0  0  0
 23 24  1  0  0  0  0
 24 25  1  0  0  0  0
 25 30  1  0  0  0  0
 26 31  1  0  0  0  0
 27 29  1  0  0  0  0
  1 34  1  0  0  0  0
  2 35  1  0  0  0  0
  3 36  1  0  0  0  0
  4 37  1  0  0  0  0
  5 38  1  0  0  0  0
  6 39  1  0  0  0  0
  7 40  1  0  0  0  0
  8 41  1  0  0  0  0
  9 42  1  0  0  0  0
 10 43  1  0  0  0  0
 11 44  1  0  0  0  0
 12 45  1  0  0  0  0
 13 46  1  0  0  0  0
 14 47  1  0  0  0  0
 22 48  1  0  0  0  0
 22 49  1  0  0  0  0
 23 50  1  0  0  0  0
 23 51  1  0  0  0  0
 24 52  1  0  0  0  0
 24 53  1  0  0  0  0
 25 54  1  0  0  0  0
 25 55  1  0  0  0  0
 26 56  1  0  0  0  0
 26 57  1  0  0  0  0
 27 58  1  0  0  0  0
 27 59  1  0  0  0  0
M  END
> <clash_score>
1.272782601224562

> <docking_score>
-8.27299690246582

> <overlap_score>
1.0159265995025635

$$$$
BENZO_384_1
  -OEChem-08222022423D

 56 60  0     0  0  0  0  0  0999 V2000
    4.0980    2.1130   19.5350 C   0  0  0  0  0  0  0  0  0  0  0  0
    4.2970    1.6690   20.8430 C   0  0  0  0  0  0  0  0  0  0  0  0
    4.9400    1.7060   18.5060 C   0  0  0  0  0  0  0  0  0  0  0  0
    5.3360    0.8000   21.1530 C   0  0  0  0  0  0  0  0  0  0  0  0
    8.3310   -2.7170   25.3430 C   0  0  0  0  0  0  0  0  0  0  0  0
   10.2570   -3.5000   24.1350 C   0  0  0  0  0  0  0  0  0  0  0  0
    8.3510   -1.5420   24.6110 C   0  0  0  0  0  0  0  0  0  0  0  0
   10.2760   -2.3270   23.4020 C   0  0  0  0  0  0  0  0  0  0  0  0
   12.2675    1.0332   22.3812 C   0  0  0  0  0  0  0  0  0  0  0  0
   13.6257    0.9906   22.6074 C   0  0  0  0  0  0  0  0  0  0  0  0
   12.3384    0.9467   24.7028 C   0  0  0  0  0  0  0  0  0  0  0  0
    7.6830   -0.5170   18.7600 C   0  0  0  0  0  0  0  0  0  0  0  0
   11.5217    1.0079   23.5950 C   0  0  0  0  0  0  0  0  0  0  0  0
    5.9810    0.8330   18.8060 C   0  0  0  0  0  0  0  0  0  0  0  0
    6.1600    0.3870   20.1140 C   0  0  0  0  0  0  0  0  0  0  0  0
    9.2850   -3.7090   25.1090 C   0  0  0  0  0  0  0  0  0  0  0  0
    9.3300   -1.3350   23.6390 C   0  0  0  0  0  0  0  0  0  0  0  0
    8.0635   -5.4710   26.3667 C   0  0  0  0  0  0  0  0  0  0  0  0
    8.9510    0.1280   21.6880 C   0  0  0  0  0  0  0  0  0  0  0  0
    8.2626   -6.7580   27.1475 C   0  0  0  0  0  0  0  0  0  0  0  0
    9.4048   -6.6156   28.1380 C   0  0  0  0  0  0  0  0  0  0  0  0
   10.6949   -6.1500   27.4702 C   0  0  0  0  0  0  0  0  0  0  0  0
   10.4942   -5.7069   26.0219 C   0  0  0  0  0  0  0  0  0  0  0  0
   10.0220    1.0430   23.6570 C   0  0  0  0  0  0  0  0  0  0  0  0
    8.0810   -0.9750   21.0820 C   0  0  0  0  0  0  0  0  0  0  0  0
    6.9440    0.2550   18.0100 N   0  0  0  0  0  0  0  0  0  0  0  0
    7.2210   -0.4620   20.0350 N   0  0  0  0  0  0  0  0  0  0  0  0
    9.2623   -4.9266   25.8635 N   0  0  0  0  0  0  0  0  0  0  0  0
    9.4200   -0.0840   22.9530 N   0  0  0  0  0  0  0  0  0  0  0  0
    6.9244   -5.0476   26.1739 O   0  0  0  0  0  0  0  0  0  0  0  0
    9.1870    1.1500   21.0630 O   0  0  0  0  0  0  0  0  0  0  0  0
   13.9969    0.9202   24.2776 S   0  0  0  0  0  0  0  0  0  0  0  0
    3.2711    2.7875   19.3201 H   0  0  0  0  0  0  0  0  0  0  0  0
    3.6281    2.0095   21.6292 H   0  0  0  0  0  0  0  0  0  0  0  0
    4.7815    2.0665   17.4902 H   0  0  0  0  0  0  0  0  0  0  0  0
    5.4939    0.4577   22.1786 H   0  0  0  0  0  0  0  0  0  0  0  0
    7.5639   -2.8621   26.1045 H   0  0  0  0  0  0  0  0  0  0  0  0
   11.0141   -4.2644   23.9422 H   0  0  0  0  0  0  0  0  0  0  0  0
    7.5950   -0.7788   24.8007 H   0  0  0  0  0  0  0  0  0  0  0  0
   11.0408   -2.1861   22.6359 H   0  0  0  0  0  0  0  0  0  0  0  0
   11.8338    1.0798   21.3902 H   0  0  0  0  0  0  0  0  0  0  0  0
   14.4176    0.9966   21.8719 H   0  0  0  0  0  0  0  0  0  0  0  0
   12.0446    0.9149   25.7428 H   0  0  0  0  0  0  0  0  0  0  0  0
    8.5167   -1.1056   18.4550 H   0  0  0  0  0  0  0  0  0  0  0  0
    7.3516   -6.9810   27.6812 H   0  0  0  0  0  0  0  0  0  0  0  0
    8.4757   -7.5428   26.4371 H   0  0  0  0  0  0  0  0  0  0  0  0
    9.1234   -5.9016   28.9400 H   0  0  0  0  0  0  0  0  0  0  0  0
    9.5778   -7.5840   28.6491 H   0  0  0  0  0  0  0  0  0  0  0  0
   11.1305   -5.3108   28.0523 H   0  0  0  0  0  0  0  0  0  0  0  0
   11.4565   -6.9587   27.5131 H   0  0  0  0  0  0  0  0  0  0  0  0
   11.3212   -5.0729   25.7168 H   0  0  0  0  0  0  0  0  0  0  0  0
   10.4483   -6.5796   25.3796 H   0  0  0  0  0  0  0  0  0  0  0  0
    9.6778    1.0140   24.6966 H   0  0  0  0  0  0  0  0  0  0  0  0
    9.6316    1.9637   23.2107 H   0  0  0  0  0  0  0  0  0  0  0  0
    8.7136   -1.7499   20.6462 H   0  0  0  0  0  0  0  0  0  0  0  0
    7.4415   -1.4060   21.8540 H   0  0  0  0  0  0  0  0  0  0  0  0
  1  2  1  0  0  0  0
  1  3  2  0  0  0  0
  2  4  2  0  0  0  0
  3 14  1  0  0  0  0
  4 15  1  0  0  0  0
  5  7  2  0  0  0  0
  5 16  1  0  0  0  0
  6  8  1  0  0  0  0
  6 16  2  0  0  0  0
  7 17  1  0  0  0  0
  8 17  2  0  0  0  0
  9 10  2  0  0  0  0
  9 13  1  0  0  0  0
 10 32  1  0  0  0  0
 11 13  2  0  0  0  0
 11 32  1  0  0  0  0
 12 26  2  0  0  0  0
 12 27  1  0  0  0  0
 13 24  1  0  0  0  0
 14 15  2  0  0  0  0
 14 26  1  0  0  0  0
 15 27  1  0  0  0  0
 16 28  1  0  0  0  0
 17 29  1  0  0  0  0
 18 20  1  0  0  0  0
 18 28  1  0  0  0  0
 18 30  2  0  0  0  0
 19 25  1  0  0  0  0
 19 29  1  0  0  0  0
 19 31  2  0  0  0  0
 20 21  1  0  0  0  0
 21 22  1  0  0  0  0
 22 23  1  0  0  0  0
 23 28  1  0  0  0  0
 24 29  1  0  0  0  0
 25 27  1  0  0  0  0
  1 33  1  0  0  0  0
  2 34  1  0  0  0  0
  3 35  1  0  0  0  0
  4 36  1  0  0  0  0
  5 37  1  0  0  0  0
  6 38  1  0  0  0  0
  7 39  1  0  0  0  0
  8 40  1  0  0  0  0
  9 41  1  0  0  0  0
 10 42  1  0  0  0  0
 11 43  1  0  0  0  0
 12 44  1  0  0  0  0
 20 45  1  0  0  0  0
 20 46  1  0  0  0  0
 21 47  1  0  0  0  0
 21 48  1  0  0  0  0
 22 49  1  0  0  0  0
 22 50  1  0  0  0  0
 23 51  1  0  0  0  0
 23 52  1  0  0  0  0
 24 53  1  0  0  0  0
 24 54  1  0  0  0  0
 25 55  1  0  0  0  0
 25 56  1  0  0  0  0
M  END
> <clash_score>
1.272782601224562

> <docking_score>
-8.519213676452637

> <overlap_score>
0.9903323650360107

$$$$
BENZO_387_1
  -OEChem-08222022423D

 59 63  0     0  0  0  0  0  0999 V2000
    4.0980    2.1130   19.5350 C   0  0  0  0  0  0  0  0  0  0  0  0
    4.2970    1.6690   20.8430 C   0  0  0  0  0  0  0  0  0  0  0  0
    4.9400    1.7060   18.5060 C   0  0  0  0  0  0  0  0  0  0  0  0
    5.3360    0.8000   21.1530 C   0  0  0  0  0  0  0  0  0  0  0  0
    8.3310   -2.7170   25.3430 C   0  0  0  0  0  0  0  0  0  0  0  0
   10.2570   -3.5000   24.1350 C   0  0  0  0  0  0  0  0  0  0  0  0
    8.3510   -1.5420   24.6110 C   0  0  0  0  0  0  0  0  0  0  0  0
   10.2760   -2.3270   23.4020 C   0  0  0  0  0  0  0  0  0  0  0  0
   12.4359    1.7439   24.3724 C   0  0  0  0  0  0  0  0  0  0  0  0
   12.3100    0.2469   22.7668 C   0  0  0  0  0  0  0  0  0  0  0  0
    7.6830   -0.5170   18.7600 C   0  0  0  0  0  0  0  0  0  0  0  0
   11.5217    1.0079   23.5949 C   0  0  0  0  0  0  0  0  0  0  0  0
    5.9810    0.8330   18.8060 C   0  0  0  0  0  0  0  0  0  0  0  0
    6.1600    0.3870   20.1140 C   0  0  0  0  0  0  0  0  0  0  0  0
    9.2850   -3.7090   25.1090 C   0  0  0  0  0  0  0  0  0  0  0  0
    9.3300   -1.3350   23.6390 C   0  0  0  0  0  0  0  0  0  0  0  0
    8.2934   -5.1724   26.8574 C   0  0  0  0  0  0  0  0  0  0  0  0
    8.9510    0.1280   21.6880 C   0  0  0  0  0  0  0  0  0  0  0  0
    8.4443   -6.5251   27.5306 C   0  0  0  0  0  0  0  0  0  0  0  0
    8.6421   -7.6210   26.4982 C   0  0  0  0  0  0  0  0  0  0  0  0
    9.8032   -7.3237   25.5546 C   0  0  0  0  0  0  0  0  0  0  0  0
   10.3452   -5.9024   25.6995 C   0  0  0  0  0  0  0  0  0  0  0  0
   14.7884    0.0124   22.4815 C   0  0  0  0  0  0  0  0  0  0  0  0
   10.0220    1.0430   23.6570 C   0  0  0  0  0  0  0  0  0  0  0  0
    8.0810   -0.9750   21.0820 C   0  0  0  0  0  0  0  0  0  0  0  0
   13.7076    1.4745   24.0657 N   0  0  0  0  0  0  0  0  0  0  0  0
    6.9440    0.2550   18.0100 N   0  0  0  0  0  0  0  0  0  0  0  0
   13.5982    0.5607   23.0864 N   0  0  0  0  0  0  0  0  0  0  0  0
    7.2210   -0.4620   20.0350 N   0  0  0  0  0  0  0  0  0  0  0  0
    9.2623   -4.9267   25.8636 N   0  0  0  0  0  0  0  0  0  0  0  0
    9.4200   -0.0840   22.9530 N   0  0  0  0  0  0  0  0  0  0  0  0
    7.4269   -4.3921   27.2503 O   0  0  0  0  0  0  0  0  0  0  0  0
    9.1870    1.1500   21.0630 O   0  0  0  0  0  0  0  0  0  0  0  0
    3.2711    2.7875   19.3201 H   0  0  0  0  0  0  0  0  0  0  0  0
    3.6281    2.0095   21.6292 H   0  0  0  0  0  0  0  0  0  0  0  0
    4.7815    2.0665   17.4902 H   0  0  0  0  0  0  0  0  0  0  0  0
    5.4939    0.4577   22.1786 H   0  0  0  0  0  0  0  0  0  0  0  0
    7.5639   -2.8621   26.1045 H   0  0  0  0  0  0  0  0  0  0  0  0
   11.0141   -4.2644   23.9422 H   0  0  0  0  0  0  0  0  0  0  0  0
    7.5950   -0.7788   24.8007 H   0  0  0  0  0  0  0  0  0  0  0  0
   11.0408   -2.1861   22.6359 H   0  0  0  0  0  0  0  0  0  0  0  0
   12.2308    2.4652   25.1508 H   0  0  0  0  0  0  0  0  0  0  0  0
   12.0700   -0.4744   21.9974 H   0  0  0  0  0  0  0  0  0  0  0  0
    8.5167   -1.1056   18.4550 H   0  0  0  0  0  0  0  0  0  0  0  0
    9.3021   -6.4901   28.1844 H   0  0  0  0  0  0  0  0  0  0  0  0
    7.5489   -6.7067   28.1060 H   0  0  0  0  0  0  0  0  0  0  0  0
    8.8161   -8.5925   27.0061 H   0  0  0  0  0  0  0  0  0  0  0  0
    7.7102   -7.7540   25.9127 H   0  0  0  0  0  0  0  0  0  0  0  0
   10.6240   -8.0484   25.7384 H   0  0  0  0  0  0  0  0  0  0  0  0
    9.4907   -7.5005   24.5024 H   0  0  0  0  0  0  0  0  0  0  0  0
   10.9741   -5.8406   26.5826 H   0  0  0  0  0  0  0  0  0  0  0  0
   10.9262   -5.6455   24.8203 H   0  0  0  0  0  0  0  0  0  0  0  0
   15.0569    0.6453   21.6315 H   0  0  0  0  0  0  0  0  0  0  0  0
   15.5971   -0.0026   23.2174 H   0  0  0  0  0  0  0  0  0  0  0  0
   14.5870   -1.0100   22.1498 H   0  0  0  0  0  0  0  0  0  0  0  0
    9.6778    1.0140   24.6966 H   0  0  0  0  0  0  0  0  0  0  0  0
    9.6316    1.9637   23.2107 H   0  0  0  0  0  0  0  0  0  0  0  0
    8.7136   -1.7499   20.6462 H   0  0  0  0  0  0  0  0  0  0  0  0
    7.4415   -1.4060   21.8540 H   0  0  0  0  0  0  0  0  0  0  0  0
  1  2  1  0  0  0  0
  1  3  2  0  0  0  0
  2  4  2  0  0  0  0
  3 13  1  0  0  0  0
  4 14  1  0  0  0  0
  5  7  2  0  0  0  0
  5 15  1  0  0  0  0
  6  8  1  0  0  0  0
  6 15  2  0  0  0  0
  7 16  1  0  0  0  0
  8 16  2  0  0  0  0
  9 12  1  0  0  0  0
  9 26  2  0  0  0  0
 10 12  2  0  0  0  0
 10 28  1  0  0  0  0
 11 27  2  0  0  0  0
 11 29  1  0  0  0  0
 12 24  1  0  0  0  0
 13 14  2  0  0  0  0
 13 27  1  0  0  0  0
 14 29  1  0  0  0  0
 15 30  1  0  0  0  0
 16 31  1  0  0  0  0
 17 19  1  0  0  0  0
 17 30  1  0  0  0  0
 17 32  2  0  0  0  0
 18 25  1  0  0  0  0
 18 31  1  0  0  0  0
 18 33  2  0  0  0  0
 19 20  1  0  0  0  0
 20 21  1  0  0  0  0
 21 22  1  0  0  0  0
 22 30  1  0  0  0  0
 23 28  1  0  0  0  0
 24 31  1  0  0  0  0
 25 29  1  0  0  0  0
 26 28  1  0  0  0  0
  1 34  1  0  0  0  0
  2 35  1  0  0  0  0
  3 36  1  0  0  0  0
  4 37  1  0  0  0  0
  5 38  1  0  0  0  0
  6 39  1  0  0  0  0
  7 40  1  0  0  0  0
  8 41  1  0  0  0  0
  9 42  1  0  0  0  0
 10 43  1  0  0  0  0
 11 44  1  0  0  0  0
 19 45  1  0  0  0  0
 19 46  1  0  0  0  0
 20 47  1  0  0  0  0
 20 48  1  0  0  0  0
 21 49  1  0  0  0  0
 21 50  1  0  0  0  0
 22 51  1  0  0  0  0
 22 52  1  0  0  0  0
 23 53  1  0  0  0  0
 23 54  1  0  0  0  0
 23 55  1  0  0  0  0
 24 56  1  0  0  0  0
 24 57  1  0  0  0  0
 25 58  1  0  0  0  0
 25 59  1  0  0  0  0
M  END
> <clash_score>
0.6927847163055834

> <docking_score>
-8.263290405273438

> <overlap_score>
1.0033574104309082

$$$$
BENZO_389_1
  -OEChem-08222022423D

 58 62  0     0  0  0  0  0  0999 V2000
   14.3082    0.9431   23.4783 C   0  0  0  0  0  0  0  0  0  0  0  0
   13.6391    0.3091   24.5251 C   0  0  0  0  0  0  0  0  0  0  0  0
   13.5841    1.6096   22.4898 C   0  0  0  0  0  0  0  0  0  0  0  0
    4.0980    2.1130   19.5350 C   0  0  0  0  0  0  0  0  0  0  0  0
    4.2970    1.6690   20.8430 C   0  0  0  0  0  0  0  0  0  0  0  0
   12.2459    0.3415   24.5835 C   0  0  0  0  0  0  0  0  0  0  0  0
   12.1908    1.6420   22.5481 C   0  0  0  0  0  0  0  0  0  0  0  0
    4.9400    1.7060   18.5060 C   0  0  0  0  0  0  0  0  0  0  0  0
    5.3360    0.8000   21.1530 C   0  0  0  0  0  0  0  0  0  0  0  0
    8.3310   -2.7170   25.3430 C   0  0  0  0  0  0  0  0  0  0  0  0
   10.2570   -3.5000   24.1350 C   0  0  0  0  0  0  0  0  0  0  0  0
    8.3510   -1.5420   24.6110 C   0  0  0  0  0  0  0  0  0  0  0  0
   10.2760   -2.3270   23.4020 C   0  0  0  0  0  0  0  0  0  0  0  0
    7.6830   -0.5170   18.7600 C   0  0  0  0  0  0  0  0  0  0  0  0
   11.5217    1.0079   23.5949 C   0  0  0  0  0  0  0  0  0  0  0  0
    5.9810    0.8330   18.8060 C   0  0  0  0  0  0  0  0  0  0  0  0
    6.1600    0.3870   20.1140 C   0  0  0  0  0  0  0  0  0  0  0  0
    9.2850   -3.7090   25.1090 C   0  0  0  0  0  0  0  0  0  0  0  0
    9.3300   -1.3350   23.6390 C   0  0  0  0  0  0  0  0  0  0  0  0
    8.9510    0.1280   21.6880 C   0  0  0  0  0  0  0  0  0  0  0  0
    8.7666   -4.9523   27.2147 C   0  0  0  0  0  0  0  0  0  0  0  0
    9.3034   -6.1866   25.1651 C   0  0  0  0  0  0  0  0  0  0  0  0
    7.3827   -5.5925   27.1999 C   0  0  0  0  0  0  0  0  0  0  0  0
    7.9024   -6.7967   25.2263 C   0  0  0  0  0  0  0  0  0  0  0  0
   10.0220    1.0430   23.6570 C   0  0  0  0  0  0  0  0  0  0  0  0
    8.0810   -0.9750   21.0820 C   0  0  0  0  0  0  0  0  0  0  0  0
    6.9440    0.2550   18.0100 N   0  0  0  0  0  0  0  0  0  0  0  0
    7.2210   -0.4620   20.0350 N   0  0  0  0  0  0  0  0  0  0  0  0
    9.2640   -4.8844   25.8389 N   0  0  0  0  0  0  0  0  0  0  0  0
    9.4200   -0.0840   22.9530 N   0  0  0  0  0  0  0  0  0  0  0  0
    9.1870    1.1500   21.0630 O   0  0  0  0  0  0  0  0  0  0  0  0
    7.4483   -6.8833   26.5817 O   0  0  0  0  0  0  0  0  0  0  0  0
   15.3932    0.9189   23.4337 H   0  0  0  0  0  0  0  0  0  0  0  0
   14.2029   -0.2090   25.2955 H   0  0  0  0  0  0  0  0  0  0  0  0
   14.1048    2.1043   21.6752 H   0  0  0  0  0  0  0  0  0  0  0  0
    3.2711    2.7875   19.3201 H   0  0  0  0  0  0  0  0  0  0  0  0
    3.6281    2.0095   21.6292 H   0  0  0  0  0  0  0  0  0  0  0  0
   11.7330   -0.1555   25.4027 H   0  0  0  0  0  0  0  0  0  0  0  0
   11.6349    2.1636   21.7735 H   0  0  0  0  0  0  0  0  0  0  0  0
    4.7815    2.0665   17.4902 H   0  0  0  0  0  0  0  0  0  0  0  0
    5.4939    0.4577   22.1786 H   0  0  0  0  0  0  0  0  0  0  0  0
    7.5647   -2.8621   26.1053 H   0  0  0  0  0  0  0  0  0  0  0  0
   11.0144   -4.2642   23.9425 H   0  0  0  0  0  0  0  0  0  0  0  0
    7.5958   -0.7779   24.8006 H   0  0  0  0  0  0  0  0  0  0  0  0
   11.0406   -2.1848   22.6356 H   0  0  0  0  0  0  0  0  0  0  0  0
    8.5167   -1.1056   18.4550 H   0  0  0  0  0  0  0  0  0  0  0  0
    8.7030   -3.9561   27.6574 H   0  0  0  0  0  0  0  0  0  0  0  0
    9.4460   -5.5639   27.8143 H   0  0  0  0  0  0  0  0  0  0  0  0
   10.0083   -6.8392   25.6817 H   0  0  0  0  0  0  0  0  0  0  0  0
    9.6089   -6.0802   24.1251 H   0  0  0  0  0  0  0  0  0  0  0  0
    7.0281   -5.7334   28.2231 H   0  0  0  0  0  0  0  0  0  0  0  0
    6.6541   -4.9678   26.6754 H   0  0  0  0  0  0  0  0  0  0  0  0
    7.1860   -6.2177   24.6318 H   0  0  0  0  0  0  0  0  0  0  0  0
    7.9246   -7.8119   24.8187 H   0  0  0  0  0  0  0  0  0  0  0  0
    9.6778    1.0140   24.6966 H   0  0  0  0  0  0  0  0  0  0  0  0
    9.6316    1.9637   23.2107 H   0  0  0  0  0  0  0  0  0  0  0  0
    8.7136   -1.7499   20.6462 H   0  0  0  0  0  0  0  0  0  0  0  0
    7.4415   -1.4060   21.8540 H   0  0  0  0  0  0  0  0  0  0  0  0
  1  2  1  0  0  0  0
  1  3  2  0  0  0  0
  2  6  2  0  0  0  0
  3  7  1  0  0  0  0
  4  5  1  0  0  0  0
  4  8  2  0  0  0  0
  5  9  2  0  0  0  0
  6 15  1  0  0  0  0
  7 15  2  0  0  0  0
  8 16  1  0  0  0  0
  9 17  1  0  0  0  0
 10 12  2  0  0  0  0
 10 18  1  0  0  0  0
 11 13  1  0  0  0  0
 11 18  2  0  0  0  0
 12 19  1  0  0  0  0
 13 19  2  0  0  0  0
 14 27  2  0  0  0  0
 14 28  1  0  0  0  0
 15 25  1  0  0  0  0
 16 17  2  0  0  0  0
 16 27  1  0  0  0  0
 17 28  1  0  0  0  0
 18 29  1  0  0  0  0
 19 30  1  0  0  0  0
 20 26  1  0  0  0  0
 20 30  1  0  0  0  0
 20 31  2  0  0  0  0
 21 23  1  0  0  0  0
 21 29  1  0  0  0  0
 22 24  1  0  0  0  0
 22 29  1  0  0  0  0
 23 32  1  0  0  0  0
 24 32  1  0  0  0  0
 25 30  1  0  0  0  0
 26 28  1  0  0  0  0
  1 33  1  0  0  0  0
  2 34  1  0  0  0  0
  3 35  1  0  0  0  0
  4 36  1  0  0  0  0
  5 37  1  0  0  0  0
  6 38  1  0  0  0  0
  7 39  1  0  0  0  0
  8 40  1  0  0  0  0
  9 41  1  0  0  0  0
 10 42  1  0  0  0  0
 11 43  1  0  0  0  0
 12 44  1  0  0  0  0
 13 45  1  0  0  0  0
 14 46  1  0  0  0  0
 21 47  1  0  0  0  0
 21 48  1  0  0  0  0
 22 49  1  0  0  0  0
 22 50  1  0  0  0  0
 23 51  1  0  0  0  0
 23 52  1  0  0  0  0
 24 53  1  0  0  0  0
 24 54  1  0  0  0  0
 25 55  1  0  0  0  0
 25 56  1  0  0  0  0
 26 57  1  0  0  0  0
 26 58  1  0  0  0  0
M  END
> <clash_score>
0

> <docking_score>
-9.518128395080566

> <overlap_score>
1.0165159702301025

$$$$
BENZO_386_1
  -OEChem-08222022423D

 59 63  0     0  0  0  0  0  0999 V2000
    4.0980    2.1130   19.5350 C   0  0  0  0  0  0  0  0  0  0  0  0
    4.2970    1.6690   20.8430 C   0  0  0  0  0  0  0  0  0  0  0  0
   13.5977    1.8457   22.6865 C   0  0  0  0  0  0  0  0  0  0  0  0
   12.2044    1.8769   22.7438 C   0  0  0  0  0  0  0  0  0  0  0  0
    4.9400    1.7060   18.5060 C   0  0  0  0  0  0  0  0  0  0  0  0
    5.3360    0.8000   21.1530 C   0  0  0  0  0  0  0  0  0  0  0  0
    8.3310   -2.7170   25.3430 C   0  0  0  0  0  0  0  0  0  0  0  0
   10.2570   -3.5000   24.1350 C   0  0  0  0  0  0  0  0  0  0  0  0
    8.3510   -1.5420   24.6110 C   0  0  0  0  0  0  0  0  0  0  0  0
   10.2760   -2.3270   23.4020 C   0  0  0  0  0  0  0  0  0  0  0  0
   14.3084    0.9453   23.4803 C   0  0  0  0  0  0  0  0  0  0  0  0
   12.2323    0.1076   24.3888 C   0  0  0  0  0  0  0  0  0  0  0  0
    7.6830   -0.5170   18.7600 C   0  0  0  0  0  0  0  0  0  0  0  0
   11.5217    1.0079   23.5950 C   0  0  0  0  0  0  0  0  0  0  0  0
    5.9810    0.8330   18.8060 C   0  0  0  0  0  0  0  0  0  0  0  0
    6.1600    0.3870   20.1140 C   0  0  0  0  0  0  0  0  0  0  0  0
    9.2850   -3.7090   25.1090 C   0  0  0  0  0  0  0  0  0  0  0  0
    9.3300   -1.3350   23.6390 C   0  0  0  0  0  0  0  0  0  0  0  0
   13.6257    0.0763   24.3314 C   0  0  0  0  0  0  0  0  0  0  0  0
    8.2930   -5.1714   26.8572 C   0  0  0  0  0  0  0  0  0  0  0  0
    8.9510    0.1280   21.6880 C   0  0  0  0  0  0  0  0  0  0  0  0
    8.4551   -6.5156   27.5444 C   0  0  0  0  0  0  0  0  0  0  0  0
    9.9019   -6.7444   27.9450 C   0  0  0  0  0  0  0  0  0  0  0  0
   10.8596   -6.5882   26.7680 C   0  0  0  0  0  0  0  0  0  0  0  0
   10.1895   -6.0108   25.5223 C   0  0  0  0  0  0  0  0  0  0  0  0
   10.0220    1.0430   23.6570 C   0  0  0  0  0  0  0  0  0  0  0  0
    8.0810   -0.9750   21.0820 C   0  0  0  0  0  0  0  0  0  0  0  0
    6.9440    0.2550   18.0100 N   0  0  0  0  0  0  0  0  0  0  0  0
    7.2210   -0.4620   20.0350 N   0  0  0  0  0  0  0  0  0  0  0  0
    9.2623   -4.9266   25.8635 N   0  0  0  0  0  0  0  0  0  0  0  0
    9.4200   -0.0840   22.9530 N   0  0  0  0  0  0  0  0  0  0  0  0
    7.3370   -4.4527   27.1463 O   0  0  0  0  0  0  0  0  0  0  0  0
    9.1870    1.1500   21.0630 O   0  0  0  0  0  0  0  0  0  0  0  0
   14.5031   -1.0334   25.3114 Cl  0  0  0  0  0  0  0  0  0  0  0  0
    3.2711    2.7875   19.3201 H   0  0  0  0  0  0  0  0  0  0  0  0
    3.6281    2.0095   21.6292 H   0  0  0  0  0  0  0  0  0  0  0  0
   14.1289    2.5226   22.0237 H   0  0  0  0  0  0  0  0  0  0  0  0
   11.6588    2.5818   22.1218 H   0  0  0  0  0  0  0  0  0  0  0  0
    4.7815    2.0665   17.4902 H   0  0  0  0  0  0  0  0  0  0  0  0
    5.4939    0.4577   22.1786 H   0  0  0  0  0  0  0  0  0  0  0  0
    7.5639   -2.8621   26.1045 H   0  0  0  0  0  0  0  0  0  0  0  0
   11.0141   -4.2644   23.9422 H   0  0  0  0  0  0  0  0  0  0  0  0
    7.5950   -0.7788   24.8007 H   0  0  0  0  0  0  0  0  0  0  0  0
   11.0408   -2.1861   22.6359 H   0  0  0  0  0  0  0  0  0  0  0  0
   15.3941    0.9323   23.4255 H   0  0  0  0  0  0  0  0  0  0  0  0
   11.6954   -0.5682   25.0504 H   0  0  0  0  0  0  0  0  0  0  0  0
    8.5167   -1.1056   18.4550 H   0  0  0  0  0  0  0  0  0  0  0  0
    7.8332   -6.5283   28.4263 H   0  0  0  0  0  0  0  0  0  0  0  0
    8.1305   -7.2787   26.8530 H   0  0  0  0  0  0  0  0  0  0  0  0
   10.1875   -6.0379   28.7521 H   0  0  0  0  0  0  0  0  0  0  0  0
   10.0116   -7.7568   28.3834 H   0  0  0  0  0  0  0  0  0  0  0  0
   11.7061   -5.9337   27.0644 H   0  0  0  0  0  0  0  0  0  0  0  0
   11.3230   -7.5689   26.5243 H   0  0  0  0  0  0  0  0  0  0  0  0
   10.9445   -5.5959   24.8614 H   0  0  0  0  0  0  0  0  0  0  0  0
    9.6461   -6.7954   25.0072 H   0  0  0  0  0  0  0  0  0  0  0  0
    9.6778    1.0140   24.6966 H   0  0  0  0  0  0  0  0  0  0  0  0
    9.6316    1.9637   23.2107 H   0  0  0  0  0  0  0  0  0  0  0  0
    8.7136   -1.7499   20.6462 H   0  0  0  0  0  0  0  0  0  0  0  0
    7.4415   -1.4060   21.8540 H   0  0  0  0  0  0  0  0  0  0  0  0
  1  2  1  0  0  0  0
  1  5  2  0  0  0  0
  2  6  2  0  0  0  0
  3  4  2  0  0  0  0
  3 11  1  0  0  0  0
  4 14  1  0  0  0  0
  5 15  1  0  0  0  0
  6 16  1  0  0  0  0
  7  9  2  0  0  0  0
  7 17  1  0  0  0  0
  8 10  1  0  0  0  0
  8 17  2  0  0  0  0
  9 18  1  0  0  0  0
 10 18  2  0  0  0  0
 11 19  2  0  0  0  0
 12 14  2  0  0  0  0
 12 19  1  0  0  0  0
 13 28  2  0  0  0  0
 13 29  1  0  0  0  0
 14 26  1  0  0  0  0
 15 16  2  0  0  0  0
 15 28  1  0  0  0  0
 16 29  1  0  0  0  0
 17 30  1  0  0  0  0
 18 31  1  0  0  0  0
 19 34  1  0  0  0  0
 20 22  1  0  0  0  0
 20 30  1  0  0  0  0
 20 32  2  0  0  0  0
 21 27  1  0  0  0  0
 21 31  1  0  0  0  0
 21 33  2  0  0  0  0
 22 23  1  0  0  0  0
 23 24  1  0  0  0  0
 24 25  1  0  0  0  0
 25 30  1  0  0  0  0
 26 31  1  0  0  0  0
 27 29  1  0  0  0  0
  1 35  1  0  0  0  0
  2 36  1  0  0  0  0
  3 37  1  0  0  0  0
  4 38  1  0  0  0  0
  5 39  1  0  0  0  0
  6 40  1  0  0  0  0
  7 41  1  0  0  0  0
  8 42  1  0  0  0  0
  9 43  1  0  0  0  0
 10 44  1  0  0  0  0
 11 45  1  0  0  0  0
 12 46  1  0  0  0  0
 13 47  1  0  0  0  0
 22 48  1  0  0  0  0
 22 49  1  0  0  0  0
 23 50  1  0  0  0  0
 23 51  1  0  0  0  0
 24 52  1  0  0  0  0
 24 53  1  0  0  0  0
 25 54  1  0  0  0  0
 25 55  1  0  0  0  0
 26 56  1  0  0  0  0
 26 57  1  0  0  0  0
 27 58  1  0  0  0  0
 27 59  1  0  0  0  0
M  END
> <clash_score>
2.825944449818131

> <docking_score>
-7.465731620788574

> <overlap_score>
1.0217952728271484

$$$$
BENZO_388_1
  -OEChem-08222022423D

 55 59  0     0  0  0  0  0  0999 V2000
    4.0980    2.1130   19.5350 C   0  0  0  0  0  0  0  0  0  0  0  0
    4.2970    1.6690   20.8430 C   0  0  0  0  0  0  0  0  0  0  0  0
    4.9400    1.7060   18.5060 C   0  0  0  0  0  0  0  0  0  0  0  0
    5.3360    0.8000   21.1530 C   0  0  0  0  0  0  0  0  0  0  0  0
    8.3310   -2.7170   25.3430 C   0  0  0  0  0  0  0  0  0  0  0  0
   10.2570   -3.5000   24.1350 C   0  0  0  0  0  0  0  0  0  0  0  0
    8.3510   -1.5420   24.6110 C   0  0  0  0  0  0  0  0  0  0  0  0
   10.2760   -2.3270   23.4020 C   0  0  0  0  0  0  0  0  0  0  0  0
   12.2675    1.0332   22.3812 C   0  0  0  0  0  0  0  0  0  0  0  0
   13.6257    0.9906   22.6074 C   0  0  0  0  0  0  0  0  0  0  0  0
   12.3384    0.9467   24.7028 C   0  0  0  0  0  0  0  0  0  0  0  0
    7.6830   -0.5170   18.7600 C   0  0  0  0  0  0  0  0  0  0  0  0
   11.5217    1.0079   23.5949 C   0  0  0  0  0  0  0  0  0  0  0  0
    5.9810    0.8330   18.8060 C   0  0  0  0  0  0  0  0  0  0  0  0
    6.1600    0.3870   20.1140 C   0  0  0  0  0  0  0  0  0  0  0  0
    9.2850   -3.7090   25.1090 C   0  0  0  0  0  0  0  0  0  0  0  0
    9.3300   -1.3350   23.6390 C   0  0  0  0  0  0  0  0  0  0  0  0
    8.9510    0.1280   21.6880 C   0  0  0  0  0  0  0  0  0  0  0  0
    8.7666   -4.9523   27.2147 C   0  0  0  0  0  0  0  0  0  0  0  0
    9.3034   -6.1866   25.1651 C   0  0  0  0  0  0  0  0  0  0  0  0
    7.3827   -5.5925   27.1999 C   0  0  0  0  0  0  0  0  0  0  0  0
    7.9024   -6.7967   25.2263 C   0  0  0  0  0  0  0  0  0  0  0  0
   10.0220    1.0430   23.6570 C   0  0  0  0  0  0  0  0  0  0  0  0
    8.0810   -0.9750   21.0820 C   0  0  0  0  0  0  0  0  0  0  0  0
    6.9440    0.2550   18.0100 N   0  0  0  0  0  0  0  0  0  0  0  0
    7.2210   -0.4620   20.0350 N   0  0  0  0  0  0  0  0  0  0  0  0
    9.2640   -4.8844   25.8389 N   0  0  0  0  0  0  0  0  0  0  0  0
    9.4200   -0.0840   22.9530 N   0  0  0  0  0  0  0  0  0  0  0  0
    9.1870    1.1500   21.0630 O   0  0  0  0  0  0  0  0  0  0  0  0
    7.4483   -6.8833   26.5817 O   0  0  0  0  0  0  0  0  0  0  0  0
   13.9969    0.9202   24.2776 S   0  0  0  0  0  0  0  0  0  0  0  0
    3.2711    2.7875   19.3201 H   0  0  0  0  0  0  0  0  0  0  0  0
    3.6281    2.0095   21.6292 H   0  0  0  0  0  0  0  0  0  0  0  0
    4.7815    2.0665   17.4902 H   0  0  0  0  0  0  0  0  0  0  0  0
    5.4939    0.4577   22.1786 H   0  0  0  0  0  0  0  0  0  0  0  0
    7.5647   -2.8621   26.1053 H   0  0  0  0  0  0  0  0  0  0  0  0
   11.0144   -4.2642   23.9425 H   0  0  0  0  0  0  0  0  0  0  0  0
    7.5958   -0.7779   24.8006 H   0  0  0  0  0  0  0  0  0  0  0  0
   11.0406   -2.1848   22.6356 H   0  0  0  0  0  0  0  0  0  0  0  0
   11.8338    1.0798   21.3902 H   0  0  0  0  0  0  0  0  0  0  0  0
   14.4176    0.9966   21.8719 H   0  0  0  0  0  0  0  0  0  0  0  0
   12.0446    0.9149   25.7428 H   0  0  0  0  0  0  0  0  0  0  0  0
    8.5167   -1.1056   18.4550 H   0  0  0  0  0  0  0  0  0  0  0  0
    8.7030   -3.9561   27.6574 H   0  0  0  0  0  0  0  0  0  0  0  0
    9.4460   -5.5639   27.8143 H   0  0  0  0  0  0  0  0  0  0  0  0
   10.0083   -6.8392   25.6817 H   0  0  0  0  0  0  0  0  0  0  0  0
    9.6089   -6.0802   24.1251 H   0  0  0  0  0  0  0  0  0  0  0  0
    7.0281   -5.7334   28.2231 H   0  0  0  0  0  0  0  0  0  0  0  0
    6.6541   -4.9678   26.6754 H   0  0  0  0  0  0  0  0  0  0  0  0
    7.1860   -6.2177   24.6318 H   0  0  0  0  0  0  0  0  0  0  0  0
    7.9246   -7.8119   24.8187 H   0  0  0  0  0  0  0  0  0  0  0  0
    9.6778    1.0140   24.6966 H   0  0  0  0  0  0  0  0  0  0  0  0
    9.6316    1.9637   23.2107 H   0  0  0  0  0  0  0  0  0  0  0  0
    8.7136   -1.7499   20.6462 H   0  0  0  0  0  0  0  0  0  0  0  0
    7.4415   -1.4060   21.8540 H   0  0  0  0  0  0  0  0  0  0  0  0
  1  2  1  0  0  0  0
  1  3  2  0  0  0  0
  2  4  2  0  0  0  0
  3 14  1  0  0  0  0
  4 15  1  0  0  0  0
  5  7  2  0  0  0  0
  5 16  1  0  0  0  0
  6  8  1  0  0  0  0
  6 16  2  0  0  0  0
  7 17  1  0  0  0  0
  8 17  2  0  0  0  0
  9 10  2  0  0  0  0
  9 13  1  0  0  0  0
 10 31  1  0  0  0  0
 11 13  2  0  0  0  0
 11 31  1  0  0  0  0
 12 25  2  0  0  0  0
 12 26  1  0  0  0  0
 13 23  1  0  0  0  0
 14 15  2  0  0  0  0
 14 25  1  0  0  0  0
 15 26  1  0  0  0  0
 16 27  1  0  0  0  0
 17 28  1  0  0  0  0
 18 24  1  0  0  0  0
 18 28  1  0  0  0  0
 18 29  2  0  0  0  0
 19 21  1  0  0  0  0
 19 27  1  0  0  0  0
 20 22  1  0  0  0  0
 20 27  1  0  0  0  0
 21 30  1  0  0  0  0
 22 30  1  0  0  0  0
 23 28  1  0  0  0  0
 24 26  1  0  0  0  0
  1 32  1  0  0  0  0
  2 33  1  0  0  0  0
  3 34  1  0  0  0  0
  4 35  1  0  0  0  0
  5 36  1  0  0  0  0
  6 37  1  0  0  0  0
  7 38  1  0  0  0  0
  8 39  1  0  0  0  0
  9 40  1  0  0  0  0
 10 41  1  0  0  0  0
 11 42  1  0  0  0  0
 12 43  1  0  0  0  0
 19 44  1  0  0  0  0
 19 45  1  0  0  0  0
 20 46  1  0  0  0  0
 20 47  1  0  0  0  0
 21 48  1  0  0  0  0
 21 49  1  0  0  0  0
 22 50  1  0  0  0  0
 22 51  1  0  0  0  0
 23 52  1  0  0  0  0
 23 53  1  0  0  0  0
 24 54  1  0  0  0  0
 24 55  1  0  0  0  0
M  END
> <clash_score>
0

> <docking_score>
-9.764330863952637

> <overlap_score>
0.9908767938613892

$$$$
BENZO_391_1
  -OEChem-08222022423D

 58 62  0     0  0  0  0  0  0999 V2000
    4.0980    2.1130   19.5350 C   0  0  0  0  0  0  0  0  0  0  0  0
    4.2970    1.6690   20.8430 C   0  0  0  0  0  0  0  0  0  0  0  0
    4.9400    1.7060   18.5060 C   0  0  0  0  0  0  0  0  0  0  0  0
    5.3360    0.8000   21.1530 C   0  0  0  0  0  0  0  0  0  0  0  0
    8.3310   -2.7170   25.3430 C   0  0  0  0  0  0  0  0  0  0  0  0
   10.2570   -3.5000   24.1350 C   0  0  0  0  0  0  0  0  0  0  0  0
    8.3510   -1.5420   24.6110 C   0  0  0  0  0  0  0  0  0  0  0  0
   10.2760   -2.3270   23.4020 C   0  0  0  0  0  0  0  0  0  0  0  0
   12.4359    1.7439   24.3724 C   0  0  0  0  0  0  0  0  0  0  0  0
   12.3100    0.2469   22.7668 C   0  0  0  0  0  0  0  0  0  0  0  0
    7.6830   -0.5170   18.7600 C   0  0  0  0  0  0  0  0  0  0  0  0
   11.5217    1.0079   23.5949 C   0  0  0  0  0  0  0  0  0  0  0  0
    5.9810    0.8330   18.8060 C   0  0  0  0  0  0  0  0  0  0  0  0
    6.1600    0.3870   20.1140 C   0  0  0  0  0  0  0  0  0  0  0  0
    9.2850   -3.7090   25.1090 C   0  0  0  0  0  0  0  0  0  0  0  0
    9.3300   -1.3350   23.6390 C   0  0  0  0  0  0  0  0  0  0  0  0
    8.9510    0.1280   21.6880 C   0  0  0  0  0  0  0  0  0  0  0  0
    8.7666   -4.9523   27.2147 C   0  0  0  0  0  0  0  0  0  0  0  0
    9.3034   -6.1866   25.1651 C   0  0  0  0  0  0  0  0  0  0  0  0
    7.3827   -5.5925   27.1999 C   0  0  0  0  0  0  0  0  0  0  0  0
    7.9024   -6.7967   25.2263 C   0  0  0  0  0  0  0  0  0  0  0  0
   14.7884    0.0124   22.4815 C   0  0  0  0  0  0  0  0  0  0  0  0
   10.0220    1.0430   23.6570 C   0  0  0  0  0  0  0  0  0  0  0  0
    8.0810   -0.9750   21.0820 C   0  0  0  0  0  0  0  0  0  0  0  0
   13.7076    1.4745   24.0657 N   0  0  0  0  0  0  0  0  0  0  0  0
    6.9440    0.2550   18.0100 N   0  0  0  0  0  0  0  0  0  0  0  0
   13.5982    0.5607   23.0864 N   0  0  0  0  0  0  0  0  0  0  0  0
    7.2210   -0.4620   20.0350 N   0  0  0  0  0  0  0  0  0  0  0  0
    9.2640   -4.8844   25.8389 N   0  0  0  0  0  0  0  0  0  0  0  0
    9.4200   -0.0840   22.9530 N   0  0  0  0  0  0  0  0  0  0  0  0
    9.1870    1.1500   21.0630 O   0  0  0  0  0  0  0  0  0  0  0  0
    7.4483   -6.8833   26.5817 O   0  0  0  0  0  0  0  0  0  0  0  0
    3.2711    2.7875   19.3201 H   0  0  0  0  0  0  0  0  0  0  0  0
    3.6281    2.0095   21.6292 H   0  0  0  0  0  0  0  0  0  0  0  0
    4.7815    2.0665   17.4902 H   0  0  0  0  0  0  0  0  0  0  0  0
    5.4939    0.4577   22.1786 H   0  0  0  0  0  0  0  0  0  0  0  0
    7.5647   -2.8621   26.1053 H   0  0  0  0  0  0  0  0  0  0  0  0
   11.0144   -4.2642   23.9425 H   0  0  0  0  0  0  0  0  0  0  0  0
    7.5958   -0.7779   24.8006 H   0  0  0  0  0  0  0  0  0  0  0  0
   11.0406   -2.1848   22.6356 H   0  0  0  0  0  0  0  0  0  0  0  0
   12.2308    2.4652   25.1508 H   0  0  0  0  0  0  0  0  0  0  0  0
   12.0700   -0.4744   21.9974 H   0  0  0  0  0  0  0  0  0  0  0  0
    8.5167   -1.1056   18.4550 H   0  0  0  0  0  0  0  0  0  0  0  0
    8.7030   -3.9561   27.6574 H   0  0  0  0  0  0  0  0  0  0  0  0
    9.4460   -5.5639   27.8143 H   0  0  0  0  0  0  0  0  0  0  0  0
   10.0083   -6.8392   25.6817 H   0  0  0  0  0  0  0  0  0  0  0  0
    9.6089   -6.0802   24.1251 H   0  0  0  0  0  0  0  0  0  0  0  0
    7.0281   -5.7334   28.2231 H   0  0  0  0  0  0  0  0  0  0  0  0
    6.6541   -4.9678   26.6754 H   0  0  0  0  0  0  0  0  0  0  0  0
    7.1860   -6.2177   24.6318 H   0  0  0  0  0  0  0  0  0  0  0  0
    7.9246   -7.8119   24.8187 H   0  0  0  0  0  0  0  0  0  0  0  0
   15.0569    0.6453   21.6315 H   0  0  0  0  0  0  0  0  0  0  0  0
   15.5971   -0.0026   23.2174 H   0  0  0  0  0  0  0  0  0  0  0  0
   14.5870   -1.0100   22.1498 H   0  0  0  0  0  0  0  0  0  0  0  0
    9.6778    1.0140   24.6966 H   0  0  0  0  0  0  0  0  0  0  0  0
    9.6316    1.9637   23.2107 H   0  0  0  0  0  0  0  0  0  0  0  0
    8.7136   -1.7499   20.6462 H   0  0  0  0  0  0  0  0  0  0  0  0
    7.4415   -1.4060   21.8540 H   0  0  0  0  0  0  0  0  0  0  0  0
  1  2  1  0  0  0  0
  1  3  2  0  0  0  0
  2  4  2  0  0  0  0
  3 13  1  0  0  0  0
  4 14  1  0  0  0  0
  5  7  2  0  0  0  0
  5 15  1  0  0  0  0
  6  8  1  0  0  0  0
  6 15  2  0  0  0  0
  7 16  1  0  0  0  0
  8 16  2  0  0  0  0
  9 12  1  0  0  0  0
  9 25  2  0  0  0  0
 10 12  2  0  0  0  0
 10 27  1  0  0  0  0
 11 26  2  0  0  0  0
 11 28  1  0  0  0  0
 12 23  1  0  0  0  0
 13 14  2  0  0  0  0
 13 26  1  0  0  0  0
 14 28  1  0  0  0  0
 15 29  1  0  0  0  0
 16 30  1  0  0  0  0
 17 24  1  0  0  0  0
 17 30  1  0  0  0  0
 17 31  2  0  0  0  0
 18 20  1  0  0  0  0
 18 29  1  0  0  0  0
 19 21  1  0  0  0  0
 19 29  1  0  0  0  0
 20 32  1  0  0  0  0
 21 32  1  0  0  0  0
 22 27  1  0  0  0  0
 23 30  1  0  0  0  0
 24 28  1  0  0  0  0
 25 27  1  0  0  0  0
  1 33  1  0  0  0  0
  2 34  1  0  0  0  0
  3 35  1  0  0  0  0
  4 36  1  0  0  0  0
  5 37  1  0  0  0  0
  6 38  1  0  0  0  0
  7 39  1  0  0  0  0
  8 40  1  0  0  0  0
  9 41  1  0  0  0  0
 10 42  1  0  0  0  0
 11 43  1  0  0  0  0
 18 44  1  0  0  0  0
 18 45  1  0  0  0  0
 19 46  1  0  0  0  0
 19 47  1  0  0  0  0
 20 48  1  0  0  0  0
 20 49  1  0  0  0  0
 21 50  1  0  0  0  0
 21 51  1  0  0  0  0
 22 52  1  0  0  0  0
 22 53  1  0  0  0  0
 22 54  1  0  0  0  0
 23 55  1  0  0  0  0
 23 56  1  0  0  0  0
 24 57  1  0  0  0  0
 24 58  1  0  0  0  0
M  END
> <clash_score>
0

> <docking_score>
-9.732744216918945

> <overlap_score>
1.0026935338974

$$$$
BENZO_390_1
  -OEChem-08222022423D

 58 62  0     0  0  0  0  0  0999 V2000
    4.0980    2.1130   19.5350 C   0  0  0  0  0  0  0  0  0  0  0  0
    4.2970    1.6690   20.8430 C   0  0  0  0  0  0  0  0  0  0  0  0
   13.5977    1.8457   22.6865 C   0  0  0  0  0  0  0  0  0  0  0  0
   12.2044    1.8769   22.7438 C   0  0  0  0  0  0  0  0  0  0  0  0
    4.9400    1.7060   18.5060 C   0  0  0  0  0  0  0  0  0  0  0  0
    5.3360    0.8000   21.1530 C   0  0  0  0  0  0  0  0  0  0  0  0
    8.3310   -2.7170   25.3430 C   0  0  0  0  0  0  0  0  0  0  0  0
   10.2570   -3.5000   24.1350 C   0  0  0  0  0  0  0  0  0  0  0  0
    8.3510   -1.5420   24.6110 C   0  0  0  0  0  0  0  0  0  0  0  0
   10.2760   -2.3270   23.4020 C   0  0  0  0  0  0  0  0  0  0  0  0
   14.3084    0.9454   23.4803 C   0  0  0  0  0  0  0  0  0  0  0  0
   12.2323    0.1076   24.3888 C   0  0  0  0  0  0  0  0  0  0  0  0
    7.6830   -0.5170   18.7600 C   0  0  0  0  0  0  0  0  0  0  0  0
   11.5217    1.0079   23.5949 C   0  0  0  0  0  0  0  0  0  0  0  0
    5.9810    0.8330   18.8060 C   0  0  0  0  0  0  0  0  0  0  0  0
    6.1600    0.3870   20.1140 C   0  0  0  0  0  0  0  0  0  0  0  0
    9.2850   -3.7090   25.1090 C   0  0  0  0  0  0  0  0  0  0  0  0
    9.3300   -1.3350   23.6390 C   0  0  0  0  0  0  0  0  0  0  0  0
   13.6257    0.0764   24.3314 C   0  0  0  0  0  0  0  0  0  0  0  0
    8.9510    0.1280   21.6880 C   0  0  0  0  0  0  0  0  0  0  0  0
    8.7666   -4.9523   27.2147 C   0  0  0  0  0  0  0  0  0  0  0  0
    9.3034   -6.1866   25.1651 C   0  0  0  0  0  0  0  0  0  0  0  0
    7.3827   -5.5925   27.1999 C   0  0  0  0  0  0  0  0  0  0  0  0
    7.9024   -6.7967   25.2263 C   0  0  0  0  0  0  0  0  0  0  0  0
   10.0220    1.0430   23.6570 C   0  0  0  0  0  0  0  0  0  0  0  0
    8.0810   -0.9750   21.0820 C   0  0  0  0  0  0  0  0  0  0  0  0
    6.9440    0.2550   18.0100 N   0  0  0  0  0  0  0  0  0  0  0  0
    7.2210   -0.4620   20.0350 N   0  0  0  0  0  0  0  0  0  0  0  0
    9.2640   -4.8844   25.8389 N   0  0  0  0  0  0  0  0  0  0  0  0
    9.4200   -0.0840   22.9530 N   0  0  0  0  0  0  0  0  0  0  0  0
    9.1870    1.1500   21.0630 O   0  0  0  0  0  0  0  0  0  0  0  0
    7.4483   -6.8833   26.5817 O   0  0  0  0  0  0  0  0  0  0  0  0
   14.5031   -1.0334   25.3114 Cl  0  0  0  0  0  0  0  0  0  0  0  0
    3.2711    2.7875   19.3201 H   0  0  0  0  0  0  0  0  0  0  0  0
    3.6281    2.0095   21.6292 H   0  0  0  0  0  0  0  0  0  0  0  0
   14.1289    2.5226   22.0237 H   0  0  0  0  0  0  0  0  0  0  0  0
   11.6588    2.5818   22.1218 H   0  0  0  0  0  0  0  0  0  0  0  0
    4.7815    2.0665   17.4902 H   0  0  0  0  0  0  0  0  0  0  0  0
    5.4939    0.4577   22.1786 H   0  0  0  0  0  0  0  0  0  0  0  0
    7.5647   -2.8621   26.1053 H   0  0  0  0  0  0  0  0  0  0  0  0
   11.0144   -4.2642   23.9425 H   0  0  0  0  0  0  0  0  0  0  0  0
    7.5958   -0.7779   24.8006 H   0  0  0  0  0  0  0  0  0  0  0  0
   11.0406   -2.1848   22.6356 H   0  0  0  0  0  0  0  0  0  0  0  0
   15.3941    0.9323   23.4255 H   0  0  0  0  0  0  0  0  0  0  0  0
   11.6954   -0.5682   25.0504 H   0  0  0  0  0  0  0  0  0  0  0  0
    8.5167   -1.1056   18.4550 H   0  0  0  0  0  0  0  0  0  0  0  0
    8.7030   -3.9561   27.6574 H   0  0  0  0  0  0  0  0  0  0  0  0
    9.4460   -5.5639   27.8143 H   0  0  0  0  0  0  0  0  0  0  0  0
   10.0083   -6.8392   25.6817 H   0  0  0  0  0  0  0  0  0  0  0  0
    9.6089   -6.0802   24.1251 H   0  0  0  0  0  0  0  0  0  0  0  0
    7.0281   -5.7334   28.2231 H   0  0  0  0  0  0  0  0  0  0  0  0
    6.6541   -4.9678   26.6754 H   0  0  0  0  0  0  0  0  0  0  0  0
    7.1860   -6.2177   24.6318 H   0  0  0  0  0  0  0  0  0  0  0  0
    7.9246   -7.8119   24.8187 H   0  0  0  0  0  0  0  0  0  0  0  0
    9.6778    1.0140   24.6966 H   0  0  0  0  0  0  0  0  0  0  0  0
    9.6316    1.9637   23.2107 H   0  0  0  0  0  0  0  0  0  0  0  0
    8.7136   -1.7499   20.6462 H   0  0  0  0  0  0  0  0  0  0  0  0
    7.4415   -1.4060   21.8540 H   0  0  0  0  0  0  0  0  0  0  0  0
  1  2  1  0  0  0  0
  1  5  2  0  0  0  0
  2  6  2  0  0  0  0
  3  4  2  0  0  0  0
  3 11  1  0  0  0  0
  4 14  1  0  0  0  0
  5 15  1  0  0  0  0
  6 16  1  0  0  0  0
  7  9  2  0  0  0  0
  7 17  1  0  0  0  0
  8 10  1  0  0  0  0
  8 17  2  0  0  0  0
  9 18  1  0  0  0  0
 10 18  2  0  0  0  0
 11 19  2  0  0  0  0
 12 14  2  0  0  0  0
 12 19  1  0  0  0  0
 13 27  2  0  0  0  0
 13 28  1  0  0  0  0
 14 25  1  0  0  0  0
 15 16  2  0  0  0  0
 15 27  1  0  0  0  0
 16 28  1  0  0  0  0
 17 29  1  0  0  0  0
 18 30  1  0  0  0  0
 19 33  1  0  0  0  0
 20 26  1  0  0  0  0
 20 30  1  0  0  0  0
 20 31  2  0  0  0  0
 21 23  1  0  0  0  0
 21 29  1  0  0  0  0
 22 24  1  0  0  0  0
 22 29  1  0  0  0  0
 23 32  1  0  0  0  0
 24 32  1  0  0  0  0
 25 30  1  0  0  0  0
 26 28  1  0  0  0  0
  1 34  1  0  0  0  0
  2 35  1  0  0  0  0
  3 36  1  0  0  0  0
  4 37  1  0  0  0  0
  5 38  1  0  0  0  0
  6 39  1  0  0  0  0
  7 40  1  0  0  0  0
  8 41  1  0  0  0  0
  9 42  1  0  0  0  0
 10 43  1  0  0  0  0
 11 44  1  0  0  0  0
 12 45  1  0  0  0  0
 13 46  1  0  0  0  0
 21 47  1  0  0  0  0
 21 48  1  0  0  0  0
 22 49  1  0  0  0  0
 22 50  1  0  0  0  0
 23 51  1  0  0  0  0
 23 52  1  0  0  0  0
 24 53  1  0  0  0  0
 24 54  1  0  0  0  0
 25 55  1  0  0  0  0
 25 56  1  0  0  0  0
 26 57  1  0  0  0  0
 26 58  1  0  0  0  0
M  END
> <clash_score>
0.766244867567892

> <docking_score>
-8.700034141540527

> <overlap_score>
1.021671175956726

$$$$
BENZO_393_1
  -OEChem-08222022423D

 53 56  0     0  0  0  0  0  0999 V2000
   14.3082    0.9431   23.4783 C   0  0  0  0  0  0  0  0  0  0  0  0
    4.2970    1.6690   20.8430 C   0  0  0  0  0  0  0  0  0  0  0  0
   13.6391    0.3091   24.5251 C   0  0  0  0  0  0  0  0  0  0  0  0
   13.5841    1.6096   22.4898 C   0  0  0  0  0  0  0  0  0  0  0  0
    4.0980    2.1130   19.5350 C   0  0  0  0  0  0  0  0  0  0  0  0
    5.3360    0.8000   21.1530 C   0  0  0  0  0  0  0  0  0  0  0  0
   12.2459    0.3415   24.5835 C   0  0  0  0  0  0  0  0  0  0  0  0
   12.1908    1.6420   22.5481 C   0  0  0  0  0  0  0  0  0  0  0  0
    4.9400    1.7060   18.5060 C   0  0  0  0  0  0  0  0  0  0  0  0
    8.3510   -1.5420   24.6110 C   0  0  0  0  0  0  0  0  0  0  0  0
   10.2760   -2.3270   23.4020 C   0  0  0  0  0  0  0  0  0  0  0  0
    8.3310   -2.7170   25.3430 C   0  0  0  0  0  0  0  0  0  0  0  0
   10.2570   -3.5000   24.1350 C   0  0  0  0  0  0  0  0  0  0  0  0
    6.1600    0.3870   20.1140 C   0  0  0  0  0  0  0  0  0  0  0  0
   11.5217    1.0079   23.5949 C   0  0  0  0  0  0  0  0  0  0  0  0
    5.9810    0.8330   18.8060 C   0  0  0  0  0  0  0  0  0  0  0  0
    9.3300   -1.3350   23.6390 C   0  0  0  0  0  0  0  0  0  0  0  0
    9.2850   -3.7090   25.1090 C   0  0  0  0  0  0  0  0  0  0  0  0
    7.2210   -0.4620   20.0350 C   0  0  0  0  0  0  0  0  0  0  0  0
    8.9510    0.1280   21.6880 C   0  0  0  0  0  0  0  0  0  0  0  0
    8.2504   -5.1193   26.8645 C   0  0  0  0  0  0  0  0  0  0  0  0
   10.2433   -5.9398   25.5981 C   0  0  0  0  0  0  0  0  0  0  0  0
   10.0220    1.0430   23.6570 C   0  0  0  0  0  0  0  0  0  0  0  0
    8.0810   -0.9750   21.0820 C   0  0  0  0  0  0  0  0  0  0  0  0
    6.9440    0.2550   18.0100 N   0  0  0  0  0  0  0  0  0  0  0  0
    7.6830   -0.5170   18.7600 N   0  0  0  0  0  0  0  0  0  0  0  0
    9.4200   -0.0840   22.9530 N   0  0  0  0  0  0  0  0  0  0  0  0
    9.2624   -4.9028   25.8498 N   0  0  0  0  0  0  0  0  0  0  0  0
    9.1870    1.1500   21.0630 O   0  0  0  0  0  0  0  0  0  0  0  0
   15.3932    0.9189   23.4337 H   0  0  0  0  0  0  0  0  0  0  0  0
    3.6362    2.0028   21.6260 H   0  0  0  0  0  0  0  0  0  0  0  0
   14.2029   -0.2090   25.2955 H   0  0  0  0  0  0  0  0  0  0  0  0
   14.1048    2.1043   21.6752 H   0  0  0  0  0  0  0  0  0  0  0  0
    3.2801    2.7808   19.3164 H   0  0  0  0  0  0  0  0  0  0  0  0
    5.4892    0.4523   22.2166 H   0  0  0  0  0  0  0  0  0  0  0  0
   11.7330   -0.1555   25.4027 H   0  0  0  0  0  0  0  0  0  0  0  0
   11.6349    2.1636   21.7735 H   0  0  0  0  0  0  0  0  0  0  0  0
    4.7762    2.0781   17.4596 H   0  0  0  0  0  0  0  0  0  0  0  0
    7.5947   -0.7787   24.7997 H   0  0  0  0  0  0  0  0  0  0  0  0
   11.0404   -2.1861   22.6352 H   0  0  0  0  0  0  0  0  0  0  0  0
    7.5641   -2.8632   26.1047 H   0  0  0  0  0  0  0  0  0  0  0  0
   11.0135   -4.2647   23.9425 H   0  0  0  0  0  0  0  0  0  0  0  0
    8.4006   -6.1053   27.3283 H   0  0  0  0  0  0  0  0  0  0  0  0
    8.3291   -4.3367   27.6335 H   0  0  0  0  0  0  0  0  0  0  0  0
    7.2532   -5.0798   26.4019 H   0  0  0  0  0  0  0  0  0  0  0  0
   10.0612   -6.7891   26.2731 H   0  0  0  0  0  0  0  0  0  0  0  0
   10.1608   -6.2769   24.5543 H   0  0  0  0  0  0  0  0  0  0  0  0
   11.2528   -5.5404   25.7757 H   0  0  0  0  0  0  0  0  0  0  0  0
    9.6778    1.0140   24.6966 H   0  0  0  0  0  0  0  0  0  0  0  0
    9.6316    1.9637   23.2107 H   0  0  0  0  0  0  0  0  0  0  0  0
    7.4898   -1.4163   21.8975 H   0  0  0  0  0  0  0  0  0  0  0  0
    8.7537   -1.7577   20.7019 H   0  0  0  0  0  0  0  0  0  0  0  0
    8.4371   -1.0264   18.3897 H   0  0  0  0  0  0  0  0  0  0  0  0
  1  3  1  0  0  0  0
  1  4  2  0  0  0  0
  2  5  1  0  0  0  0
  2  6  2  0  0  0  0
  3  7  2  0  0  0  0
  4  8  1  0  0  0  0
  5  9  2  0  0  0  0
  6 14  1  0  0  0  0
  7 15  1  0  0  0  0
  8 15  2  0  0  0  0
  9 16  1  0  0  0  0
 10 12  2  0  0  0  0
 10 17  1  0  0  0  0
 11 13  1  0  0  0  0
 11 17  2  0  0  0  0
 12 18  1  0  0  0  0
 13 18  2  0  0  0  0
 14 16  1  0  0  0  0
 14 19  2  0  0  0  0
 15 23  1  0  0  0  0
 16 25  2  0  0  0  0
 17 27  1  0  0  0  0
 18 28  1  0  0  0  0
 19 24  1  0  0  0  0
 19 26  1  0  0  0  0
 20 24  1  0  0  0  0
 20 27  1  0  0  0  0
 20 29  2  0  0  0  0
 21 28  1  0  0  0  0
 22 28  1  0  0  0  0
 23 27  1  0  0  0  0
 25 26  1  0  0  0  0
  1 30  1  0  0  0  0
  2 31  1  0  0  0  0
  3 32  1  0  0  0  0
  4 33  1  0  0  0  0
  5 34  1  0  0  0  0
  6 35  1  0  0  0  0
  7 36  1  0  0  0  0
  8 37  1  0  0  0  0
  9 38  1  0  0  0  0
 10 39  1  0  0  0  0
 11 40  1  0  0  0  0
 12 41  1  0  0  0  0
 13 42  1  0  0  0  0
 21 43  1  0  0  0  0
 21 44  1  0  0  0  0
 21 45  1  0  0  0  0
 22 46  1  0  0  0  0
 22 47  1  0  0  0  0
 22 48  1  0  0  0  0
 23 49  1  0  0  0  0
 23 50  1  0  0  0  0
 24 51  1  0  0  0  0
 24 52  1  0  0  0  0
 26 53  1  0  0  0  0
M  END
> <clash_score>
0

> <docking_score>
-9.80284309387207

> <overlap_score>
1.0030856132507324

$$$$
BENZO_392_1
  -OEChem-08222022423D

 50 53  0     0  0  0  0  0  0999 V2000
    4.2970    1.6690   20.8430 C   0  0  0  0  0  0  0  0  0  0  0  0
    4.0980    2.1130   19.5350 C   0  0  0  0  0  0  0  0  0  0  0  0
    5.3360    0.8000   21.1530 C   0  0  0  0  0  0  0  0  0  0  0  0
    4.9400    1.7060   18.5060 C   0  0  0  0  0  0  0  0  0  0  0  0
    8.3510   -1.5420   24.6110 C   0  0  0  0  0  0  0  0  0  0  0  0
   10.2760   -2.3270   23.4020 C   0  0  0  0  0  0  0  0  0  0  0  0
    8.3310   -2.7170   25.3430 C   0  0  0  0  0  0  0  0  0  0  0  0
   10.2570   -3.5000   24.1350 C   0  0  0  0  0  0  0  0  0  0  0  0
   12.2675    1.0332   22.3812 C   0  0  0  0  0  0  0  0  0  0  0  0
   13.6257    0.9906   22.6074 C   0  0  0  0  0  0  0  0  0  0  0  0
   12.3384    0.9467   24.7028 C   0  0  0  0  0  0  0  0  0  0  0  0
    6.1600    0.3870   20.1140 C   0  0  0  0  0  0  0  0  0  0  0  0
   11.5217    1.0079   23.5949 C   0  0  0  0  0  0  0  0  0  0  0  0
    5.9810    0.8330   18.8060 C   0  0  0  0  0  0  0  0  0  0  0  0
    9.3300   -1.3350   23.6390 C   0  0  0  0  0  0  0  0  0  0  0  0
    9.2850   -3.7090   25.1090 C   0  0  0  0  0  0  0  0  0  0  0  0
    7.2210   -0.4620   20.0350 C   0  0  0  0  0  0  0  0  0  0  0  0
    8.9510    0.1280   21.6880 C   0  0  0  0  0  0  0  0  0  0  0  0
    8.2504   -5.1193   26.8645 C   0  0  0  0  0  0  0  0  0  0  0  0
   10.2433   -5.9398   25.5981 C   0  0  0  0  0  0  0  0  0  0  0  0
   10.0220    1.0430   23.6570 C   0  0  0  0  0  0  0  0  0  0  0  0
    8.0810   -0.9750   21.0820 C   0  0  0  0  0  0  0  0  0  0  0  0
    6.9440    0.2550   18.0100 N   0  0  0  0  0  0  0  0  0  0  0  0
    7.6830   -0.5170   18.7600 N   0  0  0  0  0  0  0  0  0  0  0  0
    9.4200   -0.0840   22.9530 N   0  0  0  0  0  0  0  0  0  0  0  0
    9.2624   -4.9028   25.8498 N   0  0  0  0  0  0  0  0  0  0  0  0
    9.1870    1.1500   21.0630 O   0  0  0  0  0  0  0  0  0  0  0  0
   13.9969    0.9202   24.2776 S   0  0  0  0  0  0  0  0  0  0  0  0
    3.6362    2.0028   21.6260 H   0  0  0  0  0  0  0  0  0  0  0  0
    3.2801    2.7808   19.3164 H   0  0  0  0  0  0  0  0  0  0  0  0
    5.4892    0.4523   22.2166 H   0  0  0  0  0  0  0  0  0  0  0  0
    4.7762    2.0781   17.4596 H   0  0  0  0  0  0  0  0  0  0  0  0
    7.5947   -0.7787   24.7997 H   0  0  0  0  0  0  0  0  0  0  0  0
   11.0404   -2.1861   22.6352 H   0  0  0  0  0  0  0  0  0  0  0  0
    7.5641   -2.8632   26.1047 H   0  0  0  0  0  0  0  0  0  0  0  0
   11.0135   -4.2647   23.9425 H   0  0  0  0  0  0  0  0  0  0  0  0
   11.8338    1.0798   21.3902 H   0  0  0  0  0  0  0  0  0  0  0  0
   14.4176    0.9966   21.8719 H   0  0  0  0  0  0  0  0  0  0  0  0
   12.0446    0.9149   25.7428 H   0  0  0  0  0  0  0  0  0  0  0  0
    8.4006   -6.1053   27.3283 H   0  0  0  0  0  0  0  0  0  0  0  0
    8.3291   -4.3367   27.6335 H   0  0  0  0  0  0  0  0  0  0  0  0
    7.2532   -5.0798   26.4019 H   0  0  0  0  0  0  0  0  0  0  0  0
   10.0612   -6.7891   26.2731 H   0  0  0  0  0  0  0  0  0  0  0  0
   10.1608   -6.2769   24.5543 H   0  0  0  0  0  0  0  0  0  0  0  0
   11.2528   -5.5404   25.7757 H   0  0  0  0  0  0  0  0  0  0  0  0
    9.6778    1.0140   24.6966 H   0  0  0  0  0  0  0  0  0  0  0  0
    9.6316    1.9637   23.2107 H   0  0  0  0  0  0  0  0  0  0  0  0
    7.4898   -1.4163   21.8975 H   0  0  0  0  0  0  0  0  0  0  0  0
    8.7537   -1.7577   20.7019 H   0  0  0  0  0  0  0  0  0  0  0  0
    8.4371   -1.0264   18.3897 H   0  0  0  0  0  0  0  0  0  0  0  0
  1  2  1  0  0  0  0
  1  3  2  0  0  0  0
  2  4  2  0  0  0  0
  3 12  1  0  0  0  0
  4 14  1  0  0  0  0
  5  7  2  0  0  0  0
  5 15  1  0  0  0  0
  6  8  1  0  0  0  0
  6 15  2  0  0  0  0
  7 16  1  0  0  0  0
  8 16  2  0  0  0  0
  9 10  2  0  0  0  0
  9 13  1  0  0  0  0
 10 28  1  0  0  0  0
 11 13  2  0  0  0  0
 11 28  1  0  0  0  0
 12 14  1  0  0  0  0
 12 17  2  0  0  0  0
 13 21  1  0  0  0  0
 14 23  2  0  0  0  0
 15 25  1  0  0  0  0
 16 26  1  0  0  0  0
 17 22  1  0  0  0  0
 17 24  1  0  0  0  0
 18 22  1  0  0  0  0
 18 25  1  0  0  0  0
 18 27  2  0  0  0  0
 19 26  1  0  0  0  0
 20 26  1  0  0  0  0
 21 25  1  0  0  0  0
 23 24  1  0  0  0  0
  1 29  1  0  0  0  0
  2 30  1  0  0  0  0
  3 31  1  0  0  0  0
  4 32  1  0  0  0  0
  5 33  1  0  0  0  0
  6 34  1  0  0  0  0
  7 35  1  0  0  0  0
  8 36  1  0  0  0  0
  9 37  1  0  0  0  0
 10 38  1  0  0  0  0
 11 39  1  0  0  0  0
 19 40  1  0  0  0  0
 19 41  1  0  0  0  0
 19 42  1  0  0  0  0
 20 43  1  0  0  0  0
 20 44  1  0  0  0  0
 20 45  1  0  0  0  0
 21 46  1  0  0  0  0
 21 47  1  0  0  0  0
 22 48  1  0  0  0  0
 22 49  1  0  0  0  0
 24 50  1  0  0  0  0
M  END
> <clash_score>
0

> <docking_score>
-10.04904556274414

> <overlap_score>
0.9772622585296631

$$$$
BENZO_395_1
  -OEChem-08222022423D

 53 56  0     0  0  0  0  0  0999 V2000
    4.2970    1.6690   20.8430 C   0  0  0  0  0  0  0  0  0  0  0  0
    4.0980    2.1130   19.5350 C   0  0  0  0  0  0  0  0  0  0  0  0
    5.3360    0.8000   21.1530 C   0  0  0  0  0  0  0  0  0  0  0  0
    4.9400    1.7060   18.5060 C   0  0  0  0  0  0  0  0  0  0  0  0
    8.3510   -1.5420   24.6110 C   0  0  0  0  0  0  0  0  0  0  0  0
   10.2760   -2.3270   23.4020 C   0  0  0  0  0  0  0  0  0  0  0  0
    8.3310   -2.7170   25.3430 C   0  0  0  0  0  0  0  0  0  0  0  0
   10.2570   -3.5000   24.1350 C   0  0  0  0  0  0  0  0  0  0  0  0
   12.4359    1.7439   24.3724 C   0  0  0  0  0  0  0  0  0  0  0  0
   12.3100    0.2469   22.7668 C   0  0  0  0  0  0  0  0  0  0  0  0
    6.1600    0.3870   20.1140 C   0  0  0  0  0  0  0  0  0  0  0  0
   11.5217    1.0079   23.5949 C   0  0  0  0  0  0  0  0  0  0  0  0
    5.9810    0.8330   18.8060 C   0  0  0  0  0  0  0  0  0  0  0  0
    9.3300   -1.3350   23.6390 C   0  0  0  0  0  0  0  0  0  0  0  0
    9.2850   -3.7090   25.1090 C   0  0  0  0  0  0  0  0  0  0  0  0
    7.2210   -0.4620   20.0350 C   0  0  0  0  0  0  0  0  0  0  0  0
    8.9510    0.1280   21.6880 C   0  0  0  0  0  0  0  0  0  0  0  0
   14.7884    0.0124   22.4815 C   0  0  0  0  0  0  0  0  0  0  0  0
    8.2504   -5.1193   26.8645 C   0  0  0  0  0  0  0  0  0  0  0  0
   10.2433   -5.9398   25.5981 C   0  0  0  0  0  0  0  0  0  0  0  0
   10.0220    1.0430   23.6570 C   0  0  0  0  0  0  0  0  0  0  0  0
    8.0810   -0.9750   21.0820 C   0  0  0  0  0  0  0  0  0  0  0  0
   13.7076    1.4745   24.0657 N   0  0  0  0  0  0  0  0  0  0  0  0
    6.9440    0.2550   18.0100 N   0  0  0  0  0  0  0  0  0  0  0  0
    7.6830   -0.5170   18.7600 N   0  0  0  0  0  0  0  0  0  0  0  0
   13.5982    0.5607   23.0864 N   0  0  0  0  0  0  0  0  0  0  0  0
    9.4200   -0.0840   22.9530 N   0  0  0  0  0  0  0  0  0  0  0  0
    9.2624   -4.9028   25.8498 N   0  0  0  0  0  0  0  0  0  0  0  0
    9.1870    1.1500   21.0630 O   0  0  0  0  0  0  0  0  0  0  0  0
    3.6362    2.0028   21.6260 H   0  0  0  0  0  0  0  0  0  0  0  0
    3.2801    2.7808   19.3164 H   0  0  0  0  0  0  0  0  0  0  0  0
    5.4892    0.4523   22.2166 H   0  0  0  0  0  0  0  0  0  0  0  0
    4.7762    2.0781   17.4596 H   0  0  0  0  0  0  0  0  0  0  0  0
    7.5947   -0.7787   24.7997 H   0  0  0  0  0  0  0  0  0  0  0  0
   11.0404   -2.1861   22.6352 H   0  0  0  0  0  0  0  0  0  0  0  0
    7.5641   -2.8632   26.1047 H   0  0  0  0  0  0  0  0  0  0  0  0
   11.0135   -4.2647   23.9425 H   0  0  0  0  0  0  0  0  0  0  0  0
   12.2308    2.4652   25.1508 H   0  0  0  0  0  0  0  0  0  0  0  0
   12.0700   -0.4744   21.9974 H   0  0  0  0  0  0  0  0  0  0  0  0
   15.0569    0.6453   21.6315 H   0  0  0  0  0  0  0  0  0  0  0  0
   15.5971   -0.0026   23.2174 H   0  0  0  0  0  0  0  0  0  0  0  0
   14.5870   -1.0100   22.1498 H   0  0  0  0  0  0  0  0  0  0  0  0
    8.4006   -6.1053   27.3283 H   0  0  0  0  0  0  0  0  0  0  0  0
    8.3291   -4.3367   27.6335 H   0  0  0  0  0  0  0  0  0  0  0  0
    7.2532   -5.0798   26.4019 H   0  0  0  0  0  0  0  0  0  0  0  0
   10.0612   -6.7891   26.2731 H   0  0  0  0  0  0  0  0  0  0  0  0
   10.1608   -6.2769   24.5543 H   0  0  0  0  0  0  0  0  0  0  0  0
   11.2528   -5.5404   25.7757 H   0  0  0  0  0  0  0  0  0  0  0  0
    9.6778    1.0140   24.6966 H   0  0  0  0  0  0  0  0  0  0  0  0
    9.6316    1.9637   23.2107 H   0  0  0  0  0  0  0  0  0  0  0  0
    7.4898   -1.4163   21.8975 H   0  0  0  0  0  0  0  0  0  0  0  0
    8.7537   -1.7577   20.7019 H   0  0  0  0  0  0  0  0  0  0  0  0
    8.4371   -1.0264   18.3897 H   0  0  0  0  0  0  0  0  0  0  0  0
  1  2  1  0  0  0  0
  1  3  2  0  0  0  0
  2  4  2  0  0  0  0
  3 11  1  0  0  0  0
  4 13  1  0  0  0  0
  5  7  2  0  0  0  0
  5 14  1  0  0  0  0
  6  8  1  0  0  0  0
  6 14  2  0  0  0  0
  7 15  1  0  0  0  0
  8 15  2  0  0  0  0
  9 12  1  0  0  0  0
  9 23  2  0  0  0  0
 10 12  2  0  0  0  0
 10 26  1  0  0  0  0
 11 13  1  0  0  0  0
 11 16  2  0  0  0  0
 12 21  1  0  0  0  0
 13 24  2  0  0  0  0
 14 27  1  0  0  0  0
 15 28  1  0  0  0  0
 16 22  1  0  0  0  0
 16 25  1  0  0  0  0
 17 22  1  0  0  0  0
 17 27  1  0  0  0  0
 17 29  2  0  0  0  0
 18 26  1  0  0  0  0
 19 28  1  0  0  0  0
 20 28  1  0  0  0  0
 21 27  1  0  0  0  0
 23 26  1  0  0  0  0
 24 25  1  0  0  0  0
  1 30  1  0  0  0  0
  2 31  1  0  0  0  0
  3 32  1  0  0  0  0
  4 33  1  0  0  0  0
  5 34  1  0  0  0  0
  6 35  1  0  0  0  0
  7 36  1  0  0  0  0
  8 37  1  0  0  0  0
  9 38  1  0  0  0  0
 10 39  1  0  0  0  0
 18 40  1  0  0  0  0
 18 41  1  0  0  0  0
 18 42  1  0  0  0  0
 19 43  1  0  0  0  0
 19 44  1  0  0  0  0
 19 45  1  0  0  0  0
 20 46  1  0  0  0  0
 20 47  1  0  0  0  0
 20 48  1  0  0  0  0
 21 49  1  0  0  0  0
 21 50  1  0  0  0  0
 22 51  1  0  0  0  0
 22 52  1  0  0  0  0
 25 53  1  0  0  0  0
M  END
> <clash_score>
0

> <docking_score>
-10.017452239990234

> <overlap_score>
0.9891862869262695

$$$$
BENZO_394_1
  -OEChem-08222022423D

 53 56  0     0  0  0  0  0  0999 V2000
    4.2970    1.6690   20.8430 C   0  0  0  0  0  0  0  0  0  0  0  0
    4.0980    2.1130   19.5350 C   0  0  0  0  0  0  0  0  0  0  0  0
   13.5977    1.8457   22.6865 C   0  0  0  0  0  0  0  0  0  0  0  0
    5.3360    0.8000   21.1530 C   0  0  0  0  0  0  0  0  0  0  0  0
   12.2044    1.8769   22.7438 C   0  0  0  0  0  0  0  0  0  0  0  0
    4.9400    1.7060   18.5060 C   0  0  0  0  0  0  0  0  0  0  0  0
    8.3510   -1.5420   24.6110 C   0  0  0  0  0  0  0  0  0  0  0  0
   10.2760   -2.3270   23.4020 C   0  0  0  0  0  0  0  0  0  0  0  0
    8.3310   -2.7170   25.3430 C   0  0  0  0  0  0  0  0  0  0  0  0
   10.2570   -3.5000   24.1350 C   0  0  0  0  0  0  0  0  0  0  0  0
   14.3084    0.9453   23.4803 C   0  0  0  0  0  0  0  0  0  0  0  0
   12.2323    0.1076   24.3888 C   0  0  0  0  0  0  0  0  0  0  0  0
    6.1600    0.3870   20.1140 C   0  0  0  0  0  0  0  0  0  0  0  0
   11.5217    1.0079   23.5949 C   0  0  0  0  0  0  0  0  0  0  0  0
    5.9810    0.8330   18.8060 C   0  0  0  0  0  0  0  0  0  0  0  0
    9.3300   -1.3350   23.6390 C   0  0  0  0  0  0  0  0  0  0  0  0
    9.2850   -3.7090   25.1090 C   0  0  0  0  0  0  0  0  0  0  0  0
   13.6257    0.0764   24.3314 C   0  0  0  0  0  0  0  0  0  0  0  0
    7.2210   -0.4620   20.0350 C   0  0  0  0  0  0  0  0  0  0  0  0
    8.9510    0.1280   21.6880 C   0  0  0  0  0  0  0  0  0  0  0  0
    8.2504   -5.1193   26.8645 C   0  0  0  0  0  0  0  0  0  0  0  0
   10.2433   -5.9398   25.5981 C   0  0  0  0  0  0  0  0  0  0  0  0
   10.0220    1.0430   23.6570 C   0  0  0  0  0  0  0  0  0  0  0  0
    8.0810   -0.9750   21.0820 C   0  0  0  0  0  0  0  0  0  0  0  0
    6.9440    0.2550   18.0100 N   0  0  0  0  0  0  0  0  0  0  0  0
    7.6830   -0.5170   18.7600 N   0  0  0  0  0  0  0  0  0  0  0  0
    9.4200   -0.0840   22.9530 N   0  0  0  0  0  0  0  0  0  0  0  0
    9.2624   -4.9028   25.8498 N   0  0  0  0  0  0  0  0  0  0  0  0
    9.1870    1.1500   21.0630 O   0  0  0  0  0  0  0  0  0  0  0  0
   14.5031   -1.0334   25.3114 Cl  0  0  0  0  0  0  0  0  0  0  0  0
    3.6362    2.0028   21.6260 H   0  0  0  0  0  0  0  0  0  0  0  0
    3.2801    2.7808   19.3164 H   0  0  0  0  0  0  0  0  0  0  0  0
   14.1289    2.5226   22.0237 H   0  0  0  0  0  0  0  0  0  0  0  0
    5.4892    0.4523   22.2166 H   0  0  0  0  0  0  0  0  0  0  0  0
   11.6588    2.5818   22.1218 H   0  0  0  0  0  0  0  0  0  0  0  0
    4.7762    2.0781   17.4596 H   0  0  0  0  0  0  0  0  0  0  0  0
    7.5947   -0.7787   24.7997 H   0  0  0  0  0  0  0  0  0  0  0  0
   11.0404   -2.1861   22.6352 H   0  0  0  0  0  0  0  0  0  0  0  0
    7.5641   -2.8632   26.1047 H   0  0  0  0  0  0  0  0  0  0  0  0
   11.0135   -4.2647   23.9425 H   0  0  0  0  0  0  0  0  0  0  0  0
   15.3941    0.9323   23.4255 H   0  0  0  0  0  0  0  0  0  0  0  0
   11.6954   -0.5682   25.0504 H   0  0  0  0  0  0  0  0  0  0  0  0
    8.4006   -6.1053   27.3283 H   0  0  0  0  0  0  0  0  0  0  0  0
    8.3291   -4.3367   27.6335 H   0  0  0  0  0  0  0  0  0  0  0  0
    7.2532   -5.0798   26.4019 H   0  0  0  0  0  0  0  0  0  0  0  0
   10.0612   -6.7891   26.2731 H   0  0  0  0  0  0  0  0  0  0  0  0
   10.1608   -6.2769   24.5543 H   0  0  0  0  0  0  0  0  0  0  0  0
   11.2528   -5.5404   25.7757 H   0  0  0  0  0  0  0  0  0  0  0  0
    9.6778    1.0140   24.6966 H   0  0  0  0  0  0  0  0  0  0  0  0
    9.6316    1.9637   23.2107 H   0  0  0  0  0  0  0  0  0  0  0  0
    7.4898   -1.4163   21.8975 H   0  0  0  0  0  0  0  0  0  0  0  0
    8.7537   -1.7577   20.7019 H   0  0  0  0  0  0  0  0  0  0  0  0
    8.4371   -1.0264   18.3897 H   0  0  0  0  0  0  0  0  0  0  0  0
  1  2  1  0  0  0  0
  1  4  2  0  0  0  0
  2  6  2  0  0  0  0
  3  5  2  0  0  0  0
  3 11  1  0  0  0  0
  4 13  1  0  0  0  0
  5 14  1  0  0  0  0
  6 15  1  0  0  0  0
  7  9  2  0  0  0  0
  7 16  1  0  0  0  0
  8 10  1  0  0  0  0
  8 16  2  0  0  0  0
  9 17  1  0  0  0  0
 10 17  2  0  0  0  0
 11 18  2  0  0  0  0
 12 14  2  0  0  0  0
 12 18  1  0  0  0  0
 13 15  1  0  0  0  0
 13 19  2  0  0  0  0
 14 23  1  0  0  0  0
 15 25  2  0  0  0  0
 16 27  1  0  0  0  0
 17 28  1  0  0  0  0
 18 30  1  0  0  0  0
 19 24  1  0  0  0  0
 19 26  1  0  0  0  0
 20 24  1  0  0  0  0
 20 27  1  0  0  0  0
 20 29  2  0  0  0  0
 21 28  1  0  0  0  0
 22 28  1  0  0  0  0
 23 27  1  0  0  0  0
 25 26  1  0  0  0  0
  1 31  1  0  0  0  0
  2 32  1  0  0  0  0
  3 33  1  0  0  0  0
  4 34  1  0  0  0  0
  5 35  1  0  0  0  0
  6 36  1  0  0  0  0
  7 37  1  0  0  0  0
  8 38  1  0  0  0  0
  9 39  1  0  0  0  0
 10 40  1  0  0  0  0
 11 41  1  0  0  0  0
 12 42  1  0  0  0  0
 21 43  1  0  0  0  0
 21 44  1  0  0  0  0
 21 45  1  0  0  0  0
 22 46  1  0  0  0  0
 22 47  1  0  0  0  0
 22 48  1  0  0  0  0
 23 49  1  0  0  0  0
 23 50  1  0  0  0  0
 24 51  1  0  0  0  0
 24 52  1  0  0  0  0
 26 53  1  0  0  0  0
M  END
> <clash_score>
0.7662478438084733

> <docking_score>
-8.9847412109375

> <overlap_score>
1.0082905292510986

$$$$
BENZO_397_1
  -OEChem-08222022423D

 55 58  0     0  0  0  0  0  0999 V2000
   14.3082    0.9431   23.4783 C   0  0  0  0  0  0  0  0  0  0  0  0
    4.2970    1.6690   20.8430 C   0  0  0  0  0  0  0  0  0  0  0  0
   13.6391    0.3091   24.5251 C   0  0  0  0  0  0  0  0  0  0  0  0
   13.5841    1.6096   22.4898 C   0  0  0  0  0  0  0  0  0  0  0  0
    4.0980    2.1130   19.5350 C   0  0  0  0  0  0  0  0  0  0  0  0
    5.3360    0.8000   21.1530 C   0  0  0  0  0  0  0  0  0  0  0  0
   12.2459    0.3415   24.5835 C   0  0  0  0  0  0  0  0  0  0  0  0
   12.1908    1.6420   22.5481 C   0  0  0  0  0  0  0  0  0  0  0  0
    4.9400    1.7060   18.5060 C   0  0  0  0  0  0  0  0  0  0  0  0
    8.3310   -2.7170   25.3430 C   0  0  0  0  0  0  0  0  0  0  0  0
   10.2570   -3.5000   24.1350 C   0  0  0  0  0  0  0  0  0  0  0  0
    8.3510   -1.5420   24.6110 C   0  0  0  0  0  0  0  0  0  0  0  0
   10.2760   -2.3270   23.4020 C   0  0  0  0  0  0  0  0  0  0  0  0
    6.1600    0.3870   20.1140 C   0  0  0  0  0  0  0  0  0  0  0  0
   11.5217    1.0079   23.5949 C   0  0  0  0  0  0  0  0  0  0  0  0
    5.9810    0.8330   18.8060 C   0  0  0  0  0  0  0  0  0  0  0  0
    9.2850   -3.7090   25.1090 C   0  0  0  0  0  0  0  0  0  0  0  0
    9.3300   -1.3350   23.6390 C   0  0  0  0  0  0  0  0  0  0  0  0
    7.2210   -0.4620   20.0350 C   0  0  0  0  0  0  0  0  0  0  0  0
    8.9510    0.1280   21.6880 C   0  0  0  0  0  0  0  0  0  0  0  0
    9.6855   -6.1678   25.4393 C   0  0  0  0  0  0  0  0  0  0  0  0
    8.0405   -7.2921   26.9999 C   0  0  0  0  0  0  0  0  0  0  0  0
   10.0220    1.0430   23.6570 C   0  0  0  0  0  0  0  0  0  0  0  0
    8.0810   -0.9750   21.0820 C   0  0  0  0  0  0  0  0  0  0  0  0
    9.4870   -7.1874   26.5510 C   0  0  0  0  0  0  0  0  0  0  0  0
    6.9440    0.2550   18.0100 N   0  0  0  0  0  0  0  0  0  0  0  0
    7.6830   -0.5170   18.7600 N   0  0  0  0  0  0  0  0  0  0  0  0
    9.2630   -4.8902   25.8410 N   0  0  0  0  0  0  0  0  0  0  0  0
    9.4200   -0.0840   22.9530 N   0  0  0  0  0  0  0  0  0  0  0  0
    9.1870    1.1500   21.0630 O   0  0  0  0  0  0  0  0  0  0  0  0
   10.1589   -6.4763   24.3506 O   0  0  0  0  0  0  0  0  0  0  0  0
   15.3932    0.9189   23.4337 H   0  0  0  0  0  0  0  0  0  0  0  0
    3.6362    2.0028   21.6260 H   0  0  0  0  0  0  0  0  0  0  0  0
   14.2029   -0.2090   25.2955 H   0  0  0  0  0  0  0  0  0  0  0  0
   14.1048    2.1043   21.6752 H   0  0  0  0  0  0  0  0  0  0  0  0
    3.2801    2.7808   19.3164 H   0  0  0  0  0  0  0  0  0  0  0  0
    5.4892    0.4523   22.2166 H   0  0  0  0  0  0  0  0  0  0  0  0
   11.7330   -0.1555   25.4027 H   0  0  0  0  0  0  0  0  0  0  0  0
   11.6349    2.1636   21.7735 H   0  0  0  0  0  0  0  0  0  0  0  0
    4.7762    2.0781   17.4596 H   0  0  0  0  0  0  0  0  0  0  0  0
    7.5639   -2.8621   26.1045 H   0  0  0  0  0  0  0  0  0  0  0  0
   11.0141   -4.2644   23.9422 H   0  0  0  0  0  0  0  0  0  0  0  0
    7.5950   -0.7788   24.8007 H   0  0  0  0  0  0  0  0  0  0  0  0
   11.0408   -2.1861   22.6359 H   0  0  0  0  0  0  0  0  0  0  0  0
    7.6712   -6.3280   27.3648 H   0  0  0  0  0  0  0  0  0  0  0  0
    7.9444   -8.0232   27.8085 H   0  0  0  0  0  0  0  0  0  0  0  0
    7.3945   -7.6083   26.1743 H   0  0  0  0  0  0  0  0  0  0  0  0
    9.6778    1.0140   24.6966 H   0  0  0  0  0  0  0  0  0  0  0  0
    9.6316    1.9637   23.2107 H   0  0  0  0  0  0  0  0  0  0  0  0
    7.4898   -1.4163   21.8975 H   0  0  0  0  0  0  0  0  0  0  0  0
    8.7537   -1.7577   20.7019 H   0  0  0  0  0  0  0  0  0  0  0  0
    9.8297   -8.1645   26.1916 H   0  0  0  0  0  0  0  0  0  0  0  0
   10.1142   -6.8997   27.4026 H   0  0  0  0  0  0  0  0  0  0  0  0
    8.4371   -1.0264   18.3897 H   0  0  0  0  0  0  0  0  0  0  0  0
    8.8930   -4.8275   26.7966 H   0  0  0  0  0  0  0  0  0  0  0  0
  1  3  1  0  0  0  0
  1  4  2  0  0  0  0
  2  5  1  0  0  0  0
  2  6  2  0  0  0  0
  3  7  2  0  0  0  0
  4  8  1  0  0  0  0
  5  9  2  0  0  0  0
  6 14  1  0  0  0  0
  7 15  1  0  0  0  0
  8 15  2  0  0  0  0
  9 16  1  0  0  0  0
 10 12  2  0  0  0  0
 10 17  1  0  0  0  0
 11 13  1  0  0  0  0
 11 17  2  0  0  0  0
 12 18  1  0  0  0  0
 13 18  2  0  0  0  0
 14 16  1  0  0  0  0
 14 19  2  0  0  0  0
 15 23  1  0  0  0  0
 16 26  2  0  0  0  0
 17 28  1  0  0  0  0
 18 29  1  0  0  0  0
 19 24  1  0  0  0  0
 19 27  1  0  0  0  0
 20 24  1  0  0  0  0
 20 29  1  0  0  0  0
 20 30  2  0  0  0  0
 21 25  1  0  0  0  0
 21 28  1  0  0  0  0
 21 31  2  0  0  0  0
 22 25  1  0  0  0  0
 23 29  1  0  0  0  0
 26 27  1  0  0  0  0
  1 32  1  0  0  0  0
  2 33  1  0  0  0  0
  3 34  1  0  0  0  0
  4 35  1  0  0  0  0
  5 36  1  0  0  0  0
  6 37  1  0  0  0  0
  7 38  1  0  0  0  0
  8 39  1  0  0  0  0
  9 40  1  0  0  0  0
 10 41  1  0  0  0  0
 11 42  1  0  0  0  0
 12 43  1  0  0  0  0
 13 44  1  0  0  0  0
 22 45  1  0  0  0  0
 22 46  1  0  0  0  0
 22 47  1  0  0  0  0
 23 48  1  0  0  0  0
 23 49  1  0  0  0  0
 24 50  1  0  0  0  0
 24 51  1  0  0  0  0
 25 52  1  0  0  0  0
 25 53  1  0  0  0  0
 27 54  1  0  0  0  0
 28 55  1  0  0  0  0
M  END
> <clash_score>
1.3340772449480107

> <docking_score>
-6.280999183654785

> <overlap_score>
0.9871352910995483

$$$$
BENZO_396_1
  -OEChem-08222022423D

 52 55  0     0  0  0  0  0  0999 V2000
    4.2970    1.6690   20.8430 C   0  0  0  0  0  0  0  0  0  0  0  0
    4.0980    2.1130   19.5350 C   0  0  0  0  0  0  0  0  0  0  0  0
    5.3360    0.8000   21.1530 C   0  0  0  0  0  0  0  0  0  0  0  0
    4.9400    1.7060   18.5060 C   0  0  0  0  0  0  0  0  0  0  0  0
    8.3310   -2.7170   25.3430 C   0  0  0  0  0  0  0  0  0  0  0  0
   10.2570   -3.5000   24.1350 C   0  0  0  0  0  0  0  0  0  0  0  0
    8.3510   -1.5420   24.6110 C   0  0  0  0  0  0  0  0  0  0  0  0
   10.2760   -2.3270   23.4020 C   0  0  0  0  0  0  0  0  0  0  0  0
   12.2675    1.0332   22.3812 C   0  0  0  0  0  0  0  0  0  0  0  0
   13.6257    0.9906   22.6074 C   0  0  0  0  0  0  0  0  0  0  0  0
   12.3384    0.9467   24.7028 C   0  0  0  0  0  0  0  0  0  0  0  0
    6.1600    0.3870   20.1140 C   0  0  0  0  0  0  0  0  0  0  0  0
   11.5217    1.0079   23.5949 C   0  0  0  0  0  0  0  0  0  0  0  0
    5.9810    0.8330   18.8060 C   0  0  0  0  0  0  0  0  0  0  0  0
    9.2850   -3.7090   25.1090 C   0  0  0  0  0  0  0  0  0  0  0  0
    9.3300   -1.3350   23.6390 C   0  0  0  0  0  0  0  0  0  0  0  0
    7.2210   -0.4620   20.0350 C   0  0  0  0  0  0  0  0  0  0  0  0
    8.9510    0.1280   21.6880 C   0  0  0  0  0  0  0  0  0  0  0  0
    9.6855   -6.1678   25.4393 C   0  0  0  0  0  0  0  0  0  0  0  0
    8.0405   -7.2921   26.9999 C   0  0  0  0  0  0  0  0  0  0  0  0
   10.0220    1.0430   23.6570 C   0  0  0  0  0  0  0  0  0  0  0  0
    8.0810   -0.9750   21.0820 C   0  0  0  0  0  0  0  0  0  0  0  0
    9.4870   -7.1874   26.5510 C   0  0  0  0  0  0  0  0  0  0  0  0
    6.9440    0.2550   18.0100 N   0  0  0  0  0  0  0  0  0  0  0  0
    7.6830   -0.5170   18.7600 N   0  0  0  0  0  0  0  0  0  0  0  0
    9.2630   -4.8902   25.8410 N   0  0  0  0  0  0  0  0  0  0  0  0
    9.4200   -0.0840   22.9530 N   0  0  0  0  0  0  0  0  0  0  0  0
    9.1870    1.1500   21.0630 O   0  0  0  0  0  0  0  0  0  0  0  0
   10.1589   -6.4763   24.3506 O   0  0  0  0  0  0  0  0  0  0  0  0
   13.9969    0.9202   24.2776 S   0  0  0  0  0  0  0  0  0  0  0  0
    3.6362    2.0028   21.6260 H   0  0  0  0  0  0  0  0  0  0  0  0
    3.2801    2.7808   19.3164 H   0  0  0  0  0  0  0  0  0  0  0  0
    5.4892    0.4523   22.2166 H   0  0  0  0  0  0  0  0  0  0  0  0
    4.7762    2.0781   17.4596 H   0  0  0  0  0  0  0  0  0  0  0  0
    7.5639   -2.8621   26.1045 H   0  0  0  0  0  0  0  0  0  0  0  0
   11.0141   -4.2644   23.9422 H   0  0  0  0  0  0  0  0  0  0  0  0
    7.5950   -0.7788   24.8007 H   0  0  0  0  0  0  0  0  0  0  0  0
   11.0408   -2.1861   22.6359 H   0  0  0  0  0  0  0  0  0  0  0  0
   11.8338    1.0798   21.3902 H   0  0  0  0  0  0  0  0  0  0  0  0
   14.4176    0.9966   21.8719 H   0  0  0  0  0  0  0  0  0  0  0  0
   12.0446    0.9149   25.7428 H   0  0  0  0  0  0  0  0  0  0  0  0
    7.6712   -6.3280   27.3648 H   0  0  0  0  0  0  0  0  0  0  0  0
    7.9444   -8.0232   27.8085 H   0  0  0  0  0  0  0  0  0  0  0  0
    7.3945   -7.6083   26.1743 H   0  0  0  0  0  0  0  0  0  0  0  0
    9.6778    1.0140   24.6966 H   0  0  0  0  0  0  0  0  0  0  0  0
    9.6316    1.9637   23.2107 H   0  0  0  0  0  0  0  0  0  0  0  0
    7.4898   -1.4163   21.8975 H   0  0  0  0  0  0  0  0  0  0  0  0
    8.7537   -1.7577   20.7019 H   0  0  0  0  0  0  0  0  0  0  0  0
    9.8297   -8.1645   26.1916 H   0  0  0  0  0  0  0  0  0  0  0  0
   10.1142   -6.8997   27.4026 H   0  0  0  0  0  0  0  0  0  0  0  0
    8.4371   -1.0264   18.3897 H   0  0  0  0  0  0  0  0  0  0  0  0
    8.8930   -4.8275   26.7966 H   0  0  0  0  0  0  0  0  0  0  0  0
  1  2  1  0  0  0  0
  1  3  2  0  0  0  0
  2  4  2  0  0  0  0
  3 12  1  0  0  0  0
  4 14  1  0  0  0  0
  5  7  2  0  0  0  0
  5 15  1  0  0  0  0
  6  8  1  0  0  0  0
  6 15  2  0  0  0  0
  7 16  1  0  0  0  0
  8 16  2  0  0  0  0
  9 10  2  0  0  0  0
  9 13  1  0  0  0  0
 10 30  1  0  0  0  0
 11 13  2  0  0  0  0
 11 30  1  0  0  0  0
 12 14  1  0  0  0  0
 12 17  2  0  0  0  0
 13 21  1  0  0  0  0
 14 24  2  0  0  0  0
 15 26  1  0  0  0  0
 16 27  1  0  0  0  0
 17 22  1  0  0  0  0
 17 25  1  0  0  0  0
 18 22  1  0  0  0  0
 18 27  1  0  0  0  0
 18 28  2  0  0  0  0
 19 23  1  0  0  0  0
 19 26  1  0  0  0  0
 19 29  2  0  0  0  0
 20 23  1  0  0  0  0
 21 27  1  0  0  0  0
 24 25  1  0  0  0  0
  1 31  1  0  0  0  0
  2 32  1  0  0  0  0
  3 33  1  0  0  0  0
  4 34  1  0  0  0  0
  5 35  1  0  0  0  0
  6 36  1  0  0  0  0
  7 37  1  0  0  0  0
  8 38  1  0  0  0  0
  9 39  1  0  0  0  0
 10 40  1  0  0  0  0
 11 41  1  0  0  0  0
 20 42  1  0  0  0  0
 20 43  1  0  0  0  0
 20 44  1  0  0  0  0
 21 45  1  0  0  0  0
 21 46  1  0  0  0  0
 22 47  1  0  0  0  0
 22 48  1  0  0  0  0
 23 49  1  0  0  0  0
 23 50  1  0  0  0  0
 25 51  1  0  0  0  0
 26 52  1  0  0  0  0
M  END
> <clash_score>
1.3340772449480107

> <docking_score>
-6.527205467224121

> <overlap_score>
0.9613626599311829

$$$$
BENZO_399_1
  -OEChem-08222022423D

 55 58  0     0  0  0  0  0  0999 V2000
    4.2970    1.6690   20.8430 C   0  0  0  0  0  0  0  0  0  0  0  0
    4.0980    2.1130   19.5350 C   0  0  0  0  0  0  0  0  0  0  0  0
    5.3360    0.8000   21.1530 C   0  0  0  0  0  0  0  0  0  0  0  0
    4.9400    1.7060   18.5060 C   0  0  0  0  0  0  0  0  0  0  0  0
    8.3310   -2.7170   25.3430 C   0  0  0  0  0  0  0  0  0  0  0  0
   10.2570   -3.5000   24.1350 C   0  0  0  0  0  0  0  0  0  0  0  0
    8.3510   -1.5420   24.6110 C   0  0  0  0  0  0  0  0  0  0  0  0
   10.2760   -2.3270   23.4020 C   0  0  0  0  0  0  0  0  0  0  0  0
   12.4295    0.9466   24.6692 C   0  0  0  0  0  0  0  0  0  0  0  0
   12.3161    1.0259   22.4747 C   0  0  0  0  0  0  0  0  0  0  0  0
    6.1600    0.3870   20.1140 C   0  0  0  0  0  0  0  0  0  0  0  0
   11.5217    1.0079   23.5949 C   0  0  0  0  0  0  0  0  0  0  0  0
    5.9810    0.8330   18.8060 C   0  0  0  0  0  0  0  0  0  0  0  0
    9.2850   -3.7090   25.1090 C   0  0  0  0  0  0  0  0  0  0  0  0
    9.3300   -1.3350   23.6390 C   0  0  0  0  0  0  0  0  0  0  0  0
    7.2210   -0.4620   20.0350 C   0  0  0  0  0  0  0  0  0  0  0  0
    8.9510    0.1280   21.6880 C   0  0  0  0  0  0  0  0  0  0  0  0
    9.6855   -6.1678   25.4393 C   0  0  0  0  0  0  0  0  0  0  0  0
    8.0405   -7.2921   26.9999 C   0  0  0  0  0  0  0  0  0  0  0  0
   14.7958    0.9722   22.1181 C   0  0  0  0  0  0  0  0  0  0  0  0
   10.0220    1.0430   23.6570 C   0  0  0  0  0  0  0  0  0  0  0  0
    8.0810   -0.9750   21.0820 C   0  0  0  0  0  0  0  0  0  0  0  0
    9.4870   -7.1874   26.5510 C   0  0  0  0  0  0  0  0  0  0  0  0
   13.7032    0.9267   24.2674 N   0  0  0  0  0  0  0  0  0  0  0  0
    6.9440    0.2550   18.0100 N   0  0  0  0  0  0  0  0  0  0  0  0
    7.6830   -0.5170   18.7600 N   0  0  0  0  0  0  0  0  0  0  0  0
   13.6014    0.9758   22.9283 N   0  0  0  0  0  0  0  0  0  0  0  0
    9.2630   -4.8902   25.8410 N   0  0  0  0  0  0  0  0  0  0  0  0
    9.4200   -0.0840   22.9530 N   0  0  0  0  0  0  0  0  0  0  0  0
    9.1870    1.1500   21.0630 O   0  0  0  0  0  0  0  0  0  0  0  0
   10.1589   -6.4763   24.3506 O   0  0  0  0  0  0  0  0  0  0  0  0
    3.6362    2.0028   21.6260 H   0  0  0  0  0  0  0  0  0  0  0  0
    3.2801    2.7808   19.3164 H   0  0  0  0  0  0  0  0  0  0  0  0
    5.4892    0.4523   22.2166 H   0  0  0  0  0  0  0  0  0  0  0  0
    4.7762    2.0781   17.4596 H   0  0  0  0  0  0  0  0  0  0  0  0
    7.5639   -2.8621   26.1045 H   0  0  0  0  0  0  0  0  0  0  0  0
   11.0141   -4.2644   23.9422 H   0  0  0  0  0  0  0  0  0  0  0  0
    7.5950   -0.7788   24.8007 H   0  0  0  0  0  0  0  0  0  0  0  0
   11.0408   -2.1861   22.6359 H   0  0  0  0  0  0  0  0  0  0  0  0
   12.2184    0.9145   25.7287 H   0  0  0  0  0  0  0  0  0  0  0  0
   12.0821    1.0677   21.4195 H   0  0  0  0  0  0  0  0  0  0  0  0
    7.6712   -6.3280   27.3648 H   0  0  0  0  0  0  0  0  0  0  0  0
    7.9444   -8.0232   27.8085 H   0  0  0  0  0  0  0  0  0  0  0  0
    7.3945   -7.6083   26.1743 H   0  0  0  0  0  0  0  0  0  0  0  0
   15.1026    2.0102   21.9649 H   0  0  0  0  0  0  0  0  0  0  0  0
   15.5825    0.4128   22.6318 H   0  0  0  0  0  0  0  0  0  0  0  0
   14.5811    0.4905   21.1600 H   0  0  0  0  0  0  0  0  0  0  0  0
    9.6778    1.0140   24.6966 H   0  0  0  0  0  0  0  0  0  0  0  0
    9.6316    1.9637   23.2107 H   0  0  0  0  0  0  0  0  0  0  0  0
    7.4898   -1.4163   21.8975 H   0  0  0  0  0  0  0  0  0  0  0  0
    8.7537   -1.7577   20.7019 H   0  0  0  0  0  0  0  0  0  0  0  0
    9.8297   -8.1645   26.1916 H   0  0  0  0  0  0  0  0  0  0  0  0
   10.1142   -6.8997   27.4026 H   0  0  0  0  0  0  0  0  0  0  0  0
    8.4371   -1.0264   18.3897 H   0  0  0  0  0  0  0  0  0  0  0  0
    8.8930   -4.8275   26.7966 H   0  0  0  0  0  0  0  0  0  0  0  0
  1  2  1  0  0  0  0
  1  3  2  0  0  0  0
  2  4  2  0  0  0  0
  3 11  1  0  0  0  0
  4 13  1  0  0  0  0
  5  7  2  0  0  0  0
  5 14  1  0  0  0  0
  6  8  1  0  0  0  0
  6 14  2  0  0  0  0
  7 15  1  0  0  0  0
  8 15  2  0  0  0  0
  9 12  1  0  0  0  0
  9 24  2  0  0  0  0
 10 12  2  0  0  0  0
 10 27  1  0  0  0  0
 11 13  1  0  0  0  0
 11 16  2  0  0  0  0
 12 21  1  0  0  0  0
 13 25  2  0  0  0  0
 14 28  1  0  0  0  0
 15 29  1  0  0  0  0
 16 22  1  0  0  0  0
 16 26  1  0  0  0  0
 17 22  1  0  0  0  0
 17 29  1  0  0  0  0
 17 30  2  0  0  0  0
 18 23  1  0  0  0  0
 18 28  1  0  0  0  0
 18 31  2  0  0  0  0
 19 23  1  0  0  0  0
 20 27  1  0  0  0  0
 21 29  1  0  0  0  0
 24 27  1  0  0  0  0
 25 26  1  0  0  0  0
  1 32  1  0  0  0  0
  2 33  1  0  0  0  0
  3 34  1  0  0  0  0
  4 35  1  0  0  0  0
  5 36  1  0  0  0  0
  6 37  1  0  0  0  0
  7 38  1  0  0  0  0
  8 39  1  0  0  0  0
  9 40  1  0  0  0  0
 10 41  1  0  0  0  0
 19 42  1  0  0  0  0
 19 43  1  0  0  0  0
 19 44  1  0  0  0  0
 20 45  1  0  0  0  0
 20 46  1  0  0  0  0
 20 47  1  0  0  0  0
 21 48  1  0  0  0  0
 21 49  1  0  0  0  0
 22 50  1  0  0  0  0
 22 51  1  0  0  0  0
 23 52  1  0  0  0  0
 23 53  1  0  0  0  0
 26 54  1  0  0  0  0
 28 55  1  0  0  0  0
M  END
> <clash_score>
1.3340772449480107

> <docking_score>
-6.22304630279541

> <overlap_score>
0.9779788851737976

$$$$
BENZO_398_1
  -OEChem-08222022423D

 55 58  0     0  0  0  0  0  0999 V2000
    4.2970    1.6690   20.8430 C   0  0  0  0  0  0  0  0  0  0  0  0
    4.0980    2.1130   19.5350 C   0  0  0  0  0  0  0  0  0  0  0  0
   13.5977    1.8457   22.6865 C   0  0  0  0  0  0  0  0  0  0  0  0
    5.3360    0.8000   21.1530 C   0  0  0  0  0  0  0  0  0  0  0  0
   12.2044    1.8769   22.7438 C   0  0  0  0  0  0  0  0  0  0  0  0
    4.9400    1.7060   18.5060 C   0  0  0  0  0  0  0  0  0  0  0  0
    8.3310   -2.7170   25.3430 C   0  0  0  0  0  0  0  0  0  0  0  0
   10.2570   -3.5000   24.1350 C   0  0  0  0  0  0  0  0  0  0  0  0
    8.3510   -1.5420   24.6110 C   0  0  0  0  0  0  0  0  0  0  0  0
   10.2760   -2.3270   23.4020 C   0  0  0  0  0  0  0  0  0  0  0  0
   14.3084    0.9453   23.4803 C   0  0  0  0  0  0  0  0  0  0  0  0
   12.2323    0.1076   24.3888 C   0  0  0  0  0  0  0  0  0  0  0  0
    6.1600    0.3870   20.1140 C   0  0  0  0  0  0  0  0  0  0  0  0
   11.5217    1.0079   23.5949 C   0  0  0  0  0  0  0  0  0  0  0  0
    5.9810    0.8330   18.8060 C   0  0  0  0  0  0  0  0  0  0  0  0
    9.2850   -3.7090   25.1090 C   0  0  0  0  0  0  0  0  0  0  0  0
    9.3300   -1.3350   23.6390 C   0  0  0  0  0  0  0  0  0  0  0  0
   13.6257    0.0764   24.3314 C   0  0  0  0  0  0  0  0  0  0  0  0
    7.2210   -0.4620   20.0350 C   0  0  0  0  0  0  0  0  0  0  0  0
    8.9510    0.1280   21.6880 C   0  0  0  0  0  0  0  0  0  0  0  0
    9.6855   -6.1678   25.4393 C   0  0  0  0  0  0  0  0  0  0  0  0
    8.0405   -7.2921   26.9999 C   0  0  0  0  0  0  0  0  0  0  0  0
   10.0220    1.0430   23.6570 C   0  0  0  0  0  0  0  0  0  0  0  0
    8.0810   -0.9750   21.0820 C   0  0  0  0  0  0  0  0  0  0  0  0
    9.4870   -7.1874   26.5510 C   0  0  0  0  0  0  0  0  0  0  0  0
    6.9440    0.2550   18.0100 N   0  0  0  0  0  0  0  0  0  0  0  0
    7.6830   -0.5170   18.7600 N   0  0  0  0  0  0  0  0  0  0  0  0
    9.2630   -4.8902   25.8410 N   0  0  0  0  0  0  0  0  0  0  0  0
    9.4200   -0.0840   22.9530 N   0  0  0  0  0  0  0  0  0  0  0  0
    9.1870    1.1500   21.0630 O   0  0  0  0  0  0  0  0  0  0  0  0
   10.1589   -6.4763   24.3506 O   0  0  0  0  0  0  0  0  0  0  0  0
   14.5031   -1.0334   25.3114 Cl  0  0  0  0  0  0  0  0  0  0  0  0
    3.6362    2.0028   21.6260 H   0  0  0  0  0  0  0  0  0  0  0  0
    3.2801    2.7808   19.3164 H   0  0  0  0  0  0  0  0  0  0  0  0
   14.1289    2.5226   22.0237 H   0  0  0  0  0  0  0  0  0  0  0  0
    5.4892    0.4523   22.2166 H   0  0  0  0  0  0  0  0  0  0  0  0
   11.6588    2.5818   22.1218 H   0  0  0  0  0  0  0  0  0  0  0  0
    4.7762    2.0781   17.4596 H   0  0  0  0  0  0  0  0  0  0  0  0
    7.5639   -2.8621   26.1045 H   0  0  0  0  0  0  0  0  0  0  0  0
   11.0141   -4.2644   23.9422 H   0  0  0  0  0  0  0  0  0  0  0  0
    7.5950   -0.7788   24.8007 H   0  0  0  0  0  0  0  0  0  0  0  0
   11.0408   -2.1861   22.6359 H   0  0  0  0  0  0  0  0  0  0  0  0
   15.3941    0.9323   23.4255 H   0  0  0  0  0  0  0  0  0  0  0  0
   11.6954   -0.5682   25.0504 H   0  0  0  0  0  0  0  0  0  0  0  0
    7.6712   -6.3280   27.3648 H   0  0  0  0  0  0  0  0  0  0  0  0
    7.9444   -8.0232   27.8085 H   0  0  0  0  0  0  0  0  0  0  0  0
    7.3945   -7.6083   26.1743 H   0  0  0  0  0  0  0  0  0  0  0  0
    9.6778    1.0140   24.6966 H   0  0  0  0  0  0  0  0  0  0  0  0
    9.6316    1.9637   23.2107 H   0  0  0  0  0  0  0  0  0  0  0  0
    7.4898   -1.4163   21.8975 H   0  0  0  0  0  0  0  0  0  0  0  0
    8.7537   -1.7577   20.7019 H   0  0  0  0  0  0  0  0  0  0  0  0
    9.8297   -8.1645   26.1916 H   0  0  0  0  0  0  0  0  0  0  0  0
   10.1142   -6.8997   27.4026 H   0  0  0  0  0  0  0  0  0  0  0  0
    8.4371   -1.0264   18.3897 H   0  0  0  0  0  0  0  0  0  0  0  0
    8.8930   -4.8275   26.7966 H   0  0  0  0  0  0  0  0  0  0  0  0
  1  2  1  0  0  0  0
  1  4  2  0  0  0  0
  2  6  2  0  0  0  0
  3  5  2  0  0  0  0
  3 11  1  0  0  0  0
  4 13  1  0  0  0  0
  5 14  1  0  0  0  0
  6 15  1  0  0  0  0
  7  9  2  0  0  0  0
  7 16  1  0  0  0  0
  8 10  1  0  0  0  0
  8 16  2  0  0  0  0
  9 17  1  0  0  0  0
 10 17  2  0  0  0  0
 11 18  2  0  0  0  0
 12 14  2  0  0  0  0
 12 18  1  0  0  0  0
 13 15  1  0  0  0  0
 13 19  2  0  0  0  0
 14 23  1  0  0  0  0
 15 26  2  0  0  0  0
 16 28  1  0  0  0  0
 17 29  1  0  0  0  0
 18 32  1  0  0  0  0
 19 24  1  0  0  0  0
 19 27  1  0  0  0  0
 20 24  1  0  0  0  0
 20 29  1  0  0  0  0
 20 30  2  0  0  0  0
 21 25  1  0  0  0  0
 21 28  1  0  0  0  0
 21 31  2  0  0  0  0
 22 25  1  0  0  0  0
 23 29  1  0  0  0  0
 26 27  1  0  0  0  0
  1 33  1  0  0  0  0
  2 34  1  0  0  0  0
  3 35  1  0  0  0  0
  4 36  1  0  0  0  0
  5 37  1  0  0  0  0
  6 38  1  0  0  0  0
  7 39  1  0  0  0  0
  8 40  1  0  0  0  0
  9 41  1  0  0  0  0
 10 42  1  0  0  0  0
 11 43  1  0  0  0  0
 12 44  1  0  0  0  0
 22 45  1  0  0  0  0
 22 46  1  0  0  0  0
 22 47  1  0  0  0  0
 23 48  1  0  0  0  0
 23 49  1  0  0  0  0
 24 50  1  0  0  0  0
 24 51  1  0  0  0  0
 25 52  1  0  0  0  0
 25 53  1  0  0  0  0
 27 54  1  0  0  0  0
 28 55  1  0  0  0  0
M  END
> <clash_score>
2.100325088756484

> <docking_score>
-5.462896823883057

> <overlap_score>
0.9923454523086548

$$$$
BENZO_401_1
  -OEChem-08222022423D

 60 64  0     0  0  0  0  0  0999 V2000
   14.3082    0.9431   23.4783 C   0  0  0  0  0  0  0  0  0  0  0  0
    4.2970    1.6690   20.8430 C   0  0  0  0  0  0  0  0  0  0  0  0
   13.6391    0.3091   24.5251 C   0  0  0  0  0  0  0  0  0  0  0  0
   13.5841    1.6096   22.4898 C   0  0  0  0  0  0  0  0  0  0  0  0
    4.0980    2.1130   19.5350 C   0  0  0  0  0  0  0  0  0  0  0  0
    5.3360    0.8000   21.1530 C   0  0  0  0  0  0  0  0  0  0  0  0
   12.2459    0.3415   24.5835 C   0  0  0  0  0  0  0  0  0  0  0  0
   12.1908    1.6420   22.5481 C   0  0  0  0  0  0  0  0  0  0  0  0
    4.9400    1.7060   18.5060 C   0  0  0  0  0  0  0  0  0  0  0  0
    8.3310   -2.7170   25.3430 C   0  0  0  0  0  0  0  0  0  0  0  0
   10.2570   -3.5000   24.1350 C   0  0  0  0  0  0  0  0  0  0  0  0
    8.3510   -1.5420   24.6110 C   0  0  0  0  0  0  0  0  0  0  0  0
   10.2760   -2.3270   23.4020 C   0  0  0  0  0  0  0  0  0  0  0  0
    6.1600    0.3870   20.1140 C   0  0  0  0  0  0  0  0  0  0  0  0
   11.5217    1.0079   23.5949 C   0  0  0  0  0  0  0  0  0  0  0  0
    5.9810    0.8330   18.8060 C   0  0  0  0  0  0  0  0  0  0  0  0
    9.2850   -3.7090   25.1090 C   0  0  0  0  0  0  0  0  0  0  0  0
    9.3300   -1.3350   23.6390 C   0  0  0  0  0  0  0  0  0  0  0  0
    7.2210   -0.4620   20.0350 C   0  0  0  0  0  0  0  0  0  0  0  0
    8.9510    0.1280   21.6880 C   0  0  0  0  0  0  0  0  0  0  0  0
    7.3162   -6.8835   26.5210 C   0  0  0  0  0  0  0  0  0  0  0  0
    7.3507   -5.5245   27.2240 C   0  0  0  0  0  0  0  0  0  0  0  0
    7.9375   -6.8069   25.1245 C   0  0  0  0  0  0  0  0  0  0  0  0
    8.7638   -4.9418   27.2163 C   0  0  0  0  0  0  0  0  0  0  0  0
    9.3378   -6.1874   25.1659 C   0  0  0  0  0  0  0  0  0  0  0  0
   10.0220    1.0430   23.6570 C   0  0  0  0  0  0  0  0  0  0  0  0
    8.0810   -0.9750   21.0820 C   0  0  0  0  0  0  0  0  0  0  0  0
    6.9440    0.2550   18.0100 N   0  0  0  0  0  0  0  0  0  0  0  0
    7.6830   -0.5170   18.7600 N   0  0  0  0  0  0  0  0  0  0  0  0
    9.2639   -4.8860   25.8399 N   0  0  0  0  0  0  0  0  0  0  0  0
    9.4200   -0.0840   22.9530 N   0  0  0  0  0  0  0  0  0  0  0  0
    9.1870    1.1500   21.0630 O   0  0  0  0  0  0  0  0  0  0  0  0
   15.3932    0.9189   23.4337 H   0  0  0  0  0  0  0  0  0  0  0  0
    3.6362    2.0028   21.6260 H   0  0  0  0  0  0  0  0  0  0  0  0
   14.2029   -0.2090   25.2955 H   0  0  0  0  0  0  0  0  0  0  0  0
   14.1048    2.1043   21.6752 H   0  0  0  0  0  0  0  0  0  0  0  0
    3.2801    2.7808   19.3164 H   0  0  0  0  0  0  0  0  0  0  0  0
    5.4892    0.4523   22.2166 H   0  0  0  0  0  0  0  0  0  0  0  0
   11.7330   -0.1555   25.4027 H   0  0  0  0  0  0  0  0  0  0  0  0
   11.6349    2.1636   21.7735 H   0  0  0  0  0  0  0  0  0  0  0  0
    4.7762    2.0781   17.4596 H   0  0  0  0  0  0  0  0  0  0  0  0
    7.5647   -2.8621   26.1053 H   0  0  0  0  0  0  0  0  0  0  0  0
   11.0144   -4.2642   23.9425 H   0  0  0  0  0  0  0  0  0  0  0  0
    7.5958   -0.7779   24.8006 H   0  0  0  0  0  0  0  0  0  0  0  0
   11.0406   -2.1848   22.6356 H   0  0  0  0  0  0  0  0  0  0  0  0
    7.8578   -7.6261   27.1266 H   0  0  0  0  0  0  0  0  0  0  0  0
    6.2773   -7.2358   26.4459 H   0  0  0  0  0  0  0  0  0  0  0  0
    6.6663   -4.8351   26.7223 H   0  0  0  0  0  0  0  0  0  0  0  0
    7.0044   -5.6368   28.2534 H   0  0  0  0  0  0  0  0  0  0  0  0
    7.9946   -7.8119   24.6937 H   0  0  0  0  0  0  0  0  0  0  0  0
    7.2929   -6.2123   24.4668 H   0  0  0  0  0  0  0  0  0  0  0  0
    8.7343   -3.9408   27.6542 H   0  0  0  0  0  0  0  0  0  0  0  0
    9.4243   -5.5632   27.8278 H   0  0  0  0  0  0  0  0  0  0  0  0
   10.0200   -6.8490   25.7011 H   0  0  0  0  0  0  0  0  0  0  0  0
    9.6984   -6.0694   24.1436 H   0  0  0  0  0  0  0  0  0  0  0  0
    9.6778    1.0140   24.6966 H   0  0  0  0  0  0  0  0  0  0  0  0
    9.6316    1.9637   23.2107 H   0  0  0  0  0  0  0  0  0  0  0  0
    7.4781   -1.4136   21.8845 H   0  0  0  0  0  0  0  0  0  0  0  0
    8.7420   -1.7550   20.6889 H   0  0  0  0  0  0  0  0  0  0  0  0
    8.4371   -1.0264   18.3897 H   0  0  0  0  0  0  0  0  0  0  0  0
  1  3  1  0  0  0  0
  1  4  2  0  0  0  0
  2  5  1  0  0  0  0
  2  6  2  0  0  0  0
  3  7  2  0  0  0  0
  4  8  1  0  0  0  0
  5  9  2  0  0  0  0
  6 14  1  0  0  0  0
  7 15  1  0  0  0  0
  8 15  2  0  0  0  0
  9 16  1  0  0  0  0
 10 12  2  0  0  0  0
 10 17  1  0  0  0  0
 11 13  1  0  0  0  0
 11 17  2  0  0  0  0
 12 18  1  0  0  0  0
 13 18  2  0  0  0  0
 14 16  1  0  0  0  0
 14 19  2  0  0  0  0
 15 26  1  0  0  0  0
 16 28  2  0  0  0  0
 17 30  1  0  0  0  0
 18 31  1  0  0  0  0
 19 27  1  0  0  0  0
 19 29  1  0  0  0  0
 20 27  1  0  0  0  0
 20 31  1  0  0  0  0
 20 32  2  0  0  0  0
 21 22  1  0  0  0  0
 21 23  1  0  0  0  0
 22 24  1  0  0  0  0
 23 25  1  0  0  0  0
 24 30  1  0  0  0  0
 25 30  1  0  0  0  0
 26 31  1  0  0  0  0
 28 29  1  0  0  0  0
  1 33  1  0  0  0  0
  2 34  1  0  0  0  0
  3 35  1  0  0  0  0
  4 36  1  0  0  0  0
  5 37  1  0  0  0  0
  6 38  1  0  0  0  0
  7 39  1  0  0  0  0
  8 40  1  0  0  0  0
  9 41  1  0  0  0  0
 10 42  1  0  0  0  0
 11 43  1  0  0  0  0
 12 44  1  0  0  0  0
 13 45  1  0  0  0  0
 21 46  1  0  0  0  0
 21 47  1  0  0  0  0
 22 48  1  0  0  0  0
 22 49  1  0  0  0  0
 23 50  1  0  0  0  0
 23 51  1  0  0  0  0
 24 52  1  0  0  0  0
 24 53  1  0  0  0  0
 25 54  1  0  0  0  0
 25 55  1  0  0  0  0
 26 56  1  0  0  0  0
 26 57  1  0  0  0  0
 27 58  1  0  0  0  0
 27 59  1  0  0  0  0
 29 60  1  0  0  0  0
M  END
> <clash_score>
0

> <docking_score>
-8.513772964477539

> <overlap_score>
1.015582799911499

$$$$
BENZO_400_1
  -OEChem-08222022423D

 57 61  0     0  0  0  0  0  0999 V2000
    4.2970    1.6690   20.8430 C   0  0  0  0  0  0  0  0  0  0  0  0
    4.0980    2.1130   19.5350 C   0  0  0  0  0  0  0  0  0  0  0  0
    5.3360    0.8000   21.1530 C   0  0  0  0  0  0  0  0  0  0  0  0
    4.9400    1.7060   18.5060 C   0  0  0  0  0  0  0  0  0  0  0  0
    8.3310   -2.7170   25.3430 C   0  0  0  0  0  0  0  0  0  0  0  0
   10.2570   -3.5000   24.1350 C   0  0  0  0  0  0  0  0  0  0  0  0
    8.3510   -1.5420   24.6110 C   0  0  0  0  0  0  0  0  0  0  0  0
   10.2760   -2.3270   23.4020 C   0  0  0  0  0  0  0  0  0  0  0  0
   12.2675    1.0332   22.3812 C   0  0  0  0  0  0  0  0  0  0  0  0
   13.6257    0.9906   22.6074 C   0  0  0  0  0  0  0  0  0  0  0  0
   12.3384    0.9467   24.7028 C   0  0  0  0  0  0  0  0  0  0  0  0
    6.1600    0.3870   20.1140 C   0  0  0  0  0  0  0  0  0  0  0  0
   11.5217    1.0079   23.5949 C   0  0  0  0  0  0  0  0  0  0  0  0
    5.9810    0.8330   18.8060 C   0  0  0  0  0  0  0  0  0  0  0  0
    9.2850   -3.7090   25.1090 C   0  0  0  0  0  0  0  0  0  0  0  0
    9.3300   -1.3350   23.6390 C   0  0  0  0  0  0  0  0  0  0  0  0
    7.2210   -0.4620   20.0350 C   0  0  0  0  0  0  0  0  0  0  0  0
    8.9510    0.1280   21.6880 C   0  0  0  0  0  0  0  0  0  0  0  0
    7.3162   -6.8835   26.5210 C   0  0  0  0  0  0  0  0  0  0  0  0
    7.3507   -5.5245   27.2240 C   0  0  0  0  0  0  0  0  0  0  0  0
    7.9375   -6.8069   25.1245 C   0  0  0  0  0  0  0  0  0  0  0  0
    8.7638   -4.9418   27.2163 C   0  0  0  0  0  0  0  0  0  0  0  0
    9.3378   -6.1874   25.1659 C   0  0  0  0  0  0  0  0  0  0  0  0
   10.0220    1.0430   23.6570 C   0  0  0  0  0  0  0  0  0  0  0  0
    8.0810   -0.9750   21.0820 C   0  0  0  0  0  0  0  0  0  0  0  0
    6.9440    0.2550   18.0100 N   0  0  0  0  0  0  0  0  0  0  0  0
    7.6830   -0.5170   18.7600 N   0  0  0  0  0  0  0  0  0  0  0  0
    9.2639   -4.8860   25.8399 N   0  0  0  0  0  0  0  0  0  0  0  0
    9.4200   -0.0840   22.9530 N   0  0  0  0  0  0  0  0  0  0  0  0
    9.1870    1.1500   21.0630 O   0  0  0  0  0  0  0  0  0  0  0  0
   13.9969    0.9203   24.2776 S   0  0  0  0  0  0  0  0  0  0  0  0
    3.6362    2.0028   21.6260 H   0  0  0  0  0  0  0  0  0  0  0  0
    3.2801    2.7808   19.3164 H   0  0  0  0  0  0  0  0  0  0  0  0
    5.4892    0.4523   22.2166 H   0  0  0  0  0  0  0  0  0  0  0  0
    4.7762    2.0781   17.4596 H   0  0  0  0  0  0  0  0  0  0  0  0
    7.5647   -2.8621   26.1053 H   0  0  0  0  0  0  0  0  0  0  0  0
   11.0144   -4.2642   23.9425 H   0  0  0  0  0  0  0  0  0  0  0  0
    7.5958   -0.7779   24.8006 H   0  0  0  0  0  0  0  0  0  0  0  0
   11.0406   -2.1848   22.6356 H   0  0  0  0  0  0  0  0  0  0  0  0
   11.8339    1.0799   21.3902 H   0  0  0  0  0  0  0  0  0  0  0  0
   14.4176    0.9966   21.8719 H   0  0  0  0  0  0  0  0  0  0  0  0
   12.0446    0.9149   25.7428 H   0  0  0  0  0  0  0  0  0  0  0  0
    7.8578   -7.6261   27.1266 H   0  0  0  0  0  0  0  0  0  0  0  0
    6.2773   -7.2358   26.4459 H   0  0  0  0  0  0  0  0  0  0  0  0
    6.6663   -4.8351   26.7223 H   0  0  0  0  0  0  0  0  0  0  0  0
    7.0044   -5.6368   28.2534 H   0  0  0  0  0  0  0  0  0  0  0  0
    7.9946   -7.8119   24.6937 H   0  0  0  0  0  0  0  0  0  0  0  0
    7.2929   -6.2123   24.4668 H   0  0  0  0  0  0  0  0  0  0  0  0
    8.7343   -3.9408   27.6542 H   0  0  0  0  0  0  0  0  0  0  0  0
    9.4243   -5.5632   27.8278 H   0  0  0  0  0  0  0  0  0  0  0  0
   10.0200   -6.8490   25.7011 H   0  0  0  0  0  0  0  0  0  0  0  0
    9.6984   -6.0694   24.1436 H   0  0  0  0  0  0  0  0  0  0  0  0
    9.6778    1.0140   24.6966 H   0  0  0  0  0  0  0  0  0  0  0  0
    9.6316    1.9637   23.2107 H   0  0  0  0  0  0  0  0  0  0  0  0
    7.4781   -1.4136   21.8845 H   0  0  0  0  0  0  0  0  0  0  0  0
    8.7420   -1.7550   20.6889 H   0  0  0  0  0  0  0  0  0  0  0  0
    8.4371   -1.0264   18.3897 H   0  0  0  0  0  0  0  0  0  0  0  0
  1  2  1  0  0  0  0
  1  3  2  0  0  0  0
  2  4  2  0  0  0  0
  3 12  1  0  0  0  0
  4 14  1  0  0  0  0
  5  7  2  0  0  0  0
  5 15  1  0  0  0  0
  6  8  1  0  0  0  0
  6 15  2  0  0  0  0
  7 16  1  0  0  0  0
  8 16  2  0  0  0  0
  9 10  2  0  0  0  0
  9 13  1  0  0  0  0
 10 31  1  0  0  0  0
 11 13  2  0  0  0  0
 11 31  1  0  0  0  0
 12 14  1  0  0  0  0
 12 17  2  0  0  0  0
 13 24  1  0  0  0  0
 14 26  2  0  0  0  0
 15 28  1  0  0  0  0
 16 29  1  0  0  0  0
 17 25  1  0  0  0  0
 17 27  1  0  0  0  0
 18 25  1  0  0  0  0
 18 29  1  0  0  0  0
 18 30  2  0  0  0  0
 19 20  1  0  0  0  0
 19 21  1  0  0  0  0
 20 22  1  0  0  0  0
 21 23  1  0  0  0  0
 22 28  1  0  0  0  0
 23 28  1  0  0  0  0
 24 29  1  0  0  0  0
 26 27  1  0  0  0  0
  1 32  1  0  0  0  0
  2 33  1  0  0  0  0
  3 34  1  0  0  0  0
  4 35  1  0  0  0  0
  5 36  1  0  0  0  0
  6 37  1  0  0  0  0
  7 38  1  0  0  0  0
  8 39  1  0  0  0  0
  9 40  1  0  0  0  0
 10 41  1  0  0  0  0
 11 42  1  0  0  0  0
 19 43  1  0  0  0  0
 19 44  1  0  0  0  0
 20 45  1  0  0  0  0
 20 46  1  0  0  0  0
 21 47  1  0  0  0  0
 21 48  1  0  0  0  0
 22 49  1  0  0  0  0
 22 50  1  0  0  0  0
 23 51  1  0  0  0  0
 23 52  1  0  0  0  0
 24 53  1  0  0  0  0
 24 54  1  0  0  0  0
 25 55  1  0  0  0  0
 25 56  1  0  0  0  0
 27 57  1  0  0  0  0
M  END
> <clash_score>
0

> <docking_score>
-8.759988784790039

> <overlap_score>
0.9899338483810425

$$$$
BENZO_405_1
  -OEChem-08222022423D

 48 51  0     0  0  0  0  0  0999 V2000
   14.3082    0.9431   23.4783 C   0  0  0  0  0  0  0  0  0  0  0  0
    4.2970    1.6690   20.8430 C   0  0  0  0  0  0  0  0  0  0  0  0
   13.6391    0.3091   24.5251 C   0  0  0  0  0  0  0  0  0  0  0  0
   13.5841    1.6096   22.4898 C   0  0  0  0  0  0  0  0  0  0  0  0
    4.0980    2.1130   19.5350 C   0  0  0  0  0  0  0  0  0  0  0  0
    5.3360    0.8000   21.1530 C   0  0  0  0  0  0  0  0  0  0  0  0
   12.2459    0.3415   24.5835 C   0  0  0  0  0  0  0  0  0  0  0  0
   12.1908    1.6420   22.5481 C   0  0  0  0  0  0  0  0  0  0  0  0
    8.3310   -2.7170   25.3430 C   0  0  0  0  0  0  0  0  0  0  0  0
   10.2570   -3.5000   24.1350 C   0  0  0  0  0  0  0  0  0  0  0  0
    4.9400    1.7060   18.5060 C   0  0  0  0  0  0  0  0  0  0  0  0
    8.3510   -1.5420   24.6110 C   0  0  0  0  0  0  0  0  0  0  0  0
   10.2760   -2.3270   23.4020 C   0  0  0  0  0  0  0  0  0  0  0  0
    6.1600    0.3870   20.1140 C   0  0  0  0  0  0  0  0  0  0  0  0
    9.2850   -3.7090   25.1090 C   0  0  0  0  0  0  0  0  0  0  0  0
   11.5217    1.0079   23.5949 C   0  0  0  0  0  0  0  0  0  0  0  0
    5.9810    0.8330   18.8060 C   0  0  0  0  0  0  0  0  0  0  0  0
    9.3300   -1.3350   23.6390 C   0  0  0  0  0  0  0  0  0  0  0  0
    7.2210   -0.4620   20.0350 C   0  0  0  0  0  0  0  0  0  0  0  0
    8.9510    0.1280   21.6880 C   0  0  0  0  0  0  0  0  0  0  0  0
    9.2610   -4.9721   25.8916 C   0  0  0  0  0  0  0  0  0  0  0  0
   10.0220    1.0430   23.6570 C   0  0  0  0  0  0  0  0  0  0  0  0
    8.0810   -0.9750   21.0820 C   0  0  0  0  0  0  0  0  0  0  0  0
    6.9440    0.2550   18.0100 N   0  0  0  0  0  0  0  0  0  0  0  0
    7.6830   -0.5170   18.7600 N   0  0  0  0  0  0  0  0  0  0  0  0
    9.4200   -0.0840   22.9530 N   0  0  0  0  0  0  0  0  0  0  0  0
    9.1870    1.1500   21.0630 O   0  0  0  0  0  0  0  0  0  0  0  0
   15.3932    0.9189   23.4337 H   0  0  0  0  0  0  0  0  0  0  0  0
    3.6362    2.0028   21.6260 H   0  0  0  0  0  0  0  0  0  0  0  0
   14.2029   -0.2090   25.2955 H   0  0  0  0  0  0  0  0  0  0  0  0
   14.1048    2.1043   21.6752 H   0  0  0  0  0  0  0  0  0  0  0  0
    3.2801    2.7808   19.3164 H   0  0  0  0  0  0  0  0  0  0  0  0
    5.4892    0.4523   22.2166 H   0  0  0  0  0  0  0  0  0  0  0  0
   11.7330   -0.1555   25.4027 H   0  0  0  0  0  0  0  0  0  0  0  0
   11.6349    2.1636   21.7735 H   0  0  0  0  0  0  0  0  0  0  0  0
    7.5665   -2.8638   26.1066 H   0  0  0  0  0  0  0  0  0  0  0  0
   11.0137   -4.2652   23.9447 H   0  0  0  0  0  0  0  0  0  0  0  0
    4.7762    2.0781   17.4596 H   0  0  0  0  0  0  0  0  0  0  0  0
    7.5948   -0.7788   24.7997 H   0  0  0  0  0  0  0  0  0  0  0  0
   11.0411   -2.1856   22.6358 H   0  0  0  0  0  0  0  0  0  0  0  0
    8.6398   -5.7223   25.3871 H   0  0  0  0  0  0  0  0  0  0  0  0
   10.2715   -5.3829   26.0145 H   0  0  0  0  0  0  0  0  0  0  0  0
    8.8596   -4.8092   26.9004 H   0  0  0  0  0  0  0  0  0  0  0  0
    9.6778    1.0140   24.6966 H   0  0  0  0  0  0  0  0  0  0  0  0
    9.6316    1.9637   23.2107 H   0  0  0  0  0  0  0  0  0  0  0  0
    7.4898   -1.4163   21.8975 H   0  0  0  0  0  0  0  0  0  0  0  0
    8.7537   -1.7577   20.7019 H   0  0  0  0  0  0  0  0  0  0  0  0
    8.4371   -1.0264   18.3897 H   0  0  0  0  0  0  0  0  0  0  0  0
  1  3  1  0  0  0  0
  1  4  2  0  0  0  0
  2  5  1  0  0  0  0
  2  6  2  0  0  0  0
  3  7  2  0  0  0  0
  4  8  1  0  0  0  0
  5 11  2  0  0  0  0
  6 14  1  0  0  0  0
  7 16  1  0  0  0  0
  8 16  2  0  0  0  0
  9 12  2  0  0  0  0
  9 15  1  0  0  0  0
 10 13  1  0  0  0  0
 10 15  2  0  0  0  0
 11 17  1  0  0  0  0
 12 18  1  0  0  0  0
 13 18  2  0  0  0  0
 14 17  1  0  0  0  0
 14 19  2  0  0  0  0
 15 21  1  0  0  0  0
 16 22  1  0  0  0  0
 17 24  2  0  0  0  0
 18 26  1  0  0  0  0
 19 23  1  0  0  0  0
 19 25  1  0  0  0  0
 20 23  1  0  0  0  0
 20 26  1  0  0  0  0
 20 27  2  0  0  0  0
 22 26  1  0  0  0  0
 24 25  1  0  0  0  0
  1 28  1  0  0  0  0
  2 29  1  0  0  0  0
  3 30  1  0  0  0  0
  4 31  1  0  0  0  0
  5 32  1  0  0  0  0
  6 33  1  0  0  0  0
  7 34  1  0  0  0  0
  8 35  1  0  0  0  0
  9 36  1  0  0  0  0
 10 37  1  0  0  0  0
 11 38  1  0  0  0  0
 12 39  1  0  0  0  0
 13 40  1  0  0  0  0
 21 41  1  0  0  0  0
 21 42  1  0  0  0  0
 21 43  1  0  0  0  0
 22 44  1  0  0  0  0
 22 45  1  0  0  0  0
 23 46  1  0  0  0  0
 23 47  1  0  0  0  0
 25 48  1  0  0  0  0
M  END
> <clash_score>
0

> <docking_score>
-9.471435546875

> <overlap_score>
0.971771776676178

$$$$
BENZO_404_1
  -OEChem-08222022423D

 45 48  0     0  0  0  0  0  0999 V2000
    4.2970    1.6690   20.8430 C   0  0  0  0  0  0  0  0  0  0  0  0
    4.0980    2.1130   19.5350 C   0  0  0  0  0  0  0  0  0  0  0  0
    5.3360    0.8000   21.1530 C   0  0  0  0  0  0  0  0  0  0  0  0
    8.3310   -2.7170   25.3430 C   0  0  0  0  0  0  0  0  0  0  0  0
   10.2570   -3.5000   24.1350 C   0  0  0  0  0  0  0  0  0  0  0  0
    4.9400    1.7060   18.5060 C   0  0  0  0  0  0  0  0  0  0  0  0
    8.3510   -1.5420   24.6110 C   0  0  0  0  0  0  0  0  0  0  0  0
   10.2760   -2.3270   23.4020 C   0  0  0  0  0  0  0  0  0  0  0  0
   12.2675    1.0332   22.3812 C   0  0  0  0  0  0  0  0  0  0  0  0
   13.6257    0.9906   22.6074 C   0  0  0  0  0  0  0  0  0  0  0  0
   12.3384    0.9467   24.7028 C   0  0  0  0  0  0  0  0  0  0  0  0
    6.1600    0.3870   20.1140 C   0  0  0  0  0  0  0  0  0  0  0  0
    9.2850   -3.7090   25.1090 C   0  0  0  0  0  0  0  0  0  0  0  0
   11.5217    1.0079   23.5949 C   0  0  0  0  0  0  0  0  0  0  0  0
    5.9810    0.8330   18.8060 C   0  0  0  0  0  0  0  0  0  0  0  0
    9.3300   -1.3350   23.6390 C   0  0  0  0  0  0  0  0  0  0  0  0
    7.2210   -0.4620   20.0350 C   0  0  0  0  0  0  0  0  0  0  0  0
    8.9510    0.1280   21.6880 C   0  0  0  0  0  0  0  0  0  0  0  0
    9.2610   -4.9721   25.8916 C   0  0  0  0  0  0  0  0  0  0  0  0
   10.0220    1.0430   23.6570 C   0  0  0  0  0  0  0  0  0  0  0  0
    8.0810   -0.9750   21.0820 C   0  0  0  0  0  0  0  0  0  0  0  0
    6.9440    0.2550   18.0100 N   0  0  0  0  0  0  0  0  0  0  0  0
    7.6830   -0.5170   18.7600 N   0  0  0  0  0  0  0  0  0  0  0  0
    9.4200   -0.0840   22.9530 N   0  0  0  0  0  0  0  0  0  0  0  0
    9.1870    1.1500   21.0630 O   0  0  0  0  0  0  0  0  0  0  0  0
   13.9969    0.9202   24.2776 S   0  0  0  0  0  0  0  0  0  0  0  0
    3.6362    2.0028   21.6260 H   0  0  0  0  0  0  0  0  0  0  0  0
    3.2801    2.7808   19.3164 H   0  0  0  0  0  0  0  0  0  0  0  0
    5.4892    0.4523   22.2166 H   0  0  0  0  0  0  0  0  0  0  0  0
    7.5665   -2.8638   26.1066 H   0  0  0  0  0  0  0  0  0  0  0  0
   11.0137   -4.2652   23.9447 H   0  0  0  0  0  0  0  0  0  0  0  0
    4.7762    2.0781   17.4596 H   0  0  0  0  0  0  0  0  0  0  0  0
    7.5948   -0.7788   24.7997 H   0  0  0  0  0  0  0  0  0  0  0  0
   11.0411   -2.1856   22.6358 H   0  0  0  0  0  0  0  0  0  0  0  0
   11.8338    1.0798   21.3902 H   0  0  0  0  0  0  0  0  0  0  0  0
   14.4176    0.9966   21.8719 H   0  0  0  0  0  0  0  0  0  0  0  0
   12.0446    0.9149   25.7428 H   0  0  0  0  0  0  0  0  0  0  0  0
    8.6398   -5.7223   25.3871 H   0  0  0  0  0  0  0  0  0  0  0  0
   10.2715   -5.3829   26.0145 H   0  0  0  0  0  0  0  0  0  0  0  0
    8.8596   -4.8092   26.9004 H   0  0  0  0  0  0  0  0  0  0  0  0
    9.6778    1.0140   24.6966 H   0  0  0  0  0  0  0  0  0  0  0  0
    9.6316    1.9637   23.2107 H   0  0  0  0  0  0  0  0  0  0  0  0
    7.4898   -1.4163   21.8975 H   0  0  0  0  0  0  0  0  0  0  0  0
    8.7537   -1.7577   20.7019 H   0  0  0  0  0  0  0  0  0  0  0  0
    8.4371   -1.0264   18.3897 H   0  0  0  0  0  0  0  0  0  0  0  0
  1  2  1  0  0  0  0
  1  3  2  0  0  0  0
  2  6  2  0  0  0  0
  3 12  1  0  0  0  0
  4  7  2  0  0  0  0
  4 13  1  0  0  0  0
  5  8  1  0  0  0  0
  5 13  2  0  0  0  0
  6 15  1  0  0  0  0
  7 16  1  0  0  0  0
  8 16  2  0  0  0  0
  9 10  2  0  0  0  0
  9 14  1  0  0  0  0
 10 26  1  0  0  0  0
 11 14  2  0  0  0  0
 11 26  1  0  0  0  0
 12 15  1  0  0  0  0
 12 17  2  0  0  0  0
 13 19  1  0  0  0  0
 14 20  1  0  0  0  0
 15 22  2  0  0  0  0
 16 24  1  0  0  0  0
 17 21  1  0  0  0  0
 17 23  1  0  0  0  0
 18 21  1  0  0  0  0
 18 24  1  0  0  0  0
 18 25  2  0  0  0  0
 20 24  1  0  0  0  0
 22 23  1  0  0  0  0
  1 27  1  0  0  0  0
  2 28  1  0  0  0  0
  3 29  1  0  0  0  0
  4 30  1  0  0  0  0
  5 31  1  0  0  0  0
  6 32  1  0  0  0  0
  7 33  1  0  0  0  0
  8 34  1  0  0  0  0
  9 35  1  0  0  0  0
 10 36  1  0  0  0  0
 11 37  1  0  0  0  0
 19 38  1  0  0  0  0
 19 39  1  0  0  0  0
 19 40  1  0  0  0  0
 20 41  1  0  0  0  0
 20 42  1  0  0  0  0
 21 43  1  0  0  0  0
 21 44  1  0  0  0  0
 23 45  1  0  0  0  0
M  END
> <clash_score>
0

> <docking_score>
-9.71763801574707

> <overlap_score>
0.9457805156707764

$$$$
BENZO_402_1
  -OEChem-08222022423D

 60 64  0     0  0  0  0  0  0999 V2000
    4.2970    1.6690   20.8430 C   0  0  0  0  0  0  0  0  0  0  0  0
    4.0980    2.1130   19.5350 C   0  0  0  0  0  0  0  0  0  0  0  0
   13.5977    1.8457   22.6865 C   0  0  0  0  0  0  0  0  0  0  0  0
    5.3360    0.8000   21.1530 C   0  0  0  0  0  0  0  0  0  0  0  0
   12.2044    1.8769   22.7438 C   0  0  0  0  0  0  0  0  0  0  0  0
    4.9400    1.7060   18.5060 C   0  0  0  0  0  0  0  0  0  0  0  0
    8.3310   -2.7170   25.3430 C   0  0  0  0  0  0  0  0  0  0  0  0
   10.2570   -3.5000   24.1350 C   0  0  0  0  0  0  0  0  0  0  0  0
    8.3510   -1.5420   24.6110 C   0  0  0  0  0  0  0  0  0  0  0  0
   10.2760   -2.3270   23.4020 C   0  0  0  0  0  0  0  0  0  0  0  0
   14.3084    0.9454   23.4803 C   0  0  0  0  0  0  0  0  0  0  0  0
   12.2323    0.1076   24.3888 C   0  0  0  0  0  0  0  0  0  0  0  0
    6.1600    0.3870   20.1140 C   0  0  0  0  0  0  0  0  0  0  0  0
   11.5217    1.0079   23.5949 C   0  0  0  0  0  0  0  0  0  0  0  0
    5.9810    0.8330   18.8060 C   0  0  0  0  0  0  0  0  0  0  0  0
    9.2850   -3.7090   25.1090 C   0  0  0  0  0  0  0  0  0  0  0  0
    9.3300   -1.3350   23.6390 C   0  0  0  0  0  0  0  0  0  0  0  0
   13.6257    0.0764   24.3314 C   0  0  0  0  0  0  0  0  0  0  0  0
    7.2210   -0.4620   20.0350 C   0  0  0  0  0  0  0  0  0  0  0  0
    8.9510    0.1280   21.6880 C   0  0  0  0  0  0  0  0  0  0  0  0
    7.3162   -6.8835   26.5210 C   0  0  0  0  0  0  0  0  0  0  0  0
    7.3507   -5.5245   27.2240 C   0  0  0  0  0  0  0  0  0  0  0  0
    7.9375   -6.8069   25.1245 C   0  0  0  0  0  0  0  0  0  0  0  0
    8.7638   -4.9418   27.2163 C   0  0  0  0  0  0  0  0  0  0  0  0
    9.3378   -6.1874   25.1659 C   0  0  0  0  0  0  0  0  0  0  0  0
   10.0220    1.0430   23.6570 C   0  0  0  0  0  0  0  0  0  0  0  0
    8.0810   -0.9750   21.0820 C   0  0  0  0  0  0  0  0  0  0  0  0
    6.9440    0.2550   18.0100 N   0  0  0  0  0  0  0  0  0  0  0  0
    7.6830   -0.5170   18.7600 N   0  0  0  0  0  0  0  0  0  0  0  0
    9.2639   -4.8860   25.8399 N   0  0  0  0  0  0  0  0  0  0  0  0
    9.4200   -0.0840   22.9530 N   0  0  0  0  0  0  0  0  0  0  0  0
    9.1870    1.1500   21.0630 O   0  0  0  0  0  0  0  0  0  0  0  0
   14.5031   -1.0334   25.3114 Cl  0  0  0  0  0  0  0  0  0  0  0  0
    3.6362    2.0028   21.6260 H   0  0  0  0  0  0  0  0  0  0  0  0
    3.2801    2.7808   19.3164 H   0  0  0  0  0  0  0  0  0  0  0  0
   14.1289    2.5227   22.0237 H   0  0  0  0  0  0  0  0  0  0  0  0
    5.4892    0.4523   22.2166 H   0  0  0  0  0  0  0  0  0  0  0  0
   11.6588    2.5818   22.1218 H   0  0  0  0  0  0  0  0  0  0  0  0
    4.7762    2.0781   17.4596 H   0  0  0  0  0  0  0  0  0  0  0  0
    7.5647   -2.8621   26.1053 H   0  0  0  0  0  0  0  0  0  0  0  0
   11.0144   -4.2642   23.9425 H   0  0  0  0  0  0  0  0  0  0  0  0
    7.5958   -0.7779   24.8006 H   0  0  0  0  0  0  0  0  0  0  0  0
   11.0406   -2.1848   22.6356 H   0  0  0  0  0  0  0  0  0  0  0  0
   15.3941    0.9323   23.4255 H   0  0  0  0  0  0  0  0  0  0  0  0
   11.6954   -0.5682   25.0504 H   0  0  0  0  0  0  0  0  0  0  0  0
    7.8578   -7.6261   27.1266 H   0  0  0  0  0  0  0  0  0  0  0  0
    6.2773   -7.2358   26.4459 H   0  0  0  0  0  0  0  0  0  0  0  0
    6.6663   -4.8351   26.7223 H   0  0  0  0  0  0  0  0  0  0  0  0
    7.0044   -5.6368   28.2534 H   0  0  0  0  0  0  0  0  0  0  0  0
    7.9946   -7.8119   24.6937 H   0  0  0  0  0  0  0  0  0  0  0  0
    7.2929   -6.2123   24.4668 H   0  0  0  0  0  0  0  0  0  0  0  0
    8.7343   -3.9408   27.6542 H   0  0  0  0  0  0  0  0  0  0  0  0
    9.4243   -5.5632   27.8278 H   0  0  0  0  0  0  0  0  0  0  0  0
   10.0200   -6.8490   25.7011 H   0  0  0  0  0  0  0  0  0  0  0  0
    9.6984   -6.0694   24.1436 H   0  0  0  0  0  0  0  0  0  0  0  0
    9.6778    1.0140   24.6966 H   0  0  0  0  0  0  0  0  0  0  0  0
    9.6316    1.9637   23.2107 H   0  0  0  0  0  0  0  0  0  0  0  0
    7.4781   -1.4136   21.8845 H   0  0  0  0  0  0  0  0  0  0  0  0
    8.7420   -1.7550   20.6889 H   0  0  0  0  0  0  0  0  0  0  0  0
    8.4371   -1.0264   18.3897 H   0  0  0  0  0  0  0  0  0  0  0  0
  1  2  1  0  0  0  0
  1  4  2  0  0  0  0
  2  6  2  0  0  0  0
  3  5  2  0  0  0  0
  3 11  1  0  0  0  0
  4 13  1  0  0  0  0
  5 14  1  0  0  0  0
  6 15  1  0  0  0  0
  7  9  2  0  0  0  0
  7 16  1  0  0  0  0
  8 10  1  0  0  0  0
  8 16  2  0  0  0  0
  9 17  1  0  0  0  0
 10 17  2  0  0  0  0
 11 18  2  0  0  0  0
 12 14  2  0  0  0  0
 12 18  1  0  0  0  0
 13 15  1  0  0  0  0
 13 19  2  0  0  0  0
 14 26  1  0  0  0  0
 15 28  2  0  0  0  0
 16 30  1  0  0  0  0
 17 31  1  0  0  0  0
 18 33  1  0  0  0  0
 19 27  1  0  0  0  0
 19 29  1  0  0  0  0
 20 27  1  0  0  0  0
 20 31  1  0  0  0  0
 20 32  2  0  0  0  0
 21 22  1  0  0  0  0
 21 23  1  0  0  0  0
 22 24  1  0  0  0  0
 23 25  1  0  0  0  0
 24 30  1  0  0  0  0
 25 30  1  0  0  0  0
 26 31  1  0  0  0  0
 28 29  1  0  0  0  0
  1 34  1  0  0  0  0
  2 35  1  0  0  0  0
  3 36  1  0  0  0  0
  4 37  1  0  0  0  0
  5 38  1  0  0  0  0
  6 39  1  0  0  0  0
  7 40  1  0  0  0  0
  8 41  1  0  0  0  0
  9 42  1  0  0  0  0
 10 43  1  0  0  0  0
 11 44  1  0  0  0  0
 12 45  1  0  0  0  0
 21 46  1  0  0  0  0
 21 47  1  0  0  0  0
 22 48  1  0  0  0  0
 22 49  1  0  0  0  0
 23 50  1  0  0  0  0
 23 51  1  0  0  0  0
 24 52  1  0  0  0  0
 24 53  1  0  0  0  0
 25 54  1  0  0  0  0
 25 55  1  0  0  0  0
 26 56  1  0  0  0  0
 26 57  1  0  0  0  0
 27 58  1  0  0  0  0
 27 59  1  0  0  0  0
 29 60  1  0  0  0  0
M  END
> <clash_score>
0.7662440897211608

> <docking_score>
-7.695671081542969

> <overlap_score>
1.0207408666610718

$$$$
BENZO_403_1
  -OEChem-08222022423D

 60 64  0     0  0  0  0  0  0999 V2000
    4.2970    1.6690   20.8430 C   0  0  0  0  0  0  0  0  0  0  0  0
    4.0980    2.1130   19.5350 C   0  0  0  0  0  0  0  0  0  0  0  0
    5.3360    0.8000   21.1530 C   0  0  0  0  0  0  0  0  0  0  0  0
    4.9400    1.7060   18.5060 C   0  0  0  0  0  0  0  0  0  0  0  0
    8.3310   -2.7170   25.3430 C   0  0  0  0  0  0  0  0  0  0  0  0
   10.2570   -3.5000   24.1350 C   0  0  0  0  0  0  0  0  0  0  0  0
    8.3510   -1.5420   24.6110 C   0  0  0  0  0  0  0  0  0  0  0  0
   10.2760   -2.3270   23.4020 C   0  0  0  0  0  0  0  0  0  0  0  0
   12.4359    1.7439   24.3724 C   0  0  0  0  0  0  0  0  0  0  0  0
   12.3100    0.2469   22.7668 C   0  0  0  0  0  0  0  0  0  0  0  0
    6.1600    0.3870   20.1140 C   0  0  0  0  0  0  0  0  0  0  0  0
   11.5217    1.0079   23.5949 C   0  0  0  0  0  0  0  0  0  0  0  0
    5.9810    0.8330   18.8060 C   0  0  0  0  0  0  0  0  0  0  0  0
    9.2850   -3.7090   25.1090 C   0  0  0  0  0  0  0  0  0  0  0  0
    9.3300   -1.3350   23.6390 C   0  0  0  0  0  0  0  0  0  0  0  0
    7.2210   -0.4620   20.0350 C   0  0  0  0  0  0  0  0  0  0  0  0
    8.9510    0.1280   21.6880 C   0  0  0  0  0  0  0  0  0  0  0  0
    7.3162   -6.8835   26.5210 C   0  0  0  0  0  0  0  0  0  0  0  0
    7.3507   -5.5245   27.2240 C   0  0  0  0  0  0  0  0  0  0  0  0
    7.9375   -6.8069   25.1245 C   0  0  0  0  0  0  0  0  0  0  0  0
    8.7638   -4.9418   27.2163 C   0  0  0  0  0  0  0  0  0  0  0  0
    9.3378   -6.1874   25.1659 C   0  0  0  0  0  0  0  0  0  0  0  0
   14.7884    0.0124   22.4815 C   0  0  0  0  0  0  0  0  0  0  0  0
   10.0220    1.0430   23.6570 C   0  0  0  0  0  0  0  0  0  0  0  0
    8.0810   -0.9750   21.0820 C   0  0  0  0  0  0  0  0  0  0  0  0
   13.7076    1.4745   24.0657 N   0  0  0  0  0  0  0  0  0  0  0  0
    6.9440    0.2550   18.0100 N   0  0  0  0  0  0  0  0  0  0  0  0
    7.6830   -0.5170   18.7600 N   0  0  0  0  0  0  0  0  0  0  0  0
   13.5982    0.5607   23.0864 N   0  0  0  0  0  0  0  0  0  0  0  0
    9.2639   -4.8860   25.8399 N   0  0  0  0  0  0  0  0  0  0  0  0
    9.4200   -0.0840   22.9530 N   0  0  0  0  0  0  0  0  0  0  0  0
    9.1870    1.1500   21.0630 O   0  0  0  0  0  0  0  0  0  0  0  0
    3.6362    2.0028   21.6260 H   0  0  0  0  0  0  0  0  0  0  0  0
    3.2801    2.7808   19.3164 H   0  0  0  0  0  0  0  0  0  0  0  0
    5.4892    0.4523   22.2166 H   0  0  0  0  0  0  0  0  0  0  0  0
    4.7762    2.0781   17.4596 H   0  0  0  0  0  0  0  0  0  0  0  0
    7.5647   -2.8621   26.1053 H   0  0  0  0  0  0  0  0  0  0  0  0
   11.0144   -4.2642   23.9425 H   0  0  0  0  0  0  0  0  0  0  0  0
    7.5958   -0.7779   24.8006 H   0  0  0  0  0  0  0  0  0  0  0  0
   11.0406   -2.1848   22.6356 H   0  0  0  0  0  0  0  0  0  0  0  0
   12.2308    2.4652   25.1508 H   0  0  0  0  0  0  0  0  0  0  0  0
   12.0700   -0.4744   21.9974 H   0  0  0  0  0  0  0  0  0  0  0  0
    7.8578   -7.6261   27.1266 H   0  0  0  0  0  0  0  0  0  0  0  0
    6.2773   -7.2358   26.4459 H   0  0  0  0  0  0  0  0  0  0  0  0
    6.6663   -4.8351   26.7223 H   0  0  0  0  0  0  0  0  0  0  0  0
    7.0044   -5.6368   28.2534 H   0  0  0  0  0  0  0  0  0  0  0  0
    7.9946   -7.8119   24.6937 H   0  0  0  0  0  0  0  0  0  0  0  0
    7.2929   -6.2123   24.4668 H   0  0  0  0  0  0  0  0  0  0  0  0
    8.7343   -3.9408   27.6542 H   0  0  0  0  0  0  0  0  0  0  0  0
    9.4243   -5.5632   27.8278 H   0  0  0  0  0  0  0  0  0  0  0  0
   10.0200   -6.8490   25.7011 H   0  0  0  0  0  0  0  0  0  0  0  0
    9.6984   -6.0694   24.1436 H   0  0  0  0  0  0  0  0  0  0  0  0
   15.0569    0.6453   21.6315 H   0  0  0  0  0  0  0  0  0  0  0  0
   15.5971   -0.0026   23.2174 H   0  0  0  0  0  0  0  0  0  0  0  0
   14.5870   -1.0100   22.1498 H   0  0  0  0  0  0  0  0  0  0  0  0
    9.6778    1.0140   24.6966 H   0  0  0  0  0  0  0  0  0  0  0  0
    9.6316    1.9637   23.2107 H   0  0  0  0  0  0  0  0  0  0  0  0
    7.4781   -1.4136   21.8845 H   0  0  0  0  0  0  0  0  0  0  0  0
    8.7420   -1.7550   20.6889 H   0  0  0  0  0  0  0  0  0  0  0  0
    8.4371   -1.0264   18.3897 H   0  0  0  0  0  0  0  0  0  0  0  0
  1  2  1  0  0  0  0
  1  3  2  0  0  0  0
  2  4  2  0  0  0  0
  3 11  1  0  0  0  0
  4 13  1  0  0  0  0
  5  7  2  0  0  0  0
  5 14  1  0  0  0  0
  6  8  1  0  0  0  0
  6 14  2  0  0  0  0
  7 15  1  0  0  0  0
  8 15  2  0  0  0  0
  9 12  1  0  0  0  0
  9 26  2  0  0  0  0
 10 12  2  0  0  0  0
 10 29  1  0  0  0  0
 11 13  1  0  0  0  0
 11 16  2  0  0  0  0
 12 24  1  0  0  0  0
 13 27  2  0  0  0  0
 14 30  1  0  0  0  0
 15 31  1  0  0  0  0
 16 25  1  0  0  0  0
 16 28  1  0  0  0  0
 17 25  1  0  0  0  0
 17 31  1  0  0  0  0
 17 32  2  0  0  0  0
 18 19  1  0  0  0  0
 18 20  1  0  0  0  0
 19 21  1  0  0  0  0
 20 22  1  0  0  0  0
 21 30  1  0  0  0  0
 22 30  1  0  0  0  0
 23 29  1  0  0  0  0
 24 31  1  0  0  0  0
 26 29  1  0  0  0  0
 27 28  1  0  0  0  0
  1 33  1  0  0  0  0
  2 34  1  0  0  0  0
  3 35  1  0  0  0  0
  4 36  1  0  0  0  0
  5 37  1  0  0  0  0
  6 38  1  0  0  0  0
  7 39  1  0  0  0  0
  8 40  1  0  0  0  0
  9 41  1  0  0  0  0
 10 42  1  0  0  0  0
 18 43  1  0  0  0  0
 18 44  1  0  0  0  0
 19 45  1  0  0  0  0
 19 46  1  0  0  0  0
 20 47  1  0  0  0  0
 20 48  1  0  0  0  0
 21 49  1  0  0  0  0
 21 50  1  0  0  0  0
 22 51  1  0  0  0  0
 22 52  1  0  0  0  0
 23 53  1  0  0  0  0
 23 54  1  0  0  0  0
 23 55  1  0  0  0  0
 24 56  1  0  0  0  0
 24 57  1  0  0  0  0
 25 58  1  0  0  0  0
 25 59  1  0  0  0  0
 28 60  1  0  0  0  0
M  END
> <clash_score>
0

> <docking_score>
-8.728391647338867

> <overlap_score>
1.0017565488815308

$$$$
BENZO_407_1
  -OEChem-08222022423D

 48 51  0     0  0  0  0  0  0999 V2000
    4.2970    1.6690   20.8430 C   0  0  0  0  0  0  0  0  0  0  0  0
    4.0980    2.1130   19.5350 C   0  0  0  0  0  0  0  0  0  0  0  0
    5.3360    0.8000   21.1530 C   0  0  0  0  0  0  0  0  0  0  0  0
    8.3310   -2.7170   25.3430 C   0  0  0  0  0  0  0  0  0  0  0  0
   10.2570   -3.5000   24.1350 C   0  0  0  0  0  0  0  0  0  0  0  0
    4.9400    1.7060   18.5060 C   0  0  0  0  0  0  0  0  0  0  0  0
    8.3510   -1.5420   24.6110 C   0  0  0  0  0  0  0  0  0  0  0  0
   10.2760   -2.3270   23.4020 C   0  0  0  0  0  0  0  0  0  0  0  0
   12.4295    0.9466   24.6692 C   0  0  0  0  0  0  0  0  0  0  0  0
   12.3161    1.0259   22.4747 C   0  0  0  0  0  0  0  0  0  0  0  0
    6.1600    0.3870   20.1140 C   0  0  0  0  0  0  0  0  0  0  0  0
    9.2850   -3.7090   25.1090 C   0  0  0  0  0  0  0  0  0  0  0  0
   11.5217    1.0079   23.5949 C   0  0  0  0  0  0  0  0  0  0  0  0
    5.9810    0.8330   18.8060 C   0  0  0  0  0  0  0  0  0  0  0  0
    9.3300   -1.3350   23.6390 C   0  0  0  0  0  0  0  0  0  0  0  0
    7.2210   -0.4620   20.0350 C   0  0  0  0  0  0  0  0  0  0  0  0
    8.9510    0.1280   21.6880 C   0  0  0  0  0  0  0  0  0  0  0  0
    9.2610   -4.9721   25.8916 C   0  0  0  0  0  0  0  0  0  0  0  0
   14.7958    0.9722   22.1181 C   0  0  0  0  0  0  0  0  0  0  0  0
   10.0220    1.0430   23.6570 C   0  0  0  0  0  0  0  0  0  0  0  0
    8.0810   -0.9750   21.0820 C   0  0  0  0  0  0  0  0  0  0  0  0
   13.7032    0.9267   24.2674 N   0  0  0  0  0  0  0  0  0  0  0  0
    6.9440    0.2550   18.0100 N   0  0  0  0  0  0  0  0  0  0  0  0
    7.6830   -0.5170   18.7600 N   0  0  0  0  0  0  0  0  0  0  0  0
   13.6014    0.9758   22.9283 N   0  0  0  0  0  0  0  0  0  0  0  0
    9.4200   -0.0840   22.9530 N   0  0  0  0  0  0  0  0  0  0  0  0
    9.1870    1.1500   21.0630 O   0  0  0  0  0  0  0  0  0  0  0  0
    3.6362    2.0028   21.6260 H   0  0  0  0  0  0  0  0  0  0  0  0
    3.2801    2.7808   19.3164 H   0  0  0  0  0  0  0  0  0  0  0  0
    5.4892    0.4523   22.2166 H   0  0  0  0  0  0  0  0  0  0  0  0
    7.5665   -2.8638   26.1066 H   0  0  0  0  0  0  0  0  0  0  0  0
   11.0137   -4.2652   23.9447 H   0  0  0  0  0  0  0  0  0  0  0  0
    4.7762    2.0781   17.4596 H   0  0  0  0  0  0  0  0  0  0  0  0
    7.5948   -0.7788   24.7997 H   0  0  0  0  0  0  0  0  0  0  0  0
   11.0411   -2.1856   22.6358 H   0  0  0  0  0  0  0  0  0  0  0  0
   12.2184    0.9145   25.7287 H   0  0  0  0  0  0  0  0  0  0  0  0
   12.0821    1.0677   21.4195 H   0  0  0  0  0  0  0  0  0  0  0  0
    8.6398   -5.7223   25.3871 H   0  0  0  0  0  0  0  0  0  0  0  0
   10.2715   -5.3829   26.0145 H   0  0  0  0  0  0  0  0  0  0  0  0
    8.8596   -4.8092   26.9004 H   0  0  0  0  0  0  0  0  0  0  0  0
   15.1026    2.0102   21.9649 H   0  0  0  0  0  0  0  0  0  0  0  0
   15.5825    0.4128   22.6318 H   0  0  0  0  0  0  0  0  0  0  0  0
   14.5811    0.4905   21.1600 H   0  0  0  0  0  0  0  0  0  0  0  0
    9.6778    1.0140   24.6966 H   0  0  0  0  0  0  0  0  0  0  0  0
    9.6316    1.9637   23.2107 H   0  0  0  0  0  0  0  0  0  0  0  0
    7.4898   -1.4163   21.8975 H   0  0  0  0  0  0  0  0  0  0  0  0
    8.7537   -1.7577   20.7019 H   0  0  0  0  0  0  0  0  0  0  0  0
    8.4371   -1.0264   18.3897 H   0  0  0  0  0  0  0  0  0  0  0  0
  1  2  1  0  0  0  0
  1  3  2  0  0  0  0
  2  6  2  0  0  0  0
  3 11  1  0  0  0  0
  4  7  2  0  0  0  0
  4 12  1  0  0  0  0
  5  8  1  0  0  0  0
  5 12  2  0  0  0  0
  6 14  1  0  0  0  0
  7 15  1  0  0  0  0
  8 15  2  0  0  0  0
  9 13  1  0  0  0  0
  9 22  2  0  0  0  0
 10 13  2  0  0  0  0
 10 25  1  0  0  0  0
 11 14  1  0  0  0  0
 11 16  2  0  0  0  0
 12 18  1  0  0  0  0
 13 20  1  0  0  0  0
 14 23  2  0  0  0  0
 15 26  1  0  0  0  0
 16 21  1  0  0  0  0
 16 24  1  0  0  0  0
 17 21  1  0  0  0  0
 17 26  1  0  0  0  0
 17 27  2  0  0  0  0
 19 25  1  0  0  0  0
 20 26  1  0  0  0  0
 22 25  1  0  0  0  0
 23 24  1  0  0  0  0
  1 28  1  0  0  0  0
  2 29  1  0  0  0  0
  3 30  1  0  0  0  0
  4 31  1  0  0  0  0
  5 32  1  0  0  0  0
  6 33  1  0  0  0  0
  7 34  1  0  0  0  0
  8 35  1  0  0  0  0
  9 36  1  0  0  0  0
 10 37  1  0  0  0  0
 18 38  1  0  0  0  0
 18 39  1  0  0  0  0
 18 40  1  0  0  0  0
 19 41  1  0  0  0  0
 19 42  1  0  0  0  0
 19 43  1  0  0  0  0
 20 44  1  0  0  0  0
 20 45  1  0  0  0  0
 21 46  1  0  0  0  0
 21 47  1  0  0  0  0
 24 48  1  0  0  0  0
M  END
> <clash_score>
0

> <docking_score>
-9.413479804992676

> <overlap_score>
0.962556004524231

$$$$
BENZO_406_1
  -OEChem-08222022423D

 48 51  0     0  0  0  0  0  0999 V2000
    4.2970    1.6690   20.8430 C   0  0  0  0  0  0  0  0  0  0  0  0
    4.0980    2.1130   19.5350 C   0  0  0  0  0  0  0  0  0  0  0  0
   13.5977    1.8457   22.6865 C   0  0  0  0  0  0  0  0  0  0  0  0
    5.3360    0.8000   21.1530 C   0  0  0  0  0  0  0  0  0  0  0  0
   12.2044    1.8769   22.7438 C   0  0  0  0  0  0  0  0  0  0  0  0
    8.3310   -2.7170   25.3430 C   0  0  0  0  0  0  0  0  0  0  0  0
   10.2570   -3.5000   24.1350 C   0  0  0  0  0  0  0  0  0  0  0  0
    4.9400    1.7060   18.5060 C   0  0  0  0  0  0  0  0  0  0  0  0
    8.3510   -1.5420   24.6110 C   0  0  0  0  0  0  0  0  0  0  0  0
   10.2760   -2.3270   23.4020 C   0  0  0  0  0  0  0  0  0  0  0  0
   14.3084    0.9453   23.4803 C   0  0  0  0  0  0  0  0  0  0  0  0
   12.2323    0.1076   24.3888 C   0  0  0  0  0  0  0  0  0  0  0  0
    6.1600    0.3870   20.1140 C   0  0  0  0  0  0  0  0  0  0  0  0
    9.2850   -3.7090   25.1090 C   0  0  0  0  0  0  0  0  0  0  0  0
   11.5217    1.0079   23.5949 C   0  0  0  0  0  0  0  0  0  0  0  0
    5.9810    0.8330   18.8060 C   0  0  0  0  0  0  0  0  0  0  0  0
    9.3300   -1.3350   23.6390 C   0  0  0  0  0  0  0  0  0  0  0  0
   13.6257    0.0764   24.3314 C   0  0  0  0  0  0  0  0  0  0  0  0
    7.2210   -0.4620   20.0350 C   0  0  0  0  0  0  0  0  0  0  0  0
    8.9510    0.1280   21.6880 C   0  0  0  0  0  0  0  0  0  0  0  0
    9.2610   -4.9721   25.8916 C   0  0  0  0  0  0  0  0  0  0  0  0
   10.0220    1.0430   23.6570 C   0  0  0  0  0  0  0  0  0  0  0  0
    8.0810   -0.9750   21.0820 C   0  0  0  0  0  0  0  0  0  0  0  0
    6.9440    0.2550   18.0100 N   0  0  0  0  0  0  0  0  0  0  0  0
    7.6830   -0.5170   18.7600 N   0  0  0  0  0  0  0  0  0  0  0  0
    9.4200   -0.0840   22.9530 N   0  0  0  0  0  0  0  0  0  0  0  0
    9.1870    1.1500   21.0630 O   0  0  0  0  0  0  0  0  0  0  0  0
   14.5031   -1.0334   25.3114 Cl  0  0  0  0  0  0  0  0  0  0  0  0
    3.6362    2.0028   21.6260 H   0  0  0  0  0  0  0  0  0  0  0  0
    3.2801    2.7808   19.3164 H   0  0  0  0  0  0  0  0  0  0  0  0
   14.1289    2.5226   22.0237 H   0  0  0  0  0  0  0  0  0  0  0  0
    5.4892    0.4523   22.2166 H   0  0  0  0  0  0  0  0  0  0  0  0
   11.6588    2.5818   22.1218 H   0  0  0  0  0  0  0  0  0  0  0  0
    7.5665   -2.8638   26.1066 H   0  0  0  0  0  0  0  0  0  0  0  0
   11.0137   -4.2652   23.9447 H   0  0  0  0  0  0  0  0  0  0  0  0
    4.7762    2.0781   17.4596 H   0  0  0  0  0  0  0  0  0  0  0  0
    7.5948   -0.7788   24.7997 H   0  0  0  0  0  0  0  0  0  0  0  0
   11.0411   -2.1856   22.6358 H   0  0  0  0  0  0  0  0  0  0  0  0
   15.3941    0.9323   23.4255 H   0  0  0  0  0  0  0  0  0  0  0  0
   11.6954   -0.5682   25.0504 H   0  0  0  0  0  0  0  0  0  0  0  0
    8.6398   -5.7223   25.3871 H   0  0  0  0  0  0  0  0  0  0  0  0
   10.2715   -5.3829   26.0145 H   0  0  0  0  0  0  0  0  0  0  0  0
    8.8596   -4.8092   26.9004 H   0  0  0  0  0  0  0  0  0  0  0  0
    9.6778    1.0140   24.6966 H   0  0  0  0  0  0  0  0  0  0  0  0
    9.6316    1.9637   23.2107 H   0  0  0  0  0  0  0  0  0  0  0  0
    7.4898   -1.4163   21.8975 H   0  0  0  0  0  0  0  0  0  0  0  0
    8.7537   -1.7577   20.7019 H   0  0  0  0  0  0  0  0  0  0  0  0
    8.4371   -1.0264   18.3897 H   0  0  0  0  0  0  0  0  0  0  0  0
  1  2  1  0  0  0  0
  1  4  2  0  0  0  0
  2  8  2  0  0  0  0
  3  5  2  0  0  0  0
  3 11  1  0  0  0  0
  4 13  1  0  0  0  0
  5 15  1  0  0  0  0
  6  9  2  0  0  0  0
  6 14  1  0  0  0  0
  7 10  1  0  0  0  0
  7 14  2  0  0  0  0
  8 16  1  0  0  0  0
  9 17  1  0  0  0  0
 10 17  2  0  0  0  0
 11 18  2  0  0  0  0
 12 15  2  0  0  0  0
 12 18  1  0  0  0  0
 13 16  1  0  0  0  0
 13 19  2  0  0  0  0
 14 21  1  0  0  0  0
 15 22  1  0  0  0  0
 16 24  2  0  0  0  0
 17 26  1  0  0  0  0
 18 28  1  0  0  0  0
 19 23  1  0  0  0  0
 19 25  1  0  0  0  0
 20 23  1  0  0  0  0
 20 26  1  0  0  0  0
 20 27  2  0  0  0  0
 22 26  1  0  0  0  0
 24 25  1  0  0  0  0
  1 29  1  0  0  0  0
  2 30  1  0  0  0  0
  3 31  1  0  0  0  0
  4 32  1  0  0  0  0
  5 33  1  0  0  0  0
  6 34  1  0  0  0  0
  7 35  1  0  0  0  0
  8 36  1  0  0  0  0
  9 37  1  0  0  0  0
 10 38  1  0  0  0  0
 11 39  1  0  0  0  0
 12 40  1  0  0  0  0
 21 41  1  0  0  0  0
 21 42  1  0  0  0  0
 21 43  1  0  0  0  0
 22 44  1  0  0  0  0
 22 45  1  0  0  0  0
 23 46  1  0  0  0  0
 23 47  1  0  0  0  0
 25 48  1  0  0  0  0
M  END
> <clash_score>
0.7662478438084733

> <docking_score>
-8.65333366394043

> <overlap_score>
0.9770404696464539

$$$$
BENZO_409_1
  -OEChem-08222022423D

 49 52  0     0  0  0  0  0  0999 V2000
   14.3082    0.9431   23.4783 C   0  0  0  0  0  0  0  0  0  0  0  0
    4.2970    1.6690   20.8430 C   0  0  0  0  0  0  0  0  0  0  0  0
   13.6391    0.3091   24.5251 C   0  0  0  0  0  0  0  0  0  0  0  0
   13.5841    1.6096   22.4898 C   0  0  0  0  0  0  0  0  0  0  0  0
    4.0980    2.1130   19.5350 C   0  0  0  0  0  0  0  0  0  0  0  0
    5.3360    0.8000   21.1530 C   0  0  0  0  0  0  0  0  0  0  0  0
   12.2459    0.3415   24.5835 C   0  0  0  0  0  0  0  0  0  0  0  0
   12.1908    1.6420   22.5481 C   0  0  0  0  0  0  0  0  0  0  0  0
    4.9400    1.7060   18.5060 C   0  0  0  0  0  0  0  0  0  0  0  0
    8.3510   -1.5420   24.6110 C   0  0  0  0  0  0  0  0  0  0  0  0
   10.2760   -2.3270   23.4020 C   0  0  0  0  0  0  0  0  0  0  0  0
    8.3310   -2.7170   25.3430 C   0  0  0  0  0  0  0  0  0  0  0  0
   10.2570   -3.5000   24.1350 C   0  0  0  0  0  0  0  0  0  0  0  0
    6.1600    0.3870   20.1140 C   0  0  0  0  0  0  0  0  0  0  0  0
   11.5217    1.0079   23.5949 C   0  0  0  0  0  0  0  0  0  0  0  0
    5.9810    0.8330   18.8060 C   0  0  0  0  0  0  0  0  0  0  0  0
    9.3300   -1.3350   23.6390 C   0  0  0  0  0  0  0  0  0  0  0  0
    9.2850   -3.7090   25.1090 C   0  0  0  0  0  0  0  0  0  0  0  0
    7.2210   -0.4620   20.0350 C   0  0  0  0  0  0  0  0  0  0  0  0
    8.9510    0.1280   21.6880 C   0  0  0  0  0  0  0  0  0  0  0  0
    8.2350   -4.9987   26.8026 C   0  0  0  0  0  0  0  0  0  0  0  0
   10.0220    1.0430   23.6570 C   0  0  0  0  0  0  0  0  0  0  0  0
    8.0810   -0.9750   21.0820 C   0  0  0  0  0  0  0  0  0  0  0  0
    6.9440    0.2550   18.0100 N   0  0  0  0  0  0  0  0  0  0  0  0
    7.6830   -0.5170   18.7600 N   0  0  0  0  0  0  0  0  0  0  0  0
    9.4200   -0.0840   22.9530 N   0  0  0  0  0  0  0  0  0  0  0  0
    9.1870    1.1500   21.0630 O   0  0  0  0  0  0  0  0  0  0  0  0
    9.2631   -4.8614   25.8229 O   0  0  0  0  0  0  0  0  0  0  0  0
   15.3932    0.9189   23.4337 H   0  0  0  0  0  0  0  0  0  0  0  0
    3.6362    2.0028   21.6260 H   0  0  0  0  0  0  0  0  0  0  0  0
   14.2029   -0.2090   25.2955 H   0  0  0  0  0  0  0  0  0  0  0  0
   14.1048    2.1043   21.6752 H   0  0  0  0  0  0  0  0  0  0  0  0
    3.2801    2.7808   19.3164 H   0  0  0  0  0  0  0  0  0  0  0  0
    5.4892    0.4523   22.2166 H   0  0  0  0  0  0  0  0  0  0  0  0
   11.7330   -0.1555   25.4027 H   0  0  0  0  0  0  0  0  0  0  0  0
   11.6349    2.1636   21.7735 H   0  0  0  0  0  0  0  0  0  0  0  0
    4.7762    2.0781   17.4596 H   0  0  0  0  0  0  0  0  0  0  0  0
    7.5951   -0.7786   24.8000 H   0  0  0  0  0  0  0  0  0  0  0  0
   11.0406   -2.1866   22.6351 H   0  0  0  0  0  0  0  0  0  0  0  0
    7.5664   -2.8674   26.1055 H   0  0  0  0  0  0  0  0  0  0  0  0
   11.0119   -4.2671   23.9461 H   0  0  0  0  0  0  0  0  0  0  0  0
    8.3317   -5.9668   27.3002 H   0  0  0  0  0  0  0  0  0  0  0  0
    7.2576   -4.9213   26.3197 H   0  0  0  0  0  0  0  0  0  0  0  0
    8.3386   -4.2001   27.5410 H   0  0  0  0  0  0  0  0  0  0  0  0
    9.6778    1.0140   24.6966 H   0  0  0  0  0  0  0  0  0  0  0  0
    9.6316    1.9637   23.2107 H   0  0  0  0  0  0  0  0  0  0  0  0
    7.4898   -1.4163   21.8975 H   0  0  0  0  0  0  0  0  0  0  0  0
    8.7537   -1.7577   20.7019 H   0  0  0  0  0  0  0  0  0  0  0  0
    8.4371   -1.0264   18.3897 H   0  0  0  0  0  0  0  0  0  0  0  0
  1  3  1  0  0  0  0
  1  4  2  0  0  0  0
  2  5  1  0  0  0  0
  2  6  2  0  0  0  0
  3  7  2  0  0  0  0
  4  8  1  0  0  0  0
  5  9  2  0  0  0  0
  6 14  1  0  0  0  0
  7 15  1  0  0  0  0
  8 15  2  0  0  0  0
  9 16  1  0  0  0  0
 10 12  2  0  0  0  0
 10 17  1  0  0  0  0
 11 13  1  0  0  0  0
 11 17  2  0  0  0  0
 12 18  1  0  0  0  0
 13 18  2  0  0  0  0
 14 16  1  0  0  0  0
 14 19  2  0  0  0  0
 15 22  1  0  0  0  0
 16 24  2  0  0  0  0
 17 26  1  0  0  0  0
 18 28  1  0  0  0  0
 19 23  1  0  0  0  0
 19 25  1  0  0  0  0
 20 23  1  0  0  0  0
 20 26  1  0  0  0  0
 20 27  2  0  0  0  0
 21 28  1  0  0  0  0
 22 26  1  0  0  0  0
 24 25  1  0  0  0  0
  1 29  1  0  0  0  0
  2 30  1  0  0  0  0
  3 31  1  0  0  0  0
  4 32  1  0  0  0  0
  5 33  1  0  0  0  0
  6 34  1  0  0  0  0
  7 35  1  0  0  0  0
  8 36  1  0  0  0  0
  9 37  1  0  0  0  0
 10 38  1  0  0  0  0
 11 39  1  0  0  0  0
 12 40  1  0  0  0  0
 13 41  1  0  0  0  0
 21 42  1  0  0  0  0
 21 43  1  0  0  0  0
 21 44  1  0  0  0  0
 22 45  1  0  0  0  0
 22 46  1  0  0  0  0
 23 47  1  0  0  0  0
 23 48  1  0  0  0  0
 25 49  1  0  0  0  0
M  END
> <clash_score>
0

> <docking_score>
-9.18073844909668

> <overlap_score>
0.995654284954071

$$$$
BENZO_408_1
  -OEChem-08222022423D

 46 49  0     0  0  0  0  0  0999 V2000
    4.2970    1.6690   20.8430 C   0  0  0  0  0  0  0  0  0  0  0  0
    4.0980    2.1130   19.5350 C   0  0  0  0  0  0  0  0  0  0  0  0
    5.3360    0.8000   21.1530 C   0  0  0  0  0  0  0  0  0  0  0  0
    4.9400    1.7060   18.5060 C   0  0  0  0  0  0  0  0  0  0  0  0
    8.3510   -1.5420   24.6110 C   0  0  0  0  0  0  0  0  0  0  0  0
   10.2760   -2.3270   23.4020 C   0  0  0  0  0  0  0  0  0  0  0  0
    8.3310   -2.7170   25.3430 C   0  0  0  0  0  0  0  0  0  0  0  0
   10.2570   -3.5000   24.1350 C   0  0  0  0  0  0  0  0  0  0  0  0
   12.2675    1.0332   22.3812 C   0  0  0  0  0  0  0  0  0  0  0  0
   13.6257    0.9906   22.6074 C   0  0  0  0  0  0  0  0  0  0  0  0
   12.3384    0.9467   24.7028 C   0  0  0  0  0  0  0  0  0  0  0  0
    6.1600    0.3870   20.1140 C   0  0  0  0  0  0  0  0  0  0  0  0
   11.5217    1.0079   23.5949 C   0  0  0  0  0  0  0  0  0  0  0  0
    5.9810    0.8330   18.8060 C   0  0  0  0  0  0  0  0  0  0  0  0
    9.3300   -1.3350   23.6390 C   0  0  0  0  0  0  0  0  0  0  0  0
    9.2850   -3.7090   25.1090 C   0  0  0  0  0  0  0  0  0  0  0  0
    7.2210   -0.4620   20.0350 C   0  0  0  0  0  0  0  0  0  0  0  0
    8.9510    0.1280   21.6880 C   0  0  0  0  0  0  0  0  0  0  0  0
    8.2350   -4.9987   26.8026 C   0  0  0  0  0  0  0  0  0  0  0  0
   10.0220    1.0430   23.6570 C   0  0  0  0  0  0  0  0  0  0  0  0
    8.0810   -0.9750   21.0820 C   0  0  0  0  0  0  0  0  0  0  0  0
    6.9440    0.2550   18.0100 N   0  0  0  0  0  0  0  0  0  0  0  0
    7.6830   -0.5170   18.7600 N   0  0  0  0  0  0  0  0  0  0  0  0
    9.4200   -0.0840   22.9530 N   0  0  0  0  0  0  0  0  0  0  0  0
    9.1870    1.1500   21.0630 O   0  0  0  0  0  0  0  0  0  0  0  0
    9.2631   -4.8614   25.8229 O   0  0  0  0  0  0  0  0  0  0  0  0
   13.9969    0.9202   24.2776 S   0  0  0  0  0  0  0  0  0  0  0  0
    3.6362    2.0028   21.6260 H   0  0  0  0  0  0  0  0  0  0  0  0
    3.2801    2.7808   19.3164 H   0  0  0  0  0  0  0  0  0  0  0  0
    5.4892    0.4523   22.2166 H   0  0  0  0  0  0  0  0  0  0  0  0
    4.7762    2.0781   17.4596 H   0  0  0  0  0  0  0  0  0  0  0  0
    7.5951   -0.7786   24.8000 H   0  0  0  0  0  0  0  0  0  0  0  0
   11.0406   -2.1866   22.6351 H   0  0  0  0  0  0  0  0  0  0  0  0
    7.5664   -2.8674   26.1055 H   0  0  0  0  0  0  0  0  0  0  0  0
   11.0119   -4.2671   23.9461 H   0  0  0  0  0  0  0  0  0  0  0  0
   11.8338    1.0798   21.3902 H   0  0  0  0  0  0  0  0  0  0  0  0
   14.4176    0.9966   21.8719 H   0  0  0  0  0  0  0  0  0  0  0  0
   12.0446    0.9149   25.7428 H   0  0  0  0  0  0  0  0  0  0  0  0
    8.3317   -5.9668   27.3002 H   0  0  0  0  0  0  0  0  0  0  0  0
    7.2576   -4.9213   26.3197 H   0  0  0  0  0  0  0  0  0  0  0  0
    8.3386   -4.2001   27.5410 H   0  0  0  0  0  0  0  0  0  0  0  0
    9.6778    1.0140   24.6966 H   0  0  0  0  0  0  0  0  0  0  0  0
    9.6316    1.9637   23.2107 H   0  0  0  0  0  0  0  0  0  0  0  0
    7.4898   -1.4163   21.8975 H   0  0  0  0  0  0  0  0  0  0  0  0
    8.7537   -1.7577   20.7019 H   0  0  0  0  0  0  0  0  0  0  0  0
    8.4371   -1.0264   18.3897 H   0  0  0  0  0  0  0  0  0  0  0  0
  1  2  1  0  0  0  0
  1  3  2  0  0  0  0
  2  4  2  0  0  0  0
  3 12  1  0  0  0  0
  4 14  1  0  0  0  0
  5  7  2  0  0  0  0
  5 15  1  0  0  0  0
  6  8  1  0  0  0  0
  6 15  2  0  0  0  0
  7 16  1  0  0  0  0
  8 16  2  0  0  0  0
  9 10  2  0  0  0  0
  9 13  1  0  0  0  0
 10 27  1  0  0  0  0
 11 13  2  0  0  0  0
 11 27  1  0  0  0  0
 12 14  1  0  0  0  0
 12 17  2  0  0  0  0
 13 20  1  0  0  0  0
 14 22  2  0  0  0  0
 15 24  1  0  0  0  0
 16 26  1  0  0  0  0
 17 21  1  0  0  0  0
 17 23  1  0  0  0  0
 18 21  1  0  0  0  0
 18 24  1  0  0  0  0
 18 25  2  0  0  0  0
 19 26  1  0  0  0  0
 20 24  1  0  0  0  0
 22 23  1  0  0  0  0
  1 28  1  0  0  0  0
  2 29  1  0  0  0  0
  3 30  1  0  0  0  0
  4 31  1  0  0  0  0
  5 32  1  0  0  0  0
  6 33  1  0  0  0  0
  7 34  1  0  0  0  0
  8 35  1  0  0  0  0
  9 36  1  0  0  0  0
 10 37  1  0  0  0  0
 11 38  1  0  0  0  0
 19 39  1  0  0  0  0
 19 40  1  0  0  0  0
 19 41  1  0  0  0  0
 20 42  1  0  0  0  0
 20 43  1  0  0  0  0
 21 44  1  0  0  0  0
 21 45  1  0  0  0  0
 23 46  1  0  0  0  0
M  END
> <clash_score>
0

> <docking_score>
-9.426942825317383

> <overlap_score>
0.9697704315185547

$$$$
BENZO_411_1
  -OEChem-08222022423D

 49 52  0     0  0  0  0  0  0999 V2000
    4.2970    1.6690   20.8430 C   0  0  0  0  0  0  0  0  0  0  0  0
    4.0980    2.1130   19.5350 C   0  0  0  0  0  0  0  0  0  0  0  0
    5.3360    0.8000   21.1530 C   0  0  0  0  0  0  0  0  0  0  0  0
    4.9400    1.7060   18.5060 C   0  0  0  0  0  0  0  0  0  0  0  0
    8.3510   -1.5420   24.6110 C   0  0  0  0  0  0  0  0  0  0  0  0
   10.2760   -2.3270   23.4020 C   0  0  0  0  0  0  0  0  0  0  0  0
    8.3310   -2.7170   25.3430 C   0  0  0  0  0  0  0  0  0  0  0  0
   10.2570   -3.5000   24.1350 C   0  0  0  0  0  0  0  0  0  0  0  0
   12.4359    1.7439   24.3724 C   0  0  0  0  0  0  0  0  0  0  0  0
   12.3100    0.2469   22.7668 C   0  0  0  0  0  0  0  0  0  0  0  0
    6.1600    0.3870   20.1140 C   0  0  0  0  0  0  0  0  0  0  0  0
   11.5217    1.0079   23.5949 C   0  0  0  0  0  0  0  0  0  0  0  0
    5.9810    0.8330   18.8060 C   0  0  0  0  0  0  0  0  0  0  0  0
    9.3300   -1.3350   23.6390 C   0  0  0  0  0  0  0  0  0  0  0  0
    9.2850   -3.7090   25.1090 C   0  0  0  0  0  0  0  0  0  0  0  0
    7.2210   -0.4620   20.0350 C   0  0  0  0  0  0  0  0  0  0  0  0
    8.9510    0.1280   21.6880 C   0  0  0  0  0  0  0  0  0  0  0  0
   14.7884    0.0124   22.4815 C   0  0  0  0  0  0  0  0  0  0  0  0
    8.2350   -4.9987   26.8026 C   0  0  0  0  0  0  0  0  0  0  0  0
   10.0220    1.0430   23.6570 C   0  0  0  0  0  0  0  0  0  0  0  0
    8.0810   -0.9750   21.0820 C   0  0  0  0  0  0  0  0  0  0  0  0
   13.7076    1.4745   24.0657 N   0  0  0  0  0  0  0  0  0  0  0  0
    6.9440    0.2550   18.0100 N   0  0  0  0  0  0  0  0  0  0  0  0
    7.6830   -0.5170   18.7600 N   0  0  0  0  0  0  0  0  0  0  0  0
   13.5982    0.5607   23.0864 N   0  0  0  0  0  0  0  0  0  0  0  0
    9.4200   -0.0840   22.9530 N   0  0  0  0  0  0  0  0  0  0  0  0
    9.1870    1.1500   21.0630 O   0  0  0  0  0  0  0  0  0  0  0  0
    9.2631   -4.8614   25.8229 O   0  0  0  0  0  0  0  0  0  0  0  0
    3.6362    2.0028   21.6260 H   0  0  0  0  0  0  0  0  0  0  0  0
    3.2801    2.7808   19.3164 H   0  0  0  0  0  0  0  0  0  0  0  0
    5.4892    0.4523   22.2166 H   0  0  0  0  0  0  0  0  0  0  0  0
    4.7762    2.0781   17.4596 H   0  0  0  0  0  0  0  0  0  0  0  0
    7.5951   -0.7786   24.8000 H   0  0  0  0  0  0  0  0  0  0  0  0
   11.0406   -2.1866   22.6351 H   0  0  0  0  0  0  0  0  0  0  0  0
    7.5664   -2.8674   26.1055 H   0  0  0  0  0  0  0  0  0  0  0  0
   11.0119   -4.2671   23.9461 H   0  0  0  0  0  0  0  0  0  0  0  0
   12.2308    2.4652   25.1508 H   0  0  0  0  0  0  0  0  0  0  0  0
   12.0700   -0.4744   21.9974 H   0  0  0  0  0  0  0  0  0  0  0  0
   15.0569    0.6453   21.6315 H   0  0  0  0  0  0  0  0  0  0  0  0
   15.5971   -0.0026   23.2174 H   0  0  0  0  0  0  0  0  0  0  0  0
   14.5870   -1.0100   22.1498 H   0  0  0  0  0  0  0  0  0  0  0  0
    8.3317   -5.9668   27.3002 H   0  0  0  0  0  0  0  0  0  0  0  0
    7.2576   -4.9213   26.3197 H   0  0  0  0  0  0  0  0  0  0  0  0
    8.3386   -4.2001   27.5410 H   0  0  0  0  0  0  0  0  0  0  0  0
    9.6778    1.0140   24.6966 H   0  0  0  0  0  0  0  0  0  0  0  0
    9.6316    1.9637   23.2107 H   0  0  0  0  0  0  0  0  0  0  0  0
    7.4898   -1.4163   21.8975 H   0  0  0  0  0  0  0  0  0  0  0  0
    8.7537   -1.7577   20.7019 H   0  0  0  0  0  0  0  0  0  0  0  0
    8.4371   -1.0264   18.3897 H   0  0  0  0  0  0  0  0  0  0  0  0
  1  2  1  0  0  0  0
  1  3  2  0  0  0  0
  2  4  2  0  0  0  0
  3 11  1  0  0  0  0
  4 13  1  0  0  0  0
  5  7  2  0  0  0  0
  5 14  1  0  0  0  0
  6  8  1  0  0  0  0
  6 14  2  0  0  0  0
  7 15  1  0  0  0  0
  8 15  2  0  0  0  0
  9 12  1  0  0  0  0
  9 22  2  0  0  0  0
 10 12  2  0  0  0  0
 10 25  1  0  0  0  0
 11 13  1  0  0  0  0
 11 16  2  0  0  0  0
 12 20  1  0  0  0  0
 13 23  2  0  0  0  0
 14 26  1  0  0  0  0
 15 28  1  0  0  0  0
 16 21  1  0  0  0  0
 16 24  1  0  0  0  0
 17 21  1  0  0  0  0
 17 26  1  0  0  0  0
 17 27  2  0  0  0  0
 18 25  1  0  0  0  0
 19 28  1  0  0  0  0
 20 26  1  0  0  0  0
 22 25  1  0  0  0  0
 23 24  1  0  0  0  0
  1 29  1  0  0  0  0
  2 30  1  0  0  0  0
  3 31  1  0  0  0  0
  4 32  1  0  0  0  0
  5 33  1  0  0  0  0
  6 34  1  0  0  0  0
  7 35  1  0  0  0  0
  8 36  1  0  0  0  0
  9 37  1  0  0  0  0
 10 38  1  0  0  0  0
 18 39  1  0  0  0  0
 18 40  1  0  0  0  0
 18 41  1  0  0  0  0
 19 42  1  0  0  0  0
 19 43  1  0  0  0  0
 19 44  1  0  0  0  0
 20 45  1  0  0  0  0
 20 46  1  0  0  0  0
 21 47  1  0  0  0  0
 21 48  1  0  0  0  0
 24 49  1  0  0  0  0
M  END
> <clash_score>
0

> <docking_score>
-9.395349502563477

> <overlap_score>
0.9817346930503845

$$$$
BENZO_410_1
  -OEChem-08222022423D

 49 52  0     0  0  0  0  0  0999 V2000
    4.2970    1.6690   20.8430 C   0  0  0  0  0  0  0  0  0  0  0  0
    4.0980    2.1130   19.5350 C   0  0  0  0  0  0  0  0  0  0  0  0
   13.6668    1.7807   24.3938 C   0  0  0  0  0  0  0  0  0  0  0  0
    5.3360    0.8000   21.1530 C   0  0  0  0  0  0  0  0  0  0  0  0
   12.2735    1.8136   24.4501 C   0  0  0  0  0  0  0  0  0  0  0  0
    4.9400    1.7060   18.5060 C   0  0  0  0  0  0  0  0  0  0  0  0
    8.3510   -1.5420   24.6110 C   0  0  0  0  0  0  0  0  0  0  0  0
   10.2760   -2.3270   23.4020 C   0  0  0  0  0  0  0  0  0  0  0  0
    8.3310   -2.7170   25.3430 C   0  0  0  0  0  0  0  0  0  0  0  0
   10.2570   -3.5000   24.1350 C   0  0  0  0  0  0  0  0  0  0  0  0
   14.3084    0.9422   23.4822 C   0  0  0  0  0  0  0  0  0  0  0  0
   12.1632    0.1693   22.6834 C   0  0  0  0  0  0  0  0  0  0  0  0
    6.1600    0.3870   20.1140 C   0  0  0  0  0  0  0  0  0  0  0  0
   11.5217    1.0079   23.5949 C   0  0  0  0  0  0  0  0  0  0  0  0
    5.9810    0.8330   18.8060 C   0  0  0  0  0  0  0  0  0  0  0  0
    9.3300   -1.3350   23.6390 C   0  0  0  0  0  0  0  0  0  0  0  0
    9.2850   -3.7090   25.1090 C   0  0  0  0  0  0  0  0  0  0  0  0
   13.5566    0.1365   22.6270 C   0  0  0  0  0  0  0  0  0  0  0  0
    7.2210   -0.4620   20.0350 C   0  0  0  0  0  0  0  0  0  0  0  0
    8.9510    0.1280   21.6880 C   0  0  0  0  0  0  0  0  0  0  0  0
    8.2350   -4.9987   26.8026 C   0  0  0  0  0  0  0  0  0  0  0  0
   10.0220    1.0430   23.6570 C   0  0  0  0  0  0  0  0  0  0  0  0
    8.0810   -0.9750   21.0820 C   0  0  0  0  0  0  0  0  0  0  0  0
    6.9440    0.2550   18.0100 N   0  0  0  0  0  0  0  0  0  0  0  0
    7.6830   -0.5170   18.7600 N   0  0  0  0  0  0  0  0  0  0  0  0
    9.4200   -0.0840   22.9530 N   0  0  0  0  0  0  0  0  0  0  0  0
    9.1870    1.1500   21.0630 O   0  0  0  0  0  0  0  0  0  0  0  0
    9.2631   -4.8614   25.8229 O   0  0  0  0  0  0  0  0  0  0  0  0
   14.3487   -0.8988   21.5034 Cl  0  0  0  0  0  0  0  0  0  0  0  0
    3.6362    2.0028   21.6260 H   0  0  0  0  0  0  0  0  0  0  0  0
    3.2801    2.7808   19.3164 H   0  0  0  0  0  0  0  0  0  0  0  0
   14.2519    2.4082   25.0600 H   0  0  0  0  0  0  0  0  0  0  0  0
    5.4892    0.4523   22.2166 H   0  0  0  0  0  0  0  0  0  0  0  0
   11.7821    2.4700   25.1636 H   0  0  0  0  0  0  0  0  0  0  0  0
    4.7762    2.0781   17.4596 H   0  0  0  0  0  0  0  0  0  0  0  0
    7.5951   -0.7786   24.8000 H   0  0  0  0  0  0  0  0  0  0  0  0
   11.0406   -2.1866   22.6351 H   0  0  0  0  0  0  0  0  0  0  0  0
    7.5664   -2.8674   26.1055 H   0  0  0  0  0  0  0  0  0  0  0  0
   11.0119   -4.2671   23.9461 H   0  0  0  0  0  0  0  0  0  0  0  0
   15.3950    0.9267   23.4496 H   0  0  0  0  0  0  0  0  0  0  0  0
   11.5726   -0.4565   22.0184 H   0  0  0  0  0  0  0  0  0  0  0  0
    8.3317   -5.9668   27.3002 H   0  0  0  0  0  0  0  0  0  0  0  0
    7.2576   -4.9213   26.3197 H   0  0  0  0  0  0  0  0  0  0  0  0
    8.3386   -4.2001   27.5410 H   0  0  0  0  0  0  0  0  0  0  0  0
    9.6778    1.0140   24.6966 H   0  0  0  0  0  0  0  0  0  0  0  0
    9.6316    1.9637   23.2107 H   0  0  0  0  0  0  0  0  0  0  0  0
    7.4898   -1.4163   21.8975 H   0  0  0  0  0  0  0  0  0  0  0  0
    8.7537   -1.7577   20.7019 H   0  0  0  0  0  0  0  0  0  0  0  0
    8.4371   -1.0264   18.3897 H   0  0  0  0  0  0  0  0  0  0  0  0
  1  2  1  0  0  0  0
  1  4  2  0  0  0  0
  2  6  2  0  0  0  0
  3  5  2  0  0  0  0
  3 11  1  0  0  0  0
  4 13  1  0  0  0  0
  5 14  1  0  0  0  0
  6 15  1  0  0  0  0
  7  9  2  0  0  0  0
  7 16  1  0  0  0  0
  8 10  1  0  0  0  0
  8 16  2  0  0  0  0
  9 17  1  0  0  0  0
 10 17  2  0  0  0  0
 11 18  2  0  0  0  0
 12 14  2  0  0  0  0
 12 18  1  0  0  0  0
 13 15  1  0  0  0  0
 13 19  2  0  0  0  0
 14 22  1  0  0  0  0
 15 24  2  0  0  0  0
 16 26  1  0  0  0  0
 17 28  1  0  0  0  0
 18 29  1  0  0  0  0
 19 23  1  0  0  0  0
 19 25  1  0  0  0  0
 20 23  1  0  0  0  0
 20 26  1  0  0  0  0
 20 27  2  0  0  0  0
 21 28  1  0  0  0  0
 22 26  1  0  0  0  0
 24 25  1  0  0  0  0
  1 30  1  0  0  0  0
  2 31  1  0  0  0  0
  3 32  1  0  0  0  0
  4 33  1  0  0  0  0
  5 34  1  0  0  0  0
  6 35  1  0  0  0  0
  7 36  1  0  0  0  0
  8 37  1  0  0  0  0
  9 38  1  0  0  0  0
 10 39  1  0  0  0  0
 11 40  1  0  0  0  0
 12 41  1  0  0  0  0
 21 42  1  0  0  0  0
 21 43  1  0  0  0  0
 21 44  1  0  0  0  0
 22 45  1  0  0  0  0
 22 46  1  0  0  0  0
 23 47  1  0  0  0  0
 23 48  1  0  0  0  0
 25 49  1  0  0  0  0
M  END
> <clash_score>
0

> <docking_score>
-8.431669235229492

> <overlap_score>
0.9766170382499695

$$$$
BENZO_413_1
  -OEChem-08222022423D

 59 63  0     0  0  0  0  0  0999 V2000
   14.3082    0.9431   23.4783 C   0  0  0  0  0  0  0  0  0  0  0  0
    4.2970    1.6690   20.8430 C   0  0  0  0  0  0  0  0  0  0  0  0
   13.6391    0.3091   24.5251 C   0  0  0  0  0  0  0  0  0  0  0  0
   13.5841    1.6096   22.4898 C   0  0  0  0  0  0  0  0  0  0  0  0
    4.0980    2.1130   19.5350 C   0  0  0  0  0  0  0  0  0  0  0  0
    5.3360    0.8000   21.1530 C   0  0  0  0  0  0  0  0  0  0  0  0
   12.2459    0.3415   24.5835 C   0  0  0  0  0  0  0  0  0  0  0  0
   12.1908    1.6420   22.5481 C   0  0  0  0  0  0  0  0  0  0  0  0
    4.9400    1.7060   18.5060 C   0  0  0  0  0  0  0  0  0  0  0  0
    8.3310   -2.7170   25.3430 C   0  0  0  0  0  0  0  0  0  0  0  0
   10.2570   -3.5000   24.1350 C   0  0  0  0  0  0  0  0  0  0  0  0
    8.3510   -1.5420   24.6110 C   0  0  0  0  0  0  0  0  0  0  0  0
   10.2760   -2.3270   23.4020 C   0  0  0  0  0  0  0  0  0  0  0  0
    6.1600    0.3870   20.1140 C   0  0  0  0  0  0  0  0  0  0  0  0
   11.5217    1.0079   23.5949 C   0  0  0  0  0  0  0  0  0  0  0  0
    5.9810    0.8330   18.8060 C   0  0  0  0  0  0  0  0  0  0  0  0
    9.2850   -3.7090   25.1090 C   0  0  0  0  0  0  0  0  0  0  0  0
    9.3300   -1.3350   23.6390 C   0  0  0  0  0  0  0  0  0  0  0  0
    7.2210   -0.4620   20.0350 C   0  0  0  0  0  0  0  0  0  0  0  0
    8.0635   -5.4710   26.3667 C   0  0  0  0  0  0  0  0  0  0  0  0
    8.9510    0.1280   21.6880 C   0  0  0  0  0  0  0  0  0  0  0  0
    8.2626   -6.7580   27.1475 C   0  0  0  0  0  0  0  0  0  0  0  0
    9.4048   -6.6156   28.1380 C   0  0  0  0  0  0  0  0  0  0  0  0
   10.6949   -6.1500   27.4702 C   0  0  0  0  0  0  0  0  0  0  0  0
   10.4942   -5.7069   26.0219 C   0  0  0  0  0  0  0  0  0  0  0  0
   10.0220    1.0430   23.6570 C   0  0  0  0  0  0  0  0  0  0  0  0
    8.0810   -0.9750   21.0820 C   0  0  0  0  0  0  0  0  0  0  0  0
    6.9440    0.2550   18.0100 N   0  0  0  0  0  0  0  0  0  0  0  0
    7.6830   -0.5170   18.7600 N   0  0  0  0  0  0  0  0  0  0  0  0
    9.2623   -4.9266   25.8635 N   0  0  0  0  0  0  0  0  0  0  0  0
    9.4200   -0.0840   22.9530 N   0  0  0  0  0  0  0  0  0  0  0  0
    6.9244   -5.0476   26.1739 O   0  0  0  0  0  0  0  0  0  0  0  0
    9.1870    1.1500   21.0630 O   0  0  0  0  0  0  0  0  0  0  0  0
   15.3932    0.9189   23.4337 H   0  0  0  0  0  0  0  0  0  0  0  0
    3.6362    2.0028   21.6259 H   0  0  0  0  0  0  0  0  0  0  0  0
   14.2028   -0.2090   25.2955 H   0  0  0  0  0  0  0  0  0  0  0  0
   14.1048    2.1042   21.6752 H   0  0  0  0  0  0  0  0  0  0  0  0
    3.2801    2.7808   19.3164 H   0  0  0  0  0  0  0  0  0  0  0  0
    5.4892    0.4523   22.2166 H   0  0  0  0  0  0  0  0  0  0  0  0
   11.7330   -0.1555   25.4027 H   0  0  0  0  0  0  0  0  0  0  0  0
   11.6349    2.1636   21.7735 H   0  0  0  0  0  0  0  0  0  0  0  0
    4.7762    2.0781   17.4596 H   0  0  0  0  0  0  0  0  0  0  0  0
    7.5639   -2.8621   26.1045 H   0  0  0  0  0  0  0  0  0  0  0  0
   11.0141   -4.2644   23.9422 H   0  0  0  0  0  0  0  0  0  0  0  0
    7.5950   -0.7788   24.8007 H   0  0  0  0  0  0  0  0  0  0  0  0
   11.0408   -2.1861   22.6359 H   0  0  0  0  0  0  0  0  0  0  0  0
    7.3516   -6.9810   27.6812 H   0  0  0  0  0  0  0  0  0  0  0  0
    8.4757   -7.5428   26.4371 H   0  0  0  0  0  0  0  0  0  0  0  0
    9.1234   -5.9016   28.9400 H   0  0  0  0  0  0  0  0  0  0  0  0
    9.5778   -7.5840   28.6491 H   0  0  0  0  0  0  0  0  0  0  0  0
   11.1305   -5.3108   28.0523 H   0  0  0  0  0  0  0  0  0  0  0  0
   11.4565   -6.9587   27.5131 H   0  0  0  0  0  0  0  0  0  0  0  0
   11.3212   -5.0729   25.7168 H   0  0  0  0  0  0  0  0  0  0  0  0
   10.4483   -6.5796   25.3796 H   0  0  0  0  0  0  0  0  0  0  0  0
    9.6778    1.0140   24.6966 H   0  0  0  0  0  0  0  0  0  0  0  0
    9.6316    1.9637   23.2107 H   0  0  0  0  0  0  0  0  0  0  0  0
    7.4781   -1.4136   21.8845 H   0  0  0  0  0  0  0  0  0  0  0  0
    8.7420   -1.7550   20.6889 H   0  0  0  0  0  0  0  0  0  0  0  0
    8.4371   -1.0264   18.3897 H   0  0  0  0  0  0  0  0  0  0  0  0
  1  3  1  0  0  0  0
  1  4  2  0  0  0  0
  2  5  1  0  0  0  0
  2  6  2  0  0  0  0
  3  7  2  0  0  0  0
  4  8  1  0  0  0  0
  5  9  2  0  0  0  0
  6 14  1  0  0  0  0
  7 15  1  0  0  0  0
  8 15  2  0  0  0  0
  9 16  1  0  0  0  0
 10 12  2  0  0  0  0
 10 17  1  0  0  0  0
 11 13  1  0  0  0  0
 11 17  2  0  0  0  0
 12 18  1  0  0  0  0
 13 18  2  0  0  0  0
 14 16  1  0  0  0  0
 14 19  2  0  0  0  0
 15 26  1  0  0  0  0
 16 28  2  0  0  0  0
 17 30  1  0  0  0  0
 18 31  1  0  0  0  0
 19 27  1  0  0  0  0
 19 29  1  0  0  0  0
 20 22  1  0  0  0  0
 20 30  1  0  0  0  0
 20 32  2  0  0  0  0
 21 27  1  0  0  0  0
 21 31  1  0  0  0  0
 21 33  2  0  0  0  0
 22 23  1  0  0  0  0
 23 24  1  0  0  0  0
 24 25  1  0  0  0  0
 25 30  1  0  0  0  0
 26 31  1  0  0  0  0
 28 29  1  0  0  0  0
  1 34  1  0  0  0  0
  2 35  1  0  0  0  0
  3 36  1  0  0  0  0
  4 37  1  0  0  0  0
  5 38  1  0  0  0  0
  6 39  1  0  0  0  0
  7 40  1  0  0  0  0
  8 41  1  0  0  0  0
  9 42  1  0  0  0  0
 10 43  1  0  0  0  0
 11 44  1  0  0  0  0
 12 45  1  0  0  0  0
 13 46  1  0  0  0  0
 22 47  1  0  0  0  0
 22 48  1  0  0  0  0
 23 49  1  0  0  0  0
 23 50  1  0  0  0  0
 24 51  1  0  0  0  0
 24 52  1  0  0  0  0
 25 53  1  0  0  0  0
 25 54  1  0  0  0  0
 26 55  1  0  0  0  0
 26 56  1  0  0  0  0
 27 57  1  0  0  0  0
 27 58  1  0  0  0  0
 29 59  1  0  0  0  0
M  END
> <clash_score>
1.272782601224562

> <docking_score>
-7.666972637176514

> <overlap_score>
1.0159265995025635

$$$$
BENZO_412_1
  -OEChem-08222022423D

 56 60  0     0  0  0  0  0  0999 V2000
    4.2970    1.6690   20.8430 C   0  0  0  0  0  0  0  0  0  0  0  0
    4.0980    2.1130   19.5350 C   0  0  0  0  0  0  0  0  0  0  0  0
    5.3360    0.8000   21.1530 C   0  0  0  0  0  0  0  0  0  0  0  0
    4.9400    1.7060   18.5060 C   0  0  0  0  0  0  0  0  0  0  0  0
    8.3310   -2.7170   25.3430 C   0  0  0  0  0  0  0  0  0  0  0  0
   10.2570   -3.5000   24.1350 C   0  0  0  0  0  0  0  0  0  0  0  0
    8.3510   -1.5420   24.6110 C   0  0  0  0  0  0  0  0  0  0  0  0
   10.2760   -2.3270   23.4020 C   0  0  0  0  0  0  0  0  0  0  0  0
   12.2675    1.0332   22.3812 C   0  0  0  0  0  0  0  0  0  0  0  0
   13.6257    0.9906   22.6074 C   0  0  0  0  0  0  0  0  0  0  0  0
   12.3384    0.9467   24.7028 C   0  0  0  0  0  0  0  0  0  0  0  0
    6.1600    0.3870   20.1140 C   0  0  0  0  0  0  0  0  0  0  0  0
   11.5217    1.0079   23.5949 C   0  0  0  0  0  0  0  0  0  0  0  0
    5.9810    0.8330   18.8060 C   0  0  0  0  0  0  0  0  0  0  0  0
    9.2850   -3.7090   25.1090 C   0  0  0  0  0  0  0  0  0  0  0  0
    9.3300   -1.3350   23.6390 C   0  0  0  0  0  0  0  0  0  0  0  0
    7.2210   -0.4620   20.0350 C   0  0  0  0  0  0  0  0  0  0  0  0
    8.0635   -5.4710   26.3667 C   0  0  0  0  0  0  0  0  0  0  0  0
    8.9510    0.1280   21.6880 C   0  0  0  0  0  0  0  0  0  0  0  0
    8.2626   -6.7580   27.1475 C   0  0  0  0  0  0  0  0  0  0  0  0
    9.4048   -6.6156   28.1380 C   0  0  0  0  0  0  0  0  0  0  0  0
   10.6949   -6.1500   27.4702 C   0  0  0  0  0  0  0  0  0  0  0  0
   10.4942   -5.7069   26.0219 C   0  0  0  0  0  0  0  0  0  0  0  0
   10.0220    1.0430   23.6570 C   0  0  0  0  0  0  0  0  0  0  0  0
    8.0810   -0.9750   21.0820 C   0  0  0  0  0  0  0  0  0  0  0  0
    6.9440    0.2550   18.0100 N   0  0  0  0  0  0  0  0  0  0  0  0
    7.6830   -0.5170   18.7600 N   0  0  0  0  0  0  0  0  0  0  0  0
    9.2623   -4.9266   25.8635 N   0  0  0  0  0  0  0  0  0  0  0  0
    9.4200   -0.0840   22.9530 N   0  0  0  0  0  0  0  0  0  0  0  0
    6.9244   -5.0476   26.1739 O   0  0  0  0  0  0  0  0  0  0  0  0
    9.1870    1.1500   21.0630 O   0  0  0  0  0  0  0  0  0  0  0  0
   13.9969    0.9202   24.2776 S   0  0  0  0  0  0  0  0  0  0  0  0
    3.6362    2.0028   21.6259 H   0  0  0  0  0  0  0  0  0  0  0  0
    3.2801    2.7808   19.3164 H   0  0  0  0  0  0  0  0  0  0  0  0
    5.4892    0.4523   22.2166 H   0  0  0  0  0  0  0  0  0  0  0  0
    4.7762    2.0781   17.4596 H   0  0  0  0  0  0  0  0  0  0  0  0
    7.5639   -2.8621   26.1045 H   0  0  0  0  0  0  0  0  0  0  0  0
   11.0141   -4.2644   23.9422 H   0  0  0  0  0  0  0  0  0  0  0  0
    7.5950   -0.7788   24.8007 H   0  0  0  0  0  0  0  0  0  0  0  0
   11.0408   -2.1861   22.6359 H   0  0  0  0  0  0  0  0  0  0  0  0
   11.8338    1.0798   21.3902 H   0  0  0  0  0  0  0  0  0  0  0  0
   14.4176    0.9966   21.8719 H   0  0  0  0  0  0  0  0  0  0  0  0
   12.0446    0.9149   25.7428 H   0  0  0  0  0  0  0  0  0  0  0  0
    7.3516   -6.9810   27.6812 H   0  0  0  0  0  0  0  0  0  0  0  0
    8.4757   -7.5428   26.4371 H   0  0  0  0  0  0  0  0  0  0  0  0
    9.1234   -5.9016   28.9400 H   0  0  0  0  0  0  0  0  0  0  0  0
    9.5778   -7.5840   28.6491 H   0  0  0  0  0  0  0  0  0  0  0  0
   11.1305   -5.3108   28.0523 H   0  0  0  0  0  0  0  0  0  0  0  0
   11.4565   -6.9587   27.5131 H   0  0  0  0  0  0  0  0  0  0  0  0
   11.3212   -5.0729   25.7168 H   0  0  0  0  0  0  0  0  0  0  0  0
   10.4483   -6.5796   25.3796 H   0  0  0  0  0  0  0  0  0  0  0  0
    9.6778    1.0140   24.6966 H   0  0  0  0  0  0  0  0  0  0  0  0
    9.6316    1.9637   23.2107 H   0  0  0  0  0  0  0  0  0  0  0  0
    7.4781   -1.4136   21.8845 H   0  0  0  0  0  0  0  0  0  0  0  0
    8.7420   -1.7550   20.6889 H   0  0  0  0  0  0  0  0  0  0  0  0
    8.4371   -1.0264   18.3897 H   0  0  0  0  0  0  0  0  0  0  0  0
  1  2  1  0  0  0  0
  1  3  2  0  0  0  0
  2  4  2  0  0  0  0
  3 12  1  0  0  0  0
  4 14  1  0  0  0  0
  5  7  2  0  0  0  0
  5 15  1  0  0  0  0
  6  8  1  0  0  0  0
  6 15  2  0  0  0  0
  7 16  1  0  0  0  0
  8 16  2  0  0  0  0
  9 10  2  0  0  0  0
  9 13  1  0  0  0  0
 10 32  1  0  0  0  0
 11 13  2  0  0  0  0
 11 32  1  0  0  0  0
 12 14  1  0  0  0  0
 12 17  2  0  0  0  0
 13 24  1  0  0  0  0
 14 26  2  0  0  0  0
 15 28  1  0  0  0  0
 16 29  1  0  0  0  0
 17 25  1  0  0  0  0
 17 27  1  0  0  0  0
 18 20  1  0  0  0  0
 18 28  1  0  0  0  0
 18 30  2  0  0  0  0
 19 25  1  0  0  0  0
 19 29  1  0  0  0  0
 19 31  2  0  0  0  0
 20 21  1  0  0  0  0
 21 22  1  0  0  0  0
 22 23  1  0  0  0  0
 23 28  1  0  0  0  0
 24 29  1  0  0  0  0
 26 27  1  0  0  0  0
  1 33  1  0  0  0  0
  2 34  1  0  0  0  0
  3 35  1  0  0  0  0
  4 36  1  0  0  0  0
  5 37  1  0  0  0  0
  6 38  1  0  0  0  0
  7 39  1  0  0  0  0
  8 40  1  0  0  0  0
  9 41  1  0  0  0  0
 10 42  1  0  0  0  0
 11 43  1  0  0  0  0
 20 44  1  0  0  0  0
 20 45  1  0  0  0  0
 21 46  1  0  0  0  0
 21 47  1  0  0  0  0
 22 48  1  0  0  0  0
 22 49  1  0  0  0  0
 23 50  1  0  0  0  0
 23 51  1  0  0  0  0
 24 52  1  0  0  0  0
 24 53  1  0  0  0  0
 25 54  1  0  0  0  0
 25 55  1  0  0  0  0
 27 56  1  0  0  0  0
M  END
> <clash_score>
1.272782601224562

> <docking_score>
-7.913174152374268

> <overlap_score>
0.9903323650360107

$$$$
BENZO_417_1
  -OEChem-08222022423D

 58 62  0     0  0  0  0  0  0999 V2000
   14.3082    0.9431   23.4783 C   0  0  0  0  0  0  0  0  0  0  0  0
    4.2970    1.6690   20.8430 C   0  0  0  0  0  0  0  0  0  0  0  0
   13.6391    0.3091   24.5251 C   0  0  0  0  0  0  0  0  0  0  0  0
   13.5841    1.6096   22.4898 C   0  0  0  0  0  0  0  0  0  0  0  0
    4.0980    2.1130   19.5350 C   0  0  0  0  0  0  0  0  0  0  0  0
    5.3360    0.8000   21.1530 C   0  0  0  0  0  0  0  0  0  0  0  0
   12.2459    0.3415   24.5835 C   0  0  0  0  0  0  0  0  0  0  0  0
   12.1908    1.6420   22.5481 C   0  0  0  0  0  0  0  0  0  0  0  0
    4.9400    1.7060   18.5060 C   0  0  0  0  0  0  0  0  0  0  0  0
    8.3310   -2.7170   25.3430 C   0  0  0  0  0  0  0  0  0  0  0  0
   10.2570   -3.5000   24.1350 C   0  0  0  0  0  0  0  0  0  0  0  0
    8.3510   -1.5420   24.6110 C   0  0  0  0  0  0  0  0  0  0  0  0
   10.2760   -2.3270   23.4020 C   0  0  0  0  0  0  0  0  0  0  0  0
    6.1600    0.3870   20.1140 C   0  0  0  0  0  0  0  0  0  0  0  0
   11.5217    1.0079   23.5949 C   0  0  0  0  0  0  0  0  0  0  0  0
    5.9810    0.8330   18.8060 C   0  0  0  0  0  0  0  0  0  0  0  0
    9.2850   -3.7090   25.1090 C   0  0  0  0  0  0  0  0  0  0  0  0
    9.3300   -1.3350   23.6390 C   0  0  0  0  0  0  0  0  0  0  0  0
    7.2210   -0.4620   20.0350 C   0  0  0  0  0  0  0  0  0  0  0  0
    8.9510    0.1280   21.6880 C   0  0  0  0  0  0  0  0  0  0  0  0
    8.7666   -4.9523   27.2147 C   0  0  0  0  0  0  0  0  0  0  0  0
    9.3034   -6.1866   25.1651 C   0  0  0  0  0  0  0  0  0  0  0  0
    7.3827   -5.5925   27.1999 C   0  0  0  0  0  0  0  0  0  0  0  0
    7.9024   -6.7967   25.2263 C   0  0  0  0  0  0  0  0  0  0  0  0
   10.0220    1.0430   23.6570 C   0  0  0  0  0  0  0  0  0  0  0  0
    8.0810   -0.9750   21.0820 C   0  0  0  0  0  0  0  0  0  0  0  0
    6.9440    0.2550   18.0100 N   0  0  0  0  0  0  0  0  0  0  0  0
    7.6830   -0.5170   18.7600 N   0  0  0  0  0  0  0  0  0  0  0  0
    9.2640   -4.8844   25.8389 N   0  0  0  0  0  0  0  0  0  0  0  0
    9.4200   -0.0840   22.9530 N   0  0  0  0  0  0  0  0  0  0  0  0
    9.1870    1.1500   21.0630 O   0  0  0  0  0  0  0  0  0  0  0  0
    7.4483   -6.8833   26.5817 O   0  0  0  0  0  0  0  0  0  0  0  0
   15.3932    0.9189   23.4337 H   0  0  0  0  0  0  0  0  0  0  0  0
    3.6362    2.0028   21.6260 H   0  0  0  0  0  0  0  0  0  0  0  0
   14.2029   -0.2090   25.2955 H   0  0  0  0  0  0  0  0  0  0  0  0
   14.1048    2.1043   21.6752 H   0  0  0  0  0  0  0  0  0  0  0  0
    3.2801    2.7808   19.3164 H   0  0  0  0  0  0  0  0  0  0  0  0
    5.4892    0.4523   22.2166 H   0  0  0  0  0  0  0  0  0  0  0  0
   11.7330   -0.1555   25.4027 H   0  0  0  0  0  0  0  0  0  0  0  0
   11.6349    2.1636   21.7735 H   0  0  0  0  0  0  0  0  0  0  0  0
    4.7762    2.0781   17.4596 H   0  0  0  0  0  0  0  0  0  0  0  0
    7.5647   -2.8621   26.1053 H   0  0  0  0  0  0  0  0  0  0  0  0
   11.0144   -4.2642   23.9425 H   0  0  0  0  0  0  0  0  0  0  0  0
    7.5958   -0.7779   24.8006 H   0  0  0  0  0  0  0  0  0  0  0  0
   11.0406   -2.1848   22.6356 H   0  0  0  0  0  0  0  0  0  0  0  0
    8.7030   -3.9561   27.6574 H   0  0  0  0  0  0  0  0  0  0  0  0
    9.4460   -5.5639   27.8143 H   0  0  0  0  0  0  0  0  0  0  0  0
   10.0083   -6.8392   25.6817 H   0  0  0  0  0  0  0  0  0  0  0  0
    9.6089   -6.0802   24.1251 H   0  0  0  0  0  0  0  0  0  0  0  0
    7.0281   -5.7334   28.2231 H   0  0  0  0  0  0  0  0  0  0  0  0
    6.6541   -4.9678   26.6754 H   0  0  0  0  0  0  0  0  0  0  0  0
    7.1860   -6.2177   24.6318 H   0  0  0  0  0  0  0  0  0  0  0  0
    7.9246   -7.8119   24.8187 H   0  0  0  0  0  0  0  0  0  0  0  0
    9.6778    1.0140   24.6966 H   0  0  0  0  0  0  0  0  0  0  0  0
    9.6316    1.9637   23.2107 H   0  0  0  0  0  0  0  0  0  0  0  0
    7.4781   -1.4136   21.8845 H   0  0  0  0  0  0  0  0  0  0  0  0
    8.7420   -1.7550   20.6889 H   0  0  0  0  0  0  0  0  0  0  0  0
    8.4371   -1.0264   18.3897 H   0  0  0  0  0  0  0  0  0  0  0  0
  1  3  1  0  0  0  0
  1  4  2  0  0  0  0
  2  5  1  0  0  0  0
  2  6  2  0  0  0  0
  3  7  2  0  0  0  0
  4  8  1  0  0  0  0
  5  9  2  0  0  0  0
  6 14  1  0  0  0  0
  7 15  1  0  0  0  0
  8 15  2  0  0  0  0
  9 16  1  0  0  0  0
 10 12  2  0  0  0  0
 10 17  1  0  0  0  0
 11 13  1  0  0  0  0
 11 17  2  0  0  0  0
 12 18  1  0  0  0  0
 13 18  2  0  0  0  0
 14 16  1  0  0  0  0
 14 19  2  0  0  0  0
 15 25  1  0  0  0  0
 16 27  2  0  0  0  0
 17 29  1  0  0  0  0
 18 30  1  0  0  0  0
 19 26  1  0  0  0  0
 19 28  1  0  0  0  0
 20 26  1  0  0  0  0
 20 30  1  0  0  0  0
 20 31  2  0  0  0  0
 21 23  1  0  0  0  0
 21 29  1  0  0  0  0
 22 24  1  0  0  0  0
 22 29  1  0  0  0  0
 23 32  1  0  0  0  0
 24 32  1  0  0  0  0
 25 30  1  0  0  0  0
 27 28  1  0  0  0  0
  1 33  1  0  0  0  0
  2 34  1  0  0  0  0
  3 35  1  0  0  0  0
  4 36  1  0  0  0  0
  5 37  1  0  0  0  0
  6 38  1  0  0  0  0
  7 39  1  0  0  0  0
  8 40  1  0  0  0  0
  9 41  1  0  0  0  0
 10 42  1  0  0  0  0
 11 43  1  0  0  0  0
 12 44  1  0  0  0  0
 13 45  1  0  0  0  0
 21 46  1  0  0  0  0
 21 47  1  0  0  0  0
 22 48  1  0  0  0  0
 22 49  1  0  0  0  0
 23 50  1  0  0  0  0
 23 51  1  0  0  0  0
 24 52  1  0  0  0  0
 24 53  1  0  0  0  0
 25 54  1  0  0  0  0
 25 55  1  0  0  0  0
 26 56  1  0  0  0  0
 26 57  1  0  0  0  0
 28 58  1  0  0  0  0
M  END
> <clash_score>
0

> <docking_score>
-8.912101745605469

> <overlap_score>
1.016516089439392

$$$$
BENZO_415_1
  -OEChem-08222022423D

 59 63  0     0  0  0  0  0  0999 V2000
    4.2970    1.6690   20.8430 C   0  0  0  0  0  0  0  0  0  0  0  0
    4.0980    2.1130   19.5350 C   0  0  0  0  0  0  0  0  0  0  0  0
    5.3360    0.8000   21.1530 C   0  0  0  0  0  0  0  0  0  0  0  0
    4.9400    1.7060   18.5060 C   0  0  0  0  0  0  0  0  0  0  0  0
    8.3310   -2.7170   25.3430 C   0  0  0  0  0  0  0  0  0  0  0  0
   10.2570   -3.5000   24.1350 C   0  0  0  0  0  0  0  0  0  0  0  0
    8.3510   -1.5420   24.6110 C   0  0  0  0  0  0  0  0  0  0  0  0
   10.2760   -2.3270   23.4020 C   0  0  0  0  0  0  0  0  0  0  0  0
   12.4359    1.7439   24.3724 C   0  0  0  0  0  0  0  0  0  0  0  0
   12.3100    0.2469   22.7668 C   0  0  0  0  0  0  0  0  0  0  0  0
    6.1600    0.3870   20.1140 C   0  0  0  0  0  0  0  0  0  0  0  0
   11.5217    1.0079   23.5949 C   0  0  0  0  0  0  0  0  0  0  0  0
    5.9810    0.8330   18.8060 C   0  0  0  0  0  0  0  0  0  0  0  0
    9.2850   -3.7090   25.1090 C   0  0  0  0  0  0  0  0  0  0  0  0
    9.3300   -1.3350   23.6390 C   0  0  0  0  0  0  0  0  0  0  0  0
    7.2210   -0.4620   20.0350 C   0  0  0  0  0  0  0  0  0  0  0  0
    8.2934   -5.1724   26.8574 C   0  0  0  0  0  0  0  0  0  0  0  0
    8.9510    0.1280   21.6880 C   0  0  0  0  0  0  0  0  0  0  0  0
    8.4443   -6.5251   27.5306 C   0  0  0  0  0  0  0  0  0  0  0  0
    8.6421   -7.6210   26.4982 C   0  0  0  0  0  0  0  0  0  0  0  0
    9.8032   -7.3237   25.5546 C   0  0  0  0  0  0  0  0  0  0  0  0
   10.3452   -5.9024   25.6995 C   0  0  0  0  0  0  0  0  0  0  0  0
   14.7884    0.0124   22.4815 C   0  0  0  0  0  0  0  0  0  0  0  0
   10.0220    1.0430   23.6570 C   0  0  0  0  0  0  0  0  0  0  0  0
    8.0810   -0.9750   21.0820 C   0  0  0  0  0  0  0  0  0  0  0  0
   13.7076    1.4745   24.0657 N   0  0  0  0  0  0  0  0  0  0  0  0
    6.9440    0.2550   18.0100 N   0  0  0  0  0  0  0  0  0  0  0  0
    7.6830   -0.5170   18.7600 N   0  0  0  0  0  0  0  0  0  0  0  0
   13.5982    0.5607   23.0864 N   0  0  0  0  0  0  0  0  0  0  0  0
    9.2623   -4.9267   25.8636 N   0  0  0  0  0  0  0  0  0  0  0  0
    9.4200   -0.0840   22.9530 N   0  0  0  0  0  0  0  0  0  0  0  0
    7.4269   -4.3921   27.2503 O   0  0  0  0  0  0  0  0  0  0  0  0
    9.1870    1.1500   21.0630 O   0  0  0  0  0  0  0  0  0  0  0  0
    3.6362    2.0028   21.6259 H   0  0  0  0  0  0  0  0  0  0  0  0
    3.2801    2.7808   19.3164 H   0  0  0  0  0  0  0  0  0  0  0  0
    5.4892    0.4523   22.2166 H   0  0  0  0  0  0  0  0  0  0  0  0
    4.7762    2.0781   17.4596 H   0  0  0  0  0  0  0  0  0  0  0  0
    7.5639   -2.8621   26.1045 H   0  0  0  0  0  0  0  0  0  0  0  0
   11.0141   -4.2644   23.9422 H   0  0  0  0  0  0  0  0  0  0  0  0
    7.5950   -0.7788   24.8007 H   0  0  0  0  0  0  0  0  0  0  0  0
   11.0408   -2.1861   22.6359 H   0  0  0  0  0  0  0  0  0  0  0  0
   12.2308    2.4652   25.1508 H   0  0  0  0  0  0  0  0  0  0  0  0
   12.0700   -0.4744   21.9974 H   0  0  0  0  0  0  0  0  0  0  0  0
    9.3021   -6.4901   28.1844 H   0  0  0  0  0  0  0  0  0  0  0  0
    7.5489   -6.7067   28.1060 H   0  0  0  0  0  0  0  0  0  0  0  0
    8.8161   -8.5925   27.0061 H   0  0  0  0  0  0  0  0  0  0  0  0
    7.7102   -7.7540   25.9127 H   0  0  0  0  0  0  0  0  0  0  0  0
   10.6240   -8.0484   25.7384 H   0  0  0  0  0  0  0  0  0  0  0  0
    9.4907   -7.5005   24.5024 H   0  0  0  0  0  0  0  0  0  0  0  0
   10.9741   -5.8406   26.5826 H   0  0  0  0  0  0  0  0  0  0  0  0
   10.9262   -5.6455   24.8203 H   0  0  0  0  0  0  0  0  0  0  0  0
   15.0569    0.6453   21.6315 H   0  0  0  0  0  0  0  0  0  0  0  0
   15.5971   -0.0026   23.2174 H   0  0  0  0  0  0  0  0  0  0  0  0
   14.5870   -1.0100   22.1498 H   0  0  0  0  0  0  0  0  0  0  0  0
    9.6778    1.0140   24.6966 H   0  0  0  0  0  0  0  0  0  0  0  0
    9.6316    1.9637   23.2107 H   0  0  0  0  0  0  0  0  0  0  0  0
    7.4781   -1.4136   21.8845 H   0  0  0  0  0  0  0  0  0  0  0  0
    8.7420   -1.7550   20.6889 H   0  0  0  0  0  0  0  0  0  0  0  0
    8.4371   -1.0264   18.3897 H   0  0  0  0  0  0  0  0  0  0  0  0
  1  2  1  0  0  0  0
  1  3  2  0  0  0  0
  2  4  2  0  0  0  0
  3 11  1  0  0  0  0
  4 13  1  0  0  0  0
  5  7  2  0  0  0  0
  5 14  1  0  0  0  0
  6  8  1  0  0  0  0
  6 14  2  0  0  0  0
  7 15  1  0  0  0  0
  8 15  2  0  0  0  0
  9 12  1  0  0  0  0
  9 26  2  0  0  0  0
 10 12  2  0  0  0  0
 10 29  1  0  0  0  0
 11 13  1  0  0  0  0
 11 16  2  0  0  0  0
 12 24  1  0  0  0  0
 13 27  2  0  0  0  0
 14 30  1  0  0  0  0
 15 31  1  0  0  0  0
 16 25  1  0  0  0  0
 16 28  1  0  0  0  0
 17 19  1  0  0  0  0
 17 30  1  0  0  0  0
 17 32  2  0  0  0  0
 18 25  1  0  0  0  0
 18 31  1  0  0  0  0
 18 33  2  0  0  0  0
 19 20  1  0  0  0  0
 20 21  1  0  0  0  0
 21 22  1  0  0  0  0
 22 30  1  0  0  0  0
 23 29  1  0  0  0  0
 24 31  1  0  0  0  0
 26 29  1  0  0  0  0
 27 28  1  0  0  0  0
  1 34  1  0  0  0  0
  2 35  1  0  0  0  0
  3 36  1  0  0  0  0
  4 37  1  0  0  0  0
  5 38  1  0  0  0  0
  6 39  1  0  0  0  0
  7 40  1  0  0  0  0
  8 41  1  0  0  0  0
  9 42  1  0  0  0  0
 10 43  1  0  0  0  0
 19 44  1  0  0  0  0
 19 45  1  0  0  0  0
 20 46  1  0  0  0  0
 20 47  1  0  0  0  0
 21 48  1  0  0  0  0
 21 49  1  0  0  0  0
 22 50  1  0  0  0  0
 22 51  1  0  0  0  0
 23 52  1  0  0  0  0
 23 53  1  0  0  0  0
 23 54  1  0  0  0  0
 24 55  1  0  0  0  0
 24 56  1  0  0  0  0
 25 57  1  0  0  0  0
 25 58  1  0  0  0  0
 28 59  1  0  0  0  0
M  END
> <clash_score>
0.6927847163055834

> <docking_score>
-7.6572675704956055

> <overlap_score>
1.0033575296401978

$$$$
BENZO_414_1
  -OEChem-08222022423D

 59 63  0     0  0  0  0  0  0999 V2000
    4.2970    1.6690   20.8430 C   0  0  0  0  0  0  0  0  0  0  0  0
    4.0980    2.1130   19.5350 C   0  0  0  0  0  0  0  0  0  0  0  0
   13.5977    1.8457   22.6865 C   0  0  0  0  0  0  0  0  0  0  0  0
    5.3360    0.8000   21.1530 C   0  0  0  0  0  0  0  0  0  0  0  0
   12.2044    1.8769   22.7438 C   0  0  0  0  0  0  0  0  0  0  0  0
    4.9400    1.7060   18.5060 C   0  0  0  0  0  0  0  0  0  0  0  0
    8.3310   -2.7170   25.3430 C   0  0  0  0  0  0  0  0  0  0  0  0
   10.2570   -3.5000   24.1350 C   0  0  0  0  0  0  0  0  0  0  0  0
    8.3510   -1.5420   24.6110 C   0  0  0  0  0  0  0  0  0  0  0  0
   10.2760   -2.3270   23.4020 C   0  0  0  0  0  0  0  0  0  0  0  0
   14.3084    0.9453   23.4803 C   0  0  0  0  0  0  0  0  0  0  0  0
   12.2323    0.1076   24.3888 C   0  0  0  0  0  0  0  0  0  0  0  0
    6.1600    0.3870   20.1140 C   0  0  0  0  0  0  0  0  0  0  0  0
   11.5217    1.0079   23.5949 C   0  0  0  0  0  0  0  0  0  0  0  0
    5.9810    0.8330   18.8060 C   0  0  0  0  0  0  0  0  0  0  0  0
    9.2850   -3.7090   25.1090 C   0  0  0  0  0  0  0  0  0  0  0  0
    9.3300   -1.3350   23.6390 C   0  0  0  0  0  0  0  0  0  0  0  0
   13.6257    0.0764   24.3314 C   0  0  0  0  0  0  0  0  0  0  0  0
    7.2210   -0.4620   20.0350 C   0  0  0  0  0  0  0  0  0  0  0  0
    8.2930   -5.1714   26.8572 C   0  0  0  0  0  0  0  0  0  0  0  0
    8.9510    0.1280   21.6880 C   0  0  0  0  0  0  0  0  0  0  0  0
    8.4551   -6.5156   27.5444 C   0  0  0  0  0  0  0  0  0  0  0  0
    9.9019   -6.7444   27.9450 C   0  0  0  0  0  0  0  0  0  0  0  0
   10.8596   -6.5882   26.7680 C   0  0  0  0  0  0  0  0  0  0  0  0
   10.1895   -6.0108   25.5223 C   0  0  0  0  0  0  0  0  0  0  0  0
   10.0220    1.0430   23.6570 C   0  0  0  0  0  0  0  0  0  0  0  0
    8.0810   -0.9750   21.0820 C   0  0  0  0  0  0  0  0  0  0  0  0
    6.9440    0.2550   18.0100 N   0  0  0  0  0  0  0  0  0  0  0  0
    7.6830   -0.5170   18.7600 N   0  0  0  0  0  0  0  0  0  0  0  0
    9.2623   -4.9266   25.8635 N   0  0  0  0  0  0  0  0  0  0  0  0
    9.4200   -0.0840   22.9530 N   0  0  0  0  0  0  0  0  0  0  0  0
    7.3370   -4.4527   27.1463 O   0  0  0  0  0  0  0  0  0  0  0  0
    9.1870    1.1500   21.0630 O   0  0  0  0  0  0  0  0  0  0  0  0
   14.5031   -1.0334   25.3114 Cl  0  0  0  0  0  0  0  0  0  0  0  0
    3.6362    2.0028   21.6259 H   0  0  0  0  0  0  0  0  0  0  0  0
    3.2801    2.7808   19.3164 H   0  0  0  0  0  0  0  0  0  0  0  0
   14.1289    2.5226   22.0237 H   0  0  0  0  0  0  0  0  0  0  0  0
    5.4892    0.4523   22.2166 H   0  0  0  0  0  0  0  0  0  0  0  0
   11.6588    2.5818   22.1218 H   0  0  0  0  0  0  0  0  0  0  0  0
    4.7762    2.0781   17.4596 H   0  0  0  0  0  0  0  0  0  0  0  0
    7.5639   -2.8621   26.1045 H   0  0  0  0  0  0  0  0  0  0  0  0
   11.0141   -4.2644   23.9422 H   0  0  0  0  0  0  0  0  0  0  0  0
    7.5950   -0.7788   24.8007 H   0  0  0  0  0  0  0  0  0  0  0  0
   11.0408   -2.1861   22.6359 H   0  0  0  0  0  0  0  0  0  0  0  0
   15.3941    0.9323   23.4255 H   0  0  0  0  0  0  0  0  0  0  0  0
   11.6954   -0.5682   25.0504 H   0  0  0  0  0  0  0  0  0  0  0  0
    7.8332   -6.5283   28.4263 H   0  0  0  0  0  0  0  0  0  0  0  0
    8.1305   -7.2787   26.8530 H   0  0  0  0  0  0  0  0  0  0  0  0
   10.1875   -6.0379   28.7521 H   0  0  0  0  0  0  0  0  0  0  0  0
   10.0116   -7.7568   28.3834 H   0  0  0  0  0  0  0  0  0  0  0  0
   11.7061   -5.9337   27.0644 H   0  0  0  0  0  0  0  0  0  0  0  0
   11.3230   -7.5689   26.5243 H   0  0  0  0  0  0  0  0  0  0  0  0
   10.9445   -5.5959   24.8614 H   0  0  0  0  0  0  0  0  0  0  0  0
    9.6461   -6.7954   25.0072 H   0  0  0  0  0  0  0  0  0  0  0  0
    9.6778    1.0140   24.6966 H   0  0  0  0  0  0  0  0  0  0  0  0
    9.6316    1.9637   23.2107 H   0  0  0  0  0  0  0  0  0  0  0  0
    7.4781   -1.4136   21.8845 H   0  0  0  0  0  0  0  0  0  0  0  0
    8.7420   -1.7550   20.6889 H   0  0  0  0  0  0  0  0  0  0  0  0
    8.4371   -1.0264   18.3897 H   0  0  0  0  0  0  0  0  0  0  0  0
  1  2  1  0  0  0  0
  1  4  2  0  0  0  0
  2  6  2  0  0  0  0
  3  5  2  0  0  0  0
  3 11  1  0  0  0  0
  4 13  1  0  0  0  0
  5 14  1  0  0  0  0
  6 15  1  0  0  0  0
  7  9  2  0  0  0  0
  7 16  1  0  0  0  0
  8 10  1  0  0  0  0
  8 16  2  0  0  0  0
  9 17  1  0  0  0  0
 10 17  2  0  0  0  0
 11 18  2  0  0  0  0
 12 14  2  0  0  0  0
 12 18  1  0  0  0  0
 13 15  1  0  0  0  0
 13 19  2  0  0  0  0
 14 26  1  0  0  0  0
 15 28  2  0  0  0  0
 16 30  1  0  0  0  0
 17 31  1  0  0  0  0
 18 34  1  0  0  0  0
 19 27  1  0  0  0  0
 19 29  1  0  0  0  0
 20 22  1  0  0  0  0
 20 30  1  0  0  0  0
 20 32  2  0  0  0  0
 21 27  1  0  0  0  0
 21 31  1  0  0  0  0
 21 33  2  0  0  0  0
 22 23  1  0  0  0  0
 23 24  1  0  0  0  0
 24 25  1  0  0  0  0
 25 30  1  0  0  0  0
 26 31  1  0  0  0  0
 28 29  1  0  0  0  0
  1 35  1  0  0  0  0
  2 36  1  0  0  0  0
  3 37  1  0  0  0  0
  4 38  1  0  0  0  0
  5 39  1  0  0  0  0
  6 40  1  0  0  0  0
  7 41  1  0  0  0  0
  8 42  1  0  0  0  0
  9 43  1  0  0  0  0
 10 44  1  0  0  0  0
 11 45  1  0  0  0  0
 12 46  1  0  0  0  0
 22 47  1  0  0  0  0
 22 48  1  0  0  0  0
 23 49  1  0  0  0  0
 23 50  1  0  0  0  0
 24 51  1  0  0  0  0
 24 52  1  0  0  0  0
 25 53  1  0  0  0  0
 25 54  1  0  0  0  0
 26 55  1  0  0  0  0
 26 56  1  0  0  0  0
 27 57  1  0  0  0  0
 27 58  1  0  0  0  0
 29 59  1  0  0  0  0
M  END
> <clash_score>
2.8259427848402625

> <docking_score>
-6.859703540802002

> <overlap_score>
1.021795392036438

$$$$
BENZO_416_1
  -OEChem-08222022423D

 55 59  0     0  0  0  0  0  0999 V2000
    4.2970    1.6690   20.8430 C   0  0  0  0  0  0  0  0  0  0  0  0
    4.0980    2.1130   19.5350 C   0  0  0  0  0  0  0  0  0  0  0  0
    5.3360    0.8000   21.1530 C   0  0  0  0  0  0  0  0  0  0  0  0
    4.9400    1.7060   18.5060 C   0  0  0  0  0  0  0  0  0  0  0  0
    8.3310   -2.7170   25.3430 C   0  0  0  0  0  0  0  0  0  0  0  0
   10.2570   -3.5000   24.1350 C   0  0  0  0  0  0  0  0  0  0  0  0
    8.3510   -1.5420   24.6110 C   0  0  0  0  0  0  0  0  0  0  0  0
   10.2760   -2.3270   23.4020 C   0  0  0  0  0  0  0  0  0  0  0  0
   12.2675    1.0332   22.3812 C   0  0  0  0  0  0  0  0  0  0  0  0
   13.6257    0.9906   22.6074 C   0  0  0  0  0  0  0  0  0  0  0  0
   12.3384    0.9467   24.7028 C   0  0  0  0  0  0  0  0  0  0  0  0
    6.1600    0.3870   20.1140 C   0  0  0  0  0  0  0  0  0  0  0  0
   11.5217    1.0079   23.5949 C   0  0  0  0  0  0  0  0  0  0  0  0
    5.9810    0.8330   18.8060 C   0  0  0  0  0  0  0  0  0  0  0  0
    9.2850   -3.7090   25.1090 C   0  0  0  0  0  0  0  0  0  0  0  0
    9.3300   -1.3350   23.6390 C   0  0  0  0  0  0  0  0  0  0  0  0
    7.2210   -0.4620   20.0350 C   0  0  0  0  0  0  0  0  0  0  0  0
    8.9510    0.1280   21.6880 C   0  0  0  0  0  0  0  0  0  0  0  0
    8.7666   -4.9523   27.2147 C   0  0  0  0  0  0  0  0  0  0  0  0
    9.3034   -6.1866   25.1651 C   0  0  0  0  0  0  0  0  0  0  0  0
    7.3827   -5.5925   27.1999 C   0  0  0  0  0  0  0  0  0  0  0  0
    7.9024   -6.7967   25.2263 C   0  0  0  0  0  0  0  0  0  0  0  0
   10.0220    1.0430   23.6570 C   0  0  0  0  0  0  0  0  0  0  0  0
    8.0810   -0.9750   21.0820 C   0  0  0  0  0  0  0  0  0  0  0  0
    6.9440    0.2550   18.0100 N   0  0  0  0  0  0  0  0  0  0  0  0
    7.6830   -0.5170   18.7600 N   0  0  0  0  0  0  0  0  0  0  0  0
    9.2640   -4.8844   25.8389 N   0  0  0  0  0  0  0  0  0  0  0  0
    9.4200   -0.0840   22.9530 N   0  0  0  0  0  0  0  0  0  0  0  0
    9.1870    1.1500   21.0630 O   0  0  0  0  0  0  0  0  0  0  0  0
    7.4483   -6.8833   26.5817 O   0  0  0  0  0  0  0  0  0  0  0  0
   13.9969    0.9202   24.2776 S   0  0  0  0  0  0  0  0  0  0  0  0
    3.6362    2.0028   21.6260 H   0  0  0  0  0  0  0  0  0  0  0  0
    3.2801    2.7808   19.3164 H   0  0  0  0  0  0  0  0  0  0  0  0
    5.4892    0.4523   22.2166 H   0  0  0  0  0  0  0  0  0  0  0  0
    4.7762    2.0781   17.4596 H   0  0  0  0  0  0  0  0  0  0  0  0
    7.5647   -2.8621   26.1053 H   0  0  0  0  0  0  0  0  0  0  0  0
   11.0144   -4.2642   23.9425 H   0  0  0  0  0  0  0  0  0  0  0  0
    7.5958   -0.7779   24.8006 H   0  0  0  0  0  0  0  0  0  0  0  0
   11.0406   -2.1848   22.6356 H   0  0  0  0  0  0  0  0  0  0  0  0
   11.8338    1.0798   21.3902 H   0  0  0  0  0  0  0  0  0  0  0  0
   14.4176    0.9966   21.8719 H   0  0  0  0  0  0  0  0  0  0  0  0
   12.0446    0.9149   25.7428 H   0  0  0  0  0  0  0  0  0  0  0  0
    8.7030   -3.9561   27.6574 H   0  0  0  0  0  0  0  0  0  0  0  0
    9.4460   -5.5639   27.8143 H   0  0  0  0  0  0  0  0  0  0  0  0
   10.0083   -6.8392   25.6817 H   0  0  0  0  0  0  0  0  0  0  0  0
    9.6089   -6.0802   24.1251 H   0  0  0  0  0  0  0  0  0  0  0  0
    7.0281   -5.7334   28.2231 H   0  0  0  0  0  0  0  0  0  0  0  0
    6.6541   -4.9678   26.6754 H   0  0  0  0  0  0  0  0  0  0  0  0
    7.1860   -6.2177   24.6318 H   0  0  0  0  0  0  0  0  0  0  0  0
    7.9246   -7.8119   24.8187 H   0  0  0  0  0  0  0  0  0  0  0  0
    9.6778    1.0140   24.6966 H   0  0  0  0  0  0  0  0  0  0  0  0
    9.6316    1.9637   23.2107 H   0  0  0  0  0  0  0  0  0  0  0  0
    7.4781   -1.4136   21.8845 H   0  0  0  0  0  0  0  0  0  0  0  0
    8.7420   -1.7550   20.6889 H   0  0  0  0  0  0  0  0  0  0  0  0
    8.4371   -1.0264   18.3897 H   0  0  0  0  0  0  0  0  0  0  0  0
  1  2  1  0  0  0  0
  1  3  2  0  0  0  0
  2  4  2  0  0  0  0
  3 12  1  0  0  0  0
  4 14  1  0  0  0  0
  5  7  2  0  0  0  0
  5 15  1  0  0  0  0
  6  8  1  0  0  0  0
  6 15  2  0  0  0  0
  7 16  1  0  0  0  0
  8 16  2  0  0  0  0
  9 10  2  0  0  0  0
  9 13  1  0  0  0  0
 10 31  1  0  0  0  0
 11 13  2  0  0  0  0
 11 31  1  0  0  0  0
 12 14  1  0  0  0  0
 12 17  2  0  0  0  0
 13 23  1  0  0  0  0
 14 25  2  0  0  0  0
 15 27  1  0  0  0  0
 16 28  1  0  0  0  0
 17 24  1  0  0  0  0
 17 26  1  0  0  0  0
 18 24  1  0  0  0  0
 18 28  1  0  0  0  0
 18 29  2  0  0  0  0
 19 21  1  0  0  0  0
 19 27  1  0  0  0  0
 20 22  1  0  0  0  0
 20 27  1  0  0  0  0
 21 30  1  0  0  0  0
 22 30  1  0  0  0  0
 23 28  1  0  0  0  0
 25 26  1  0  0  0  0
  1 32  1  0  0  0  0
  2 33  1  0  0  0  0
  3 34  1  0  0  0  0
  4 35  1  0  0  0  0
  5 36  1  0  0  0  0
  6 37  1  0  0  0  0
  7 38  1  0  0  0  0
  8 39  1  0  0  0  0
  9 40  1  0  0  0  0
 10 41  1  0  0  0  0
 11 42  1  0  0  0  0
 19 43  1  0  0  0  0
 19 44  1  0  0  0  0
 20 45  1  0  0  0  0
 20 46  1  0  0  0  0
 21 47  1  0  0  0  0
 21 48  1  0  0  0  0
 22 49  1  0  0  0  0
 22 50  1  0  0  0  0
 23 51  1  0  0  0  0
 23 52  1  0  0  0  0
 24 53  1  0  0  0  0
 24 54  1  0  0  0  0
 26 55  1  0  0  0  0
M  END
> <clash_score>
0

> <docking_score>
-9.158299446105957

> <overlap_score>
0.9908769130706787

$$$$
BENZO_418_1
  -OEChem-08222022423D

 58 62  0     0  0  0  0  0  0999 V2000
    4.2970    1.6690   20.8430 C   0  0  0  0  0  0  0  0  0  0  0  0
    4.0980    2.1130   19.5350 C   0  0  0  0  0  0  0  0  0  0  0  0
   13.5977    1.8457   22.6865 C   0  0  0  0  0  0  0  0  0  0  0  0
    5.3360    0.8000   21.1530 C   0  0  0  0  0  0  0  0  0  0  0  0
   12.2044    1.8769   22.7438 C   0  0  0  0  0  0  0  0  0  0  0  0
    4.9400    1.7060   18.5060 C   0  0  0  0  0  0  0  0  0  0  0  0
    8.3310   -2.7170   25.3430 C   0  0  0  0  0  0  0  0  0  0  0  0
   10.2570   -3.5000   24.1350 C   0  0  0  0  0  0  0  0  0  0  0  0
    8.3510   -1.5420   24.6110 C   0  0  0  0  0  0  0  0  0  0  0  0
   10.2760   -2.3270   23.4020 C   0  0  0  0  0  0  0  0  0  0  0  0
   14.3084    0.9454   23.4803 C   0  0  0  0  0  0  0  0  0  0  0  0
   12.2323    0.1076   24.3888 C   0  0  0  0  0  0  0  0  0  0  0  0
    6.1600    0.3870   20.1140 C   0  0  0  0  0  0  0  0  0  0  0  0
   11.5217    1.0079   23.5949 C   0  0  0  0  0  0  0  0  0  0  0  0
    5.9810    0.8330   18.8060 C   0  0  0  0  0  0  0  0  0  0  0  0
    9.2850   -3.7090   25.1090 C   0  0  0  0  0  0  0  0  0  0  0  0
    9.3300   -1.3350   23.6390 C   0  0  0  0  0  0  0  0  0  0  0  0
   13.6257    0.0764   24.3314 C   0  0  0  0  0  0  0  0  0  0  0  0
    7.2210   -0.4620   20.0350 C   0  0  0  0  0  0  0  0  0  0  0  0
    8.9510    0.1280   21.6880 C   0  0  0  0  0  0  0  0  0  0  0  0
    8.7666   -4.9523   27.2147 C   0  0  0  0  0  0  0  0  0  0  0  0
    9.3034   -6.1866   25.1651 C   0  0  0  0  0  0  0  0  0  0  0  0
    7.3827   -5.5925   27.1999 C   0  0  0  0  0  0  0  0  0  0  0  0
    7.9024   -6.7967   25.2263 C   0  0  0  0  0  0  0  0  0  0  0  0
   10.0220    1.0430   23.6570 C   0  0  0  0  0  0  0  0  0  0  0  0
    8.0810   -0.9750   21.0820 C   0  0  0  0  0  0  0  0  0  0  0  0
    6.9440    0.2550   18.0100 N   0  0  0  0  0  0  0  0  0  0  0  0
    7.6830   -0.5170   18.7600 N   0  0  0  0  0  0  0  0  0  0  0  0
    9.2640   -4.8844   25.8389 N   0  0  0  0  0  0  0  0  0  0  0  0
    9.4200   -0.0840   22.9530 N   0  0  0  0  0  0  0  0  0  0  0  0
    9.1870    1.1500   21.0630 O   0  0  0  0  0  0  0  0  0  0  0  0
    7.4483   -6.8833   26.5817 O   0  0  0  0  0  0  0  0  0  0  0  0
   14.5031   -1.0334   25.3114 Cl  0  0  0  0  0  0  0  0  0  0  0  0
    3.6362    2.0028   21.6260 H   0  0  0  0  0  0  0  0  0  0  0  0
    3.2801    2.7808   19.3164 H   0  0  0  0  0  0  0  0  0  0  0  0
   14.1289    2.5226   22.0237 H   0  0  0  0  0  0  0  0  0  0  0  0
    5.4892    0.4523   22.2166 H   0  0  0  0  0  0  0  0  0  0  0  0
   11.6588    2.5818   22.1218 H   0  0  0  0  0  0  0  0  0  0  0  0
    4.7762    2.0781   17.4596 H   0  0  0  0  0  0  0  0  0  0  0  0
    7.5647   -2.8621   26.1053 H   0  0  0  0  0  0  0  0  0  0  0  0
   11.0144   -4.2642   23.9425 H   0  0  0  0  0  0  0  0  0  0  0  0
    7.5958   -0.7779   24.8006 H   0  0  0  0  0  0  0  0  0  0  0  0
   11.0406   -2.1848   22.6356 H   0  0  0  0  0  0  0  0  0  0  0  0
   15.3941    0.9323   23.4255 H   0  0  0  0  0  0  0  0  0  0  0  0
   11.6954   -0.5682   25.0504 H   0  0  0  0  0  0  0  0  0  0  0  0
    8.7030   -3.9561   27.6574 H   0  0  0  0  0  0  0  0  0  0  0  0
    9.4460   -5.5639   27.8143 H   0  0  0  0  0  0  0  0  0  0  0  0
   10.0083   -6.8392   25.6817 H   0  0  0  0  0  0  0  0  0  0  0  0
    9.6089   -6.0802   24.1251 H   0  0  0  0  0  0  0  0  0  0  0  0
    7.0281   -5.7334   28.2231 H   0  0  0  0  0  0  0  0  0  0  0  0
    6.6541   -4.9678   26.6754 H   0  0  0  0  0  0  0  0  0  0  0  0
    7.1860   -6.2177   24.6318 H   0  0  0  0  0  0  0  0  0  0  0  0
    7.9246   -7.8119   24.8187 H   0  0  0  0  0  0  0  0  0  0  0  0
    9.6778    1.0140   24.6966 H   0  0  0  0  0  0  0  0  0  0  0  0
    9.6316    1.9637   23.2107 H   0  0  0  0  0  0  0  0  0  0  0  0
    7.4781   -1.4136   21.8845 H   0  0  0  0  0  0  0  0  0  0  0  0
    8.7420   -1.7550   20.6889 H   0  0  0  0  0  0  0  0  0  0  0  0
    8.4371   -1.0264   18.3897 H   0  0  0  0  0  0  0  0  0  0  0  0
  1  2  1  0  0  0  0
  1  4  2  0  0  0  0
  2  6  2  0  0  0  0
  3  5  2  0  0  0  0
  3 11  1  0  0  0  0
  4 13  1  0  0  0  0
  5 14  1  0  0  0  0
  6 15  1  0  0  0  0
  7  9  2  0  0  0  0
  7 16  1  0  0  0  0
  8 10  1  0  0  0  0
  8 16  2  0  0  0  0
  9 17  1  0  0  0  0
 10 17  2  0  0  0  0
 11 18  2  0  0  0  0
 12 14  2  0  0  0  0
 12 18  1  0  0  0  0
 13 15  1  0  0  0  0
 13 19  2  0  0  0  0
 14 25  1  0  0  0  0
 15 27  2  0  0  0  0
 16 29  1  0  0  0  0
 17 30  1  0  0  0  0
 18 33  1  0  0  0  0
 19 26  1  0  0  0  0
 19 28  1  0  0  0  0
 20 26  1  0  0  0  0
 20 30  1  0  0  0  0
 20 31  2  0  0  0  0
 21 23  1  0  0  0  0
 21 29  1  0  0  0  0
 22 24  1  0  0  0  0
 22 29  1  0  0  0  0
 23 32  1  0  0  0  0
 24 32  1  0  0  0  0
 25 30  1  0  0  0  0
 27 28  1  0  0  0  0
  1 34  1  0  0  0  0
  2 35  1  0  0  0  0
  3 36  1  0  0  0  0
  4 37  1  0  0  0  0
  5 38  1  0  0  0  0
  6 39  1  0  0  0  0
  7 40  1  0  0  0  0
  8 41  1  0  0  0  0
  9 42  1  0  0  0  0
 10 43  1  0  0  0  0
 11 44  1  0  0  0  0
 12 45  1  0  0  0  0
 21 46  1  0  0  0  0
 21 47  1  0  0  0  0
 22 48  1  0  0  0  0
 22 49  1  0  0  0  0
 23 50  1  0  0  0  0
 23 51  1  0  0  0  0
 24 52  1  0  0  0  0
 24 53  1  0  0  0  0
 25 54  1  0  0  0  0
 25 55  1  0  0  0  0
 26 56  1  0  0  0  0
 26 57  1  0  0  0  0
 28 58  1  0  0  0  0
M  END
> <clash_score>
0.7662450791812931

> <docking_score>
-8.093998908996582

> <overlap_score>
1.021671175956726

$$$$
BENZO_420_1
  -OEChem-08222022423D

 49 52  0     0  0  0  0  0  0999 V2000
    8.3510   -1.5420   24.6110 C   0  0  0  0  0  0  0  0  0  0  0  0
   10.2760   -2.3270   23.4020 C   0  0  0  0  0  0  0  0  0  0  0  0
    8.3310   -2.7170   25.3430 C   0  0  0  0  0  0  0  0  0  0  0  0
   10.2570   -3.5000   24.1350 C   0  0  0  0  0  0  0  0  0  0  0  0
   12.2675    1.0332   22.3812 C   0  0  0  0  0  0  0  0  0  0  0  0
   13.6257    0.9906   22.6074 C   0  0  0  0  0  0  0  0  0  0  0  0
   12.3384    0.9467   24.7028 C   0  0  0  0  0  0  0  0  0  0  0  0
   11.5217    1.0079   23.5949 C   0  0  0  0  0  0  0  0  0  0  0  0
    9.3300   -1.3350   23.6390 C   0  0  0  0  0  0  0  0  0  0  0  0
    9.2850   -3.7090   25.1090 C   0  0  0  0  0  0  0  0  0  0  0  0
    6.1600    0.3870   20.1140 C   0  0  0  0  0  0  0  0  0  0  0  0
    7.2210   -0.4620   20.0350 C   0  0  0  0  0  0  0  0  0  0  0  0
    5.3360    0.8000   21.1530 C   0  0  0  0  0  0  0  0  0  0  0  0
    4.2970    1.6690   20.8430 C   0  0  0  0  0  0  0  0  0  0  0  0
    4.0980    2.1130   19.5350 C   0  0  0  0  0  0  0  0  0  0  0  0
    4.9400    1.7060   18.5060 C   0  0  0  0  0  0  0  0  0  0  0  0
    8.9510    0.1280   21.6880 C   0  0  0  0  0  0  0  0  0  0  0  0
    8.2493   -5.1167   26.8639 C   0  0  0  0  0  0  0  0  0  0  0  0
   10.2421   -5.9414   25.6002 C   0  0  0  0  0  0  0  0  0  0  0  0
   10.0220    1.0430   23.6570 C   0  0  0  0  0  0  0  0  0  0  0  0
    8.0810   -0.9750   21.0820 C   0  0  0  0  0  0  0  0  0  0  0  0
    7.6830   -0.5170   18.7600 N   0  0  0  0  0  0  0  0  0  0  0  0
    6.9440    0.2550   18.0100 N   0  0  0  0  0  0  0  0  0  0  0  0
    5.9810    0.8330   18.8060 N   0  0  0  0  0  0  0  0  0  0  0  0
    9.4200   -0.0840   22.9530 N   0  0  0  0  0  0  0  0  0  0  0  0
    9.2624   -4.9028   25.8498 N   0  0  0  0  0  0  0  0  0  0  0  0
    9.1870    1.1500   21.0630 O   0  0  0  0  0  0  0  0  0  0  0  0
   13.9969    0.9203   24.2776 S   0  0  0  0  0  0  0  0  0  0  0  0
    7.5947   -0.7787   24.7997 H   0  0  0  0  0  0  0  0  0  0  0  0
   11.0404   -2.1861   22.6352 H   0  0  0  0  0  0  0  0  0  0  0  0
    7.5641   -2.8632   26.1047 H   0  0  0  0  0  0  0  0  0  0  0  0
   11.0135   -4.2647   23.9425 H   0  0  0  0  0  0  0  0  0  0  0  0
   11.8339    1.0798   21.3902 H   0  0  0  0  0  0  0  0  0  0  0  0
   14.4176    0.9966   21.8719 H   0  0  0  0  0  0  0  0  0  0  0  0
   12.0446    0.9149   25.7428 H   0  0  0  0  0  0  0  0  0  0  0  0
    5.4740    0.4765   22.1644 H   0  0  0  0  0  0  0  0  0  0  0  0
    3.6415    1.9966   21.6411 H   0  0  0  0  0  0  0  0  0  0  0  0
    3.2723    2.7926   19.2922 H   0  0  0  0  0  0  0  0  0  0  0  0
    4.8122    2.0412   17.5001 H   0  0  0  0  0  0  0  0  0  0  0  0
    8.3978   -6.1024   27.3290 H   0  0  0  0  0  0  0  0  0  0  0  0
    8.3284   -4.3333   27.6320 H   0  0  0  0  0  0  0  0  0  0  0  0
    7.2525   -5.0765   26.4004 H   0  0  0  0  0  0  0  0  0  0  0  0
   10.0583   -6.7896   26.2760 H   0  0  0  0  0  0  0  0  0  0  0  0
   10.1600   -6.2796   24.5567 H   0  0  0  0  0  0  0  0  0  0  0  0
   11.2520   -5.5432   25.7781 H   0  0  0  0  0  0  0  0  0  0  0  0
    9.6778    1.0140   24.6966 H   0  0  0  0  0  0  0  0  0  0  0  0
    9.6316    1.9637   23.2107 H   0  0  0  0  0  0  0  0  0  0  0  0
    7.4909   -1.4166   21.8987 H   0  0  0  0  0  0  0  0  0  0  0  0
    8.7548   -1.7579   20.7032 H   0  0  0  0  0  0  0  0  0  0  0  0
  1  3  2  0  0  0  0
  1  9  1  0  0  0  0
  2  4  1  0  0  0  0
  2  9  2  0  0  0  0
  3 10  1  0  0  0  0
  4 10  2  0  0  0  0
  5  6  2  0  0  0  0
  5  8  1  0  0  0  0
  6 28  1  0  0  0  0
  7  8  2  0  0  0  0
  7 28  1  0  0  0  0
  8 20  1  0  0  0  0
  9 25  1  0  0  0  0
 10 26  1  0  0  0  0
 11 12  2  0  0  0  0
 11 13  1  0  0  0  0
 11 24  1  0  0  0  0
 12 21  1  0  0  0  0
 12 22  1  0  0  0  0
 13 14  2  0  0  0  0
 14 15  1  0  0  0  0
 15 16  2  0  0  0  0
 16 24  1  0  0  0  0
 17 21  1  0  0  0  0
 17 25  1  0  0  0  0
 17 27  2  0  0  0  0
 18 26  1  0  0  0  0
 19 26  1  0  0  0  0
 20 25  1  0  0  0  0
 22 23  2  0  0  0  0
 23 24  1  0  0  0  0
  1 29  1  0  0  0  0
  2 30  1  0  0  0  0
  3 31  1  0  0  0  0
  4 32  1  0  0  0  0
  5 33  1  0  0  0  0
  6 34  1  0  0  0  0
  7 35  1  0  0  0  0
 13 36  1  0  0  0  0
 14 37  1  0  0  0  0
 15 38  1  0  0  0  0
 16 39  1  0  0  0  0
 18 40  1  0  0  0  0
 18 41  1  0  0  0  0
 18 42  1  0  0  0  0
 19 43  1  0  0  0  0
 19 44  1  0  0  0  0
 19 45  1  0  0  0  0
 20 46  1  0  0  0  0
 20 47  1  0  0  0  0
 21 48  1  0  0  0  0
 21 49  1  0  0  0  0
M  END
> <clash_score>
0

> <docking_score>
-10.005037307739258

> <overlap_score>
0.9772629737854004

$$$$
BENZO_421_1
  -OEChem-08222022423D

 52 55  0     0  0  0  0  0  0999 V2000
   14.3082    0.9431   23.4783 C   0  0  0  0  0  0  0  0  0  0  0  0
   13.6391    0.3091   24.5251 C   0  0  0  0  0  0  0  0  0  0  0  0
   13.5841    1.6096   22.4898 C   0  0  0  0  0  0  0  0  0  0  0  0
   12.2459    0.3415   24.5835 C   0  0  0  0  0  0  0  0  0  0  0  0
   12.1908    1.6420   22.5481 C   0  0  0  0  0  0  0  0  0  0  0  0
    8.3510   -1.5420   24.6110 C   0  0  0  0  0  0  0  0  0  0  0  0
   10.2760   -2.3270   23.4020 C   0  0  0  0  0  0  0  0  0  0  0  0
    8.3310   -2.7170   25.3430 C   0  0  0  0  0  0  0  0  0  0  0  0
   10.2570   -3.5000   24.1350 C   0  0  0  0  0  0  0  0  0  0  0  0
   11.5217    1.0079   23.5949 C   0  0  0  0  0  0  0  0  0  0  0  0
    9.3300   -1.3350   23.6390 C   0  0  0  0  0  0  0  0  0  0  0  0
    9.2850   -3.7090   25.1090 C   0  0  0  0  0  0  0  0  0  0  0  0
    6.1600    0.3870   20.1140 C   0  0  0  0  0  0  0  0  0  0  0  0
    7.2210   -0.4620   20.0350 C   0  0  0  0  0  0  0  0  0  0  0  0
    5.3360    0.8000   21.1530 C   0  0  0  0  0  0  0  0  0  0  0  0
    4.2970    1.6690   20.8430 C   0  0  0  0  0  0  0  0  0  0  0  0
    4.0980    2.1130   19.5350 C   0  0  0  0  0  0  0  0  0  0  0  0
    4.9400    1.7060   18.5060 C   0  0  0  0  0  0  0  0  0  0  0  0
    8.9510    0.1280   21.6880 C   0  0  0  0  0  0  0  0  0  0  0  0
    8.2493   -5.1167   26.8639 C   0  0  0  0  0  0  0  0  0  0  0  0
   10.2421   -5.9414   25.6002 C   0  0  0  0  0  0  0  0  0  0  0  0
   10.0220    1.0430   23.6570 C   0  0  0  0  0  0  0  0  0  0  0  0
    8.0810   -0.9750   21.0820 C   0  0  0  0  0  0  0  0  0  0  0  0
    7.6830   -0.5170   18.7600 N   0  0  0  0  0  0  0  0  0  0  0  0
    6.9440    0.2550   18.0100 N   0  0  0  0  0  0  0  0  0  0  0  0
    5.9810    0.8330   18.8060 N   0  0  0  0  0  0  0  0  0  0  0  0
    9.4200   -0.0840   22.9530 N   0  0  0  0  0  0  0  0  0  0  0  0
    9.2624   -4.9028   25.8498 N   0  0  0  0  0  0  0  0  0  0  0  0
    9.1870    1.1500   21.0630 O   0  0  0  0  0  0  0  0  0  0  0  0
   15.3932    0.9189   23.4337 H   0  0  0  0  0  0  0  0  0  0  0  0
   14.2029   -0.2090   25.2955 H   0  0  0  0  0  0  0  0  0  0  0  0
   14.1048    2.1043   21.6752 H   0  0  0  0  0  0  0  0  0  0  0  0
   11.7330   -0.1555   25.4027 H   0  0  0  0  0  0  0  0  0  0  0  0
   11.6349    2.1636   21.7735 H   0  0  0  0  0  0  0  0  0  0  0  0
    7.5947   -0.7787   24.7997 H   0  0  0  0  0  0  0  0  0  0  0  0
   11.0404   -2.1861   22.6352 H   0  0  0  0  0  0  0  0  0  0  0  0
    7.5641   -2.8632   26.1047 H   0  0  0  0  0  0  0  0  0  0  0  0
   11.0135   -4.2647   23.9425 H   0  0  0  0  0  0  0  0  0  0  0  0
    5.4740    0.4765   22.1644 H   0  0  0  0  0  0  0  0  0  0  0  0
    3.6415    1.9966   21.6411 H   0  0  0  0  0  0  0  0  0  0  0  0
    3.2723    2.7926   19.2922 H   0  0  0  0  0  0  0  0  0  0  0  0
    4.8122    2.0412   17.5001 H   0  0  0  0  0  0  0  0  0  0  0  0
    8.3978   -6.1024   27.3290 H   0  0  0  0  0  0  0  0  0  0  0  0
    8.3284   -4.3333   27.6320 H   0  0  0  0  0  0  0  0  0  0  0  0
    7.2525   -5.0765   26.4004 H   0  0  0  0  0  0  0  0  0  0  0  0
   10.0583   -6.7896   26.2760 H   0  0  0  0  0  0  0  0  0  0  0  0
   10.1600   -6.2796   24.5567 H   0  0  0  0  0  0  0  0  0  0  0  0
   11.2520   -5.5432   25.7781 H   0  0  0  0  0  0  0  0  0  0  0  0
    9.6778    1.0140   24.6966 H   0  0  0  0  0  0  0  0  0  0  0  0
    9.6316    1.9637   23.2107 H   0  0  0  0  0  0  0  0  0  0  0  0
    7.4909   -1.4166   21.8987 H   0  0  0  0  0  0  0  0  0  0  0  0
    8.7548   -1.7579   20.7032 H   0  0  0  0  0  0  0  0  0  0  0  0
  1  2  1  0  0  0  0
  1  3  2  0  0  0  0
  2  4  2  0  0  0  0
  3  5  1  0  0  0  0
  4 10  1  0  0  0  0
  5 10  2  0  0  0  0
  6  8  2  0  0  0  0
  6 11  1  0  0  0  0
  7  9  1  0  0  0  0
  7 11  2  0  0  0  0
  8 12  1  0  0  0  0
  9 12  2  0  0  0  0
 10 22  1  0  0  0  0
 11 27  1  0  0  0  0
 12 28  1  0  0  0  0
 13 14  2  0  0  0  0
 13 15  1  0  0  0  0
 13 26  1  0  0  0  0
 14 23  1  0  0  0  0
 14 24  1  0  0  0  0
 15 16  2  0  0  0  0
 16 17  1  0  0  0  0
 17 18  2  0  0  0  0
 18 26  1  0  0  0  0
 19 23  1  0  0  0  0
 19 27  1  0  0  0  0
 19 29  2  0  0  0  0
 20 28  1  0  0  0  0
 21 28  1  0  0  0  0
 22 27  1  0  0  0  0
 24 25  2  0  0  0  0
 25 26  1  0  0  0  0
  1 30  1  0  0  0  0
  2 31  1  0  0  0  0
  3 32  1  0  0  0  0
  4 33  1  0  0  0  0
  5 34  1  0  0  0  0
  6 35  1  0  0  0  0
  7 36  1  0  0  0  0
  8 37  1  0  0  0  0
  9 38  1  0  0  0  0
 15 39  1  0  0  0  0
 16 40  1  0  0  0  0
 17 41  1  0  0  0  0
 18 42  1  0  0  0  0
 20 43  1  0  0  0  0
 20 44  1  0  0  0  0
 20 45  1  0  0  0  0
 21 46  1  0  0  0  0
 21 47  1  0  0  0  0
 21 48  1  0  0  0  0
 22 49  1  0  0  0  0
 22 50  1  0  0  0  0
 23 51  1  0  0  0  0
 23 52  1  0  0  0  0
M  END
> <clash_score>
0

> <docking_score>
-9.758827209472656

> <overlap_score>
1.0030863285064697

$$$$
BENZO_419_1
  -OEChem-08222022423D

 58 62  0     0  0  0  0  0  0999 V2000
    4.2970    1.6690   20.8430 C   0  0  0  0  0  0  0  0  0  0  0  0
    4.0980    2.1130   19.5350 C   0  0  0  0  0  0  0  0  0  0  0  0
    5.3360    0.8000   21.1530 C   0  0  0  0  0  0  0  0  0  0  0  0
    4.9400    1.7060   18.5060 C   0  0  0  0  0  0  0  0  0  0  0  0
    8.3310   -2.7170   25.3430 C   0  0  0  0  0  0  0  0  0  0  0  0
   10.2570   -3.5000   24.1350 C   0  0  0  0  0  0  0  0  0  0  0  0
    8.3510   -1.5420   24.6110 C   0  0  0  0  0  0  0  0  0  0  0  0
   10.2760   -2.3270   23.4020 C   0  0  0  0  0  0  0  0  0  0  0  0
   12.4359    1.7439   24.3724 C   0  0  0  0  0  0  0  0  0  0  0  0
   12.3100    0.2469   22.7668 C   0  0  0  0  0  0  0  0  0  0  0  0
    6.1600    0.3870   20.1140 C   0  0  0  0  0  0  0  0  0  0  0  0
   11.5217    1.0079   23.5949 C   0  0  0  0  0  0  0  0  0  0  0  0
    5.9810    0.8330   18.8060 C   0  0  0  0  0  0  0  0  0  0  0  0
    9.2850   -3.7090   25.1090 C   0  0  0  0  0  0  0  0  0  0  0  0
    9.3300   -1.3350   23.6390 C   0  0  0  0  0  0  0  0  0  0  0  0
    7.2210   -0.4620   20.0350 C   0  0  0  0  0  0  0  0  0  0  0  0
    8.9510    0.1280   21.6880 C   0  0  0  0  0  0  0  0  0  0  0  0
    8.7666   -4.9523   27.2147 C   0  0  0  0  0  0  0  0  0  0  0  0
    9.3034   -6.1866   25.1651 C   0  0  0  0  0  0  0  0  0  0  0  0
    7.3827   -5.5925   27.1999 C   0  0  0  0  0  0  0  0  0  0  0  0
    7.9024   -6.7967   25.2263 C   0  0  0  0  0  0  0  0  0  0  0  0
   14.7884    0.0124   22.4815 C   0  0  0  0  0  0  0  0  0  0  0  0
   10.0220    1.0430   23.6570 C   0  0  0  0  0  0  0  0  0  0  0  0
    8.0810   -0.9750   21.0820 C   0  0  0  0  0  0  0  0  0  0  0  0
   13.7076    1.4745   24.0657 N   0  0  0  0  0  0  0  0  0  0  0  0
    6.9440    0.2550   18.0100 N   0  0  0  0  0  0  0  0  0  0  0  0
    7.6830   -0.5170   18.7600 N   0  0  0  0  0  0  0  0  0  0  0  0
   13.5982    0.5607   23.0864 N   0  0  0  0  0  0  0  0  0  0  0  0
    9.2640   -4.8844   25.8389 N   0  0  0  0  0  0  0  0  0  0  0  0
    9.4200   -0.0840   22.9530 N   0  0  0  0  0  0  0  0  0  0  0  0
    9.1870    1.1500   21.0630 O   0  0  0  0  0  0  0  0  0  0  0  0
    7.4483   -6.8833   26.5817 O   0  0  0  0  0  0  0  0  0  0  0  0
    3.6362    2.0028   21.6260 H   0  0  0  0  0  0  0  0  0  0  0  0
    3.2801    2.7808   19.3164 H   0  0  0  0  0  0  0  0  0  0  0  0
    5.4892    0.4523   22.2166 H   0  0  0  0  0  0  0  0  0  0  0  0
    4.7762    2.0781   17.4596 H   0  0  0  0  0  0  0  0  0  0  0  0
    7.5647   -2.8621   26.1053 H   0  0  0  0  0  0  0  0  0  0  0  0
   11.0144   -4.2642   23.9425 H   0  0  0  0  0  0  0  0  0  0  0  0
    7.5958   -0.7779   24.8006 H   0  0  0  0  0  0  0  0  0  0  0  0
   11.0406   -2.1848   22.6356 H   0  0  0  0  0  0  0  0  0  0  0  0
   12.2308    2.4652   25.1508 H   0  0  0  0  0  0  0  0  0  0  0  0
   12.0700   -0.4744   21.9974 H   0  0  0  0  0  0  0  0  0  0  0  0
    8.7030   -3.9561   27.6574 H   0  0  0  0  0  0  0  0  0  0  0  0
    9.4460   -5.5639   27.8143 H   0  0  0  0  0  0  0  0  0  0  0  0
   10.0083   -6.8392   25.6817 H   0  0  0  0  0  0  0  0  0  0  0  0
    9.6089   -6.0802   24.1251 H   0  0  0  0  0  0  0  0  0  0  0  0
    7.0281   -5.7334   28.2231 H   0  0  0  0  0  0  0  0  0  0  0  0
    6.6541   -4.9678   26.6754 H   0  0  0  0  0  0  0  0  0  0  0  0
    7.1860   -6.2177   24.6318 H   0  0  0  0  0  0  0  0  0  0  0  0
    7.9246   -7.8119   24.8187 H   0  0  0  0  0  0  0  0  0  0  0  0
   15.0569    0.6453   21.6315 H   0  0  0  0  0  0  0  0  0  0  0  0
   15.5971   -0.0026   23.2174 H   0  0  0  0  0  0  0  0  0  0  0  0
   14.5870   -1.0100   22.1498 H   0  0  0  0  0  0  0  0  0  0  0  0
    9.6778    1.0140   24.6966 H   0  0  0  0  0  0  0  0  0  0  0  0
    9.6316    1.9637   23.2107 H   0  0  0  0  0  0  0  0  0  0  0  0
    7.4781   -1.4136   21.8845 H   0  0  0  0  0  0  0  0  0  0  0  0
    8.7420   -1.7550   20.6889 H   0  0  0  0  0  0  0  0  0  0  0  0
    8.4371   -1.0264   18.3897 H   0  0  0  0  0  0  0  0  0  0  0  0
  1  2  1  0  0  0  0
  1  3  2  0  0  0  0
  2  4  2  0  0  0  0
  3 11  1  0  0  0  0
  4 13  1  0  0  0  0
  5  7  2  0  0  0  0
  5 14  1  0  0  0  0
  6  8  1  0  0  0  0
  6 14  2  0  0  0  0
  7 15  1  0  0  0  0
  8 15  2  0  0  0  0
  9 12  1  0  0  0  0
  9 25  2  0  0  0  0
 10 12  2  0  0  0  0
 10 28  1  0  0  0  0
 11 13  1  0  0  0  0
 11 16  2  0  0  0  0
 12 23  1  0  0  0  0
 13 26  2  0  0  0  0
 14 29  1  0  0  0  0
 15 30  1  0  0  0  0
 16 24  1  0  0  0  0
 16 27  1  0  0  0  0
 17 24  1  0  0  0  0
 17 30  1  0  0  0  0
 17 31  2  0  0  0  0
 18 20  1  0  0  0  0
 18 29  1  0  0  0  0
 19 21  1  0  0  0  0
 19 29  1  0  0  0  0
 20 32  1  0  0  0  0
 21 32  1  0  0  0  0
 22 28  1  0  0  0  0
 23 30  1  0  0  0  0
 25 28  1  0  0  0  0
 26 27  1  0  0  0  0
  1 33  1  0  0  0  0
  2 34  1  0  0  0  0
  3 35  1  0  0  0  0
  4 36  1  0  0  0  0
  5 37  1  0  0  0  0
  6 38  1  0  0  0  0
  7 39  1  0  0  0  0
  8 40  1  0  0  0  0
  9 41  1  0  0  0  0
 10 42  1  0  0  0  0
 18 43  1  0  0  0  0
 18 44  1  0  0  0  0
 19 45  1  0  0  0  0
 19 46  1  0  0  0  0
 20 47  1  0  0  0  0
 20 48  1  0  0  0  0
 21 49  1  0  0  0  0
 21 50  1  0  0  0  0
 22 51  1  0  0  0  0
 22 52  1  0  0  0  0
 22 53  1  0  0  0  0
 23 54  1  0  0  0  0
 23 55  1  0  0  0  0
 24 56  1  0  0  0  0
 24 57  1  0  0  0  0
 27 58  1  0  0  0  0
M  END
> <clash_score>
0

> <docking_score>
-9.126718521118164

> <overlap_score>
1.0026934146881104

$$$$
BENZO_423_1
  -OEChem-08222022423D

 52 55  0     0  0  0  0  0  0999 V2000
    8.3510   -1.5420   24.6110 C   0  0  0  0  0  0  0  0  0  0  0  0
   10.2760   -2.3270   23.4020 C   0  0  0  0  0  0  0  0  0  0  0  0
    8.3310   -2.7170   25.3430 C   0  0  0  0  0  0  0  0  0  0  0  0
   10.2570   -3.5000   24.1350 C   0  0  0  0  0  0  0  0  0  0  0  0
   12.4358    1.7439   24.3724 C   0  0  0  0  0  0  0  0  0  0  0  0
   12.3100    0.2469   22.7668 C   0  0  0  0  0  0  0  0  0  0  0  0
   11.5217    1.0079   23.5949 C   0  0  0  0  0  0  0  0  0  0  0  0
    9.3300   -1.3350   23.6390 C   0  0  0  0  0  0  0  0  0  0  0  0
    9.2850   -3.7090   25.1090 C   0  0  0  0  0  0  0  0  0  0  0  0
    6.1600    0.3870   20.1140 C   0  0  0  0  0  0  0  0  0  0  0  0
    7.2210   -0.4620   20.0350 C   0  0  0  0  0  0  0  0  0  0  0  0
    5.3360    0.8000   21.1530 C   0  0  0  0  0  0  0  0  0  0  0  0
    4.2970    1.6690   20.8430 C   0  0  0  0  0  0  0  0  0  0  0  0
    4.0980    2.1130   19.5350 C   0  0  0  0  0  0  0  0  0  0  0  0
    4.9400    1.7060   18.5060 C   0  0  0  0  0  0  0  0  0  0  0  0
    8.9510    0.1280   21.6880 C   0  0  0  0  0  0  0  0  0  0  0  0
   14.7884    0.0124   22.4815 C   0  0  0  0  0  0  0  0  0  0  0  0
    8.2493   -5.1167   26.8639 C   0  0  0  0  0  0  0  0  0  0  0  0
   10.2421   -5.9414   25.6002 C   0  0  0  0  0  0  0  0  0  0  0  0
   10.0220    1.0430   23.6570 C   0  0  0  0  0  0  0  0  0  0  0  0
    8.0810   -0.9750   21.0820 C   0  0  0  0  0  0  0  0  0  0  0  0
   13.7076    1.4745   24.0657 N   0  0  0  0  0  0  0  0  0  0  0  0
    7.6830   -0.5170   18.7600 N   0  0  0  0  0  0  0  0  0  0  0  0
    6.9440    0.2550   18.0100 N   0  0  0  0  0  0  0  0  0  0  0  0
   13.5982    0.5607   23.0864 N   0  0  0  0  0  0  0  0  0  0  0  0
    5.9810    0.8330   18.8060 N   0  0  0  0  0  0  0  0  0  0  0  0
    9.4200   -0.0840   22.9530 N   0  0  0  0  0  0  0  0  0  0  0  0
    9.2624   -4.9028   25.8498 N   0  0  0  0  0  0  0  0  0  0  0  0
    9.1870    1.1500   21.0630 O   0  0  0  0  0  0  0  0  0  0  0  0
    7.5947   -0.7787   24.7997 H   0  0  0  0  0  0  0  0  0  0  0  0
   11.0404   -2.1861   22.6352 H   0  0  0  0  0  0  0  0  0  0  0  0
    7.5641   -2.8632   26.1047 H   0  0  0  0  0  0  0  0  0  0  0  0
   11.0135   -4.2647   23.9425 H   0  0  0  0  0  0  0  0  0  0  0  0
   12.2308    2.4652   25.1508 H   0  0  0  0  0  0  0  0  0  0  0  0
   12.0700   -0.4744   21.9974 H   0  0  0  0  0  0  0  0  0  0  0  0
    5.4740    0.4765   22.1644 H   0  0  0  0  0  0  0  0  0  0  0  0
    3.6415    1.9966   21.6411 H   0  0  0  0  0  0  0  0  0  0  0  0
    3.2723    2.7926   19.2922 H   0  0  0  0  0  0  0  0  0  0  0  0
    4.8122    2.0412   17.5001 H   0  0  0  0  0  0  0  0  0  0  0  0
   15.0569    0.6453   21.6315 H   0  0  0  0  0  0  0  0  0  0  0  0
   15.5971   -0.0026   23.2174 H   0  0  0  0  0  0  0  0  0  0  0  0
   14.5870   -1.0100   22.1498 H   0  0  0  0  0  0  0  0  0  0  0  0
    8.3978   -6.1024   27.3290 H   0  0  0  0  0  0  0  0  0  0  0  0
    8.3284   -4.3333   27.6320 H   0  0  0  0  0  0  0  0  0  0  0  0
    7.2525   -5.0765   26.4004 H   0  0  0  0  0  0  0  0  0  0  0  0
   10.0583   -6.7896   26.2760 H   0  0  0  0  0  0  0  0  0  0  0  0
   10.1600   -6.2796   24.5567 H   0  0  0  0  0  0  0  0  0  0  0  0
   11.2520   -5.5432   25.7781 H   0  0  0  0  0  0  0  0  0  0  0  0
    9.6778    1.0140   24.6966 H   0  0  0  0  0  0  0  0  0  0  0  0
    9.6316    1.9637   23.2107 H   0  0  0  0  0  0  0  0  0  0  0  0
    7.4909   -1.4166   21.8987 H   0  0  0  0  0  0  0  0  0  0  0  0
    8.7548   -1.7579   20.7032 H   0  0  0  0  0  0  0  0  0  0  0  0
  1  3  2  0  0  0  0
  1  8  1  0  0  0  0
  2  4  1  0  0  0  0
  2  8  2  0  0  0  0
  3  9  1  0  0  0  0
  4  9  2  0  0  0  0
  5  7  1  0  0  0  0
  5 22  2  0  0  0  0
  6  7  2  0  0  0  0
  6 25  1  0  0  0  0
  7 20  1  0  0  0  0
  8 27  1  0  0  0  0
  9 28  1  0  0  0  0
 10 11  2  0  0  0  0
 10 12  1  0  0  0  0
 10 26  1  0  0  0  0
 11 21  1  0  0  0  0
 11 23  1  0  0  0  0
 12 13  2  0  0  0  0
 13 14  1  0  0  0  0
 14 15  2  0  0  0  0
 15 26  1  0  0  0  0
 16 21  1  0  0  0  0
 16 27  1  0  0  0  0
 16 29  2  0  0  0  0
 17 25  1  0  0  0  0
 18 28  1  0  0  0  0
 19 28  1  0  0  0  0
 20 27  1  0  0  0  0
 22 25  1  0  0  0  0
 23 24  2  0  0  0  0
 24 26  1  0  0  0  0
  1 30  1  0  0  0  0
  2 31  1  0  0  0  0
  3 32  1  0  0  0  0
  4 33  1  0  0  0  0
  5 34  1  0  0  0  0
  6 35  1  0  0  0  0
 12 36  1  0  0  0  0
 13 37  1  0  0  0  0
 14 38  1  0  0  0  0
 15 39  1  0  0  0  0
 17 40  1  0  0  0  0
 17 41  1  0  0  0  0
 17 42  1  0  0  0  0
 18 43  1  0  0  0  0
 18 44  1  0  0  0  0
 18 45  1  0  0  0  0
 19 46  1  0  0  0  0
 19 47  1  0  0  0  0
 19 48  1  0  0  0  0
 20 49  1  0  0  0  0
 20 50  1  0  0  0  0
 21 51  1  0  0  0  0
 21 52  1  0  0  0  0
M  END
> <clash_score>
0

> <docking_score>
-9.973437309265137

> <overlap_score>
0.9891868829727173

$$$$
BENZO_422_1
  -OEChem-08222022423D

 52 55  0     0  0  0  0  0  0999 V2000
   13.5977    1.8457   22.6865 C   0  0  0  0  0  0  0  0  0  0  0  0
   12.2044    1.8769   22.7438 C   0  0  0  0  0  0  0  0  0  0  0  0
    8.3510   -1.5420   24.6110 C   0  0  0  0  0  0  0  0  0  0  0  0
   10.2760   -2.3270   23.4020 C   0  0  0  0  0  0  0  0  0  0  0  0
    8.3310   -2.7170   25.3430 C   0  0  0  0  0  0  0  0  0  0  0  0
   10.2570   -3.5000   24.1350 C   0  0  0  0  0  0  0  0  0  0  0  0
   14.3084    0.9454   23.4803 C   0  0  0  0  0  0  0  0  0  0  0  0
   12.2323    0.1076   24.3888 C   0  0  0  0  0  0  0  0  0  0  0  0
   11.5217    1.0079   23.5949 C   0  0  0  0  0  0  0  0  0  0  0  0
    9.3300   -1.3350   23.6390 C   0  0  0  0  0  0  0  0  0  0  0  0
    9.2850   -3.7090   25.1090 C   0  0  0  0  0  0  0  0  0  0  0  0
   13.6257    0.0764   24.3314 C   0  0  0  0  0  0  0  0  0  0  0  0
    6.1600    0.3870   20.1140 C   0  0  0  0  0  0  0  0  0  0  0  0
    7.2210   -0.4620   20.0350 C   0  0  0  0  0  0  0  0  0  0  0  0
    5.3360    0.8000   21.1530 C   0  0  0  0  0  0  0  0  0  0  0  0
    4.2970    1.6690   20.8430 C   0  0  0  0  0  0  0  0  0  0  0  0
    4.0980    2.1130   19.5350 C   0  0  0  0  0  0  0  0  0  0  0  0
    4.9400    1.7060   18.5060 C   0  0  0  0  0  0  0  0  0  0  0  0
    8.9510    0.1280   21.6880 C   0  0  0  0  0  0  0  0  0  0  0  0
    8.2493   -5.1167   26.8639 C   0  0  0  0  0  0  0  0  0  0  0  0
   10.2421   -5.9414   25.6002 C   0  0  0  0  0  0  0  0  0  0  0  0
   10.0220    1.0430   23.6570 C   0  0  0  0  0  0  0  0  0  0  0  0
    8.0810   -0.9750   21.0820 C   0  0  0  0  0  0  0  0  0  0  0  0
    7.6830   -0.5170   18.7600 N   0  0  0  0  0  0  0  0  0  0  0  0
    6.9440    0.2550   18.0100 N   0  0  0  0  0  0  0  0  0  0  0  0
    5.9810    0.8330   18.8060 N   0  0  0  0  0  0  0  0  0  0  0  0
    9.4200   -0.0840   22.9530 N   0  0  0  0  0  0  0  0  0  0  0  0
    9.2624   -4.9028   25.8498 N   0  0  0  0  0  0  0  0  0  0  0  0
    9.1870    1.1500   21.0630 O   0  0  0  0  0  0  0  0  0  0  0  0
   14.5031   -1.0334   25.3114 Cl  0  0  0  0  0  0  0  0  0  0  0  0
   14.1289    2.5226   22.0237 H   0  0  0  0  0  0  0  0  0  0  0  0
   11.6588    2.5818   22.1218 H   0  0  0  0  0  0  0  0  0  0  0  0
    7.5947   -0.7787   24.7997 H   0  0  0  0  0  0  0  0  0  0  0  0
   11.0404   -2.1861   22.6352 H   0  0  0  0  0  0  0  0  0  0  0  0
    7.5641   -2.8632   26.1047 H   0  0  0  0  0  0  0  0  0  0  0  0
   11.0135   -4.2647   23.9425 H   0  0  0  0  0  0  0  0  0  0  0  0
   15.3941    0.9323   23.4255 H   0  0  0  0  0  0  0  0  0  0  0  0
   11.6954   -0.5682   25.0504 H   0  0  0  0  0  0  0  0  0  0  0  0
    5.4740    0.4765   22.1644 H   0  0  0  0  0  0  0  0  0  0  0  0
    3.6415    1.9966   21.6411 H   0  0  0  0  0  0  0  0  0  0  0  0
    3.2723    2.7926   19.2922 H   0  0  0  0  0  0  0  0  0  0  0  0
    4.8122    2.0412   17.5001 H   0  0  0  0  0  0  0  0  0  0  0  0
    8.3978   -6.1024   27.3290 H   0  0  0  0  0  0  0  0  0  0  0  0
    8.3284   -4.3333   27.6320 H   0  0  0  0  0  0  0  0  0  0  0  0
    7.2525   -5.0765   26.4004 H   0  0  0  0  0  0  0  0  0  0  0  0
   10.0583   -6.7896   26.2760 H   0  0  0  0  0  0  0  0  0  0  0  0
   10.1600   -6.2796   24.5567 H   0  0  0  0  0  0  0  0  0  0  0  0
   11.2520   -5.5432   25.7781 H   0  0  0  0  0  0  0  0  0  0  0  0
    9.6778    1.0140   24.6966 H   0  0  0  0  0  0  0  0  0  0  0  0
    9.6316    1.9637   23.2107 H   0  0  0  0  0  0  0  0  0  0  0  0
    7.4909   -1.4166   21.8987 H   0  0  0  0  0  0  0  0  0  0  0  0
    8.7548   -1.7579   20.7032 H   0  0  0  0  0  0  0  0  0  0  0  0
  1  2  2  0  0  0  0
  1  7  1  0  0  0  0
  2  9  1  0  0  0  0
  3  5  2  0  0  0  0
  3 10  1  0  0  0  0
  4  6  1  0  0  0  0
  4 10  2  0  0  0  0
  5 11  1  0  0  0  0
  6 11  2  0  0  0  0
  7 12  2  0  0  0  0
  8  9  2  0  0  0  0
  8 12  1  0  0  0  0
  9 22  1  0  0  0  0
 10 27  1  0  0  0  0
 11 28  1  0  0  0  0
 12 30  1  0  0  0  0
 13 14  2  0  0  0  0
 13 15  1  0  0  0  0
 13 26  1  0  0  0  0
 14 23  1  0  0  0  0
 14 24  1  0  0  0  0
 15 16  2  0  0  0  0
 16 17  1  0  0  0  0
 17 18  2  0  0  0  0
 18 26  1  0  0  0  0
 19 23  1  0  0  0  0
 19 27  1  0  0  0  0
 19 29  2  0  0  0  0
 20 28  1  0  0  0  0
 21 28  1  0  0  0  0
 22 27  1  0  0  0  0
 24 25  2  0  0  0  0
 25 26  1  0  0  0  0
  1 31  1  0  0  0  0
  2 32  1  0  0  0  0
  3 33  1  0  0  0  0
  4 34  1  0  0  0  0
  5 35  1  0  0  0  0
  6 36  1  0  0  0  0
  7 37  1  0  0  0  0
  8 38  1  0  0  0  0
 15 39  1  0  0  0  0
 16 40  1  0  0  0  0
 17 41  1  0  0  0  0
 18 42  1  0  0  0  0
 20 43  1  0  0  0  0
 20 44  1  0  0  0  0
 20 45  1  0  0  0  0
 21 46  1  0  0  0  0
 21 47  1  0  0  0  0
 21 48  1  0  0  0  0
 22 49  1  0  0  0  0
 22 50  1  0  0  0  0
 23 51  1  0  0  0  0
 23 52  1  0  0  0  0
M  END
> <clash_score>
0.7662434119804425

> <docking_score>
-8.940717697143555

> <overlap_score>
1.0082910060882568

$$$$
BENZO_425_1
  -OEChem-08222022423D

 54 57  0     0  0  0  0  0  0999 V2000
   14.3082    0.9431   23.4783 C   0  0  0  0  0  0  0  0  0  0  0  0
   13.6391    0.3091   24.5251 C   0  0  0  0  0  0  0  0  0  0  0  0
   13.5841    1.6096   22.4898 C   0  0  0  0  0  0  0  0  0  0  0  0
   12.2459    0.3415   24.5835 C   0  0  0  0  0  0  0  0  0  0  0  0
   12.1908    1.6420   22.5481 C   0  0  0  0  0  0  0  0  0  0  0  0
    8.3310   -2.7170   25.3430 C   0  0  0  0  0  0  0  0  0  0  0  0
   10.2570   -3.5000   24.1350 C   0  0  0  0  0  0  0  0  0  0  0  0
    8.3510   -1.5420   24.6110 C   0  0  0  0  0  0  0  0  0  0  0  0
   10.2760   -2.3270   23.4020 C   0  0  0  0  0  0  0  0  0  0  0  0
   11.5217    1.0079   23.5949 C   0  0  0  0  0  0  0  0  0  0  0  0
    9.2850   -3.7090   25.1090 C   0  0  0  0  0  0  0  0  0  0  0  0
    9.3300   -1.3350   23.6390 C   0  0  0  0  0  0  0  0  0  0  0  0
    6.1600    0.3870   20.1140 C   0  0  0  0  0  0  0  0  0  0  0  0
    7.2210   -0.4620   20.0350 C   0  0  0  0  0  0  0  0  0  0  0  0
    5.3360    0.8000   21.1530 C   0  0  0  0  0  0  0  0  0  0  0  0
    4.2970    1.6690   20.8430 C   0  0  0  0  0  0  0  0  0  0  0  0
    4.0980    2.1130   19.5350 C   0  0  0  0  0  0  0  0  0  0  0  0
    4.9400    1.7060   18.5060 C   0  0  0  0  0  0  0  0  0  0  0  0
    8.9510    0.1280   21.6880 C   0  0  0  0  0  0  0  0  0  0  0  0
    9.6848   -6.1688   25.4417 C   0  0  0  0  0  0  0  0  0  0  0  0
    8.0385   -7.2892   27.0037 C   0  0  0  0  0  0  0  0  0  0  0  0
   10.0220    1.0430   23.6570 C   0  0  0  0  0  0  0  0  0  0  0  0
    8.0810   -0.9750   21.0820 C   0  0  0  0  0  0  0  0  0  0  0  0
    9.4852   -7.1862   26.5551 C   0  0  0  0  0  0  0  0  0  0  0  0
    7.6830   -0.5170   18.7600 N   0  0  0  0  0  0  0  0  0  0  0  0
    6.9440    0.2550   18.0100 N   0  0  0  0  0  0  0  0  0  0  0  0
    5.9810    0.8330   18.8060 N   0  0  0  0  0  0  0  0  0  0  0  0
    9.2630   -4.8902   25.8410 N   0  0  0  0  0  0  0  0  0  0  0  0
    9.4200   -0.0840   22.9530 N   0  0  0  0  0  0  0  0  0  0  0  0
    9.1870    1.1500   21.0630 O   0  0  0  0  0  0  0  0  0  0  0  0
   10.1584   -6.4795   24.3537 O   0  0  0  0  0  0  0  0  0  0  0  0
   15.3932    0.9189   23.4337 H   0  0  0  0  0  0  0  0  0  0  0  0
   14.2029   -0.2090   25.2955 H   0  0  0  0  0  0  0  0  0  0  0  0
   14.1048    2.1043   21.6752 H   0  0  0  0  0  0  0  0  0  0  0  0
   11.7330   -0.1555   25.4027 H   0  0  0  0  0  0  0  0  0  0  0  0
   11.6349    2.1636   21.7735 H   0  0  0  0  0  0  0  0  0  0  0  0
    7.5639   -2.8621   26.1045 H   0  0  0  0  0  0  0  0  0  0  0  0
   11.0141   -4.2644   23.9422 H   0  0  0  0  0  0  0  0  0  0  0  0
    7.5950   -0.7788   24.8007 H   0  0  0  0  0  0  0  0  0  0  0  0
   11.0408   -2.1861   22.6359 H   0  0  0  0  0  0  0  0  0  0  0  0
    5.4740    0.4765   22.1644 H   0  0  0  0  0  0  0  0  0  0  0  0
    3.6415    1.9966   21.6411 H   0  0  0  0  0  0  0  0  0  0  0  0
    3.2723    2.7926   19.2922 H   0  0  0  0  0  0  0  0  0  0  0  0
    4.8122    2.0412   17.5001 H   0  0  0  0  0  0  0  0  0  0  0  0
    7.6697   -6.3242   27.3667 H   0  0  0  0  0  0  0  0  0  0  0  0
    7.9416   -8.0189   27.8135 H   0  0  0  0  0  0  0  0  0  0  0  0
    7.3926   -7.6064   26.1784 H   0  0  0  0  0  0  0  0  0  0  0  0
    9.6778    1.0140   24.6966 H   0  0  0  0  0  0  0  0  0  0  0  0
    9.6316    1.9637   23.2107 H   0  0  0  0  0  0  0  0  0  0  0  0
    7.4909   -1.4166   21.8987 H   0  0  0  0  0  0  0  0  0  0  0  0
    8.7548   -1.7579   20.7032 H   0  0  0  0  0  0  0  0  0  0  0  0
    9.8274   -8.1642   26.1976 H   0  0  0  0  0  0  0  0  0  0  0  0
   10.1123   -6.8975   27.4065 H   0  0  0  0  0  0  0  0  0  0  0  0
    8.8927   -4.8256   26.7964 H   0  0  0  0  0  0  0  0  0  0  0  0
  1  2  1  0  0  0  0
  1  3  2  0  0  0  0
  2  4  2  0  0  0  0
  3  5  1  0  0  0  0
  4 10  1  0  0  0  0
  5 10  2  0  0  0  0
  6  8  2  0  0  0  0
  6 11  1  0  0  0  0
  7  9  1  0  0  0  0
  7 11  2  0  0  0  0
  8 12  1  0  0  0  0
  9 12  2  0  0  0  0
 10 22  1  0  0  0  0
 11 28  1  0  0  0  0
 12 29  1  0  0  0  0
 13 14  2  0  0  0  0
 13 15  1  0  0  0  0
 13 27  1  0  0  0  0
 14 23  1  0  0  0  0
 14 25  1  0  0  0  0
 15 16  2  0  0  0  0
 16 17  1  0  0  0  0
 17 18  2  0  0  0  0
 18 27  1  0  0  0  0
 19 23  1  0  0  0  0
 19 29  1  0  0  0  0
 19 30  2  0  0  0  0
 20 24  1  0  0  0  0
 20 28  1  0  0  0  0
 20 31  2  0  0  0  0
 21 24  1  0  0  0  0
 22 29  1  0  0  0  0
 25 26  2  0  0  0  0
 26 27  1  0  0  0  0
  1 32  1  0  0  0  0
  2 33  1  0  0  0  0
  3 34  1  0  0  0  0
  4 35  1  0  0  0  0
  5 36  1  0  0  0  0
  6 37  1  0  0  0  0
  7 38  1  0  0  0  0
  8 39  1  0  0  0  0
  9 40  1  0  0  0  0
 15 41  1  0  0  0  0
 16 42  1  0  0  0  0
 17 43  1  0  0  0  0
 18 44  1  0  0  0  0
 21 45  1  0  0  0  0
 21 46  1  0  0  0  0
 21 47  1  0  0  0  0
 22 48  1  0  0  0  0
 22 49  1  0  0  0  0
 23 50  1  0  0  0  0
 23 51  1  0  0  0  0
 24 52  1  0  0  0  0
 24 53  1  0  0  0  0
 28 54  1  0  0  0  0
M  END
> <clash_score>
1.3336338752298933

> <docking_score>
-6.236393928527832

> <overlap_score>
0.9871494174003601

$$$$
BENZO_424_1
  -OEChem-08222022423D

 51 54  0     0  0  0  0  0  0999 V2000
    8.3310   -2.7170   25.3430 C   0  0  0  0  0  0  0  0  0  0  0  0
   10.2570   -3.5000   24.1350 C   0  0  0  0  0  0  0  0  0  0  0  0
    8.3510   -1.5420   24.6110 C   0  0  0  0  0  0  0  0  0  0  0  0
   10.2760   -2.3270   23.4020 C   0  0  0  0  0  0  0  0  0  0  0  0
   12.2675    1.0332   22.3812 C   0  0  0  0  0  0  0  0  0  0  0  0
   13.6257    0.9906   22.6074 C   0  0  0  0  0  0  0  0  0  0  0  0
   12.3384    0.9467   24.7028 C   0  0  0  0  0  0  0  0  0  0  0  0
   11.5217    1.0079   23.5949 C   0  0  0  0  0  0  0  0  0  0  0  0
    9.2850   -3.7090   25.1090 C   0  0  0  0  0  0  0  0  0  0  0  0
    9.3300   -1.3350   23.6390 C   0  0  0  0  0  0  0  0  0  0  0  0
    6.1600    0.3870   20.1140 C   0  0  0  0  0  0  0  0  0  0  0  0
    7.2210   -0.4620   20.0350 C   0  0  0  0  0  0  0  0  0  0  0  0
    5.3360    0.8000   21.1530 C   0  0  0  0  0  0  0  0  0  0  0  0
    4.2970    1.6690   20.8430 C   0  0  0  0  0  0  0  0  0  0  0  0
    4.0980    2.1130   19.5350 C   0  0  0  0  0  0  0  0  0  0  0  0
    4.9400    1.7060   18.5060 C   0  0  0  0  0  0  0  0  0  0  0  0
    8.9510    0.1280   21.6880 C   0  0  0  0  0  0  0  0  0  0  0  0
    9.6848   -6.1688   25.4417 C   0  0  0  0  0  0  0  0  0  0  0  0
    8.0385   -7.2892   27.0037 C   0  0  0  0  0  0  0  0  0  0  0  0
   10.0220    1.0430   23.6570 C   0  0  0  0  0  0  0  0  0  0  0  0
    8.0810   -0.9750   21.0820 C   0  0  0  0  0  0  0  0  0  0  0  0
    9.4852   -7.1862   26.5551 C   0  0  0  0  0  0  0  0  0  0  0  0
    7.6830   -0.5170   18.7600 N   0  0  0  0  0  0  0  0  0  0  0  0
    6.9440    0.2550   18.0100 N   0  0  0  0  0  0  0  0  0  0  0  0
    5.9810    0.8330   18.8060 N   0  0  0  0  0  0  0  0  0  0  0  0
    9.2630   -4.8902   25.8410 N   0  0  0  0  0  0  0  0  0  0  0  0
    9.4200   -0.0840   22.9530 N   0  0  0  0  0  0  0  0  0  0  0  0
    9.1870    1.1500   21.0630 O   0  0  0  0  0  0  0  0  0  0  0  0
   10.1584   -6.4795   24.3537 O   0  0  0  0  0  0  0  0  0  0  0  0
   13.9969    0.9203   24.2776 S   0  0  0  0  0  0  0  0  0  0  0  0
    7.5639   -2.8621   26.1045 H   0  0  0  0  0  0  0  0  0  0  0  0
   11.0141   -4.2644   23.9422 H   0  0  0  0  0  0  0  0  0  0  0  0
    7.5950   -0.7788   24.8007 H   0  0  0  0  0  0  0  0  0  0  0  0
   11.0408   -2.1861   22.6359 H   0  0  0  0  0  0  0  0  0  0  0  0
   11.8339    1.0798   21.3902 H   0  0  0  0  0  0  0  0  0  0  0  0
   14.4176    0.9966   21.8719 H   0  0  0  0  0  0  0  0  0  0  0  0
   12.0446    0.9149   25.7428 H   0  0  0  0  0  0  0  0  0  0  0  0
    5.4740    0.4765   22.1644 H   0  0  0  0  0  0  0  0  0  0  0  0
    3.6415    1.9966   21.6411 H   0  0  0  0  0  0  0  0  0  0  0  0
    3.2723    2.7926   19.2922 H   0  0  0  0  0  0  0  0  0  0  0  0
    4.8122    2.0412   17.5001 H   0  0  0  0  0  0  0  0  0  0  0  0
    7.6697   -6.3242   27.3667 H   0  0  0  0  0  0  0  0  0  0  0  0
    7.9416   -8.0189   27.8135 H   0  0  0  0  0  0  0  0  0  0  0  0
    7.3926   -7.6064   26.1784 H   0  0  0  0  0  0  0  0  0  0  0  0
    9.6778    1.0140   24.6966 H   0  0  0  0  0  0  0  0  0  0  0  0
    9.6316    1.9637   23.2107 H   0  0  0  0  0  0  0  0  0  0  0  0
    7.4909   -1.4166   21.8987 H   0  0  0  0  0  0  0  0  0  0  0  0
    8.7548   -1.7579   20.7032 H   0  0  0  0  0  0  0  0  0  0  0  0
    9.8274   -8.1642   26.1976 H   0  0  0  0  0  0  0  0  0  0  0  0
   10.1123   -6.8975   27.4065 H   0  0  0  0  0  0  0  0  0  0  0  0
    8.8927   -4.8256   26.7964 H   0  0  0  0  0  0  0  0  0  0  0  0
  1  3  2  0  0  0  0
  1  9  1  0  0  0  0
  2  4  1  0  0  0  0
  2  9  2  0  0  0  0
  3 10  1  0  0  0  0
  4 10  2  0  0  0  0
  5  6  2  0  0  0  0
  5  8  1  0  0  0  0
  6 30  1  0  0  0  0
  7  8  2  0  0  0  0
  7 30  1  0  0  0  0
  8 20  1  0  0  0  0
  9 26  1  0  0  0  0
 10 27  1  0  0  0  0
 11 12  2  0  0  0  0
 11 13  1  0  0  0  0
 11 25  1  0  0  0  0
 12 21  1  0  0  0  0
 12 23  1  0  0  0  0
 13 14  2  0  0  0  0
 14 15  1  0  0  0  0
 15 16  2  0  0  0  0
 16 25  1  0  0  0  0
 17 21  1  0  0  0  0
 17 27  1  0  0  0  0
 17 28  2  0  0  0  0
 18 22  1  0  0  0  0
 18 26  1  0  0  0  0
 18 29  2  0  0  0  0
 19 22  1  0  0  0  0
 20 27  1  0  0  0  0
 23 24  2  0  0  0  0
 24 25  1  0  0  0  0
  1 31  1  0  0  0  0
  2 32  1  0  0  0  0
  3 33  1  0  0  0  0
  4 34  1  0  0  0  0
  5 35  1  0  0  0  0
  6 36  1  0  0  0  0
  7 37  1  0  0  0  0
 13 38  1  0  0  0  0
 14 39  1  0  0  0  0
 15 40  1  0  0  0  0
 16 41  1  0  0  0  0
 19 42  1  0  0  0  0
 19 43  1  0  0  0  0
 19 44  1  0  0  0  0
 20 45  1  0  0  0  0
 20 46  1  0  0  0  0
 21 47  1  0  0  0  0
 21 48  1  0  0  0  0
 22 49  1  0  0  0  0
 22 50  1  0  0  0  0
 26 51  1  0  0  0  0
M  END
> <clash_score>
1.3336338752298933

> <docking_score>
-6.482604026794434

> <overlap_score>
0.9613765478134155

$$$$
BENZO_429_1
  -OEChem-08222022423D

 59 63  0     0  0  0  0  0  0999 V2000
   14.3082    0.9431   23.4783 C   0  0  0  0  0  0  0  0  0  0  0  0
   13.6391    0.3091   24.5251 C   0  0  0  0  0  0  0  0  0  0  0  0
   13.5841    1.6096   22.4898 C   0  0  0  0  0  0  0  0  0  0  0  0
   12.2459    0.3415   24.5835 C   0  0  0  0  0  0  0  0  0  0  0  0
   12.1908    1.6420   22.5481 C   0  0  0  0  0  0  0  0  0  0  0  0
    8.3310   -2.7170   25.3430 C   0  0  0  0  0  0  0  0  0  0  0  0
   10.2570   -3.5000   24.1350 C   0  0  0  0  0  0  0  0  0  0  0  0
    8.3510   -1.5420   24.6110 C   0  0  0  0  0  0  0  0  0  0  0  0
   10.2760   -2.3270   23.4020 C   0  0  0  0  0  0  0  0  0  0  0  0
   11.5217    1.0079   23.5949 C   0  0  0  0  0  0  0  0  0  0  0  0
    9.2850   -3.7090   25.1090 C   0  0  0  0  0  0  0  0  0  0  0  0
    9.3300   -1.3350   23.6390 C   0  0  0  0  0  0  0  0  0  0  0  0
    6.1600    0.3870   20.1140 C   0  0  0  0  0  0  0  0  0  0  0  0
    7.2210   -0.4620   20.0350 C   0  0  0  0  0  0  0  0  0  0  0  0
    5.3360    0.8000   21.1530 C   0  0  0  0  0  0  0  0  0  0  0  0
    4.2970    1.6690   20.8430 C   0  0  0  0  0  0  0  0  0  0  0  0
    4.0980    2.1130   19.5350 C   0  0  0  0  0  0  0  0  0  0  0  0
    4.9400    1.7060   18.5060 C   0  0  0  0  0  0  0  0  0  0  0  0
    8.9510    0.1280   21.6880 C   0  0  0  0  0  0  0  0  0  0  0  0
    7.3162   -6.8835   26.5210 C   0  0  0  0  0  0  0  0  0  0  0  0
    7.3507   -5.5245   27.2240 C   0  0  0  0  0  0  0  0  0  0  0  0
    7.9375   -6.8069   25.1245 C   0  0  0  0  0  0  0  0  0  0  0  0
    8.7638   -4.9418   27.2163 C   0  0  0  0  0  0  0  0  0  0  0  0
    9.3378   -6.1874   25.1659 C   0  0  0  0  0  0  0  0  0  0  0  0
   10.0220    1.0430   23.6570 C   0  0  0  0  0  0  0  0  0  0  0  0
    8.0810   -0.9750   21.0820 C   0  0  0  0  0  0  0  0  0  0  0  0
    7.6830   -0.5170   18.7600 N   0  0  0  0  0  0  0  0  0  0  0  0
    6.9440    0.2550   18.0100 N   0  0  0  0  0  0  0  0  0  0  0  0
    5.9810    0.8330   18.8060 N   0  0  0  0  0  0  0  0  0  0  0  0
    9.2639   -4.8860   25.8399 N   0  0  0  0  0  0  0  0  0  0  0  0
    9.4200   -0.0840   22.9530 N   0  0  0  0  0  0  0  0  0  0  0  0
    9.1870    1.1500   21.0630 O   0  0  0  0  0  0  0  0  0  0  0  0
   15.3932    0.9189   23.4337 H   0  0  0  0  0  0  0  0  0  0  0  0
   14.2029   -0.2090   25.2955 H   0  0  0  0  0  0  0  0  0  0  0  0
   14.1048    2.1043   21.6752 H   0  0  0  0  0  0  0  0  0  0  0  0
   11.7330   -0.1555   25.4027 H   0  0  0  0  0  0  0  0  0  0  0  0
   11.6349    2.1636   21.7735 H   0  0  0  0  0  0  0  0  0  0  0  0
    7.5647   -2.8621   26.1053 H   0  0  0  0  0  0  0  0  0  0  0  0
   11.0144   -4.2642   23.9425 H   0  0  0  0  0  0  0  0  0  0  0  0
    7.5958   -0.7779   24.8006 H   0  0  0  0  0  0  0  0  0  0  0  0
   11.0406   -2.1848   22.6356 H   0  0  0  0  0  0  0  0  0  0  0  0
    5.4740    0.4765   22.1644 H   0  0  0  0  0  0  0  0  0  0  0  0
    3.6415    1.9966   21.6411 H   0  0  0  0  0  0  0  0  0  0  0  0
    3.2723    2.7926   19.2922 H   0  0  0  0  0  0  0  0  0  0  0  0
    4.8122    2.0412   17.5001 H   0  0  0  0  0  0  0  0  0  0  0  0
    7.8578   -7.6261   27.1266 H   0  0  0  0  0  0  0  0  0  0  0  0
    6.2773   -7.2358   26.4459 H   0  0  0  0  0  0  0  0  0  0  0  0
    6.6663   -4.8351   26.7223 H   0  0  0  0  0  0  0  0  0  0  0  0
    7.0044   -5.6368   28.2534 H   0  0  0  0  0  0  0  0  0  0  0  0
    7.9946   -7.8119   24.6937 H   0  0  0  0  0  0  0  0  0  0  0  0
    7.2929   -6.2123   24.4668 H   0  0  0  0  0  0  0  0  0  0  0  0
    8.7343   -3.9408   27.6542 H   0  0  0  0  0  0  0  0  0  0  0  0
    9.4243   -5.5632   27.8278 H   0  0  0  0  0  0  0  0  0  0  0  0
   10.0200   -6.8490   25.7011 H   0  0  0  0  0  0  0  0  0  0  0  0
    9.6984   -6.0694   24.1436 H   0  0  0  0  0  0  0  0  0  0  0  0
    9.6778    1.0140   24.6966 H   0  0  0  0  0  0  0  0  0  0  0  0
    9.6316    1.9637   23.2107 H   0  0  0  0  0  0  0  0  0  0  0  0
    7.4781   -1.4136   21.8845 H   0  0  0  0  0  0  0  0  0  0  0  0
    8.7420   -1.7550   20.6889 H   0  0  0  0  0  0  0  0  0  0  0  0
  1  2  1  0  0  0  0
  1  3  2  0  0  0  0
  2  4  2  0  0  0  0
  3  5  1  0  0  0  0
  4 10  1  0  0  0  0
  5 10  2  0  0  0  0
  6  8  2  0  0  0  0
  6 11  1  0  0  0  0
  7  9  1  0  0  0  0
  7 11  2  0  0  0  0
  8 12  1  0  0  0  0
  9 12  2  0  0  0  0
 10 25  1  0  0  0  0
 11 30  1  0  0  0  0
 12 31  1  0  0  0  0
 13 14  2  0  0  0  0
 13 15  1  0  0  0  0
 13 29  1  0  0  0  0
 14 26  1  0  0  0  0
 14 27  1  0  0  0  0
 15 16  2  0  0  0  0
 16 17  1  0  0  0  0
 17 18  2  0  0  0  0
 18 29  1  0  0  0  0
 19 26  1  0  0  0  0
 19 31  1  0  0  0  0
 19 32  2  0  0  0  0
 20 21  1  0  0  0  0
 20 22  1  0  0  0  0
 21 23  1  0  0  0  0
 22 24  1  0  0  0  0
 23 30  1  0  0  0  0
 24 30  1  0  0  0  0
 25 31  1  0  0  0  0
 27 28  2  0  0  0  0
 28 29  1  0  0  0  0
  1 33  1  0  0  0  0
  2 34  1  0  0  0  0
  3 35  1  0  0  0  0
  4 36  1  0  0  0  0
  5 37  1  0  0  0  0
  6 38  1  0  0  0  0
  7 39  1  0  0  0  0
  8 40  1  0  0  0  0
  9 41  1  0  0  0  0
 15 42  1  0  0  0  0
 16 43  1  0  0  0  0
 17 44  1  0  0  0  0
 18 45  1  0  0  0  0
 20 46  1  0  0  0  0
 20 47  1  0  0  0  0
 21 48  1  0  0  0  0
 21 49  1  0  0  0  0
 22 50  1  0  0  0  0
 22 51  1  0  0  0  0
 23 52  1  0  0  0  0
 23 53  1  0  0  0  0
 24 54  1  0  0  0  0
 24 55  1  0  0  0  0
 25 56  1  0  0  0  0
 25 57  1  0  0  0  0
 26 58  1  0  0  0  0
 26 59  1  0  0  0  0
M  END
> <clash_score>
0

> <docking_score>
-8.471007347106934

> <overlap_score>
1.015582799911499

$$$$
BENZO_428_1
  -OEChem-08222022423D

 56 60  0     0  0  0  0  0  0999 V2000
    8.3310   -2.7170   25.3430 C   0  0  0  0  0  0  0  0  0  0  0  0
   10.2570   -3.5000   24.1350 C   0  0  0  0  0  0  0  0  0  0  0  0
    8.3510   -1.5420   24.6110 C   0  0  0  0  0  0  0  0  0  0  0  0
   10.2760   -2.3270   23.4020 C   0  0  0  0  0  0  0  0  0  0  0  0
   12.2675    1.0332   22.3812 C   0  0  0  0  0  0  0  0  0  0  0  0
   13.6257    0.9906   22.6074 C   0  0  0  0  0  0  0  0  0  0  0  0
   12.3384    0.9467   24.7028 C   0  0  0  0  0  0  0  0  0  0  0  0
   11.5217    1.0079   23.5949 C   0  0  0  0  0  0  0  0  0  0  0  0
    9.2850   -3.7090   25.1090 C   0  0  0  0  0  0  0  0  0  0  0  0
    9.3300   -1.3350   23.6390 C   0  0  0  0  0  0  0  0  0  0  0  0
    6.1600    0.3870   20.1140 C   0  0  0  0  0  0  0  0  0  0  0  0
    7.2210   -0.4620   20.0350 C   0  0  0  0  0  0  0  0  0  0  0  0
    5.3360    0.8000   21.1530 C   0  0  0  0  0  0  0  0  0  0  0  0
    4.2970    1.6690   20.8430 C   0  0  0  0  0  0  0  0  0  0  0  0
    4.0980    2.1130   19.5350 C   0  0  0  0  0  0  0  0  0  0  0  0
    4.9400    1.7060   18.5060 C   0  0  0  0  0  0  0  0  0  0  0  0
    8.9510    0.1280   21.6880 C   0  0  0  0  0  0  0  0  0  0  0  0
    7.3162   -6.8835   26.5210 C   0  0  0  0  0  0  0  0  0  0  0  0
    7.3507   -5.5245   27.2240 C   0  0  0  0  0  0  0  0  0  0  0  0
    7.9375   -6.8069   25.1245 C   0  0  0  0  0  0  0  0  0  0  0  0
    8.7638   -4.9418   27.2163 C   0  0  0  0  0  0  0  0  0  0  0  0
    9.3378   -6.1874   25.1659 C   0  0  0  0  0  0  0  0  0  0  0  0
   10.0220    1.0430   23.6570 C   0  0  0  0  0  0  0  0  0  0  0  0
    8.0810   -0.9750   21.0820 C   0  0  0  0  0  0  0  0  0  0  0  0
    7.6830   -0.5170   18.7600 N   0  0  0  0  0  0  0  0  0  0  0  0
    6.9440    0.2550   18.0100 N   0  0  0  0  0  0  0  0  0  0  0  0
    5.9810    0.8330   18.8060 N   0  0  0  0  0  0  0  0  0  0  0  0
    9.2639   -4.8860   25.8399 N   0  0  0  0  0  0  0  0  0  0  0  0
    9.4200   -0.0840   22.9530 N   0  0  0  0  0  0  0  0  0  0  0  0
    9.1870    1.1500   21.0630 O   0  0  0  0  0  0  0  0  0  0  0  0
   13.9969    0.9203   24.2776 S   0  0  0  0  0  0  0  0  0  0  0  0
    7.5647   -2.8621   26.1053 H   0  0  0  0  0  0  0  0  0  0  0  0
   11.0144   -4.2642   23.9425 H   0  0  0  0  0  0  0  0  0  0  0  0
    7.5958   -0.7779   24.8006 H   0  0  0  0  0  0  0  0  0  0  0  0
   11.0406   -2.1848   22.6356 H   0  0  0  0  0  0  0  0  0  0  0  0
   11.8339    1.0799   21.3902 H   0  0  0  0  0  0  0  0  0  0  0  0
   14.4176    0.9966   21.8719 H   0  0  0  0  0  0  0  0  0  0  0  0
   12.0446    0.9149   25.7428 H   0  0  0  0  0  0  0  0  0  0  0  0
    5.4740    0.4765   22.1644 H   0  0  0  0  0  0  0  0  0  0  0  0
    3.6415    1.9966   21.6411 H   0  0  0  0  0  0  0  0  0  0  0  0
    3.2723    2.7926   19.2922 H   0  0  0  0  0  0  0  0  0  0  0  0
    4.8122    2.0412   17.5001 H   0  0  0  0  0  0  0  0  0  0  0  0
    7.8578   -7.6261   27.1266 H   0  0  0  0  0  0  0  0  0  0  0  0
    6.2773   -7.2358   26.4459 H   0  0  0  0  0  0  0  0  0  0  0  0
    6.6663   -4.8351   26.7223 H   0  0  0  0  0  0  0  0  0  0  0  0
    7.0044   -5.6368   28.2534 H   0  0  0  0  0  0  0  0  0  0  0  0
    7.9946   -7.8119   24.6937 H   0  0  0  0  0  0  0  0  0  0  0  0
    7.2929   -6.2123   24.4668 H   0  0  0  0  0  0  0  0  0  0  0  0
    8.7343   -3.9408   27.6542 H   0  0  0  0  0  0  0  0  0  0  0  0
    9.4243   -5.5632   27.8278 H   0  0  0  0  0  0  0  0  0  0  0  0
   10.0200   -6.8490   25.7011 H   0  0  0  0  0  0  0  0  0  0  0  0
    9.6984   -6.0694   24.1436 H   0  0  0  0  0  0  0  0  0  0  0  0
    9.6778    1.0140   24.6966 H   0  0  0  0  0  0  0  0  0  0  0  0
    9.6316    1.9637   23.2107 H   0  0  0  0  0  0  0  0  0  0  0  0
    7.4781   -1.4136   21.8845 H   0  0  0  0  0  0  0  0  0  0  0  0
    8.7420   -1.7550   20.6889 H   0  0  0  0  0  0  0  0  0  0  0  0
  1  3  2  0  0  0  0
  1  9  1  0  0  0  0
  2  4  1  0  0  0  0
  2  9  2  0  0  0  0
  3 10  1  0  0  0  0
  4 10  2  0  0  0  0
  5  6  2  0  0  0  0
  5  8  1  0  0  0  0
  6 31  1  0  0  0  0
  7  8  2  0  0  0  0
  7 31  1  0  0  0  0
  8 23  1  0  0  0  0
  9 28  1  0  0  0  0
 10 29  1  0  0  0  0
 11 12  2  0  0  0  0
 11 13  1  0  0  0  0
 11 27  1  0  0  0  0
 12 24  1  0  0  0  0
 12 25  1  0  0  0  0
 13 14  2  0  0  0  0
 14 15  1  0  0  0  0
 15 16  2  0  0  0  0
 16 27  1  0  0  0  0
 17 24  1  0  0  0  0
 17 29  1  0  0  0  0
 17 30  2  0  0  0  0
 18 19  1  0  0  0  0
 18 20  1  0  0  0  0
 19 21  1  0  0  0  0
 20 22  1  0  0  0  0
 21 28  1  0  0  0  0
 22 28  1  0  0  0  0
 23 29  1  0  0  0  0
 25 26  2  0  0  0  0
 26 27  1  0  0  0  0
  1 32  1  0  0  0  0
  2 33  1  0  0  0  0
  3 34  1  0  0  0  0
  4 35  1  0  0  0  0
  5 36  1  0  0  0  0
  6 37  1  0  0  0  0
  7 38  1  0  0  0  0
 13 39  1  0  0  0  0
 14 40  1  0  0  0  0
 15 41  1  0  0  0  0
 16 42  1  0  0  0  0
 18 43  1  0  0  0  0
 18 44  1  0  0  0  0
 19 45  1  0  0  0  0
 19 46  1  0  0  0  0
 20 47  1  0  0  0  0
 20 48  1  0  0  0  0
 21 49  1  0  0  0  0
 21 50  1  0  0  0  0
 22 51  1  0  0  0  0
 22 52  1  0  0  0  0
 23 53  1  0  0  0  0
 23 54  1  0  0  0  0
 24 55  1  0  0  0  0
 24 56  1  0  0  0  0
M  END
> <clash_score>
0

> <docking_score>
-8.717218399047852

> <overlap_score>
0.9899338483810425

$$$$
BENZO_427_1
  -OEChem-08222022423D

 54 57  0     0  0  0  0  0  0999 V2000
    8.3310   -2.7170   25.3430 C   0  0  0  0  0  0  0  0  0  0  0  0
   10.2570   -3.5000   24.1350 C   0  0  0  0  0  0  0  0  0  0  0  0
    8.3510   -1.5420   24.6110 C   0  0  0  0  0  0  0  0  0  0  0  0
   10.2760   -2.3270   23.4020 C   0  0  0  0  0  0  0  0  0  0  0  0
   12.4295    0.9466   24.6692 C   0  0  0  0  0  0  0  0  0  0  0  0
   12.3161    1.0259   22.4747 C   0  0  0  0  0  0  0  0  0  0  0  0
   11.5217    1.0079   23.5949 C   0  0  0  0  0  0  0  0  0  0  0  0
    9.2850   -3.7090   25.1090 C   0  0  0  0  0  0  0  0  0  0  0  0
    9.3300   -1.3350   23.6390 C   0  0  0  0  0  0  0  0  0  0  0  0
    6.1600    0.3870   20.1140 C   0  0  0  0  0  0  0  0  0  0  0  0
    7.2210   -0.4620   20.0350 C   0  0  0  0  0  0  0  0  0  0  0  0
    5.3360    0.8000   21.1530 C   0  0  0  0  0  0  0  0  0  0  0  0
    4.2970    1.6690   20.8430 C   0  0  0  0  0  0  0  0  0  0  0  0
    4.0980    2.1130   19.5350 C   0  0  0  0  0  0  0  0  0  0  0  0
    4.9400    1.7060   18.5060 C   0  0  0  0  0  0  0  0  0  0  0  0
    8.9510    0.1280   21.6880 C   0  0  0  0  0  0  0  0  0  0  0  0
    9.6848   -6.1688   25.4417 C   0  0  0  0  0  0  0  0  0  0  0  0
    8.0385   -7.2892   27.0037 C   0  0  0  0  0  0  0  0  0  0  0  0
   14.7958    0.9722   22.1181 C   0  0  0  0  0  0  0  0  0  0  0  0
   10.0220    1.0430   23.6570 C   0  0  0  0  0  0  0  0  0  0  0  0
    8.0810   -0.9750   21.0820 C   0  0  0  0  0  0  0  0  0  0  0  0
    9.4852   -7.1862   26.5551 C   0  0  0  0  0  0  0  0  0  0  0  0
   13.7032    0.9267   24.2674 N   0  0  0  0  0  0  0  0  0  0  0  0
    7.6830   -0.5170   18.7600 N   0  0  0  0  0  0  0  0  0  0  0  0
    6.9440    0.2550   18.0100 N   0  0  0  0  0  0  0  0  0  0  0  0
   13.6014    0.9758   22.9283 N   0  0  0  0  0  0  0  0  0  0  0  0
    5.9810    0.8330   18.8060 N   0  0  0  0  0  0  0  0  0  0  0  0
    9.2630   -4.8902   25.8410 N   0  0  0  0  0  0  0  0  0  0  0  0
    9.4200   -0.0840   22.9530 N   0  0  0  0  0  0  0  0  0  0  0  0
    9.1870    1.1500   21.0630 O   0  0  0  0  0  0  0  0  0  0  0  0
   10.1584   -6.4795   24.3537 O   0  0  0  0  0  0  0  0  0  0  0  0
    7.5639   -2.8621   26.1045 H   0  0  0  0  0  0  0  0  0  0  0  0
   11.0141   -4.2644   23.9422 H   0  0  0  0  0  0  0  0  0  0  0  0
    7.5950   -0.7788   24.8007 H   0  0  0  0  0  0  0  0  0  0  0  0
   11.0408   -2.1861   22.6359 H   0  0  0  0  0  0  0  0  0  0  0  0
   12.2184    0.9145   25.7287 H   0  0  0  0  0  0  0  0  0  0  0  0
   12.0821    1.0677   21.4195 H   0  0  0  0  0  0  0  0  0  0  0  0
    5.4740    0.4765   22.1644 H   0  0  0  0  0  0  0  0  0  0  0  0
    3.6415    1.9966   21.6411 H   0  0  0  0  0  0  0  0  0  0  0  0
    3.2723    2.7926   19.2922 H   0  0  0  0  0  0  0  0  0  0  0  0
    4.8122    2.0412   17.5001 H   0  0  0  0  0  0  0  0  0  0  0  0
    7.6697   -6.3242   27.3667 H   0  0  0  0  0  0  0  0  0  0  0  0
    7.9416   -8.0189   27.8135 H   0  0  0  0  0  0  0  0  0  0  0  0
    7.3926   -7.6064   26.1784 H   0  0  0  0  0  0  0  0  0  0  0  0
   15.1026    2.0102   21.9649 H   0  0  0  0  0  0  0  0  0  0  0  0
   15.5826    0.4128   22.6318 H   0  0  0  0  0  0  0  0  0  0  0  0
   14.5811    0.4906   21.1600 H   0  0  0  0  0  0  0  0  0  0  0  0
    9.6778    1.0140   24.6966 H   0  0  0  0  0  0  0  0  0  0  0  0
    9.6316    1.9637   23.2107 H   0  0  0  0  0  0  0  0  0  0  0  0
    7.4909   -1.4166   21.8987 H   0  0  0  0  0  0  0  0  0  0  0  0
    8.7548   -1.7579   20.7032 H   0  0  0  0  0  0  0  0  0  0  0  0
    9.8274   -8.1642   26.1976 H   0  0  0  0  0  0  0  0  0  0  0  0
   10.1123   -6.8975   27.4065 H   0  0  0  0  0  0  0  0  0  0  0  0
    8.8927   -4.8256   26.7964 H   0  0  0  0  0  0  0  0  0  0  0  0
  1  3  2  0  0  0  0
  1  8  1  0  0  0  0
  2  4  1  0  0  0  0
  2  8  2  0  0  0  0
  3  9  1  0  0  0  0
  4  9  2  0  0  0  0
  5  7  1  0  0  0  0
  5 23  2  0  0  0  0
  6  7  2  0  0  0  0
  6 26  1  0  0  0  0
  7 20  1  0  0  0  0
  8 28  1  0  0  0  0
  9 29  1  0  0  0  0
 10 11  2  0  0  0  0
 10 12  1  0  0  0  0
 10 27  1  0  0  0  0
 11 21  1  0  0  0  0
 11 24  1  0  0  0  0
 12 13  2  0  0  0  0
 13 14  1  0  0  0  0
 14 15  2  0  0  0  0
 15 27  1  0  0  0  0
 16 21  1  0  0  0  0
 16 29  1  0  0  0  0
 16 30  2  0  0  0  0
 17 22  1  0  0  0  0
 17 28  1  0  0  0  0
 17 31  2  0  0  0  0
 18 22  1  0  0  0  0
 19 26  1  0  0  0  0
 20 29  1  0  0  0  0
 23 26  1  0  0  0  0
 24 25  2  0  0  0  0
 25 27  1  0  0  0  0
  1 32  1  0  0  0  0
  2 33  1  0  0  0  0
  3 34  1  0  0  0  0
  4 35  1  0  0  0  0
  5 36  1  0  0  0  0
  6 37  1  0  0  0  0
 12 38  1  0  0  0  0
 13 39  1  0  0  0  0
 14 40  1  0  0  0  0
 15 41  1  0  0  0  0
 18 42  1  0  0  0  0
 18 43  1  0  0  0  0
 18 44  1  0  0  0  0
 19 45  1  0  0  0  0
 19 46  1  0  0  0  0
 19 47  1  0  0  0  0
 20 48  1  0  0  0  0
 20 49  1  0  0  0  0
 21 50  1  0  0  0  0
 21 51  1  0  0  0  0
 22 52  1  0  0  0  0
 22 53  1  0  0  0  0
 28 54  1  0  0  0  0
M  END
> <clash_score>
1.3336338752298933

> <docking_score>
-6.178451061248779

> <overlap_score>
0.9779927730560303

$$$$
BENZO_426_1
  -OEChem-08222022423D

 54 57  0     0  0  0  0  0  0999 V2000
   13.5977    1.8457   22.6865 C   0  0  0  0  0  0  0  0  0  0  0  0
   12.2044    1.8769   22.7438 C   0  0  0  0  0  0  0  0  0  0  0  0
    8.3310   -2.7170   25.3430 C   0  0  0  0  0  0  0  0  0  0  0  0
   10.2570   -3.5000   24.1350 C   0  0  0  0  0  0  0  0  0  0  0  0
    8.3510   -1.5420   24.6110 C   0  0  0  0  0  0  0  0  0  0  0  0
   10.2760   -2.3270   23.4020 C   0  0  0  0  0  0  0  0  0  0  0  0
   14.3084    0.9454   23.4803 C   0  0  0  0  0  0  0  0  0  0  0  0
   12.2323    0.1076   24.3888 C   0  0  0  0  0  0  0  0  0  0  0  0
   11.5217    1.0079   23.5949 C   0  0  0  0  0  0  0  0  0  0  0  0
    9.2850   -3.7090   25.1090 C   0  0  0  0  0  0  0  0  0  0  0  0
    9.3300   -1.3350   23.6390 C   0  0  0  0  0  0  0  0  0  0  0  0
   13.6257    0.0764   24.3314 C   0  0  0  0  0  0  0  0  0  0  0  0
    6.1600    0.3870   20.1140 C   0  0  0  0  0  0  0  0  0  0  0  0
    7.2210   -0.4620   20.0350 C   0  0  0  0  0  0  0  0  0  0  0  0
    5.3360    0.8000   21.1530 C   0  0  0  0  0  0  0  0  0  0  0  0
    4.2970    1.6690   20.8430 C   0  0  0  0  0  0  0  0  0  0  0  0
    4.0980    2.1130   19.5350 C   0  0  0  0  0  0  0  0  0  0  0  0
    4.9400    1.7060   18.5060 C   0  0  0  0  0  0  0  0  0  0  0  0
    8.9510    0.1280   21.6880 C   0  0  0  0  0  0  0  0  0  0  0  0
    9.6848   -6.1688   25.4417 C   0  0  0  0  0  0  0  0  0  0  0  0
    8.0385   -7.2892   27.0037 C   0  0  0  0  0  0  0  0  0  0  0  0
   10.0220    1.0430   23.6570 C   0  0  0  0  0  0  0  0  0  0  0  0
    8.0810   -0.9750   21.0820 C   0  0  0  0  0  0  0  0  0  0  0  0
    9.4852   -7.1862   26.5551 C   0  0  0  0  0  0  0  0  0  0  0  0
    7.6830   -0.5170   18.7600 N   0  0  0  0  0  0  0  0  0  0  0  0
    6.9440    0.2550   18.0100 N   0  0  0  0  0  0  0  0  0  0  0  0
    5.9810    0.8330   18.8060 N   0  0  0  0  0  0  0  0  0  0  0  0
    9.2630   -4.8902   25.8410 N   0  0  0  0  0  0  0  0  0  0  0  0
    9.4200   -0.0840   22.9530 N   0  0  0  0  0  0  0  0  0  0  0  0
    9.1870    1.1500   21.0630 O   0  0  0  0  0  0  0  0  0  0  0  0
   10.1584   -6.4795   24.3537 O   0  0  0  0  0  0  0  0  0  0  0  0
   14.5031   -1.0334   25.3114 Cl  0  0  0  0  0  0  0  0  0  0  0  0
   14.1289    2.5226   22.0237 H   0  0  0  0  0  0  0  0  0  0  0  0
   11.6588    2.5818   22.1218 H   0  0  0  0  0  0  0  0  0  0  0  0
    7.5639   -2.8621   26.1045 H   0  0  0  0  0  0  0  0  0  0  0  0
   11.0141   -4.2644   23.9422 H   0  0  0  0  0  0  0  0  0  0  0  0
    7.5950   -0.7788   24.8007 H   0  0  0  0  0  0  0  0  0  0  0  0
   11.0408   -2.1861   22.6359 H   0  0  0  0  0  0  0  0  0  0  0  0
   15.3941    0.9323   23.4255 H   0  0  0  0  0  0  0  0  0  0  0  0
   11.6954   -0.5682   25.0504 H   0  0  0  0  0  0  0  0  0  0  0  0
    5.4740    0.4765   22.1644 H   0  0  0  0  0  0  0  0  0  0  0  0
    3.6415    1.9966   21.6411 H   0  0  0  0  0  0  0  0  0  0  0  0
    3.2723    2.7926   19.2922 H   0  0  0  0  0  0  0  0  0  0  0  0
    4.8122    2.0412   17.5001 H   0  0  0  0  0  0  0  0  0  0  0  0
    7.6697   -6.3242   27.3667 H   0  0  0  0  0  0  0  0  0  0  0  0
    7.9416   -8.0189   27.8135 H   0  0  0  0  0  0  0  0  0  0  0  0
    7.3926   -7.6064   26.1784 H   0  0  0  0  0  0  0  0  0  0  0  0
    9.6778    1.0140   24.6966 H   0  0  0  0  0  0  0  0  0  0  0  0
    9.6316    1.9637   23.2107 H   0  0  0  0  0  0  0  0  0  0  0  0
    7.4909   -1.4166   21.8987 H   0  0  0  0  0  0  0  0  0  0  0  0
    8.7548   -1.7579   20.7032 H   0  0  0  0  0  0  0  0  0  0  0  0
    9.8274   -8.1642   26.1976 H   0  0  0  0  0  0  0  0  0  0  0  0
   10.1123   -6.8975   27.4065 H   0  0  0  0  0  0  0  0  0  0  0  0
    8.8927   -4.8256   26.7964 H   0  0  0  0  0  0  0  0  0  0  0  0
  1  2  2  0  0  0  0
  1  7  1  0  0  0  0
  2  9  1  0  0  0  0
  3  5  2  0  0  0  0
  3 10  1  0  0  0  0
  4  6  1  0  0  0  0
  4 10  2  0  0  0  0
  5 11  1  0  0  0  0
  6 11  2  0  0  0  0
  7 12  2  0  0  0  0
  8  9  2  0  0  0  0
  8 12  1  0  0  0  0
  9 22  1  0  0  0  0
 10 28  1  0  0  0  0
 11 29  1  0  0  0  0
 12 32  1  0  0  0  0
 13 14  2  0  0  0  0
 13 15  1  0  0  0  0
 13 27  1  0  0  0  0
 14 23  1  0  0  0  0
 14 25  1  0  0  0  0
 15 16  2  0  0  0  0
 16 17  1  0  0  0  0
 17 18  2  0  0  0  0
 18 27  1  0  0  0  0
 19 23  1  0  0  0  0
 19 29  1  0  0  0  0
 19 30  2  0  0  0  0
 20 24  1  0  0  0  0
 20 28  1  0  0  0  0
 20 31  2  0  0  0  0
 21 24  1  0  0  0  0
 22 29  1  0  0  0  0
 25 26  2  0  0  0  0
 26 27  1  0  0  0  0
  1 33  1  0  0  0  0
  2 34  1  0  0  0  0
  3 35  1  0  0  0  0
  4 36  1  0  0  0  0
  5 37  1  0  0  0  0
  6 38  1  0  0  0  0
  7 39  1  0  0  0  0
  8 40  1  0  0  0  0
 15 41  1  0  0  0  0
 16 42  1  0  0  0  0
 17 43  1  0  0  0  0
 18 44  1  0  0  0  0
 21 45  1  0  0  0  0
 21 46  1  0  0  0  0
 21 47  1  0  0  0  0
 22 48  1  0  0  0  0
 22 49  1  0  0  0  0
 23 50  1  0  0  0  0
 23 51  1  0  0  0  0
 24 52  1  0  0  0  0
 24 53  1  0  0  0  0
 28 54  1  0  0  0  0
M  END
> <clash_score>
2.0998772872103357

> <docking_score>
-5.4182844161987305

> <overlap_score>
0.9923591017723083

$$$$
BENZO_433_1
  -OEChem-08222022423D

 47 50  0     0  0  0  0  0  0999 V2000
   14.3082    0.9431   23.4783 C   0  0  0  0  0  0  0  0  0  0  0  0
   13.6391    0.3091   24.5251 C   0  0  0  0  0  0  0  0  0  0  0  0
   13.5841    1.6096   22.4898 C   0  0  0  0  0  0  0  0  0  0  0  0
   12.2459    0.3415   24.5835 C   0  0  0  0  0  0  0  0  0  0  0  0
   12.1908    1.6420   22.5481 C   0  0  0  0  0  0  0  0  0  0  0  0
    8.3310   -2.7170   25.3430 C   0  0  0  0  0  0  0  0  0  0  0  0
   10.2570   -3.5000   24.1350 C   0  0  0  0  0  0  0  0  0  0  0  0
    8.3510   -1.5420   24.6110 C   0  0  0  0  0  0  0  0  0  0  0  0
   10.2760   -2.3270   23.4020 C   0  0  0  0  0  0  0  0  0  0  0  0
    9.2850   -3.7090   25.1090 C   0  0  0  0  0  0  0  0  0  0  0  0
   11.5217    1.0079   23.5949 C   0  0  0  0  0  0  0  0  0  0  0  0
    9.3300   -1.3350   23.6390 C   0  0  0  0  0  0  0  0  0  0  0  0
    6.1600    0.3870   20.1140 C   0  0  0  0  0  0  0  0  0  0  0  0
    7.2210   -0.4620   20.0350 C   0  0  0  0  0  0  0  0  0  0  0  0
    5.3360    0.8000   21.1530 C   0  0  0  0  0  0  0  0  0  0  0  0
    4.2970    1.6690   20.8430 C   0  0  0  0  0  0  0  0  0  0  0  0
    4.0980    2.1130   19.5350 C   0  0  0  0  0  0  0  0  0  0  0  0
    4.9400    1.7060   18.5060 C   0  0  0  0  0  0  0  0  0  0  0  0
    8.9510    0.1280   21.6880 C   0  0  0  0  0  0  0  0  0  0  0  0
    9.2610   -4.9721   25.8916 C   0  0  0  0  0  0  0  0  0  0  0  0
   10.0220    1.0430   23.6570 C   0  0  0  0  0  0  0  0  0  0  0  0
    8.0810   -0.9750   21.0820 C   0  0  0  0  0  0  0  0  0  0  0  0
    7.6830   -0.5170   18.7600 N   0  0  0  0  0  0  0  0  0  0  0  0
    6.9440    0.2550   18.0100 N   0  0  0  0  0  0  0  0  0  0  0  0
    5.9810    0.8330   18.8060 N   0  0  0  0  0  0  0  0  0  0  0  0
    9.4200   -0.0840   22.9530 N   0  0  0  0  0  0  0  0  0  0  0  0
    9.1870    1.1500   21.0630 O   0  0  0  0  0  0  0  0  0  0  0  0
   15.3932    0.9189   23.4337 H   0  0  0  0  0  0  0  0  0  0  0  0
   14.2029   -0.2090   25.2955 H   0  0  0  0  0  0  0  0  0  0  0  0
   14.1048    2.1043   21.6752 H   0  0  0  0  0  0  0  0  0  0  0  0
   11.7330   -0.1555   25.4027 H   0  0  0  0  0  0  0  0  0  0  0  0
   11.6349    2.1636   21.7735 H   0  0  0  0  0  0  0  0  0  0  0  0
    7.5665   -2.8638   26.1066 H   0  0  0  0  0  0  0  0  0  0  0  0
   11.0137   -4.2652   23.9447 H   0  0  0  0  0  0  0  0  0  0  0  0
    7.5948   -0.7788   24.7997 H   0  0  0  0  0  0  0  0  0  0  0  0
   11.0411   -2.1856   22.6358 H   0  0  0  0  0  0  0  0  0  0  0  0
    5.4740    0.4765   22.1644 H   0  0  0  0  0  0  0  0  0  0  0  0
    3.6415    1.9966   21.6411 H   0  0  0  0  0  0  0  0  0  0  0  0
    3.2723    2.7926   19.2922 H   0  0  0  0  0  0  0  0  0  0  0  0
    4.8122    2.0412   17.5001 H   0  0  0  0  0  0  0  0  0  0  0  0
    8.6398   -5.7223   25.3871 H   0  0  0  0  0  0  0  0  0  0  0  0
   10.2715   -5.3829   26.0145 H   0  0  0  0  0  0  0  0  0  0  0  0
    8.8596   -4.8092   26.9004 H   0  0  0  0  0  0  0  0  0  0  0  0
    9.6778    1.0140   24.6966 H   0  0  0  0  0  0  0  0  0  0  0  0
    9.6316    1.9637   23.2107 H   0  0  0  0  0  0  0  0  0  0  0  0
    7.4909   -1.4166   21.8987 H   0  0  0  0  0  0  0  0  0  0  0  0
    8.7548   -1.7579   20.7032 H   0  0  0  0  0  0  0  0  0  0  0  0
  1  2  1  0  0  0  0
  1  3  2  0  0  0  0
  2  4  2  0  0  0  0
  3  5  1  0  0  0  0
  4 11  1  0  0  0  0
  5 11  2  0  0  0  0
  6  8  2  0  0  0  0
  6 10  1  0  0  0  0
  7  9  1  0  0  0  0
  7 10  2  0  0  0  0
  8 12  1  0  0  0  0
  9 12  2  0  0  0  0
 10 20  1  0  0  0  0
 11 21  1  0  0  0  0
 12 26  1  0  0  0  0
 13 14  2  0  0  0  0
 13 15  1  0  0  0  0
 13 25  1  0  0  0  0
 14 22  1  0  0  0  0
 14 23  1  0  0  0  0
 15 16  2  0  0  0  0
 16 17  1  0  0  0  0
 17 18  2  0  0  0  0
 18 25  1  0  0  0  0
 19 22  1  0  0  0  0
 19 26  1  0  0  0  0
 19 27  2  0  0  0  0
 21 26  1  0  0  0  0
 23 24  2  0  0  0  0
 24 25  1  0  0  0  0
  1 28  1  0  0  0  0
  2 29  1  0  0  0  0
  3 30  1  0  0  0  0
  4 31  1  0  0  0  0
  5 32  1  0  0  0  0
  6 33  1  0  0  0  0
  7 34  1  0  0  0  0
  8 35  1  0  0  0  0
  9 36  1  0  0  0  0
 15 37  1  0  0  0  0
 16 38  1  0  0  0  0
 17 39  1  0  0  0  0
 18 40  1  0  0  0  0
 20 41  1  0  0  0  0
 20 42  1  0  0  0  0
 20 43  1  0  0  0  0
 21 44  1  0  0  0  0
 21 45  1  0  0  0  0
 22 46  1  0  0  0  0
 22 47  1  0  0  0  0
M  END
> <clash_score>
0

> <docking_score>
-9.428666114807129

> <overlap_score>
0.971771776676178

$$$$
BENZO_432_1
  -OEChem-08222022423D

 44 47  0     0  0  0  0  0  0999 V2000
    8.3310   -2.7170   25.3430 C   0  0  0  0  0  0  0  0  0  0  0  0
   10.2570   -3.5000   24.1350 C   0  0  0  0  0  0  0  0  0  0  0  0
    8.3510   -1.5420   24.6110 C   0  0  0  0  0  0  0  0  0  0  0  0
   10.2760   -2.3270   23.4020 C   0  0  0  0  0  0  0  0  0  0  0  0
   12.2675    1.0332   22.3812 C   0  0  0  0  0  0  0  0  0  0  0  0
   13.6257    0.9906   22.6074 C   0  0  0  0  0  0  0  0  0  0  0  0
   12.3384    0.9467   24.7028 C   0  0  0  0  0  0  0  0  0  0  0  0
    9.2850   -3.7090   25.1090 C   0  0  0  0  0  0  0  0  0  0  0  0
   11.5217    1.0079   23.5949 C   0  0  0  0  0  0  0  0  0  0  0  0
    9.3300   -1.3350   23.6390 C   0  0  0  0  0  0  0  0  0  0  0  0
    6.1600    0.3870   20.1140 C   0  0  0  0  0  0  0  0  0  0  0  0
    7.2210   -0.4620   20.0350 C   0  0  0  0  0  0  0  0  0  0  0  0
    5.3360    0.8000   21.1530 C   0  0  0  0  0  0  0  0  0  0  0  0
    4.2970    1.6690   20.8430 C   0  0  0  0  0  0  0  0  0  0  0  0
    4.0980    2.1130   19.5350 C   0  0  0  0  0  0  0  0  0  0  0  0
    4.9400    1.7060   18.5060 C   0  0  0  0  0  0  0  0  0  0  0  0
    8.9510    0.1280   21.6880 C   0  0  0  0  0  0  0  0  0  0  0  0
    9.2610   -4.9721   25.8916 C   0  0  0  0  0  0  0  0  0  0  0  0
   10.0220    1.0430   23.6570 C   0  0  0  0  0  0  0  0  0  0  0  0
    8.0810   -0.9750   21.0820 C   0  0  0  0  0  0  0  0  0  0  0  0
    7.6830   -0.5170   18.7600 N   0  0  0  0  0  0  0  0  0  0  0  0
    6.9440    0.2550   18.0100 N   0  0  0  0  0  0  0  0  0  0  0  0
    5.9810    0.8330   18.8060 N   0  0  0  0  0  0  0  0  0  0  0  0
    9.4200   -0.0840   22.9530 N   0  0  0  0  0  0  0  0  0  0  0  0
    9.1870    1.1500   21.0630 O   0  0  0  0  0  0  0  0  0  0  0  0
   13.9969    0.9203   24.2776 S   0  0  0  0  0  0  0  0  0  0  0  0
    7.5665   -2.8638   26.1066 H   0  0  0  0  0  0  0  0  0  0  0  0
   11.0137   -4.2652   23.9447 H   0  0  0  0  0  0  0  0  0  0  0  0
    7.5948   -0.7788   24.7997 H   0  0  0  0  0  0  0  0  0  0  0  0
   11.0411   -2.1856   22.6358 H   0  0  0  0  0  0  0  0  0  0  0  0
   11.8339    1.0798   21.3902 H   0  0  0  0  0  0  0  0  0  0  0  0
   14.4176    0.9966   21.8719 H   0  0  0  0  0  0  0  0  0  0  0  0
   12.0446    0.9149   25.7428 H   0  0  0  0  0  0  0  0  0  0  0  0
    5.4740    0.4765   22.1644 H   0  0  0  0  0  0  0  0  0  0  0  0
    3.6415    1.9966   21.6411 H   0  0  0  0  0  0  0  0  0  0  0  0
    3.2723    2.7926   19.2922 H   0  0  0  0  0  0  0  0  0  0  0  0
    4.8122    2.0412   17.5001 H   0  0  0  0  0  0  0  0  0  0  0  0
    8.6398   -5.7223   25.3871 H   0  0  0  0  0  0  0  0  0  0  0  0
   10.2715   -5.3829   26.0145 H   0  0  0  0  0  0  0  0  0  0  0  0
    8.8596   -4.8092   26.9004 H   0  0  0  0  0  0  0  0  0  0  0  0
    9.6778    1.0140   24.6966 H   0  0  0  0  0  0  0  0  0  0  0  0
    9.6316    1.9637   23.2107 H   0  0  0  0  0  0  0  0  0  0  0  0
    7.4909   -1.4166   21.8987 H   0  0  0  0  0  0  0  0  0  0  0  0
    8.7548   -1.7579   20.7032 H   0  0  0  0  0  0  0  0  0  0  0  0
  1  3  2  0  0  0  0
  1  8  1  0  0  0  0
  2  4  1  0  0  0  0
  2  8  2  0  0  0  0
  3 10  1  0  0  0  0
  4 10  2  0  0  0  0
  5  6  2  0  0  0  0
  5  9  1  0  0  0  0
  6 26  1  0  0  0  0
  7  9  2  0  0  0  0
  7 26  1  0  0  0  0
  8 18  1  0  0  0  0
  9 19  1  0  0  0  0
 10 24  1  0  0  0  0
 11 12  2  0  0  0  0
 11 13  1  0  0  0  0
 11 23  1  0  0  0  0
 12 20  1  0  0  0  0
 12 21  1  0  0  0  0
 13 14  2  0  0  0  0
 14 15  1  0  0  0  0
 15 16  2  0  0  0  0
 16 23  1  0  0  0  0
 17 20  1  0  0  0  0
 17 24  1  0  0  0  0
 17 25  2  0  0  0  0
 19 24  1  0  0  0  0
 21 22  2  0  0  0  0
 22 23  1  0  0  0  0
  1 27  1  0  0  0  0
  2 28  1  0  0  0  0
  3 29  1  0  0  0  0
  4 30  1  0  0  0  0
  5 31  1  0  0  0  0
  6 32  1  0  0  0  0
  7 33  1  0  0  0  0
 13 34  1  0  0  0  0
 14 35  1  0  0  0  0
 15 36  1  0  0  0  0
 16 37  1  0  0  0  0
 18 38  1  0  0  0  0
 18 39  1  0  0  0  0
 18 40  1  0  0  0  0
 19 41  1  0  0  0  0
 19 42  1  0  0  0  0
 20 43  1  0  0  0  0
 20 44  1  0  0  0  0
M  END
> <clash_score>
0

> <docking_score>
-9.674880027770996

> <overlap_score>
0.9457806348800659

$$$$
BENZO_430_1
  -OEChem-08222022423D

 59 63  0     0  0  0  0  0  0999 V2000
   13.5977    1.8457   22.6865 C   0  0  0  0  0  0  0  0  0  0  0  0
   12.2044    1.8769   22.7438 C   0  0  0  0  0  0  0  0  0  0  0  0
    8.3310   -2.7170   25.3430 C   0  0  0  0  0  0  0  0  0  0  0  0
   10.2570   -3.5000   24.1350 C   0  0  0  0  0  0  0  0  0  0  0  0
    8.3510   -1.5420   24.6110 C   0  0  0  0  0  0  0  0  0  0  0  0
   10.2760   -2.3270   23.4020 C   0  0  0  0  0  0  0  0  0  0  0  0
   14.3084    0.9454   23.4803 C   0  0  0  0  0  0  0  0  0  0  0  0
   12.2323    0.1076   24.3888 C   0  0  0  0  0  0  0  0  0  0  0  0
   11.5217    1.0079   23.5949 C   0  0  0  0  0  0  0  0  0  0  0  0
    9.2850   -3.7090   25.1090 C   0  0  0  0  0  0  0  0  0  0  0  0
    9.3300   -1.3350   23.6390 C   0  0  0  0  0  0  0  0  0  0  0  0
   13.6257    0.0764   24.3314 C   0  0  0  0  0  0  0  0  0  0  0  0
    6.1600    0.3870   20.1140 C   0  0  0  0  0  0  0  0  0  0  0  0
    7.2210   -0.4620   20.0350 C   0  0  0  0  0  0  0  0  0  0  0  0
    5.3360    0.8000   21.1530 C   0  0  0  0  0  0  0  0  0  0  0  0
    4.2970    1.6690   20.8430 C   0  0  0  0  0  0  0  0  0  0  0  0
    4.0980    2.1130   19.5350 C   0  0  0  0  0  0  0  0  0  0  0  0
    4.9400    1.7060   18.5060 C   0  0  0  0  0  0  0  0  0  0  0  0
    8.9510    0.1280   21.6880 C   0  0  0  0  0  0  0  0  0  0  0  0
    7.3162   -6.8835   26.5210 C   0  0  0  0  0  0  0  0  0  0  0  0
    7.3507   -5.5245   27.2240 C   0  0  0  0  0  0  0  0  0  0  0  0
    7.9375   -6.8069   25.1245 C   0  0  0  0  0  0  0  0  0  0  0  0
    8.7638   -4.9418   27.2163 C   0  0  0  0  0  0  0  0  0  0  0  0
    9.3378   -6.1874   25.1659 C   0  0  0  0  0  0  0  0  0  0  0  0
   10.0220    1.0430   23.6570 C   0  0  0  0  0  0  0  0  0  0  0  0
    8.0810   -0.9750   21.0820 C   0  0  0  0  0  0  0  0  0  0  0  0
    7.6830   -0.5170   18.7600 N   0  0  0  0  0  0  0  0  0  0  0  0
    6.9440    0.2550   18.0100 N   0  0  0  0  0  0  0  0  0  0  0  0
    5.9810    0.8330   18.8060 N   0  0  0  0  0  0  0  0  0  0  0  0
    9.2639   -4.8860   25.8399 N   0  0  0  0  0  0  0  0  0  0  0  0
    9.4200   -0.0840   22.9530 N   0  0  0  0  0  0  0  0  0  0  0  0
    9.1870    1.1500   21.0630 O   0  0  0  0  0  0  0  0  0  0  0  0
   14.5031   -1.0334   25.3114 Cl  0  0  0  0  0  0  0  0  0  0  0  0
   14.1289    2.5227   22.0237 H   0  0  0  0  0  0  0  0  0  0  0  0
   11.6588    2.5818   22.1218 H   0  0  0  0  0  0  0  0  0  0  0  0
    7.5647   -2.8621   26.1053 H   0  0  0  0  0  0  0  0  0  0  0  0
   11.0144   -4.2642   23.9425 H   0  0  0  0  0  0  0  0  0  0  0  0
    7.5958   -0.7779   24.8006 H   0  0  0  0  0  0  0  0  0  0  0  0
   11.0406   -2.1848   22.6356 H   0  0  0  0  0  0  0  0  0  0  0  0
   15.3941    0.9323   23.4255 H   0  0  0  0  0  0  0  0  0  0  0  0
   11.6954   -0.5682   25.0504 H   0  0  0  0  0  0  0  0  0  0  0  0
    5.4740    0.4765   22.1644 H   0  0  0  0  0  0  0  0  0  0  0  0
    3.6415    1.9966   21.6411 H   0  0  0  0  0  0  0  0  0  0  0  0
    3.2723    2.7926   19.2922 H   0  0  0  0  0  0  0  0  0  0  0  0
    4.8122    2.0412   17.5001 H   0  0  0  0  0  0  0  0  0  0  0  0
    7.8578   -7.6261   27.1266 H   0  0  0  0  0  0  0  0  0  0  0  0
    6.2773   -7.2358   26.4459 H   0  0  0  0  0  0  0  0  0  0  0  0
    6.6663   -4.8351   26.7223 H   0  0  0  0  0  0  0  0  0  0  0  0
    7.0044   -5.6368   28.2534 H   0  0  0  0  0  0  0  0  0  0  0  0
    7.9946   -7.8119   24.6937 H   0  0  0  0  0  0  0  0  0  0  0  0
    7.2929   -6.2123   24.4668 H   0  0  0  0  0  0  0  0  0  0  0  0
    8.7343   -3.9408   27.6542 H   0  0  0  0  0  0  0  0  0  0  0  0
    9.4243   -5.5632   27.8278 H   0  0  0  0  0  0  0  0  0  0  0  0
   10.0200   -6.8490   25.7011 H   0  0  0  0  0  0  0  0  0  0  0  0
    9.6984   -6.0694   24.1436 H   0  0  0  0  0  0  0  0  0  0  0  0
    9.6778    1.0140   24.6966 H   0  0  0  0  0  0  0  0  0  0  0  0
    9.6316    1.9637   23.2107 H   0  0  0  0  0  0  0  0  0  0  0  0
    7.4781   -1.4136   21.8845 H   0  0  0  0  0  0  0  0  0  0  0  0
    8.7420   -1.7550   20.6889 H   0  0  0  0  0  0  0  0  0  0  0  0
  1  2  2  0  0  0  0
  1  7  1  0  0  0  0
  2  9  1  0  0  0  0
  3  5  2  0  0  0  0
  3 10  1  0  0  0  0
  4  6  1  0  0  0  0
  4 10  2  0  0  0  0
  5 11  1  0  0  0  0
  6 11  2  0  0  0  0
  7 12  2  0  0  0  0
  8  9  2  0  0  0  0
  8 12  1  0  0  0  0
  9 25  1  0  0  0  0
 10 30  1  0  0  0  0
 11 31  1  0  0  0  0
 12 33  1  0  0  0  0
 13 14  2  0  0  0  0
 13 15  1  0  0  0  0
 13 29  1  0  0  0  0
 14 26  1  0  0  0  0
 14 27  1  0  0  0  0
 15 16  2  0  0  0  0
 16 17  1  0  0  0  0
 17 18  2  0  0  0  0
 18 29  1  0  0  0  0
 19 26  1  0  0  0  0
 19 31  1  0  0  0  0
 19 32  2  0  0  0  0
 20 21  1  0  0  0  0
 20 22  1  0  0  0  0
 21 23  1  0  0  0  0
 22 24  1  0  0  0  0
 23 30  1  0  0  0  0
 24 30  1  0  0  0  0
 25 31  1  0  0  0  0
 27 28  2  0  0  0  0
 28 29  1  0  0  0  0
  1 34  1  0  0  0  0
  2 35  1  0  0  0  0
  3 36  1  0  0  0  0
  4 37  1  0  0  0  0
  5 38  1  0  0  0  0
  6 39  1  0  0  0  0
  7 40  1  0  0  0  0
  8 41  1  0  0  0  0
 15 42  1  0  0  0  0
 16 43  1  0  0  0  0
 17 44  1  0  0  0  0
 18 45  1  0  0  0  0
 20 46  1  0  0  0  0
 20 47  1  0  0  0  0
 21 48  1  0  0  0  0
 21 49  1  0  0  0  0
 22 50  1  0  0  0  0
 22 51  1  0  0  0  0
 23 52  1  0  0  0  0
 23 53  1  0  0  0  0
 24 54  1  0  0  0  0
 24 55  1  0  0  0  0
 25 56  1  0  0  0  0
 25 57  1  0  0  0  0
 26 58  1  0  0  0  0
 26 59  1  0  0  0  0
M  END
> <clash_score>
0.7662440897211608

> <docking_score>
-7.652904510498047

> <overlap_score>
1.0207408666610718

$$$$
BENZO_431_1
  -OEChem-08222022423D

 59 63  0     0  0  0  0  0  0999 V2000
    8.3310   -2.7170   25.3430 C   0  0  0  0  0  0  0  0  0  0  0  0
   10.2570   -3.5000   24.1350 C   0  0  0  0  0  0  0  0  0  0  0  0
    8.3510   -1.5420   24.6110 C   0  0  0  0  0  0  0  0  0  0  0  0
   10.2760   -2.3270   23.4020 C   0  0  0  0  0  0  0  0  0  0  0  0
   12.4359    1.7439   24.3724 C   0  0  0  0  0  0  0  0  0  0  0  0
   12.3100    0.2469   22.7668 C   0  0  0  0  0  0  0  0  0  0  0  0
   11.5217    1.0079   23.5949 C   0  0  0  0  0  0  0  0  0  0  0  0
    9.2850   -3.7090   25.1090 C   0  0  0  0  0  0  0  0  0  0  0  0
    9.3300   -1.3350   23.6390 C   0  0  0  0  0  0  0  0  0  0  0  0
    6.1600    0.3870   20.1140 C   0  0  0  0  0  0  0  0  0  0  0  0
    7.2210   -0.4620   20.0350 C   0  0  0  0  0  0  0  0  0  0  0  0
    5.3360    0.8000   21.1530 C   0  0  0  0  0  0  0  0  0  0  0  0
    4.2970    1.6690   20.8430 C   0  0  0  0  0  0  0  0  0  0  0  0
    4.0980    2.1130   19.5350 C   0  0  0  0  0  0  0  0  0  0  0  0
    4.9400    1.7060   18.5060 C   0  0  0  0  0  0  0  0  0  0  0  0
    8.9510    0.1280   21.6880 C   0  0  0  0  0  0  0  0  0  0  0  0
    7.3162   -6.8835   26.5210 C   0  0  0  0  0  0  0  0  0  0  0  0
    7.3507   -5.5245   27.2240 C   0  0  0  0  0  0  0  0  0  0  0  0
    7.9375   -6.8069   25.1245 C   0  0  0  0  0  0  0  0  0  0  0  0
    8.7638   -4.9418   27.2163 C   0  0  0  0  0  0  0  0  0  0  0  0
    9.3378   -6.1874   25.1659 C   0  0  0  0  0  0  0  0  0  0  0  0
   14.7884    0.0124   22.4815 C   0  0  0  0  0  0  0  0  0  0  0  0
   10.0220    1.0430   23.6570 C   0  0  0  0  0  0  0  0  0  0  0  0
    8.0810   -0.9750   21.0820 C   0  0  0  0  0  0  0  0  0  0  0  0
   13.7076    1.4745   24.0657 N   0  0  0  0  0  0  0  0  0  0  0  0
    7.6830   -0.5170   18.7600 N   0  0  0  0  0  0  0  0  0  0  0  0
    6.9440    0.2550   18.0100 N   0  0  0  0  0  0  0  0  0  0  0  0
   13.5982    0.5607   23.0864 N   0  0  0  0  0  0  0  0  0  0  0  0
    5.9810    0.8330   18.8060 N   0  0  0  0  0  0  0  0  0  0  0  0
    9.2639   -4.8860   25.8399 N   0  0  0  0  0  0  0  0  0  0  0  0
    9.4200   -0.0840   22.9530 N   0  0  0  0  0  0  0  0  0  0  0  0
    9.1870    1.1500   21.0630 O   0  0  0  0  0  0  0  0  0  0  0  0
    7.5647   -2.8621   26.1053 H   0  0  0  0  0  0  0  0  0  0  0  0
   11.0144   -4.2642   23.9425 H   0  0  0  0  0  0  0  0  0  0  0  0
    7.5958   -0.7779   24.8006 H   0  0  0  0  0  0  0  0  0  0  0  0
   11.0406   -2.1848   22.6356 H   0  0  0  0  0  0  0  0  0  0  0  0
   12.2308    2.4652   25.1508 H   0  0  0  0  0  0  0  0  0  0  0  0
   12.0700   -0.4744   21.9974 H   0  0  0  0  0  0  0  0  0  0  0  0
    5.4740    0.4765   22.1644 H   0  0  0  0  0  0  0  0  0  0  0  0
    3.6415    1.9966   21.6411 H   0  0  0  0  0  0  0  0  0  0  0  0
    3.2723    2.7926   19.2922 H   0  0  0  0  0  0  0  0  0  0  0  0
    4.8122    2.0412   17.5001 H   0  0  0  0  0  0  0  0  0  0  0  0
    7.8578   -7.6261   27.1266 H   0  0  0  0  0  0  0  0  0  0  0  0
    6.2773   -7.2358   26.4459 H   0  0  0  0  0  0  0  0  0  0  0  0
    6.6663   -4.8351   26.7223 H   0  0  0  0  0  0  0  0  0  0  0  0
    7.0044   -5.6368   28.2534 H   0  0  0  0  0  0  0  0  0  0  0  0
    7.9946   -7.8119   24.6937 H   0  0  0  0  0  0  0  0  0  0  0  0
    7.2929   -6.2123   24.4668 H   0  0  0  0  0  0  0  0  0  0  0  0
    8.7343   -3.9408   27.6542 H   0  0  0  0  0  0  0  0  0  0  0  0
    9.4243   -5.5632   27.8278 H   0  0  0  0  0  0  0  0  0  0  0  0
   10.0200   -6.8490   25.7011 H   0  0  0  0  0  0  0  0  0  0  0  0
    9.6984   -6.0694   24.1436 H   0  0  0  0  0  0  0  0  0  0  0  0
   15.0569    0.6453   21.6315 H   0  0  0  0  0  0  0  0  0  0  0  0
   15.5971   -0.0026   23.2174 H   0  0  0  0  0  0  0  0  0  0  0  0
   14.5870   -1.0100   22.1498 H   0  0  0  0  0  0  0  0  0  0  0  0
    9.6778    1.0140   24.6966 H   0  0  0  0  0  0  0  0  0  0  0  0
    9.6316    1.9637   23.2107 H   0  0  0  0  0  0  0  0  0  0  0  0
    7.4781   -1.4136   21.8845 H   0  0  0  0  0  0  0  0  0  0  0  0
    8.7420   -1.7550   20.6889 H   0  0  0  0  0  0  0  0  0  0  0  0
  1  3  2  0  0  0  0
  1  8  1  0  0  0  0
  2  4  1  0  0  0  0
  2  8  2  0  0  0  0
  3  9  1  0  0  0  0
  4  9  2  0  0  0  0
  5  7  1  0  0  0  0
  5 25  2  0  0  0  0
  6  7  2  0  0  0  0
  6 28  1  0  0  0  0
  7 23  1  0  0  0  0
  8 30  1  0  0  0  0
  9 31  1  0  0  0  0
 10 11  2  0  0  0  0
 10 12  1  0  0  0  0
 10 29  1  0  0  0  0
 11 24  1  0  0  0  0
 11 26  1  0  0  0  0
 12 13  2  0  0  0  0
 13 14  1  0  0  0  0
 14 15  2  0  0  0  0
 15 29  1  0  0  0  0
 16 24  1  0  0  0  0
 16 31  1  0  0  0  0
 16 32  2  0  0  0  0
 17 18  1  0  0  0  0
 17 19  1  0  0  0  0
 18 20  1  0  0  0  0
 19 21  1  0  0  0  0
 20 30  1  0  0  0  0
 21 30  1  0  0  0  0
 22 28  1  0  0  0  0
 23 31  1  0  0  0  0
 25 28  1  0  0  0  0
 26 27  2  0  0  0  0
 27 29  1  0  0  0  0
  1 33  1  0  0  0  0
  2 34  1  0  0  0  0
  3 35  1  0  0  0  0
  4 36  1  0  0  0  0
  5 37  1  0  0  0  0
  6 38  1  0  0  0  0
 12 39  1  0  0  0  0
 13 40  1  0  0  0  0
 14 41  1  0  0  0  0
 15 42  1  0  0  0  0
 17 43  1  0  0  0  0
 17 44  1  0  0  0  0
 18 45  1  0  0  0  0
 18 46  1  0  0  0  0
 19 47  1  0  0  0  0
 19 48  1  0  0  0  0
 20 49  1  0  0  0  0
 20 50  1  0  0  0  0
 21 51  1  0  0  0  0
 21 52  1  0  0  0  0
 22 53  1  0  0  0  0
 22 54  1  0  0  0  0
 22 55  1  0  0  0  0
 23 56  1  0  0  0  0
 23 57  1  0  0  0  0
 24 58  1  0  0  0  0
 24 59  1  0  0  0  0
M  END
> <clash_score>
0

> <docking_score>
-8.685622215270996

> <overlap_score>
1.0017565488815308

$$$$
BENZO_435_1
  -OEChem-08222022423D

 47 50  0     0  0  0  0  0  0999 V2000
    8.3310   -2.7170   25.3430 C   0  0  0  0  0  0  0  0  0  0  0  0
   10.2570   -3.5000   24.1350 C   0  0  0  0  0  0  0  0  0  0  0  0
    8.3510   -1.5420   24.6110 C   0  0  0  0  0  0  0  0  0  0  0  0
   10.2760   -2.3270   23.4020 C   0  0  0  0  0  0  0  0  0  0  0  0
   12.4295    0.9466   24.6692 C   0  0  0  0  0  0  0  0  0  0  0  0
   12.3161    1.0259   22.4747 C   0  0  0  0  0  0  0  0  0  0  0  0
    9.2850   -3.7090   25.1090 C   0  0  0  0  0  0  0  0  0  0  0  0
   11.5217    1.0079   23.5949 C   0  0  0  0  0  0  0  0  0  0  0  0
    9.3300   -1.3350   23.6390 C   0  0  0  0  0  0  0  0  0  0  0  0
    6.1600    0.3870   20.1140 C   0  0  0  0  0  0  0  0  0  0  0  0
    7.2210   -0.4620   20.0350 C   0  0  0  0  0  0  0  0  0  0  0  0
    5.3360    0.8000   21.1530 C   0  0  0  0  0  0  0  0  0  0  0  0
    4.2970    1.6690   20.8430 C   0  0  0  0  0  0  0  0  0  0  0  0
    4.0980    2.1130   19.5350 C   0  0  0  0  0  0  0  0  0  0  0  0
    4.9400    1.7060   18.5060 C   0  0  0  0  0  0  0  0  0  0  0  0
    8.9510    0.1280   21.6880 C   0  0  0  0  0  0  0  0  0  0  0  0
    9.2610   -4.9721   25.8916 C   0  0  0  0  0  0  0  0  0  0  0  0
   14.7958    0.9722   22.1181 C   0  0  0  0  0  0  0  0  0  0  0  0
   10.0220    1.0430   23.6570 C   0  0  0  0  0  0  0  0  0  0  0  0
    8.0810   -0.9750   21.0820 C   0  0  0  0  0  0  0  0  0  0  0  0
   13.7032    0.9267   24.2674 N   0  0  0  0  0  0  0  0  0  0  0  0
    7.6830   -0.5170   18.7600 N   0  0  0  0  0  0  0  0  0  0  0  0
    6.9440    0.2550   18.0100 N   0  0  0  0  0  0  0  0  0  0  0  0
   13.6014    0.9758   22.9283 N   0  0  0  0  0  0  0  0  0  0  0  0
    5.9810    0.8330   18.8060 N   0  0  0  0  0  0  0  0  0  0  0  0
    9.4200   -0.0840   22.9530 N   0  0  0  0  0  0  0  0  0  0  0  0
    9.1870    1.1500   21.0630 O   0  0  0  0  0  0  0  0  0  0  0  0
    7.5665   -2.8638   26.1066 H   0  0  0  0  0  0  0  0  0  0  0  0
   11.0137   -4.2652   23.9447 H   0  0  0  0  0  0  0  0  0  0  0  0
    7.5948   -0.7788   24.7997 H   0  0  0  0  0  0  0  0  0  0  0  0
   11.0411   -2.1856   22.6358 H   0  0  0  0  0  0  0  0  0  0  0  0
   12.2184    0.9145   25.7287 H   0  0  0  0  0  0  0  0  0  0  0  0
   12.0821    1.0677   21.4195 H   0  0  0  0  0  0  0  0  0  0  0  0
    5.4740    0.4765   22.1644 H   0  0  0  0  0  0  0  0  0  0  0  0
    3.6415    1.9966   21.6411 H   0  0  0  0  0  0  0  0  0  0  0  0
    3.2723    2.7926   19.2922 H   0  0  0  0  0  0  0  0  0  0  0  0
    4.8122    2.0412   17.5001 H   0  0  0  0  0  0  0  0  0  0  0  0
    8.6398   -5.7223   25.3871 H   0  0  0  0  0  0  0  0  0  0  0  0
   10.2715   -5.3829   26.0145 H   0  0  0  0  0  0  0  0  0  0  0  0
    8.8596   -4.8092   26.9004 H   0  0  0  0  0  0  0  0  0  0  0  0
   15.1026    2.0102   21.9649 H   0  0  0  0  0  0  0  0  0  0  0  0
   15.5826    0.4128   22.6318 H   0  0  0  0  0  0  0  0  0  0  0  0
   14.5811    0.4906   21.1600 H   0  0  0  0  0  0  0  0  0  0  0  0
    9.6778    1.0140   24.6966 H   0  0  0  0  0  0  0  0  0  0  0  0
    9.6316    1.9637   23.2107 H   0  0  0  0  0  0  0  0  0  0  0  0
    7.4909   -1.4166   21.8987 H   0  0  0  0  0  0  0  0  0  0  0  0
    8.7548   -1.7579   20.7032 H   0  0  0  0  0  0  0  0  0  0  0  0
  1  3  2  0  0  0  0
  1  7  1  0  0  0  0
  2  4  1  0  0  0  0
  2  7  2  0  0  0  0
  3  9  1  0  0  0  0
  4  9  2  0  0  0  0
  5  8  1  0  0  0  0
  5 21  2  0  0  0  0
  6  8  2  0  0  0  0
  6 24  1  0  0  0  0
  7 17  1  0  0  0  0
  8 19  1  0  0  0  0
  9 26  1  0  0  0  0
 10 11  2  0  0  0  0
 10 12  1  0  0  0  0
 10 25  1  0  0  0  0
 11 20  1  0  0  0  0
 11 22  1  0  0  0  0
 12 13  2  0  0  0  0
 13 14  1  0  0  0  0
 14 15  2  0  0  0  0
 15 25  1  0  0  0  0
 16 20  1  0  0  0  0
 16 26  1  0  0  0  0
 16 27  2  0  0  0  0
 18 24  1  0  0  0  0
 19 26  1  0  0  0  0
 21 24  1  0  0  0  0
 22 23  2  0  0  0  0
 23 25  1  0  0  0  0
  1 28  1  0  0  0  0
  2 29  1  0  0  0  0
  3 30  1  0  0  0  0
  4 31  1  0  0  0  0
  5 32  1  0  0  0  0
  6 33  1  0  0  0  0
 12 34  1  0  0  0  0
 13 35  1  0  0  0  0
 14 36  1  0  0  0  0
 15 37  1  0  0  0  0
 17 38  1  0  0  0  0
 17 39  1  0  0  0  0
 17 40  1  0  0  0  0
 18 41  1  0  0  0  0
 18 42  1  0  0  0  0
 18 43  1  0  0  0  0
 19 44  1  0  0  0  0
 19 45  1  0  0  0  0
 20 46  1  0  0  0  0
 20 47  1  0  0  0  0
M  END
> <clash_score>
0

> <docking_score>
-9.370725631713867

> <overlap_score>
0.9625561237335205

$$$$
BENZO_434_1
  -OEChem-08222022423D

 47 50  0     0  0  0  0  0  0999 V2000
   13.5977    1.8457   22.6865 C   0  0  0  0  0  0  0  0  0  0  0  0
   12.2044    1.8769   22.7438 C   0  0  0  0  0  0  0  0  0  0  0  0
    8.3310   -2.7170   25.3430 C   0  0  0  0  0  0  0  0  0  0  0  0
   10.2570   -3.5000   24.1350 C   0  0  0  0  0  0  0  0  0  0  0  0
    8.3510   -1.5420   24.6110 C   0  0  0  0  0  0  0  0  0  0  0  0
   10.2760   -2.3270   23.4020 C   0  0  0  0  0  0  0  0  0  0  0  0
   14.3084    0.9454   23.4803 C   0  0  0  0  0  0  0  0  0  0  0  0
   12.2323    0.1076   24.3888 C   0  0  0  0  0  0  0  0  0  0  0  0
    9.2850   -3.7090   25.1090 C   0  0  0  0  0  0  0  0  0  0  0  0
   11.5217    1.0079   23.5949 C   0  0  0  0  0  0  0  0  0  0  0  0
    9.3300   -1.3350   23.6390 C   0  0  0  0  0  0  0  0  0  0  0  0
   13.6257    0.0764   24.3314 C   0  0  0  0  0  0  0  0  0  0  0  0
    6.1600    0.3870   20.1140 C   0  0  0  0  0  0  0  0  0  0  0  0
    7.2210   -0.4620   20.0350 C   0  0  0  0  0  0  0  0  0  0  0  0
    5.3360    0.8000   21.1530 C   0  0  0  0  0  0  0  0  0  0  0  0
    4.2970    1.6690   20.8430 C   0  0  0  0  0  0  0  0  0  0  0  0
    4.0980    2.1130   19.5350 C   0  0  0  0  0  0  0  0  0  0  0  0
    4.9400    1.7060   18.5060 C   0  0  0  0  0  0  0  0  0  0  0  0
    8.9510    0.1280   21.6880 C   0  0  0  0  0  0  0  0  0  0  0  0
    9.2610   -4.9721   25.8916 C   0  0  0  0  0  0  0  0  0  0  0  0
   10.0220    1.0430   23.6570 C   0  0  0  0  0  0  0  0  0  0  0  0
    8.0810   -0.9750   21.0820 C   0  0  0  0  0  0  0  0  0  0  0  0
    7.6830   -0.5170   18.7600 N   0  0  0  0  0  0  0  0  0  0  0  0
    6.9440    0.2550   18.0100 N   0  0  0  0  0  0  0  0  0  0  0  0
    5.9810    0.8330   18.8060 N   0  0  0  0  0  0  0  0  0  0  0  0
    9.4200   -0.0840   22.9530 N   0  0  0  0  0  0  0  0  0  0  0  0
    9.1870    1.1500   21.0630 O   0  0  0  0  0  0  0  0  0  0  0  0
   14.5031   -1.0334   25.3114 Cl  0  0  0  0  0  0  0  0  0  0  0  0
   14.1289    2.5226   22.0237 H   0  0  0  0  0  0  0  0  0  0  0  0
   11.6588    2.5818   22.1218 H   0  0  0  0  0  0  0  0  0  0  0  0
    7.5665   -2.8638   26.1066 H   0  0  0  0  0  0  0  0  0  0  0  0
   11.0137   -4.2652   23.9447 H   0  0  0  0  0  0  0  0  0  0  0  0
    7.5948   -0.7788   24.7997 H   0  0  0  0  0  0  0  0  0  0  0  0
   11.0411   -2.1856   22.6358 H   0  0  0  0  0  0  0  0  0  0  0  0
   15.3941    0.9323   23.4255 H   0  0  0  0  0  0  0  0  0  0  0  0
   11.6954   -0.5682   25.0504 H   0  0  0  0  0  0  0  0  0  0  0  0
    5.4740    0.4765   22.1644 H   0  0  0  0  0  0  0  0  0  0  0  0
    3.6415    1.9966   21.6411 H   0  0  0  0  0  0  0  0  0  0  0  0
    3.2723    2.7926   19.2922 H   0  0  0  0  0  0  0  0  0  0  0  0
    4.8122    2.0412   17.5001 H   0  0  0  0  0  0  0  0  0  0  0  0
    8.6398   -5.7223   25.3871 H   0  0  0  0  0  0  0  0  0  0  0  0
   10.2715   -5.3829   26.0145 H   0  0  0  0  0  0  0  0  0  0  0  0
    8.8596   -4.8092   26.9004 H   0  0  0  0  0  0  0  0  0  0  0  0
    9.6778    1.0140   24.6966 H   0  0  0  0  0  0  0  0  0  0  0  0
    9.6316    1.9637   23.2107 H   0  0  0  0  0  0  0  0  0  0  0  0
    7.4909   -1.4166   21.8987 H   0  0  0  0  0  0  0  0  0  0  0  0
    8.7548   -1.7579   20.7032 H   0  0  0  0  0  0  0  0  0  0  0  0
  1  2  2  0  0  0  0
  1  7  1  0  0  0  0
  2 10  1  0  0  0  0
  3  5  2  0  0  0  0
  3  9  1  0  0  0  0
  4  6  1  0  0  0  0
  4  9  2  0  0  0  0
  5 11  1  0  0  0  0
  6 11  2  0  0  0  0
  7 12  2  0  0  0  0
  8 10  2  0  0  0  0
  8 12  1  0  0  0  0
  9 20  1  0  0  0  0
 10 21  1  0  0  0  0
 11 26  1  0  0  0  0
 12 28  1  0  0  0  0
 13 14  2  0  0  0  0
 13 15  1  0  0  0  0
 13 25  1  0  0  0  0
 14 22  1  0  0  0  0
 14 23  1  0  0  0  0
 15 16  2  0  0  0  0
 16 17  1  0  0  0  0
 17 18  2  0  0  0  0
 18 25  1  0  0  0  0
 19 22  1  0  0  0  0
 19 26  1  0  0  0  0
 19 27  2  0  0  0  0
 21 26  1  0  0  0  0
 23 24  2  0  0  0  0
 24 25  1  0  0  0  0
  1 29  1  0  0  0  0
  2 30  1  0  0  0  0
  3 31  1  0  0  0  0
  4 32  1  0  0  0  0
  5 33  1  0  0  0  0
  6 34  1  0  0  0  0
  7 35  1  0  0  0  0
  8 36  1  0  0  0  0
 15 37  1  0  0  0  0
 16 38  1  0  0  0  0
 17 39  1  0  0  0  0
 18 40  1  0  0  0  0
 20 41  1  0  0  0  0
 20 42  1  0  0  0  0
 20 43  1  0  0  0  0
 21 44  1  0  0  0  0
 21 45  1  0  0  0  0
 22 46  1  0  0  0  0
 22 47  1  0  0  0  0
M  END
> <clash_score>
0.7662434119804425

> <docking_score>
-8.61055850982666

> <overlap_score>
0.9770404696464539

$$$$
BENZO_437_1
  -OEChem-08222022423D

 48 51  0     0  0  0  0  0  0999 V2000
   14.3082    0.9431   23.4783 C   0  0  0  0  0  0  0  0  0  0  0  0
   13.6391    0.3091   24.5251 C   0  0  0  0  0  0  0  0  0  0  0  0
   13.5841    1.6096   22.4898 C   0  0  0  0  0  0  0  0  0  0  0  0
   12.2459    0.3415   24.5835 C   0  0  0  0  0  0  0  0  0  0  0  0
   12.1908    1.6420   22.5481 C   0  0  0  0  0  0  0  0  0  0  0  0
    8.3510   -1.5420   24.6110 C   0  0  0  0  0  0  0  0  0  0  0  0
   10.2760   -2.3270   23.4020 C   0  0  0  0  0  0  0  0  0  0  0  0
    8.3310   -2.7170   25.3430 C   0  0  0  0  0  0  0  0  0  0  0  0
   10.2570   -3.5000   24.1350 C   0  0  0  0  0  0  0  0  0  0  0  0
   11.5217    1.0079   23.5949 C   0  0  0  0  0  0  0  0  0  0  0  0
    9.3300   -1.3350   23.6390 C   0  0  0  0  0  0  0  0  0  0  0  0
    9.2850   -3.7090   25.1090 C   0  0  0  0  0  0  0  0  0  0  0  0
    6.1600    0.3870   20.1140 C   0  0  0  0  0  0  0  0  0  0  0  0
    7.2210   -0.4620   20.0350 C   0  0  0  0  0  0  0  0  0  0  0  0
    5.3360    0.8000   21.1530 C   0  0  0  0  0  0  0  0  0  0  0  0
    4.2970    1.6690   20.8430 C   0  0  0  0  0  0  0  0  0  0  0  0
    4.0980    2.1130   19.5350 C   0  0  0  0  0  0  0  0  0  0  0  0
    4.9400    1.7060   18.5060 C   0  0  0  0  0  0  0  0  0  0  0  0
    8.9510    0.1280   21.6880 C   0  0  0  0  0  0  0  0  0  0  0  0
    8.2346   -4.9976   26.8023 C   0  0  0  0  0  0  0  0  0  0  0  0
   10.0220    1.0430   23.6570 C   0  0  0  0  0  0  0  0  0  0  0  0
    8.0810   -0.9750   21.0820 C   0  0  0  0  0  0  0  0  0  0  0  0
    7.6830   -0.5170   18.7600 N   0  0  0  0  0  0  0  0  0  0  0  0
    6.9440    0.2550   18.0100 N   0  0  0  0  0  0  0  0  0  0  0  0
    5.9810    0.8330   18.8060 N   0  0  0  0  0  0  0  0  0  0  0  0
    9.4200   -0.0840   22.9530 N   0  0  0  0  0  0  0  0  0  0  0  0
    9.1870    1.1500   21.0630 O   0  0  0  0  0  0  0  0  0  0  0  0
    9.2631   -4.8614   25.8229 O   0  0  0  0  0  0  0  0  0  0  0  0
   15.3932    0.9189   23.4337 H   0  0  0  0  0  0  0  0  0  0  0  0
   14.2029   -0.2090   25.2955 H   0  0  0  0  0  0  0  0  0  0  0  0
   14.1048    2.1043   21.6752 H   0  0  0  0  0  0  0  0  0  0  0  0
   11.7330   -0.1555   25.4027 H   0  0  0  0  0  0  0  0  0  0  0  0
   11.6349    2.1636   21.7735 H   0  0  0  0  0  0  0  0  0  0  0  0
    7.5951   -0.7786   24.8000 H   0  0  0  0  0  0  0  0  0  0  0  0
   11.0406   -2.1866   22.6351 H   0  0  0  0  0  0  0  0  0  0  0  0
    7.5664   -2.8674   26.1055 H   0  0  0  0  0  0  0  0  0  0  0  0
   11.0119   -4.2671   23.9461 H   0  0  0  0  0  0  0  0  0  0  0  0
    5.4740    0.4765   22.1644 H   0  0  0  0  0  0  0  0  0  0  0  0
    3.6415    1.9966   21.6411 H   0  0  0  0  0  0  0  0  0  0  0  0
    3.2723    2.7926   19.2922 H   0  0  0  0  0  0  0  0  0  0  0  0
    4.8122    2.0412   17.5001 H   0  0  0  0  0  0  0  0  0  0  0  0
    8.3309   -5.9652   27.3009 H   0  0  0  0  0  0  0  0  0  0  0  0
    7.2574   -4.9205   26.3189 H   0  0  0  0  0  0  0  0  0  0  0  0
    8.3380   -4.1983   27.5400 H   0  0  0  0  0  0  0  0  0  0  0  0
    9.6778    1.0140   24.6966 H   0  0  0  0  0  0  0  0  0  0  0  0
    9.6316    1.9637   23.2107 H   0  0  0  0  0  0  0  0  0  0  0  0
    7.4909   -1.4166   21.8987 H   0  0  0  0  0  0  0  0  0  0  0  0
    8.7548   -1.7579   20.7032 H   0  0  0  0  0  0  0  0  0  0  0  0
  1  2  1  0  0  0  0
  1  3  2  0  0  0  0
  2  4  2  0  0  0  0
  3  5  1  0  0  0  0
  4 10  1  0  0  0  0
  5 10  2  0  0  0  0
  6  8  2  0  0  0  0
  6 11  1  0  0  0  0
  7  9  1  0  0  0  0
  7 11  2  0  0  0  0
  8 12  1  0  0  0  0
  9 12  2  0  0  0  0
 10 21  1  0  0  0  0
 11 26  1  0  0  0  0
 12 28  1  0  0  0  0
 13 14  2  0  0  0  0
 13 15  1  0  0  0  0
 13 25  1  0  0  0  0
 14 22  1  0  0  0  0
 14 23  1  0  0  0  0
 15 16  2  0  0  0  0
 16 17  1  0  0  0  0
 17 18  2  0  0  0  0
 18 25  1  0  0  0  0
 19 22  1  0  0  0  0
 19 26  1  0  0  0  0
 19 27  2  0  0  0  0
 20 28  1  0  0  0  0
 21 26  1  0  0  0  0
 23 24  2  0  0  0  0
 24 25  1  0  0  0  0
  1 29  1  0  0  0  0
  2 30  1  0  0  0  0
  3 31  1  0  0  0  0
  4 32  1  0  0  0  0
  5 33  1  0  0  0  0
  6 34  1  0  0  0  0
  7 35  1  0  0  0  0
  8 36  1  0  0  0  0
  9 37  1  0  0  0  0
 15 38  1  0  0  0  0
 16 39  1  0  0  0  0
 17 40  1  0  0  0  0
 18 41  1  0  0  0  0
 20 42  1  0  0  0  0
 20 43  1  0  0  0  0
 20 44  1  0  0  0  0
 21 45  1  0  0  0  0
 21 46  1  0  0  0  0
 22 47  1  0  0  0  0
 22 48  1  0  0  0  0
M  END
> <clash_score>
0

> <docking_score>
-9.137690544128418

> <overlap_score>
0.9956544637680054

$$$$
BENZO_436_1
  -OEChem-08222022423D

 45 48  0     0  0  0  0  0  0999 V2000
    8.3510   -1.5420   24.6110 C   0  0  0  0  0  0  0  0  0  0  0  0
   10.2760   -2.3270   23.4020 C   0  0  0  0  0  0  0  0  0  0  0  0
    8.3310   -2.7170   25.3430 C   0  0  0  0  0  0  0  0  0  0  0  0
   10.2570   -3.5000   24.1350 C   0  0  0  0  0  0  0  0  0  0  0  0
   12.2675    1.0332   22.3812 C   0  0  0  0  0  0  0  0  0  0  0  0
   13.6257    0.9906   22.6074 C   0  0  0  0  0  0  0  0  0  0  0  0
   12.3384    0.9467   24.7028 C   0  0  0  0  0  0  0  0  0  0  0  0
   11.5217    1.0079   23.5949 C   0  0  0  0  0  0  0  0  0  0  0  0
    9.3300   -1.3350   23.6390 C   0  0  0  0  0  0  0  0  0  0  0  0
    9.2850   -3.7090   25.1090 C   0  0  0  0  0  0  0  0  0  0  0  0
    6.1600    0.3870   20.1140 C   0  0  0  0  0  0  0  0  0  0  0  0
    7.2210   -0.4620   20.0350 C   0  0  0  0  0  0  0  0  0  0  0  0
    5.3360    0.8000   21.1530 C   0  0  0  0  0  0  0  0  0  0  0  0
    4.2970    1.6690   20.8430 C   0  0  0  0  0  0  0  0  0  0  0  0
    4.0980    2.1130   19.5350 C   0  0  0  0  0  0  0  0  0  0  0  0
    4.9400    1.7060   18.5060 C   0  0  0  0  0  0  0  0  0  0  0  0
    8.9510    0.1280   21.6880 C   0  0  0  0  0  0  0  0  0  0  0  0
    8.2346   -4.9976   26.8023 C   0  0  0  0  0  0  0  0  0  0  0  0
   10.0220    1.0430   23.6570 C   0  0  0  0  0  0  0  0  0  0  0  0
    8.0810   -0.9750   21.0820 C   0  0  0  0  0  0  0  0  0  0  0  0
    7.6830   -0.5170   18.7600 N   0  0  0  0  0  0  0  0  0  0  0  0
    6.9440    0.2550   18.0100 N   0  0  0  0  0  0  0  0  0  0  0  0
    5.9810    0.8330   18.8060 N   0  0  0  0  0  0  0  0  0  0  0  0
    9.4200   -0.0840   22.9530 N   0  0  0  0  0  0  0  0  0  0  0  0
    9.1870    1.1500   21.0630 O   0  0  0  0  0  0  0  0  0  0  0  0
    9.2631   -4.8614   25.8229 O   0  0  0  0  0  0  0  0  0  0  0  0
   13.9969    0.9203   24.2776 S   0  0  0  0  0  0  0  0  0  0  0  0
    7.5951   -0.7786   24.8000 H   0  0  0  0  0  0  0  0  0  0  0  0
   11.0406   -2.1866   22.6351 H   0  0  0  0  0  0  0  0  0  0  0  0
    7.5664   -2.8674   26.1055 H   0  0  0  0  0  0  0  0  0  0  0  0
   11.0119   -4.2671   23.9461 H   0  0  0  0  0  0  0  0  0  0  0  0
   11.8339    1.0798   21.3902 H   0  0  0  0  0  0  0  0  0  0  0  0
   14.4176    0.9966   21.8719 H   0  0  0  0  0  0  0  0  0  0  0  0
   12.0446    0.9149   25.7428 H   0  0  0  0  0  0  0  0  0  0  0  0
    5.4740    0.4765   22.1644 H   0  0  0  0  0  0  0  0  0  0  0  0
    3.6415    1.9966   21.6411 H   0  0  0  0  0  0  0  0  0  0  0  0
    3.2723    2.7926   19.2922 H   0  0  0  0  0  0  0  0  0  0  0  0
    4.8122    2.0412   17.5001 H   0  0  0  0  0  0  0  0  0  0  0  0
    8.3309   -5.9652   27.3009 H   0  0  0  0  0  0  0  0  0  0  0  0
    7.2574   -4.9205   26.3189 H   0  0  0  0  0  0  0  0  0  0  0  0
    8.3380   -4.1983   27.5400 H   0  0  0  0  0  0  0  0  0  0  0  0
    9.6778    1.0140   24.6966 H   0  0  0  0  0  0  0  0  0  0  0  0
    9.6316    1.9637   23.2107 H   0  0  0  0  0  0  0  0  0  0  0  0
    7.4909   -1.4166   21.8987 H   0  0  0  0  0  0  0  0  0  0  0  0
    8.7548   -1.7579   20.7032 H   0  0  0  0  0  0  0  0  0  0  0  0
  1  3  2  0  0  0  0
  1  9  1  0  0  0  0
  2  4  1  0  0  0  0
  2  9  2  0  0  0  0
  3 10  1  0  0  0  0
  4 10  2  0  0  0  0
  5  6  2  0  0  0  0
  5  8  1  0  0  0  0
  6 27  1  0  0  0  0
  7  8  2  0  0  0  0
  7 27  1  0  0  0  0
  8 19  1  0  0  0  0
  9 24  1  0  0  0  0
 10 26  1  0  0  0  0
 11 12  2  0  0  0  0
 11 13  1  0  0  0  0
 11 23  1  0  0  0  0
 12 20  1  0  0  0  0
 12 21  1  0  0  0  0
 13 14  2  0  0  0  0
 14 15  1  0  0  0  0
 15 16  2  0  0  0  0
 16 23  1  0  0  0  0
 17 20  1  0  0  0  0
 17 24  1  0  0  0  0
 17 25  2  0  0  0  0
 18 26  1  0  0  0  0
 19 24  1  0  0  0  0
 21 22  2  0  0  0  0
 22 23  1  0  0  0  0
  1 28  1  0  0  0  0
  2 29  1  0  0  0  0
  3 30  1  0  0  0  0
  4 31  1  0  0  0  0
  5 32  1  0  0  0  0
  6 33  1  0  0  0  0
  7 34  1  0  0  0  0
 13 35  1  0  0  0  0
 14 36  1  0  0  0  0
 15 37  1  0  0  0  0
 16 38  1  0  0  0  0
 18 39  1  0  0  0  0
 18 40  1  0  0  0  0
 18 41  1  0  0  0  0
 19 42  1  0  0  0  0
 19 43  1  0  0  0  0
 20 44  1  0  0  0  0
 20 45  1  0  0  0  0
M  END
> <clash_score>
0

> <docking_score>
-9.383901596069336

> <overlap_score>
0.9697705507278442

$$$$
BENZO_438_1
  -OEChem-08222022423D

 48 51  0     0  0  0  0  0  0999 V2000
   13.6668    1.7807   24.3938 C   0  0  0  0  0  0  0  0  0  0  0  0
   12.2735    1.8136   24.4501 C   0  0  0  0  0  0  0  0  0  0  0  0
    8.3510   -1.5420   24.6110 C   0  0  0  0  0  0  0  0  0  0  0  0
   10.2760   -2.3270   23.4020 C   0  0  0  0  0  0  0  0  0  0  0  0
    8.3310   -2.7170   25.3430 C   0  0  0  0  0  0  0  0  0  0  0  0
   10.2570   -3.5000   24.1350 C   0  0  0  0  0  0  0  0  0  0  0  0
   14.3084    0.9422   23.4822 C   0  0  0  0  0  0  0  0  0  0  0  0
   12.1632    0.1693   22.6834 C   0  0  0  0  0  0  0  0  0  0  0  0
   11.5217    1.0079   23.5949 C   0  0  0  0  0  0  0  0  0  0  0  0
    9.3300   -1.3350   23.6390 C   0  0  0  0  0  0  0  0  0  0  0  0
    9.2850   -3.7090   25.1090 C   0  0  0  0  0  0  0  0  0  0  0  0
   13.5566    0.1365   22.6270 C   0  0  0  0  0  0  0  0  0  0  0  0
    6.1600    0.3870   20.1140 C   0  0  0  0  0  0  0  0  0  0  0  0
    7.2210   -0.4620   20.0350 C   0  0  0  0  0  0  0  0  0  0  0  0
    5.3360    0.8000   21.1530 C   0  0  0  0  0  0  0  0  0  0  0  0
    4.2970    1.6690   20.8430 C   0  0  0  0  0  0  0  0  0  0  0  0
    4.0980    2.1130   19.5350 C   0  0  0  0  0  0  0  0  0  0  0  0
    4.9400    1.7060   18.5060 C   0  0  0  0  0  0  0  0  0  0  0  0
    8.9510    0.1280   21.6880 C   0  0  0  0  0  0  0  0  0  0  0  0
    8.2346   -4.9976   26.8023 C   0  0  0  0  0  0  0  0  0  0  0  0
   10.0220    1.0430   23.6570 C   0  0  0  0  0  0  0  0  0  0  0  0
    8.0810   -0.9750   21.0820 C   0  0  0  0  0  0  0  0  0  0  0  0
    7.6830   -0.5170   18.7600 N   0  0  0  0  0  0  0  0  0  0  0  0
    6.9440    0.2550   18.0100 N   0  0  0  0  0  0  0  0  0  0  0  0
    5.9810    0.8330   18.8060 N   0  0  0  0  0  0  0  0  0  0  0  0
    9.4200   -0.0840   22.9530 N   0  0  0  0  0  0  0  0  0  0  0  0
    9.1870    1.1500   21.0630 O   0  0  0  0  0  0  0  0  0  0  0  0
    9.2631   -4.8614   25.8229 O   0  0  0  0  0  0  0  0  0  0  0  0
   14.3487   -0.8988   21.5034 Cl  0  0  0  0  0  0  0  0  0  0  0  0
   14.2519    2.4082   25.0600 H   0  0  0  0  0  0  0  0  0  0  0  0
   11.7820    2.4700   25.1636 H   0  0  0  0  0  0  0  0  0  0  0  0
    7.5951   -0.7786   24.8000 H   0  0  0  0  0  0  0  0  0  0  0  0
   11.0406   -2.1866   22.6351 H   0  0  0  0  0  0  0  0  0  0  0  0
    7.5664   -2.8674   26.1055 H   0  0  0  0  0  0  0  0  0  0  0  0
   11.0119   -4.2671   23.9461 H   0  0  0  0  0  0  0  0  0  0  0  0
   15.3950    0.9267   23.4496 H   0  0  0  0  0  0  0  0  0  0  0  0
   11.5726   -0.4565   22.0184 H   0  0  0  0  0  0  0  0  0  0  0  0
    5.4740    0.4765   22.1644 H   0  0  0  0  0  0  0  0  0  0  0  0
    3.6415    1.9966   21.6411 H   0  0  0  0  0  0  0  0  0  0  0  0
    3.2723    2.7926   19.2922 H   0  0  0  0  0  0  0  0  0  0  0  0
    4.8122    2.0412   17.5001 H   0  0  0  0  0  0  0  0  0  0  0  0
    8.3309   -5.9652   27.3009 H   0  0  0  0  0  0  0  0  0  0  0  0
    7.2574   -4.9205   26.3189 H   0  0  0  0  0  0  0  0  0  0  0  0
    8.3380   -4.1983   27.5400 H   0  0  0  0  0  0  0  0  0  0  0  0
    9.6778    1.0140   24.6966 H   0  0  0  0  0  0  0  0  0  0  0  0
    9.6316    1.9637   23.2107 H   0  0  0  0  0  0  0  0  0  0  0  0
    7.4909   -1.4166   21.8987 H   0  0  0  0  0  0  0  0  0  0  0  0
    8.7548   -1.7579   20.7032 H   0  0  0  0  0  0  0  0  0  0  0  0
  1  2  2  0  0  0  0
  1  7  1  0  0  0  0
  2  9  1  0  0  0  0
  3  5  2  0  0  0  0
  3 10  1  0  0  0  0
  4  6  1  0  0  0  0
  4 10  2  0  0  0  0
  5 11  1  0  0  0  0
  6 11  2  0  0  0  0
  7 12  2  0  0  0  0
  8  9  2  0  0  0  0
  8 12  1  0  0  0  0
  9 21  1  0  0  0  0
 10 26  1  0  0  0  0
 11 28  1  0  0  0  0
 12 29  1  0  0  0  0
 13 14  2  0  0  0  0
 13 15  1  0  0  0  0
 13 25  1  0  0  0  0
 14 22  1  0  0  0  0
 14 23  1  0  0  0  0
 15 16  2  0  0  0  0
 16 17  1  0  0  0  0
 17 18  2  0  0  0  0
 18 25  1  0  0  0  0
 19 22  1  0  0  0  0
 19 26  1  0  0  0  0
 19 27  2  0  0  0  0
 20 28  1  0  0  0  0
 21 26  1  0  0  0  0
 23 24  2  0  0  0  0
 24 25  1  0  0  0  0
  1 30  1  0  0  0  0
  2 31  1  0  0  0  0
  3 32  1  0  0  0  0
  4 33  1  0  0  0  0
  5 34  1  0  0  0  0
  6 35  1  0  0  0  0
  7 36  1  0  0  0  0
  8 37  1  0  0  0  0
 15 38  1  0  0  0  0
 16 39  1  0  0  0  0
 17 40  1  0  0  0  0
 18 41  1  0  0  0  0
 20 42  1  0  0  0  0
 20 43  1  0  0  0  0
 20 44  1  0  0  0  0
 21 45  1  0  0  0  0
 21 46  1  0  0  0  0
 22 47  1  0  0  0  0
 22 48  1  0  0  0  0
M  END
> <clash_score>
0

> <docking_score>
-8.388605117797852

> <overlap_score>
0.9766169786453247

$$$$
BENZO_439_1
  -OEChem-08222022423D

 48 51  0     0  0  0  0  0  0999 V2000
    8.3510   -1.5420   24.6110 C   0  0  0  0  0  0  0  0  0  0  0  0
   10.2760   -2.3270   23.4020 C   0  0  0  0  0  0  0  0  0  0  0  0
    8.3310   -2.7170   25.3430 C   0  0  0  0  0  0  0  0  0  0  0  0
   10.2570   -3.5000   24.1350 C   0  0  0  0  0  0  0  0  0  0  0  0
   12.4358    1.7439   24.3724 C   0  0  0  0  0  0  0  0  0  0  0  0
   12.3100    0.2469   22.7668 C   0  0  0  0  0  0  0  0  0  0  0  0
   11.5217    1.0079   23.5949 C   0  0  0  0  0  0  0  0  0  0  0  0
    9.3300   -1.3350   23.6390 C   0  0  0  0  0  0  0  0  0  0  0  0
    9.2850   -3.7090   25.1090 C   0  0  0  0  0  0  0  0  0  0  0  0
    6.1600    0.3870   20.1140 C   0  0  0  0  0  0  0  0  0  0  0  0
    7.2210   -0.4620   20.0350 C   0  0  0  0  0  0  0  0  0  0  0  0
    5.3360    0.8000   21.1530 C   0  0  0  0  0  0  0  0  0  0  0  0
    4.2970    1.6690   20.8430 C   0  0  0  0  0  0  0  0  0  0  0  0
    4.0980    2.1130   19.5350 C   0  0  0  0  0  0  0  0  0  0  0  0
    4.9400    1.7060   18.5060 C   0  0  0  0  0  0  0  0  0  0  0  0
    8.9510    0.1280   21.6880 C   0  0  0  0  0  0  0  0  0  0  0  0
   14.7884    0.0124   22.4815 C   0  0  0  0  0  0  0  0  0  0  0  0
    8.2346   -4.9976   26.8023 C   0  0  0  0  0  0  0  0  0  0  0  0
   10.0220    1.0430   23.6570 C   0  0  0  0  0  0  0  0  0  0  0  0
    8.0810   -0.9750   21.0820 C   0  0  0  0  0  0  0  0  0  0  0  0
   13.7076    1.4745   24.0657 N   0  0  0  0  0  0  0  0  0  0  0  0
    7.6830   -0.5170   18.7600 N   0  0  0  0  0  0  0  0  0  0  0  0
    6.9440    0.2550   18.0100 N   0  0  0  0  0  0  0  0  0  0  0  0
   13.5982    0.5607   23.0864 N   0  0  0  0  0  0  0  0  0  0  0  0
    5.9810    0.8330   18.8060 N   0  0  0  0  0  0  0  0  0  0  0  0
    9.4200   -0.0840   22.9530 N   0  0  0  0  0  0  0  0  0  0  0  0
    9.1870    1.1500   21.0630 O   0  0  0  0  0  0  0  0  0  0  0  0
    9.2631   -4.8614   25.8229 O   0  0  0  0  0  0  0  0  0  0  0  0
    7.5951   -0.7786   24.8000 H   0  0  0  0  0  0  0  0  0  0  0  0
   11.0406   -2.1866   22.6351 H   0  0  0  0  0  0  0  0  0  0  0  0
    7.5664   -2.8674   26.1055 H   0  0  0  0  0  0  0  0  0  0  0  0
   11.0119   -4.2671   23.9461 H   0  0  0  0  0  0  0  0  0  0  0  0
   12.2308    2.4652   25.1508 H   0  0  0  0  0  0  0  0  0  0  0  0
   12.0700   -0.4744   21.9974 H   0  0  0  0  0  0  0  0  0  0  0  0
    5.4740    0.4765   22.1644 H   0  0  0  0  0  0  0  0  0  0  0  0
    3.6415    1.9966   21.6411 H   0  0  0  0  0  0  0  0  0  0  0  0
    3.2723    2.7926   19.2922 H   0  0  0  0  0  0  0  0  0  0  0  0
    4.8122    2.0412   17.5001 H   0  0  0  0  0  0  0  0  0  0  0  0
   15.0569    0.6453   21.6315 H   0  0  0  0  0  0  0  0  0  0  0  0
   15.5971   -0.0026   23.2174 H   0  0  0  0  0  0  0  0  0  0  0  0
   14.5870   -1.0100   22.1498 H   0  0  0  0  0  0  0  0  0  0  0  0
    8.3309   -5.9652   27.3009 H   0  0  0  0  0  0  0  0  0  0  0  0
    7.2574   -4.9205   26.3189 H   0  0  0  0  0  0  0  0  0  0  0  0
    8.3380   -4.1983   27.5400 H   0  0  0  0  0  0  0  0  0  0  0  0
    9.6778    1.0140   24.6966 H   0  0  0  0  0  0  0  0  0  0  0  0
    9.6316    1.9637   23.2107 H   0  0  0  0  0  0  0  0  0  0  0  0
    7.4909   -1.4166   21.8987 H   0  0  0  0  0  0  0  0  0  0  0  0
    8.7548   -1.7579   20.7032 H   0  0  0  0  0  0  0  0  0  0  0  0
  1  3  2  0  0  0  0
  1  8  1  0  0  0  0
  2  4  1  0  0  0  0
  2  8  2  0  0  0  0
  3  9  1  0  0  0  0
  4  9  2  0  0  0  0
  5  7  1  0  0  0  0
  5 21  2  0  0  0  0
  6  7  2  0  0  0  0
  6 24  1  0  0  0  0
  7 19  1  0  0  0  0
  8 26  1  0  0  0  0
  9 28  1  0  0  0  0
 10 11  2  0  0  0  0
 10 12  1  0  0  0  0
 10 25  1  0  0  0  0
 11 20  1  0  0  0  0
 11 22  1  0  0  0  0
 12 13  2  0  0  0  0
 13 14  1  0  0  0  0
 14 15  2  0  0  0  0
 15 25  1  0  0  0  0
 16 20  1  0  0  0  0
 16 26  1  0  0  0  0
 16 27  2  0  0  0  0
 17 24  1  0  0  0  0
 18 28  1  0  0  0  0
 19 26  1  0  0  0  0
 21 24  1  0  0  0  0
 22 23  2  0  0  0  0
 23 25  1  0  0  0  0
  1 29  1  0  0  0  0
  2 30  1  0  0  0  0
  3 31  1  0  0  0  0
  4 32  1  0  0  0  0
  5 33  1  0  0  0  0
  6 34  1  0  0  0  0
 12 35  1  0  0  0  0
 13 36  1  0  0  0  0
 14 37  1  0  0  0  0
 15 38  1  0  0  0  0
 17 39  1  0  0  0  0
 17 40  1  0  0  0  0
 17 41  1  0  0  0  0
 18 42  1  0  0  0  0
 18 43  1  0  0  0  0
 18 44  1  0  0  0  0
 19 45  1  0  0  0  0
 19 46  1  0  0  0  0
 20 47  1  0  0  0  0
 20 48  1  0  0  0  0
M  END
> <clash_score>
0

> <docking_score>
-9.352300643920898

> <overlap_score>
0.9817348122596741

$$$$
BENZO_441_1
  -OEChem-08222022423D

 58 62  0     0  0  0  0  0  0999 V2000
   14.3082    0.9431   23.4783 C   0  0  0  0  0  0  0  0  0  0  0  0
   13.6391    0.3091   24.5251 C   0  0  0  0  0  0  0  0  0  0  0  0
   13.5841    1.6096   22.4898 C   0  0  0  0  0  0  0  0  0  0  0  0
   12.2459    0.3415   24.5835 C   0  0  0  0  0  0  0  0  0  0  0  0
   12.1908    1.6420   22.5481 C   0  0  0  0  0  0  0  0  0  0  0  0
    8.3310   -2.7170   25.3430 C   0  0  0  0  0  0  0  0  0  0  0  0
   10.2570   -3.5000   24.1350 C   0  0  0  0  0  0  0  0  0  0  0  0
    8.3510   -1.5420   24.6110 C   0  0  0  0  0  0  0  0  0  0  0  0
   10.2760   -2.3270   23.4020 C   0  0  0  0  0  0  0  0  0  0  0  0
   11.5217    1.0079   23.5949 C   0  0  0  0  0  0  0  0  0  0  0  0
    9.2850   -3.7090   25.1090 C   0  0  0  0  0  0  0  0  0  0  0  0
    9.3300   -1.3350   23.6390 C   0  0  0  0  0  0  0  0  0  0  0  0
    6.1600    0.3870   20.1140 C   0  0  0  0  0  0  0  0  0  0  0  0
    7.2210   -0.4620   20.0350 C   0  0  0  0  0  0  0  0  0  0  0  0
    5.3360    0.8000   21.1530 C   0  0  0  0  0  0  0  0  0  0  0  0
    4.2970    1.6690   20.8430 C   0  0  0  0  0  0  0  0  0  0  0  0
    4.0980    2.1130   19.5350 C   0  0  0  0  0  0  0  0  0  0  0  0
    4.9400    1.7060   18.5060 C   0  0  0  0  0  0  0  0  0  0  0  0
    8.0635   -5.4710   26.3667 C   0  0  0  0  0  0  0  0  0  0  0  0
    8.9510    0.1280   21.6880 C   0  0  0  0  0  0  0  0  0  0  0  0
    8.2626   -6.7580   27.1475 C   0  0  0  0  0  0  0  0  0  0  0  0
    9.4048   -6.6156   28.1380 C   0  0  0  0  0  0  0  0  0  0  0  0
   10.6949   -6.1500   27.4702 C   0  0  0  0  0  0  0  0  0  0  0  0
   10.4942   -5.7069   26.0219 C   0  0  0  0  0  0  0  0  0  0  0  0
   10.0220    1.0430   23.6570 C   0  0  0  0  0  0  0  0  0  0  0  0
    8.0810   -0.9750   21.0820 C   0  0  0  0  0  0  0  0  0  0  0  0
    7.6830   -0.5170   18.7600 N   0  0  0  0  0  0  0  0  0  0  0  0
    6.9440    0.2550   18.0100 N   0  0  0  0  0  0  0  0  0  0  0  0
    5.9810    0.8330   18.8060 N   0  0  0  0  0  0  0  0  0  0  0  0
    9.2623   -4.9266   25.8635 N   0  0  0  0  0  0  0  0  0  0  0  0
    9.4200   -0.0840   22.9530 N   0  0  0  0  0  0  0  0  0  0  0  0
    6.9244   -5.0476   26.1739 O   0  0  0  0  0  0  0  0  0  0  0  0
    9.1870    1.1500   21.0630 O   0  0  0  0  0  0  0  0  0  0  0  0
   15.3932    0.9189   23.4337 H   0  0  0  0  0  0  0  0  0  0  0  0
   14.2028   -0.2090   25.2955 H   0  0  0  0  0  0  0  0  0  0  0  0
   14.1048    2.1042   21.6752 H   0  0  0  0  0  0  0  0  0  0  0  0
   11.7330   -0.1555   25.4027 H   0  0  0  0  0  0  0  0  0  0  0  0
   11.6349    2.1636   21.7735 H   0  0  0  0  0  0  0  0  0  0  0  0
    7.5639   -2.8621   26.1045 H   0  0  0  0  0  0  0  0  0  0  0  0
   11.0141   -4.2644   23.9422 H   0  0  0  0  0  0  0  0  0  0  0  0
    7.5950   -0.7788   24.8007 H   0  0  0  0  0  0  0  0  0  0  0  0
   11.0408   -2.1861   22.6359 H   0  0  0  0  0  0  0  0  0  0  0  0
    5.4740    0.4765   22.1644 H   0  0  0  0  0  0  0  0  0  0  0  0
    3.6415    1.9966   21.6411 H   0  0  0  0  0  0  0  0  0  0  0  0
    3.2723    2.7926   19.2922 H   0  0  0  0  0  0  0  0  0  0  0  0
    4.8122    2.0412   17.5001 H   0  0  0  0  0  0  0  0  0  0  0  0
    7.3516   -6.9810   27.6812 H   0  0  0  0  0  0  0  0  0  0  0  0
    8.4757   -7.5428   26.4371 H   0  0  0  0  0  0  0  0  0  0  0  0
    9.1234   -5.9016   28.9400 H   0  0  0  0  0  0  0  0  0  0  0  0
    9.5778   -7.5840   28.6491 H   0  0  0  0  0  0  0  0  0  0  0  0
   11.1305   -5.3108   28.0523 H   0  0  0  0  0  0  0  0  0  0  0  0
   11.4565   -6.9587   27.5131 H   0  0  0  0  0  0  0  0  0  0  0  0
   11.3212   -5.0729   25.7168 H   0  0  0  0  0  0  0  0  0  0  0  0
   10.4483   -6.5796   25.3796 H   0  0  0  0  0  0  0  0  0  0  0  0
    9.6778    1.0140   24.6966 H   0  0  0  0  0  0  0  0  0  0  0  0
    9.6316    1.9637   23.2107 H   0  0  0  0  0  0  0  0  0  0  0  0
    7.4781   -1.4136   21.8845 H   0  0  0  0  0  0  0  0  0  0  0  0
    8.7420   -1.7550   20.6889 H   0  0  0  0  0  0  0  0  0  0  0  0
  1  2  1  0  0  0  0
  1  3  2  0  0  0  0
  2  4  2  0  0  0  0
  3  5  1  0  0  0  0
  4 10  1  0  0  0  0
  5 10  2  0  0  0  0
  6  8  2  0  0  0  0
  6 11  1  0  0  0  0
  7  9  1  0  0  0  0
  7 11  2  0  0  0  0
  8 12  1  0  0  0  0
  9 12  2  0  0  0  0
 10 25  1  0  0  0  0
 11 30  1  0  0  0  0
 12 31  1  0  0  0  0
 13 14  2  0  0  0  0
 13 15  1  0  0  0  0
 13 29  1  0  0  0  0
 14 26  1  0  0  0  0
 14 27  1  0  0  0  0
 15 16  2  0  0  0  0
 16 17  1  0  0  0  0
 17 18  2  0  0  0  0
 18 29  1  0  0  0  0
 19 21  1  0  0  0  0
 19 30  1  0  0  0  0
 19 32  2  0  0  0  0
 20 26  1  0  0  0  0
 20 31  1  0  0  0  0
 20 33  2  0  0  0  0
 21 22  1  0  0  0  0
 22 23  1  0  0  0  0
 23 24  1  0  0  0  0
 24 30  1  0  0  0  0
 25 31  1  0  0  0  0
 27 28  2  0  0  0  0
 28 29  1  0  0  0  0
  1 34  1  0  0  0  0
  2 35  1  0  0  0  0
  3 36  1  0  0  0  0
  4 37  1  0  0  0  0
  5 38  1  0  0  0  0
  6 39  1  0  0  0  0
  7 40  1  0  0  0  0
  8 41  1  0  0  0  0
  9 42  1  0  0  0  0
 15 43  1  0  0  0  0
 16 44  1  0  0  0  0
 17 45  1  0  0  0  0
 18 46  1  0  0  0  0
 21 47  1  0  0  0  0
 21 48  1  0  0  0  0
 22 49  1  0  0  0  0
 22 50  1  0  0  0  0
 23 51  1  0  0  0  0
 23 52  1  0  0  0  0
 24 53  1  0  0  0  0
 24 54  1  0  0  0  0
 25 55  1  0  0  0  0
 25 56  1  0  0  0  0
 26 57  1  0  0  0  0
 26 58  1  0  0  0  0
M  END
> <clash_score>
1.272782601224562

> <docking_score>
-7.62420654296875

> <overlap_score>
1.0159265995025635

$$$$
BENZO_440_1
  -OEChem-08222022423D

 55 59  0     0  0  0  0  0  0999 V2000
    8.3310   -2.7170   25.3430 C   0  0  0  0  0  0  0  0  0  0  0  0
   10.2570   -3.5000   24.1350 C   0  0  0  0  0  0  0  0  0  0  0  0
    8.3510   -1.5420   24.6110 C   0  0  0  0  0  0  0  0  0  0  0  0
   10.2760   -2.3270   23.4020 C   0  0  0  0  0  0  0  0  0  0  0  0
   12.2675    1.0332   22.3812 C   0  0  0  0  0  0  0  0  0  0  0  0
   13.6257    0.9906   22.6074 C   0  0  0  0  0  0  0  0  0  0  0  0
   12.3384    0.9467   24.7028 C   0  0  0  0  0  0  0  0  0  0  0  0
   11.5217    1.0079   23.5949 C   0  0  0  0  0  0  0  0  0  0  0  0
    9.2850   -3.7090   25.1090 C   0  0  0  0  0  0  0  0  0  0  0  0
    9.3300   -1.3350   23.6390 C   0  0  0  0  0  0  0  0  0  0  0  0
    6.1600    0.3870   20.1140 C   0  0  0  0  0  0  0  0  0  0  0  0
    7.2210   -0.4620   20.0350 C   0  0  0  0  0  0  0  0  0  0  0  0
    5.3360    0.8000   21.1530 C   0  0  0  0  0  0  0  0  0  0  0  0
    4.2970    1.6690   20.8430 C   0  0  0  0  0  0  0  0  0  0  0  0
    4.0980    2.1130   19.5350 C   0  0  0  0  0  0  0  0  0  0  0  0
    4.9400    1.7060   18.5060 C   0  0  0  0  0  0  0  0  0  0  0  0
    8.0635   -5.4710   26.3667 C   0  0  0  0  0  0  0  0  0  0  0  0
    8.9510    0.1280   21.6880 C   0  0  0  0  0  0  0  0  0  0  0  0
    8.2626   -6.7580   27.1475 C   0  0  0  0  0  0  0  0  0  0  0  0
    9.4048   -6.6156   28.1380 C   0  0  0  0  0  0  0  0  0  0  0  0
   10.6949   -6.1500   27.4702 C   0  0  0  0  0  0  0  0  0  0  0  0
   10.4942   -5.7069   26.0219 C   0  0  0  0  0  0  0  0  0  0  0  0
   10.0220    1.0430   23.6570 C   0  0  0  0  0  0  0  0  0  0  0  0
    8.0810   -0.9750   21.0820 C   0  0  0  0  0  0  0  0  0  0  0  0
    7.6830   -0.5170   18.7600 N   0  0  0  0  0  0  0  0  0  0  0  0
    6.9440    0.2550   18.0100 N   0  0  0  0  0  0  0  0  0  0  0  0
    5.9810    0.8330   18.8060 N   0  0  0  0  0  0  0  0  0  0  0  0
    9.2623   -4.9266   25.8635 N   0  0  0  0  0  0  0  0  0  0  0  0
    9.4200   -0.0840   22.9530 N   0  0  0  0  0  0  0  0  0  0  0  0
    6.9244   -5.0476   26.1739 O   0  0  0  0  0  0  0  0  0  0  0  0
    9.1870    1.1500   21.0630 O   0  0  0  0  0  0  0  0  0  0  0  0
   13.9969    0.9202   24.2776 S   0  0  0  0  0  0  0  0  0  0  0  0
    7.5639   -2.8621   26.1045 H   0  0  0  0  0  0  0  0  0  0  0  0
   11.0141   -4.2644   23.9422 H   0  0  0  0  0  0  0  0  0  0  0  0
    7.5950   -0.7788   24.8007 H   0  0  0  0  0  0  0  0  0  0  0  0
   11.0408   -2.1861   22.6359 H   0  0  0  0  0  0  0  0  0  0  0  0
   11.8338    1.0798   21.3902 H   0  0  0  0  0  0  0  0  0  0  0  0
   14.4176    0.9966   21.8719 H   0  0  0  0  0  0  0  0  0  0  0  0
   12.0446    0.9149   25.7428 H   0  0  0  0  0  0  0  0  0  0  0  0
    5.4740    0.4765   22.1644 H   0  0  0  0  0  0  0  0  0  0  0  0
    3.6415    1.9966   21.6411 H   0  0  0  0  0  0  0  0  0  0  0  0
    3.2723    2.7926   19.2922 H   0  0  0  0  0  0  0  0  0  0  0  0
    4.8122    2.0412   17.5001 H   0  0  0  0  0  0  0  0  0  0  0  0
    7.3516   -6.9810   27.6812 H   0  0  0  0  0  0  0  0  0  0  0  0
    8.4757   -7.5428   26.4371 H   0  0  0  0  0  0  0  0  0  0  0  0
    9.1234   -5.9016   28.9400 H   0  0  0  0  0  0  0  0  0  0  0  0
    9.5778   -7.5840   28.6491 H   0  0  0  0  0  0  0  0  0  0  0  0
   11.1305   -5.3108   28.0523 H   0  0  0  0  0  0  0  0  0  0  0  0
   11.4565   -6.9587   27.5131 H   0  0  0  0  0  0  0  0  0  0  0  0
   11.3212   -5.0729   25.7168 H   0  0  0  0  0  0  0  0  0  0  0  0
   10.4483   -6.5796   25.3796 H   0  0  0  0  0  0  0  0  0  0  0  0
    9.6778    1.0140   24.6966 H   0  0  0  0  0  0  0  0  0  0  0  0
    9.6316    1.9637   23.2107 H   0  0  0  0  0  0  0  0  0  0  0  0
    7.4781   -1.4136   21.8845 H   0  0  0  0  0  0  0  0  0  0  0  0
    8.7420   -1.7550   20.6889 H   0  0  0  0  0  0  0  0  0  0  0  0
  1  3  2  0  0  0  0
  1  9  1  0  0  0  0
  2  4  1  0  0  0  0
  2  9  2  0  0  0  0
  3 10  1  0  0  0  0
  4 10  2  0  0  0  0
  5  6  2  0  0  0  0
  5  8  1  0  0  0  0
  6 32  1  0  0  0  0
  7  8  2  0  0  0  0
  7 32  1  0  0  0  0
  8 23  1  0  0  0  0
  9 28  1  0  0  0  0
 10 29  1  0  0  0  0
 11 12  2  0  0  0  0
 11 13  1  0  0  0  0
 11 27  1  0  0  0  0
 12 24  1  0  0  0  0
 12 25  1  0  0  0  0
 13 14  2  0  0  0  0
 14 15  1  0  0  0  0
 15 16  2  0  0  0  0
 16 27  1  0  0  0  0
 17 19  1  0  0  0  0
 17 28  1  0  0  0  0
 17 30  2  0  0  0  0
 18 24  1  0  0  0  0
 18 29  1  0  0  0  0
 18 31  2  0  0  0  0
 19 20  1  0  0  0  0
 20 21  1  0  0  0  0
 21 22  1  0  0  0  0
 22 28  1  0  0  0  0
 23 29  1  0  0  0  0
 25 26  2  0  0  0  0
 26 27  1  0  0  0  0
  1 33  1  0  0  0  0
  2 34  1  0  0  0  0
  3 35  1  0  0  0  0
  4 36  1  0  0  0  0
  5 37  1  0  0  0  0
  6 38  1  0  0  0  0
  7 39  1  0  0  0  0
 13 40  1  0  0  0  0
 14 41  1  0  0  0  0
 15 42  1  0  0  0  0
 16 43  1  0  0  0  0
 19 44  1  0  0  0  0
 19 45  1  0  0  0  0
 20 46  1  0  0  0  0
 20 47  1  0  0  0  0
 21 48  1  0  0  0  0
 21 49  1  0  0  0  0
 22 50  1  0  0  0  0
 22 51  1  0  0  0  0
 23 52  1  0  0  0  0
 23 53  1  0  0  0  0
 24 54  1  0  0  0  0
 24 55  1  0  0  0  0
M  END
> <clash_score>
1.272782601224562

> <docking_score>
-7.8704071044921875

> <overlap_score>
0.9903323650360107

$$$$
BENZO_443_1
  -OEChem-08222022423D

 58 62  0     0  0  0  0  0  0999 V2000
    8.3310   -2.7170   25.3430 C   0  0  0  0  0  0  0  0  0  0  0  0
   10.2570   -3.5000   24.1350 C   0  0  0  0  0  0  0  0  0  0  0  0
    8.3510   -1.5420   24.6110 C   0  0  0  0  0  0  0  0  0  0  0  0
   10.2760   -2.3270   23.4020 C   0  0  0  0  0  0  0  0  0  0  0  0
   12.4359    1.7439   24.3724 C   0  0  0  0  0  0  0  0  0  0  0  0
   12.3100    0.2469   22.7668 C   0  0  0  0  0  0  0  0  0  0  0  0
   11.5217    1.0079   23.5949 C   0  0  0  0  0  0  0  0  0  0  0  0
    9.2850   -3.7090   25.1090 C   0  0  0  0  0  0  0  0  0  0  0  0
    9.3300   -1.3350   23.6390 C   0  0  0  0  0  0  0  0  0  0  0  0
    6.1600    0.3870   20.1140 C   0  0  0  0  0  0  0  0  0  0  0  0
    7.2210   -0.4620   20.0350 C   0  0  0  0  0  0  0  0  0  0  0  0
    5.3360    0.8000   21.1530 C   0  0  0  0  0  0  0  0  0  0  0  0
    4.2970    1.6690   20.8430 C   0  0  0  0  0  0  0  0  0  0  0  0
    4.0980    2.1130   19.5350 C   0  0  0  0  0  0  0  0  0  0  0  0
    4.9400    1.7060   18.5060 C   0  0  0  0  0  0  0  0  0  0  0  0
    8.2934   -5.1724   26.8574 C   0  0  0  0  0  0  0  0  0  0  0  0
    8.9510    0.1280   21.6880 C   0  0  0  0  0  0  0  0  0  0  0  0
    8.4443   -6.5251   27.5306 C   0  0  0  0  0  0  0  0  0  0  0  0
    8.6421   -7.6210   26.4982 C   0  0  0  0  0  0  0  0  0  0  0  0
    9.8032   -7.3237   25.5546 C   0  0  0  0  0  0  0  0  0  0  0  0
   10.3452   -5.9024   25.6995 C   0  0  0  0  0  0  0  0  0  0  0  0
   14.7884    0.0124   22.4815 C   0  0  0  0  0  0  0  0  0  0  0  0
   10.0220    1.0430   23.6570 C   0  0  0  0  0  0  0  0  0  0  0  0
    8.0810   -0.9750   21.0820 C   0  0  0  0  0  0  0  0  0  0  0  0
   13.7076    1.4745   24.0657 N   0  0  0  0  0  0  0  0  0  0  0  0
    7.6830   -0.5170   18.7600 N   0  0  0  0  0  0  0  0  0  0  0  0
    6.9440    0.2550   18.0100 N   0  0  0  0  0  0  0  0  0  0  0  0
   13.5982    0.5607   23.0864 N   0  0  0  0  0  0  0  0  0  0  0  0
    5.9810    0.8330   18.8060 N   0  0  0  0  0  0  0  0  0  0  0  0
    9.2623   -4.9267   25.8636 N   0  0  0  0  0  0  0  0  0  0  0  0
    9.4200   -0.0840   22.9530 N   0  0  0  0  0  0  0  0  0  0  0  0
    7.4269   -4.3921   27.2503 O   0  0  0  0  0  0  0  0  0  0  0  0
    9.1870    1.1500   21.0630 O   0  0  0  0  0  0  0  0  0  0  0  0
    7.5639   -2.8621   26.1045 H   0  0  0  0  0  0  0  0  0  0  0  0
   11.0141   -4.2644   23.9422 H   0  0  0  0  0  0  0  0  0  0  0  0
    7.5950   -0.7788   24.8007 H   0  0  0  0  0  0  0  0  0  0  0  0
   11.0408   -2.1861   22.6359 H   0  0  0  0  0  0  0  0  0  0  0  0
   12.2308    2.4652   25.1508 H   0  0  0  0  0  0  0  0  0  0  0  0
   12.0700   -0.4744   21.9974 H   0  0  0  0  0  0  0  0  0  0  0  0
    5.4740    0.4765   22.1644 H   0  0  0  0  0  0  0  0  0  0  0  0
    3.6415    1.9966   21.6411 H   0  0  0  0  0  0  0  0  0  0  0  0
    3.2723    2.7926   19.2922 H   0  0  0  0  0  0  0  0  0  0  0  0
    4.8122    2.0412   17.5001 H   0  0  0  0  0  0  0  0  0  0  0  0
    9.3021   -6.4901   28.1844 H   0  0  0  0  0  0  0  0  0  0  0  0
    7.5489   -6.7067   28.1060 H   0  0  0  0  0  0  0  0  0  0  0  0
    8.8161   -8.5925   27.0061 H   0  0  0  0  0  0  0  0  0  0  0  0
    7.7102   -7.7540   25.9127 H   0  0  0  0  0  0  0  0  0  0  0  0
   10.6240   -8.0484   25.7384 H   0  0  0  0  0  0  0  0  0  0  0  0
    9.4907   -7.5005   24.5024 H   0  0  0  0  0  0  0  0  0  0  0  0
   10.9741   -5.8406   26.5826 H   0  0  0  0  0  0  0  0  0  0  0  0
   10.9262   -5.6455   24.8203 H   0  0  0  0  0  0  0  0  0  0  0  0
   15.0569    0.6453   21.6315 H   0  0  0  0  0  0  0  0  0  0  0  0
   15.5971   -0.0026   23.2174 H   0  0  0  0  0  0  0  0  0  0  0  0
   14.5870   -1.0100   22.1498 H   0  0  0  0  0  0  0  0  0  0  0  0
    9.6778    1.0140   24.6966 H   0  0  0  0  0  0  0  0  0  0  0  0
    9.6316    1.9637   23.2107 H   0  0  0  0  0  0  0  0  0  0  0  0
    7.4781   -1.4136   21.8845 H   0  0  0  0  0  0  0  0  0  0  0  0
    8.7420   -1.7550   20.6889 H   0  0  0  0  0  0  0  0  0  0  0  0
  1  3  2  0  0  0  0
  1  8  1  0  0  0  0
  2  4  1  0  0  0  0
  2  8  2  0  0  0  0
  3  9  1  0  0  0  0
  4  9  2  0  0  0  0
  5  7  1  0  0  0  0
  5 25  2  0  0  0  0
  6  7  2  0  0  0  0
  6 28  1  0  0  0  0
  7 23  1  0  0  0  0
  8 30  1  0  0  0  0
  9 31  1  0  0  0  0
 10 11  2  0  0  0  0
 10 12  1  0  0  0  0
 10 29  1  0  0  0  0
 11 24  1  0  0  0  0
 11 26  1  0  0  0  0
 12 13  2  0  0  0  0
 13 14  1  0  0  0  0
 14 15  2  0  0  0  0
 15 29  1  0  0  0  0
 16 18  1  0  0  0  0
 16 30  1  0  0  0  0
 16 32  2  0  0  0  0
 17 24  1  0  0  0  0
 17 31  1  0  0  0  0
 17 33  2  0  0  0  0
 18 19  1  0  0  0  0
 19 20  1  0  0  0  0
 20 21  1  0  0  0  0
 21 30  1  0  0  0  0
 22 28  1  0  0  0  0
 23 31  1  0  0  0  0
 25 28  1  0  0  0  0
 26 27  2  0  0  0  0
 27 29  1  0  0  0  0
  1 34  1  0  0  0  0
  2 35  1  0  0  0  0
  3 36  1  0  0  0  0
  4 37  1  0  0  0  0
  5 38  1  0  0  0  0
  6 39  1  0  0  0  0
 12 40  1  0  0  0  0
 13 41  1  0  0  0  0
 14 42  1  0  0  0  0
 15 43  1  0  0  0  0
 18 44  1  0  0  0  0
 18 45  1  0  0  0  0
 19 46  1  0  0  0  0
 19 47  1  0  0  0  0
 20 48  1  0  0  0  0
 20 49  1  0  0  0  0
 21 50  1  0  0  0  0
 21 51  1  0  0  0  0
 22 52  1  0  0  0  0
 22 53  1  0  0  0  0
 22 54  1  0  0  0  0
 23 55  1  0  0  0  0
 23 56  1  0  0  0  0
 24 57  1  0  0  0  0
 24 58  1  0  0  0  0
M  END
> <clash_score>
0.6927847163055834

> <docking_score>
-7.614500045776367

> <overlap_score>
1.0033575296401978

$$$$
BENZO_442_1
  -OEChem-08222022423D

 58 62  0     0  0  0  0  0  0999 V2000
   13.5977    1.8457   22.6865 C   0  0  0  0  0  0  0  0  0  0  0  0
   12.2044    1.8769   22.7438 C   0  0  0  0  0  0  0  0  0  0  0  0
    8.3310   -2.7170   25.3430 C   0  0  0  0  0  0  0  0  0  0  0  0
   10.2570   -3.5000   24.1350 C   0  0  0  0  0  0  0  0  0  0  0  0
    8.3510   -1.5420   24.6110 C   0  0  0  0  0  0  0  0  0  0  0  0
   10.2760   -2.3270   23.4020 C   0  0  0  0  0  0  0  0  0  0  0  0
   14.3084    0.9453   23.4803 C   0  0  0  0  0  0  0  0  0  0  0  0
   12.2323    0.1076   24.3888 C   0  0  0  0  0  0  0  0  0  0  0  0
   11.5217    1.0079   23.5949 C   0  0  0  0  0  0  0  0  0  0  0  0
    9.2850   -3.7090   25.1090 C   0  0  0  0  0  0  0  0  0  0  0  0
    9.3300   -1.3350   23.6390 C   0  0  0  0  0  0  0  0  0  0  0  0
   13.6257    0.0764   24.3314 C   0  0  0  0  0  0  0  0  0  0  0  0
    6.1600    0.3870   20.1140 C   0  0  0  0  0  0  0  0  0  0  0  0
    7.2210   -0.4620   20.0350 C   0  0  0  0  0  0  0  0  0  0  0  0
    5.3360    0.8000   21.1530 C   0  0  0  0  0  0  0  0  0  0  0  0
    4.2970    1.6690   20.8430 C   0  0  0  0  0  0  0  0  0  0  0  0
    4.0980    2.1130   19.5350 C   0  0  0  0  0  0  0  0  0  0  0  0
    4.9400    1.7060   18.5060 C   0  0  0  0  0  0  0  0  0  0  0  0
    8.2930   -5.1714   26.8572 C   0  0  0  0  0  0  0  0  0  0  0  0
    8.9510    0.1280   21.6880 C   0  0  0  0  0  0  0  0  0  0  0  0
    8.4551   -6.5156   27.5444 C   0  0  0  0  0  0  0  0  0  0  0  0
    9.9019   -6.7444   27.9450 C   0  0  0  0  0  0  0  0  0  0  0  0
   10.8596   -6.5882   26.7680 C   0  0  0  0  0  0  0  0  0  0  0  0
   10.1895   -6.0108   25.5223 C   0  0  0  0  0  0  0  0  0  0  0  0
   10.0220    1.0430   23.6570 C   0  0  0  0  0  0  0  0  0  0  0  0
    8.0810   -0.9750   21.0820 C   0  0  0  0  0  0  0  0  0  0  0  0
    7.6830   -0.5170   18.7600 N   0  0  0  0  0  0  0  0  0  0  0  0
    6.9440    0.2550   18.0100 N   0  0  0  0  0  0  0  0  0  0  0  0
    5.9810    0.8330   18.8060 N   0  0  0  0  0  0  0  0  0  0  0  0
    9.2623   -4.9266   25.8635 N   0  0  0  0  0  0  0  0  0  0  0  0
    9.4200   -0.0840   22.9530 N   0  0  0  0  0  0  0  0  0  0  0  0
    7.3370   -4.4527   27.1463 O   0  0  0  0  0  0  0  0  0  0  0  0
    9.1870    1.1500   21.0630 O   0  0  0  0  0  0  0  0  0  0  0  0
   14.5031   -1.0334   25.3114 Cl  0  0  0  0  0  0  0  0  0  0  0  0
   14.1289    2.5226   22.0237 H   0  0  0  0  0  0  0  0  0  0  0  0
   11.6588    2.5818   22.1218 H   0  0  0  0  0  0  0  0  0  0  0  0
    7.5639   -2.8621   26.1045 H   0  0  0  0  0  0  0  0  0  0  0  0
   11.0141   -4.2644   23.9422 H   0  0  0  0  0  0  0  0  0  0  0  0
    7.5950   -0.7788   24.8007 H   0  0  0  0  0  0  0  0  0  0  0  0
   11.0408   -2.1861   22.6359 H   0  0  0  0  0  0  0  0  0  0  0  0
   15.3941    0.9323   23.4255 H   0  0  0  0  0  0  0  0  0  0  0  0
   11.6954   -0.5682   25.0504 H   0  0  0  0  0  0  0  0  0  0  0  0
    5.4740    0.4765   22.1644 H   0  0  0  0  0  0  0  0  0  0  0  0
    3.6415    1.9966   21.6411 H   0  0  0  0  0  0  0  0  0  0  0  0
    3.2723    2.7926   19.2922 H   0  0  0  0  0  0  0  0  0  0  0  0
    4.8122    2.0412   17.5001 H   0  0  0  0  0  0  0  0  0  0  0  0
    7.8332   -6.5283   28.4263 H   0  0  0  0  0  0  0  0  0  0  0  0
    8.1305   -7.2787   26.8530 H   0  0  0  0  0  0  0  0  0  0  0  0
   10.1875   -6.0379   28.7521 H   0  0  0  0  0  0  0  0  0  0  0  0
   10.0116   -7.7568   28.3834 H   0  0  0  0  0  0  0  0  0  0  0  0
   11.7061   -5.9337   27.0644 H   0  0  0  0  0  0  0  0  0  0  0  0
   11.3230   -7.5689   26.5243 H   0  0  0  0  0  0  0  0  0  0  0  0
   10.9445   -5.5959   24.8614 H   0  0  0  0  0  0  0  0  0  0  0  0
    9.6461   -6.7954   25.0072 H   0  0  0  0  0  0  0  0  0  0  0  0
    9.6778    1.0140   24.6966 H   0  0  0  0  0  0  0  0  0  0  0  0
    9.6316    1.9637   23.2107 H   0  0  0  0  0  0  0  0  0  0  0  0
    7.4781   -1.4136   21.8845 H   0  0  0  0  0  0  0  0  0  0  0  0
    8.7420   -1.7550   20.6889 H   0  0  0  0  0  0  0  0  0  0  0  0
  1  2  2  0  0  0  0
  1  7  1  0  0  0  0
  2  9  1  0  0  0  0
  3  5  2  0  0  0  0
  3 10  1  0  0  0  0
  4  6  1  0  0  0  0
  4 10  2  0  0  0  0
  5 11  1  0  0  0  0
  6 11  2  0  0  0  0
  7 12  2  0  0  0  0
  8  9  2  0  0  0  0
  8 12  1  0  0  0  0
  9 25  1  0  0  0  0
 10 30  1  0  0  0  0
 11 31  1  0  0  0  0
 12 34  1  0  0  0  0
 13 14  2  0  0  0  0
 13 15  1  0  0  0  0
 13 29  1  0  0  0  0
 14 26  1  0  0  0  0
 14 27  1  0  0  0  0
 15 16  2  0  0  0  0
 16 17  1  0  0  0  0
 17 18  2  0  0  0  0
 18 29  1  0  0  0  0
 19 21  1  0  0  0  0
 19 30  1  0  0  0  0
 19 32  2  0  0  0  0
 20 26  1  0  0  0  0
 20 31  1  0  0  0  0
 20 33  2  0  0  0  0
 21 22  1  0  0  0  0
 22 23  1  0  0  0  0
 23 24  1  0  0  0  0
 24 30  1  0  0  0  0
 25 31  1  0  0  0  0
 27 28  2  0  0  0  0
 28 29  1  0  0  0  0
  1 35  1  0  0  0  0
  2 36  1  0  0  0  0
  3 37  1  0  0  0  0
  4 38  1  0  0  0  0
  5 39  1  0  0  0  0
  6 40  1  0  0  0  0
  7 41  1  0  0  0  0
  8 42  1  0  0  0  0
 15 43  1  0  0  0  0
 16 44  1  0  0  0  0
 17 45  1  0  0  0  0
 18 46  1  0  0  0  0
 21 47  1  0  0  0  0
 21 48  1  0  0  0  0
 22 49  1  0  0  0  0
 22 50  1  0  0  0  0
 23 51  1  0  0  0  0
 23 52  1  0  0  0  0
 24 53  1  0  0  0  0
 24 54  1  0  0  0  0
 25 55  1  0  0  0  0
 25 56  1  0  0  0  0
 26 57  1  0  0  0  0
 26 58  1  0  0  0  0
M  END
> <clash_score>
2.8259427848402625

> <docking_score>
-6.816937446594238

> <overlap_score>
1.021795392036438

$$$$
BENZO_445_1
  -OEChem-08222022423D

 57 61  0     0  0  0  0  0  0999 V2000
   14.3082    0.9431   23.4783 C   0  0  0  0  0  0  0  0  0  0  0  0
   13.6391    0.3091   24.5251 C   0  0  0  0  0  0  0  0  0  0  0  0
   13.5841    1.6096   22.4898 C   0  0  0  0  0  0  0  0  0  0  0  0
   12.2459    0.3415   24.5835 C   0  0  0  0  0  0  0  0  0  0  0  0
   12.1908    1.6420   22.5481 C   0  0  0  0  0  0  0  0  0  0  0  0
    8.3310   -2.7170   25.3430 C   0  0  0  0  0  0  0  0  0  0  0  0
   10.2570   -3.5000   24.1350 C   0  0  0  0  0  0  0  0  0  0  0  0
    8.3510   -1.5420   24.6110 C   0  0  0  0  0  0  0  0  0  0  0  0
   10.2760   -2.3270   23.4020 C   0  0  0  0  0  0  0  0  0  0  0  0
   11.5217    1.0079   23.5949 C   0  0  0  0  0  0  0  0  0  0  0  0
    9.2850   -3.7090   25.1090 C   0  0  0  0  0  0  0  0  0  0  0  0
    9.3300   -1.3350   23.6390 C   0  0  0  0  0  0  0  0  0  0  0  0
    6.1600    0.3870   20.1140 C   0  0  0  0  0  0  0  0  0  0  0  0
    7.2210   -0.4620   20.0350 C   0  0  0  0  0  0  0  0  0  0  0  0
    5.3360    0.8000   21.1530 C   0  0  0  0  0  0  0  0  0  0  0  0
    4.2970    1.6690   20.8430 C   0  0  0  0  0  0  0  0  0  0  0  0
    4.0980    2.1130   19.5350 C   0  0  0  0  0  0  0  0  0  0  0  0
    4.9400    1.7060   18.5060 C   0  0  0  0  0  0  0  0  0  0  0  0
    8.9510    0.1280   21.6880 C   0  0  0  0  0  0  0  0  0  0  0  0
    8.7666   -4.9523   27.2147 C   0  0  0  0  0  0  0  0  0  0  0  0
    9.3034   -6.1866   25.1651 C   0  0  0  0  0  0  0  0  0  0  0  0
    7.3827   -5.5925   27.1999 C   0  0  0  0  0  0  0  0  0  0  0  0
    7.9024   -6.7967   25.2263 C   0  0  0  0  0  0  0  0  0  0  0  0
   10.0220    1.0430   23.6570 C   0  0  0  0  0  0  0  0  0  0  0  0
    8.0810   -0.9750   21.0820 C   0  0  0  0  0  0  0  0  0  0  0  0
    7.6830   -0.5170   18.7600 N   0  0  0  0  0  0  0  0  0  0  0  0
    6.9440    0.2550   18.0100 N   0  0  0  0  0  0  0  0  0  0  0  0
    5.9810    0.8330   18.8060 N   0  0  0  0  0  0  0  0  0  0  0  0
    9.2640   -4.8844   25.8389 N   0  0  0  0  0  0  0  0  0  0  0  0
    9.4200   -0.0840   22.9530 N   0  0  0  0  0  0  0  0  0  0  0  0
    9.1870    1.1500   21.0630 O   0  0  0  0  0  0  0  0  0  0  0  0
    7.4483   -6.8833   26.5817 O   0  0  0  0  0  0  0  0  0  0  0  0
   15.3932    0.9189   23.4337 H   0  0  0  0  0  0  0  0  0  0  0  0
   14.2029   -0.2090   25.2955 H   0  0  0  0  0  0  0  0  0  0  0  0
   14.1048    2.1043   21.6752 H   0  0  0  0  0  0  0  0  0  0  0  0
   11.7330   -0.1555   25.4027 H   0  0  0  0  0  0  0  0  0  0  0  0
   11.6349    2.1636   21.7735 H   0  0  0  0  0  0  0  0  0  0  0  0
    7.5647   -2.8621   26.1053 H   0  0  0  0  0  0  0  0  0  0  0  0
   11.0144   -4.2642   23.9425 H   0  0  0  0  0  0  0  0  0  0  0  0
    7.5958   -0.7779   24.8006 H   0  0  0  0  0  0  0  0  0  0  0  0
   11.0406   -2.1848   22.6356 H   0  0  0  0  0  0  0  0  0  0  0  0
    5.4740    0.4765   22.1644 H   0  0  0  0  0  0  0  0  0  0  0  0
    3.6415    1.9966   21.6411 H   0  0  0  0  0  0  0  0  0  0  0  0
    3.2723    2.7926   19.2922 H   0  0  0  0  0  0  0  0  0  0  0  0
    4.8122    2.0412   17.5001 H   0  0  0  0  0  0  0  0  0  0  0  0
    8.7030   -3.9561   27.6574 H   0  0  0  0  0  0  0  0  0  0  0  0
    9.4460   -5.5639   27.8143 H   0  0  0  0  0  0  0  0  0  0  0  0
   10.0083   -6.8392   25.6817 H   0  0  0  0  0  0  0  0  0  0  0  0
    9.6089   -6.0802   24.1251 H   0  0  0  0  0  0  0  0  0  0  0  0
    7.0281   -5.7334   28.2231 H   0  0  0  0  0  0  0  0  0  0  0  0
    6.6541   -4.9678   26.6754 H   0  0  0  0  0  0  0  0  0  0  0  0
    7.1860   -6.2177   24.6318 H   0  0  0  0  0  0  0  0  0  0  0  0
    7.9246   -7.8119   24.8187 H   0  0  0  0  0  0  0  0  0  0  0  0
    9.6778    1.0140   24.6966 H   0  0  0  0  0  0  0  0  0  0  0  0
    9.6316    1.9637   23.2107 H   0  0  0  0  0  0  0  0  0  0  0  0
    7.4781   -1.4136   21.8845 H   0  0  0  0  0  0  0  0  0  0  0  0
    8.7420   -1.7550   20.6889 H   0  0  0  0  0  0  0  0  0  0  0  0
  1  2  1  0  0  0  0
  1  3  2  0  0  0  0
  2  4  2  0  0  0  0
  3  5  1  0  0  0  0
  4 10  1  0  0  0  0
  5 10  2  0  0  0  0
  6  8  2  0  0  0  0
  6 11  1  0  0  0  0
  7  9  1  0  0  0  0
  7 11  2  0  0  0  0
  8 12  1  0  0  0  0
  9 12  2  0  0  0  0
 10 24  1  0  0  0  0
 11 29  1  0  0  0  0
 12 30  1  0  0  0  0
 13 14  2  0  0  0  0
 13 15  1  0  0  0  0
 13 28  1  0  0  0  0
 14 25  1  0  0  0  0
 14 26  1  0  0  0  0
 15 16  2  0  0  0  0
 16 17  1  0  0  0  0
 17 18  2  0  0  0  0
 18 28  1  0  0  0  0
 19 25  1  0  0  0  0
 19 30  1  0  0  0  0
 19 31  2  0  0  0  0
 20 22  1  0  0  0  0
 20 29  1  0  0  0  0
 21 23  1  0  0  0  0
 21 29  1  0  0  0  0
 22 32  1  0  0  0  0
 23 32  1  0  0  0  0
 24 30  1  0  0  0  0
 26 27  2  0  0  0  0
 27 28  1  0  0  0  0
  1 33  1  0  0  0  0
  2 34  1  0  0  0  0
  3 35  1  0  0  0  0
  4 36  1  0  0  0  0
  5 37  1  0  0  0  0
  6 38  1  0  0  0  0
  7 39  1  0  0  0  0
  8 40  1  0  0  0  0
  9 41  1  0  0  0  0
 15 42  1  0  0  0  0
 16 43  1  0  0  0  0
 17 44  1  0  0  0  0
 18 45  1  0  0  0  0
 20 46  1  0  0  0  0
 20 47  1  0  0  0  0
 21 48  1  0  0  0  0
 21 49  1  0  0  0  0
 22 50  1  0  0  0  0
 22 51  1  0  0  0  0
 23 52  1  0  0  0  0
 23 53  1  0  0  0  0
 24 54  1  0  0  0  0
 24 55  1  0  0  0  0
 25 56  1  0  0  0  0
 25 57  1  0  0  0  0
M  END
> <clash_score>
0

> <docking_score>
-8.869333267211914

> <overlap_score>
1.016516089439392

$$$$
BENZO_444_1
  -OEChem-08222022423D

 54 58  0     0  0  0  0  0  0999 V2000
    8.3310   -2.7170   25.3430 C   0  0  0  0  0  0  0  0  0  0  0  0
   10.2570   -3.5000   24.1350 C   0  0  0  0  0  0  0  0  0  0  0  0
    8.3510   -1.5420   24.6110 C   0  0  0  0  0  0  0  0  0  0  0  0
   10.2760   -2.3270   23.4020 C   0  0  0  0  0  0  0  0  0  0  0  0
   12.2675    1.0332   22.3812 C   0  0  0  0  0  0  0  0  0  0  0  0
   13.6257    0.9906   22.6074 C   0  0  0  0  0  0  0  0  0  0  0  0
   12.3384    0.9467   24.7028 C   0  0  0  0  0  0  0  0  0  0  0  0
   11.5217    1.0079   23.5949 C   0  0  0  0  0  0  0  0  0  0  0  0
    9.2850   -3.7090   25.1090 C   0  0  0  0  0  0  0  0  0  0  0  0
    9.3300   -1.3350   23.6390 C   0  0  0  0  0  0  0  0  0  0  0  0
    6.1600    0.3870   20.1140 C   0  0  0  0  0  0  0  0  0  0  0  0
    7.2210   -0.4620   20.0350 C   0  0  0  0  0  0  0  0  0  0  0  0
    5.3360    0.8000   21.1530 C   0  0  0  0  0  0  0  0  0  0  0  0
    4.2970    1.6690   20.8430 C   0  0  0  0  0  0  0  0  0  0  0  0
    4.0980    2.1130   19.5350 C   0  0  0  0  0  0  0  0  0  0  0  0
    4.9400    1.7060   18.5060 C   0  0  0  0  0  0  0  0  0  0  0  0
    8.9510    0.1280   21.6880 C   0  0  0  0  0  0  0  0  0  0  0  0
    8.7666   -4.9523   27.2147 C   0  0  0  0  0  0  0  0  0  0  0  0
    9.3034   -6.1866   25.1651 C   0  0  0  0  0  0  0  0  0  0  0  0
    7.3827   -5.5925   27.1999 C   0  0  0  0  0  0  0  0  0  0  0  0
    7.9024   -6.7967   25.2263 C   0  0  0  0  0  0  0  0  0  0  0  0
   10.0220    1.0430   23.6570 C   0  0  0  0  0  0  0  0  0  0  0  0
    8.0810   -0.9750   21.0820 C   0  0  0  0  0  0  0  0  0  0  0  0
    7.6830   -0.5170   18.7600 N   0  0  0  0  0  0  0  0  0  0  0  0
    6.9440    0.2550   18.0100 N   0  0  0  0  0  0  0  0  0  0  0  0
    5.9810    0.8330   18.8060 N   0  0  0  0  0  0  0  0  0  0  0  0
    9.2640   -4.8844   25.8389 N   0  0  0  0  0  0  0  0  0  0  0  0
    9.4200   -0.0840   22.9530 N   0  0  0  0  0  0  0  0  0  0  0  0
    9.1870    1.1500   21.0630 O   0  0  0  0  0  0  0  0  0  0  0  0
    7.4483   -6.8833   26.5817 O   0  0  0  0  0  0  0  0  0  0  0  0
   13.9969    0.9202   24.2776 S   0  0  0  0  0  0  0  0  0  0  0  0
    7.5647   -2.8621   26.1053 H   0  0  0  0  0  0  0  0  0  0  0  0
   11.0144   -4.2642   23.9425 H   0  0  0  0  0  0  0  0  0  0  0  0
    7.5958   -0.7779   24.8006 H   0  0  0  0  0  0  0  0  0  0  0  0
   11.0406   -2.1848   22.6356 H   0  0  0  0  0  0  0  0  0  0  0  0
   11.8338    1.0798   21.3902 H   0  0  0  0  0  0  0  0  0  0  0  0
   14.4176    0.9966   21.8719 H   0  0  0  0  0  0  0  0  0  0  0  0
   12.0446    0.9149   25.7428 H   0  0  0  0  0  0  0  0  0  0  0  0
    5.4740    0.4765   22.1644 H   0  0  0  0  0  0  0  0  0  0  0  0
    3.6415    1.9966   21.6411 H   0  0  0  0  0  0  0  0  0  0  0  0
    3.2723    2.7926   19.2922 H   0  0  0  0  0  0  0  0  0  0  0  0
    4.8122    2.0412   17.5001 H   0  0  0  0  0  0  0  0  0  0  0  0
    8.7030   -3.9561   27.6574 H   0  0  0  0  0  0  0  0  0  0  0  0
    9.4460   -5.5639   27.8143 H   0  0  0  0  0  0  0  0  0  0  0  0
   10.0083   -6.8392   25.6817 H   0  0  0  0  0  0  0  0  0  0  0  0
    9.6089   -6.0802   24.1251 H   0  0  0  0  0  0  0  0  0  0  0  0
    7.0281   -5.7334   28.2231 H   0  0  0  0  0  0  0  0  0  0  0  0
    6.6541   -4.9678   26.6754 H   0  0  0  0  0  0  0  0  0  0  0  0
    7.1860   -6.2177   24.6318 H   0  0  0  0  0  0  0  0  0  0  0  0
    7.9246   -7.8119   24.8187 H   0  0  0  0  0  0  0  0  0  0  0  0
    9.6778    1.0140   24.6966 H   0  0  0  0  0  0  0  0  0  0  0  0
    9.6316    1.9637   23.2107 H   0  0  0  0  0  0  0  0  0  0  0  0
    7.4781   -1.4136   21.8845 H   0  0  0  0  0  0  0  0  0  0  0  0
    8.7420   -1.7550   20.6889 H   0  0  0  0  0  0  0  0  0  0  0  0
  1  3  2  0  0  0  0
  1  9  1  0  0  0  0
  2  4  1  0  0  0  0
  2  9  2  0  0  0  0
  3 10  1  0  0  0  0
  4 10  2  0  0  0  0
  5  6  2  0  0  0  0
  5  8  1  0  0  0  0
  6 31  1  0  0  0  0
  7  8  2  0  0  0  0
  7 31  1  0  0  0  0
  8 22  1  0  0  0  0
  9 27  1  0  0  0  0
 10 28  1  0  0  0  0
 11 12  2  0  0  0  0
 11 13  1  0  0  0  0
 11 26  1  0  0  0  0
 12 23  1  0  0  0  0
 12 24  1  0  0  0  0
 13 14  2  0  0  0  0
 14 15  1  0  0  0  0
 15 16  2  0  0  0  0
 16 26  1  0  0  0  0
 17 23  1  0  0  0  0
 17 28  1  0  0  0  0
 17 29  2  0  0  0  0
 18 20  1  0  0  0  0
 18 27  1  0  0  0  0
 19 21  1  0  0  0  0
 19 27  1  0  0  0  0
 20 30  1  0  0  0  0
 21 30  1  0  0  0  0
 22 28  1  0  0  0  0
 24 25  2  0  0  0  0
 25 26  1  0  0  0  0
  1 32  1  0  0  0  0
  2 33  1  0  0  0  0
  3 34  1  0  0  0  0
  4 35  1  0  0  0  0
  5 36  1  0  0  0  0
  6 37  1  0  0  0  0
  7 38  1  0  0  0  0
 13 39  1  0  0  0  0
 14 40  1  0  0  0  0
 15 41  1  0  0  0  0
 16 42  1  0  0  0  0
 18 43  1  0  0  0  0
 18 44  1  0  0  0  0
 19 45  1  0  0  0  0
 19 46  1  0  0  0  0
 20 47  1  0  0  0  0
 20 48  1  0  0  0  0
 21 49  1  0  0  0  0
 21 50  1  0  0  0  0
 22 51  1  0  0  0  0
 22 52  1  0  0  0  0
 23 53  1  0  0  0  0
 23 54  1  0  0  0  0
M  END
> <clash_score>
0

> <docking_score>
-9.115530967712402

> <overlap_score>
0.9908769130706787

$$$$
BENZO_446_1
  -OEChem-08222022423D

 57 61  0     0  0  0  0  0  0999 V2000
   13.5977    1.8457   22.6865 C   0  0  0  0  0  0  0  0  0  0  0  0
   12.2044    1.8769   22.7438 C   0  0  0  0  0  0  0  0  0  0  0  0
    8.3310   -2.7170   25.3430 C   0  0  0  0  0  0  0  0  0  0  0  0
   10.2570   -3.5000   24.1350 C   0  0  0  0  0  0  0  0  0  0  0  0
    8.3510   -1.5420   24.6110 C   0  0  0  0  0  0  0  0  0  0  0  0
   10.2760   -2.3270   23.4020 C   0  0  0  0  0  0  0  0  0  0  0  0
   14.3084    0.9454   23.4803 C   0  0  0  0  0  0  0  0  0  0  0  0
   12.2323    0.1076   24.3888 C   0  0  0  0  0  0  0  0  0  0  0  0
   11.5217    1.0079   23.5949 C   0  0  0  0  0  0  0  0  0  0  0  0
    9.2850   -3.7090   25.1090 C   0  0  0  0  0  0  0  0  0  0  0  0
    9.3300   -1.3350   23.6390 C   0  0  0  0  0  0  0  0  0  0  0  0
   13.6257    0.0764   24.3314 C   0  0  0  0  0  0  0  0  0  0  0  0
    6.1600    0.3870   20.1140 C   0  0  0  0  0  0  0  0  0  0  0  0
    7.2210   -0.4620   20.0350 C   0  0  0  0  0  0  0  0  0  0  0  0
    5.3360    0.8000   21.1530 C   0  0  0  0  0  0  0  0  0  0  0  0
    4.2970    1.6690   20.8430 C   0  0  0  0  0  0  0  0  0  0  0  0
    4.0980    2.1130   19.5350 C   0  0  0  0  0  0  0  0  0  0  0  0
    4.9400    1.7060   18.5060 C   0  0  0  0  0  0  0  0  0  0  0  0
    8.9510    0.1280   21.6880 C   0  0  0  0  0  0  0  0  0  0  0  0
    8.7666   -4.9523   27.2147 C   0  0  0  0  0  0  0  0  0  0  0  0
    9.3034   -6.1866   25.1651 C   0  0  0  0  0  0  0  0  0  0  0  0
    7.3827   -5.5925   27.1999 C   0  0  0  0  0  0  0  0  0  0  0  0
    7.9024   -6.7967   25.2263 C   0  0  0  0  0  0  0  0  0  0  0  0
   10.0220    1.0430   23.6570 C   0  0  0  0  0  0  0  0  0  0  0  0
    8.0810   -0.9750   21.0820 C   0  0  0  0  0  0  0  0  0  0  0  0
    7.6830   -0.5170   18.7600 N   0  0  0  0  0  0  0  0  0  0  0  0
    6.9440    0.2550   18.0100 N   0  0  0  0  0  0  0  0  0  0  0  0
    5.9810    0.8330   18.8060 N   0  0  0  0  0  0  0  0  0  0  0  0
    9.2640   -4.8844   25.8389 N   0  0  0  0  0  0  0  0  0  0  0  0
    9.4200   -0.0840   22.9530 N   0  0  0  0  0  0  0  0  0  0  0  0
    9.1870    1.1500   21.0630 O   0  0  0  0  0  0  0  0  0  0  0  0
    7.4483   -6.8833   26.5817 O   0  0  0  0  0  0  0  0  0  0  0  0
   14.5031   -1.0334   25.3114 Cl  0  0  0  0  0  0  0  0  0  0  0  0
   14.1289    2.5226   22.0237 H   0  0  0  0  0  0  0  0  0  0  0  0
   11.6588    2.5818   22.1218 H   0  0  0  0  0  0  0  0  0  0  0  0
    7.5647   -2.8621   26.1053 H   0  0  0  0  0  0  0  0  0  0  0  0
   11.0144   -4.2642   23.9425 H   0  0  0  0  0  0  0  0  0  0  0  0
    7.5958   -0.7779   24.8006 H   0  0  0  0  0  0  0  0  0  0  0  0
   11.0406   -2.1848   22.6356 H   0  0  0  0  0  0  0  0  0  0  0  0
   15.3941    0.9323   23.4255 H   0  0  0  0  0  0  0  0  0  0  0  0
   11.6954   -0.5682   25.0504 H   0  0  0  0  0  0  0  0  0  0  0  0
    5.4740    0.4765   22.1644 H   0  0  0  0  0  0  0  0  0  0  0  0
    3.6415    1.9966   21.6411 H   0  0  0  0  0  0  0  0  0  0  0  0
    3.2723    2.7926   19.2922 H   0  0  0  0  0  0  0  0  0  0  0  0
    4.8122    2.0412   17.5001 H   0  0  0  0  0  0  0  0  0  0  0  0
    8.7030   -3.9561   27.6574 H   0  0  0  0  0  0  0  0  0  0  0  0
    9.4460   -5.5639   27.8143 H   0  0  0  0  0  0  0  0  0  0  0  0
   10.0083   -6.8392   25.6817 H   0  0  0  0  0  0  0  0  0  0  0  0
    9.6089   -6.0802   24.1251 H   0  0  0  0  0  0  0  0  0  0  0  0
    7.0281   -5.7334   28.2231 H   0  0  0  0  0  0  0  0  0  0  0  0
    6.6541   -4.9678   26.6754 H   0  0  0  0  0  0  0  0  0  0  0  0
    7.1860   -6.2177   24.6318 H   0  0  0  0  0  0  0  0  0  0  0  0
    7.9246   -7.8119   24.8187 H   0  0  0  0  0  0  0  0  0  0  0  0
    9.6778    1.0140   24.6966 H   0  0  0  0  0  0  0  0  0  0  0  0
    9.6316    1.9637   23.2107 H   0  0  0  0  0  0  0  0  0  0  0  0
    7.4781   -1.4136   21.8845 H   0  0  0  0  0  0  0  0  0  0  0  0
    8.7420   -1.7550   20.6889 H   0  0  0  0  0  0  0  0  0  0  0  0
  1  2  2  0  0  0  0
  1  7  1  0  0  0  0
  2  9  1  0  0  0  0
  3  5  2  0  0  0  0
  3 10  1  0  0  0  0
  4  6  1  0  0  0  0
  4 10  2  0  0  0  0
  5 11  1  0  0  0  0
  6 11  2  0  0  0  0
  7 12  2  0  0  0  0
  8  9  2  0  0  0  0
  8 12  1  0  0  0  0
  9 24  1  0  0  0  0
 10 29  1  0  0  0  0
 11 30  1  0  0  0  0
 12 33  1  0  0  0  0
 13 14  2  0  0  0  0
 13 15  1  0  0  0  0
 13 28  1  0  0  0  0
 14 25  1  0  0  0  0
 14 26  1  0  0  0  0
 15 16  2  0  0  0  0
 16 17  1  0  0  0  0
 17 18  2  0  0  0  0
 18 28  1  0  0  0  0
 19 25  1  0  0  0  0
 19 30  1  0  0  0  0
 19 31  2  0  0  0  0
 20 22  1  0  0  0  0
 20 29  1  0  0  0  0
 21 23  1  0  0  0  0
 21 29  1  0  0  0  0
 22 32  1  0  0  0  0
 23 32  1  0  0  0  0
 24 30  1  0  0  0  0
 26 27  2  0  0  0  0
 27 28  1  0  0  0  0
  1 34  1  0  0  0  0
  2 35  1  0  0  0  0
  3 36  1  0  0  0  0
  4 37  1  0  0  0  0
  5 38  1  0  0  0  0
  6 39  1  0  0  0  0
  7 40  1  0  0  0  0
  8 41  1  0  0  0  0
 15 42  1  0  0  0  0
 16 43  1  0  0  0  0
 17 44  1  0  0  0  0
 18 45  1  0  0  0  0
 20 46  1  0  0  0  0
 20 47  1  0  0  0  0
 21 48  1  0  0  0  0
 21 49  1  0  0  0  0
 22 50  1  0  0  0  0
 22 51  1  0  0  0  0
 23 52  1  0  0  0  0
 23 53  1  0  0  0  0
 24 54  1  0  0  0  0
 24 55  1  0  0  0  0
 25 56  1  0  0  0  0
 25 57  1  0  0  0  0
M  END
> <clash_score>
0.7662450791812931

> <docking_score>
-8.051231384277344

> <overlap_score>
1.021671175956726

$$$$
BENZO_447_1
  -OEChem-08222022423D

 57 61  0     0  0  0  0  0  0999 V2000
    8.3310   -2.7170   25.3430 C   0  0  0  0  0  0  0  0  0  0  0  0
   10.2570   -3.5000   24.1350 C   0  0  0  0  0  0  0  0  0  0  0  0
    8.3510   -1.5420   24.6110 C   0  0  0  0  0  0  0  0  0  0  0  0
   10.2760   -2.3270   23.4020 C   0  0  0  0  0  0  0  0  0  0  0  0
   12.4359    1.7439   24.3724 C   0  0  0  0  0  0  0  0  0  0  0  0
   12.3100    0.2469   22.7668 C   0  0  0  0  0  0  0  0  0  0  0  0
   11.5217    1.0079   23.5949 C   0  0  0  0  0  0  0  0  0  0  0  0
    9.2850   -3.7090   25.1090 C   0  0  0  0  0  0  0  0  0  0  0  0
    9.3300   -1.3350   23.6390 C   0  0  0  0  0  0  0  0  0  0  0  0
    6.1600    0.3870   20.1140 C   0  0  0  0  0  0  0  0  0  0  0  0
    7.2210   -0.4620   20.0350 C   0  0  0  0  0  0  0  0  0  0  0  0
    5.3360    0.8000   21.1530 C   0  0  0  0  0  0  0  0  0  0  0  0
    4.2970    1.6690   20.8430 C   0  0  0  0  0  0  0  0  0  0  0  0
    4.0980    2.1130   19.5350 C   0  0  0  0  0  0  0  0  0  0  0  0
    4.9400    1.7060   18.5060 C   0  0  0  0  0  0  0  0  0  0  0  0
    8.9510    0.1280   21.6880 C   0  0  0  0  0  0  0  0  0  0  0  0
    8.7666   -4.9523   27.2147 C   0  0  0  0  0  0  0  0  0  0  0  0
    9.3034   -6.1866   25.1651 C   0  0  0  0  0  0  0  0  0  0  0  0
    7.3827   -5.5925   27.1999 C   0  0  0  0  0  0  0  0  0  0  0  0
    7.9024   -6.7967   25.2263 C   0  0  0  0  0  0  0  0  0  0  0  0
   14.7884    0.0124   22.4815 C   0  0  0  0  0  0  0  0  0  0  0  0
   10.0220    1.0430   23.6570 C   0  0  0  0  0  0  0  0  0  0  0  0
    8.0810   -0.9750   21.0820 C   0  0  0  0  0  0  0  0  0  0  0  0
   13.7076    1.4745   24.0657 N   0  0  0  0  0  0  0  0  0  0  0  0
    7.6830   -0.5170   18.7600 N   0  0  0  0  0  0  0  0  0  0  0  0
    6.9440    0.2550   18.0100 N   0  0  0  0  0  0  0  0  0  0  0  0
   13.5982    0.5607   23.0864 N   0  0  0  0  0  0  0  0  0  0  0  0
    5.9810    0.8330   18.8060 N   0  0  0  0  0  0  0  0  0  0  0  0
    9.2640   -4.8844   25.8389 N   0  0  0  0  0  0  0  0  0  0  0  0
    9.4200   -0.0840   22.9530 N   0  0  0  0  0  0  0  0  0  0  0  0
    9.1870    1.1500   21.0630 O   0  0  0  0  0  0  0  0  0  0  0  0
    7.4483   -6.8833   26.5817 O   0  0  0  0  0  0  0  0  0  0  0  0
    7.5647   -2.8621   26.1053 H   0  0  0  0  0  0  0  0  0  0  0  0
   11.0144   -4.2642   23.9425 H   0  0  0  0  0  0  0  0  0  0  0  0
    7.5958   -0.7779   24.8006 H   0  0  0  0  0  0  0  0  0  0  0  0
   11.0406   -2.1848   22.6356 H   0  0  0  0  0  0  0  0  0  0  0  0
   12.2308    2.4652   25.1508 H   0  0  0  0  0  0  0  0  0  0  0  0
   12.0700   -0.4744   21.9974 H   0  0  0  0  0  0  0  0  0  0  0  0
    5.4740    0.4765   22.1644 H   0  0  0  0  0  0  0  0  0  0  0  0
    3.6415    1.9966   21.6411 H   0  0  0  0  0  0  0  0  0  0  0  0
    3.2723    2.7926   19.2922 H   0  0  0  0  0  0  0  0  0  0  0  0
    4.8122    2.0412   17.5001 H   0  0  0  0  0  0  0  0  0  0  0  0
    8.7030   -3.9561   27.6574 H   0  0  0  0  0  0  0  0  0  0  0  0
    9.4460   -5.5639   27.8143 H   0  0  0  0  0  0  0  0  0  0  0  0
   10.0083   -6.8392   25.6817 H   0  0  0  0  0  0  0  0  0  0  0  0
    9.6089   -6.0802   24.1251 H   0  0  0  0  0  0  0  0  0  0  0  0
    7.0281   -5.7334   28.2231 H   0  0  0  0  0  0  0  0  0  0  0  0
    6.6541   -4.9678   26.6754 H   0  0  0  0  0  0  0  0  0  0  0  0
    7.1860   -6.2177   24.6318 H   0  0  0  0  0  0  0  0  0  0  0  0
    7.9246   -7.8119   24.8187 H   0  0  0  0  0  0  0  0  0  0  0  0
   15.0569    0.6453   21.6315 H   0  0  0  0  0  0  0  0  0  0  0  0
   15.5971   -0.0026   23.2174 H   0  0  0  0  0  0  0  0  0  0  0  0
   14.5870   -1.0100   22.1498 H   0  0  0  0  0  0  0  0  0  0  0  0
    9.6778    1.0140   24.6966 H   0  0  0  0  0  0  0  0  0  0  0  0
    9.6316    1.9637   23.2107 H   0  0  0  0  0  0  0  0  0  0  0  0
    7.4781   -1.4136   21.8845 H   0  0  0  0  0  0  0  0  0  0  0  0
    8.7420   -1.7550   20.6889 H   0  0  0  0  0  0  0  0  0  0  0  0
  1  3  2  0  0  0  0
  1  8  1  0  0  0  0
  2  4  1  0  0  0  0
  2  8  2  0  0  0  0
  3  9  1  0  0  0  0
  4  9  2  0  0  0  0
  5  7  1  0  0  0  0
  5 24  2  0  0  0  0
  6  7  2  0  0  0  0
  6 27  1  0  0  0  0
  7 22  1  0  0  0  0
  8 29  1  0  0  0  0
  9 30  1  0  0  0  0
 10 11  2  0  0  0  0
 10 12  1  0  0  0  0
 10 28  1  0  0  0  0
 11 23  1  0  0  0  0
 11 25  1  0  0  0  0
 12 13  2  0  0  0  0
 13 14  1  0  0  0  0
 14 15  2  0  0  0  0
 15 28  1  0  0  0  0
 16 23  1  0  0  0  0
 16 30  1  0  0  0  0
 16 31  2  0  0  0  0
 17 19  1  0  0  0  0
 17 29  1  0  0  0  0
 18 20  1  0  0  0  0
 18 29  1  0  0  0  0
 19 32  1  0  0  0  0
 20 32  1  0  0  0  0
 21 27  1  0  0  0  0
 22 30  1  0  0  0  0
 24 27  1  0  0  0  0
 25 26  2  0  0  0  0
 26 28  1  0  0  0  0
  1 33  1  0  0  0  0
  2 34  1  0  0  0  0
  3 35  1  0  0  0  0
  4 36  1  0  0  0  0
  5 37  1  0  0  0  0
  6 38  1  0  0  0  0
 12 39  1  0  0  0  0
 13 40  1  0  0  0  0
 14 41  1  0  0  0  0
 15 42  1  0  0  0  0
 17 43  1  0  0  0  0
 17 44  1  0  0  0  0
 18 45  1  0  0  0  0
 18 46  1  0  0  0  0
 19 47  1  0  0  0  0
 19 48  1  0  0  0  0
 20 49  1  0  0  0  0
 20 50  1  0  0  0  0
 21 51  1  0  0  0  0
 21 52  1  0  0  0  0
 21 53  1  0  0  0  0
 22 54  1  0  0  0  0
 22 55  1  0  0  0  0
 23 56  1  0  0  0  0
 23 57  1  0  0  0  0
M  END
> <clash_score>
0

> <docking_score>
-9.08395004272461

> <overlap_score>
1.0026934146881104

$$$$
BENZO_449_1
  -OEChem-08222022423D

 54 57  0     0  0  0  0  0  0999 V2000
   14.3082    0.9431   23.4783 C   0  0  0  0  0  0  0  0  0  0  0  0
    4.2970    1.6690   20.8430 C   0  0  0  0  0  0  0  0  0  0  0  0
   13.6391    0.3091   24.5251 C   0  0  0  0  0  0  0  0  0  0  0  0
   13.5841    1.6096   22.4898 C   0  0  0  0  0  0  0  0  0  0  0  0
    4.0980    2.1130   19.5350 C   0  0  0  0  0  0  0  0  0  0  0  0
    5.3360    0.8000   21.1530 C   0  0  0  0  0  0  0  0  0  0  0  0
   12.2459    0.3415   24.5835 C   0  0  0  0  0  0  0  0  0  0  0  0
   12.1908    1.6420   22.5481 C   0  0  0  0  0  0  0  0  0  0  0  0
    4.9400    1.7060   18.5060 C   0  0  0  0  0  0  0  0  0  0  0  0
    8.3510   -1.5420   24.6110 C   0  0  0  0  0  0  0  0  0  0  0  0
   10.2760   -2.3270   23.4020 C   0  0  0  0  0  0  0  0  0  0  0  0
    8.3310   -2.7170   25.3430 C   0  0  0  0  0  0  0  0  0  0  0  0
   10.2570   -3.5000   24.1350 C   0  0  0  0  0  0  0  0  0  0  0  0
    7.6830   -0.5170   18.7600 C   0  0  0  0  0  0  0  0  0  0  0  0
    6.1600    0.3870   20.1140 C   0  0  0  0  0  0  0  0  0  0  0  0
   11.5217    1.0079   23.5949 C   0  0  0  0  0  0  0  0  0  0  0  0
    7.2210   -0.4620   20.0350 C   0  0  0  0  0  0  0  0  0  0  0  0
    5.9810    0.8330   18.8060 C   0  0  0  0  0  0  0  0  0  0  0  0
    9.3300   -1.3350   23.6390 C   0  0  0  0  0  0  0  0  0  0  0  0
    9.2850   -3.7090   25.1090 C   0  0  0  0  0  0  0  0  0  0  0  0
    8.9510    0.1280   21.6880 C   0  0  0  0  0  0  0  0  0  0  0  0
    8.2497   -5.1176   26.8641 C   0  0  0  0  0  0  0  0  0  0  0  0
   10.2420   -5.9412   25.5988 C   0  0  0  0  0  0  0  0  0  0  0  0
    8.0810   -0.9750   21.0820 C   0  0  0  0  0  0  0  0  0  0  0  0
   10.0220    1.0430   23.6570 C   0  0  0  0  0  0  0  0  0  0  0  0
    6.9440    0.2550   18.0100 N   0  0  0  0  0  0  0  0  0  0  0  0
    9.4200   -0.0840   22.9530 N   0  0  0  0  0  0  0  0  0  0  0  0
    9.2624   -4.9028   25.8498 N   0  0  0  0  0  0  0  0  0  0  0  0
    9.1870    1.1500   21.0630 O   0  0  0  0  0  0  0  0  0  0  0  0
   15.3932    0.9189   23.4337 H   0  0  0  0  0  0  0  0  0  0  0  0
    3.6260    2.0115   21.6299 H   0  0  0  0  0  0  0  0  0  0  0  0
   14.2029   -0.2090   25.2955 H   0  0  0  0  0  0  0  0  0  0  0  0
   14.1048    2.1043   21.6752 H   0  0  0  0  0  0  0  0  0  0  0  0
    3.2721    2.7866   19.3205 H   0  0  0  0  0  0  0  0  0  0  0  0
    5.4862    0.4667   22.1694 H   0  0  0  0  0  0  0  0  0  0  0  0
   11.7330   -0.1555   25.4027 H   0  0  0  0  0  0  0  0  0  0  0  0
   11.6349    2.1636   21.7735 H   0  0  0  0  0  0  0  0  0  0  0  0
    4.7828    2.0658   17.4849 H   0  0  0  0  0  0  0  0  0  0  0  0
    7.5947   -0.7787   24.7997 H   0  0  0  0  0  0  0  0  0  0  0  0
   11.0404   -2.1861   22.6352 H   0  0  0  0  0  0  0  0  0  0  0  0
    7.5641   -2.8632   26.1047 H   0  0  0  0  0  0  0  0  0  0  0  0
   11.0135   -4.2647   23.9425 H   0  0  0  0  0  0  0  0  0  0  0  0
    8.5287   -1.0850   18.3402 H   0  0  0  0  0  0  0  0  0  0  0  0
    8.3983   -6.1037   27.3283 H   0  0  0  0  0  0  0  0  0  0  0  0
    8.3291   -4.3349   27.6329 H   0  0  0  0  0  0  0  0  0  0  0  0
    7.2528   -5.0769   26.4011 H   0  0  0  0  0  0  0  0  0  0  0  0
   10.0584   -6.7901   26.2740 H   0  0  0  0  0  0  0  0  0  0  0  0
   10.1594   -6.2785   24.5551 H   0  0  0  0  0  0  0  0  0  0  0  0
   11.2519   -5.5432   25.7767 H   0  0  0  0  0  0  0  0  0  0  0  0
    7.4884   -1.4160   21.8960 H   0  0  0  0  0  0  0  0  0  0  0  0
    8.7523   -1.7574   20.7004 H   0  0  0  0  0  0  0  0  0  0  0  0
    9.6778    1.0140   24.6966 H   0  0  0  0  0  0  0  0  0  0  0  0
    9.6316    1.9637   23.2107 H   0  0  0  0  0  0  0  0  0  0  0  0
    7.0329    0.4233   17.0175 H   0  0  0  0  0  0  0  0  0  0  0  0
  1  3  1  0  0  0  0
  1  4  2  0  0  0  0
  2  5  1  0  0  0  0
  2  6  2  0  0  0  0
  3  7  2  0  0  0  0
  4  8  1  0  0  0  0
  5  9  2  0  0  0  0
  6 15  1  0  0  0  0
  7 16  1  0  0  0  0
  8 16  2  0  0  0  0
  9 18  1  0  0  0  0
 10 12  2  0  0  0  0
 10 19  1  0  0  0  0
 11 13  1  0  0  0  0
 11 19  2  0  0  0  0
 12 20  1  0  0  0  0
 13 20  2  0  0  0  0
 14 17  2  0  0  0  0
 14 26  1  0  0  0  0
 15 17  1  0  0  0  0
 15 18  2  0  0  0  0
 16 25  1  0  0  0  0
 17 24  1  0  0  0  0
 18 26  1  0  0  0  0
 19 27  1  0  0  0  0
 20 28  1  0  0  0  0
 21 24  1  0  0  0  0
 21 27  1  0  0  0  0
 21 29  2  0  0  0  0
 22 28  1  0  0  0  0
 23 28  1  0  0  0  0
 25 27  1  0  0  0  0
  1 30  1  0  0  0  0
  2 31  1  0  0  0  0
  3 32  1  0  0  0  0
  4 33  1  0  0  0  0
  5 34  1  0  0  0  0
  6 35  1  0  0  0  0
  7 36  1  0  0  0  0
  8 37  1  0  0  0  0
  9 38  1  0  0  0  0
 10 39  1  0  0  0  0
 11 40  1  0  0  0  0
 12 41  1  0  0  0  0
 13 42  1  0  0  0  0
 14 43  1  0  0  0  0
 22 44  1  0  0  0  0
 22 45  1  0  0  0  0
 22 46  1  0  0  0  0
 23 47  1  0  0  0  0
 23 48  1  0  0  0  0
 23 49  1  0  0  0  0
 24 50  1  0  0  0  0
 24 51  1  0  0  0  0
 25 52  1  0  0  0  0
 25 53  1  0  0  0  0
 26 54  1  0  0  0  0
M  END
> <clash_score>
0

> <docking_score>
-8.904764175415039

> <overlap_score>
1.0030866861343384

$$$$
BENZO_448_1
  -OEChem-08222022423D

 51 54  0     0  0  0  0  0  0999 V2000
    4.2970    1.6690   20.8430 C   0  0  0  0  0  0  0  0  0  0  0  0
    4.0980    2.1130   19.5350 C   0  0  0  0  0  0  0  0  0  0  0  0
    5.3360    0.8000   21.1530 C   0  0  0  0  0  0  0  0  0  0  0  0
    4.9400    1.7060   18.5060 C   0  0  0  0  0  0  0  0  0  0  0  0
    8.3510   -1.5420   24.6110 C   0  0  0  0  0  0  0  0  0  0  0  0
   10.2760   -2.3270   23.4020 C   0  0  0  0  0  0  0  0  0  0  0  0
    8.3310   -2.7170   25.3430 C   0  0  0  0  0  0  0  0  0  0  0  0
   10.2570   -3.5000   24.1350 C   0  0  0  0  0  0  0  0  0  0  0  0
   12.2675    1.0332   22.3812 C   0  0  0  0  0  0  0  0  0  0  0  0
    7.6830   -0.5170   18.7600 C   0  0  0  0  0  0  0  0  0  0  0  0
   13.6257    0.9906   22.6074 C   0  0  0  0  0  0  0  0  0  0  0  0
   12.3384    0.9467   24.7028 C   0  0  0  0  0  0  0  0  0  0  0  0
    6.1600    0.3870   20.1140 C   0  0  0  0  0  0  0  0  0  0  0  0
   11.5217    1.0079   23.5949 C   0  0  0  0  0  0  0  0  0  0  0  0
    7.2210   -0.4620   20.0350 C   0  0  0  0  0  0  0  0  0  0  0  0
    5.9810    0.8330   18.8060 C   0  0  0  0  0  0  0  0  0  0  0  0
    9.3300   -1.3350   23.6390 C   0  0  0  0  0  0  0  0  0  0  0  0
    9.2850   -3.7090   25.1090 C   0  0  0  0  0  0  0  0  0  0  0  0
    8.9510    0.1280   21.6880 C   0  0  0  0  0  0  0  0  0  0  0  0
    8.2497   -5.1176   26.8641 C   0  0  0  0  0  0  0  0  0  0  0  0
   10.2420   -5.9412   25.5988 C   0  0  0  0  0  0  0  0  0  0  0  0
    8.0810   -0.9750   21.0820 C   0  0  0  0  0  0  0  0  0  0  0  0
   10.0220    1.0430   23.6570 C   0  0  0  0  0  0  0  0  0  0  0  0
    6.9440    0.2550   18.0100 N   0  0  0  0  0  0  0  0  0  0  0  0
    9.4200   -0.0840   22.9530 N   0  0  0  0  0  0  0  0  0  0  0  0
    9.2624   -4.9028   25.8498 N   0  0  0  0  0  0  0  0  0  0  0  0
    9.1870    1.1500   21.0630 O   0  0  0  0  0  0  0  0  0  0  0  0
   13.9969    0.9203   24.2776 S   0  0  0  0  0  0  0  0  0  0  0  0
    3.6260    2.0115   21.6299 H   0  0  0  0  0  0  0  0  0  0  0  0
    3.2721    2.7866   19.3205 H   0  0  0  0  0  0  0  0  0  0  0  0
    5.4862    0.4667   22.1694 H   0  0  0  0  0  0  0  0  0  0  0  0
    4.7828    2.0658   17.4849 H   0  0  0  0  0  0  0  0  0  0  0  0
    7.5947   -0.7787   24.7997 H   0  0  0  0  0  0  0  0  0  0  0  0
   11.0404   -2.1861   22.6352 H   0  0  0  0  0  0  0  0  0  0  0  0
    7.5641   -2.8632   26.1047 H   0  0  0  0  0  0  0  0  0  0  0  0
   11.0135   -4.2647   23.9425 H   0  0  0  0  0  0  0  0  0  0  0  0
   11.8338    1.0798   21.3902 H   0  0  0  0  0  0  0  0  0  0  0  0
    8.5287   -1.0850   18.3402 H   0  0  0  0  0  0  0  0  0  0  0  0
   14.4176    0.9966   21.8719 H   0  0  0  0  0  0  0  0  0  0  0  0
   12.0446    0.9149   25.7428 H   0  0  0  0  0  0  0  0  0  0  0  0
    8.3983   -6.1037   27.3283 H   0  0  0  0  0  0  0  0  0  0  0  0
    8.3291   -4.3349   27.6329 H   0  0  0  0  0  0  0  0  0  0  0  0
    7.2528   -5.0769   26.4011 H   0  0  0  0  0  0  0  0  0  0  0  0
   10.0584   -6.7901   26.2740 H   0  0  0  0  0  0  0  0  0  0  0  0
   10.1594   -6.2785   24.5551 H   0  0  0  0  0  0  0  0  0  0  0  0
   11.2519   -5.5432   25.7767 H   0  0  0  0  0  0  0  0  0  0  0  0
    7.4884   -1.4160   21.8960 H   0  0  0  0  0  0  0  0  0  0  0  0
    8.7523   -1.7574   20.7004 H   0  0  0  0  0  0  0  0  0  0  0  0
    9.6778    1.0140   24.6966 H   0  0  0  0  0  0  0  0  0  0  0  0
    9.6316    1.9637   23.2107 H   0  0  0  0  0  0  0  0  0  0  0  0
    7.0329    0.4233   17.0175 H   0  0  0  0  0  0  0  0  0  0  0  0
  1  2  1  0  0  0  0
  1  3  2  0  0  0  0
  2  4  2  0  0  0  0
  3 13  1  0  0  0  0
  4 16  1  0  0  0  0
  5  7  2  0  0  0  0
  5 17  1  0  0  0  0
  6  8  1  0  0  0  0
  6 17  2  0  0  0  0
  7 18  1  0  0  0  0
  8 18  2  0  0  0  0
  9 11  2  0  0  0  0
  9 14  1  0  0  0  0
 10 15  2  0  0  0  0
 10 24  1  0  0  0  0
 11 28  1  0  0  0  0
 12 14  2  0  0  0  0
 12 28  1  0  0  0  0
 13 15  1  0  0  0  0
 13 16  2  0  0  0  0
 14 23  1  0  0  0  0
 15 22  1  0  0  0  0
 16 24  1  0  0  0  0
 17 25  1  0  0  0  0
 18 26  1  0  0  0  0
 19 22  1  0  0  0  0
 19 25  1  0  0  0  0
 19 27  2  0  0  0  0
 20 26  1  0  0  0  0
 21 26  1  0  0  0  0
 23 25  1  0  0  0  0
  1 29  1  0  0  0  0
  2 30  1  0  0  0  0
  3 31  1  0  0  0  0
  4 32  1  0  0  0  0
  5 33  1  0  0  0  0
  6 34  1  0  0  0  0
  7 35  1  0  0  0  0
  8 36  1  0  0  0  0
  9 37  1  0  0  0  0
 10 38  1  0  0  0  0
 11 39  1  0  0  0  0
 12 40  1  0  0  0  0
 20 41  1  0  0  0  0
 20 42  1  0  0  0  0
 20 43  1  0  0  0  0
 21 44  1  0  0  0  0
 21 45  1  0  0  0  0
 21 46  1  0  0  0  0
 22 47  1  0  0  0  0
 22 48  1  0  0  0  0
 23 49  1  0  0  0  0
 23 50  1  0  0  0  0
 24 51  1  0  0  0  0
M  END
> <clash_score>
0

> <docking_score>
-9.150962829589844

> <overlap_score>
0.9772634506225586

$$$$
BENZO_450_1
  -OEChem-08222022423D

 54 57  0     0  0  0  0  0  0999 V2000
    4.2970    1.6690   20.8430 C   0  0  0  0  0  0  0  0  0  0  0  0
    4.0980    2.1130   19.5350 C   0  0  0  0  0  0  0  0  0  0  0  0
   13.5977    1.8457   22.6865 C   0  0  0  0  0  0  0  0  0  0  0  0
    5.3360    0.8000   21.1530 C   0  0  0  0  0  0  0  0  0  0  0  0
   12.2044    1.8769   22.7438 C   0  0  0  0  0  0  0  0  0  0  0  0
    4.9400    1.7060   18.5060 C   0  0  0  0  0  0  0  0  0  0  0  0
    8.3510   -1.5420   24.6110 C   0  0  0  0  0  0  0  0  0  0  0  0
   10.2760   -2.3270   23.4020 C   0  0  0  0  0  0  0  0  0  0  0  0
    8.3310   -2.7170   25.3430 C   0  0  0  0  0  0  0  0  0  0  0  0
   10.2570   -3.5000   24.1350 C   0  0  0  0  0  0  0  0  0  0  0  0
   14.3084    0.9454   23.4803 C   0  0  0  0  0  0  0  0  0  0  0  0
   12.2323    0.1076   24.3888 C   0  0  0  0  0  0  0  0  0  0  0  0
    7.6830   -0.5170   18.7600 C   0  0  0  0  0  0  0  0  0  0  0  0
    6.1600    0.3870   20.1140 C   0  0  0  0  0  0  0  0  0  0  0  0
   11.5217    1.0079   23.5949 C   0  0  0  0  0  0  0  0  0  0  0  0
    7.2210   -0.4620   20.0350 C   0  0  0  0  0  0  0  0  0  0  0  0
    5.9810    0.8330   18.8060 C   0  0  0  0  0  0  0  0  0  0  0  0
    9.3300   -1.3350   23.6390 C   0  0  0  0  0  0  0  0  0  0  0  0
    9.2850   -3.7090   25.1090 C   0  0  0  0  0  0  0  0  0  0  0  0
   13.6257    0.0764   24.3314 C   0  0  0  0  0  0  0  0  0  0  0  0
    8.9510    0.1280   21.6880 C   0  0  0  0  0  0  0  0  0  0  0  0
    8.2497   -5.1176   26.8641 C   0  0  0  0  0  0  0  0  0  0  0  0
   10.2420   -5.9412   25.5988 C   0  0  0  0  0  0  0  0  0  0  0  0
    8.0810   -0.9750   21.0820 C   0  0  0  0  0  0  0  0  0  0  0  0
   10.0220    1.0430   23.6570 C   0  0  0  0  0  0  0  0  0  0  0  0
    6.9440    0.2550   18.0100 N   0  0  0  0  0  0  0  0  0  0  0  0
    9.4200   -0.0840   22.9530 N   0  0  0  0  0  0  0  0  0  0  0  0
    9.2624   -4.9028   25.8498 N   0  0  0  0  0  0  0  0  0  0  0  0
    9.1870    1.1500   21.0630 O   0  0  0  0  0  0  0  0  0  0  0  0
   14.5031   -1.0334   25.3114 Cl  0  0  0  0  0  0  0  0  0  0  0  0
    3.6260    2.0115   21.6299 H   0  0  0  0  0  0  0  0  0  0  0  0
    3.2721    2.7866   19.3205 H   0  0  0  0  0  0  0  0  0  0  0  0
   14.1289    2.5227   22.0237 H   0  0  0  0  0  0  0  0  0  0  0  0
    5.4862    0.4667   22.1694 H   0  0  0  0  0  0  0  0  0  0  0  0
   11.6588    2.5818   22.1218 H   0  0  0  0  0  0  0  0  0  0  0  0
    4.7828    2.0658   17.4849 H   0  0  0  0  0  0  0  0  0  0  0  0
    7.5947   -0.7787   24.7997 H   0  0  0  0  0  0  0  0  0  0  0  0
   11.0404   -2.1861   22.6352 H   0  0  0  0  0  0  0  0  0  0  0  0
    7.5641   -2.8632   26.1047 H   0  0  0  0  0  0  0  0  0  0  0  0
   11.0135   -4.2647   23.9425 H   0  0  0  0  0  0  0  0  0  0  0  0
   15.3941    0.9323   23.4255 H   0  0  0  0  0  0  0  0  0  0  0  0
   11.6954   -0.5682   25.0504 H   0  0  0  0  0  0  0  0  0  0  0  0
    8.5287   -1.0850   18.3402 H   0  0  0  0  0  0  0  0  0  0  0  0
    8.3983   -6.1037   27.3283 H   0  0  0  0  0  0  0  0  0  0  0  0
    8.3291   -4.3349   27.6329 H   0  0  0  0  0  0  0  0  0  0  0  0
    7.2528   -5.0769   26.4011 H   0  0  0  0  0  0  0  0  0  0  0  0
   10.0584   -6.7901   26.2740 H   0  0  0  0  0  0  0  0  0  0  0  0
   10.1594   -6.2785   24.5551 H   0  0  0  0  0  0  0  0  0  0  0  0
   11.2519   -5.5432   25.7767 H   0  0  0  0  0  0  0  0  0  0  0  0
    7.4884   -1.4160   21.8960 H   0  0  0  0  0  0  0  0  0  0  0  0
    8.7523   -1.7574   20.7004 H   0  0  0  0  0  0  0  0  0  0  0  0
    9.6778    1.0140   24.6966 H   0  0  0  0  0  0  0  0  0  0  0  0
    9.6316    1.9637   23.2107 H   0  0  0  0  0  0  0  0  0  0  0  0
    7.0329    0.4233   17.0175 H   0  0  0  0  0  0  0  0  0  0  0  0
  1  2  1  0  0  0  0
  1  4  2  0  0  0  0
  2  6  2  0  0  0  0
  3  5  2  0  0  0  0
  3 11  1  0  0  0  0
  4 14  1  0  0  0  0
  5 15  1  0  0  0  0
  6 17  1  0  0  0  0
  7  9  2  0  0  0  0
  7 18  1  0  0  0  0
  8 10  1  0  0  0  0
  8 18  2  0  0  0  0
  9 19  1  0  0  0  0
 10 19  2  0  0  0  0
 11 20  2  0  0  0  0
 12 15  2  0  0  0  0
 12 20  1  0  0  0  0
 13 16  2  0  0  0  0
 13 26  1  0  0  0  0
 14 16  1  0  0  0  0
 14 17  2  0  0  0  0
 15 25  1  0  0  0  0
 16 24  1  0  0  0  0
 17 26  1  0  0  0  0
 18 27  1  0  0  0  0
 19 28  1  0  0  0  0
 20 30  1  0  0  0  0
 21 24  1  0  0  0  0
 21 27  1  0  0  0  0
 21 29  2  0  0  0  0
 22 28  1  0  0  0  0
 23 28  1  0  0  0  0
 25 27  1  0  0  0  0
  1 31  1  0  0  0  0
  2 32  1  0  0  0  0
  3 33  1  0  0  0  0
  4 34  1  0  0  0  0
  5 35  1  0  0  0  0
  6 36  1  0  0  0  0
  7 37  1  0  0  0  0
  8 38  1  0  0  0  0
  9 39  1  0  0  0  0
 10 40  1  0  0  0  0
 11 41  1  0  0  0  0
 12 42  1  0  0  0  0
 13 43  1  0  0  0  0
 22 44  1  0  0  0  0
 22 45  1  0  0  0  0
 22 46  1  0  0  0  0
 23 47  1  0  0  0  0
 23 48  1  0  0  0  0
 23 49  1  0  0  0  0
 24 50  1  0  0  0  0
 24 51  1  0  0  0  0
 25 52  1  0  0  0  0
 25 53  1  0  0  0  0
 26 54  1  0  0  0  0
M  END
> <clash_score>
0.7662444784478902

> <docking_score>
-8.08665657043457

> <overlap_score>
1.0082918405532837

$$$$
BENZO_451_1
  -OEChem-08222022423D

 54 57  0     0  0  0  0  0  0999 V2000
    4.2970    1.6690   20.8430 C   0  0  0  0  0  0  0  0  0  0  0  0
    4.0980    2.1130   19.5350 C   0  0  0  0  0  0  0  0  0  0  0  0
    5.3360    0.8000   21.1530 C   0  0  0  0  0  0  0  0  0  0  0  0
    4.9400    1.7060   18.5060 C   0  0  0  0  0  0  0  0  0  0  0  0
    8.3510   -1.5420   24.6110 C   0  0  0  0  0  0  0  0  0  0  0  0
   10.2760   -2.3270   23.4020 C   0  0  0  0  0  0  0  0  0  0  0  0
    8.3310   -2.7170   25.3430 C   0  0  0  0  0  0  0  0  0  0  0  0
   10.2570   -3.5000   24.1350 C   0  0  0  0  0  0  0  0  0  0  0  0
   12.4358    1.7439   24.3724 C   0  0  0  0  0  0  0  0  0  0  0  0
    7.6830   -0.5170   18.7600 C   0  0  0  0  0  0  0  0  0  0  0  0
   12.3100    0.2469   22.7668 C   0  0  0  0  0  0  0  0  0  0  0  0
    6.1600    0.3870   20.1140 C   0  0  0  0  0  0  0  0  0  0  0  0
   11.5217    1.0079   23.5949 C   0  0  0  0  0  0  0  0  0  0  0  0
    7.2210   -0.4620   20.0350 C   0  0  0  0  0  0  0  0  0  0  0  0
    5.9810    0.8330   18.8060 C   0  0  0  0  0  0  0  0  0  0  0  0
    9.3300   -1.3350   23.6390 C   0  0  0  0  0  0  0  0  0  0  0  0
    9.2850   -3.7090   25.1090 C   0  0  0  0  0  0  0  0  0  0  0  0
    8.9510    0.1280   21.6880 C   0  0  0  0  0  0  0  0  0  0  0  0
   14.7884    0.0124   22.4815 C   0  0  0  0  0  0  0  0  0  0  0  0
    8.2497   -5.1176   26.8641 C   0  0  0  0  0  0  0  0  0  0  0  0
   10.2420   -5.9412   25.5988 C   0  0  0  0  0  0  0  0  0  0  0  0
    8.0810   -0.9750   21.0820 C   0  0  0  0  0  0  0  0  0  0  0  0
   10.0220    1.0430   23.6570 C   0  0  0  0  0  0  0  0  0  0  0  0
   13.7076    1.4745   24.0657 N   0  0  0  0  0  0  0  0  0  0  0  0
    6.9440    0.2550   18.0100 N   0  0  0  0  0  0  0  0  0  0  0  0
   13.5982    0.5607   23.0864 N   0  0  0  0  0  0  0  0  0  0  0  0
    9.4200   -0.0840   22.9530 N   0  0  0  0  0  0  0  0  0  0  0  0
    9.2624   -4.9028   25.8498 N   0  0  0  0  0  0  0  0  0  0  0  0
    9.1870    1.1500   21.0630 O   0  0  0  0  0  0  0  0  0  0  0  0
    3.6260    2.0115   21.6299 H   0  0  0  0  0  0  0  0  0  0  0  0
    3.2721    2.7866   19.3205 H   0  0  0  0  0  0  0  0  0  0  0  0
    5.4862    0.4667   22.1694 H   0  0  0  0  0  0  0  0  0  0  0  0
    4.7828    2.0658   17.4849 H   0  0  0  0  0  0  0  0  0  0  0  0
    7.5947   -0.7787   24.7997 H   0  0  0  0  0  0  0  0  0  0  0  0
   11.0404   -2.1861   22.6352 H   0  0  0  0  0  0  0  0  0  0  0  0
    7.5641   -2.8632   26.1047 H   0  0  0  0  0  0  0  0  0  0  0  0
   11.0135   -4.2647   23.9425 H   0  0  0  0  0  0  0  0  0  0  0  0
   12.2308    2.4652   25.1508 H   0  0  0  0  0  0  0  0  0  0  0  0
    8.5287   -1.0850   18.3402 H   0  0  0  0  0  0  0  0  0  0  0  0
   12.0700   -0.4744   21.9974 H   0  0  0  0  0  0  0  0  0  0  0  0
   15.0569    0.6453   21.6315 H   0  0  0  0  0  0  0  0  0  0  0  0
   15.5971   -0.0026   23.2174 H   0  0  0  0  0  0  0  0  0  0  0  0
   14.5870   -1.0100   22.1498 H   0  0  0  0  0  0  0  0  0  0  0  0
    8.3983   -6.1037   27.3283 H   0  0  0  0  0  0  0  0  0  0  0  0
    8.3291   -4.3349   27.6329 H   0  0  0  0  0  0  0  0  0  0  0  0
    7.2528   -5.0769   26.4011 H   0  0  0  0  0  0  0  0  0  0  0  0
   10.0584   -6.7901   26.2740 H   0  0  0  0  0  0  0  0  0  0  0  0
   10.1594   -6.2785   24.5551 H   0  0  0  0  0  0  0  0  0  0  0  0
   11.2519   -5.5432   25.7767 H   0  0  0  0  0  0  0  0  0  0  0  0
    7.4884   -1.4160   21.8960 H   0  0  0  0  0  0  0  0  0  0  0  0
    8.7523   -1.7574   20.7004 H   0  0  0  0  0  0  0  0  0  0  0  0
    9.6778    1.0140   24.6966 H   0  0  0  0  0  0  0  0  0  0  0  0
    9.6316    1.9637   23.2107 H   0  0  0  0  0  0  0  0  0  0  0  0
    7.0329    0.4233   17.0175 H   0  0  0  0  0  0  0  0  0  0  0  0
  1  2  1  0  0  0  0
  1  3  2  0  0  0  0
  2  4  2  0  0  0  0
  3 12  1  0  0  0  0
  4 15  1  0  0  0  0
  5  7  2  0  0  0  0
  5 16  1  0  0  0  0
  6  8  1  0  0  0  0
  6 16  2  0  0  0  0
  7 17  1  0  0  0  0
  8 17  2  0  0  0  0
  9 13  1  0  0  0  0
  9 24  2  0  0  0  0
 10 14  2  0  0  0  0
 10 25  1  0  0  0  0
 11 13  2  0  0  0  0
 11 26  1  0  0  0  0
 12 14  1  0  0  0  0
 12 15  2  0  0  0  0
 13 23  1  0  0  0  0
 14 22  1  0  0  0  0
 15 25  1  0  0  0  0
 16 27  1  0  0  0  0
 17 28  1  0  0  0  0
 18 22  1  0  0  0  0
 18 27  1  0  0  0  0
 18 29  2  0  0  0  0
 19 26  1  0  0  0  0
 20 28  1  0  0  0  0
 21 28  1  0  0  0  0
 23 27  1  0  0  0  0
 24 26  1  0  0  0  0
  1 30  1  0  0  0  0
  2 31  1  0  0  0  0
  3 32  1  0  0  0  0
  4 33  1  0  0  0  0
  5 34  1  0  0  0  0
  6 35  1  0  0  0  0
  7 36  1  0  0  0  0
  8 37  1  0  0  0  0
  9 38  1  0  0  0  0
 10 39  1  0  0  0  0
 11 40  1  0  0  0  0
 19 41  1  0  0  0  0
 19 42  1  0  0  0  0
 19 43  1  0  0  0  0
 20 44  1  0  0  0  0
 20 45  1  0  0  0  0
 20 46  1  0  0  0  0
 21 47  1  0  0  0  0
 21 48  1  0  0  0  0
 21 49  1  0  0  0  0
 22 50  1  0  0  0  0
 22 51  1  0  0  0  0
 23 52  1  0  0  0  0
 23 53  1  0  0  0  0
 25 54  1  0  0  0  0
M  END
> <clash_score>
0

> <docking_score>
-9.11937141418457

> <overlap_score>
0.9891872406005859

$$$$
BENZO_453_1
  -OEChem-08222022423D

 56 59  0     0  0  0  0  0  0999 V2000
   14.3082    0.9431   23.4783 C   0  0  0  0  0  0  0  0  0  0  0  0
    4.2970    1.6690   20.8430 C   0  0  0  0  0  0  0  0  0  0  0  0
   13.6391    0.3091   24.5251 C   0  0  0  0  0  0  0  0  0  0  0  0
   13.5841    1.6096   22.4898 C   0  0  0  0  0  0  0  0  0  0  0  0
    4.0980    2.1130   19.5350 C   0  0  0  0  0  0  0  0  0  0  0  0
    5.3360    0.8000   21.1530 C   0  0  0  0  0  0  0  0  0  0  0  0
   12.2459    0.3415   24.5835 C   0  0  0  0  0  0  0  0  0  0  0  0
   12.1908    1.6420   22.5481 C   0  0  0  0  0  0  0  0  0  0  0  0
    4.9400    1.7060   18.5060 C   0  0  0  0  0  0  0  0  0  0  0  0
    8.3310   -2.7170   25.3430 C   0  0  0  0  0  0  0  0  0  0  0  0
   10.2570   -3.5000   24.1350 C   0  0  0  0  0  0  0  0  0  0  0  0
    8.3510   -1.5420   24.6110 C   0  0  0  0  0  0  0  0  0  0  0  0
   10.2760   -2.3270   23.4020 C   0  0  0  0  0  0  0  0  0  0  0  0
    7.6830   -0.5170   18.7600 C   0  0  0  0  0  0  0  0  0  0  0  0
    6.1600    0.3870   20.1140 C   0  0  0  0  0  0  0  0  0  0  0  0
   11.5217    1.0079   23.5949 C   0  0  0  0  0  0  0  0  0  0  0  0
    7.2210   -0.4620   20.0350 C   0  0  0  0  0  0  0  0  0  0  0  0
    5.9810    0.8330   18.8060 C   0  0  0  0  0  0  0  0  0  0  0  0
    9.2850   -3.7090   25.1090 C   0  0  0  0  0  0  0  0  0  0  0  0
    9.3300   -1.3350   23.6390 C   0  0  0  0  0  0  0  0  0  0  0  0
    8.9510    0.1280   21.6880 C   0  0  0  0  0  0  0  0  0  0  0  0
    9.6844   -6.1680   25.4389 C   0  0  0  0  0  0  0  0  0  0  0  0
    8.0402   -7.2914   27.0010 C   0  0  0  0  0  0  0  0  0  0  0  0
    8.0810   -0.9750   21.0820 C   0  0  0  0  0  0  0  0  0  0  0  0
   10.0220    1.0430   23.6570 C   0  0  0  0  0  0  0  0  0  0  0  0
    9.4864   -7.1875   26.5507 C   0  0  0  0  0  0  0  0  0  0  0  0
    6.9440    0.2550   18.0100 N   0  0  0  0  0  0  0  0  0  0  0  0
    9.2630   -4.8902   25.8410 N   0  0  0  0  0  0  0  0  0  0  0  0
    9.4200   -0.0840   22.9530 N   0  0  0  0  0  0  0  0  0  0  0  0
    9.1870    1.1500   21.0630 O   0  0  0  0  0  0  0  0  0  0  0  0
   10.1567   -6.4768   24.3498 O   0  0  0  0  0  0  0  0  0  0  0  0
   15.3932    0.9189   23.4337 H   0  0  0  0  0  0  0  0  0  0  0  0
    3.6260    2.0115   21.6299 H   0  0  0  0  0  0  0  0  0  0  0  0
   14.2029   -0.2090   25.2955 H   0  0  0  0  0  0  0  0  0  0  0  0
   14.1048    2.1043   21.6752 H   0  0  0  0  0  0  0  0  0  0  0  0
    3.2721    2.7866   19.3205 H   0  0  0  0  0  0  0  0  0  0  0  0
    5.4862    0.4667   22.1694 H   0  0  0  0  0  0  0  0  0  0  0  0
   11.7330   -0.1555   25.4027 H   0  0  0  0  0  0  0  0  0  0  0  0
   11.6349    2.1636   21.7735 H   0  0  0  0  0  0  0  0  0  0  0  0
    4.7828    2.0658   17.4849 H   0  0  0  0  0  0  0  0  0  0  0  0
    7.5639   -2.8621   26.1045 H   0  0  0  0  0  0  0  0  0  0  0  0
   11.0141   -4.2644   23.9422 H   0  0  0  0  0  0  0  0  0  0  0  0
    7.5950   -0.7788   24.8007 H   0  0  0  0  0  0  0  0  0  0  0  0
   11.0408   -2.1861   22.6359 H   0  0  0  0  0  0  0  0  0  0  0  0
    8.5287   -1.0850   18.3402 H   0  0  0  0  0  0  0  0  0  0  0  0
    7.6718   -6.3271   27.3662 H   0  0  0  0  0  0  0  0  0  0  0  0
    7.9444   -8.0225   27.8096 H   0  0  0  0  0  0  0  0  0  0  0  0
    7.3933   -7.6072   26.1759 H   0  0  0  0  0  0  0  0  0  0  0  0
    7.4884   -1.4160   21.8960 H   0  0  0  0  0  0  0  0  0  0  0  0
    8.7523   -1.7574   20.7004 H   0  0  0  0  0  0  0  0  0  0  0  0
    9.6778    1.0140   24.6966 H   0  0  0  0  0  0  0  0  0  0  0  0
    9.6316    1.9637   23.2107 H   0  0  0  0  0  0  0  0  0  0  0  0
    9.8282   -8.1648   26.1910 H   0  0  0  0  0  0  0  0  0  0  0  0
   10.1145   -6.9002   27.4018 H   0  0  0  0  0  0  0  0  0  0  0  0
    7.0329    0.4233   17.0175 H   0  0  0  0  0  0  0  0  0  0  0  0
    8.8930   -4.8275   26.7966 H   0  0  0  0  0  0  0  0  0  0  0  0
  1  3  1  0  0  0  0
  1  4  2  0  0  0  0
  2  5  1  0  0  0  0
  2  6  2  0  0  0  0
  3  7  2  0  0  0  0
  4  8  1  0  0  0  0
  5  9  2  0  0  0  0
  6 15  1  0  0  0  0
  7 16  1  0  0  0  0
  8 16  2  0  0  0  0
  9 18  1  0  0  0  0
 10 12  2  0  0  0  0
 10 19  1  0  0  0  0
 11 13  1  0  0  0  0
 11 19  2  0  0  0  0
 12 20  1  0  0  0  0
 13 20  2  0  0  0  0
 14 17  2  0  0  0  0
 14 27  1  0  0  0  0
 15 17  1  0  0  0  0
 15 18  2  0  0  0  0
 16 25  1  0  0  0  0
 17 24  1  0  0  0  0
 18 27  1  0  0  0  0
 19 28  1  0  0  0  0
 20 29  1  0  0  0  0
 21 24  1  0  0  0  0
 21 29  1  0  0  0  0
 21 30  2  0  0  0  0
 22 26  1  0  0  0  0
 22 28  1  0  0  0  0
 22 31  2  0  0  0  0
 23 26  1  0  0  0  0
 25 29  1  0  0  0  0
  1 32  1  0  0  0  0
  2 33  1  0  0  0  0
  3 34  1  0  0  0  0
  4 35  1  0  0  0  0
  5 36  1  0  0  0  0
  6 37  1  0  0  0  0
  7 38  1  0  0  0  0
  8 39  1  0  0  0  0
  9 40  1  0  0  0  0
 10 41  1  0  0  0  0
 11 42  1  0  0  0  0
 12 43  1  0  0  0  0
 13 44  1  0  0  0  0
 14 45  1  0  0  0  0
 23 46  1  0  0  0  0
 23 47  1  0  0  0  0
 23 48  1  0  0  0  0
 24 49  1  0  0  0  0
 24 50  1  0  0  0  0
 25 51  1  0  0  0  0
 25 52  1  0  0  0  0
 26 53  1  0  0  0  0
 26 54  1  0  0  0  0
 27 55  1  0  0  0  0
 28 56  1  0  0  0  0
M  END
> <clash_score>
1.3337609790916258

> <docking_score>
-5.384237289428711

> <overlap_score>
0.9871407151222229

$$$$
BENZO_452_1
  -OEChem-08222022423D

 53 56  0     0  0  0  0  0  0999 V2000
    4.2970    1.6690   20.8430 C   0  0  0  0  0  0  0  0  0  0  0  0
    4.0980    2.1130   19.5350 C   0  0  0  0  0  0  0  0  0  0  0  0
    5.3360    0.8000   21.1530 C   0  0  0  0  0  0  0  0  0  0  0  0
    4.9400    1.7060   18.5060 C   0  0  0  0  0  0  0  0  0  0  0  0
    8.3310   -2.7170   25.3430 C   0  0  0  0  0  0  0  0  0  0  0  0
   10.2570   -3.5000   24.1350 C   0  0  0  0  0  0  0  0  0  0  0  0
    8.3510   -1.5420   24.6110 C   0  0  0  0  0  0  0  0  0  0  0  0
   10.2760   -2.3270   23.4020 C   0  0  0  0  0  0  0  0  0  0  0  0
   12.2675    1.0332   22.3812 C   0  0  0  0  0  0  0  0  0  0  0  0
    7.6830   -0.5170   18.7600 C   0  0  0  0  0  0  0  0  0  0  0  0
   13.6257    0.9906   22.6074 C   0  0  0  0  0  0  0  0  0  0  0  0
   12.3384    0.9467   24.7028 C   0  0  0  0  0  0  0  0  0  0  0  0
    6.1600    0.3870   20.1140 C   0  0  0  0  0  0  0  0  0  0  0  0
   11.5217    1.0079   23.5949 C   0  0  0  0  0  0  0  0  0  0  0  0
    7.2210   -0.4620   20.0350 C   0  0  0  0  0  0  0  0  0  0  0  0
    5.9810    0.8330   18.8060 C   0  0  0  0  0  0  0  0  0  0  0  0
    9.2850   -3.7090   25.1090 C   0  0  0  0  0  0  0  0  0  0  0  0
    9.3300   -1.3350   23.6390 C   0  0  0  0  0  0  0  0  0  0  0  0
    8.9510    0.1280   21.6880 C   0  0  0  0  0  0  0  0  0  0  0  0
    9.6844   -6.1680   25.4389 C   0  0  0  0  0  0  0  0  0  0  0  0
    8.0402   -7.2914   27.0010 C   0  0  0  0  0  0  0  0  0  0  0  0
    8.0810   -0.9750   21.0820 C   0  0  0  0  0  0  0  0  0  0  0  0
   10.0220    1.0430   23.6570 C   0  0  0  0  0  0  0  0  0  0  0  0
    9.4864   -7.1875   26.5507 C   0  0  0  0  0  0  0  0  0  0  0  0
    6.9440    0.2550   18.0100 N   0  0  0  0  0  0  0  0  0  0  0  0
    9.2630   -4.8902   25.8410 N   0  0  0  0  0  0  0  0  0  0  0  0
    9.4200   -0.0840   22.9530 N   0  0  0  0  0  0  0  0  0  0  0  0
    9.1870    1.1500   21.0630 O   0  0  0  0  0  0  0  0  0  0  0  0
   10.1567   -6.4768   24.3498 O   0  0  0  0  0  0  0  0  0  0  0  0
   13.9969    0.9203   24.2776 S   0  0  0  0  0  0  0  0  0  0  0  0
    3.6260    2.0115   21.6299 H   0  0  0  0  0  0  0  0  0  0  0  0
    3.2721    2.7866   19.3205 H   0  0  0  0  0  0  0  0  0  0  0  0
    5.4862    0.4667   22.1694 H   0  0  0  0  0  0  0  0  0  0  0  0
    4.7828    2.0658   17.4849 H   0  0  0  0  0  0  0  0  0  0  0  0
    7.5639   -2.8621   26.1045 H   0  0  0  0  0  0  0  0  0  0  0  0
   11.0141   -4.2644   23.9422 H   0  0  0  0  0  0  0  0  0  0  0  0
    7.5950   -0.7788   24.8007 H   0  0  0  0  0  0  0  0  0  0  0  0
   11.0408   -2.1861   22.6359 H   0  0  0  0  0  0  0  0  0  0  0  0
   11.8338    1.0798   21.3902 H   0  0  0  0  0  0  0  0  0  0  0  0
    8.5287   -1.0850   18.3402 H   0  0  0  0  0  0  0  0  0  0  0  0
   14.4176    0.9966   21.8719 H   0  0  0  0  0  0  0  0  0  0  0  0
   12.0446    0.9149   25.7428 H   0  0  0  0  0  0  0  0  0  0  0  0
    7.6718   -6.3271   27.3662 H   0  0  0  0  0  0  0  0  0  0  0  0
    7.9444   -8.0225   27.8096 H   0  0  0  0  0  0  0  0  0  0  0  0
    7.3933   -7.6072   26.1759 H   0  0  0  0  0  0  0  0  0  0  0  0
    7.4884   -1.4160   21.8960 H   0  0  0  0  0  0  0  0  0  0  0  0
    8.7523   -1.7574   20.7004 H   0  0  0  0  0  0  0  0  0  0  0  0
    9.6778    1.0140   24.6966 H   0  0  0  0  0  0  0  0  0  0  0  0
    9.6316    1.9637   23.2107 H   0  0  0  0  0  0  0  0  0  0  0  0
    9.8282   -8.1648   26.1910 H   0  0  0  0  0  0  0  0  0  0  0  0
   10.1145   -6.9002   27.4018 H   0  0  0  0  0  0  0  0  0  0  0  0
    7.0329    0.4233   17.0175 H   0  0  0  0  0  0  0  0  0  0  0  0
    8.8930   -4.8275   26.7966 H   0  0  0  0  0  0  0  0  0  0  0  0
  1  2  1  0  0  0  0
  1  3  2  0  0  0  0
  2  4  2  0  0  0  0
  3 13  1  0  0  0  0
  4 16  1  0  0  0  0
  5  7  2  0  0  0  0
  5 17  1  0  0  0  0
  6  8  1  0  0  0  0
  6 17  2  0  0  0  0
  7 18  1  0  0  0  0
  8 18  2  0  0  0  0
  9 11  2  0  0  0  0
  9 14  1  0  0  0  0
 10 15  2  0  0  0  0
 10 25  1  0  0  0  0
 11 30  1  0  0  0  0
 12 14  2  0  0  0  0
 12 30  1  0  0  0  0
 13 15  1  0  0  0  0
 13 16  2  0  0  0  0
 14 23  1  0  0  0  0
 15 22  1  0  0  0  0
 16 25  1  0  0  0  0
 17 26  1  0  0  0  0
 18 27  1  0  0  0  0
 19 22  1  0  0  0  0
 19 27  1  0  0  0  0
 19 28  2  0  0  0  0
 20 24  1  0  0  0  0
 20 26  1  0  0  0  0
 20 29  2  0  0  0  0
 21 24  1  0  0  0  0
 23 27  1  0  0  0  0
  1 31  1  0  0  0  0
  2 32  1  0  0  0  0
  3 33  1  0  0  0  0
  4 34  1  0  0  0  0
  5 35  1  0  0  0  0
  6 36  1  0  0  0  0
  7 37  1  0  0  0  0
  8 38  1  0  0  0  0
  9 39  1  0  0  0  0
 10 40  1  0  0  0  0
 11 41  1  0  0  0  0
 12 42  1  0  0  0  0
 21 43  1  0  0  0  0
 21 44  1  0  0  0  0
 21 45  1  0  0  0  0
 22 46  1  0  0  0  0
 22 47  1  0  0  0  0
 23 48  1  0  0  0  0
 23 49  1  0  0  0  0
 24 50  1  0  0  0  0
 24 51  1  0  0  0  0
 25 52  1  0  0  0  0
 26 53  1  0  0  0  0
M  END
> <clash_score>
1.3337609790916258

> <docking_score>
-5.630436897277832

> <overlap_score>
0.9613679051399231

$$$$
BENZO_457_1
  -OEChem-08222022423D

 61 65  0     0  0  0  0  0  0999 V2000
   14.3082    0.9431   23.4783 C   0  0  0  0  0  0  0  0  0  0  0  0
    4.2970    1.6690   20.8430 C   0  0  0  0  0  0  0  0  0  0  0  0
   13.6391    0.3091   24.5251 C   0  0  0  0  0  0  0  0  0  0  0  0
   13.5841    1.6096   22.4898 C   0  0  0  0  0  0  0  0  0  0  0  0
    4.0980    2.1130   19.5350 C   0  0  0  0  0  0  0  0  0  0  0  0
    5.3360    0.8000   21.1530 C   0  0  0  0  0  0  0  0  0  0  0  0
   12.2459    0.3415   24.5835 C   0  0  0  0  0  0  0  0  0  0  0  0
   12.1908    1.6420   22.5481 C   0  0  0  0  0  0  0  0  0  0  0  0
    4.9400    1.7060   18.5060 C   0  0  0  0  0  0  0  0  0  0  0  0
    8.3310   -2.7170   25.3430 C   0  0  0  0  0  0  0  0  0  0  0  0
   10.2570   -3.5000   24.1350 C   0  0  0  0  0  0  0  0  0  0  0  0
    8.3510   -1.5420   24.6110 C   0  0  0  0  0  0  0  0  0  0  0  0
   10.2760   -2.3270   23.4020 C   0  0  0  0  0  0  0  0  0  0  0  0
    7.6830   -0.5170   18.7600 C   0  0  0  0  0  0  0  0  0  0  0  0
    6.1600    0.3870   20.1140 C   0  0  0  0  0  0  0  0  0  0  0  0
   11.5217    1.0079   23.5949 C   0  0  0  0  0  0  0  0  0  0  0  0
    7.2210   -0.4620   20.0350 C   0  0  0  0  0  0  0  0  0  0  0  0
    5.9810    0.8330   18.8060 C   0  0  0  0  0  0  0  0  0  0  0  0
    9.2850   -3.7090   25.1090 C   0  0  0  0  0  0  0  0  0  0  0  0
    9.3300   -1.3350   23.6390 C   0  0  0  0  0  0  0  0  0  0  0  0
    8.9510    0.1280   21.6880 C   0  0  0  0  0  0  0  0  0  0  0  0
    7.3162   -6.8835   26.5210 C   0  0  0  0  0  0  0  0  0  0  0  0
    7.3507   -5.5245   27.2240 C   0  0  0  0  0  0  0  0  0  0  0  0
    7.9375   -6.8069   25.1245 C   0  0  0  0  0  0  0  0  0  0  0  0
    8.7638   -4.9418   27.2163 C   0  0  0  0  0  0  0  0  0  0  0  0
    9.3378   -6.1874   25.1659 C   0  0  0  0  0  0  0  0  0  0  0  0
    8.0810   -0.9750   21.0820 C   0  0  0  0  0  0  0  0  0  0  0  0
   10.0220    1.0430   23.6570 C   0  0  0  0  0  0  0  0  0  0  0  0
    6.9440    0.2550   18.0100 N   0  0  0  0  0  0  0  0  0  0  0  0
    9.2639   -4.8860   25.8399 N   0  0  0  0  0  0  0  0  0  0  0  0
    9.4200   -0.0840   22.9530 N   0  0  0  0  0  0  0  0  0  0  0  0
    9.1870    1.1500   21.0630 O   0  0  0  0  0  0  0  0  0  0  0  0
   15.3932    0.9189   23.4337 H   0  0  0  0  0  0  0  0  0  0  0  0
    3.6260    2.0115   21.6299 H   0  0  0  0  0  0  0  0  0  0  0  0
   14.2029   -0.2090   25.2955 H   0  0  0  0  0  0  0  0  0  0  0  0
   14.1048    2.1043   21.6752 H   0  0  0  0  0  0  0  0  0  0  0  0
    3.2721    2.7866   19.3205 H   0  0  0  0  0  0  0  0  0  0  0  0
    5.4862    0.4667   22.1694 H   0  0  0  0  0  0  0  0  0  0  0  0
   11.7330   -0.1555   25.4027 H   0  0  0  0  0  0  0  0  0  0  0  0
   11.6349    2.1636   21.7735 H   0  0  0  0  0  0  0  0  0  0  0  0
    4.7828    2.0658   17.4849 H   0  0  0  0  0  0  0  0  0  0  0  0
    7.5647   -2.8621   26.1053 H   0  0  0  0  0  0  0  0  0  0  0  0
   11.0144   -4.2642   23.9425 H   0  0  0  0  0  0  0  0  0  0  0  0
    7.5958   -0.7779   24.8006 H   0  0  0  0  0  0  0  0  0  0  0  0
   11.0406   -2.1848   22.6356 H   0  0  0  0  0  0  0  0  0  0  0  0
    8.5287   -1.0850   18.3402 H   0  0  0  0  0  0  0  0  0  0  0  0
    7.8578   -7.6261   27.1266 H   0  0  0  0  0  0  0  0  0  0  0  0
    6.2773   -7.2358   26.4459 H   0  0  0  0  0  0  0  0  0  0  0  0
    6.6663   -4.8351   26.7223 H   0  0  0  0  0  0  0  0  0  0  0  0
    7.0044   -5.6368   28.2534 H   0  0  0  0  0  0  0  0  0  0  0  0
    7.9946   -7.8119   24.6937 H   0  0  0  0  0  0  0  0  0  0  0  0
    7.2929   -6.2123   24.4668 H   0  0  0  0  0  0  0  0  0  0  0  0
    8.7343   -3.9408   27.6542 H   0  0  0  0  0  0  0  0  0  0  0  0
    9.4243   -5.5632   27.8278 H   0  0  0  0  0  0  0  0  0  0  0  0
   10.0200   -6.8490   25.7011 H   0  0  0  0  0  0  0  0  0  0  0  0
    9.6984   -6.0694   24.1436 H   0  0  0  0  0  0  0  0  0  0  0  0
    7.4781   -1.4136   21.8845 H   0  0  0  0  0  0  0  0  0  0  0  0
    8.7420   -1.7550   20.6889 H   0  0  0  0  0  0  0  0  0  0  0  0
    9.6778    1.0140   24.6966 H   0  0  0  0  0  0  0  0  0  0  0  0
    9.6316    1.9637   23.2107 H   0  0  0  0  0  0  0  0  0  0  0  0
    7.0329    0.4233   17.0175 H   0  0  0  0  0  0  0  0  0  0  0  0
  1  3  1  0  0  0  0
  1  4  2  0  0  0  0
  2  5  1  0  0  0  0
  2  6  2  0  0  0  0
  3  7  2  0  0  0  0
  4  8  1  0  0  0  0
  5  9  2  0  0  0  0
  6 15  1  0  0  0  0
  7 16  1  0  0  0  0
  8 16  2  0  0  0  0
  9 18  1  0  0  0  0
 10 12  2  0  0  0  0
 10 19  1  0  0  0  0
 11 13  1  0  0  0  0
 11 19  2  0  0  0  0
 12 20  1  0  0  0  0
 13 20  2  0  0  0  0
 14 17  2  0  0  0  0
 14 29  1  0  0  0  0
 15 17  1  0  0  0  0
 15 18  2  0  0  0  0
 16 28  1  0  0  0  0
 17 27  1  0  0  0  0
 18 29  1  0  0  0  0
 19 30  1  0  0  0  0
 20 31  1  0  0  0  0
 21 27  1  0  0  0  0
 21 31  1  0  0  0  0
 21 32  2  0  0  0  0
 22 23  1  0  0  0  0
 22 24  1  0  0  0  0
 23 25  1  0  0  0  0
 24 26  1  0  0  0  0
 25 30  1  0  0  0  0
 26 30  1  0  0  0  0
 28 31  1  0  0  0  0
  1 33  1  0  0  0  0
  2 34  1  0  0  0  0
  3 35  1  0  0  0  0
  4 36  1  0  0  0  0
  5 37  1  0  0  0  0
  6 38  1  0  0  0  0
  7 39  1  0  0  0  0
  8 40  1  0  0  0  0
  9 41  1  0  0  0  0
 10 42  1  0  0  0  0
 11 43  1  0  0  0  0
 12 44  1  0  0  0  0
 13 45  1  0  0  0  0
 14 46  1  0  0  0  0
 22 47  1  0  0  0  0
 22 48  1  0  0  0  0
 23 49  1  0  0  0  0
 23 50  1  0  0  0  0
 24 51  1  0  0  0  0
 24 52  1  0  0  0  0
 25 53  1  0  0  0  0
 25 54  1  0  0  0  0
 26 55  1  0  0  0  0
 26 56  1  0  0  0  0
 27 57  1  0  0  0  0
 27 58  1  0  0  0  0
 28 59  1  0  0  0  0
 28 60  1  0  0  0  0
 29 61  1  0  0  0  0
M  END
> <clash_score>
0

> <docking_score>
-7.616530418395996

> <overlap_score>
1.015582799911499

$$$$
BENZO_454_1
  -OEChem-08222022423D

 56 59  0     0  0  0  0  0  0999 V2000
    4.2970    1.6690   20.8430 C   0  0  0  0  0  0  0  0  0  0  0  0
    4.0980    2.1130   19.5350 C   0  0  0  0  0  0  0  0  0  0  0  0
   13.5977    1.8457   22.6865 C   0  0  0  0  0  0  0  0  0  0  0  0
    5.3360    0.8000   21.1530 C   0  0  0  0  0  0  0  0  0  0  0  0
   12.2044    1.8769   22.7438 C   0  0  0  0  0  0  0  0  0  0  0  0
    4.9400    1.7060   18.5060 C   0  0  0  0  0  0  0  0  0  0  0  0
    8.3310   -2.7170   25.3430 C   0  0  0  0  0  0  0  0  0  0  0  0
   10.2570   -3.5000   24.1350 C   0  0  0  0  0  0  0  0  0  0  0  0
    8.3510   -1.5420   24.6110 C   0  0  0  0  0  0  0  0  0  0  0  0
   10.2760   -2.3270   23.4020 C   0  0  0  0  0  0  0  0  0  0  0  0
   14.3084    0.9454   23.4803 C   0  0  0  0  0  0  0  0  0  0  0  0
   12.2323    0.1076   24.3888 C   0  0  0  0  0  0  0  0  0  0  0  0
    7.6830   -0.5170   18.7600 C   0  0  0  0  0  0  0  0  0  0  0  0
    6.1600    0.3870   20.1140 C   0  0  0  0  0  0  0  0  0  0  0  0
   11.5217    1.0079   23.5949 C   0  0  0  0  0  0  0  0  0  0  0  0
    7.2210   -0.4620   20.0350 C   0  0  0  0  0  0  0  0  0  0  0  0
    5.9810    0.8330   18.8060 C   0  0  0  0  0  0  0  0  0  0  0  0
    9.2850   -3.7090   25.1090 C   0  0  0  0  0  0  0  0  0  0  0  0
    9.3300   -1.3350   23.6390 C   0  0  0  0  0  0  0  0  0  0  0  0
   13.6257    0.0764   24.3314 C   0  0  0  0  0  0  0  0  0  0  0  0
    8.9510    0.1280   21.6880 C   0  0  0  0  0  0  0  0  0  0  0  0
    9.6844   -6.1680   25.4389 C   0  0  0  0  0  0  0  0  0  0  0  0
    8.0402   -7.2914   27.0010 C   0  0  0  0  0  0  0  0  0  0  0  0
    8.0810   -0.9750   21.0820 C   0  0  0  0  0  0  0  0  0  0  0  0
   10.0220    1.0430   23.6570 C   0  0  0  0  0  0  0  0  0  0  0  0
    9.4864   -7.1875   26.5507 C   0  0  0  0  0  0  0  0  0  0  0  0
    6.9440    0.2550   18.0100 N   0  0  0  0  0  0  0  0  0  0  0  0
    9.2630   -4.8902   25.8410 N   0  0  0  0  0  0  0  0  0  0  0  0
    9.4200   -0.0840   22.9530 N   0  0  0  0  0  0  0  0  0  0  0  0
    9.1870    1.1500   21.0630 O   0  0  0  0  0  0  0  0  0  0  0  0
   10.1567   -6.4768   24.3498 O   0  0  0  0  0  0  0  0  0  0  0  0
   14.5031   -1.0334   25.3114 Cl  0  0  0  0  0  0  0  0  0  0  0  0
    3.6260    2.0115   21.6299 H   0  0  0  0  0  0  0  0  0  0  0  0
    3.2721    2.7866   19.3205 H   0  0  0  0  0  0  0  0  0  0  0  0
   14.1289    2.5227   22.0237 H   0  0  0  0  0  0  0  0  0  0  0  0
    5.4862    0.4667   22.1694 H   0  0  0  0  0  0  0  0  0  0  0  0
   11.6588    2.5818   22.1218 H   0  0  0  0  0  0  0  0  0  0  0  0
    4.7828    2.0658   17.4849 H   0  0  0  0  0  0  0  0  0  0  0  0
    7.5639   -2.8621   26.1045 H   0  0  0  0  0  0  0  0  0  0  0  0
   11.0141   -4.2644   23.9422 H   0  0  0  0  0  0  0  0  0  0  0  0
    7.5950   -0.7788   24.8007 H   0  0  0  0  0  0  0  0  0  0  0  0
   11.0408   -2.1861   22.6359 H   0  0  0  0  0  0  0  0  0  0  0  0
   15.3941    0.9323   23.4255 H   0  0  0  0  0  0  0  0  0  0  0  0
   11.6954   -0.5682   25.0504 H   0  0  0  0  0  0  0  0  0  0  0  0
    8.5287   -1.0850   18.3402 H   0  0  0  0  0  0  0  0  0  0  0  0
    7.6718   -6.3271   27.3662 H   0  0  0  0  0  0  0  0  0  0  0  0
    7.9444   -8.0225   27.8096 H   0  0  0  0  0  0  0  0  0  0  0  0
    7.3933   -7.6072   26.1759 H   0  0  0  0  0  0  0  0  0  0  0  0
    7.4884   -1.4160   21.8960 H   0  0  0  0  0  0  0  0  0  0  0  0
    8.7523   -1.7574   20.7004 H   0  0  0  0  0  0  0  0  0  0  0  0
    9.6778    1.0140   24.6966 H   0  0  0  0  0  0  0  0  0  0  0  0
    9.6316    1.9637   23.2107 H   0  0  0  0  0  0  0  0  0  0  0  0
    9.8282   -8.1648   26.1910 H   0  0  0  0  0  0  0  0  0  0  0  0
   10.1145   -6.9002   27.4018 H   0  0  0  0  0  0  0  0  0  0  0  0
    7.0329    0.4233   17.0175 H   0  0  0  0  0  0  0  0  0  0  0  0
    8.8930   -4.8275   26.7966 H   0  0  0  0  0  0  0  0  0  0  0  0
  1  2  1  0  0  0  0
  1  4  2  0  0  0  0
  2  6  2  0  0  0  0
  3  5  2  0  0  0  0
  3 11  1  0  0  0  0
  4 14  1  0  0  0  0
  5 15  1  0  0  0  0
  6 17  1  0  0  0  0
  7  9  2  0  0  0  0
  7 18  1  0  0  0  0
  8 10  1  0  0  0  0
  8 18  2  0  0  0  0
  9 19  1  0  0  0  0
 10 19  2  0  0  0  0
 11 20  2  0  0  0  0
 12 15  2  0  0  0  0
 12 20  1  0  0  0  0
 13 16  2  0  0  0  0
 13 27  1  0  0  0  0
 14 16  1  0  0  0  0
 14 17  2  0  0  0  0
 15 25  1  0  0  0  0
 16 24  1  0  0  0  0
 17 27  1  0  0  0  0
 18 28  1  0  0  0  0
 19 29  1  0  0  0  0
 20 32  1  0  0  0  0
 21 24  1  0  0  0  0
 21 29  1  0  0  0  0
 21 30  2  0  0  0  0
 22 26  1  0  0  0  0
 22 28  1  0  0  0  0
 22 31  2  0  0  0  0
 23 26  1  0  0  0  0
 25 29  1  0  0  0  0
  1 33  1  0  0  0  0
  2 34  1  0  0  0  0
  3 35  1  0  0  0  0
  4 36  1  0  0  0  0
  5 37  1  0  0  0  0
  6 38  1  0  0  0  0
  7 39  1  0  0  0  0
  8 40  1  0  0  0  0
  9 41  1  0  0  0  0
 10 42  1  0  0  0  0
 11 43  1  0  0  0  0
 12 44  1  0  0  0  0
 13 45  1  0  0  0  0
 23 46  1  0  0  0  0
 23 47  1  0  0  0  0
 23 48  1  0  0  0  0
 24 49  1  0  0  0  0
 24 50  1  0  0  0  0
 25 51  1  0  0  0  0
 25 52  1  0  0  0  0
 26 53  1  0  0  0  0
 26 54  1  0  0  0  0
 27 55  1  0  0  0  0
 28 56  1  0  0  0  0
M  END
> <clash_score>
2.100005457539516

> <docking_score>
-4.566132545471191

> <overlap_score>
0.9923508167266846

$$$$
BENZO_456_1
  -OEChem-08222022423D

 58 62  0     0  0  0  0  0  0999 V2000
    4.2970    1.6690   20.8430 C   0  0  0  0  0  0  0  0  0  0  0  0
    4.0980    2.1130   19.5350 C   0  0  0  0  0  0  0  0  0  0  0  0
    5.3360    0.8000   21.1530 C   0  0  0  0  0  0  0  0  0  0  0  0
    4.9400    1.7060   18.5060 C   0  0  0  0  0  0  0  0  0  0  0  0
    8.3310   -2.7170   25.3430 C   0  0  0  0  0  0  0  0  0  0  0  0
   10.2570   -3.5000   24.1350 C   0  0  0  0  0  0  0  0  0  0  0  0
    8.3510   -1.5420   24.6110 C   0  0  0  0  0  0  0  0  0  0  0  0
   10.2760   -2.3270   23.4020 C   0  0  0  0  0  0  0  0  0  0  0  0
   12.2675    1.0332   22.3812 C   0  0  0  0  0  0  0  0  0  0  0  0
    7.6830   -0.5170   18.7600 C   0  0  0  0  0  0  0  0  0  0  0  0
   13.6257    0.9906   22.6074 C   0  0  0  0  0  0  0  0  0  0  0  0
   12.3384    0.9467   24.7028 C   0  0  0  0  0  0  0  0  0  0  0  0
    6.1600    0.3870   20.1140 C   0  0  0  0  0  0  0  0  0  0  0  0
   11.5217    1.0079   23.5949 C   0  0  0  0  0  0  0  0  0  0  0  0
    7.2210   -0.4620   20.0350 C   0  0  0  0  0  0  0  0  0  0  0  0
    5.9810    0.8330   18.8060 C   0  0  0  0  0  0  0  0  0  0  0  0
    9.2850   -3.7090   25.1090 C   0  0  0  0  0  0  0  0  0  0  0  0
    9.3300   -1.3350   23.6390 C   0  0  0  0  0  0  0  0  0  0  0  0
    8.9510    0.1280   21.6880 C   0  0  0  0  0  0  0  0  0  0  0  0
    7.3162   -6.8835   26.5210 C   0  0  0  0  0  0  0  0  0  0  0  0
    7.3507   -5.5245   27.2240 C   0  0  0  0  0  0  0  0  0  0  0  0
    7.9375   -6.8069   25.1245 C   0  0  0  0  0  0  0  0  0  0  0  0
    8.7638   -4.9418   27.2163 C   0  0  0  0  0  0  0  0  0  0  0  0
    9.3378   -6.1874   25.1659 C   0  0  0  0  0  0  0  0  0  0  0  0
    8.0810   -0.9750   21.0820 C   0  0  0  0  0  0  0  0  0  0  0  0
   10.0220    1.0430   23.6570 C   0  0  0  0  0  0  0  0  0  0  0  0
    6.9440    0.2550   18.0100 N   0  0  0  0  0  0  0  0  0  0  0  0
    9.2639   -4.8860   25.8399 N   0  0  0  0  0  0  0  0  0  0  0  0
    9.4200   -0.0840   22.9530 N   0  0  0  0  0  0  0  0  0  0  0  0
    9.1870    1.1500   21.0630 O   0  0  0  0  0  0  0  0  0  0  0  0
   13.9969    0.9203   24.2776 S   0  0  0  0  0  0  0  0  0  0  0  0
    3.6260    2.0115   21.6299 H   0  0  0  0  0  0  0  0  0  0  0  0
    3.2721    2.7866   19.3205 H   0  0  0  0  0  0  0  0  0  0  0  0
    5.4862    0.4667   22.1694 H   0  0  0  0  0  0  0  0  0  0  0  0
    4.7828    2.0658   17.4849 H   0  0  0  0  0  0  0  0  0  0  0  0
    7.5647   -2.8621   26.1053 H   0  0  0  0  0  0  0  0  0  0  0  0
   11.0144   -4.2642   23.9425 H   0  0  0  0  0  0  0  0  0  0  0  0
    7.5958   -0.7779   24.8006 H   0  0  0  0  0  0  0  0  0  0  0  0
   11.0406   -2.1848   22.6356 H   0  0  0  0  0  0  0  0  0  0  0  0
   11.8339    1.0799   21.3902 H   0  0  0  0  0  0  0  0  0  0  0  0
    8.5287   -1.0850   18.3402 H   0  0  0  0  0  0  0  0  0  0  0  0
   14.4176    0.9966   21.8719 H   0  0  0  0  0  0  0  0  0  0  0  0
   12.0446    0.9149   25.7428 H   0  0  0  0  0  0  0  0  0  0  0  0
    7.8578   -7.6261   27.1266 H   0  0  0  0  0  0  0  0  0  0  0  0
    6.2773   -7.2358   26.4459 H   0  0  0  0  0  0  0  0  0  0  0  0
    6.6663   -4.8351   26.7223 H   0  0  0  0  0  0  0  0  0  0  0  0
    7.0044   -5.6368   28.2534 H   0  0  0  0  0  0  0  0  0  0  0  0
    7.9946   -7.8119   24.6937 H   0  0  0  0  0  0  0  0  0  0  0  0
    7.2929   -6.2123   24.4668 H   0  0  0  0  0  0  0  0  0  0  0  0
    8.7343   -3.9408   27.6542 H   0  0  0  0  0  0  0  0  0  0  0  0
    9.4243   -5.5632   27.8278 H   0  0  0  0  0  0  0  0  0  0  0  0
   10.0200   -6.8490   25.7011 H   0  0  0  0  0  0  0  0  0  0  0  0
    9.6984   -6.0694   24.1436 H   0  0  0  0  0  0  0  0  0  0  0  0
    7.4781   -1.4136   21.8845 H   0  0  0  0  0  0  0  0  0  0  0  0
    8.7420   -1.7550   20.6889 H   0  0  0  0  0  0  0  0  0  0  0  0
    9.6778    1.0140   24.6966 H   0  0  0  0  0  0  0  0  0  0  0  0
    9.6316    1.9637   23.2107 H   0  0  0  0  0  0  0  0  0  0  0  0
    7.0329    0.4233   17.0175 H   0  0  0  0  0  0  0  0  0  0  0  0
  1  2  1  0  0  0  0
  1  3  2  0  0  0  0
  2  4  2  0  0  0  0
  3 13  1  0  0  0  0
  4 16  1  0  0  0  0
  5  7  2  0  0  0  0
  5 17  1  0  0  0  0
  6  8  1  0  0  0  0
  6 17  2  0  0  0  0
  7 18  1  0  0  0  0
  8 18  2  0  0  0  0
  9 11  2  0  0  0  0
  9 14  1  0  0  0  0
 10 15  2  0  0  0  0
 10 27  1  0  0  0  0
 11 31  1  0  0  0  0
 12 14  2  0  0  0  0
 12 31  1  0  0  0  0
 13 15  1  0  0  0  0
 13 16  2  0  0  0  0
 14 26  1  0  0  0  0
 15 25  1  0  0  0  0
 16 27  1  0  0  0  0
 17 28  1  0  0  0  0
 18 29  1  0  0  0  0
 19 25  1  0  0  0  0
 19 29  1  0  0  0  0
 19 30  2  0  0  0  0
 20 21  1  0  0  0  0
 20 22  1  0  0  0  0
 21 23  1  0  0  0  0
 22 24  1  0  0  0  0
 23 28  1  0  0  0  0
 24 28  1  0  0  0  0
 26 29  1  0  0  0  0
  1 32  1  0  0  0  0
  2 33  1  0  0  0  0
  3 34  1  0  0  0  0
  4 35  1  0  0  0  0
  5 36  1  0  0  0  0
  6 37  1  0  0  0  0
  7 38  1  0  0  0  0
  8 39  1  0  0  0  0
  9 40  1  0  0  0  0
 10 41  1  0  0  0  0
 11 42  1  0  0  0  0
 12 43  1  0  0  0  0
 20 44  1  0  0  0  0
 20 45  1  0  0  0  0
 21 46  1  0  0  0  0
 21 47  1  0  0  0  0
 22 48  1  0  0  0  0
 22 49  1  0  0  0  0
 23 50  1  0  0  0  0
 23 51  1  0  0  0  0
 24 52  1  0  0  0  0
 24 53  1  0  0  0  0
 25 54  1  0  0  0  0
 25 55  1  0  0  0  0
 26 56  1  0  0  0  0
 26 57  1  0  0  0  0
 27 58  1  0  0  0  0
M  END
> <clash_score>
0

> <docking_score>
-7.8627448081970215

> <overlap_score>
0.9899338483810425

$$$$
BENZO_455_1
  -OEChem-08222022423D

 56 59  0     0  0  0  0  0  0999 V2000
    4.2970    1.6690   20.8430 C   0  0  0  0  0  0  0  0  0  0  0  0
    4.0980    2.1130   19.5350 C   0  0  0  0  0  0  0  0  0  0  0  0
    5.3360    0.8000   21.1530 C   0  0  0  0  0  0  0  0  0  0  0  0
    4.9400    1.7060   18.5060 C   0  0  0  0  0  0  0  0  0  0  0  0
    8.3310   -2.7170   25.3430 C   0  0  0  0  0  0  0  0  0  0  0  0
   10.2570   -3.5000   24.1350 C   0  0  0  0  0  0  0  0  0  0  0  0
    8.3510   -1.5420   24.6110 C   0  0  0  0  0  0  0  0  0  0  0  0
   10.2760   -2.3270   23.4020 C   0  0  0  0  0  0  0  0  0  0  0  0
   12.4295    0.9466   24.6692 C   0  0  0  0  0  0  0  0  0  0  0  0
    7.6830   -0.5170   18.7600 C   0  0  0  0  0  0  0  0  0  0  0  0
   12.3161    1.0259   22.4747 C   0  0  0  0  0  0  0  0  0  0  0  0
    6.1600    0.3870   20.1140 C   0  0  0  0  0  0  0  0  0  0  0  0
   11.5217    1.0079   23.5949 C   0  0  0  0  0  0  0  0  0  0  0  0
    7.2210   -0.4620   20.0350 C   0  0  0  0  0  0  0  0  0  0  0  0
    5.9810    0.8330   18.8060 C   0  0  0  0  0  0  0  0  0  0  0  0
    9.2850   -3.7090   25.1090 C   0  0  0  0  0  0  0  0  0  0  0  0
    9.3300   -1.3350   23.6390 C   0  0  0  0  0  0  0  0  0  0  0  0
    8.9510    0.1280   21.6880 C   0  0  0  0  0  0  0  0  0  0  0  0
    9.6844   -6.1680   25.4389 C   0  0  0  0  0  0  0  0  0  0  0  0
    8.0402   -7.2914   27.0010 C   0  0  0  0  0  0  0  0  0  0  0  0
   14.7958    0.9722   22.1181 C   0  0  0  0  0  0  0  0  0  0  0  0
    8.0810   -0.9750   21.0820 C   0  0  0  0  0  0  0  0  0  0  0  0
   10.0220    1.0430   23.6570 C   0  0  0  0  0  0  0  0  0  0  0  0
    9.4864   -7.1875   26.5507 C   0  0  0  0  0  0  0  0  0  0  0  0
   13.7032    0.9267   24.2674 N   0  0  0  0  0  0  0  0  0  0  0  0
    6.9440    0.2550   18.0100 N   0  0  0  0  0  0  0  0  0  0  0  0
   13.6014    0.9758   22.9283 N   0  0  0  0  0  0  0  0  0  0  0  0
    9.2630   -4.8902   25.8410 N   0  0  0  0  0  0  0  0  0  0  0  0
    9.4200   -0.0840   22.9530 N   0  0  0  0  0  0  0  0  0  0  0  0
    9.1870    1.1500   21.0630 O   0  0  0  0  0  0  0  0  0  0  0  0
   10.1567   -6.4768   24.3498 O   0  0  0  0  0  0  0  0  0  0  0  0
    3.6260    2.0115   21.6299 H   0  0  0  0  0  0  0  0  0  0  0  0
    3.2721    2.7866   19.3205 H   0  0  0  0  0  0  0  0  0  0  0  0
    5.4862    0.4667   22.1694 H   0  0  0  0  0  0  0  0  0  0  0  0
    4.7828    2.0658   17.4849 H   0  0  0  0  0  0  0  0  0  0  0  0
    7.5639   -2.8621   26.1045 H   0  0  0  0  0  0  0  0  0  0  0  0
   11.0141   -4.2644   23.9422 H   0  0  0  0  0  0  0  0  0  0  0  0
    7.5950   -0.7788   24.8007 H   0  0  0  0  0  0  0  0  0  0  0  0
   11.0408   -2.1861   22.6359 H   0  0  0  0  0  0  0  0  0  0  0  0
   12.2184    0.9145   25.7287 H   0  0  0  0  0  0  0  0  0  0  0  0
    8.5287   -1.0850   18.3402 H   0  0  0  0  0  0  0  0  0  0  0  0
   12.0821    1.0677   21.4195 H   0  0  0  0  0  0  0  0  0  0  0  0
    7.6718   -6.3271   27.3662 H   0  0  0  0  0  0  0  0  0  0  0  0
    7.9444   -8.0225   27.8096 H   0  0  0  0  0  0  0  0  0  0  0  0
    7.3933   -7.6072   26.1759 H   0  0  0  0  0  0  0  0  0  0  0  0
   15.1026    2.0102   21.9649 H   0  0  0  0  0  0  0  0  0  0  0  0
   15.5826    0.4128   22.6318 H   0  0  0  0  0  0  0  0  0  0  0  0
   14.5811    0.4906   21.1600 H   0  0  0  0  0  0  0  0  0  0  0  0
    7.4884   -1.4160   21.8960 H   0  0  0  0  0  0  0  0  0  0  0  0
    8.7523   -1.7574   20.7004 H   0  0  0  0  0  0  0  0  0  0  0  0
    9.6778    1.0140   24.6966 H   0  0  0  0  0  0  0  0  0  0  0  0
    9.6316    1.9637   23.2107 H   0  0  0  0  0  0  0  0  0  0  0  0
    9.8282   -8.1648   26.1910 H   0  0  0  0  0  0  0  0  0  0  0  0
   10.1145   -6.9002   27.4018 H   0  0  0  0  0  0  0  0  0  0  0  0
    7.0329    0.4233   17.0175 H   0  0  0  0  0  0  0  0  0  0  0  0
    8.8930   -4.8275   26.7966 H   0  0  0  0  0  0  0  0  0  0  0  0
  1  2  1  0  0  0  0
  1  3  2  0  0  0  0
  2  4  2  0  0  0  0
  3 12  1  0  0  0  0
  4 15  1  0  0  0  0
  5  7  2  0  0  0  0
  5 16  1  0  0  0  0
  6  8  1  0  0  0  0
  6 16  2  0  0  0  0
  7 17  1  0  0  0  0
  8 17  2  0  0  0  0
  9 13  1  0  0  0  0
  9 25  2  0  0  0  0
 10 14  2  0  0  0  0
 10 26  1  0  0  0  0
 11 13  2  0  0  0  0
 11 27  1  0  0  0  0
 12 14  1  0  0  0  0
 12 15  2  0  0  0  0
 13 23  1  0  0  0  0
 14 22  1  0  0  0  0
 15 26  1  0  0  0  0
 16 28  1  0  0  0  0
 17 29  1  0  0  0  0
 18 22  1  0  0  0  0
 18 29  1  0  0  0  0
 18 30  2  0  0  0  0
 19 24  1  0  0  0  0
 19 28  1  0  0  0  0
 19 31  2  0  0  0  0
 20 24  1  0  0  0  0
 21 27  1  0  0  0  0
 23 29  1  0  0  0  0
 25 27  1  0  0  0  0
  1 32  1  0  0  0  0
  2 33  1  0  0  0  0
  3 34  1  0  0  0  0
  4 35  1  0  0  0  0
  5 36  1  0  0  0  0
  6 37  1  0  0  0  0
  7 38  1  0  0  0  0
  8 39  1  0  0  0  0
  9 40  1  0  0  0  0
 10 41  1  0  0  0  0
 11 42  1  0  0  0  0
 20 43  1  0  0  0  0
 20 44  1  0  0  0  0
 20 45  1  0  0  0  0
 21 46  1  0  0  0  0
 21 47  1  0  0  0  0
 21 48  1  0  0  0  0
 22 49  1  0  0  0  0
 22 50  1  0  0  0  0
 23 51  1  0  0  0  0
 23 52  1  0  0  0  0
 24 53  1  0  0  0  0
 24 54  1  0  0  0  0
 26 55  1  0  0  0  0
 28 56  1  0  0  0  0
M  END
> <clash_score>
1.3337609790916258

> <docking_score>
-5.326293468475342

> <overlap_score>
0.9779841899871826

$$$$
BENZO_461_1
  -OEChem-08222022423D

 49 52  0     0  0  0  0  0  0999 V2000
   14.3082    0.9431   23.4783 C   0  0  0  0  0  0  0  0  0  0  0  0
    4.2970    1.6690   20.8430 C   0  0  0  0  0  0  0  0  0  0  0  0
   13.6391    0.3091   24.5251 C   0  0  0  0  0  0  0  0  0  0  0  0
   13.5841    1.6096   22.4898 C   0  0  0  0  0  0  0  0  0  0  0  0
    4.0980    2.1130   19.5350 C   0  0  0  0  0  0  0  0  0  0  0  0
    5.3360    0.8000   21.1530 C   0  0  0  0  0  0  0  0  0  0  0  0
   12.2459    0.3415   24.5835 C   0  0  0  0  0  0  0  0  0  0  0  0
   12.1908    1.6420   22.5481 C   0  0  0  0  0  0  0  0  0  0  0  0
    8.3310   -2.7170   25.3430 C   0  0  0  0  0  0  0  0  0  0  0  0
   10.2570   -3.5000   24.1350 C   0  0  0  0  0  0  0  0  0  0  0  0
    4.9400    1.7060   18.5060 C   0  0  0  0  0  0  0  0  0  0  0  0
    8.3510   -1.5420   24.6110 C   0  0  0  0  0  0  0  0  0  0  0  0
   10.2760   -2.3270   23.4020 C   0  0  0  0  0  0  0  0  0  0  0  0
    7.6830   -0.5170   18.7600 C   0  0  0  0  0  0  0  0  0  0  0  0
    6.1600    0.3870   20.1140 C   0  0  0  0  0  0  0  0  0  0  0  0
    9.2850   -3.7090   25.1090 C   0  0  0  0  0  0  0  0  0  0  0  0
   11.5217    1.0079   23.5949 C   0  0  0  0  0  0  0  0  0  0  0  0
    7.2210   -0.4620   20.0350 C   0  0  0  0  0  0  0  0  0  0  0  0
    5.9810    0.8330   18.8060 C   0  0  0  0  0  0  0  0  0  0  0  0
    9.3300   -1.3350   23.6390 C   0  0  0  0  0  0  0  0  0  0  0  0
    8.9510    0.1280   21.6880 C   0  0  0  0  0  0  0  0  0  0  0  0
    9.2610   -4.9721   25.8916 C   0  0  0  0  0  0  0  0  0  0  0  0
    8.0810   -0.9750   21.0820 C   0  0  0  0  0  0  0  0  0  0  0  0
   10.0220    1.0430   23.6570 C   0  0  0  0  0  0  0  0  0  0  0  0
    6.9440    0.2550   18.0100 N   0  0  0  0  0  0  0  0  0  0  0  0
    9.4200   -0.0840   22.9530 N   0  0  0  0  0  0  0  0  0  0  0  0
    9.1870    1.1500   21.0630 O   0  0  0  0  0  0  0  0  0  0  0  0
   15.3932    0.9189   23.4337 H   0  0  0  0  0  0  0  0  0  0  0  0
    3.6260    2.0115   21.6299 H   0  0  0  0  0  0  0  0  0  0  0  0
   14.2029   -0.2090   25.2955 H   0  0  0  0  0  0  0  0  0  0  0  0
   14.1048    2.1043   21.6752 H   0  0  0  0  0  0  0  0  0  0  0  0
    3.2721    2.7866   19.3205 H   0  0  0  0  0  0  0  0  0  0  0  0
    5.4862    0.4667   22.1694 H   0  0  0  0  0  0  0  0  0  0  0  0
   11.7330   -0.1555   25.4027 H   0  0  0  0  0  0  0  0  0  0  0  0
   11.6349    2.1636   21.7735 H   0  0  0  0  0  0  0  0  0  0  0  0
    7.5665   -2.8638   26.1066 H   0  0  0  0  0  0  0  0  0  0  0  0
   11.0137   -4.2652   23.9447 H   0  0  0  0  0  0  0  0  0  0  0  0
    4.7828    2.0658   17.4849 H   0  0  0  0  0  0  0  0  0  0  0  0
    7.5948   -0.7788   24.7997 H   0  0  0  0  0  0  0  0  0  0  0  0
   11.0411   -2.1856   22.6358 H   0  0  0  0  0  0  0  0  0  0  0  0
    8.5287   -1.0850   18.3402 H   0  0  0  0  0  0  0  0  0  0  0  0
    8.6398   -5.7223   25.3871 H   0  0  0  0  0  0  0  0  0  0  0  0
   10.2715   -5.3829   26.0145 H   0  0  0  0  0  0  0  0  0  0  0  0
    8.8596   -4.8092   26.9004 H   0  0  0  0  0  0  0  0  0  0  0  0
    7.4884   -1.4160   21.8960 H   0  0  0  0  0  0  0  0  0  0  0  0
    8.7523   -1.7574   20.7004 H   0  0  0  0  0  0  0  0  0  0  0  0
    9.6778    1.0140   24.6966 H   0  0  0  0  0  0  0  0  0  0  0  0
    9.6316    1.9637   23.2107 H   0  0  0  0  0  0  0  0  0  0  0  0
    7.0329    0.4233   17.0175 H   0  0  0  0  0  0  0  0  0  0  0  0
  1  3  1  0  0  0  0
  1  4  2  0  0  0  0
  2  5  1  0  0  0  0
  2  6  2  0  0  0  0
  3  7  2  0  0  0  0
  4  8  1  0  0  0  0
  5 11  2  0  0  0  0
  6 15  1  0  0  0  0
  7 17  1  0  0  0  0
  8 17  2  0  0  0  0
  9 12  2  0  0  0  0
  9 16  1  0  0  0  0
 10 13  1  0  0  0  0
 10 16  2  0  0  0  0
 11 19  1  0  0  0  0
 12 20  1  0  0  0  0
 13 20  2  0  0  0  0
 14 18  2  0  0  0  0
 14 25  1  0  0  0  0
 15 18  1  0  0  0  0
 15 19  2  0  0  0  0
 16 22  1  0  0  0  0
 17 24  1  0  0  0  0
 18 23  1  0  0  0  0
 19 25  1  0  0  0  0
 20 26  1  0  0  0  0
 21 23  1  0  0  0  0
 21 26  1  0  0  0  0
 21 27  2  0  0  0  0
 24 26  1  0  0  0  0
  1 28  1  0  0  0  0
  2 29  1  0  0  0  0
  3 30  1  0  0  0  0
  4 31  1  0  0  0  0
  5 32  1  0  0  0  0
  6 33  1  0  0  0  0
  7 34  1  0  0  0  0
  8 35  1  0  0  0  0
  9 36  1  0  0  0  0
 10 37  1  0  0  0  0
 11 38  1  0  0  0  0
 12 39  1  0  0  0  0
 13 40  1  0  0  0  0
 14 41  1  0  0  0  0
 22 42  1  0  0  0  0
 22 43  1  0  0  0  0
 22 44  1  0  0  0  0
 23 45  1  0  0  0  0
 23 46  1  0  0  0  0
 24 47  1  0  0  0  0
 24 48  1  0  0  0  0
 25 49  1  0  0  0  0
M  END
> <clash_score>
0

> <docking_score>
-8.574190139770508

> <overlap_score>
0.9717719554901123

$$$$
BENZO_460_1
  -OEChem-08222022423D

 46 49  0     0  0  0  0  0  0999 V2000
    4.2970    1.6690   20.8430 C   0  0  0  0  0  0  0  0  0  0  0  0
    4.0980    2.1130   19.5350 C   0  0  0  0  0  0  0  0  0  0  0  0
    5.3360    0.8000   21.1530 C   0  0  0  0  0  0  0  0  0  0  0  0
    8.3310   -2.7170   25.3430 C   0  0  0  0  0  0  0  0  0  0  0  0
   10.2570   -3.5000   24.1350 C   0  0  0  0  0  0  0  0  0  0  0  0
    4.9400    1.7060   18.5060 C   0  0  0  0  0  0  0  0  0  0  0  0
    8.3510   -1.5420   24.6110 C   0  0  0  0  0  0  0  0  0  0  0  0
   10.2760   -2.3270   23.4020 C   0  0  0  0  0  0  0  0  0  0  0  0
   12.2675    1.0332   22.3812 C   0  0  0  0  0  0  0  0  0  0  0  0
    7.6830   -0.5170   18.7600 C   0  0  0  0  0  0  0  0  0  0  0  0
   13.6257    0.9906   22.6074 C   0  0  0  0  0  0  0  0  0  0  0  0
   12.3384    0.9467   24.7028 C   0  0  0  0  0  0  0  0  0  0  0  0
    6.1600    0.3870   20.1140 C   0  0  0  0  0  0  0  0  0  0  0  0
    9.2850   -3.7090   25.1090 C   0  0  0  0  0  0  0  0  0  0  0  0
   11.5217    1.0079   23.5949 C   0  0  0  0  0  0  0  0  0  0  0  0
    7.2210   -0.4620   20.0350 C   0  0  0  0  0  0  0  0  0  0  0  0
    5.9810    0.8330   18.8060 C   0  0  0  0  0  0  0  0  0  0  0  0
    9.3300   -1.3350   23.6390 C   0  0  0  0  0  0  0  0  0  0  0  0
    8.9510    0.1280   21.6880 C   0  0  0  0  0  0  0  0  0  0  0  0
    9.2610   -4.9721   25.8916 C   0  0  0  0  0  0  0  0  0  0  0  0
    8.0810   -0.9750   21.0820 C   0  0  0  0  0  0  0  0  0  0  0  0
   10.0220    1.0430   23.6570 C   0  0  0  0  0  0  0  0  0  0  0  0
    6.9440    0.2550   18.0100 N   0  0  0  0  0  0  0  0  0  0  0  0
    9.4200   -0.0840   22.9530 N   0  0  0  0  0  0  0  0  0  0  0  0
    9.1870    1.1500   21.0630 O   0  0  0  0  0  0  0  0  0  0  0  0
   13.9969    0.9203   24.2776 S   0  0  0  0  0  0  0  0  0  0  0  0
    3.6260    2.0115   21.6299 H   0  0  0  0  0  0  0  0  0  0  0  0
    3.2721    2.7866   19.3205 H   0  0  0  0  0  0  0  0  0  0  0  0
    5.4862    0.4667   22.1694 H   0  0  0  0  0  0  0  0  0  0  0  0
    7.5665   -2.8638   26.1066 H   0  0  0  0  0  0  0  0  0  0  0  0
   11.0137   -4.2652   23.9447 H   0  0  0  0  0  0  0  0  0  0  0  0
    4.7828    2.0658   17.4849 H   0  0  0  0  0  0  0  0  0  0  0  0
    7.5948   -0.7788   24.7997 H   0  0  0  0  0  0  0  0  0  0  0  0
   11.0411   -2.1856   22.6358 H   0  0  0  0  0  0  0  0  0  0  0  0
   11.8338    1.0798   21.3902 H   0  0  0  0  0  0  0  0  0  0  0  0
    8.5287   -1.0850   18.3402 H   0  0  0  0  0  0  0  0  0  0  0  0
   14.4176    0.9966   21.8719 H   0  0  0  0  0  0  0  0  0  0  0  0
   12.0446    0.9149   25.7428 H   0  0  0  0  0  0  0  0  0  0  0  0
    8.6398   -5.7223   25.3871 H   0  0  0  0  0  0  0  0  0  0  0  0
   10.2715   -5.3829   26.0145 H   0  0  0  0  0  0  0  0  0  0  0  0
    8.8596   -4.8092   26.9004 H   0  0  0  0  0  0  0  0  0  0  0  0
    7.4884   -1.4160   21.8960 H   0  0  0  0  0  0  0  0  0  0  0  0
    8.7523   -1.7574   20.7004 H   0  0  0  0  0  0  0  0  0  0  0  0
    9.6778    1.0140   24.6966 H   0  0  0  0  0  0  0  0  0  0  0  0
    9.6316    1.9637   23.2107 H   0  0  0  0  0  0  0  0  0  0  0  0
    7.0329    0.4233   17.0175 H   0  0  0  0  0  0  0  0  0  0  0  0
  1  2  1  0  0  0  0
  1  3  2  0  0  0  0
  2  6  2  0  0  0  0
  3 13  1  0  0  0  0
  4  7  2  0  0  0  0
  4 14  1  0  0  0  0
  5  8  1  0  0  0  0
  5 14  2  0  0  0  0
  6 17  1  0  0  0  0
  7 18  1  0  0  0  0
  8 18  2  0  0  0  0
  9 11  2  0  0  0  0
  9 15  1  0  0  0  0
 10 16  2  0  0  0  0
 10 23  1  0  0  0  0
 11 26  1  0  0  0  0
 12 15  2  0  0  0  0
 12 26  1  0  0  0  0
 13 16  1  0  0  0  0
 13 17  2  0  0  0  0
 14 20  1  0  0  0  0
 15 22  1  0  0  0  0
 16 21  1  0  0  0  0
 17 23  1  0  0  0  0
 18 24  1  0  0  0  0
 19 21  1  0  0  0  0
 19 24  1  0  0  0  0
 19 25  2  0  0  0  0
 22 24  1  0  0  0  0
  1 27  1  0  0  0  0
  2 28  1  0  0  0  0
  3 29  1  0  0  0  0
  4 30  1  0  0  0  0
  5 31  1  0  0  0  0
  6 32  1  0  0  0  0
  7 33  1  0  0  0  0
  8 34  1  0  0  0  0
  9 35  1  0  0  0  0
 10 36  1  0  0  0  0
 11 37  1  0  0  0  0
 12 38  1  0  0  0  0
 20 39  1  0  0  0  0
 20 40  1  0  0  0  0
 20 41  1  0  0  0  0
 21 42  1  0  0  0  0
 21 43  1  0  0  0  0
 22 44  1  0  0  0  0
 22 45  1  0  0  0  0
 23 46  1  0  0  0  0
M  END
> <clash_score>
0

> <docking_score>
-8.820388793945312

> <overlap_score>
0.9457806348800659

$$$$
BENZO_458_1
  -OEChem-08222022423D

 61 65  0     0  0  0  0  0  0999 V2000
    4.2970    1.6690   20.8430 C   0  0  0  0  0  0  0  0  0  0  0  0
    4.0980    2.1130   19.5350 C   0  0  0  0  0  0  0  0  0  0  0  0
   13.5977    1.8457   22.6865 C   0  0  0  0  0  0  0  0  0  0  0  0
    5.3360    0.8000   21.1530 C   0  0  0  0  0  0  0  0  0  0  0  0
   12.2044    1.8769   22.7438 C   0  0  0  0  0  0  0  0  0  0  0  0
    4.9400    1.7060   18.5060 C   0  0  0  0  0  0  0  0  0  0  0  0
    8.3310   -2.7170   25.3430 C   0  0  0  0  0  0  0  0  0  0  0  0
   10.2570   -3.5000   24.1350 C   0  0  0  0  0  0  0  0  0  0  0  0
    8.3510   -1.5420   24.6110 C   0  0  0  0  0  0  0  0  0  0  0  0
   10.2760   -2.3270   23.4020 C   0  0  0  0  0  0  0  0  0  0  0  0
   14.3084    0.9454   23.4803 C   0  0  0  0  0  0  0  0  0  0  0  0
   12.2323    0.1076   24.3888 C   0  0  0  0  0  0  0  0  0  0  0  0
    7.6830   -0.5170   18.7600 C   0  0  0  0  0  0  0  0  0  0  0  0
    6.1600    0.3870   20.1140 C   0  0  0  0  0  0  0  0  0  0  0  0
   11.5217    1.0079   23.5949 C   0  0  0  0  0  0  0  0  0  0  0  0
    7.2210   -0.4620   20.0350 C   0  0  0  0  0  0  0  0  0  0  0  0
    5.9810    0.8330   18.8060 C   0  0  0  0  0  0  0  0  0  0  0  0
    9.2850   -3.7090   25.1090 C   0  0  0  0  0  0  0  0  0  0  0  0
    9.3300   -1.3350   23.6390 C   0  0  0  0  0  0  0  0  0  0  0  0
   13.6257    0.0764   24.3314 C   0  0  0  0  0  0  0  0  0  0  0  0
    8.9510    0.1280   21.6880 C   0  0  0  0  0  0  0  0  0  0  0  0
    7.3162   -6.8835   26.5210 C   0  0  0  0  0  0  0  0  0  0  0  0
    7.3507   -5.5245   27.2240 C   0  0  0  0  0  0  0  0  0  0  0  0
    7.9375   -6.8069   25.1245 C   0  0  0  0  0  0  0  0  0  0  0  0
    8.7638   -4.9418   27.2163 C   0  0  0  0  0  0  0  0  0  0  0  0
    9.3378   -6.1874   25.1659 C   0  0  0  0  0  0  0  0  0  0  0  0
    8.0810   -0.9750   21.0820 C   0  0  0  0  0  0  0  0  0  0  0  0
   10.0220    1.0430   23.6570 C   0  0  0  0  0  0  0  0  0  0  0  0
    6.9440    0.2550   18.0100 N   0  0  0  0  0  0  0  0  0  0  0  0
    9.2639   -4.8860   25.8399 N   0  0  0  0  0  0  0  0  0  0  0  0
    9.4200   -0.0840   22.9530 N   0  0  0  0  0  0  0  0  0  0  0  0
    9.1870    1.1500   21.0630 O   0  0  0  0  0  0  0  0  0  0  0  0
   14.5031   -1.0334   25.3114 Cl  0  0  0  0  0  0  0  0  0  0  0  0
    3.6260    2.0115   21.6299 H   0  0  0  0  0  0  0  0  0  0  0  0
    3.2721    2.7866   19.3205 H   0  0  0  0  0  0  0  0  0  0  0  0
   14.1289    2.5227   22.0237 H   0  0  0  0  0  0  0  0  0  0  0  0
    5.4862    0.4667   22.1694 H   0  0  0  0  0  0  0  0  0  0  0  0
   11.6588    2.5818   22.1218 H   0  0  0  0  0  0  0  0  0  0  0  0
    4.7828    2.0658   17.4849 H   0  0  0  0  0  0  0  0  0  0  0  0
    7.5647   -2.8621   26.1053 H   0  0  0  0  0  0  0  0  0  0  0  0
   11.0144   -4.2642   23.9425 H   0  0  0  0  0  0  0  0  0  0  0  0
    7.5958   -0.7779   24.8006 H   0  0  0  0  0  0  0  0  0  0  0  0
   11.0406   -2.1848   22.6356 H   0  0  0  0  0  0  0  0  0  0  0  0
   15.3941    0.9323   23.4255 H   0  0  0  0  0  0  0  0  0  0  0  0
   11.6954   -0.5682   25.0504 H   0  0  0  0  0  0  0  0  0  0  0  0
    8.5287   -1.0850   18.3402 H   0  0  0  0  0  0  0  0  0  0  0  0
    7.8578   -7.6261   27.1266 H   0  0  0  0  0  0  0  0  0  0  0  0
    6.2773   -7.2358   26.4459 H   0  0  0  0  0  0  0  0  0  0  0  0
    6.6663   -4.8351   26.7223 H   0  0  0  0  0  0  0  0  0  0  0  0
    7.0044   -5.6368   28.2534 H   0  0  0  0  0  0  0  0  0  0  0  0
    7.9946   -7.8119   24.6937 H   0  0  0  0  0  0  0  0  0  0  0  0
    7.2929   -6.2123   24.4668 H   0  0  0  0  0  0  0  0  0  0  0  0
    8.7343   -3.9408   27.6542 H   0  0  0  0  0  0  0  0  0  0  0  0
    9.4243   -5.5632   27.8278 H   0  0  0  0  0  0  0  0  0  0  0  0
   10.0200   -6.8490   25.7011 H   0  0  0  0  0  0  0  0  0  0  0  0
    9.6984   -6.0694   24.1436 H   0  0  0  0  0  0  0  0  0  0  0  0
    7.4781   -1.4136   21.8845 H   0  0  0  0  0  0  0  0  0  0  0  0
    8.7420   -1.7550   20.6889 H   0  0  0  0  0  0  0  0  0  0  0  0
    9.6778    1.0140   24.6966 H   0  0  0  0  0  0  0  0  0  0  0  0
    9.6316    1.9637   23.2107 H   0  0  0  0  0  0  0  0  0  0  0  0
    7.0329    0.4233   17.0175 H   0  0  0  0  0  0  0  0  0  0  0  0
  1  2  1  0  0  0  0
  1  4  2  0  0  0  0
  2  6  2  0  0  0  0
  3  5  2  0  0  0  0
  3 11  1  0  0  0  0
  4 14  1  0  0  0  0
  5 15  1  0  0  0  0
  6 17  1  0  0  0  0
  7  9  2  0  0  0  0
  7 18  1  0  0  0  0
  8 10  1  0  0  0  0
  8 18  2  0  0  0  0
  9 19  1  0  0  0  0
 10 19  2  0  0  0  0
 11 20  2  0  0  0  0
 12 15  2  0  0  0  0
 12 20  1  0  0  0  0
 13 16  2  0  0  0  0
 13 29  1  0  0  0  0
 14 16  1  0  0  0  0
 14 17  2  0  0  0  0
 15 28  1  0  0  0  0
 16 27  1  0  0  0  0
 17 29  1  0  0  0  0
 18 30  1  0  0  0  0
 19 31  1  0  0  0  0
 20 33  1  0  0  0  0
 21 27  1  0  0  0  0
 21 31  1  0  0  0  0
 21 32  2  0  0  0  0
 22 23  1  0  0  0  0
 22 24  1  0  0  0  0
 23 25  1  0  0  0  0
 24 26  1  0  0  0  0
 25 30  1  0  0  0  0
 26 30  1  0  0  0  0
 28 31  1  0  0  0  0
  1 34  1  0  0  0  0
  2 35  1  0  0  0  0
  3 36  1  0  0  0  0
  4 37  1  0  0  0  0
  5 38  1  0  0  0  0
  6 39  1  0  0  0  0
  7 40  1  0  0  0  0
  8 41  1  0  0  0  0
  9 42  1  0  0  0  0
 10 43  1  0  0  0  0
 11 44  1  0  0  0  0
 12 45  1  0  0  0  0
 13 46  1  0  0  0  0
 22 47  1  0  0  0  0
 22 48  1  0  0  0  0
 23 49  1  0  0  0  0
 23 50  1  0  0  0  0
 24 51  1  0  0  0  0
 24 52  1  0  0  0  0
 25 53  1  0  0  0  0
 25 54  1  0  0  0  0
 26 55  1  0  0  0  0
 26 56  1  0  0  0  0
 27 57  1  0  0  0  0
 27 58  1  0  0  0  0
 28 59  1  0  0  0  0
 28 60  1  0  0  0  0
 29 61  1  0  0  0  0
M  END
> <clash_score>
0.7662440897211608

> <docking_score>
-6.798428535461426

> <overlap_score>
1.0207408666610718

$$$$
BENZO_459_1
  -OEChem-08222022423D

 61 65  0     0  0  0  0  0  0999 V2000
    4.2970    1.6690   20.8430 C   0  0  0  0  0  0  0  0  0  0  0  0
    4.0980    2.1130   19.5350 C   0  0  0  0  0  0  0  0  0  0  0  0
    5.3360    0.8000   21.1530 C   0  0  0  0  0  0  0  0  0  0  0  0
    4.9400    1.7060   18.5060 C   0  0  0  0  0  0  0  0  0  0  0  0
    8.3310   -2.7170   25.3430 C   0  0  0  0  0  0  0  0  0  0  0  0
   10.2570   -3.5000   24.1350 C   0  0  0  0  0  0  0  0  0  0  0  0
    8.3510   -1.5420   24.6110 C   0  0  0  0  0  0  0  0  0  0  0  0
   10.2760   -2.3270   23.4020 C   0  0  0  0  0  0  0  0  0  0  0  0
   12.4359    1.7439   24.3724 C   0  0  0  0  0  0  0  0  0  0  0  0
    7.6830   -0.5170   18.7600 C   0  0  0  0  0  0  0  0  0  0  0  0
   12.3100    0.2469   22.7668 C   0  0  0  0  0  0  0  0  0  0  0  0
    6.1600    0.3870   20.1140 C   0  0  0  0  0  0  0  0  0  0  0  0
   11.5217    1.0079   23.5949 C   0  0  0  0  0  0  0  0  0  0  0  0
    7.2210   -0.4620   20.0350 C   0  0  0  0  0  0  0  0  0  0  0  0
    5.9810    0.8330   18.8060 C   0  0  0  0  0  0  0  0  0  0  0  0
    9.2850   -3.7090   25.1090 C   0  0  0  0  0  0  0  0  0  0  0  0
    9.3300   -1.3350   23.6390 C   0  0  0  0  0  0  0  0  0  0  0  0
    8.9510    0.1280   21.6880 C   0  0  0  0  0  0  0  0  0  0  0  0
    7.3162   -6.8835   26.5210 C   0  0  0  0  0  0  0  0  0  0  0  0
    7.3507   -5.5245   27.2240 C   0  0  0  0  0  0  0  0  0  0  0  0
    7.9375   -6.8069   25.1245 C   0  0  0  0  0  0  0  0  0  0  0  0
    8.7638   -4.9418   27.2163 C   0  0  0  0  0  0  0  0  0  0  0  0
    9.3378   -6.1874   25.1659 C   0  0  0  0  0  0  0  0  0  0  0  0
   14.7884    0.0124   22.4815 C   0  0  0  0  0  0  0  0  0  0  0  0
    8.0810   -0.9750   21.0820 C   0  0  0  0  0  0  0  0  0  0  0  0
   10.0220    1.0430   23.6570 C   0  0  0  0  0  0  0  0  0  0  0  0
   13.7076    1.4745   24.0657 N   0  0  0  0  0  0  0  0  0  0  0  0
    6.9440    0.2550   18.0100 N   0  0  0  0  0  0  0  0  0  0  0  0
   13.5982    0.5607   23.0864 N   0  0  0  0  0  0  0  0  0  0  0  0
    9.2639   -4.8860   25.8399 N   0  0  0  0  0  0  0  0  0  0  0  0
    9.4200   -0.0840   22.9530 N   0  0  0  0  0  0  0  0  0  0  0  0
    9.1870    1.1500   21.0630 O   0  0  0  0  0  0  0  0  0  0  0  0
    3.6260    2.0115   21.6299 H   0  0  0  0  0  0  0  0  0  0  0  0
    3.2721    2.7866   19.3205 H   0  0  0  0  0  0  0  0  0  0  0  0
    5.4862    0.4667   22.1694 H   0  0  0  0  0  0  0  0  0  0  0  0
    4.7828    2.0658   17.4849 H   0  0  0  0  0  0  0  0  0  0  0  0
    7.5647   -2.8621   26.1053 H   0  0  0  0  0  0  0  0  0  0  0  0
   11.0144   -4.2642   23.9425 H   0  0  0  0  0  0  0  0  0  0  0  0
    7.5958   -0.7779   24.8006 H   0  0  0  0  0  0  0  0  0  0  0  0
   11.0406   -2.1848   22.6356 H   0  0  0  0  0  0  0  0  0  0  0  0
   12.2308    2.4652   25.1508 H   0  0  0  0  0  0  0  0  0  0  0  0
    8.5287   -1.0850   18.3402 H   0  0  0  0  0  0  0  0  0  0  0  0
   12.0700   -0.4744   21.9974 H   0  0  0  0  0  0  0  0  0  0  0  0
    7.8578   -7.6261   27.1266 H   0  0  0  0  0  0  0  0  0  0  0  0
    6.2773   -7.2358   26.4459 H   0  0  0  0  0  0  0  0  0  0  0  0
    6.6663   -4.8351   26.7223 H   0  0  0  0  0  0  0  0  0  0  0  0
    7.0044   -5.6368   28.2534 H   0  0  0  0  0  0  0  0  0  0  0  0
    7.9946   -7.8119   24.6937 H   0  0  0  0  0  0  0  0  0  0  0  0
    7.2929   -6.2123   24.4668 H   0  0  0  0  0  0  0  0  0  0  0  0
    8.7343   -3.9408   27.6542 H   0  0  0  0  0  0  0  0  0  0  0  0
    9.4243   -5.5632   27.8278 H   0  0  0  0  0  0  0  0  0  0  0  0
   10.0200   -6.8490   25.7011 H   0  0  0  0  0  0  0  0  0  0  0  0
    9.6984   -6.0694   24.1436 H   0  0  0  0  0  0  0  0  0  0  0  0
   15.0569    0.6453   21.6315 H   0  0  0  0  0  0  0  0  0  0  0  0
   15.5971   -0.0026   23.2174 H   0  0  0  0  0  0  0  0  0  0  0  0
   14.5870   -1.0100   22.1498 H   0  0  0  0  0  0  0  0  0  0  0  0
    7.4781   -1.4136   21.8845 H   0  0  0  0  0  0  0  0  0  0  0  0
    8.7420   -1.7550   20.6889 H   0  0  0  0  0  0  0  0  0  0  0  0
    9.6778    1.0140   24.6966 H   0  0  0  0  0  0  0  0  0  0  0  0
    9.6316    1.9637   23.2107 H   0  0  0  0  0  0  0  0  0  0  0  0
    7.0329    0.4233   17.0175 H   0  0  0  0  0  0  0  0  0  0  0  0
  1  2  1  0  0  0  0
  1  3  2  0  0  0  0
  2  4  2  0  0  0  0
  3 12  1  0  0  0  0
  4 15  1  0  0  0  0
  5  7  2  0  0  0  0
  5 16  1  0  0  0  0
  6  8  1  0  0  0  0
  6 16  2  0  0  0  0
  7 17  1  0  0  0  0
  8 17  2  0  0  0  0
  9 13  1  0  0  0  0
  9 27  2  0  0  0  0
 10 14  2  0  0  0  0
 10 28  1  0  0  0  0
 11 13  2  0  0  0  0
 11 29  1  0  0  0  0
 12 14  1  0  0  0  0
 12 15  2  0  0  0  0
 13 26  1  0  0  0  0
 14 25  1  0  0  0  0
 15 28  1  0  0  0  0
 16 30  1  0  0  0  0
 17 31  1  0  0  0  0
 18 25  1  0  0  0  0
 18 31  1  0  0  0  0
 18 32  2  0  0  0  0
 19 20  1  0  0  0  0
 19 21  1  0  0  0  0
 20 22  1  0  0  0  0
 21 23  1  0  0  0  0
 22 30  1  0  0  0  0
 23 30  1  0  0  0  0
 24 29  1  0  0  0  0
 26 31  1  0  0  0  0
 27 29  1  0  0  0  0
  1 33  1  0  0  0  0
  2 34  1  0  0  0  0
  3 35  1  0  0  0  0
  4 36  1  0  0  0  0
  5 37  1  0  0  0  0
  6 38  1  0  0  0  0
  7 39  1  0  0  0  0
  8 40  1  0  0  0  0
  9 41  1  0  0  0  0
 10 42  1  0  0  0  0
 11 43  1  0  0  0  0
 19 44  1  0  0  0  0
 19 45  1  0  0  0  0
 20 46  1  0  0  0  0
 20 47  1  0  0  0  0
 21 48  1  0  0  0  0
 21 49  1  0  0  0  0
 22 50  1  0  0  0  0
 22 51  1  0  0  0  0
 23 52  1  0  0  0  0
 23 53  1  0  0  0  0
 24 54  1  0  0  0  0
 24 55  1  0  0  0  0
 24 56  1  0  0  0  0
 25 57  1  0  0  0  0
 25 58  1  0  0  0  0
 26 59  1  0  0  0  0
 26 60  1  0  0  0  0
 28 61  1  0  0  0  0
M  END
> <clash_score>
0

> <docking_score>
-7.831146240234375

> <overlap_score>
1.0017565488815308

$$$$
BENZO_462_1
  -OEChem-08222022423D

 49 52  0     0  0  0  0  0  0999 V2000
    4.2970    1.6690   20.8430 C   0  0  0  0  0  0  0  0  0  0  0  0
    4.0980    2.1130   19.5350 C   0  0  0  0  0  0  0  0  0  0  0  0
   13.5977    1.8457   22.6865 C   0  0  0  0  0  0  0  0  0  0  0  0
    5.3360    0.8000   21.1530 C   0  0  0  0  0  0  0  0  0  0  0  0
   12.2044    1.8769   22.7438 C   0  0  0  0  0  0  0  0  0  0  0  0
    8.3310   -2.7170   25.3430 C   0  0  0  0  0  0  0  0  0  0  0  0
   10.2570   -3.5000   24.1350 C   0  0  0  0  0  0  0  0  0  0  0  0
    4.9400    1.7060   18.5060 C   0  0  0  0  0  0  0  0  0  0  0  0
    8.3510   -1.5420   24.6110 C   0  0  0  0  0  0  0  0  0  0  0  0
   10.2760   -2.3270   23.4020 C   0  0  0  0  0  0  0  0  0  0  0  0
   14.3084    0.9454   23.4803 C   0  0  0  0  0  0  0  0  0  0  0  0
   12.2323    0.1076   24.3888 C   0  0  0  0  0  0  0  0  0  0  0  0
    7.6830   -0.5170   18.7600 C   0  0  0  0  0  0  0  0  0  0  0  0
    6.1600    0.3870   20.1140 C   0  0  0  0  0  0  0  0  0  0  0  0
    9.2850   -3.7090   25.1090 C   0  0  0  0  0  0  0  0  0  0  0  0
   11.5217    1.0079   23.5949 C   0  0  0  0  0  0  0  0  0  0  0  0
    7.2210   -0.4620   20.0350 C   0  0  0  0  0  0  0  0  0  0  0  0
    5.9810    0.8330   18.8060 C   0  0  0  0  0  0  0  0  0  0  0  0
    9.3300   -1.3350   23.6390 C   0  0  0  0  0  0  0  0  0  0  0  0
   13.6257    0.0764   24.3314 C   0  0  0  0  0  0  0  0  0  0  0  0
    8.9510    0.1280   21.6880 C   0  0  0  0  0  0  0  0  0  0  0  0
    9.2610   -4.9721   25.8916 C   0  0  0  0  0  0  0  0  0  0  0  0
    8.0810   -0.9750   21.0820 C   0  0  0  0  0  0  0  0  0  0  0  0
   10.0220    1.0430   23.6570 C   0  0  0  0  0  0  0  0  0  0  0  0
    6.9440    0.2550   18.0100 N   0  0  0  0  0  0  0  0  0  0  0  0
    9.4200   -0.0840   22.9530 N   0  0  0  0  0  0  0  0  0  0  0  0
    9.1870    1.1500   21.0630 O   0  0  0  0  0  0  0  0  0  0  0  0
   14.5031   -1.0334   25.3114 Cl  0  0  0  0  0  0  0  0  0  0  0  0
    3.6260    2.0115   21.6299 H   0  0  0  0  0  0  0  0  0  0  0  0
    3.2721    2.7866   19.3205 H   0  0  0  0  0  0  0  0  0  0  0  0
   14.1289    2.5227   22.0237 H   0  0  0  0  0  0  0  0  0  0  0  0
    5.4862    0.4667   22.1694 H   0  0  0  0  0  0  0  0  0  0  0  0
   11.6588    2.5818   22.1218 H   0  0  0  0  0  0  0  0  0  0  0  0
    7.5665   -2.8638   26.1066 H   0  0  0  0  0  0  0  0  0  0  0  0
   11.0137   -4.2652   23.9447 H   0  0  0  0  0  0  0  0  0  0  0  0
    4.7828    2.0658   17.4849 H   0  0  0  0  0  0  0  0  0  0  0  0
    7.5948   -0.7788   24.7997 H   0  0  0  0  0  0  0  0  0  0  0  0
   11.0411   -2.1856   22.6358 H   0  0  0  0  0  0  0  0  0  0  0  0
   15.3941    0.9323   23.4255 H   0  0  0  0  0  0  0  0  0  0  0  0
   11.6954   -0.5682   25.0504 H   0  0  0  0  0  0  0  0  0  0  0  0
    8.5287   -1.0850   18.3402 H   0  0  0  0  0  0  0  0  0  0  0  0
    8.6398   -5.7223   25.3871 H   0  0  0  0  0  0  0  0  0  0  0  0
   10.2715   -5.3829   26.0145 H   0  0  0  0  0  0  0  0  0  0  0  0
    8.8596   -4.8092   26.9004 H   0  0  0  0  0  0  0  0  0  0  0  0
    7.4884   -1.4160   21.8960 H   0  0  0  0  0  0  0  0  0  0  0  0
    8.7523   -1.7574   20.7004 H   0  0  0  0  0  0  0  0  0  0  0  0
    9.6778    1.0140   24.6966 H   0  0  0  0  0  0  0  0  0  0  0  0
    9.6316    1.9637   23.2107 H   0  0  0  0  0  0  0  0  0  0  0  0
    7.0329    0.4233   17.0175 H   0  0  0  0  0  0  0  0  0  0  0  0
  1  2  1  0  0  0  0
  1  4  2  0  0  0  0
  2  8  2  0  0  0  0
  3  5  2  0  0  0  0
  3 11  1  0  0  0  0
  4 14  1  0  0  0  0
  5 16  1  0  0  0  0
  6  9  2  0  0  0  0
  6 15  1  0  0  0  0
  7 10  1  0  0  0  0
  7 15  2  0  0  0  0
  8 18  1  0  0  0  0
  9 19  1  0  0  0  0
 10 19  2  0  0  0  0
 11 20  2  0  0  0  0
 12 16  2  0  0  0  0
 12 20  1  0  0  0  0
 13 17  2  0  0  0  0
 13 25  1  0  0  0  0
 14 17  1  0  0  0  0
 14 18  2  0  0  0  0
 15 22  1  0  0  0  0
 16 24  1  0  0  0  0
 17 23  1  0  0  0  0
 18 25  1  0  0  0  0
 19 26  1  0  0  0  0
 20 28  1  0  0  0  0
 21 23  1  0  0  0  0
 21 26  1  0  0  0  0
 21 27  2  0  0  0  0
 24 26  1  0  0  0  0
  1 29  1  0  0  0  0
  2 30  1  0  0  0  0
  3 31  1  0  0  0  0
  4 32  1  0  0  0  0
  5 33  1  0  0  0  0
  6 34  1  0  0  0  0
  7 35  1  0  0  0  0
  8 36  1  0  0  0  0
  9 37  1  0  0  0  0
 10 38  1  0  0  0  0
 11 39  1  0  0  0  0
 12 40  1  0  0  0  0
 13 41  1  0  0  0  0
 22 42  1  0  0  0  0
 22 43  1  0  0  0  0
 22 44  1  0  0  0  0
 23 45  1  0  0  0  0
 23 46  1  0  0  0  0
 24 47  1  0  0  0  0
 24 48  1  0  0  0  0
 25 49  1  0  0  0  0
M  END
> <clash_score>
0.7662444784478902

> <docking_score>
-7.756087303161621

> <overlap_score>
0.9770406484603882

$$$$
BENZO_465_1
  -OEChem-08222022423D

 50 53  0     0  0  0  0  0  0999 V2000
   14.3082    0.9431   23.4783 C   0  0  0  0  0  0  0  0  0  0  0  0
    4.2970    1.6690   20.8430 C   0  0  0  0  0  0  0  0  0  0  0  0
   13.6391    0.3091   24.5251 C   0  0  0  0  0  0  0  0  0  0  0  0
   13.5841    1.6096   22.4898 C   0  0  0  0  0  0  0  0  0  0  0  0
    4.0980    2.1130   19.5350 C   0  0  0  0  0  0  0  0  0  0  0  0
    5.3360    0.8000   21.1530 C   0  0  0  0  0  0  0  0  0  0  0  0
   12.2459    0.3415   24.5835 C   0  0  0  0  0  0  0  0  0  0  0  0
   12.1908    1.6420   22.5481 C   0  0  0  0  0  0  0  0  0  0  0  0
    4.9400    1.7060   18.5060 C   0  0  0  0  0  0  0  0  0  0  0  0
    8.3510   -1.5420   24.6110 C   0  0  0  0  0  0  0  0  0  0  0  0
   10.2760   -2.3270   23.4020 C   0  0  0  0  0  0  0  0  0  0  0  0
    8.3310   -2.7170   25.3430 C   0  0  0  0  0  0  0  0  0  0  0  0
   10.2570   -3.5000   24.1350 C   0  0  0  0  0  0  0  0  0  0  0  0
    7.6830   -0.5170   18.7600 C   0  0  0  0  0  0  0  0  0  0  0  0
    6.1600    0.3870   20.1140 C   0  0  0  0  0  0  0  0  0  0  0  0
   11.5217    1.0079   23.5949 C   0  0  0  0  0  0  0  0  0  0  0  0
    7.2210   -0.4620   20.0350 C   0  0  0  0  0  0  0  0  0  0  0  0
    5.9810    0.8330   18.8060 C   0  0  0  0  0  0  0  0  0  0  0  0
    9.3300   -1.3350   23.6390 C   0  0  0  0  0  0  0  0  0  0  0  0
    9.2850   -3.7090   25.1090 C   0  0  0  0  0  0  0  0  0  0  0  0
    8.9510    0.1280   21.6880 C   0  0  0  0  0  0  0  0  0  0  0  0
    8.2346   -4.9977   26.8024 C   0  0  0  0  0  0  0  0  0  0  0  0
    8.0810   -0.9750   21.0820 C   0  0  0  0  0  0  0  0  0  0  0  0
   10.0220    1.0430   23.6570 C   0  0  0  0  0  0  0  0  0  0  0  0
    6.9440    0.2550   18.0100 N   0  0  0  0  0  0  0  0  0  0  0  0
    9.4200   -0.0840   22.9530 N   0  0  0  0  0  0  0  0  0  0  0  0
    9.1870    1.1500   21.0630 O   0  0  0  0  0  0  0  0  0  0  0  0
    9.2631   -4.8614   25.8229 O   0  0  0  0  0  0  0  0  0  0  0  0
   15.3932    0.9189   23.4337 H   0  0  0  0  0  0  0  0  0  0  0  0
    3.6260    2.0115   21.6299 H   0  0  0  0  0  0  0  0  0  0  0  0
   14.2029   -0.2090   25.2955 H   0  0  0  0  0  0  0  0  0  0  0  0
   14.1048    2.1043   21.6752 H   0  0  0  0  0  0  0  0  0  0  0  0
    3.2721    2.7866   19.3205 H   0  0  0  0  0  0  0  0  0  0  0  0
    5.4862    0.4667   22.1694 H   0  0  0  0  0  0  0  0  0  0  0  0
   11.7330   -0.1555   25.4027 H   0  0  0  0  0  0  0  0  0  0  0  0
   11.6349    2.1636   21.7735 H   0  0  0  0  0  0  0  0  0  0  0  0
    4.7828    2.0658   17.4849 H   0  0  0  0  0  0  0  0  0  0  0  0
    7.5951   -0.7786   24.8000 H   0  0  0  0  0  0  0  0  0  0  0  0
   11.0406   -2.1866   22.6351 H   0  0  0  0  0  0  0  0  0  0  0  0
    7.5664   -2.8674   26.1055 H   0  0  0  0  0  0  0  0  0  0  0  0
   11.0119   -4.2671   23.9461 H   0  0  0  0  0  0  0  0  0  0  0  0
    8.5287   -1.0850   18.3402 H   0  0  0  0  0  0  0  0  0  0  0  0
    8.3310   -5.9654   27.3007 H   0  0  0  0  0  0  0  0  0  0  0  0
    7.2574   -4.9205   26.3190 H   0  0  0  0  0  0  0  0  0  0  0  0
    8.3382   -4.1986   27.5402 H   0  0  0  0  0  0  0  0  0  0  0  0
    7.4884   -1.4160   21.8960 H   0  0  0  0  0  0  0  0  0  0  0  0
    8.7523   -1.7574   20.7004 H   0  0  0  0  0  0  0  0  0  0  0  0
    9.6778    1.0140   24.6966 H   0  0  0  0  0  0  0  0  0  0  0  0
    9.6316    1.9637   23.2107 H   0  0  0  0  0  0  0  0  0  0  0  0
    7.0329    0.4233   17.0175 H   0  0  0  0  0  0  0  0  0  0  0  0
  1  3  1  0  0  0  0
  1  4  2  0  0  0  0
  2  5  1  0  0  0  0
  2  6  2  0  0  0  0
  3  7  2  0  0  0  0
  4  8  1  0  0  0  0
  5  9  2  0  0  0  0
  6 15  1  0  0  0  0
  7 16  1  0  0  0  0
  8 16  2  0  0  0  0
  9 18  1  0  0  0  0
 10 12  2  0  0  0  0
 10 19  1  0  0  0  0
 11 13  1  0  0  0  0
 11 19  2  0  0  0  0
 12 20  1  0  0  0  0
 13 20  2  0  0  0  0
 14 17  2  0  0  0  0
 14 25  1  0  0  0  0
 15 17  1  0  0  0  0
 15 18  2  0  0  0  0
 16 24  1  0  0  0  0
 17 23  1  0  0  0  0
 18 25  1  0  0  0  0
 19 26  1  0  0  0  0
 20 28  1  0  0  0  0
 21 23  1  0  0  0  0
 21 26  1  0  0  0  0
 21 27  2  0  0  0  0
 22 28  1  0  0  0  0
 24 26  1  0  0  0  0
  1 29  1  0  0  0  0
  2 30  1  0  0  0  0
  3 31  1  0  0  0  0
  4 32  1  0  0  0  0
  5 33  1  0  0  0  0
  6 34  1  0  0  0  0
  7 35  1  0  0  0  0
  8 36  1  0  0  0  0
  9 37  1  0  0  0  0
 10 38  1  0  0  0  0
 11 39  1  0  0  0  0
 12 40  1  0  0  0  0
 13 41  1  0  0  0  0
 14 42  1  0  0  0  0
 22 43  1  0  0  0  0
 22 44  1  0  0  0  0
 22 45  1  0  0  0  0
 23 46  1  0  0  0  0
 23 47  1  0  0  0  0
 24 48  1  0  0  0  0
 24 49  1  0  0  0  0
 25 50  1  0  0  0  0
M  END
> <clash_score>
0

> <docking_score>
-8.28325080871582

> <overlap_score>
0.9956545829772949

$$$$
BENZO_463_1
  -OEChem-08222022423D

 49 52  0     0  0  0  0  0  0999 V2000
    4.2970    1.6690   20.8430 C   0  0  0  0  0  0  0  0  0  0  0  0
    4.0980    2.1130   19.5350 C   0  0  0  0  0  0  0  0  0  0  0  0
    5.3360    0.8000   21.1530 C   0  0  0  0  0  0  0  0  0  0  0  0
    8.3310   -2.7170   25.3430 C   0  0  0  0  0  0  0  0  0  0  0  0
   10.2570   -3.5000   24.1350 C   0  0  0  0  0  0  0  0  0  0  0  0
    4.9400    1.7060   18.5060 C   0  0  0  0  0  0  0  0  0  0  0  0
    8.3510   -1.5420   24.6110 C   0  0  0  0  0  0  0  0  0  0  0  0
   10.2760   -2.3270   23.4020 C   0  0  0  0  0  0  0  0  0  0  0  0
   12.4295    0.9466   24.6692 C   0  0  0  0  0  0  0  0  0  0  0  0
    7.6830   -0.5170   18.7600 C   0  0  0  0  0  0  0  0  0  0  0  0
   12.3161    1.0259   22.4747 C   0  0  0  0  0  0  0  0  0  0  0  0
    6.1600    0.3870   20.1140 C   0  0  0  0  0  0  0  0  0  0  0  0
    9.2850   -3.7090   25.1090 C   0  0  0  0  0  0  0  0  0  0  0  0
   11.5217    1.0079   23.5949 C   0  0  0  0  0  0  0  0  0  0  0  0
    7.2210   -0.4620   20.0350 C   0  0  0  0  0  0  0  0  0  0  0  0
    5.9810    0.8330   18.8060 C   0  0  0  0  0  0  0  0  0  0  0  0
    9.3300   -1.3350   23.6390 C   0  0  0  0  0  0  0  0  0  0  0  0
    8.9510    0.1280   21.6880 C   0  0  0  0  0  0  0  0  0  0  0  0
    9.2610   -4.9721   25.8916 C   0  0  0  0  0  0  0  0  0  0  0  0
   14.7958    0.9722   22.1181 C   0  0  0  0  0  0  0  0  0  0  0  0
    8.0810   -0.9750   21.0820 C   0  0  0  0  0  0  0  0  0  0  0  0
   10.0220    1.0430   23.6570 C   0  0  0  0  0  0  0  0  0  0  0  0
   13.7032    0.9267   24.2674 N   0  0  0  0  0  0  0  0  0  0  0  0
    6.9440    0.2550   18.0100 N   0  0  0  0  0  0  0  0  0  0  0  0
   13.6014    0.9758   22.9283 N   0  0  0  0  0  0  0  0  0  0  0  0
    9.4200   -0.0840   22.9530 N   0  0  0  0  0  0  0  0  0  0  0  0
    9.1870    1.1500   21.0630 O   0  0  0  0  0  0  0  0  0  0  0  0
    3.6260    2.0115   21.6299 H   0  0  0  0  0  0  0  0  0  0  0  0
    3.2721    2.7866   19.3205 H   0  0  0  0  0  0  0  0  0  0  0  0
    5.4862    0.4667   22.1694 H   0  0  0  0  0  0  0  0  0  0  0  0
    7.5665   -2.8638   26.1066 H   0  0  0  0  0  0  0  0  0  0  0  0
   11.0137   -4.2652   23.9447 H   0  0  0  0  0  0  0  0  0  0  0  0
    4.7828    2.0658   17.4849 H   0  0  0  0  0  0  0  0  0  0  0  0
    7.5948   -0.7788   24.7997 H   0  0  0  0  0  0  0  0  0  0  0  0
   11.0411   -2.1856   22.6358 H   0  0  0  0  0  0  0  0  0  0  0  0
   12.2184    0.9145   25.7287 H   0  0  0  0  0  0  0  0  0  0  0  0
    8.5287   -1.0850   18.3402 H   0  0  0  0  0  0  0  0  0  0  0  0
   12.0821    1.0677   21.4195 H   0  0  0  0  0  0  0  0  0  0  0  0
    8.6398   -5.7223   25.3871 H   0  0  0  0  0  0  0  0  0  0  0  0
   10.2715   -5.3829   26.0145 H   0  0  0  0  0  0  0  0  0  0  0  0
    8.8596   -4.8092   26.9004 H   0  0  0  0  0  0  0  0  0  0  0  0
   15.1026    2.0102   21.9649 H   0  0  0  0  0  0  0  0  0  0  0  0
   15.5826    0.4128   22.6318 H   0  0  0  0  0  0  0  0  0  0  0  0
   14.5811    0.4906   21.1600 H   0  0  0  0  0  0  0  0  0  0  0  0
    7.4884   -1.4160   21.8960 H   0  0  0  0  0  0  0  0  0  0  0  0
    8.7523   -1.7574   20.7004 H   0  0  0  0  0  0  0  0  0  0  0  0
    9.6778    1.0140   24.6966 H   0  0  0  0  0  0  0  0  0  0  0  0
    9.6316    1.9637   23.2107 H   0  0  0  0  0  0  0  0  0  0  0  0
    7.0329    0.4233   17.0175 H   0  0  0  0  0  0  0  0  0  0  0  0
  1  2  1  0  0  0  0
  1  3  2  0  0  0  0
  2  6  2  0  0  0  0
  3 12  1  0  0  0  0
  4  7  2  0  0  0  0
  4 13  1  0  0  0  0
  5  8  1  0  0  0  0
  5 13  2  0  0  0  0
  6 16  1  0  0  0  0
  7 17  1  0  0  0  0
  8 17  2  0  0  0  0
  9 14  1  0  0  0  0
  9 23  2  0  0  0  0
 10 15  2  0  0  0  0
 10 24  1  0  0  0  0
 11 14  2  0  0  0  0
 11 25  1  0  0  0  0
 12 15  1  0  0  0  0
 12 16  2  0  0  0  0
 13 19  1  0  0  0  0
 14 22  1  0  0  0  0
 15 21  1  0  0  0  0
 16 24  1  0  0  0  0
 17 26  1  0  0  0  0
 18 21  1  0  0  0  0
 18 26  1  0  0  0  0
 18 27  2  0  0  0  0
 20 25  1  0  0  0  0
 22 26  1  0  0  0  0
 23 25  1  0  0  0  0
  1 28  1  0  0  0  0
  2 29  1  0  0  0  0
  3 30  1  0  0  0  0
  4 31  1  0  0  0  0
  5 32  1  0  0  0  0
  6 33  1  0  0  0  0
  7 34  1  0  0  0  0
  8 35  1  0  0  0  0
  9 36  1  0  0  0  0
 10 37  1  0  0  0  0
 11 38  1  0  0  0  0
 19 39  1  0  0  0  0
 19 40  1  0  0  0  0
 19 41  1  0  0  0  0
 20 42  1  0  0  0  0
 20 43  1  0  0  0  0
 20 44  1  0  0  0  0
 21 45  1  0  0  0  0
 21 46  1  0  0  0  0
 22 47  1  0  0  0  0
 22 48  1  0  0  0  0
 24 49  1  0  0  0  0
M  END
> <clash_score>
0

> <docking_score>
-8.51624870300293

> <overlap_score>
0.9625561237335205

$$$$
BENZO_464_1
  -OEChem-08222022423D

 47 50  0     0  0  0  0  0  0999 V2000
    4.2970    1.6690   20.8430 C   0  0  0  0  0  0  0  0  0  0  0  0
    4.0980    2.1130   19.5350 C   0  0  0  0  0  0  0  0  0  0  0  0
    5.3360    0.8000   21.1530 C   0  0  0  0  0  0  0  0  0  0  0  0
    4.9400    1.7060   18.5060 C   0  0  0  0  0  0  0  0  0  0  0  0
    8.3510   -1.5420   24.6110 C   0  0  0  0  0  0  0  0  0  0  0  0
   10.2760   -2.3270   23.4020 C   0  0  0  0  0  0  0  0  0  0  0  0
    8.3310   -2.7170   25.3430 C   0  0  0  0  0  0  0  0  0  0  0  0
   10.2570   -3.5000   24.1350 C   0  0  0  0  0  0  0  0  0  0  0  0
   12.2675    1.0332   22.3812 C   0  0  0  0  0  0  0  0  0  0  0  0
    7.6830   -0.5170   18.7600 C   0  0  0  0  0  0  0  0  0  0  0  0
   13.6257    0.9906   22.6074 C   0  0  0  0  0  0  0  0  0  0  0  0
   12.3384    0.9467   24.7028 C   0  0  0  0  0  0  0  0  0  0  0  0
    6.1600    0.3870   20.1140 C   0  0  0  0  0  0  0  0  0  0  0  0
   11.5217    1.0079   23.5949 C   0  0  0  0  0  0  0  0  0  0  0  0
    7.2210   -0.4620   20.0350 C   0  0  0  0  0  0  0  0  0  0  0  0
    5.9810    0.8330   18.8060 C   0  0  0  0  0  0  0  0  0  0  0  0
    9.3300   -1.3350   23.6390 C   0  0  0  0  0  0  0  0  0  0  0  0
    9.2850   -3.7090   25.1090 C   0  0  0  0  0  0  0  0  0  0  0  0
    8.9510    0.1280   21.6880 C   0  0  0  0  0  0  0  0  0  0  0  0
    8.2346   -4.9977   26.8024 C   0  0  0  0  0  0  0  0  0  0  0  0
    8.0810   -0.9750   21.0820 C   0  0  0  0  0  0  0  0  0  0  0  0
   10.0220    1.0430   23.6570 C   0  0  0  0  0  0  0  0  0  0  0  0
    6.9440    0.2550   18.0100 N   0  0  0  0  0  0  0  0  0  0  0  0
    9.4200   -0.0840   22.9530 N   0  0  0  0  0  0  0  0  0  0  0  0
    9.1870    1.1500   21.0630 O   0  0  0  0  0  0  0  0  0  0  0  0
    9.2631   -4.8614   25.8229 O   0  0  0  0  0  0  0  0  0  0  0  0
   13.9969    0.9203   24.2776 S   0  0  0  0  0  0  0  0  0  0  0  0
    3.6260    2.0115   21.6299 H   0  0  0  0  0  0  0  0  0  0  0  0
    3.2721    2.7866   19.3205 H   0  0  0  0  0  0  0  0  0  0  0  0
    5.4862    0.4667   22.1694 H   0  0  0  0  0  0  0  0  0  0  0  0
    4.7828    2.0658   17.4849 H   0  0  0  0  0  0  0  0  0  0  0  0
    7.5951   -0.7786   24.8000 H   0  0  0  0  0  0  0  0  0  0  0  0
   11.0406   -2.1866   22.6351 H   0  0  0  0  0  0  0  0  0  0  0  0
    7.5664   -2.8674   26.1055 H   0  0  0  0  0  0  0  0  0  0  0  0
   11.0119   -4.2671   23.9461 H   0  0  0  0  0  0  0  0  0  0  0  0
   11.8338    1.0798   21.3902 H   0  0  0  0  0  0  0  0  0  0  0  0
    8.5287   -1.0850   18.3402 H   0  0  0  0  0  0  0  0  0  0  0  0
   14.4176    0.9966   21.8719 H   0  0  0  0  0  0  0  0  0  0  0  0
   12.0446    0.9149   25.7428 H   0  0  0  0  0  0  0  0  0  0  0  0
    8.3310   -5.9654   27.3007 H   0  0  0  0  0  0  0  0  0  0  0  0
    7.2574   -4.9205   26.3190 H   0  0  0  0  0  0  0  0  0  0  0  0
    8.3382   -4.1986   27.5402 H   0  0  0  0  0  0  0  0  0  0  0  0
    7.4884   -1.4160   21.8960 H   0  0  0  0  0  0  0  0  0  0  0  0
    8.7523   -1.7574   20.7004 H   0  0  0  0  0  0  0  0  0  0  0  0
    9.6778    1.0140   24.6966 H   0  0  0  0  0  0  0  0  0  0  0  0
    9.6316    1.9637   23.2107 H   0  0  0  0  0  0  0  0  0  0  0  0
    7.0329    0.4233   17.0175 H   0  0  0  0  0  0  0  0  0  0  0  0
  1  2  1  0  0  0  0
  1  3  2  0  0  0  0
  2  4  2  0  0  0  0
  3 13  1  0  0  0  0
  4 16  1  0  0  0  0
  5  7  2  0  0  0  0
  5 17  1  0  0  0  0
  6  8  1  0  0  0  0
  6 17  2  0  0  0  0
  7 18  1  0  0  0  0
  8 18  2  0  0  0  0
  9 11  2  0  0  0  0
  9 14  1  0  0  0  0
 10 15  2  0  0  0  0
 10 23  1  0  0  0  0
 11 27  1  0  0  0  0
 12 14  2  0  0  0  0
 12 27  1  0  0  0  0
 13 15  1  0  0  0  0
 13 16  2  0  0  0  0
 14 22  1  0  0  0  0
 15 21  1  0  0  0  0
 16 23  1  0  0  0  0
 17 24  1  0  0  0  0
 18 26  1  0  0  0  0
 19 21  1  0  0  0  0
 19 24  1  0  0  0  0
 19 25  2  0  0  0  0
 20 26  1  0  0  0  0
 22 24  1  0  0  0  0
  1 28  1  0  0  0  0
  2 29  1  0  0  0  0
  3 30  1  0  0  0  0
  4 31  1  0  0  0  0
  5 32  1  0  0  0  0
  6 33  1  0  0  0  0
  7 34  1  0  0  0  0
  8 35  1  0  0  0  0
  9 36  1  0  0  0  0
 10 37  1  0  0  0  0
 11 38  1  0  0  0  0
 12 39  1  0  0  0  0
 20 40  1  0  0  0  0
 20 41  1  0  0  0  0
 20 42  1  0  0  0  0
 21 43  1  0  0  0  0
 21 44  1  0  0  0  0
 22 45  1  0  0  0  0
 22 46  1  0  0  0  0
 23 47  1  0  0  0  0
M  END
> <clash_score>
0

> <docking_score>
-8.529449462890625

> <overlap_score>
0.9697704315185547

$$$$
BENZO_467_1
  -OEChem-08222022423D

 50 53  0     0  0  0  0  0  0999 V2000
    4.2970    1.6690   20.8430 C   0  0  0  0  0  0  0  0  0  0  0  0
    4.0980    2.1130   19.5350 C   0  0  0  0  0  0  0  0  0  0  0  0
    5.3360    0.8000   21.1530 C   0  0  0  0  0  0  0  0  0  0  0  0
    4.9400    1.7060   18.5060 C   0  0  0  0  0  0  0  0  0  0  0  0
    8.3510   -1.5420   24.6110 C   0  0  0  0  0  0  0  0  0  0  0  0
   10.2760   -2.3270   23.4020 C   0  0  0  0  0  0  0  0  0  0  0  0
    8.3310   -2.7170   25.3430 C   0  0  0  0  0  0  0  0  0  0  0  0
   10.2570   -3.5000   24.1350 C   0  0  0  0  0  0  0  0  0  0  0  0
   12.4358    1.7439   24.3724 C   0  0  0  0  0  0  0  0  0  0  0  0
    7.6830   -0.5170   18.7600 C   0  0  0  0  0  0  0  0  0  0  0  0
   12.3100    0.2469   22.7668 C   0  0  0  0  0  0  0  0  0  0  0  0
    6.1600    0.3870   20.1140 C   0  0  0  0  0  0  0  0  0  0  0  0
   11.5217    1.0079   23.5949 C   0  0  0  0  0  0  0  0  0  0  0  0
    7.2210   -0.4620   20.0350 C   0  0  0  0  0  0  0  0  0  0  0  0
    5.9810    0.8330   18.8060 C   0  0  0  0  0  0  0  0  0  0  0  0
    9.3300   -1.3350   23.6390 C   0  0  0  0  0  0  0  0  0  0  0  0
    9.2850   -3.7090   25.1090 C   0  0  0  0  0  0  0  0  0  0  0  0
    8.9510    0.1280   21.6880 C   0  0  0  0  0  0  0  0  0  0  0  0
   14.7884    0.0124   22.4815 C   0  0  0  0  0  0  0  0  0  0  0  0
    8.2346   -4.9977   26.8024 C   0  0  0  0  0  0  0  0  0  0  0  0
    8.0810   -0.9750   21.0820 C   0  0  0  0  0  0  0  0  0  0  0  0
   10.0220    1.0430   23.6570 C   0  0  0  0  0  0  0  0  0  0  0  0
   13.7076    1.4745   24.0657 N   0  0  0  0  0  0  0  0  0  0  0  0
    6.9440    0.2550   18.0100 N   0  0  0  0  0  0  0  0  0  0  0  0
   13.5982    0.5607   23.0864 N   0  0  0  0  0  0  0  0  0  0  0  0
    9.4200   -0.0840   22.9530 N   0  0  0  0  0  0  0  0  0  0  0  0
    9.1870    1.1500   21.0630 O   0  0  0  0  0  0  0  0  0  0  0  0
    9.2631   -4.8614   25.8229 O   0  0  0  0  0  0  0  0  0  0  0  0
    3.6260    2.0115   21.6299 H   0  0  0  0  0  0  0  0  0  0  0  0
    3.2721    2.7866   19.3205 H   0  0  0  0  0  0  0  0  0  0  0  0
    5.4862    0.4667   22.1694 H   0  0  0  0  0  0  0  0  0  0  0  0
    4.7828    2.0658   17.4849 H   0  0  0  0  0  0  0  0  0  0  0  0
    7.5951   -0.7786   24.8000 H   0  0  0  0  0  0  0  0  0  0  0  0
   11.0406   -2.1866   22.6351 H   0  0  0  0  0  0  0  0  0  0  0  0
    7.5664   -2.8674   26.1055 H   0  0  0  0  0  0  0  0  0  0  0  0
   11.0119   -4.2671   23.9461 H   0  0  0  0  0  0  0  0  0  0  0  0
   12.2308    2.4652   25.1508 H   0  0  0  0  0  0  0  0  0  0  0  0
    8.5287   -1.0850   18.3402 H   0  0  0  0  0  0  0  0  0  0  0  0
   12.0700   -0.4744   21.9974 H   0  0  0  0  0  0  0  0  0  0  0  0
   15.0569    0.6453   21.6315 H   0  0  0  0  0  0  0  0  0  0  0  0
   15.5971   -0.0026   23.2174 H   0  0  0  0  0  0  0  0  0  0  0  0
   14.5870   -1.0100   22.1498 H   0  0  0  0  0  0  0  0  0  0  0  0
    8.3310   -5.9654   27.3007 H   0  0  0  0  0  0  0  0  0  0  0  0
    7.2574   -4.9205   26.3190 H   0  0  0  0  0  0  0  0  0  0  0  0
    8.3382   -4.1986   27.5402 H   0  0  0  0  0  0  0  0  0  0  0  0
    7.4884   -1.4160   21.8960 H   0  0  0  0  0  0  0  0  0  0  0  0
    8.7523   -1.7574   20.7004 H   0  0  0  0  0  0  0  0  0  0  0  0
    9.6778    1.0140   24.6966 H   0  0  0  0  0  0  0  0  0  0  0  0
    9.6316    1.9637   23.2107 H   0  0  0  0  0  0  0  0  0  0  0  0
    7.0329    0.4233   17.0175 H   0  0  0  0  0  0  0  0  0  0  0  0
  1  2  1  0  0  0  0
  1  3  2  0  0  0  0
  2  4  2  0  0  0  0
  3 12  1  0  0  0  0
  4 15  1  0  0  0  0
  5  7  2  0  0  0  0
  5 16  1  0  0  0  0
  6  8  1  0  0  0  0
  6 16  2  0  0  0  0
  7 17  1  0  0  0  0
  8 17  2  0  0  0  0
  9 13  1  0  0  0  0
  9 23  2  0  0  0  0
 10 14  2  0  0  0  0
 10 24  1  0  0  0  0
 11 13  2  0  0  0  0
 11 25  1  0  0  0  0
 12 14  1  0  0  0  0
 12 15  2  0  0  0  0
 13 22  1  0  0  0  0
 14 21  1  0  0  0  0
 15 24  1  0  0  0  0
 16 26  1  0  0  0  0
 17 28  1  0  0  0  0
 18 21  1  0  0  0  0
 18 26  1  0  0  0  0
 18 27  2  0  0  0  0
 19 25  1  0  0  0  0
 20 28  1  0  0  0  0
 22 26  1  0  0  0  0
 23 25  1  0  0  0  0
  1 29  1  0  0  0  0
  2 30  1  0  0  0  0
  3 31  1  0  0  0  0
  4 32  1  0  0  0  0
  5 33  1  0  0  0  0
  6 34  1  0  0  0  0
  7 35  1  0  0  0  0
  8 36  1  0  0  0  0
  9 37  1  0  0  0  0
 10 38  1  0  0  0  0
 11 39  1  0  0  0  0
 19 40  1  0  0  0  0
 19 41  1  0  0  0  0
 19 42  1  0  0  0  0
 20 43  1  0  0  0  0
 20 44  1  0  0  0  0
 20 45  1  0  0  0  0
 21 46  1  0  0  0  0
 21 47  1  0  0  0  0
 22 48  1  0  0  0  0
 22 49  1  0  0  0  0
 24 50  1  0  0  0  0
M  END
> <clash_score>
0

> <docking_score>
-8.497859954833984

> <overlap_score>
0.9817348122596741

$$$$
BENZO_466_1
  -OEChem-08222022423D

 50 53  0     0  0  0  0  0  0999 V2000
    4.2970    1.6690   20.8430 C   0  0  0  0  0  0  0  0  0  0  0  0
    4.0980    2.1130   19.5350 C   0  0  0  0  0  0  0  0  0  0  0  0
   13.6668    1.7807   24.3938 C   0  0  0  0  0  0  0  0  0  0  0  0
    5.3360    0.8000   21.1530 C   0  0  0  0  0  0  0  0  0  0  0  0
   12.2735    1.8136   24.4501 C   0  0  0  0  0  0  0  0  0  0  0  0
    4.9400    1.7060   18.5060 C   0  0  0  0  0  0  0  0  0  0  0  0
    8.3510   -1.5420   24.6110 C   0  0  0  0  0  0  0  0  0  0  0  0
   10.2760   -2.3270   23.4020 C   0  0  0  0  0  0  0  0  0  0  0  0
    8.3310   -2.7170   25.3430 C   0  0  0  0  0  0  0  0  0  0  0  0
   10.2570   -3.5000   24.1350 C   0  0  0  0  0  0  0  0  0  0  0  0
   14.3084    0.9422   23.4822 C   0  0  0  0  0  0  0  0  0  0  0  0
   12.1632    0.1693   22.6834 C   0  0  0  0  0  0  0  0  0  0  0  0
    7.6830   -0.5170   18.7600 C   0  0  0  0  0  0  0  0  0  0  0  0
    6.1600    0.3870   20.1140 C   0  0  0  0  0  0  0  0  0  0  0  0
   11.5217    1.0079   23.5949 C   0  0  0  0  0  0  0  0  0  0  0  0
    7.2210   -0.4620   20.0350 C   0  0  0  0  0  0  0  0  0  0  0  0
    5.9810    0.8330   18.8060 C   0  0  0  0  0  0  0  0  0  0  0  0
    9.3300   -1.3350   23.6390 C   0  0  0  0  0  0  0  0  0  0  0  0
    9.2850   -3.7090   25.1090 C   0  0  0  0  0  0  0  0  0  0  0  0
   13.5566    0.1365   22.6270 C   0  0  0  0  0  0  0  0  0  0  0  0
    8.9510    0.1280   21.6880 C   0  0  0  0  0  0  0  0  0  0  0  0
    8.2346   -4.9977   26.8024 C   0  0  0  0  0  0  0  0  0  0  0  0
    8.0810   -0.9750   21.0820 C   0  0  0  0  0  0  0  0  0  0  0  0
   10.0220    1.0430   23.6570 C   0  0  0  0  0  0  0  0  0  0  0  0
    6.9440    0.2550   18.0100 N   0  0  0  0  0  0  0  0  0  0  0  0
    9.4200   -0.0840   22.9530 N   0  0  0  0  0  0  0  0  0  0  0  0
    9.1870    1.1500   21.0630 O   0  0  0  0  0  0  0  0  0  0  0  0
    9.2631   -4.8614   25.8229 O   0  0  0  0  0  0  0  0  0  0  0  0
   14.3487   -0.8988   21.5034 Cl  0  0  0  0  0  0  0  0  0  0  0  0
    3.6260    2.0115   21.6299 H   0  0  0  0  0  0  0  0  0  0  0  0
    3.2721    2.7866   19.3205 H   0  0  0  0  0  0  0  0  0  0  0  0
   14.2519    2.4082   25.0600 H   0  0  0  0  0  0  0  0  0  0  0  0
    5.4862    0.4667   22.1694 H   0  0  0  0  0  0  0  0  0  0  0  0
   11.7820    2.4700   25.1636 H   0  0  0  0  0  0  0  0  0  0  0  0
    4.7828    2.0658   17.4849 H   0  0  0  0  0  0  0  0  0  0  0  0
    7.5951   -0.7786   24.8000 H   0  0  0  0  0  0  0  0  0  0  0  0
   11.0406   -2.1866   22.6351 H   0  0  0  0  0  0  0  0  0  0  0  0
    7.5664   -2.8674   26.1055 H   0  0  0  0  0  0  0  0  0  0  0  0
   11.0119   -4.2671   23.9461 H   0  0  0  0  0  0  0  0  0  0  0  0
   15.3950    0.9267   23.4496 H   0  0  0  0  0  0  0  0  0  0  0  0
   11.5726   -0.4565   22.0184 H   0  0  0  0  0  0  0  0  0  0  0  0
    8.5287   -1.0850   18.3402 H   0  0  0  0  0  0  0  0  0  0  0  0
    8.3310   -5.9654   27.3007 H   0  0  0  0  0  0  0  0  0  0  0  0
    7.2574   -4.9205   26.3190 H   0  0  0  0  0  0  0  0  0  0  0  0
    8.3382   -4.1986   27.5402 H   0  0  0  0  0  0  0  0  0  0  0  0
    7.4884   -1.4160   21.8960 H   0  0  0  0  0  0  0  0  0  0  0  0
    8.7523   -1.7574   20.7004 H   0  0  0  0  0  0  0  0  0  0  0  0
    9.6778    1.0140   24.6966 H   0  0  0  0  0  0  0  0  0  0  0  0
    9.6316    1.9637   23.2107 H   0  0  0  0  0  0  0  0  0  0  0  0
    7.0329    0.4233   17.0175 H   0  0  0  0  0  0  0  0  0  0  0  0
  1  2  1  0  0  0  0
  1  4  2  0  0  0  0
  2  6  2  0  0  0  0
  3  5  2  0  0  0  0
  3 11  1  0  0  0  0
  4 14  1  0  0  0  0
  5 15  1  0  0  0  0
  6 17  1  0  0  0  0
  7  9  2  0  0  0  0
  7 18  1  0  0  0  0
  8 10  1  0  0  0  0
  8 18  2  0  0  0  0
  9 19  1  0  0  0  0
 10 19  2  0  0  0  0
 11 20  2  0  0  0  0
 12 15  2  0  0  0  0
 12 20  1  0  0  0  0
 13 16  2  0  0  0  0
 13 25  1  0  0  0  0
 14 16  1  0  0  0  0
 14 17  2  0  0  0  0
 15 24  1  0  0  0  0
 16 23  1  0  0  0  0
 17 25  1  0  0  0  0
 18 26  1  0  0  0  0
 19 28  1  0  0  0  0
 20 29  1  0  0  0  0
 21 23  1  0  0  0  0
 21 26  1  0  0  0  0
 21 27  2  0  0  0  0
 22 28  1  0  0  0  0
 24 26  1  0  0  0  0
  1 30  1  0  0  0  0
  2 31  1  0  0  0  0
  3 32  1  0  0  0  0
  4 33  1  0  0  0  0
  5 34  1  0  0  0  0
  6 35  1  0  0  0  0
  7 36  1  0  0  0  0
  8 37  1  0  0  0  0
  9 38  1  0  0  0  0
 10 39  1  0  0  0  0
 11 40  1  0  0  0  0
 12 41  1  0  0  0  0
 13 42  1  0  0  0  0
 22 43  1  0  0  0  0
 22 44  1  0  0  0  0
 22 45  1  0  0  0  0
 23 46  1  0  0  0  0
 23 47  1  0  0  0  0
 24 48  1  0  0  0  0
 24 49  1  0  0  0  0
 25 50  1  0  0  0  0
M  END
> <clash_score>
0

> <docking_score>
-7.534172058105469

> <overlap_score>
0.976617157459259

$$$$
BENZO_469_1
  -OEChem-08222022423D

 60 64  0     0  0  0  0  0  0999 V2000
   14.3082    0.9431   23.4783 C   0  0  0  0  0  0  0  0  0  0  0  0
    4.2970    1.6690   20.8430 C   0  0  0  0  0  0  0  0  0  0  0  0
   13.6391    0.3091   24.5251 C   0  0  0  0  0  0  0  0  0  0  0  0
   13.5841    1.6096   22.4898 C   0  0  0  0  0  0  0  0  0  0  0  0
    4.0980    2.1130   19.5350 C   0  0  0  0  0  0  0  0  0  0  0  0
    5.3360    0.8000   21.1530 C   0  0  0  0  0  0  0  0  0  0  0  0
   12.2459    0.3415   24.5835 C   0  0  0  0  0  0  0  0  0  0  0  0
   12.1908    1.6420   22.5481 C   0  0  0  0  0  0  0  0  0  0  0  0
    4.9400    1.7060   18.5060 C   0  0  0  0  0  0  0  0  0  0  0  0
    8.3310   -2.7170   25.3430 C   0  0  0  0  0  0  0  0  0  0  0  0
   10.2570   -3.5000   24.1350 C   0  0  0  0  0  0  0  0  0  0  0  0
    8.3510   -1.5420   24.6110 C   0  0  0  0  0  0  0  0  0  0  0  0
   10.2760   -2.3270   23.4020 C   0  0  0  0  0  0  0  0  0  0  0  0
    7.6830   -0.5170   18.7600 C   0  0  0  0  0  0  0  0  0  0  0  0
    6.1600    0.3870   20.1140 C   0  0  0  0  0  0  0  0  0  0  0  0
   11.5217    1.0079   23.5949 C   0  0  0  0  0  0  0  0  0  0  0  0
    7.2210   -0.4620   20.0350 C   0  0  0  0  0  0  0  0  0  0  0  0
    5.9810    0.8330   18.8060 C   0  0  0  0  0  0  0  0  0  0  0  0
    9.2850   -3.7090   25.1090 C   0  0  0  0  0  0  0  0  0  0  0  0
    9.3300   -1.3350   23.6390 C   0  0  0  0  0  0  0  0  0  0  0  0
    8.0645   -5.4725   26.3675 C   0  0  0  0  0  0  0  0  0  0  0  0
    8.9510    0.1280   21.6880 C   0  0  0  0  0  0  0  0  0  0  0  0
    8.2657   -6.7598   27.1473 C   0  0  0  0  0  0  0  0  0  0  0  0
    9.4086   -6.6167   28.1369 C   0  0  0  0  0  0  0  0  0  0  0  0
   10.6976   -6.1494   27.4682 C   0  0  0  0  0  0  0  0  0  0  0  0
   10.4952   -5.7057   26.0203 C   0  0  0  0  0  0  0  0  0  0  0  0
    8.0810   -0.9750   21.0820 C   0  0  0  0  0  0  0  0  0  0  0  0
   10.0220    1.0430   23.6570 C   0  0  0  0  0  0  0  0  0  0  0  0
    6.9440    0.2550   18.0100 N   0  0  0  0  0  0  0  0  0  0  0  0
    9.2623   -4.9266   25.8635 N   0  0  0  0  0  0  0  0  0  0  0  0
    9.4200   -0.0840   22.9530 N   0  0  0  0  0  0  0  0  0  0  0  0
    6.9248   -5.0502   26.1760 O   0  0  0  0  0  0  0  0  0  0  0  0
    9.1870    1.1500   21.0630 O   0  0  0  0  0  0  0  0  0  0  0  0
   15.3932    0.9189   23.4337 H   0  0  0  0  0  0  0  0  0  0  0  0
    3.6260    2.0115   21.6299 H   0  0  0  0  0  0  0  0  0  0  0  0
   14.2029   -0.2090   25.2955 H   0  0  0  0  0  0  0  0  0  0  0  0
   14.1048    2.1042   21.6752 H   0  0  0  0  0  0  0  0  0  0  0  0
    3.2721    2.7866   19.3205 H   0  0  0  0  0  0  0  0  0  0  0  0
    5.4862    0.4667   22.1694 H   0  0  0  0  0  0  0  0  0  0  0  0
   11.7330   -0.1555   25.4027 H   0  0  0  0  0  0  0  0  0  0  0  0
   11.6349    2.1636   21.7735 H   0  0  0  0  0  0  0  0  0  0  0  0
    4.7828    2.0658   17.4849 H   0  0  0  0  0  0  0  0  0  0  0  0
    7.5639   -2.8621   26.1045 H   0  0  0  0  0  0  0  0  0  0  0  0
   11.0141   -4.2644   23.9422 H   0  0  0  0  0  0  0  0  0  0  0  0
    7.5950   -0.7788   24.8007 H   0  0  0  0  0  0  0  0  0  0  0  0
   11.0408   -2.1861   22.6359 H   0  0  0  0  0  0  0  0  0  0  0  0
    8.5287   -1.0850   18.3402 H   0  0  0  0  0  0  0  0  0  0  0  0
    7.3554   -6.9840   27.6817 H   0  0  0  0  0  0  0  0  0  0  0  0
    8.4789   -7.5440   26.4364 H   0  0  0  0  0  0  0  0  0  0  0  0
    9.1273   -5.9035   28.9395 H   0  0  0  0  0  0  0  0  0  0  0  0
    9.5831   -7.5853   28.6473 H   0  0  0  0  0  0  0  0  0  0  0  0
   11.1329   -5.3101   28.0503 H   0  0  0  0  0  0  0  0  0  0  0  0
   11.4601   -6.9574   27.5099 H   0  0  0  0  0  0  0  0  0  0  0  0
   11.3212   -5.0717   25.7155 H   0  0  0  0  0  0  0  0  0  0  0  0
   10.4471   -6.5779   25.3789 H   0  0  0  0  0  0  0  0  0  0  0  0
    7.4884   -1.4160   21.8960 H   0  0  0  0  0  0  0  0  0  0  0  0
    8.7523   -1.7574   20.7004 H   0  0  0  0  0  0  0  0  0  0  0  0
    9.6778    1.0140   24.6966 H   0  0  0  0  0  0  0  0  0  0  0  0
    9.6316    1.9637   23.2107 H   0  0  0  0  0  0  0  0  0  0  0  0
    7.0329    0.4233   17.0175 H   0  0  0  0  0  0  0  0  0  0  0  0
  1  3  1  0  0  0  0
  1  4  2  0  0  0  0
  2  5  1  0  0  0  0
  2  6  2  0  0  0  0
  3  7  2  0  0  0  0
  4  8  1  0  0  0  0
  5  9  2  0  0  0  0
  6 15  1  0  0  0  0
  7 16  1  0  0  0  0
  8 16  2  0  0  0  0
  9 18  1  0  0  0  0
 10 12  2  0  0  0  0
 10 19  1  0  0  0  0
 11 13  1  0  0  0  0
 11 19  2  0  0  0  0
 12 20  1  0  0  0  0
 13 20  2  0  0  0  0
 14 17  2  0  0  0  0
 14 29  1  0  0  0  0
 15 17  1  0  0  0  0
 15 18  2  0  0  0  0
 16 28  1  0  0  0  0
 17 27  1  0  0  0  0
 18 29  1  0  0  0  0
 19 30  1  0  0  0  0
 20 31  1  0  0  0  0
 21 23  1  0  0  0  0
 21 30  1  0  0  0  0
 21 32  2  0  0  0  0
 22 27  1  0  0  0  0
 22 31  1  0  0  0  0
 22 33  2  0  0  0  0
 23 24  1  0  0  0  0
 24 25  1  0  0  0  0
 25 26  1  0  0  0  0
 26 30  1  0  0  0  0
 28 31  1  0  0  0  0
  1 34  1  0  0  0  0
  2 35  1  0  0  0  0
  3 36  1  0  0  0  0
  4 37  1  0  0  0  0
  5 38  1  0  0  0  0
  6 39  1  0  0  0  0
  7 40  1  0  0  0  0
  8 41  1  0  0  0  0
  9 42  1  0  0  0  0
 10 43  1  0  0  0  0
 11 44  1  0  0  0  0
 12 45  1  0  0  0  0
 13 46  1  0  0  0  0
 14 47  1  0  0  0  0
 23 48  1  0  0  0  0
 23 49  1  0  0  0  0
 24 50  1  0  0  0  0
 24 51  1  0  0  0  0
 25 52  1  0  0  0  0
 25 53  1  0  0  0  0
 26 54  1  0  0  0  0
 26 55  1  0  0  0  0
 27 56  1  0  0  0  0
 27 57  1  0  0  0  0
 28 58  1  0  0  0  0
 28 59  1  0  0  0  0
 29 60  1  0  0  0  0
M  END
> <clash_score>
1.2733863753714896

> <docking_score>
-6.770791053771973

> <overlap_score>
1.015910267829895

$$$$
BENZO_468_1
  -OEChem-08222022423D

 57 61  0     0  0  0  0  0  0999 V2000
    4.2970    1.6690   20.8430 C   0  0  0  0  0  0  0  0  0  0  0  0
    4.0980    2.1130   19.5350 C   0  0  0  0  0  0  0  0  0  0  0  0
    5.3360    0.8000   21.1530 C   0  0  0  0  0  0  0  0  0  0  0  0
    4.9400    1.7060   18.5060 C   0  0  0  0  0  0  0  0  0  0  0  0
    8.3310   -2.7170   25.3430 C   0  0  0  0  0  0  0  0  0  0  0  0
   10.2570   -3.5000   24.1350 C   0  0  0  0  0  0  0  0  0  0  0  0
    8.3510   -1.5420   24.6110 C   0  0  0  0  0  0  0  0  0  0  0  0
   10.2760   -2.3270   23.4020 C   0  0  0  0  0  0  0  0  0  0  0  0
   12.2675    1.0332   22.3812 C   0  0  0  0  0  0  0  0  0  0  0  0
    7.6830   -0.5170   18.7600 C   0  0  0  0  0  0  0  0  0  0  0  0
   13.6257    0.9906   22.6074 C   0  0  0  0  0  0  0  0  0  0  0  0
   12.3384    0.9467   24.7028 C   0  0  0  0  0  0  0  0  0  0  0  0
    6.1600    0.3870   20.1140 C   0  0  0  0  0  0  0  0  0  0  0  0
   11.5217    1.0079   23.5949 C   0  0  0  0  0  0  0  0  0  0  0  0
    7.2210   -0.4620   20.0350 C   0  0  0  0  0  0  0  0  0  0  0  0
    5.9810    0.8330   18.8060 C   0  0  0  0  0  0  0  0  0  0  0  0
    9.2850   -3.7090   25.1090 C   0  0  0  0  0  0  0  0  0  0  0  0
    9.3300   -1.3350   23.6390 C   0  0  0  0  0  0  0  0  0  0  0  0
    8.0645   -5.4725   26.3675 C   0  0  0  0  0  0  0  0  0  0  0  0
    8.9510    0.1280   21.6880 C   0  0  0  0  0  0  0  0  0  0  0  0
    8.2657   -6.7598   27.1473 C   0  0  0  0  0  0  0  0  0  0  0  0
    9.4086   -6.6167   28.1369 C   0  0  0  0  0  0  0  0  0  0  0  0
   10.6976   -6.1494   27.4682 C   0  0  0  0  0  0  0  0  0  0  0  0
   10.4952   -5.7057   26.0203 C   0  0  0  0  0  0  0  0  0  0  0  0
    8.0810   -0.9750   21.0820 C   0  0  0  0  0  0  0  0  0  0  0  0
   10.0220    1.0430   23.6570 C   0  0  0  0  0  0  0  0  0  0  0  0
    6.9440    0.2550   18.0100 N   0  0  0  0  0  0  0  0  0  0  0  0
    9.2623   -4.9266   25.8635 N   0  0  0  0  0  0  0  0  0  0  0  0
    9.4200   -0.0840   22.9530 N   0  0  0  0  0  0  0  0  0  0  0  0
    6.9248   -5.0502   26.1760 O   0  0  0  0  0  0  0  0  0  0  0  0
    9.1870    1.1500   21.0630 O   0  0  0  0  0  0  0  0  0  0  0  0
   13.9969    0.9202   24.2776 S   0  0  0  0  0  0  0  0  0  0  0  0
    3.6260    2.0115   21.6299 H   0  0  0  0  0  0  0  0  0  0  0  0
    3.2721    2.7866   19.3205 H   0  0  0  0  0  0  0  0  0  0  0  0
    5.4862    0.4667   22.1694 H   0  0  0  0  0  0  0  0  0  0  0  0
    4.7828    2.0658   17.4849 H   0  0  0  0  0  0  0  0  0  0  0  0
    7.5639   -2.8621   26.1045 H   0  0  0  0  0  0  0  0  0  0  0  0
   11.0141   -4.2644   23.9422 H   0  0  0  0  0  0  0  0  0  0  0  0
    7.5950   -0.7788   24.8007 H   0  0  0  0  0  0  0  0  0  0  0  0
   11.0408   -2.1861   22.6359 H   0  0  0  0  0  0  0  0  0  0  0  0
   11.8338    1.0798   21.3902 H   0  0  0  0  0  0  0  0  0  0  0  0
    8.5287   -1.0850   18.3402 H   0  0  0  0  0  0  0  0  0  0  0  0
   14.4176    0.9966   21.8719 H   0  0  0  0  0  0  0  0  0  0  0  0
   12.0446    0.9149   25.7428 H   0  0  0  0  0  0  0  0  0  0  0  0
    7.3554   -6.9840   27.6817 H   0  0  0  0  0  0  0  0  0  0  0  0
    8.4789   -7.5440   26.4364 H   0  0  0  0  0  0  0  0  0  0  0  0
    9.1273   -5.9035   28.9395 H   0  0  0  0  0  0  0  0  0  0  0  0
    9.5831   -7.5853   28.6473 H   0  0  0  0  0  0  0  0  0  0  0  0
   11.1329   -5.3101   28.0503 H   0  0  0  0  0  0  0  0  0  0  0  0
   11.4601   -6.9574   27.5099 H   0  0  0  0  0  0  0  0  0  0  0  0
   11.3212   -5.0717   25.7155 H   0  0  0  0  0  0  0  0  0  0  0  0
   10.4471   -6.5779   25.3789 H   0  0  0  0  0  0  0  0  0  0  0  0
    7.4884   -1.4160   21.8960 H   0  0  0  0  0  0  0  0  0  0  0  0
    8.7523   -1.7574   20.7004 H   0  0  0  0  0  0  0  0  0  0  0  0
    9.6778    1.0140   24.6966 H   0  0  0  0  0  0  0  0  0  0  0  0
    9.6316    1.9637   23.2107 H   0  0  0  0  0  0  0  0  0  0  0  0
    7.0329    0.4233   17.0175 H   0  0  0  0  0  0  0  0  0  0  0  0
  1  2  1  0  0  0  0
  1  3  2  0  0  0  0
  2  4  2  0  0  0  0
  3 13  1  0  0  0  0
  4 16  1  0  0  0  0
  5  7  2  0  0  0  0
  5 17  1  0  0  0  0
  6  8  1  0  0  0  0
  6 17  2  0  0  0  0
  7 18  1  0  0  0  0
  8 18  2  0  0  0  0
  9 11  2  0  0  0  0
  9 14  1  0  0  0  0
 10 15  2  0  0  0  0
 10 27  1  0  0  0  0
 11 32  1  0  0  0  0
 12 14  2  0  0  0  0
 12 32  1  0  0  0  0
 13 15  1  0  0  0  0
 13 16  2  0  0  0  0
 14 26  1  0  0  0  0
 15 25  1  0  0  0  0
 16 27  1  0  0  0  0
 17 28  1  0  0  0  0
 18 29  1  0  0  0  0
 19 21  1  0  0  0  0
 19 28  1  0  0  0  0
 19 30  2  0  0  0  0
 20 25  1  0  0  0  0
 20 29  1  0  0  0  0
 20 31  2  0  0  0  0
 21 22  1  0  0  0  0
 22 23  1  0  0  0  0
 23 24  1  0  0  0  0
 24 28  1  0  0  0  0
 26 29  1  0  0  0  0
  1 33  1  0  0  0  0
  2 34  1  0  0  0  0
  3 35  1  0  0  0  0
  4 36  1  0  0  0  0
  5 37  1  0  0  0  0
  6 38  1  0  0  0  0
  7 39  1  0  0  0  0
  8 40  1  0  0  0  0
  9 41  1  0  0  0  0
 10 42  1  0  0  0  0
 11 43  1  0  0  0  0
 12 44  1  0  0  0  0
 21 45  1  0  0  0  0
 21 46  1  0  0  0  0
 22 47  1  0  0  0  0
 22 48  1  0  0  0  0
 23 49  1  0  0  0  0
 23 50  1  0  0  0  0
 24 51  1  0  0  0  0
 24 52  1  0  0  0  0
 25 53  1  0  0  0  0
 25 54  1  0  0  0  0
 26 55  1  0  0  0  0
 26 56  1  0  0  0  0
 27 57  1  0  0  0  0
M  END
> <clash_score>
1.2733863753714896

> <docking_score>
-7.016994476318359

> <overlap_score>
0.9903157353401184

$$$$
BENZO_473_1
  -OEChem-08222022423D

 59 63  0     0  0  0  0  0  0999 V2000
   14.3082    0.9431   23.4783 C   0  0  0  0  0  0  0  0  0  0  0  0
    4.2970    1.6690   20.8430 C   0  0  0  0  0  0  0  0  0  0  0  0
   13.6391    0.3091   24.5251 C   0  0  0  0  0  0  0  0  0  0  0  0
   13.5841    1.6096   22.4898 C   0  0  0  0  0  0  0  0  0  0  0  0
    4.0980    2.1130   19.5350 C   0  0  0  0  0  0  0  0  0  0  0  0
    5.3360    0.8000   21.1530 C   0  0  0  0  0  0  0  0  0  0  0  0
   12.2459    0.3415   24.5835 C   0  0  0  0  0  0  0  0  0  0  0  0
   12.1908    1.6420   22.5481 C   0  0  0  0  0  0  0  0  0  0  0  0
    4.9400    1.7060   18.5060 C   0  0  0  0  0  0  0  0  0  0  0  0
    8.3310   -2.7170   25.3430 C   0  0  0  0  0  0  0  0  0  0  0  0
   10.2570   -3.5000   24.1350 C   0  0  0  0  0  0  0  0  0  0  0  0
    8.3510   -1.5420   24.6110 C   0  0  0  0  0  0  0  0  0  0  0  0
   10.2760   -2.3270   23.4020 C   0  0  0  0  0  0  0  0  0  0  0  0
    7.6830   -0.5170   18.7600 C   0  0  0  0  0  0  0  0  0  0  0  0
    6.1600    0.3870   20.1140 C   0  0  0  0  0  0  0  0  0  0  0  0
   11.5217    1.0079   23.5949 C   0  0  0  0  0  0  0  0  0  0  0  0
    7.2210   -0.4620   20.0350 C   0  0  0  0  0  0  0  0  0  0  0  0
    5.9810    0.8330   18.8060 C   0  0  0  0  0  0  0  0  0  0  0  0
    9.2850   -3.7090   25.1090 C   0  0  0  0  0  0  0  0  0  0  0  0
    9.3300   -1.3350   23.6390 C   0  0  0  0  0  0  0  0  0  0  0  0
    8.9510    0.1280   21.6880 C   0  0  0  0  0  0  0  0  0  0  0  0
    8.7669   -4.9535   27.2147 C   0  0  0  0  0  0  0  0  0  0  0  0
    9.3044   -6.1862   25.1643 C   0  0  0  0  0  0  0  0  0  0  0  0
    7.3835   -5.5948   27.1997 C   0  0  0  0  0  0  0  0  0  0  0  0
    7.9038   -6.7974   25.2254 C   0  0  0  0  0  0  0  0  0  0  0  0
    8.0810   -0.9750   21.0820 C   0  0  0  0  0  0  0  0  0  0  0  0
   10.0220    1.0430   23.6570 C   0  0  0  0  0  0  0  0  0  0  0  0
    6.9440    0.2550   18.0100 N   0  0  0  0  0  0  0  0  0  0  0  0
    9.2640   -4.8844   25.8389 N   0  0  0  0  0  0  0  0  0  0  0  0
    9.4200   -0.0840   22.9530 N   0  0  0  0  0  0  0  0  0  0  0  0
    9.1870    1.1500   21.0630 O   0  0  0  0  0  0  0  0  0  0  0  0
    7.4500   -6.8853   26.5808 O   0  0  0  0  0  0  0  0  0  0  0  0
   15.3932    0.9189   23.4337 H   0  0  0  0  0  0  0  0  0  0  0  0
    3.6260    2.0115   21.6299 H   0  0  0  0  0  0  0  0  0  0  0  0
   14.2029   -0.2090   25.2955 H   0  0  0  0  0  0  0  0  0  0  0  0
   14.1048    2.1043   21.6752 H   0  0  0  0  0  0  0  0  0  0  0  0
    3.2721    2.7866   19.3205 H   0  0  0  0  0  0  0  0  0  0  0  0
    5.4862    0.4667   22.1694 H   0  0  0  0  0  0  0  0  0  0  0  0
   11.7330   -0.1555   25.4027 H   0  0  0  0  0  0  0  0  0  0  0  0
   11.6349    2.1636   21.7735 H   0  0  0  0  0  0  0  0  0  0  0  0
    4.7828    2.0658   17.4849 H   0  0  0  0  0  0  0  0  0  0  0  0
    7.5647   -2.8621   26.1053 H   0  0  0  0  0  0  0  0  0  0  0  0
   11.0144   -4.2642   23.9425 H   0  0  0  0  0  0  0  0  0  0  0  0
    7.5958   -0.7779   24.8006 H   0  0  0  0  0  0  0  0  0  0  0  0
   11.0406   -2.1848   22.6356 H   0  0  0  0  0  0  0  0  0  0  0  0
    8.5287   -1.0850   18.3402 H   0  0  0  0  0  0  0  0  0  0  0  0
    8.7051   -3.9572   27.6642 H   0  0  0  0  0  0  0  0  0  0  0  0
    9.4498   -5.5647   27.8158 H   0  0  0  0  0  0  0  0  0  0  0  0
   10.0133   -6.8394   25.6805 H   0  0  0  0  0  0  0  0  0  0  0  0
    9.6143   -6.0833   24.1224 H   0  0  0  0  0  0  0  0  0  0  0  0
    7.0291   -5.7367   28.2229 H   0  0  0  0  0  0  0  0  0  0  0  0
    6.6543   -4.9704   26.6757 H   0  0  0  0  0  0  0  0  0  0  0  0
    7.1869   -6.2187   24.6313 H   0  0  0  0  0  0  0  0  0  0  0  0
    7.9268   -7.8124   24.8172 H   0  0  0  0  0  0  0  0  0  0  0  0
    7.4884   -1.4160   21.8960 H   0  0  0  0  0  0  0  0  0  0  0  0
    8.7523   -1.7574   20.7004 H   0  0  0  0  0  0  0  0  0  0  0  0
    9.6778    1.0140   24.6966 H   0  0  0  0  0  0  0  0  0  0  0  0
    9.6316    1.9637   23.2107 H   0  0  0  0  0  0  0  0  0  0  0  0
    7.0329    0.4233   17.0175 H   0  0  0  0  0  0  0  0  0  0  0  0
  1  3  1  0  0  0  0
  1  4  2  0  0  0  0
  2  5  1  0  0  0  0
  2  6  2  0  0  0  0
  3  7  2  0  0  0  0
  4  8  1  0  0  0  0
  5  9  2  0  0  0  0
  6 15  1  0  0  0  0
  7 16  1  0  0  0  0
  8 16  2  0  0  0  0
  9 18  1  0  0  0  0
 10 12  2  0  0  0  0
 10 19  1  0  0  0  0
 11 13  1  0  0  0  0
 11 19  2  0  0  0  0
 12 20  1  0  0  0  0
 13 20  2  0  0  0  0
 14 17  2  0  0  0  0
 14 28  1  0  0  0  0
 15 17  1  0  0  0  0
 15 18  2  0  0  0  0
 16 27  1  0  0  0  0
 17 26  1  0  0  0  0
 18 28  1  0  0  0  0
 19 29  1  0  0  0  0
 20 30  1  0  0  0  0
 21 26  1  0  0  0  0
 21 30  1  0  0  0  0
 21 31  2  0  0  0  0
 22 24  1  0  0  0  0
 22 29  1  0  0  0  0
 23 25  1  0  0  0  0
 23 29  1  0  0  0  0
 24 32  1  0  0  0  0
 25 32  1  0  0  0  0
 27 30  1  0  0  0  0
  1 33  1  0  0  0  0
  2 34  1  0  0  0  0
  3 35  1  0  0  0  0
  4 36  1  0  0  0  0
  5 37  1  0  0  0  0
  6 38  1  0  0  0  0
  7 39  1  0  0  0  0
  8 40  1  0  0  0  0
  9 41  1  0  0  0  0
 10 42  1  0  0  0  0
 11 43  1  0  0  0  0
 12 44  1  0  0  0  0
 13 45  1  0  0  0  0
 14 46  1  0  0  0  0
 22 47  1  0  0  0  0
 22 48  1  0  0  0  0
 23 49  1  0  0  0  0
 23 50  1  0  0  0  0
 24 51  1  0  0  0  0
 24 52  1  0  0  0  0
 25 53  1  0  0  0  0
 25 54  1  0  0  0  0
 26 55  1  0  0  0  0
 26 56  1  0  0  0  0
 27 57  1  0  0  0  0
 27 58  1  0  0  0  0
 28 59  1  0  0  0  0
M  END
> <clash_score>
0

> <docking_score>
-8.0116605758667

> <overlap_score>
1.0165023803710938

$$$$
BENZO_471_1
  -OEChem-08222022423D

 60 64  0     0  0  0  0  0  0999 V2000
    4.2970    1.6690   20.8430 C   0  0  0  0  0  0  0  0  0  0  0  0
    4.0980    2.1130   19.5350 C   0  0  0  0  0  0  0  0  0  0  0  0
    5.3360    0.8000   21.1530 C   0  0  0  0  0  0  0  0  0  0  0  0
    4.9400    1.7060   18.5060 C   0  0  0  0  0  0  0  0  0  0  0  0
    8.3310   -2.7170   25.3430 C   0  0  0  0  0  0  0  0  0  0  0  0
   10.2570   -3.5000   24.1350 C   0  0  0  0  0  0  0  0  0  0  0  0
    8.3510   -1.5420   24.6110 C   0  0  0  0  0  0  0  0  0  0  0  0
   10.2760   -2.3270   23.4020 C   0  0  0  0  0  0  0  0  0  0  0  0
   12.4295    0.9466   24.6692 C   0  0  0  0  0  0  0  0  0  0  0  0
    7.6830   -0.5170   18.7600 C   0  0  0  0  0  0  0  0  0  0  0  0
   12.3161    1.0259   22.4747 C   0  0  0  0  0  0  0  0  0  0  0  0
    6.1600    0.3870   20.1140 C   0  0  0  0  0  0  0  0  0  0  0  0
   11.5217    1.0079   23.5949 C   0  0  0  0  0  0  0  0  0  0  0  0
    7.2210   -0.4620   20.0350 C   0  0  0  0  0  0  0  0  0  0  0  0
    5.9810    0.8330   18.8060 C   0  0  0  0  0  0  0  0  0  0  0  0
    9.2850   -3.7090   25.1090 C   0  0  0  0  0  0  0  0  0  0  0  0
    9.3300   -1.3350   23.6390 C   0  0  0  0  0  0  0  0  0  0  0  0
    8.0645   -5.4725   26.3675 C   0  0  0  0  0  0  0  0  0  0  0  0
    8.9510    0.1280   21.6880 C   0  0  0  0  0  0  0  0  0  0  0  0
    8.2657   -6.7598   27.1473 C   0  0  0  0  0  0  0  0  0  0  0  0
    9.4086   -6.6167   28.1369 C   0  0  0  0  0  0  0  0  0  0  0  0
   10.6976   -6.1494   27.4682 C   0  0  0  0  0  0  0  0  0  0  0  0
   10.4952   -5.7057   26.0203 C   0  0  0  0  0  0  0  0  0  0  0  0
   14.7958    0.9722   22.1181 C   0  0  0  0  0  0  0  0  0  0  0  0
    8.0810   -0.9750   21.0820 C   0  0  0  0  0  0  0  0  0  0  0  0
   10.0220    1.0430   23.6570 C   0  0  0  0  0  0  0  0  0  0  0  0
   13.7032    0.9267   24.2674 N   0  0  0  0  0  0  0  0  0  0  0  0
    6.9440    0.2550   18.0100 N   0  0  0  0  0  0  0  0  0  0  0  0
   13.6014    0.9758   22.9283 N   0  0  0  0  0  0  0  0  0  0  0  0
    9.2623   -4.9266   25.8635 N   0  0  0  0  0  0  0  0  0  0  0  0
    9.4200   -0.0840   22.9530 N   0  0  0  0  0  0  0  0  0  0  0  0
    6.9248   -5.0502   26.1760 O   0  0  0  0  0  0  0  0  0  0  0  0
    9.1870    1.1500   21.0630 O   0  0  0  0  0  0  0  0  0  0  0  0
    3.6260    2.0115   21.6299 H   0  0  0  0  0  0  0  0  0  0  0  0
    3.2721    2.7866   19.3205 H   0  0  0  0  0  0  0  0  0  0  0  0
    5.4862    0.4667   22.1694 H   0  0  0  0  0  0  0  0  0  0  0  0
    4.7828    2.0658   17.4849 H   0  0  0  0  0  0  0  0  0  0  0  0
    7.5639   -2.8621   26.1045 H   0  0  0  0  0  0  0  0  0  0  0  0
   11.0141   -4.2644   23.9422 H   0  0  0  0  0  0  0  0  0  0  0  0
    7.5950   -0.7788   24.8007 H   0  0  0  0  0  0  0  0  0  0  0  0
   11.0408   -2.1861   22.6359 H   0  0  0  0  0  0  0  0  0  0  0  0
   12.2184    0.9145   25.7287 H   0  0  0  0  0  0  0  0  0  0  0  0
    8.5287   -1.0850   18.3402 H   0  0  0  0  0  0  0  0  0  0  0  0
   12.0821    1.0677   21.4195 H   0  0  0  0  0  0  0  0  0  0  0  0
    7.3554   -6.9840   27.6817 H   0  0  0  0  0  0  0  0  0  0  0  0
    8.4789   -7.5440   26.4364 H   0  0  0  0  0  0  0  0  0  0  0  0
    9.1273   -5.9035   28.9395 H   0  0  0  0  0  0  0  0  0  0  0  0
    9.5831   -7.5853   28.6473 H   0  0  0  0  0  0  0  0  0  0  0  0
   11.1329   -5.3101   28.0503 H   0  0  0  0  0  0  0  0  0  0  0  0
   11.4601   -6.9574   27.5099 H   0  0  0  0  0  0  0  0  0  0  0  0
   11.3212   -5.0717   25.7155 H   0  0  0  0  0  0  0  0  0  0  0  0
   10.4471   -6.5779   25.3789 H   0  0  0  0  0  0  0  0  0  0  0  0
   15.1026    2.0102   21.9649 H   0  0  0  0  0  0  0  0  0  0  0  0
   15.5826    0.4128   22.6318 H   0  0  0  0  0  0  0  0  0  0  0  0
   14.5811    0.4906   21.1600 H   0  0  0  0  0  0  0  0  0  0  0  0
    7.4884   -1.4160   21.8960 H   0  0  0  0  0  0  0  0  0  0  0  0
    8.7523   -1.7574   20.7004 H   0  0  0  0  0  0  0  0  0  0  0  0
    9.6778    1.0140   24.6966 H   0  0  0  0  0  0  0  0  0  0  0  0
    9.6316    1.9637   23.2107 H   0  0  0  0  0  0  0  0  0  0  0  0
    7.0329    0.4233   17.0175 H   0  0  0  0  0  0  0  0  0  0  0  0
  1  2  1  0  0  0  0
  1  3  2  0  0  0  0
  2  4  2  0  0  0  0
  3 12  1  0  0  0  0
  4 15  1  0  0  0  0
  5  7  2  0  0  0  0
  5 16  1  0  0  0  0
  6  8  1  0  0  0  0
  6 16  2  0  0  0  0
  7 17  1  0  0  0  0
  8 17  2  0  0  0  0
  9 13  1  0  0  0  0
  9 27  2  0  0  0  0
 10 14  2  0  0  0  0
 10 28  1  0  0  0  0
 11 13  2  0  0  0  0
 11 29  1  0  0  0  0
 12 14  1  0  0  0  0
 12 15  2  0  0  0  0
 13 26  1  0  0  0  0
 14 25  1  0  0  0  0
 15 28  1  0  0  0  0
 16 30  1  0  0  0  0
 17 31  1  0  0  0  0
 18 20  1  0  0  0  0
 18 30  1  0  0  0  0
 18 32  2  0  0  0  0
 19 25  1  0  0  0  0
 19 31  1  0  0  0  0
 19 33  2  0  0  0  0
 20 21  1  0  0  0  0
 21 22  1  0  0  0  0
 22 23  1  0  0  0  0
 23 30  1  0  0  0  0
 24 29  1  0  0  0  0
 26 31  1  0  0  0  0
 27 29  1  0  0  0  0
  1 34  1  0  0  0  0
  2 35  1  0  0  0  0
  3 36  1  0  0  0  0
  4 37  1  0  0  0  0
  5 38  1  0  0  0  0
  6 39  1  0  0  0  0
  7 40  1  0  0  0  0
  8 41  1  0  0  0  0
  9 42  1  0  0  0  0
 10 43  1  0  0  0  0
 11 44  1  0  0  0  0
 20 45  1  0  0  0  0
 20 46  1  0  0  0  0
 21 47  1  0  0  0  0
 21 48  1  0  0  0  0
 22 49  1  0  0  0  0
 22 50  1  0  0  0  0
 23 51  1  0  0  0  0
 23 52  1  0  0  0  0
 24 53  1  0  0  0  0
 24 54  1  0  0  0  0
 24 55  1  0  0  0  0
 25 56  1  0  0  0  0
 25 57  1  0  0  0  0
 26 58  1  0  0  0  0
 26 59  1  0  0  0  0
 28 60  1  0  0  0  0
M  END
> <clash_score>
1.2733863753714896

> <docking_score>
-6.712850093841553

> <overlap_score>
1.0067832469940186

$$$$
BENZO_470_1
  -OEChem-08222022423D

 60 64  0     0  0  0  0  0  0999 V2000
    4.2970    1.6690   20.8430 C   0  0  0  0  0  0  0  0  0  0  0  0
    4.0980    2.1130   19.5350 C   0  0  0  0  0  0  0  0  0  0  0  0
   13.5977    1.8457   22.6865 C   0  0  0  0  0  0  0  0  0  0  0  0
    5.3360    0.8000   21.1530 C   0  0  0  0  0  0  0  0  0  0  0  0
   12.2044    1.8769   22.7438 C   0  0  0  0  0  0  0  0  0  0  0  0
    4.9400    1.7060   18.5060 C   0  0  0  0  0  0  0  0  0  0  0  0
    8.3310   -2.7170   25.3430 C   0  0  0  0  0  0  0  0  0  0  0  0
   10.2570   -3.5000   24.1350 C   0  0  0  0  0  0  0  0  0  0  0  0
    8.3510   -1.5420   24.6110 C   0  0  0  0  0  0  0  0  0  0  0  0
   10.2760   -2.3270   23.4020 C   0  0  0  0  0  0  0  0  0  0  0  0
   14.3084    0.9454   23.4803 C   0  0  0  0  0  0  0  0  0  0  0  0
   12.2323    0.1076   24.3888 C   0  0  0  0  0  0  0  0  0  0  0  0
    7.6830   -0.5170   18.7600 C   0  0  0  0  0  0  0  0  0  0  0  0
    6.1600    0.3870   20.1140 C   0  0  0  0  0  0  0  0  0  0  0  0
   11.5217    1.0079   23.5949 C   0  0  0  0  0  0  0  0  0  0  0  0
    7.2210   -0.4620   20.0350 C   0  0  0  0  0  0  0  0  0  0  0  0
    5.9810    0.8330   18.8060 C   0  0  0  0  0  0  0  0  0  0  0  0
    9.2850   -3.7090   25.1090 C   0  0  0  0  0  0  0  0  0  0  0  0
    9.3300   -1.3350   23.6390 C   0  0  0  0  0  0  0  0  0  0  0  0
   13.6257    0.0764   24.3314 C   0  0  0  0  0  0  0  0  0  0  0  0
    8.2938   -5.1732   26.8575 C   0  0  0  0  0  0  0  0  0  0  0  0
    8.9510    0.1280   21.6880 C   0  0  0  0  0  0  0  0  0  0  0  0
    8.4573   -6.5181   27.5431 C   0  0  0  0  0  0  0  0  0  0  0  0
    9.9045   -6.7465   27.9425 C   0  0  0  0  0  0  0  0  0  0  0  0
   10.8613   -6.5883   26.7650 C   0  0  0  0  0  0  0  0  0  0  0  0
   10.1899   -6.0098   25.5204 C   0  0  0  0  0  0  0  0  0  0  0  0
    8.0810   -0.9750   21.0820 C   0  0  0  0  0  0  0  0  0  0  0  0
   10.0220    1.0430   23.6570 C   0  0  0  0  0  0  0  0  0  0  0  0
    6.9440    0.2550   18.0100 N   0  0  0  0  0  0  0  0  0  0  0  0
    9.2623   -4.9266   25.8635 N   0  0  0  0  0  0  0  0  0  0  0  0
    9.4200   -0.0840   22.9530 N   0  0  0  0  0  0  0  0  0  0  0  0
    7.3376   -4.4555   27.1481 O   0  0  0  0  0  0  0  0  0  0  0  0
    9.1870    1.1500   21.0630 O   0  0  0  0  0  0  0  0  0  0  0  0
   14.5031   -1.0334   25.3114 Cl  0  0  0  0  0  0  0  0  0  0  0  0
    3.6260    2.0115   21.6299 H   0  0  0  0  0  0  0  0  0  0  0  0
    3.2721    2.7866   19.3205 H   0  0  0  0  0  0  0  0  0  0  0  0
   14.1289    2.5227   22.0237 H   0  0  0  0  0  0  0  0  0  0  0  0
    5.4862    0.4667   22.1694 H   0  0  0  0  0  0  0  0  0  0  0  0
   11.6588    2.5818   22.1218 H   0  0  0  0  0  0  0  0  0  0  0  0
    4.7828    2.0658   17.4849 H   0  0  0  0  0  0  0  0  0  0  0  0
    7.5639   -2.8621   26.1045 H   0  0  0  0  0  0  0  0  0  0  0  0
   11.0141   -4.2644   23.9422 H   0  0  0  0  0  0  0  0  0  0  0  0
    7.5950   -0.7788   24.8007 H   0  0  0  0  0  0  0  0  0  0  0  0
   11.0408   -2.1861   22.6359 H   0  0  0  0  0  0  0  0  0  0  0  0
   15.3941    0.9323   23.4255 H   0  0  0  0  0  0  0  0  0  0  0  0
   11.6954   -0.5682   25.0504 H   0  0  0  0  0  0  0  0  0  0  0  0
    8.5287   -1.0850   18.3402 H   0  0  0  0  0  0  0  0  0  0  0  0
    7.8359   -6.5322   28.4253 H   0  0  0  0  0  0  0  0  0  0  0  0
    8.1327   -7.2806   26.8509 H   0  0  0  0  0  0  0  0  0  0  0  0
   10.1901   -6.0407   28.7501 H   0  0  0  0  0  0  0  0  0  0  0  0
   10.0151   -7.7592   28.3795 H   0  0  0  0  0  0  0  0  0  0  0  0
   11.7076   -5.9336   27.0616 H   0  0  0  0  0  0  0  0  0  0  0  0
   11.3251   -7.5684   26.5198 H   0  0  0  0  0  0  0  0  0  0  0  0
   10.9442   -5.5947   24.8602 H   0  0  0  0  0  0  0  0  0  0  0  0
    9.6452   -6.7935   25.0070 H   0  0  0  0  0  0  0  0  0  0  0  0
    7.4884   -1.4160   21.8960 H   0  0  0  0  0  0  0  0  0  0  0  0
    8.7523   -1.7574   20.7004 H   0  0  0  0  0  0  0  0  0  0  0  0
    9.6778    1.0140   24.6966 H   0  0  0  0  0  0  0  0  0  0  0  0
    9.6316    1.9637   23.2107 H   0  0  0  0  0  0  0  0  0  0  0  0
    7.0329    0.4233   17.0175 H   0  0  0  0  0  0  0  0  0  0  0  0
  1  2  1  0  0  0  0
  1  4  2  0  0  0  0
  2  6  2  0  0  0  0
  3  5  2  0  0  0  0
  3 11  1  0  0  0  0
  4 14  1  0  0  0  0
  5 15  1  0  0  0  0
  6 17  1  0  0  0  0
  7  9  2  0  0  0  0
  7 18  1  0  0  0  0
  8 10  1  0  0  0  0
  8 18  2  0  0  0  0
  9 19  1  0  0  0  0
 10 19  2  0  0  0  0
 11 20  2  0  0  0  0
 12 15  2  0  0  0  0
 12 20  1  0  0  0  0
 13 16  2  0  0  0  0
 13 29  1  0  0  0  0
 14 16  1  0  0  0  0
 14 17  2  0  0  0  0
 15 28  1  0  0  0  0
 16 27  1  0  0  0  0
 17 29  1  0  0  0  0
 18 30  1  0  0  0  0
 19 31  1  0  0  0  0
 20 34  1  0  0  0  0
 21 23  1  0  0  0  0
 21 30  1  0  0  0  0
 21 32  2  0  0  0  0
 22 27  1  0  0  0  0
 22 31  1  0  0  0  0
 22 33  2  0  0  0  0
 23 24  1  0  0  0  0
 24 25  1  0  0  0  0
 25 26  1  0  0  0  0
 26 30  1  0  0  0  0
 28 31  1  0  0  0  0
  1 35  1  0  0  0  0
  2 36  1  0  0  0  0
  3 37  1  0  0  0  0
  4 38  1  0  0  0  0
  5 39  1  0  0  0  0
  6 40  1  0  0  0  0
  7 41  1  0  0  0  0
  8 42  1  0  0  0  0
  9 43  1  0  0  0  0
 10 44  1  0  0  0  0
 11 45  1  0  0  0  0
 12 46  1  0  0  0  0
 13 47  1  0  0  0  0
 23 48  1  0  0  0  0
 23 49  1  0  0  0  0
 24 50  1  0  0  0  0
 24 51  1  0  0  0  0
 25 52  1  0  0  0  0
 25 53  1  0  0  0  0
 26 54  1  0  0  0  0
 26 55  1  0  0  0  0
 27 56  1  0  0  0  0
 27 57  1  0  0  0  0
 28 58  1  0  0  0  0
 28 59  1  0  0  0  0
 29 60  1  0  0  0  0
M  END
> <clash_score>
2.8269080595263585

> <docking_score>
-5.961894989013672

> <overlap_score>
1.0217833518981934

$$$$
BENZO_472_1
  -OEChem-08222022423D

 56 60  0     0  0  0  0  0  0999 V2000
    4.2970    1.6690   20.8430 C   0  0  0  0  0  0  0  0  0  0  0  0
    4.0980    2.1130   19.5350 C   0  0  0  0  0  0  0  0  0  0  0  0
    5.3360    0.8000   21.1530 C   0  0  0  0  0  0  0  0  0  0  0  0
    4.9400    1.7060   18.5060 C   0  0  0  0  0  0  0  0  0  0  0  0
    8.3310   -2.7170   25.3430 C   0  0  0  0  0  0  0  0  0  0  0  0
   10.2570   -3.5000   24.1350 C   0  0  0  0  0  0  0  0  0  0  0  0
    8.3510   -1.5420   24.6110 C   0  0  0  0  0  0  0  0  0  0  0  0
   10.2760   -2.3270   23.4020 C   0  0  0  0  0  0  0  0  0  0  0  0
   12.2675    1.0332   22.3812 C   0  0  0  0  0  0  0  0  0  0  0  0
    7.6830   -0.5170   18.7600 C   0  0  0  0  0  0  0  0  0  0  0  0
   13.6257    0.9906   22.6074 C   0  0  0  0  0  0  0  0  0  0  0  0
   12.3384    0.9467   24.7028 C   0  0  0  0  0  0  0  0  0  0  0  0
    6.1600    0.3870   20.1140 C   0  0  0  0  0  0  0  0  0  0  0  0
   11.5217    1.0079   23.5949 C   0  0  0  0  0  0  0  0  0  0  0  0
    7.2210   -0.4620   20.0350 C   0  0  0  0  0  0  0  0  0  0  0  0
    5.9810    0.8330   18.8060 C   0  0  0  0  0  0  0  0  0  0  0  0
    9.2850   -3.7090   25.1090 C   0  0  0  0  0  0  0  0  0  0  0  0
    9.3300   -1.3350   23.6390 C   0  0  0  0  0  0  0  0  0  0  0  0
    8.9510    0.1280   21.6880 C   0  0  0  0  0  0  0  0  0  0  0  0
    8.7669   -4.9535   27.2147 C   0  0  0  0  0  0  0  0  0  0  0  0
    9.3044   -6.1862   25.1643 C   0  0  0  0  0  0  0  0  0  0  0  0
    7.3835   -5.5948   27.1997 C   0  0  0  0  0  0  0  0  0  0  0  0
    7.9038   -6.7974   25.2254 C   0  0  0  0  0  0  0  0  0  0  0  0
    8.0810   -0.9750   21.0820 C   0  0  0  0  0  0  0  0  0  0  0  0
   10.0220    1.0430   23.6570 C   0  0  0  0  0  0  0  0  0  0  0  0
    6.9440    0.2550   18.0100 N   0  0  0  0  0  0  0  0  0  0  0  0
    9.2640   -4.8844   25.8389 N   0  0  0  0  0  0  0  0  0  0  0  0
    9.4200   -0.0840   22.9530 N   0  0  0  0  0  0  0  0  0  0  0  0
    9.1870    1.1500   21.0630 O   0  0  0  0  0  0  0  0  0  0  0  0
    7.4500   -6.8853   26.5808 O   0  0  0  0  0  0  0  0  0  0  0  0
   13.9969    0.9203   24.2776 S   0  0  0  0  0  0  0  0  0  0  0  0
    3.6260    2.0115   21.6299 H   0  0  0  0  0  0  0  0  0  0  0  0
    3.2721    2.7866   19.3205 H   0  0  0  0  0  0  0  0  0  0  0  0
    5.4862    0.4667   22.1694 H   0  0  0  0  0  0  0  0  0  0  0  0
    4.7828    2.0658   17.4849 H   0  0  0  0  0  0  0  0  0  0  0  0
    7.5647   -2.8621   26.1053 H   0  0  0  0  0  0  0  0  0  0  0  0
   11.0144   -4.2642   23.9425 H   0  0  0  0  0  0  0  0  0  0  0  0
    7.5958   -0.7779   24.8006 H   0  0  0  0  0  0  0  0  0  0  0  0
   11.0406   -2.1848   22.6356 H   0  0  0  0  0  0  0  0  0  0  0  0
   11.8339    1.0799   21.3902 H   0  0  0  0  0  0  0  0  0  0  0  0
    8.5287   -1.0850   18.3402 H   0  0  0  0  0  0  0  0  0  0  0  0
   14.4176    0.9966   21.8719 H   0  0  0  0  0  0  0  0  0  0  0  0
   12.0446    0.9149   25.7428 H   0  0  0  0  0  0  0  0  0  0  0  0
    8.7051   -3.9572   27.6642 H   0  0  0  0  0  0  0  0  0  0  0  0
    9.4498   -5.5647   27.8158 H   0  0  0  0  0  0  0  0  0  0  0  0
   10.0133   -6.8394   25.6805 H   0  0  0  0  0  0  0  0  0  0  0  0
    9.6143   -6.0833   24.1224 H   0  0  0  0  0  0  0  0  0  0  0  0
    7.0291   -5.7367   28.2229 H   0  0  0  0  0  0  0  0  0  0  0  0
    6.6543   -4.9704   26.6757 H   0  0  0  0  0  0  0  0  0  0  0  0
    7.1869   -6.2187   24.6313 H   0  0  0  0  0  0  0  0  0  0  0  0
    7.9268   -7.8124   24.8172 H   0  0  0  0  0  0  0  0  0  0  0  0
    7.4884   -1.4160   21.8960 H   0  0  0  0  0  0  0  0  0  0  0  0
    8.7523   -1.7574   20.7004 H   0  0  0  0  0  0  0  0  0  0  0  0
    9.6778    1.0140   24.6966 H   0  0  0  0  0  0  0  0  0  0  0  0
    9.6316    1.9637   23.2107 H   0  0  0  0  0  0  0  0  0  0  0  0
    7.0329    0.4233   17.0175 H   0  0  0  0  0  0  0  0  0  0  0  0
  1  2  1  0  0  0  0
  1  3  2  0  0  0  0
  2  4  2  0  0  0  0
  3 13  1  0  0  0  0
  4 16  1  0  0  0  0
  5  7  2  0  0  0  0
  5 17  1  0  0  0  0
  6  8  1  0  0  0  0
  6 17  2  0  0  0  0
  7 18  1  0  0  0  0
  8 18  2  0  0  0  0
  9 11  2  0  0  0  0
  9 14  1  0  0  0  0
 10 15  2  0  0  0  0
 10 26  1  0  0  0  0
 11 31  1  0  0  0  0
 12 14  2  0  0  0  0
 12 31  1  0  0  0  0
 13 15  1  0  0  0  0
 13 16  2  0  0  0  0
 14 25  1  0  0  0  0
 15 24  1  0  0  0  0
 16 26  1  0  0  0  0
 17 27  1  0  0  0  0
 18 28  1  0  0  0  0
 19 24  1  0  0  0  0
 19 28  1  0  0  0  0
 19 29  2  0  0  0  0
 20 22  1  0  0  0  0
 20 27  1  0  0  0  0
 21 23  1  0  0  0  0
 21 27  1  0  0  0  0
 22 30  1  0  0  0  0
 23 30  1  0  0  0  0
 25 28  1  0  0  0  0
  1 32  1  0  0  0  0
  2 33  1  0  0  0  0
  3 34  1  0  0  0  0
  4 35  1  0  0  0  0
  5 36  1  0  0  0  0
  6 37  1  0  0  0  0
  7 38  1  0  0  0  0
  8 39  1  0  0  0  0
  9 40  1  0  0  0  0
 10 41  1  0  0  0  0
 11 42  1  0  0  0  0
 12 43  1  0  0  0  0
 20 44  1  0  0  0  0
 20 45  1  0  0  0  0
 21 46  1  0  0  0  0
 21 47  1  0  0  0  0
 22 48  1  0  0  0  0
 22 49  1  0  0  0  0
 23 50  1  0  0  0  0
 23 51  1  0  0  0  0
 24 52  1  0  0  0  0
 24 53  1  0  0  0  0
 25 54  1  0  0  0  0
 25 55  1  0  0  0  0
 26 56  1  0  0  0  0
M  END
> <clash_score>
0

> <docking_score>
-8.257868766784668

> <overlap_score>
0.9908632040023804

$$$$
BENZO_477_1
  -OEChem-08222022423D

 52 55  0     0  0  0  0  0  0999 V2000
   14.3082    0.9431   23.4783 C   0  0  0  0  0  0  0  0  0  0  0  0
   13.6391    0.3091   24.5251 C   0  0  0  0  0  0  0  0  0  0  0  0
   13.5841    1.6096   22.4898 C   0  0  0  0  0  0  0  0  0  0  0  0
   12.2459    0.3415   24.5835 C   0  0  0  0  0  0  0  0  0  0  0  0
   12.1908    1.6420   22.5481 C   0  0  0  0  0  0  0  0  0  0  0  0
    8.3510   -1.5420   24.6110 C   0  0  0  0  0  0  0  0  0  0  0  0
   10.2760   -2.3270   23.4020 C   0  0  0  0  0  0  0  0  0  0  0  0
    8.3310   -2.7170   25.3430 C   0  0  0  0  0  0  0  0  0  0  0  0
   10.2570   -3.5000   24.1350 C   0  0  0  0  0  0  0  0  0  0  0  0
   11.5217    1.0079   23.5949 C   0  0  0  0  0  0  0  0  0  0  0  0
    9.3300   -1.3350   23.6390 C   0  0  0  0  0  0  0  0  0  0  0  0
    9.2850   -3.7090   25.1090 C   0  0  0  0  0  0  0  0  0  0  0  0
    5.9810    0.8330   18.8060 C   0  0  0  0  0  0  0  0  0  0  0  0
    7.2210   -0.4620   20.0350 C   0  0  0  0  0  0  0  0  0  0  0  0
    4.9400    1.7060   18.5060 C   0  0  0  0  0  0  0  0  0  0  0  0
    4.0980    2.1130   19.5350 C   0  0  0  0  0  0  0  0  0  0  0  0
    4.2970    1.6690   20.8430 C   0  0  0  0  0  0  0  0  0  0  0  0
    5.3360    0.8000   21.1530 C   0  0  0  0  0  0  0  0  0  0  0  0
    8.9510    0.1280   21.6880 C   0  0  0  0  0  0  0  0  0  0  0  0
    8.2504   -5.1193   26.8645 C   0  0  0  0  0  0  0  0  0  0  0  0
   10.2433   -5.9398   25.5981 C   0  0  0  0  0  0  0  0  0  0  0  0
   10.0220    1.0430   23.6570 C   0  0  0  0  0  0  0  0  0  0  0  0
    8.0810   -0.9750   21.0820 C   0  0  0  0  0  0  0  0  0  0  0  0
    6.9440    0.2550   18.0100 N   0  0  0  0  0  0  0  0  0  0  0  0
    7.6830   -0.5170   18.7600 N   0  0  0  0  0  0  0  0  0  0  0  0
    6.1600    0.3870   20.1140 N   0  0  0  0  0  0  0  0  0  0  0  0
    9.4200   -0.0840   22.9530 N   0  0  0  0  0  0  0  0  0  0  0  0
    9.2624   -4.9028   25.8498 N   0  0  0  0  0  0  0  0  0  0  0  0
    9.1870    1.1500   21.0630 O   0  0  0  0  0  0  0  0  0  0  0  0
   15.3932    0.9189   23.4337 H   0  0  0  0  0  0  0  0  0  0  0  0
   14.2029   -0.2090   25.2955 H   0  0  0  0  0  0  0  0  0  0  0  0
   14.1048    2.1043   21.6752 H   0  0  0  0  0  0  0  0  0  0  0  0
   11.7330   -0.1555   25.4027 H   0  0  0  0  0  0  0  0  0  0  0  0
   11.6349    2.1636   21.7735 H   0  0  0  0  0  0  0  0  0  0  0  0
    7.5947   -0.7787   24.7997 H   0  0  0  0  0  0  0  0  0  0  0  0
   11.0404   -2.1861   22.6352 H   0  0  0  0  0  0  0  0  0  0  0  0
    7.5641   -2.8632   26.1047 H   0  0  0  0  0  0  0  0  0  0  0  0
   11.0135   -4.2647   23.9425 H   0  0  0  0  0  0  0  0  0  0  0  0
    4.7732    2.0709   17.5073 H   0  0  0  0  0  0  0  0  0  0  0  0
    3.2823    2.7848   19.2995 H   0  0  0  0  0  0  0  0  0  0  0  0
    3.6338    1.9971   21.6547 H   0  0  0  0  0  0  0  0  0  0  0  0
    5.5079    0.4527   22.1466 H   0  0  0  0  0  0  0  0  0  0  0  0
    8.4006   -6.1053   27.3283 H   0  0  0  0  0  0  0  0  0  0  0  0
    8.3291   -4.3367   27.6335 H   0  0  0  0  0  0  0  0  0  0  0  0
    7.2532   -5.0798   26.4019 H   0  0  0  0  0  0  0  0  0  0  0  0
   10.0612   -6.7891   26.2731 H   0  0  0  0  0  0  0  0  0  0  0  0
   10.1607   -6.2769   24.5543 H   0  0  0  0  0  0  0  0  0  0  0  0
   11.2528   -5.5404   25.7757 H   0  0  0  0  0  0  0  0  0  0  0  0
    9.6778    1.0140   24.6966 H   0  0  0  0  0  0  0  0  0  0  0  0
    9.6316    1.9637   23.2107 H   0  0  0  0  0  0  0  0  0  0  0  0
    7.4889   -1.4161   21.8965 H   0  0  0  0  0  0  0  0  0  0  0  0
    8.7528   -1.7575   20.7010 H   0  0  0  0  0  0  0  0  0  0  0  0
  1  2  1  0  0  0  0
  1  3  2  0  0  0  0
  2  4  2  0  0  0  0
  3  5  1  0  0  0  0
  4 10  1  0  0  0  0
  5 10  2  0  0  0  0
  6  8  2  0  0  0  0
  6 11  1  0  0  0  0
  7  9  1  0  0  0  0
  7 11  2  0  0  0  0
  8 12  1  0  0  0  0
  9 12  2  0  0  0  0
 10 22  1  0  0  0  0
 11 27  1  0  0  0  0
 12 28  1  0  0  0  0
 13 15  1  0  0  0  0
 13 24  2  0  0  0  0
 13 26  1  0  0  0  0
 14 23  1  0  0  0  0
 14 25  2  0  0  0  0
 14 26  1  0  0  0  0
 15 16  2  0  0  0  0
 16 17  1  0  0  0  0
 17 18  2  0  0  0  0
 18 26  1  0  0  0  0
 19 23  1  0  0  0  0
 19 27  1  0  0  0  0
 19 29  2  0  0  0  0
 20 28  1  0  0  0  0
 21 28  1  0  0  0  0
 22 27  1  0  0  0  0
 24 25  1  0  0  0  0
  1 30  1  0  0  0  0
  2 31  1  0  0  0  0
  3 32  1  0  0  0  0
  4 33  1  0  0  0  0
  5 34  1  0  0  0  0
  6 35  1  0  0  0  0
  7 36  1  0  0  0  0
  8 37  1  0  0  0  0
  9 38  1  0  0  0  0
 15 39  1  0  0  0  0
 16 40  1  0  0  0  0
 17 41  1  0  0  0  0
 18 42  1  0  0  0  0
 20 43  1  0  0  0  0
 20 44  1  0  0  0  0
 20 45  1  0  0  0  0
 21 46  1  0  0  0  0
 21 47  1  0  0  0  0
 21 48  1  0  0  0  0
 22 49  1  0  0  0  0
 22 50  1  0  0  0  0
 23 51  1  0  0  0  0
 23 52  1  0  0  0  0
M  END
> <clash_score>
0

> <docking_score>
-9.829452514648438

> <overlap_score>
1.0030856132507324

$$$$
BENZO_476_1
  -OEChem-08222022423D

 49 52  0     0  0  0  0  0  0999 V2000
    8.3510   -1.5420   24.6110 C   0  0  0  0  0  0  0  0  0  0  0  0
   10.2760   -2.3270   23.4020 C   0  0  0  0  0  0  0  0  0  0  0  0
    8.3310   -2.7170   25.3430 C   0  0  0  0  0  0  0  0  0  0  0  0
   10.2570   -3.5000   24.1350 C   0  0  0  0  0  0  0  0  0  0  0  0
   12.2675    1.0332   22.3812 C   0  0  0  0  0  0  0  0  0  0  0  0
   13.6257    0.9906   22.6074 C   0  0  0  0  0  0  0  0  0  0  0  0
   12.3384    0.9467   24.7028 C   0  0  0  0  0  0  0  0  0  0  0  0
   11.5217    1.0079   23.5949 C   0  0  0  0  0  0  0  0  0  0  0  0
    9.3300   -1.3350   23.6390 C   0  0  0  0  0  0  0  0  0  0  0  0
    9.2850   -3.7090   25.1090 C   0  0  0  0  0  0  0  0  0  0  0  0
    5.9810    0.8330   18.8060 C   0  0  0  0  0  0  0  0  0  0  0  0
    7.2210   -0.4620   20.0350 C   0  0  0  0  0  0  0  0  0  0  0  0
    4.9400    1.7060   18.5060 C   0  0  0  0  0  0  0  0  0  0  0  0
    4.0980    2.1130   19.5350 C   0  0  0  0  0  0  0  0  0  0  0  0
    4.2970    1.6690   20.8430 C   0  0  0  0  0  0  0  0  0  0  0  0
    5.3360    0.8000   21.1530 C   0  0  0  0  0  0  0  0  0  0  0  0
    8.9510    0.1280   21.6880 C   0  0  0  0  0  0  0  0  0  0  0  0
    8.2504   -5.1193   26.8645 C   0  0  0  0  0  0  0  0  0  0  0  0
   10.2433   -5.9398   25.5981 C   0  0  0  0  0  0  0  0  0  0  0  0
   10.0220    1.0430   23.6570 C   0  0  0  0  0  0  0  0  0  0  0  0
    8.0810   -0.9750   21.0820 C   0  0  0  0  0  0  0  0  0  0  0  0
    6.9440    0.2550   18.0100 N   0  0  0  0  0  0  0  0  0  0  0  0
    7.6830   -0.5170   18.7600 N   0  0  0  0  0  0  0  0  0  0  0  0
    6.1600    0.3870   20.1140 N   0  0  0  0  0  0  0  0  0  0  0  0
    9.4200   -0.0840   22.9530 N   0  0  0  0  0  0  0  0  0  0  0  0
    9.2624   -4.9028   25.8498 N   0  0  0  0  0  0  0  0  0  0  0  0
    9.1870    1.1500   21.0630 O   0  0  0  0  0  0  0  0  0  0  0  0
   13.9969    0.9202   24.2776 S   0  0  0  0  0  0  0  0  0  0  0  0
    7.5947   -0.7787   24.7997 H   0  0  0  0  0  0  0  0  0  0  0  0
   11.0404   -2.1861   22.6352 H   0  0  0  0  0  0  0  0  0  0  0  0
    7.5641   -2.8632   26.1047 H   0  0  0  0  0  0  0  0  0  0  0  0
   11.0135   -4.2647   23.9425 H   0  0  0  0  0  0  0  0  0  0  0  0
   11.8338    1.0798   21.3902 H   0  0  0  0  0  0  0  0  0  0  0  0
   14.4176    0.9966   21.8719 H   0  0  0  0  0  0  0  0  0  0  0  0
   12.0446    0.9149   25.7428 H   0  0  0  0  0  0  0  0  0  0  0  0
    4.7732    2.0709   17.5073 H   0  0  0  0  0  0  0  0  0  0  0  0
    3.2823    2.7848   19.2995 H   0  0  0  0  0  0  0  0  0  0  0  0
    3.6338    1.9971   21.6547 H   0  0  0  0  0  0  0  0  0  0  0  0
    5.5079    0.4527   22.1466 H   0  0  0  0  0  0  0  0  0  0  0  0
    8.4006   -6.1053   27.3283 H   0  0  0  0  0  0  0  0  0  0  0  0
    8.3291   -4.3367   27.6335 H   0  0  0  0  0  0  0  0  0  0  0  0
    7.2532   -5.0798   26.4019 H   0  0  0  0  0  0  0  0  0  0  0  0
   10.0612   -6.7891   26.2731 H   0  0  0  0  0  0  0  0  0  0  0  0
   10.1607   -6.2769   24.5543 H   0  0  0  0  0  0  0  0  0  0  0  0
   11.2528   -5.5404   25.7757 H   0  0  0  0  0  0  0  0  0  0  0  0
    9.6778    1.0140   24.6966 H   0  0  0  0  0  0  0  0  0  0  0  0
    9.6316    1.9637   23.2107 H   0  0  0  0  0  0  0  0  0  0  0  0
    7.4889   -1.4161   21.8965 H   0  0  0  0  0  0  0  0  0  0  0  0
    8.7528   -1.7575   20.7010 H   0  0  0  0  0  0  0  0  0  0  0  0
  1  3  2  0  0  0  0
  1  9  1  0  0  0  0
  2  4  1  0  0  0  0
  2  9  2  0  0  0  0
  3 10  1  0  0  0  0
  4 10  2  0  0  0  0
  5  6  2  0  0  0  0
  5  8  1  0  0  0  0
  6 28  1  0  0  0  0
  7  8  2  0  0  0  0
  7 28  1  0  0  0  0
  8 20  1  0  0  0  0
  9 25  1  0  0  0  0
 10 26  1  0  0  0  0
 11 13  1  0  0  0  0
 11 22  2  0  0  0  0
 11 24  1  0  0  0  0
 12 21  1  0  0  0  0
 12 23  2  0  0  0  0
 12 24  1  0  0  0  0
 13 14  2  0  0  0  0
 14 15  1  0  0  0  0
 15 16  2  0  0  0  0
 16 24  1  0  0  0  0
 17 21  1  0  0  0  0
 17 25  1  0  0  0  0
 17 27  2  0  0  0  0
 18 26  1  0  0  0  0
 19 26  1  0  0  0  0
 20 25  1  0  0  0  0
 22 23  1  0  0  0  0
  1 29  1  0  0  0  0
  2 30  1  0  0  0  0
  3 31  1  0  0  0  0
  4 32  1  0  0  0  0
  5 33  1  0  0  0  0
  6 34  1  0  0  0  0
  7 35  1  0  0  0  0
 13 36  1  0  0  0  0
 14 37  1  0  0  0  0
 15 38  1  0  0  0  0
 16 39  1  0  0  0  0
 18 40  1  0  0  0  0
 18 41  1  0  0  0  0
 18 42  1  0  0  0  0
 19 43  1  0  0  0  0
 19 44  1  0  0  0  0
 19 45  1  0  0  0  0
 20 46  1  0  0  0  0
 20 47  1  0  0  0  0
 21 48  1  0  0  0  0
 21 49  1  0  0  0  0
M  END
> <clash_score>
0

> <docking_score>
-10.075650215148926

> <overlap_score>
0.9772621989250183

$$$$
BENZO_474_1
  -OEChem-08222022423D

 59 63  0     0  0  0  0  0  0999 V2000
    4.2970    1.6690   20.8430 C   0  0  0  0  0  0  0  0  0  0  0  0
    4.0980    2.1130   19.5350 C   0  0  0  0  0  0  0  0  0  0  0  0
   13.5977    1.8457   22.6865 C   0  0  0  0  0  0  0  0  0  0  0  0
    5.3360    0.8000   21.1530 C   0  0  0  0  0  0  0  0  0  0  0  0
   12.2044    1.8769   22.7438 C   0  0  0  0  0  0  0  0  0  0  0  0
    4.9400    1.7060   18.5060 C   0  0  0  0  0  0  0  0  0  0  0  0
    8.3310   -2.7170   25.3430 C   0  0  0  0  0  0  0  0  0  0  0  0
   10.2570   -3.5000   24.1350 C   0  0  0  0  0  0  0  0  0  0  0  0
    8.3510   -1.5420   24.6110 C   0  0  0  0  0  0  0  0  0  0  0  0
   10.2760   -2.3270   23.4020 C   0  0  0  0  0  0  0  0  0  0  0  0
   14.3084    0.9454   23.4803 C   0  0  0  0  0  0  0  0  0  0  0  0
   12.2323    0.1076   24.3888 C   0  0  0  0  0  0  0  0  0  0  0  0
    7.6830   -0.5170   18.7600 C   0  0  0  0  0  0  0  0  0  0  0  0
    6.1600    0.3870   20.1140 C   0  0  0  0  0  0  0  0  0  0  0  0
   11.5217    1.0079   23.5949 C   0  0  0  0  0  0  0  0  0  0  0  0
    7.2210   -0.4620   20.0350 C   0  0  0  0  0  0  0  0  0  0  0  0
    5.9810    0.8330   18.8060 C   0  0  0  0  0  0  0  0  0  0  0  0
    9.2850   -3.7090   25.1090 C   0  0  0  0  0  0  0  0  0  0  0  0
    9.3300   -1.3350   23.6390 C   0  0  0  0  0  0  0  0  0  0  0  0
   13.6257    0.0764   24.3314 C   0  0  0  0  0  0  0  0  0  0  0  0
    8.9510    0.1280   21.6880 C   0  0  0  0  0  0  0  0  0  0  0  0
    8.7669   -4.9535   27.2147 C   0  0  0  0  0  0  0  0  0  0  0  0
    9.3044   -6.1862   25.1643 C   0  0  0  0  0  0  0  0  0  0  0  0
    7.3835   -5.5948   27.1997 C   0  0  0  0  0  0  0  0  0  0  0  0
    7.9038   -6.7974   25.2254 C   0  0  0  0  0  0  0  0  0  0  0  0
    8.0810   -0.9750   21.0820 C   0  0  0  0  0  0  0  0  0  0  0  0
   10.0220    1.0430   23.6570 C   0  0  0  0  0  0  0  0  0  0  0  0
    6.9440    0.2550   18.0100 N   0  0  0  0  0  0  0  0  0  0  0  0
    9.2640   -4.8844   25.8389 N   0  0  0  0  0  0  0  0  0  0  0  0
    9.4200   -0.0840   22.9530 N   0  0  0  0  0  0  0  0  0  0  0  0
    9.1870    1.1500   21.0630 O   0  0  0  0  0  0  0  0  0  0  0  0
    7.4500   -6.8853   26.5808 O   0  0  0  0  0  0  0  0  0  0  0  0
   14.5031   -1.0334   25.3114 Cl  0  0  0  0  0  0  0  0  0  0  0  0
    3.6260    2.0115   21.6299 H   0  0  0  0  0  0  0  0  0  0  0  0
    3.2721    2.7866   19.3205 H   0  0  0  0  0  0  0  0  0  0  0  0
   14.1289    2.5227   22.0237 H   0  0  0  0  0  0  0  0  0  0  0  0
    5.4862    0.4667   22.1694 H   0  0  0  0  0  0  0  0  0  0  0  0
   11.6588    2.5818   22.1218 H   0  0  0  0  0  0  0  0  0  0  0  0
    4.7828    2.0658   17.4849 H   0  0  0  0  0  0  0  0  0  0  0  0
    7.5647   -2.8621   26.1053 H   0  0  0  0  0  0  0  0  0  0  0  0
   11.0144   -4.2642   23.9425 H   0  0  0  0  0  0  0  0  0  0  0  0
    7.5958   -0.7779   24.8006 H   0  0  0  0  0  0  0  0  0  0  0  0
   11.0406   -2.1848   22.6356 H   0  0  0  0  0  0  0  0  0  0  0  0
   15.3941    0.9323   23.4255 H   0  0  0  0  0  0  0  0  0  0  0  0
   11.6954   -0.5682   25.0504 H   0  0  0  0  0  0  0  0  0  0  0  0
    8.5287   -1.0850   18.3402 H   0  0  0  0  0  0  0  0  0  0  0  0
    8.7051   -3.9572   27.6642 H   0  0  0  0  0  0  0  0  0  0  0  0
    9.4498   -5.5647   27.8158 H   0  0  0  0  0  0  0  0  0  0  0  0
   10.0133   -6.8394   25.6805 H   0  0  0  0  0  0  0  0  0  0  0  0
    9.6143   -6.0833   24.1224 H   0  0  0  0  0  0  0  0  0  0  0  0
    7.0291   -5.7367   28.2229 H   0  0  0  0  0  0  0  0  0  0  0  0
    6.6543   -4.9704   26.6757 H   0  0  0  0  0  0  0  0  0  0  0  0
    7.1869   -6.2187   24.6313 H   0  0  0  0  0  0  0  0  0  0  0  0
    7.9268   -7.8124   24.8172 H   0  0  0  0  0  0  0  0  0  0  0  0
    7.4884   -1.4160   21.8960 H   0  0  0  0  0  0  0  0  0  0  0  0
    8.7523   -1.7574   20.7004 H   0  0  0  0  0  0  0  0  0  0  0  0
    9.6778    1.0140   24.6966 H   0  0  0  0  0  0  0  0  0  0  0  0
    9.6316    1.9637   23.2107 H   0  0  0  0  0  0  0  0  0  0  0  0
    7.0329    0.4233   17.0175 H   0  0  0  0  0  0  0  0  0  0  0  0
  1  2  1  0  0  0  0
  1  4  2  0  0  0  0
  2  6  2  0  0  0  0
  3  5  2  0  0  0  0
  3 11  1  0  0  0  0
  4 14  1  0  0  0  0
  5 15  1  0  0  0  0
  6 17  1  0  0  0  0
  7  9  2  0  0  0  0
  7 18  1  0  0  0  0
  8 10  1  0  0  0  0
  8 18  2  0  0  0  0
  9 19  1  0  0  0  0
 10 19  2  0  0  0  0
 11 20  2  0  0  0  0
 12 15  2  0  0  0  0
 12 20  1  0  0  0  0
 13 16  2  0  0  0  0
 13 28  1  0  0  0  0
 14 16  1  0  0  0  0
 14 17  2  0  0  0  0
 15 27  1  0  0  0  0
 16 26  1  0  0  0  0
 17 28  1  0  0  0  0
 18 29  1  0  0  0  0
 19 30  1  0  0  0  0
 20 33  1  0  0  0  0
 21 26  1  0  0  0  0
 21 30  1  0  0  0  0
 21 31  2  0  0  0  0
 22 24  1  0  0  0  0
 22 29  1  0  0  0  0
 23 25  1  0  0  0  0
 23 29  1  0  0  0  0
 24 32  1  0  0  0  0
 25 32  1  0  0  0  0
 27 30  1  0  0  0  0
  1 34  1  0  0  0  0
  2 35  1  0  0  0  0
  3 36  1  0  0  0  0
  4 37  1  0  0  0  0
  5 38  1  0  0  0  0
  6 39  1  0  0  0  0
  7 40  1  0  0  0  0
  8 41  1  0  0  0  0
  9 42  1  0  0  0  0
 10 43  1  0  0  0  0
 11 44  1  0  0  0  0
 12 45  1  0  0  0  0
 13 46  1  0  0  0  0
 22 47  1  0  0  0  0
 22 48  1  0  0  0  0
 23 49  1  0  0  0  0
 23 50  1  0  0  0  0
 24 51  1  0  0  0  0
 24 52  1  0  0  0  0
 25 53  1  0  0  0  0
 25 54  1  0  0  0  0
 26 55  1  0  0  0  0
 26 56  1  0  0  0  0
 27 57  1  0  0  0  0
 27 58  1  0  0  0  0
 28 59  1  0  0  0  0
M  END
> <clash_score>
0.7662450110565973

> <docking_score>
-7.19355583190918

> <overlap_score>
1.0216573476791382

$$$$
BENZO_475_1
  -OEChem-08222022423D

 59 63  0     0  0  0  0  0  0999 V2000
    4.2970    1.6690   20.8430 C   0  0  0  0  0  0  0  0  0  0  0  0
    4.0980    2.1130   19.5350 C   0  0  0  0  0  0  0  0  0  0  0  0
    5.3360    0.8000   21.1530 C   0  0  0  0  0  0  0  0  0  0  0  0
    4.9400    1.7060   18.5060 C   0  0  0  0  0  0  0  0  0  0  0  0
    8.3310   -2.7170   25.3430 C   0  0  0  0  0  0  0  0  0  0  0  0
   10.2570   -3.5000   24.1350 C   0  0  0  0  0  0  0  0  0  0  0  0
    8.3510   -1.5420   24.6110 C   0  0  0  0  0  0  0  0  0  0  0  0
   10.2760   -2.3270   23.4020 C   0  0  0  0  0  0  0  0  0  0  0  0
   12.4358    1.7439   24.3724 C   0  0  0  0  0  0  0  0  0  0  0  0
    7.6830   -0.5170   18.7600 C   0  0  0  0  0  0  0  0  0  0  0  0
   12.3100    0.2469   22.7668 C   0  0  0  0  0  0  0  0  0  0  0  0
    6.1600    0.3870   20.1140 C   0  0  0  0  0  0  0  0  0  0  0  0
   11.5217    1.0079   23.5949 C   0  0  0  0  0  0  0  0  0  0  0  0
    7.2210   -0.4620   20.0350 C   0  0  0  0  0  0  0  0  0  0  0  0
    5.9810    0.8330   18.8060 C   0  0  0  0  0  0  0  0  0  0  0  0
    9.2850   -3.7090   25.1090 C   0  0  0  0  0  0  0  0  0  0  0  0
    9.3300   -1.3350   23.6390 C   0  0  0  0  0  0  0  0  0  0  0  0
    8.9510    0.1280   21.6880 C   0  0  0  0  0  0  0  0  0  0  0  0
    8.7669   -4.9535   27.2147 C   0  0  0  0  0  0  0  0  0  0  0  0
    9.3044   -6.1862   25.1643 C   0  0  0  0  0  0  0  0  0  0  0  0
    7.3835   -5.5948   27.1997 C   0  0  0  0  0  0  0  0  0  0  0  0
    7.9038   -6.7974   25.2254 C   0  0  0  0  0  0  0  0  0  0  0  0
   14.7884    0.0124   22.4815 C   0  0  0  0  0  0  0  0  0  0  0  0
    8.0810   -0.9750   21.0820 C   0  0  0  0  0  0  0  0  0  0  0  0
   10.0220    1.0430   23.6570 C   0  0  0  0  0  0  0  0  0  0  0  0
   13.7076    1.4745   24.0657 N   0  0  0  0  0  0  0  0  0  0  0  0
    6.9440    0.2550   18.0100 N   0  0  0  0  0  0  0  0  0  0  0  0
   13.5982    0.5607   23.0864 N   0  0  0  0  0  0  0  0  0  0  0  0
    9.2640   -4.8844   25.8389 N   0  0  0  0  0  0  0  0  0  0  0  0
    9.4200   -0.0840   22.9530 N   0  0  0  0  0  0  0  0  0  0  0  0
    9.1870    1.1500   21.0630 O   0  0  0  0  0  0  0  0  0  0  0  0
    7.4500   -6.8853   26.5808 O   0  0  0  0  0  0  0  0  0  0  0  0
    3.6260    2.0115   21.6299 H   0  0  0  0  0  0  0  0  0  0  0  0
    3.2721    2.7866   19.3205 H   0  0  0  0  0  0  0  0  0  0  0  0
    5.4862    0.4667   22.1694 H   0  0  0  0  0  0  0  0  0  0  0  0
    4.7828    2.0658   17.4849 H   0  0  0  0  0  0  0  0  0  0  0  0
    7.5647   -2.8621   26.1053 H   0  0  0  0  0  0  0  0  0  0  0  0
   11.0144   -4.2642   23.9425 H   0  0  0  0  0  0  0  0  0  0  0  0
    7.5958   -0.7779   24.8006 H   0  0  0  0  0  0  0  0  0  0  0  0
   11.0406   -2.1848   22.6356 H   0  0  0  0  0  0  0  0  0  0  0  0
   12.2308    2.4652   25.1508 H   0  0  0  0  0  0  0  0  0  0  0  0
    8.5287   -1.0850   18.3402 H   0  0  0  0  0  0  0  0  0  0  0  0
   12.0700   -0.4744   21.9974 H   0  0  0  0  0  0  0  0  0  0  0  0
    8.7051   -3.9572   27.6642 H   0  0  0  0  0  0  0  0  0  0  0  0
    9.4498   -5.5647   27.8158 H   0  0  0  0  0  0  0  0  0  0  0  0
   10.0133   -6.8394   25.6805 H   0  0  0  0  0  0  0  0  0  0  0  0
    9.6143   -6.0833   24.1224 H   0  0  0  0  0  0  0  0  0  0  0  0
    7.0291   -5.7367   28.2229 H   0  0  0  0  0  0  0  0  0  0  0  0
    6.6543   -4.9704   26.6757 H   0  0  0  0  0  0  0  0  0  0  0  0
    7.1869   -6.2187   24.6313 H   0  0  0  0  0  0  0  0  0  0  0  0
    7.9268   -7.8124   24.8172 H   0  0  0  0  0  0  0  0  0  0  0  0
   15.0569    0.6453   21.6315 H   0  0  0  0  0  0  0  0  0  0  0  0
   15.5971   -0.0026   23.2174 H   0  0  0  0  0  0  0  0  0  0  0  0
   14.5870   -1.0100   22.1498 H   0  0  0  0  0  0  0  0  0  0  0  0
    7.4884   -1.4160   21.8960 H   0  0  0  0  0  0  0  0  0  0  0  0
    8.7523   -1.7574   20.7004 H   0  0  0  0  0  0  0  0  0  0  0  0
    9.6778    1.0140   24.6966 H   0  0  0  0  0  0  0  0  0  0  0  0
    9.6316    1.9637   23.2107 H   0  0  0  0  0  0  0  0  0  0  0  0
    7.0329    0.4233   17.0175 H   0  0  0  0  0  0  0  0  0  0  0  0
  1  2  1  0  0  0  0
  1  3  2  0  0  0  0
  2  4  2  0  0  0  0
  3 12  1  0  0  0  0
  4 15  1  0  0  0  0
  5  7  2  0  0  0  0
  5 16  1  0  0  0  0
  6  8  1  0  0  0  0
  6 16  2  0  0  0  0
  7 17  1  0  0  0  0
  8 17  2  0  0  0  0
  9 13  1  0  0  0  0
  9 26  2  0  0  0  0
 10 14  2  0  0  0  0
 10 27  1  0  0  0  0
 11 13  2  0  0  0  0
 11 28  1  0  0  0  0
 12 14  1  0  0  0  0
 12 15  2  0  0  0  0
 13 25  1  0  0  0  0
 14 24  1  0  0  0  0
 15 27  1  0  0  0  0
 16 29  1  0  0  0  0
 17 30  1  0  0  0  0
 18 24  1  0  0  0  0
 18 30  1  0  0  0  0
 18 31  2  0  0  0  0
 19 21  1  0  0  0  0
 19 29  1  0  0  0  0
 20 22  1  0  0  0  0
 20 29  1  0  0  0  0
 21 32  1  0  0  0  0
 22 32  1  0  0  0  0
 23 28  1  0  0  0  0
 25 30  1  0  0  0  0
 26 28  1  0  0  0  0
  1 33  1  0  0  0  0
  2 34  1  0  0  0  0
  3 35  1  0  0  0  0
  4 36  1  0  0  0  0
  5 37  1  0  0  0  0
  6 38  1  0  0  0  0
  7 39  1  0  0  0  0
  8 40  1  0  0  0  0
  9 41  1  0  0  0  0
 10 42  1  0  0  0  0
 11 43  1  0  0  0  0
 19 44  1  0  0  0  0
 19 45  1  0  0  0  0
 20 46  1  0  0  0  0
 20 47  1  0  0  0  0
 21 48  1  0  0  0  0
 21 49  1  0  0  0  0
 22 50  1  0  0  0  0
 22 51  1  0  0  0  0
 23 52  1  0  0  0  0
 23 53  1  0  0  0  0
 23 54  1  0  0  0  0
 24 55  1  0  0  0  0
 24 56  1  0  0  0  0
 25 57  1  0  0  0  0
 25 58  1  0  0  0  0
 27 59  1  0  0  0  0
M  END
> <clash_score>
0

> <docking_score>
-8.226263046264648

> <overlap_score>
1.002679705619812

$$$$
BENZO_479_1
  -OEChem-08222022423D

 52 55  0     0  0  0  0  0  0999 V2000
    8.3510   -1.5420   24.6110 C   0  0  0  0  0  0  0  0  0  0  0  0
   10.2760   -2.3270   23.4020 C   0  0  0  0  0  0  0  0  0  0  0  0
    8.3310   -2.7170   25.3430 C   0  0  0  0  0  0  0  0  0  0  0  0
   10.2570   -3.5000   24.1350 C   0  0  0  0  0  0  0  0  0  0  0  0
   12.4359    1.7439   24.3724 C   0  0  0  0  0  0  0  0  0  0  0  0
   12.3100    0.2469   22.7668 C   0  0  0  0  0  0  0  0  0  0  0  0
   11.5217    1.0079   23.5949 C   0  0  0  0  0  0  0  0  0  0  0  0
    9.3300   -1.3350   23.6390 C   0  0  0  0  0  0  0  0  0  0  0  0
    9.2850   -3.7090   25.1090 C   0  0  0  0  0  0  0  0  0  0  0  0
    5.9810    0.8330   18.8060 C   0  0  0  0  0  0  0  0  0  0  0  0
    7.2210   -0.4620   20.0350 C   0  0  0  0  0  0  0  0  0  0  0  0
    4.9400    1.7060   18.5060 C   0  0  0  0  0  0  0  0  0  0  0  0
    4.0980    2.1130   19.5350 C   0  0  0  0  0  0  0  0  0  0  0  0
    4.2970    1.6690   20.8430 C   0  0  0  0  0  0  0  0  0  0  0  0
    5.3360    0.8000   21.1530 C   0  0  0  0  0  0  0  0  0  0  0  0
    8.9510    0.1280   21.6880 C   0  0  0  0  0  0  0  0  0  0  0  0
   14.7884    0.0124   22.4815 C   0  0  0  0  0  0  0  0  0  0  0  0
    8.2504   -5.1193   26.8645 C   0  0  0  0  0  0  0  0  0  0  0  0
   10.2433   -5.9398   25.5981 C   0  0  0  0  0  0  0  0  0  0  0  0
   10.0220    1.0430   23.6570 C   0  0  0  0  0  0  0  0  0  0  0  0
    8.0810   -0.9750   21.0820 C   0  0  0  0  0  0  0  0  0  0  0  0
   13.7076    1.4745   24.0657 N   0  0  0  0  0  0  0  0  0  0  0  0
    6.9440    0.2550   18.0100 N   0  0  0  0  0  0  0  0  0  0  0  0
    7.6830   -0.5170   18.7600 N   0  0  0  0  0  0  0  0  0  0  0  0
   13.5982    0.5607   23.0864 N   0  0  0  0  0  0  0  0  0  0  0  0
    6.1600    0.3870   20.1140 N   0  0  0  0  0  0  0  0  0  0  0  0
    9.4200   -0.0840   22.9530 N   0  0  0  0  0  0  0  0  0  0  0  0
    9.2624   -4.9028   25.8498 N   0  0  0  0  0  0  0  0  0  0  0  0
    9.1870    1.1500   21.0630 O   0  0  0  0  0  0  0  0  0  0  0  0
    7.5947   -0.7787   24.7997 H   0  0  0  0  0  0  0  0  0  0  0  0
   11.0404   -2.1861   22.6352 H   0  0  0  0  0  0  0  0  0  0  0  0
    7.5641   -2.8632   26.1047 H   0  0  0  0  0  0  0  0  0  0  0  0
   11.0135   -4.2647   23.9425 H   0  0  0  0  0  0  0  0  0  0  0  0
   12.2308    2.4652   25.1508 H   0  0  0  0  0  0  0  0  0  0  0  0
   12.0700   -0.4744   21.9974 H   0  0  0  0  0  0  0  0  0  0  0  0
    4.7732    2.0709   17.5073 H   0  0  0  0  0  0  0  0  0  0  0  0
    3.2823    2.7848   19.2995 H   0  0  0  0  0  0  0  0  0  0  0  0
    3.6338    1.9971   21.6547 H   0  0  0  0  0  0  0  0  0  0  0  0
    5.5079    0.4527   22.1466 H   0  0  0  0  0  0  0  0  0  0  0  0
   15.0569    0.6453   21.6315 H   0  0  0  0  0  0  0  0  0  0  0  0
   15.5971   -0.0026   23.2174 H   0  0  0  0  0  0  0  0  0  0  0  0
   14.5870   -1.0100   22.1498 H   0  0  0  0  0  0  0  0  0  0  0  0
    8.4006   -6.1053   27.3283 H   0  0  0  0  0  0  0  0  0  0  0  0
    8.3291   -4.3367   27.6335 H   0  0  0  0  0  0  0  0  0  0  0  0
    7.2532   -5.0798   26.4019 H   0  0  0  0  0  0  0  0  0  0  0  0
   10.0612   -6.7891   26.2731 H   0  0  0  0  0  0  0  0  0  0  0  0
   10.1607   -6.2769   24.5543 H   0  0  0  0  0  0  0  0  0  0  0  0
   11.2528   -5.5404   25.7757 H   0  0  0  0  0  0  0  0  0  0  0  0
    9.6778    1.0140   24.6966 H   0  0  0  0  0  0  0  0  0  0  0  0
    9.6316    1.9637   23.2107 H   0  0  0  0  0  0  0  0  0  0  0  0
    7.4889   -1.4161   21.8965 H   0  0  0  0  0  0  0  0  0  0  0  0
    8.7528   -1.7575   20.7010 H   0  0  0  0  0  0  0  0  0  0  0  0
  1  3  2  0  0  0  0
  1  8  1  0  0  0  0
  2  4  1  0  0  0  0
  2  8  2  0  0  0  0
  3  9  1  0  0  0  0
  4  9  2  0  0  0  0
  5  7  1  0  0  0  0
  5 22  2  0  0  0  0
  6  7  2  0  0  0  0
  6 25  1  0  0  0  0
  7 20  1  0  0  0  0
  8 27  1  0  0  0  0
  9 28  1  0  0  0  0
 10 12  1  0  0  0  0
 10 23  2  0  0  0  0
 10 26  1  0  0  0  0
 11 21  1  0  0  0  0
 11 24  2  0  0  0  0
 11 26  1  0  0  0  0
 12 13  2  0  0  0  0
 13 14  1  0  0  0  0
 14 15  2  0  0  0  0
 15 26  1  0  0  0  0
 16 21  1  0  0  0  0
 16 27  1  0  0  0  0
 16 29  2  0  0  0  0
 17 25  1  0  0  0  0
 18 28  1  0  0  0  0
 19 28  1  0  0  0  0
 20 27  1  0  0  0  0
 22 25  1  0  0  0  0
 23 24  1  0  0  0  0
  1 30  1  0  0  0  0
  2 31  1  0  0  0  0
  3 32  1  0  0  0  0
  4 33  1  0  0  0  0
  5 34  1  0  0  0  0
  6 35  1  0  0  0  0
 12 36  1  0  0  0  0
 13 37  1  0  0  0  0
 14 38  1  0  0  0  0
 15 39  1  0  0  0  0
 17 40  1  0  0  0  0
 17 41  1  0  0  0  0
 17 42  1  0  0  0  0
 18 43  1  0  0  0  0
 18 44  1  0  0  0  0
 18 45  1  0  0  0  0
 19 46  1  0  0  0  0
 19 47  1  0  0  0  0
 19 48  1  0  0  0  0
 20 49  1  0  0  0  0
 20 50  1  0  0  0  0
 21 51  1  0  0  0  0
 21 52  1  0  0  0  0
M  END
> <clash_score>
0

> <docking_score>
-10.044054985046387

> <overlap_score>
0.9891864061355591

$$$$
BENZO_478_1
  -OEChem-08222022423D

 52 55  0     0  0  0  0  0  0999 V2000
   13.5977    1.8457   22.6865 C   0  0  0  0  0  0  0  0  0  0  0  0
   12.2044    1.8769   22.7438 C   0  0  0  0  0  0  0  0  0  0  0  0
    8.3510   -1.5420   24.6110 C   0  0  0  0  0  0  0  0  0  0  0  0
   10.2760   -2.3270   23.4020 C   0  0  0  0  0  0  0  0  0  0  0  0
    8.3310   -2.7170   25.3430 C   0  0  0  0  0  0  0  0  0  0  0  0
   10.2570   -3.5000   24.1350 C   0  0  0  0  0  0  0  0  0  0  0  0
   14.3084    0.9454   23.4803 C   0  0  0  0  0  0  0  0  0  0  0  0
   12.2323    0.1076   24.3888 C   0  0  0  0  0  0  0  0  0  0  0  0
   11.5217    1.0079   23.5949 C   0  0  0  0  0  0  0  0  0  0  0  0
    9.3300   -1.3350   23.6390 C   0  0  0  0  0  0  0  0  0  0  0  0
    9.2850   -3.7090   25.1090 C   0  0  0  0  0  0  0  0  0  0  0  0
   13.6257    0.0764   24.3314 C   0  0  0  0  0  0  0  0  0  0  0  0
    5.9810    0.8330   18.8060 C   0  0  0  0  0  0  0  0  0  0  0  0
    7.2210   -0.4620   20.0350 C   0  0  0  0  0  0  0  0  0  0  0  0
    4.9400    1.7060   18.5060 C   0  0  0  0  0  0  0  0  0  0  0  0
    4.0980    2.1130   19.5350 C   0  0  0  0  0  0  0  0  0  0  0  0
    4.2970    1.6690   20.8430 C   0  0  0  0  0  0  0  0  0  0  0  0
    5.3360    0.8000   21.1530 C   0  0  0  0  0  0  0  0  0  0  0  0
    8.9510    0.1280   21.6880 C   0  0  0  0  0  0  0  0  0  0  0  0
    8.2504   -5.1193   26.8645 C   0  0  0  0  0  0  0  0  0  0  0  0
   10.2433   -5.9398   25.5981 C   0  0  0  0  0  0  0  0  0  0  0  0
   10.0220    1.0430   23.6570 C   0  0  0  0  0  0  0  0  0  0  0  0
    8.0810   -0.9750   21.0820 C   0  0  0  0  0  0  0  0  0  0  0  0
    6.9440    0.2550   18.0100 N   0  0  0  0  0  0  0  0  0  0  0  0
    7.6830   -0.5170   18.7600 N   0  0  0  0  0  0  0  0  0  0  0  0
    6.1600    0.3870   20.1140 N   0  0  0  0  0  0  0  0  0  0  0  0
    9.4200   -0.0840   22.9530 N   0  0  0  0  0  0  0  0  0  0  0  0
    9.2624   -4.9028   25.8498 N   0  0  0  0  0  0  0  0  0  0  0  0
    9.1870    1.1500   21.0630 O   0  0  0  0  0  0  0  0  0  0  0  0
   14.5031   -1.0334   25.3114 Cl  0  0  0  0  0  0  0  0  0  0  0  0
   14.1289    2.5226   22.0237 H   0  0  0  0  0  0  0  0  0  0  0  0
   11.6588    2.5818   22.1218 H   0  0  0  0  0  0  0  0  0  0  0  0
    7.5947   -0.7787   24.7997 H   0  0  0  0  0  0  0  0  0  0  0  0
   11.0404   -2.1861   22.6352 H   0  0  0  0  0  0  0  0  0  0  0  0
    7.5641   -2.8632   26.1047 H   0  0  0  0  0  0  0  0  0  0  0  0
   11.0135   -4.2647   23.9425 H   0  0  0  0  0  0  0  0  0  0  0  0
   15.3941    0.9323   23.4255 H   0  0  0  0  0  0  0  0  0  0  0  0
   11.6954   -0.5682   25.0504 H   0  0  0  0  0  0  0  0  0  0  0  0
    4.7732    2.0709   17.5073 H   0  0  0  0  0  0  0  0  0  0  0  0
    3.2823    2.7848   19.2995 H   0  0  0  0  0  0  0  0  0  0  0  0
    3.6338    1.9971   21.6547 H   0  0  0  0  0  0  0  0  0  0  0  0
    5.5079    0.4527   22.1466 H   0  0  0  0  0  0  0  0  0  0  0  0
    8.4006   -6.1053   27.3283 H   0  0  0  0  0  0  0  0  0  0  0  0
    8.3291   -4.3367   27.6335 H   0  0  0  0  0  0  0  0  0  0  0  0
    7.2532   -5.0798   26.4019 H   0  0  0  0  0  0  0  0  0  0  0  0
   10.0612   -6.7891   26.2731 H   0  0  0  0  0  0  0  0  0  0  0  0
   10.1607   -6.2769   24.5543 H   0  0  0  0  0  0  0  0  0  0  0  0
   11.2528   -5.5404   25.7757 H   0  0  0  0  0  0  0  0  0  0  0  0
    9.6778    1.0140   24.6966 H   0  0  0  0  0  0  0  0  0  0  0  0
    9.6316    1.9637   23.2107 H   0  0  0  0  0  0  0  0  0  0  0  0
    7.4889   -1.4161   21.8965 H   0  0  0  0  0  0  0  0  0  0  0  0
    8.7528   -1.7575   20.7010 H   0  0  0  0  0  0  0  0  0  0  0  0
  1  2  2  0  0  0  0
  1  7  1  0  0  0  0
  2  9  1  0  0  0  0
  3  5  2  0  0  0  0
  3 10  1  0  0  0  0
  4  6  1  0  0  0  0
  4 10  2  0  0  0  0
  5 11  1  0  0  0  0
  6 11  2  0  0  0  0
  7 12  2  0  0  0  0
  8  9  2  0  0  0  0
  8 12  1  0  0  0  0
  9 22  1  0  0  0  0
 10 27  1  0  0  0  0
 11 28  1  0  0  0  0
 12 30  1  0  0  0  0
 13 15  1  0  0  0  0
 13 24  2  0  0  0  0
 13 26  1  0  0  0  0
 14 23  1  0  0  0  0
 14 25  2  0  0  0  0
 14 26  1  0  0  0  0
 15 16  2  0  0  0  0
 16 17  1  0  0  0  0
 17 18  2  0  0  0  0
 18 26  1  0  0  0  0
 19 23  1  0  0  0  0
 19 27  1  0  0  0  0
 19 29  2  0  0  0  0
 20 28  1  0  0  0  0
 21 28  1  0  0  0  0
 22 27  1  0  0  0  0
 24 25  1  0  0  0  0
  1 31  1  0  0  0  0
  2 32  1  0  0  0  0
  3 33  1  0  0  0  0
  4 34  1  0  0  0  0
  5 35  1  0  0  0  0
  6 36  1  0  0  0  0
  7 37  1  0  0  0  0
  8 38  1  0  0  0  0
 15 39  1  0  0  0  0
 16 40  1  0  0  0  0
 17 41  1  0  0  0  0
 18 42  1  0  0  0  0
 20 43  1  0  0  0  0
 20 44  1  0  0  0  0
 20 45  1  0  0  0  0
 21 46  1  0  0  0  0
 21 47  1  0  0  0  0
 21 48  1  0  0  0  0
 22 49  1  0  0  0  0
 22 50  1  0  0  0  0
 23 51  1  0  0  0  0
 23 52  1  0  0  0  0
M  END
> <clash_score>
0.7662469096885672

> <docking_score>
-9.01134967803955

> <overlap_score>
1.0082906484603882

$$$$
BENZO_481_1
  -OEChem-08222022423D

 54 57  0     0  0  0  0  0  0999 V2000
   14.3082    0.9431   23.4783 C   0  0  0  0  0  0  0  0  0  0  0  0
   13.6391    0.3091   24.5251 C   0  0  0  0  0  0  0  0  0  0  0  0
   13.5841    1.6096   22.4898 C   0  0  0  0  0  0  0  0  0  0  0  0
   12.2459    0.3415   24.5835 C   0  0  0  0  0  0  0  0  0  0  0  0
   12.1908    1.6420   22.5481 C   0  0  0  0  0  0  0  0  0  0  0  0
    8.3310   -2.7170   25.3430 C   0  0  0  0  0  0  0  0  0  0  0  0
   10.2570   -3.5000   24.1350 C   0  0  0  0  0  0  0  0  0  0  0  0
    8.3510   -1.5420   24.6110 C   0  0  0  0  0  0  0  0  0  0  0  0
   10.2760   -2.3270   23.4020 C   0  0  0  0  0  0  0  0  0  0  0  0
   11.5217    1.0079   23.5949 C   0  0  0  0  0  0  0  0  0  0  0  0
    9.2850   -3.7090   25.1090 C   0  0  0  0  0  0  0  0  0  0  0  0
    9.3300   -1.3350   23.6390 C   0  0  0  0  0  0  0  0  0  0  0  0
    5.9810    0.8330   18.8060 C   0  0  0  0  0  0  0  0  0  0  0  0
    7.2210   -0.4620   20.0350 C   0  0  0  0  0  0  0  0  0  0  0  0
    4.9400    1.7060   18.5060 C   0  0  0  0  0  0  0  0  0  0  0  0
    4.0980    2.1130   19.5350 C   0  0  0  0  0  0  0  0  0  0  0  0
    4.2970    1.6690   20.8430 C   0  0  0  0  0  0  0  0  0  0  0  0
    5.3360    0.8000   21.1530 C   0  0  0  0  0  0  0  0  0  0  0  0
    8.9510    0.1280   21.6880 C   0  0  0  0  0  0  0  0  0  0  0  0
    9.6855   -6.1678   25.4393 C   0  0  0  0  0  0  0  0  0  0  0  0
    8.0405   -7.2921   26.9999 C   0  0  0  0  0  0  0  0  0  0  0  0
   10.0220    1.0430   23.6570 C   0  0  0  0  0  0  0  0  0  0  0  0
    8.0810   -0.9750   21.0820 C   0  0  0  0  0  0  0  0  0  0  0  0
    9.4870   -7.1874   26.5510 C   0  0  0  0  0  0  0  0  0  0  0  0
    6.9440    0.2550   18.0100 N   0  0  0  0  0  0  0  0  0  0  0  0
    7.6830   -0.5170   18.7600 N   0  0  0  0  0  0  0  0  0  0  0  0
    6.1600    0.3870   20.1140 N   0  0  0  0  0  0  0  0  0  0  0  0
    9.2630   -4.8902   25.8410 N   0  0  0  0  0  0  0  0  0  0  0  0
    9.4200   -0.0840   22.9530 N   0  0  0  0  0  0  0  0  0  0  0  0
    9.1870    1.1500   21.0630 O   0  0  0  0  0  0  0  0  0  0  0  0
   10.1589   -6.4763   24.3506 O   0  0  0  0  0  0  0  0  0  0  0  0
   15.3932    0.9189   23.4337 H   0  0  0  0  0  0  0  0  0  0  0  0
   14.2029   -0.2090   25.2955 H   0  0  0  0  0  0  0  0  0  0  0  0
   14.1048    2.1043   21.6752 H   0  0  0  0  0  0  0  0  0  0  0  0
   11.7330   -0.1555   25.4027 H   0  0  0  0  0  0  0  0  0  0  0  0
   11.6349    2.1636   21.7735 H   0  0  0  0  0  0  0  0  0  0  0  0
    7.5639   -2.8621   26.1045 H   0  0  0  0  0  0  0  0  0  0  0  0
   11.0141   -4.2644   23.9422 H   0  0  0  0  0  0  0  0  0  0  0  0
    7.5950   -0.7788   24.8007 H   0  0  0  0  0  0  0  0  0  0  0  0
   11.0408   -2.1861   22.6359 H   0  0  0  0  0  0  0  0  0  0  0  0
    4.7732    2.0709   17.5073 H   0  0  0  0  0  0  0  0  0  0  0  0
    3.2823    2.7848   19.2995 H   0  0  0  0  0  0  0  0  0  0  0  0
    3.6338    1.9971   21.6547 H   0  0  0  0  0  0  0  0  0  0  0  0
    5.5079    0.4527   22.1466 H   0  0  0  0  0  0  0  0  0  0  0  0
    7.6712   -6.3280   27.3648 H   0  0  0  0  0  0  0  0  0  0  0  0
    7.9444   -8.0232   27.8085 H   0  0  0  0  0  0  0  0  0  0  0  0
    7.3945   -7.6083   26.1742 H   0  0  0  0  0  0  0  0  0  0  0  0
    9.6778    1.0140   24.6966 H   0  0  0  0  0  0  0  0  0  0  0  0
    9.6316    1.9637   23.2107 H   0  0  0  0  0  0  0  0  0  0  0  0
    7.4889   -1.4161   21.8965 H   0  0  0  0  0  0  0  0  0  0  0  0
    8.7528   -1.7575   20.7010 H   0  0  0  0  0  0  0  0  0  0  0  0
    9.8297   -8.1645   26.1916 H   0  0  0  0  0  0  0  0  0  0  0  0
   10.1142   -6.8996   27.4026 H   0  0  0  0  0  0  0  0  0  0  0  0
    8.8930   -4.8275   26.7966 H   0  0  0  0  0  0  0  0  0  0  0  0
  1  2  1  0  0  0  0
  1  3  2  0  0  0  0
  2  4  2  0  0  0  0
  3  5  1  0  0  0  0
  4 10  1  0  0  0  0
  5 10  2  0  0  0  0
  6  8  2  0  0  0  0
  6 11  1  0  0  0  0
  7  9  1  0  0  0  0
  7 11  2  0  0  0  0
  8 12  1  0  0  0  0
  9 12  2  0  0  0  0
 10 22  1  0  0  0  0
 11 28  1  0  0  0  0
 12 29  1  0  0  0  0
 13 15  1  0  0  0  0
 13 25  2  0  0  0  0
 13 27  1  0  0  0  0
 14 23  1  0  0  0  0
 14 26  2  0  0  0  0
 14 27  1  0  0  0  0
 15 16  2  0  0  0  0
 16 17  1  0  0  0  0
 17 18  2  0  0  0  0
 18 27  1  0  0  0  0
 19 23  1  0  0  0  0
 19 29  1  0  0  0  0
 19 30  2  0  0  0  0
 20 24  1  0  0  0  0
 20 28  1  0  0  0  0
 20 31  2  0  0  0  0
 21 24  1  0  0  0  0
 22 29  1  0  0  0  0
 25 26  1  0  0  0  0
  1 32  1  0  0  0  0
  2 33  1  0  0  0  0
  3 34  1  0  0  0  0
  4 35  1  0  0  0  0
  5 36  1  0  0  0  0
  6 37  1  0  0  0  0
  7 38  1  0  0  0  0
  8 39  1  0  0  0  0
  9 40  1  0  0  0  0
 15 41  1  0  0  0  0
 16 42  1  0  0  0  0
 17 43  1  0  0  0  0
 18 44  1  0  0  0  0
 21 45  1  0  0  0  0
 21 46  1  0  0  0  0
 21 47  1  0  0  0  0
 22 48  1  0  0  0  0
 22 49  1  0  0  0  0
 23 50  1  0  0  0  0
 23 51  1  0  0  0  0
 24 52  1  0  0  0  0
 24 53  1  0  0  0  0
 28 54  1  0  0  0  0
M  END
> <clash_score>
1.3340877668690392

> <docking_score>
-6.307573318481445

> <overlap_score>
0.9871352314949036

$$$$
BENZO_480_1
  -OEChem-08222022423D

 51 54  0     0  0  0  0  0  0999 V2000
    8.3310   -2.7170   25.3430 C   0  0  0  0  0  0  0  0  0  0  0  0
   10.2570   -3.5000   24.1350 C   0  0  0  0  0  0  0  0  0  0  0  0
    8.3510   -1.5420   24.6110 C   0  0  0  0  0  0  0  0  0  0  0  0
   10.2760   -2.3270   23.4020 C   0  0  0  0  0  0  0  0  0  0  0  0
   12.2675    1.0332   22.3812 C   0  0  0  0  0  0  0  0  0  0  0  0
   13.6257    0.9906   22.6074 C   0  0  0  0  0  0  0  0  0  0  0  0
   12.3384    0.9467   24.7028 C   0  0  0  0  0  0  0  0  0  0  0  0
   11.5217    1.0079   23.5949 C   0  0  0  0  0  0  0  0  0  0  0  0
    9.2850   -3.7090   25.1090 C   0  0  0  0  0  0  0  0  0  0  0  0
    9.3300   -1.3350   23.6390 C   0  0  0  0  0  0  0  0  0  0  0  0
    5.9810    0.8330   18.8060 C   0  0  0  0  0  0  0  0  0  0  0  0
    7.2210   -0.4620   20.0350 C   0  0  0  0  0  0  0  0  0  0  0  0
    4.9400    1.7060   18.5060 C   0  0  0  0  0  0  0  0  0  0  0  0
    4.0980    2.1130   19.5350 C   0  0  0  0  0  0  0  0  0  0  0  0
    4.2970    1.6690   20.8430 C   0  0  0  0  0  0  0  0  0  0  0  0
    5.3360    0.8000   21.1530 C   0  0  0  0  0  0  0  0  0  0  0  0
    8.9510    0.1280   21.6880 C   0  0  0  0  0  0  0  0  0  0  0  0
    9.6855   -6.1678   25.4393 C   0  0  0  0  0  0  0  0  0  0  0  0
    8.0405   -7.2921   26.9999 C   0  0  0  0  0  0  0  0  0  0  0  0
   10.0220    1.0430   23.6570 C   0  0  0  0  0  0  0  0  0  0  0  0
    8.0810   -0.9750   21.0820 C   0  0  0  0  0  0  0  0  0  0  0  0
    9.4870   -7.1874   26.5510 C   0  0  0  0  0  0  0  0  0  0  0  0
    6.9440    0.2550   18.0100 N   0  0  0  0  0  0  0  0  0  0  0  0
    7.6830   -0.5170   18.7600 N   0  0  0  0  0  0  0  0  0  0  0  0
    6.1600    0.3870   20.1140 N   0  0  0  0  0  0  0  0  0  0  0  0
    9.2630   -4.8902   25.8410 N   0  0  0  0  0  0  0  0  0  0  0  0
    9.4200   -0.0840   22.9530 N   0  0  0  0  0  0  0  0  0  0  0  0
    9.1870    1.1500   21.0630 O   0  0  0  0  0  0  0  0  0  0  0  0
   10.1589   -6.4763   24.3506 O   0  0  0  0  0  0  0  0  0  0  0  0
   13.9969    0.9202   24.2776 S   0  0  0  0  0  0  0  0  0  0  0  0
    7.5639   -2.8621   26.1045 H   0  0  0  0  0  0  0  0  0  0  0  0
   11.0141   -4.2644   23.9422 H   0  0  0  0  0  0  0  0  0  0  0  0
    7.5950   -0.7788   24.8007 H   0  0  0  0  0  0  0  0  0  0  0  0
   11.0408   -2.1861   22.6359 H   0  0  0  0  0  0  0  0  0  0  0  0
   11.8338    1.0798   21.3902 H   0  0  0  0  0  0  0  0  0  0  0  0
   14.4176    0.9966   21.8719 H   0  0  0  0  0  0  0  0  0  0  0  0
   12.0446    0.9149   25.7428 H   0  0  0  0  0  0  0  0  0  0  0  0
    4.7732    2.0709   17.5073 H   0  0  0  0  0  0  0  0  0  0  0  0
    3.2823    2.7848   19.2995 H   0  0  0  0  0  0  0  0  0  0  0  0
    3.6338    1.9971   21.6547 H   0  0  0  0  0  0  0  0  0  0  0  0
    5.5079    0.4527   22.1466 H   0  0  0  0  0  0  0  0  0  0  0  0
    7.6712   -6.3280   27.3648 H   0  0  0  0  0  0  0  0  0  0  0  0
    7.9444   -8.0232   27.8085 H   0  0  0  0  0  0  0  0  0  0  0  0
    7.3945   -7.6083   26.1742 H   0  0  0  0  0  0  0  0  0  0  0  0
    9.6778    1.0140   24.6966 H   0  0  0  0  0  0  0  0  0  0  0  0
    9.6316    1.9637   23.2107 H   0  0  0  0  0  0  0  0  0  0  0  0
    7.4889   -1.4161   21.8965 H   0  0  0  0  0  0  0  0  0  0  0  0
    8.7528   -1.7575   20.7010 H   0  0  0  0  0  0  0  0  0  0  0  0
    9.8297   -8.1645   26.1916 H   0  0  0  0  0  0  0  0  0  0  0  0
   10.1142   -6.8996   27.4026 H   0  0  0  0  0  0  0  0  0  0  0  0
    8.8930   -4.8275   26.7966 H   0  0  0  0  0  0  0  0  0  0  0  0
  1  3  2  0  0  0  0
  1  9  1  0  0  0  0
  2  4  1  0  0  0  0
  2  9  2  0  0  0  0
  3 10  1  0  0  0  0
  4 10  2  0  0  0  0
  5  6  2  0  0  0  0
  5  8  1  0  0  0  0
  6 30  1  0  0  0  0
  7  8  2  0  0  0  0
  7 30  1  0  0  0  0
  8 20  1  0  0  0  0
  9 26  1  0  0  0  0
 10 27  1  0  0  0  0
 11 13  1  0  0  0  0
 11 23  2  0  0  0  0
 11 25  1  0  0  0  0
 12 21  1  0  0  0  0
 12 24  2  0  0  0  0
 12 25  1  0  0  0  0
 13 14  2  0  0  0  0
 14 15  1  0  0  0  0
 15 16  2  0  0  0  0
 16 25  1  0  0  0  0
 17 21  1  0  0  0  0
 17 27  1  0  0  0  0
 17 28  2  0  0  0  0
 18 22  1  0  0  0  0
 18 26  1  0  0  0  0
 18 29  2  0  0  0  0
 19 22  1  0  0  0  0
 20 27  1  0  0  0  0
 23 24  1  0  0  0  0
  1 31  1  0  0  0  0
  2 32  1  0  0  0  0
  3 33  1  0  0  0  0
  4 34  1  0  0  0  0
  5 35  1  0  0  0  0
  6 36  1  0  0  0  0
  7 37  1  0  0  0  0
 13 38  1  0  0  0  0
 14 39  1  0  0  0  0
 15 40  1  0  0  0  0
 16 41  1  0  0  0  0
 19 42  1  0  0  0  0
 19 43  1  0  0  0  0
 19 44  1  0  0  0  0
 20 45  1  0  0  0  0
 20 46  1  0  0  0  0
 21 47  1  0  0  0  0
 21 48  1  0  0  0  0
 22 49  1  0  0  0  0
 22 50  1  0  0  0  0
 26 51  1  0  0  0  0
M  END
> <clash_score>
1.3340877668690392

> <docking_score>
-6.553771018981934

> <overlap_score>
0.9613625407218933

$$$$
BENZO_485_1
  -OEChem-08222022423D

 59 63  0     0  0  0  0  0  0999 V2000
   14.3082    0.9431   23.4783 C   0  0  0  0  0  0  0  0  0  0  0  0
   13.6391    0.3091   24.5251 C   0  0  0  0  0  0  0  0  0  0  0  0
   13.5841    1.6096   22.4898 C   0  0  0  0  0  0  0  0  0  0  0  0
   12.2459    0.3415   24.5835 C   0  0  0  0  0  0  0  0  0  0  0  0
   12.1908    1.6420   22.5481 C   0  0  0  0  0  0  0  0  0  0  0  0
    8.3310   -2.7170   25.3430 C   0  0  0  0  0  0  0  0  0  0  0  0
   10.2570   -3.5000   24.1350 C   0  0  0  0  0  0  0  0  0  0  0  0
    8.3510   -1.5420   24.6110 C   0  0  0  0  0  0  0  0  0  0  0  0
   10.2760   -2.3270   23.4020 C   0  0  0  0  0  0  0  0  0  0  0  0
   11.5217    1.0079   23.5949 C   0  0  0  0  0  0  0  0  0  0  0  0
    9.2850   -3.7090   25.1090 C   0  0  0  0  0  0  0  0  0  0  0  0
    9.3300   -1.3350   23.6390 C   0  0  0  0  0  0  0  0  0  0  0  0
    5.9810    0.8330   18.8060 C   0  0  0  0  0  0  0  0  0  0  0  0
    7.2210   -0.4620   20.0350 C   0  0  0  0  0  0  0  0  0  0  0  0
    4.9400    1.7060   18.5060 C   0  0  0  0  0  0  0  0  0  0  0  0
    4.0980    2.1130   19.5350 C   0  0  0  0  0  0  0  0  0  0  0  0
    4.2970    1.6690   20.8430 C   0  0  0  0  0  0  0  0  0  0  0  0
    5.3360    0.8000   21.1530 C   0  0  0  0  0  0  0  0  0  0  0  0
    8.9510    0.1280   21.6880 C   0  0  0  0  0  0  0  0  0  0  0  0
    7.3162   -6.8835   26.5210 C   0  0  0  0  0  0  0  0  0  0  0  0
    7.3507   -5.5245   27.2240 C   0  0  0  0  0  0  0  0  0  0  0  0
    7.9375   -6.8069   25.1245 C   0  0  0  0  0  0  0  0  0  0  0  0
    8.7638   -4.9418   27.2163 C   0  0  0  0  0  0  0  0  0  0  0  0
    9.3378   -6.1874   25.1659 C   0  0  0  0  0  0  0  0  0  0  0  0
   10.0220    1.0430   23.6570 C   0  0  0  0  0  0  0  0  0  0  0  0
    8.0810   -0.9750   21.0820 C   0  0  0  0  0  0  0  0  0  0  0  0
    6.9440    0.2550   18.0100 N   0  0  0  0  0  0  0  0  0  0  0  0
    7.6830   -0.5170   18.7600 N   0  0  0  0  0  0  0  0  0  0  0  0
    6.1600    0.3870   20.1140 N   0  0  0  0  0  0  0  0  0  0  0  0
    9.2639   -4.8860   25.8399 N   0  0  0  0  0  0  0  0  0  0  0  0
    9.4200   -0.0840   22.9530 N   0  0  0  0  0  0  0  0  0  0  0  0
    9.1870    1.1500   21.0630 O   0  0  0  0  0  0  0  0  0  0  0  0
   15.3932    0.9189   23.4337 H   0  0  0  0  0  0  0  0  0  0  0  0
   14.2029   -0.2090   25.2955 H   0  0  0  0  0  0  0  0  0  0  0  0
   14.1048    2.1043   21.6752 H   0  0  0  0  0  0  0  0  0  0  0  0
   11.7330   -0.1555   25.4027 H   0  0  0  0  0  0  0  0  0  0  0  0
   11.6349    2.1636   21.7735 H   0  0  0  0  0  0  0  0  0  0  0  0
    7.5647   -2.8621   26.1053 H   0  0  0  0  0  0  0  0  0  0  0  0
   11.0144   -4.2642   23.9425 H   0  0  0  0  0  0  0  0  0  0  0  0
    7.5958   -0.7779   24.8006 H   0  0  0  0  0  0  0  0  0  0  0  0
   11.0406   -2.1848   22.6356 H   0  0  0  0  0  0  0  0  0  0  0  0
    4.7732    2.0709   17.5073 H   0  0  0  0  0  0  0  0  0  0  0  0
    3.2823    2.7848   19.2995 H   0  0  0  0  0  0  0  0  0  0  0  0
    3.6338    1.9971   21.6547 H   0  0  0  0  0  0  0  0  0  0  0  0
    5.5079    0.4527   22.1466 H   0  0  0  0  0  0  0  0  0  0  0  0
    7.8578   -7.6261   27.1266 H   0  0  0  0  0  0  0  0  0  0  0  0
    6.2773   -7.2358   26.4459 H   0  0  0  0  0  0  0  0  0  0  0  0
    6.6663   -4.8351   26.7223 H   0  0  0  0  0  0  0  0  0  0  0  0
    7.0044   -5.6368   28.2534 H   0  0  0  0  0  0  0  0  0  0  0  0
    7.9946   -7.8119   24.6937 H   0  0  0  0  0  0  0  0  0  0  0  0
    7.2929   -6.2123   24.4668 H   0  0  0  0  0  0  0  0  0  0  0  0
    8.7343   -3.9408   27.6542 H   0  0  0  0  0  0  0  0  0  0  0  0
    9.4243   -5.5632   27.8278 H   0  0  0  0  0  0  0  0  0  0  0  0
   10.0200   -6.8490   25.7011 H   0  0  0  0  0  0  0  0  0  0  0  0
    9.6984   -6.0694   24.1436 H   0  0  0  0  0  0  0  0  0  0  0  0
    9.6778    1.0140   24.6966 H   0  0  0  0  0  0  0  0  0  0  0  0
    9.6316    1.9637   23.2107 H   0  0  0  0  0  0  0  0  0  0  0  0
    7.4781   -1.4136   21.8845 H   0  0  0  0  0  0  0  0  0  0  0  0
    8.7420   -1.7550   20.6889 H   0  0  0  0  0  0  0  0  0  0  0  0
  1  2  1  0  0  0  0
  1  3  2  0  0  0  0
  2  4  2  0  0  0  0
  3  5  1  0  0  0  0
  4 10  1  0  0  0  0
  5 10  2  0  0  0  0
  6  8  2  0  0  0  0
  6 11  1  0  0  0  0
  7  9  1  0  0  0  0
  7 11  2  0  0  0  0
  8 12  1  0  0  0  0
  9 12  2  0  0  0  0
 10 25  1  0  0  0  0
 11 30  1  0  0  0  0
 12 31  1  0  0  0  0
 13 15  1  0  0  0  0
 13 27  2  0  0  0  0
 13 29  1  0  0  0  0
 14 26  1  0  0  0  0
 14 28  2  0  0  0  0
 14 29  1  0  0  0  0
 15 16  2  0  0  0  0
 16 17  1  0  0  0  0
 17 18  2  0  0  0  0
 18 29  1  0  0  0  0
 19 26  1  0  0  0  0
 19 31  1  0  0  0  0
 19 32  2  0  0  0  0
 20 21  1  0  0  0  0
 20 22  1  0  0  0  0
 21 23  1  0  0  0  0
 22 24  1  0  0  0  0
 23 30  1  0  0  0  0
 24 30  1  0  0  0  0
 25 31  1  0  0  0  0
 27 28  1  0  0  0  0
  1 33  1  0  0  0  0
  2 34  1  0  0  0  0
  3 35  1  0  0  0  0
  4 36  1  0  0  0  0
  5 37  1  0  0  0  0
  6 38  1  0  0  0  0
  7 39  1  0  0  0  0
  8 40  1  0  0  0  0
  9 41  1  0  0  0  0
 15 42  1  0  0  0  0
 16 43  1  0  0  0  0
 17 44  1  0  0  0  0
 18 45  1  0  0  0  0
 20 46  1  0  0  0  0
 20 47  1  0  0  0  0
 21 48  1  0  0  0  0
 21 49  1  0  0  0  0
 22 50  1  0  0  0  0
 22 51  1  0  0  0  0
 23 52  1  0  0  0  0
 23 53  1  0  0  0  0
 24 54  1  0  0  0  0
 24 55  1  0  0  0  0
 25 56  1  0  0  0  0
 25 57  1  0  0  0  0
 26 58  1  0  0  0  0
 26 59  1  0  0  0  0
M  END
> <clash_score>
0

> <docking_score>
-8.540383338928223

> <overlap_score>
1.015582799911499

$$$$
BENZO_484_1
  -OEChem-08222022423D

 56 60  0     0  0  0  0  0  0999 V2000
    8.3310   -2.7170   25.3430 C   0  0  0  0  0  0  0  0  0  0  0  0
   10.2570   -3.5000   24.1350 C   0  0  0  0  0  0  0  0  0  0  0  0
    8.3510   -1.5420   24.6110 C   0  0  0  0  0  0  0  0  0  0  0  0
   10.2760   -2.3270   23.4020 C   0  0  0  0  0  0  0  0  0  0  0  0
   12.2675    1.0332   22.3812 C   0  0  0  0  0  0  0  0  0  0  0  0
   13.6257    0.9906   22.6074 C   0  0  0  0  0  0  0  0  0  0  0  0
   12.3384    0.9467   24.7028 C   0  0  0  0  0  0  0  0  0  0  0  0
   11.5217    1.0079   23.5949 C   0  0  0  0  0  0  0  0  0  0  0  0
    9.2850   -3.7090   25.1090 C   0  0  0  0  0  0  0  0  0  0  0  0
    9.3300   -1.3350   23.6390 C   0  0  0  0  0  0  0  0  0  0  0  0
    5.9810    0.8330   18.8060 C   0  0  0  0  0  0  0  0  0  0  0  0
    7.2210   -0.4620   20.0350 C   0  0  0  0  0  0  0  0  0  0  0  0
    4.9400    1.7060   18.5060 C   0  0  0  0  0  0  0  0  0  0  0  0
    4.0980    2.1130   19.5350 C   0  0  0  0  0  0  0  0  0  0  0  0
    4.2970    1.6690   20.8430 C   0  0  0  0  0  0  0  0  0  0  0  0
    5.3360    0.8000   21.1530 C   0  0  0  0  0  0  0  0  0  0  0  0
    8.9510    0.1280   21.6880 C   0  0  0  0  0  0  0  0  0  0  0  0
    7.3162   -6.8835   26.5210 C   0  0  0  0  0  0  0  0  0  0  0  0
    7.3507   -5.5245   27.2240 C   0  0  0  0  0  0  0  0  0  0  0  0
    7.9375   -6.8069   25.1245 C   0  0  0  0  0  0  0  0  0  0  0  0
    8.7638   -4.9418   27.2163 C   0  0  0  0  0  0  0  0  0  0  0  0
    9.3378   -6.1874   25.1659 C   0  0  0  0  0  0  0  0  0  0  0  0
   10.0220    1.0430   23.6570 C   0  0  0  0  0  0  0  0  0  0  0  0
    8.0810   -0.9750   21.0820 C   0  0  0  0  0  0  0  0  0  0  0  0
    6.9440    0.2550   18.0100 N   0  0  0  0  0  0  0  0  0  0  0  0
    7.6830   -0.5170   18.7600 N   0  0  0  0  0  0  0  0  0  0  0  0
    6.1600    0.3870   20.1140 N   0  0  0  0  0  0  0  0  0  0  0  0
    9.2639   -4.8860   25.8399 N   0  0  0  0  0  0  0  0  0  0  0  0
    9.4200   -0.0840   22.9530 N   0  0  0  0  0  0  0  0  0  0  0  0
    9.1870    1.1500   21.0630 O   0  0  0  0  0  0  0  0  0  0  0  0
   13.9969    0.9203   24.2776 S   0  0  0  0  0  0  0  0  0  0  0  0
    7.5647   -2.8621   26.1053 H   0  0  0  0  0  0  0  0  0  0  0  0
   11.0144   -4.2642   23.9425 H   0  0  0  0  0  0  0  0  0  0  0  0
    7.5958   -0.7779   24.8006 H   0  0  0  0  0  0  0  0  0  0  0  0
   11.0406   -2.1848   22.6356 H   0  0  0  0  0  0  0  0  0  0  0  0
   11.8339    1.0799   21.3902 H   0  0  0  0  0  0  0  0  0  0  0  0
   14.4176    0.9966   21.8719 H   0  0  0  0  0  0  0  0  0  0  0  0
   12.0446    0.9149   25.7428 H   0  0  0  0  0  0  0  0  0  0  0  0
    4.7732    2.0709   17.5073 H   0  0  0  0  0  0  0  0  0  0  0  0
    3.2823    2.7848   19.2995 H   0  0  0  0  0  0  0  0  0  0  0  0
    3.6338    1.9971   21.6547 H   0  0  0  0  0  0  0  0  0  0  0  0
    5.5079    0.4527   22.1466 H   0  0  0  0  0  0  0  0  0  0  0  0
    7.8578   -7.6261   27.1266 H   0  0  0  0  0  0  0  0  0  0  0  0
    6.2773   -7.2358   26.4459 H   0  0  0  0  0  0  0  0  0  0  0  0
    6.6663   -4.8351   26.7223 H   0  0  0  0  0  0  0  0  0  0  0  0
    7.0044   -5.6368   28.2534 H   0  0  0  0  0  0  0  0  0  0  0  0
    7.9946   -7.8119   24.6937 H   0  0  0  0  0  0  0  0  0  0  0  0
    7.2929   -6.2123   24.4668 H   0  0  0  0  0  0  0  0  0  0  0  0
    8.7343   -3.9408   27.6542 H   0  0  0  0  0  0  0  0  0  0  0  0
    9.4243   -5.5632   27.8278 H   0  0  0  0  0  0  0  0  0  0  0  0
   10.0200   -6.8490   25.7011 H   0  0  0  0  0  0  0  0  0  0  0  0
    9.6984   -6.0694   24.1436 H   0  0  0  0  0  0  0  0  0  0  0  0
    9.6778    1.0140   24.6966 H   0  0  0  0  0  0  0  0  0  0  0  0
    9.6316    1.9637   23.2107 H   0  0  0  0  0  0  0  0  0  0  0  0
    7.4781   -1.4136   21.8845 H   0  0  0  0  0  0  0  0  0  0  0  0
    8.7420   -1.7550   20.6889 H   0  0  0  0  0  0  0  0  0  0  0  0
  1  3  2  0  0  0  0
  1  9  1  0  0  0  0
  2  4  1  0  0  0  0
  2  9  2  0  0  0  0
  3 10  1  0  0  0  0
  4 10  2  0  0  0  0
  5  6  2  0  0  0  0
  5  8  1  0  0  0  0
  6 31  1  0  0  0  0
  7  8  2  0  0  0  0
  7 31  1  0  0  0  0
  8 23  1  0  0  0  0
  9 28  1  0  0  0  0
 10 29  1  0  0  0  0
 11 13  1  0  0  0  0
 11 25  2  0  0  0  0
 11 27  1  0  0  0  0
 12 24  1  0  0  0  0
 12 26  2  0  0  0  0
 12 27  1  0  0  0  0
 13 14  2  0  0  0  0
 14 15  1  0  0  0  0
 15 16  2  0  0  0  0
 16 27  1  0  0  0  0
 17 24  1  0  0  0  0
 17 29  1  0  0  0  0
 17 30  2  0  0  0  0
 18 19  1  0  0  0  0
 18 20  1  0  0  0  0
 19 21  1  0  0  0  0
 20 22  1  0  0  0  0
 21 28  1  0  0  0  0
 22 28  1  0  0  0  0
 23 29  1  0  0  0  0
 25 26  1  0  0  0  0
  1 32  1  0  0  0  0
  2 33  1  0  0  0  0
  3 34  1  0  0  0  0
  4 35  1  0  0  0  0
  5 36  1  0  0  0  0
  6 37  1  0  0  0  0
  7 38  1  0  0  0  0
 13 39  1  0  0  0  0
 14 40  1  0  0  0  0
 15 41  1  0  0  0  0
 16 42  1  0  0  0  0
 18 43  1  0  0  0  0
 18 44  1  0  0  0  0
 19 45  1  0  0  0  0
 19 46  1  0  0  0  0
 20 47  1  0  0  0  0
 20 48  1  0  0  0  0
 21 49  1  0  0  0  0
 21 50  1  0  0  0  0
 22 51  1  0  0  0  0
 22 52  1  0  0  0  0
 23 53  1  0  0  0  0
 23 54  1  0  0  0  0
 24 55  1  0  0  0  0
 24 56  1  0  0  0  0
M  END
> <clash_score>
0

> <docking_score>
-8.786598205566406

> <overlap_score>
0.9899338483810425

$$$$
BENZO_482_1
  -OEChem-08222022423D

 54 57  0     0  0  0  0  0  0999 V2000
   13.5977    1.8457   22.6865 C   0  0  0  0  0  0  0  0  0  0  0  0
   12.2044    1.8769   22.7438 C   0  0  0  0  0  0  0  0  0  0  0  0
    8.3310   -2.7170   25.3430 C   0  0  0  0  0  0  0  0  0  0  0  0
   10.2570   -3.5000   24.1350 C   0  0  0  0  0  0  0  0  0  0  0  0
    8.3510   -1.5420   24.6110 C   0  0  0  0  0  0  0  0  0  0  0  0
   10.2760   -2.3270   23.4020 C   0  0  0  0  0  0  0  0  0  0  0  0
   14.3084    0.9454   23.4803 C   0  0  0  0  0  0  0  0  0  0  0  0
   12.2323    0.1076   24.3888 C   0  0  0  0  0  0  0  0  0  0  0  0
   11.5217    1.0079   23.5949 C   0  0  0  0  0  0  0  0  0  0  0  0
    9.2850   -3.7090   25.1090 C   0  0  0  0  0  0  0  0  0  0  0  0
    9.3300   -1.3350   23.6390 C   0  0  0  0  0  0  0  0  0  0  0  0
   13.6257    0.0764   24.3314 C   0  0  0  0  0  0  0  0  0  0  0  0
    5.9810    0.8330   18.8060 C   0  0  0  0  0  0  0  0  0  0  0  0
    7.2210   -0.4620   20.0350 C   0  0  0  0  0  0  0  0  0  0  0  0
    4.9400    1.7060   18.5060 C   0  0  0  0  0  0  0  0  0  0  0  0
    4.0980    2.1130   19.5350 C   0  0  0  0  0  0  0  0  0  0  0  0
    4.2970    1.6690   20.8430 C   0  0  0  0  0  0  0  0  0  0  0  0
    5.3360    0.8000   21.1530 C   0  0  0  0  0  0  0  0  0  0  0  0
    8.9510    0.1280   21.6880 C   0  0  0  0  0  0  0  0  0  0  0  0
    9.6855   -6.1678   25.4393 C   0  0  0  0  0  0  0  0  0  0  0  0
    8.0405   -7.2921   26.9999 C   0  0  0  0  0  0  0  0  0  0  0  0
   10.0220    1.0430   23.6570 C   0  0  0  0  0  0  0  0  0  0  0  0
    8.0810   -0.9750   21.0820 C   0  0  0  0  0  0  0  0  0  0  0  0
    9.4870   -7.1874   26.5510 C   0  0  0  0  0  0  0  0  0  0  0  0
    6.9440    0.2550   18.0100 N   0  0  0  0  0  0  0  0  0  0  0  0
    7.6830   -0.5170   18.7600 N   0  0  0  0  0  0  0  0  0  0  0  0
    6.1600    0.3870   20.1140 N   0  0  0  0  0  0  0  0  0  0  0  0
    9.2630   -4.8902   25.8410 N   0  0  0  0  0  0  0  0  0  0  0  0
    9.4200   -0.0840   22.9530 N   0  0  0  0  0  0  0  0  0  0  0  0
    9.1870    1.1500   21.0630 O   0  0  0  0  0  0  0  0  0  0  0  0
   10.1589   -6.4763   24.3506 O   0  0  0  0  0  0  0  0  0  0  0  0
   14.5031   -1.0334   25.3114 Cl  0  0  0  0  0  0  0  0  0  0  0  0
   14.1289    2.5226   22.0237 H   0  0  0  0  0  0  0  0  0  0  0  0
   11.6588    2.5818   22.1218 H   0  0  0  0  0  0  0  0  0  0  0  0
    7.5639   -2.8621   26.1045 H   0  0  0  0  0  0  0  0  0  0  0  0
   11.0141   -4.2644   23.9422 H   0  0  0  0  0  0  0  0  0  0  0  0
    7.5950   -0.7788   24.8007 H   0  0  0  0  0  0  0  0  0  0  0  0
   11.0408   -2.1861   22.6359 H   0  0  0  0  0  0  0  0  0  0  0  0
   15.3941    0.9323   23.4255 H   0  0  0  0  0  0  0  0  0  0  0  0
   11.6954   -0.5682   25.0504 H   0  0  0  0  0  0  0  0  0  0  0  0
    4.7732    2.0709   17.5073 H   0  0  0  0  0  0  0  0  0  0  0  0
    3.2823    2.7848   19.2995 H   0  0  0  0  0  0  0  0  0  0  0  0
    3.6338    1.9971   21.6547 H   0  0  0  0  0  0  0  0  0  0  0  0
    5.5079    0.4527   22.1466 H   0  0  0  0  0  0  0  0  0  0  0  0
    7.6712   -6.3280   27.3648 H   0  0  0  0  0  0  0  0  0  0  0  0
    7.9444   -8.0232   27.8085 H   0  0  0  0  0  0  0  0  0  0  0  0
    7.3945   -7.6083   26.1742 H   0  0  0  0  0  0  0  0  0  0  0  0
    9.6778    1.0140   24.6966 H   0  0  0  0  0  0  0  0  0  0  0  0
    9.6316    1.9637   23.2107 H   0  0  0  0  0  0  0  0  0  0  0  0
    7.4889   -1.4161   21.8965 H   0  0  0  0  0  0  0  0  0  0  0  0
    8.7528   -1.7575   20.7010 H   0  0  0  0  0  0  0  0  0  0  0  0
    9.8297   -8.1645   26.1916 H   0  0  0  0  0  0  0  0  0  0  0  0
   10.1142   -6.8996   27.4026 H   0  0  0  0  0  0  0  0  0  0  0  0
    8.8930   -4.8275   26.7966 H   0  0  0  0  0  0  0  0  0  0  0  0
  1  2  2  0  0  0  0
  1  7  1  0  0  0  0
  2  9  1  0  0  0  0
  3  5  2  0  0  0  0
  3 10  1  0  0  0  0
  4  6  1  0  0  0  0
  4 10  2  0  0  0  0
  5 11  1  0  0  0  0
  6 11  2  0  0  0  0
  7 12  2  0  0  0  0
  8  9  2  0  0  0  0
  8 12  1  0  0  0  0
  9 22  1  0  0  0  0
 10 28  1  0  0  0  0
 11 29  1  0  0  0  0
 12 32  1  0  0  0  0
 13 15  1  0  0  0  0
 13 25  2  0  0  0  0
 13 27  1  0  0  0  0
 14 23  1  0  0  0  0
 14 26  2  0  0  0  0
 14 27  1  0  0  0  0
 15 16  2  0  0  0  0
 16 17  1  0  0  0  0
 17 18  2  0  0  0  0
 18 27  1  0  0  0  0
 19 23  1  0  0  0  0
 19 29  1  0  0  0  0
 19 30  2  0  0  0  0
 20 24  1  0  0  0  0
 20 28  1  0  0  0  0
 20 31  2  0  0  0  0
 21 24  1  0  0  0  0
 22 29  1  0  0  0  0
 25 26  1  0  0  0  0
  1 33  1  0  0  0  0
  2 34  1  0  0  0  0
  3 35  1  0  0  0  0
  4 36  1  0  0  0  0
  5 37  1  0  0  0  0
  6 38  1  0  0  0  0
  7 39  1  0  0  0  0
  8 40  1  0  0  0  0
 15 41  1  0  0  0  0
 16 42  1  0  0  0  0
 17 43  1  0  0  0  0
 18 44  1  0  0  0  0
 21 45  1  0  0  0  0
 21 46  1  0  0  0  0
 21 47  1  0  0  0  0
 22 48  1  0  0  0  0
 22 49  1  0  0  0  0
 23 50  1  0  0  0  0
 23 51  1  0  0  0  0
 24 52  1  0  0  0  0
 24 53  1  0  0  0  0
 28 54  1  0  0  0  0
M  END
> <clash_score>
2.1003346765576065

> <docking_score>
-5.489472389221191

> <overlap_score>
0.9923455715179443

$$$$
BENZO_483_1
  -OEChem-08222022423D

 54 57  0     0  0  0  0  0  0999 V2000
    8.3310   -2.7170   25.3430 C   0  0  0  0  0  0  0  0  0  0  0  0
   10.2570   -3.5000   24.1350 C   0  0  0  0  0  0  0  0  0  0  0  0
    8.3510   -1.5420   24.6110 C   0  0  0  0  0  0  0  0  0  0  0  0
   10.2760   -2.3270   23.4020 C   0  0  0  0  0  0  0  0  0  0  0  0
   12.4295    0.9466   24.6692 C   0  0  0  0  0  0  0  0  0  0  0  0
   12.3161    1.0259   22.4747 C   0  0  0  0  0  0  0  0  0  0  0  0
   11.5217    1.0079   23.5949 C   0  0  0  0  0  0  0  0  0  0  0  0
    9.2850   -3.7090   25.1090 C   0  0  0  0  0  0  0  0  0  0  0  0
    9.3300   -1.3350   23.6390 C   0  0  0  0  0  0  0  0  0  0  0  0
    5.9810    0.8330   18.8060 C   0  0  0  0  0  0  0  0  0  0  0  0
    7.2210   -0.4620   20.0350 C   0  0  0  0  0  0  0  0  0  0  0  0
    4.9400    1.7060   18.5060 C   0  0  0  0  0  0  0  0  0  0  0  0
    4.0980    2.1130   19.5350 C   0  0  0  0  0  0  0  0  0  0  0  0
    4.2970    1.6690   20.8430 C   0  0  0  0  0  0  0  0  0  0  0  0
    5.3360    0.8000   21.1530 C   0  0  0  0  0  0  0  0  0  0  0  0
    8.9510    0.1280   21.6880 C   0  0  0  0  0  0  0  0  0  0  0  0
    9.6855   -6.1678   25.4393 C   0  0  0  0  0  0  0  0  0  0  0  0
    8.0405   -7.2921   26.9999 C   0  0  0  0  0  0  0  0  0  0  0  0
   14.7958    0.9722   22.1181 C   0  0  0  0  0  0  0  0  0  0  0  0
   10.0220    1.0430   23.6570 C   0  0  0  0  0  0  0  0  0  0  0  0
    8.0810   -0.9750   21.0820 C   0  0  0  0  0  0  0  0  0  0  0  0
    9.4870   -7.1874   26.5510 C   0  0  0  0  0  0  0  0  0  0  0  0
   13.7032    0.9267   24.2674 N   0  0  0  0  0  0  0  0  0  0  0  0
    6.9440    0.2550   18.0100 N   0  0  0  0  0  0  0  0  0  0  0  0
    7.6830   -0.5170   18.7600 N   0  0  0  0  0  0  0  0  0  0  0  0
   13.6014    0.9758   22.9283 N   0  0  0  0  0  0  0  0  0  0  0  0
    6.1600    0.3870   20.1140 N   0  0  0  0  0  0  0  0  0  0  0  0
    9.2630   -4.8902   25.8410 N   0  0  0  0  0  0  0  0  0  0  0  0
    9.4200   -0.0840   22.9530 N   0  0  0  0  0  0  0  0  0  0  0  0
    9.1870    1.1500   21.0630 O   0  0  0  0  0  0  0  0  0  0  0  0
   10.1589   -6.4763   24.3506 O   0  0  0  0  0  0  0  0  0  0  0  0
    7.5639   -2.8621   26.1045 H   0  0  0  0  0  0  0  0  0  0  0  0
   11.0141   -4.2644   23.9422 H   0  0  0  0  0  0  0  0  0  0  0  0
    7.5950   -0.7788   24.8007 H   0  0  0  0  0  0  0  0  0  0  0  0
   11.0408   -2.1861   22.6359 H   0  0  0  0  0  0  0  0  0  0  0  0
   12.2184    0.9145   25.7287 H   0  0  0  0  0  0  0  0  0  0  0  0
   12.0821    1.0677   21.4195 H   0  0  0  0  0  0  0  0  0  0  0  0
    4.7732    2.0709   17.5073 H   0  0  0  0  0  0  0  0  0  0  0  0
    3.2823    2.7848   19.2995 H   0  0  0  0  0  0  0  0  0  0  0  0
    3.6338    1.9971   21.6547 H   0  0  0  0  0  0  0  0  0  0  0  0
    5.5079    0.4527   22.1466 H   0  0  0  0  0  0  0  0  0  0  0  0
    7.6712   -6.3280   27.3648 H   0  0  0  0  0  0  0  0  0  0  0  0
    7.9444   -8.0232   27.8085 H   0  0  0  0  0  0  0  0  0  0  0  0
    7.3945   -7.6083   26.1742 H   0  0  0  0  0  0  0  0  0  0  0  0
   15.1026    2.0102   21.9649 H   0  0  0  0  0  0  0  0  0  0  0  0
   15.5825    0.4128   22.6318 H   0  0  0  0  0  0  0  0  0  0  0  0
   14.5811    0.4906   21.1600 H   0  0  0  0  0  0  0  0  0  0  0  0
    9.6778    1.0140   24.6966 H   0  0  0  0  0  0  0  0  0  0  0  0
    9.6316    1.9637   23.2107 H   0  0  0  0  0  0  0  0  0  0  0  0
    7.4889   -1.4161   21.8965 H   0  0  0  0  0  0  0  0  0  0  0  0
    8.7528   -1.7575   20.7010 H   0  0  0  0  0  0  0  0  0  0  0  0
    9.8297   -8.1645   26.1916 H   0  0  0  0  0  0  0  0  0  0  0  0
   10.1142   -6.8996   27.4026 H   0  0  0  0  0  0  0  0  0  0  0  0
    8.8930   -4.8275   26.7966 H   0  0  0  0  0  0  0  0  0  0  0  0
  1  3  2  0  0  0  0
  1  8  1  0  0  0  0
  2  4  1  0  0  0  0
  2  8  2  0  0  0  0
  3  9  1  0  0  0  0
  4  9  2  0  0  0  0
  5  7  1  0  0  0  0
  5 23  2  0  0  0  0
  6  7  2  0  0  0  0
  6 26  1  0  0  0  0
  7 20  1  0  0  0  0
  8 28  1  0  0  0  0
  9 29  1  0  0  0  0
 10 12  1  0  0  0  0
 10 24  2  0  0  0  0
 10 27  1  0  0  0  0
 11 21  1  0  0  0  0
 11 25  2  0  0  0  0
 11 27  1  0  0  0  0
 12 13  2  0  0  0  0
 13 14  1  0  0  0  0
 14 15  2  0  0  0  0
 15 27  1  0  0  0  0
 16 21  1  0  0  0  0
 16 29  1  0  0  0  0
 16 30  2  0  0  0  0
 17 22  1  0  0  0  0
 17 28  1  0  0  0  0
 17 31  2  0  0  0  0
 18 22  1  0  0  0  0
 19 26  1  0  0  0  0
 20 29  1  0  0  0  0
 23 26  1  0  0  0  0
 24 25  1  0  0  0  0
  1 32  1  0  0  0  0
  2 33  1  0  0  0  0
  3 34  1  0  0  0  0
  4 35  1  0  0  0  0
  5 36  1  0  0  0  0
  6 37  1  0  0  0  0
 12 38  1  0  0  0  0
 13 39  1  0  0  0  0
 14 40  1  0  0  0  0
 15 41  1  0  0  0  0
 18 42  1  0  0  0  0
 18 43  1  0  0  0  0
 18 44  1  0  0  0  0
 19 45  1  0  0  0  0
 19 46  1  0  0  0  0
 19 47  1  0  0  0  0
 20 48  1  0  0  0  0
 20 49  1  0  0  0  0
 21 50  1  0  0  0  0
 21 51  1  0  0  0  0
 22 52  1  0  0  0  0
 22 53  1  0  0  0  0
 28 54  1  0  0  0  0
M  END
> <clash_score>
1.3340877668690392

> <docking_score>
-6.249629497528076

> <overlap_score>
0.9779788851737976

$$$$
BENZO_488_1
  -OEChem-08222022423D

 44 47  0     0  0  0  0  0  0999 V2000
    8.3310   -2.7170   25.3430 C   0  0  0  0  0  0  0  0  0  0  0  0
   10.2570   -3.5000   24.1350 C   0  0  0  0  0  0  0  0  0  0  0  0
    8.3510   -1.5420   24.6110 C   0  0  0  0  0  0  0  0  0  0  0  0
   10.2760   -2.3270   23.4020 C   0  0  0  0  0  0  0  0  0  0  0  0
   12.2675    1.0332   22.3812 C   0  0  0  0  0  0  0  0  0  0  0  0
   13.6257    0.9906   22.6074 C   0  0  0  0  0  0  0  0  0  0  0  0
   12.3384    0.9467   24.7028 C   0  0  0  0  0  0  0  0  0  0  0  0
    9.2850   -3.7090   25.1090 C   0  0  0  0  0  0  0  0  0  0  0  0
   11.5217    1.0079   23.5949 C   0  0  0  0  0  0  0  0  0  0  0  0
    9.3300   -1.3350   23.6390 C   0  0  0  0  0  0  0  0  0  0  0  0
    5.9810    0.8330   18.8060 C   0  0  0  0  0  0  0  0  0  0  0  0
    7.2210   -0.4620   20.0350 C   0  0  0  0  0  0  0  0  0  0  0  0
    4.9400    1.7060   18.5060 C   0  0  0  0  0  0  0  0  0  0  0  0
    4.0980    2.1130   19.5350 C   0  0  0  0  0  0  0  0  0  0  0  0
    4.2970    1.6690   20.8430 C   0  0  0  0  0  0  0  0  0  0  0  0
    5.3360    0.8000   21.1530 C   0  0  0  0  0  0  0  0  0  0  0  0
    8.9510    0.1280   21.6880 C   0  0  0  0  0  0  0  0  0  0  0  0
    9.2610   -4.9721   25.8916 C   0  0  0  0  0  0  0  0  0  0  0  0
   10.0220    1.0430   23.6570 C   0  0  0  0  0  0  0  0  0  0  0  0
    8.0810   -0.9750   21.0820 C   0  0  0  0  0  0  0  0  0  0  0  0
    6.9440    0.2550   18.0100 N   0  0  0  0  0  0  0  0  0  0  0  0
    7.6830   -0.5170   18.7600 N   0  0  0  0  0  0  0  0  0  0  0  0
    6.1600    0.3870   20.1140 N   0  0  0  0  0  0  0  0  0  0  0  0
    9.4200   -0.0840   22.9530 N   0  0  0  0  0  0  0  0  0  0  0  0
    9.1870    1.1500   21.0630 O   0  0  0  0  0  0  0  0  0  0  0  0
   13.9969    0.9202   24.2776 S   0  0  0  0  0  0  0  0  0  0  0  0
    7.5665   -2.8638   26.1066 H   0  0  0  0  0  0  0  0  0  0  0  0
   11.0137   -4.2652   23.9447 H   0  0  0  0  0  0  0  0  0  0  0  0
    7.5948   -0.7788   24.7997 H   0  0  0  0  0  0  0  0  0  0  0  0
   11.0411   -2.1856   22.6358 H   0  0  0  0  0  0  0  0  0  0  0  0
   11.8338    1.0798   21.3902 H   0  0  0  0  0  0  0  0  0  0  0  0
   14.4176    0.9966   21.8719 H   0  0  0  0  0  0  0  0  0  0  0  0
   12.0446    0.9149   25.7428 H   0  0  0  0  0  0  0  0  0  0  0  0
    4.7732    2.0709   17.5073 H   0  0  0  0  0  0  0  0  0  0  0  0
    3.2823    2.7848   19.2995 H   0  0  0  0  0  0  0  0  0  0  0  0
    3.6338    1.9971   21.6547 H   0  0  0  0  0  0  0  0  0  0  0  0
    5.5079    0.4527   22.1466 H   0  0  0  0  0  0  0  0  0  0  0  0
    8.6398   -5.7223   25.3871 H   0  0  0  0  0  0  0  0  0  0  0  0
   10.2715   -5.3829   26.0145 H   0  0  0  0  0  0  0  0  0  0  0  0
    8.8596   -4.8092   26.9004 H   0  0  0  0  0  0  0  0  0  0  0  0
    9.6778    1.0140   24.6966 H   0  0  0  0  0  0  0  0  0  0  0  0
    9.6316    1.9637   23.2107 H   0  0  0  0  0  0  0  0  0  0  0  0
    7.4889   -1.4161   21.8965 H   0  0  0  0  0  0  0  0  0  0  0  0
    8.7528   -1.7575   20.7010 H   0  0  0  0  0  0  0  0  0  0  0  0
  1  3  2  0  0  0  0
  1  8  1  0  0  0  0
  2  4  1  0  0  0  0
  2  8  2  0  0  0  0
  3 10  1  0  0  0  0
  4 10  2  0  0  0  0
  5  6  2  0  0  0  0
  5  9  1  0  0  0  0
  6 26  1  0  0  0  0
  7  9  2  0  0  0  0
  7 26  1  0  0  0  0
  8 18  1  0  0  0  0
  9 19  1  0  0  0  0
 10 24  1  0  0  0  0
 11 13  1  0  0  0  0
 11 21  2  0  0  0  0
 11 23  1  0  0  0  0
 12 20  1  0  0  0  0
 12 22  2  0  0  0  0
 12 23  1  0  0  0  0
 13 14  2  0  0  0  0
 14 15  1  0  0  0  0
 15 16  2  0  0  0  0
 16 23  1  0  0  0  0
 17 20  1  0  0  0  0
 17 24  1  0  0  0  0
 17 25  2  0  0  0  0
 19 24  1  0  0  0  0
 21 22  1  0  0  0  0
  1 27  1  0  0  0  0
  2 28  1  0  0  0  0
  3 29  1  0  0  0  0
  4 30  1  0  0  0  0
  5 31  1  0  0  0  0
  6 32  1  0  0  0  0
  7 33  1  0  0  0  0
 13 34  1  0  0  0  0
 14 35  1  0  0  0  0
 15 36  1  0  0  0  0
 16 37  1  0  0  0  0
 18 38  1  0  0  0  0
 18 39  1  0  0  0  0
 18 40  1  0  0  0  0
 19 41  1  0  0  0  0
 19 42  1  0  0  0  0
 20 43  1  0  0  0  0
 20 44  1  0  0  0  0
M  END
> <clash_score>
0

> <docking_score>
-9.744247436523438

> <overlap_score>
0.9457805156707764

$$$$
BENZO_489_1
  -OEChem-08222022423D

 47 50  0     0  0  0  0  0  0999 V2000
   14.3082    0.9431   23.4783 C   0  0  0  0  0  0  0  0  0  0  0  0
   13.6391    0.3091   24.5251 C   0  0  0  0  0  0  0  0  0  0  0  0
   13.5841    1.6096   22.4898 C   0  0  0  0  0  0  0  0  0  0  0  0
   12.2459    0.3415   24.5835 C   0  0  0  0  0  0  0  0  0  0  0  0
   12.1908    1.6420   22.5481 C   0  0  0  0  0  0  0  0  0  0  0  0
    8.3310   -2.7170   25.3430 C   0  0  0  0  0  0  0  0  0  0  0  0
   10.2570   -3.5000   24.1350 C   0  0  0  0  0  0  0  0  0  0  0  0
    8.3510   -1.5420   24.6110 C   0  0  0  0  0  0  0  0  0  0  0  0
   10.2760   -2.3270   23.4020 C   0  0  0  0  0  0  0  0  0  0  0  0
    9.2850   -3.7090   25.1090 C   0  0  0  0  0  0  0  0  0  0  0  0
   11.5217    1.0079   23.5949 C   0  0  0  0  0  0  0  0  0  0  0  0
    9.3300   -1.3350   23.6390 C   0  0  0  0  0  0  0  0  0  0  0  0
    5.9810    0.8330   18.8060 C   0  0  0  0  0  0  0  0  0  0  0  0
    7.2210   -0.4620   20.0350 C   0  0  0  0  0  0  0  0  0  0  0  0
    4.9400    1.7060   18.5060 C   0  0  0  0  0  0  0  0  0  0  0  0
    4.0980    2.1130   19.5350 C   0  0  0  0  0  0  0  0  0  0  0  0
    4.2970    1.6690   20.8430 C   0  0  0  0  0  0  0  0  0  0  0  0
    5.3360    0.8000   21.1530 C   0  0  0  0  0  0  0  0  0  0  0  0
    8.9510    0.1280   21.6880 C   0  0  0  0  0  0  0  0  0  0  0  0
    9.2610   -4.9721   25.8916 C   0  0  0  0  0  0  0  0  0  0  0  0
   10.0220    1.0430   23.6570 C   0  0  0  0  0  0  0  0  0  0  0  0
    8.0810   -0.9750   21.0820 C   0  0  0  0  0  0  0  0  0  0  0  0
    6.9440    0.2550   18.0100 N   0  0  0  0  0  0  0  0  0  0  0  0
    7.6830   -0.5170   18.7600 N   0  0  0  0  0  0  0  0  0  0  0  0
    6.1600    0.3870   20.1140 N   0  0  0  0  0  0  0  0  0  0  0  0
    9.4200   -0.0840   22.9530 N   0  0  0  0  0  0  0  0  0  0  0  0
    9.1870    1.1500   21.0630 O   0  0  0  0  0  0  0  0  0  0  0  0
   15.3932    0.9189   23.4337 H   0  0  0  0  0  0  0  0  0  0  0  0
   14.2029   -0.2090   25.2955 H   0  0  0  0  0  0  0  0  0  0  0  0
   14.1048    2.1043   21.6752 H   0  0  0  0  0  0  0  0  0  0  0  0
   11.7330   -0.1555   25.4027 H   0  0  0  0  0  0  0  0  0  0  0  0
   11.6349    2.1636   21.7735 H   0  0  0  0  0  0  0  0  0  0  0  0
    7.5665   -2.8638   26.1066 H   0  0  0  0  0  0  0  0  0  0  0  0
   11.0137   -4.2652   23.9447 H   0  0  0  0  0  0  0  0  0  0  0  0
    7.5948   -0.7788   24.7997 H   0  0  0  0  0  0  0  0  0  0  0  0
   11.0411   -2.1856   22.6358 H   0  0  0  0  0  0  0  0  0  0  0  0
    4.7732    2.0709   17.5073 H   0  0  0  0  0  0  0  0  0  0  0  0
    3.2823    2.7848   19.2995 H   0  0  0  0  0  0  0  0  0  0  0  0
    3.6338    1.9971   21.6547 H   0  0  0  0  0  0  0  0  0  0  0  0
    5.5079    0.4527   22.1466 H   0  0  0  0  0  0  0  0  0  0  0  0
    8.6398   -5.7223   25.3871 H   0  0  0  0  0  0  0  0  0  0  0  0
   10.2715   -5.3829   26.0145 H   0  0  0  0  0  0  0  0  0  0  0  0
    8.8596   -4.8092   26.9004 H   0  0  0  0  0  0  0  0  0  0  0  0
    9.6778    1.0140   24.6966 H   0  0  0  0  0  0  0  0  0  0  0  0
    9.6316    1.9637   23.2107 H   0  0  0  0  0  0  0  0  0  0  0  0
    7.4889   -1.4161   21.8965 H   0  0  0  0  0  0  0  0  0  0  0  0
    8.7528   -1.7575   20.7010 H   0  0  0  0  0  0  0  0  0  0  0  0
  1  2  1  0  0  0  0
  1  3  2  0  0  0  0
  2  4  2  0  0  0  0
  3  5  1  0  0  0  0
  4 11  1  0  0  0  0
  5 11  2  0  0  0  0
  6  8  2  0  0  0  0
  6 10  1  0  0  0  0
  7  9  1  0  0  0  0
  7 10  2  0  0  0  0
  8 12  1  0  0  0  0
  9 12  2  0  0  0  0
 10 20  1  0  0  0  0
 11 21  1  0  0  0  0
 12 26  1  0  0  0  0
 13 15  1  0  0  0  0
 13 23  2  0  0  0  0
 13 25  1  0  0  0  0
 14 22  1  0  0  0  0
 14 24  2  0  0  0  0
 14 25  1  0  0  0  0
 15 16  2  0  0  0  0
 16 17  1  0  0  0  0
 17 18  2  0  0  0  0
 18 25  1  0  0  0  0
 19 22  1  0  0  0  0
 19 26  1  0  0  0  0
 19 27  2  0  0  0  0
 21 26  1  0  0  0  0
 23 24  1  0  0  0  0
  1 28  1  0  0  0  0
  2 29  1  0  0  0  0
  3 30  1  0  0  0  0
  4 31  1  0  0  0  0
  5 32  1  0  0  0  0
  6 33  1  0  0  0  0
  7 34  1  0  0  0  0
  8 35  1  0  0  0  0
  9 36  1  0  0  0  0
 15 37  1  0  0  0  0
 16 38  1  0  0  0  0
 17 39  1  0  0  0  0
 18 40  1  0  0  0  0
 20 41  1  0  0  0  0
 20 42  1  0  0  0  0
 20 43  1  0  0  0  0
 21 44  1  0  0  0  0
 21 45  1  0  0  0  0
 22 46  1  0  0  0  0
 22 47  1  0  0  0  0
M  END
> <clash_score>
0

> <docking_score>
-9.49804973602295

> <overlap_score>
0.9717715382575989

$$$$
BENZO_487_1
  -OEChem-08222022423D

 59 63  0     0  0  0  0  0  0999 V2000
    8.3310   -2.7170   25.3430 C   0  0  0  0  0  0  0  0  0  0  0  0
   10.2570   -3.5000   24.1350 C   0  0  0  0  0  0  0  0  0  0  0  0
    8.3510   -1.5420   24.6110 C   0  0  0  0  0  0  0  0  0  0  0  0
   10.2760   -2.3270   23.4020 C   0  0  0  0  0  0  0  0  0  0  0  0
   12.4359    1.7439   24.3724 C   0  0  0  0  0  0  0  0  0  0  0  0
   12.3100    0.2469   22.7668 C   0  0  0  0  0  0  0  0  0  0  0  0
   11.5217    1.0079   23.5949 C   0  0  0  0  0  0  0  0  0  0  0  0
    9.2850   -3.7090   25.1090 C   0  0  0  0  0  0  0  0  0  0  0  0
    9.3300   -1.3350   23.6390 C   0  0  0  0  0  0  0  0  0  0  0  0
    5.9810    0.8330   18.8060 C   0  0  0  0  0  0  0  0  0  0  0  0
    7.2210   -0.4620   20.0350 C   0  0  0  0  0  0  0  0  0  0  0  0
    4.9400    1.7060   18.5060 C   0  0  0  0  0  0  0  0  0  0  0  0
    4.0980    2.1130   19.5350 C   0  0  0  0  0  0  0  0  0  0  0  0
    4.2970    1.6690   20.8430 C   0  0  0  0  0  0  0  0  0  0  0  0
    5.3360    0.8000   21.1530 C   0  0  0  0  0  0  0  0  0  0  0  0
    8.9510    0.1280   21.6880 C   0  0  0  0  0  0  0  0  0  0  0  0
    7.3162   -6.8835   26.5210 C   0  0  0  0  0  0  0  0  0  0  0  0
    7.3507   -5.5245   27.2240 C   0  0  0  0  0  0  0  0  0  0  0  0
    7.9375   -6.8069   25.1245 C   0  0  0  0  0  0  0  0  0  0  0  0
    8.7638   -4.9418   27.2163 C   0  0  0  0  0  0  0  0  0  0  0  0
    9.3378   -6.1874   25.1659 C   0  0  0  0  0  0  0  0  0  0  0  0
   14.7884    0.0124   22.4815 C   0  0  0  0  0  0  0  0  0  0  0  0
   10.0220    1.0430   23.6570 C   0  0  0  0  0  0  0  0  0  0  0  0
    8.0810   -0.9750   21.0820 C   0  0  0  0  0  0  0  0  0  0  0  0
   13.7076    1.4745   24.0657 N   0  0  0  0  0  0  0  0  0  0  0  0
    6.9440    0.2550   18.0100 N   0  0  0  0  0  0  0  0  0  0  0  0
    7.6830   -0.5170   18.7600 N   0  0  0  0  0  0  0  0  0  0  0  0
   13.5982    0.5607   23.0864 N   0  0  0  0  0  0  0  0  0  0  0  0
    6.1600    0.3870   20.1140 N   0  0  0  0  0  0  0  0  0  0  0  0
    9.2639   -4.8860   25.8399 N   0  0  0  0  0  0  0  0  0  0  0  0
    9.4200   -0.0840   22.9530 N   0  0  0  0  0  0  0  0  0  0  0  0
    9.1870    1.1500   21.0630 O   0  0  0  0  0  0  0  0  0  0  0  0
    7.5647   -2.8621   26.1053 H   0  0  0  0  0  0  0  0  0  0  0  0
   11.0144   -4.2642   23.9425 H   0  0  0  0  0  0  0  0  0  0  0  0
    7.5958   -0.7779   24.8006 H   0  0  0  0  0  0  0  0  0  0  0  0
   11.0406   -2.1848   22.6356 H   0  0  0  0  0  0  0  0  0  0  0  0
   12.2308    2.4652   25.1508 H   0  0  0  0  0  0  0  0  0  0  0  0
   12.0700   -0.4744   21.9974 H   0  0  0  0  0  0  0  0  0  0  0  0
    4.7732    2.0709   17.5073 H   0  0  0  0  0  0  0  0  0  0  0  0
    3.2823    2.7848   19.2995 H   0  0  0  0  0  0  0  0  0  0  0  0
    3.6338    1.9971   21.6547 H   0  0  0  0  0  0  0  0  0  0  0  0
    5.5079    0.4527   22.1466 H   0  0  0  0  0  0  0  0  0  0  0  0
    7.8578   -7.6261   27.1266 H   0  0  0  0  0  0  0  0  0  0  0  0
    6.2773   -7.2358   26.4459 H   0  0  0  0  0  0  0  0  0  0  0  0
    6.6663   -4.8351   26.7223 H   0  0  0  0  0  0  0  0  0  0  0  0
    7.0044   -5.6368   28.2534 H   0  0  0  0  0  0  0  0  0  0  0  0
    7.9946   -7.8119   24.6937 H   0  0  0  0  0  0  0  0  0  0  0  0
    7.2929   -6.2123   24.4668 H   0  0  0  0  0  0  0  0  0  0  0  0
    8.7343   -3.9408   27.6542 H   0  0  0  0  0  0  0  0  0  0  0  0
    9.4243   -5.5632   27.8278 H   0  0  0  0  0  0  0  0  0  0  0  0
   10.0200   -6.8490   25.7011 H   0  0  0  0  0  0  0  0  0  0  0  0
    9.6984   -6.0694   24.1436 H   0  0  0  0  0  0  0  0  0  0  0  0
   15.0569    0.6453   21.6315 H   0  0  0  0  0  0  0  0  0  0  0  0
   15.5971   -0.0026   23.2174 H   0  0  0  0  0  0  0  0  0  0  0  0
   14.5870   -1.0100   22.1498 H   0  0  0  0  0  0  0  0  0  0  0  0
    9.6778    1.0140   24.6966 H   0  0  0  0  0  0  0  0  0  0  0  0
    9.6316    1.9637   23.2107 H   0  0  0  0  0  0  0  0  0  0  0  0
    7.4781   -1.4136   21.8845 H   0  0  0  0  0  0  0  0  0  0  0  0
    8.7420   -1.7550   20.6889 H   0  0  0  0  0  0  0  0  0  0  0  0
  1  3  2  0  0  0  0
  1  8  1  0  0  0  0
  2  4  1  0  0  0  0
  2  8  2  0  0  0  0
  3  9  1  0  0  0  0
  4  9  2  0  0  0  0
  5  7  1  0  0  0  0
  5 25  2  0  0  0  0
  6  7  2  0  0  0  0
  6 28  1  0  0  0  0
  7 23  1  0  0  0  0
  8 30  1  0  0  0  0
  9 31  1  0  0  0  0
 10 12  1  0  0  0  0
 10 26  2  0  0  0  0
 10 29  1  0  0  0  0
 11 24  1  0  0  0  0
 11 27  2  0  0  0  0
 11 29  1  0  0  0  0
 12 13  2  0  0  0  0
 13 14  1  0  0  0  0
 14 15  2  0  0  0  0
 15 29  1  0  0  0  0
 16 24  1  0  0  0  0
 16 31  1  0  0  0  0
 16 32  2  0  0  0  0
 17 18  1  0  0  0  0
 17 19  1  0  0  0  0
 18 20  1  0  0  0  0
 19 21  1  0  0  0  0
 20 30  1  0  0  0  0
 21 30  1  0  0  0  0
 22 28  1  0  0  0  0
 23 31  1  0  0  0  0
 25 28  1  0  0  0  0
 26 27  1  0  0  0  0
  1 33  1  0  0  0  0
  2 34  1  0  0  0  0
  3 35  1  0  0  0  0
  4 36  1  0  0  0  0
  5 37  1  0  0  0  0
  6 38  1  0  0  0  0
 12 39  1  0  0  0  0
 13 40  1  0  0  0  0
 14 41  1  0  0  0  0
 15 42  1  0  0  0  0
 17 43  1  0  0  0  0
 17 44  1  0  0  0  0
 18 45  1  0  0  0  0
 18 46  1  0  0  0  0
 19 47  1  0  0  0  0
 19 48  1  0  0  0  0
 20 49  1  0  0  0  0
 20 50  1  0  0  0  0
 21 51  1  0  0  0  0
 21 52  1  0  0  0  0
 22 53  1  0  0  0  0
 22 54  1  0  0  0  0
 22 55  1  0  0  0  0
 23 56  1  0  0  0  0
 23 57  1  0  0  0  0
 24 58  1  0  0  0  0
 24 59  1  0  0  0  0
M  END
> <clash_score>
0

> <docking_score>
-8.755000114440918

> <overlap_score>
1.0017565488815308

$$$$
BENZO_486_1
  -OEChem-08222022423D

 59 63  0     0  0  0  0  0  0999 V2000
   13.6668    1.7807   24.3938 C   0  0  0  0  0  0  0  0  0  0  0  0
   12.2735    1.8136   24.4501 C   0  0  0  0  0  0  0  0  0  0  0  0
    8.3310   -2.7170   25.3430 C   0  0  0  0  0  0  0  0  0  0  0  0
   10.2570   -3.5000   24.1350 C   0  0  0  0  0  0  0  0  0  0  0  0
    8.3510   -1.5420   24.6110 C   0  0  0  0  0  0  0  0  0  0  0  0
   10.2760   -2.3270   23.4020 C   0  0  0  0  0  0  0  0  0  0  0  0
   14.3084    0.9422   23.4822 C   0  0  0  0  0  0  0  0  0  0  0  0
   12.1632    0.1693   22.6834 C   0  0  0  0  0  0  0  0  0  0  0  0
   11.5217    1.0079   23.5949 C   0  0  0  0  0  0  0  0  0  0  0  0
    9.2850   -3.7090   25.1090 C   0  0  0  0  0  0  0  0  0  0  0  0
    9.3300   -1.3350   23.6390 C   0  0  0  0  0  0  0  0  0  0  0  0
   13.5566    0.1365   22.6270 C   0  0  0  0  0  0  0  0  0  0  0  0
    5.9810    0.8330   18.8060 C   0  0  0  0  0  0  0  0  0  0  0  0
    7.2210   -0.4620   20.0350 C   0  0  0  0  0  0  0  0  0  0  0  0
    4.9400    1.7060   18.5060 C   0  0  0  0  0  0  0  0  0  0  0  0
    4.0980    2.1130   19.5350 C   0  0  0  0  0  0  0  0  0  0  0  0
    4.2970    1.6690   20.8430 C   0  0  0  0  0  0  0  0  0  0  0  0
    5.3360    0.8000   21.1530 C   0  0  0  0  0  0  0  0  0  0  0  0
    8.9510    0.1280   21.6880 C   0  0  0  0  0  0  0  0  0  0  0  0
    7.3162   -6.8835   26.5210 C   0  0  0  0  0  0  0  0  0  0  0  0
    7.3507   -5.5245   27.2240 C   0  0  0  0  0  0  0  0  0  0  0  0
    7.9375   -6.8069   25.1245 C   0  0  0  0  0  0  0  0  0  0  0  0
    8.7638   -4.9418   27.2163 C   0  0  0  0  0  0  0  0  0  0  0  0
    9.3378   -6.1874   25.1659 C   0  0  0  0  0  0  0  0  0  0  0  0
   10.0220    1.0430   23.6570 C   0  0  0  0  0  0  0  0  0  0  0  0
    8.0810   -0.9750   21.0820 C   0  0  0  0  0  0  0  0  0  0  0  0
    6.9440    0.2550   18.0100 N   0  0  0  0  0  0  0  0  0  0  0  0
    7.6830   -0.5170   18.7600 N   0  0  0  0  0  0  0  0  0  0  0  0
    6.1600    0.3870   20.1140 N   0  0  0  0  0  0  0  0  0  0  0  0
    9.2639   -4.8860   25.8399 N   0  0  0  0  0  0  0  0  0  0  0  0
    9.4200   -0.0840   22.9530 N   0  0  0  0  0  0  0  0  0  0  0  0
    9.1870    1.1500   21.0630 O   0  0  0  0  0  0  0  0  0  0  0  0
   14.3487   -0.8988   21.5034 Cl  0  0  0  0  0  0  0  0  0  0  0  0
   14.2519    2.4082   25.0600 H   0  0  0  0  0  0  0  0  0  0  0  0
   11.7820    2.4700   25.1636 H   0  0  0  0  0  0  0  0  0  0  0  0
    7.5647   -2.8621   26.1053 H   0  0  0  0  0  0  0  0  0  0  0  0
   11.0144   -4.2642   23.9425 H   0  0  0  0  0  0  0  0  0  0  0  0
    7.5958   -0.7779   24.8006 H   0  0  0  0  0  0  0  0  0  0  0  0
   11.0406   -2.1848   22.6356 H   0  0  0  0  0  0  0  0  0  0  0  0
   15.3950    0.9267   23.4496 H   0  0  0  0  0  0  0  0  0  0  0  0
   11.5726   -0.4565   22.0184 H   0  0  0  0  0  0  0  0  0  0  0  0
    4.7732    2.0709   17.5073 H   0  0  0  0  0  0  0  0  0  0  0  0
    3.2823    2.7848   19.2995 H   0  0  0  0  0  0  0  0  0  0  0  0
    3.6338    1.9971   21.6547 H   0  0  0  0  0  0  0  0  0  0  0  0
    5.5079    0.4527   22.1466 H   0  0  0  0  0  0  0  0  0  0  0  0
    7.8578   -7.6261   27.1266 H   0  0  0  0  0  0  0  0  0  0  0  0
    6.2773   -7.2358   26.4459 H   0  0  0  0  0  0  0  0  0  0  0  0
    6.6663   -4.8351   26.7223 H   0  0  0  0  0  0  0  0  0  0  0  0
    7.0044   -5.6368   28.2534 H   0  0  0  0  0  0  0  0  0  0  0  0
    7.9946   -7.8119   24.6937 H   0  0  0  0  0  0  0  0  0  0  0  0
    7.2929   -6.2123   24.4668 H   0  0  0  0  0  0  0  0  0  0  0  0
    8.7343   -3.9408   27.6542 H   0  0  0  0  0  0  0  0  0  0  0  0
    9.4243   -5.5632   27.8278 H   0  0  0  0  0  0  0  0  0  0  0  0
   10.0200   -6.8490   25.7011 H   0  0  0  0  0  0  0  0  0  0  0  0
    9.6984   -6.0694   24.1436 H   0  0  0  0  0  0  0  0  0  0  0  0
    9.6778    1.0140   24.6966 H   0  0  0  0  0  0  0  0  0  0  0  0
    9.6316    1.9637   23.2107 H   0  0  0  0  0  0  0  0  0  0  0  0
    7.4781   -1.4136   21.8845 H   0  0  0  0  0  0  0  0  0  0  0  0
    8.7420   -1.7550   20.6889 H   0  0  0  0  0  0  0  0  0  0  0  0
  1  2  2  0  0  0  0
  1  7  1  0  0  0  0
  2  9  1  0  0  0  0
  3  5  2  0  0  0  0
  3 10  1  0  0  0  0
  4  6  1  0  0  0  0
  4 10  2  0  0  0  0
  5 11  1  0  0  0  0
  6 11  2  0  0  0  0
  7 12  2  0  0  0  0
  8  9  2  0  0  0  0
  8 12  1  0  0  0  0
  9 25  1  0  0  0  0
 10 30  1  0  0  0  0
 11 31  1  0  0  0  0
 12 33  1  0  0  0  0
 13 15  1  0  0  0  0
 13 27  2  0  0  0  0
 13 29  1  0  0  0  0
 14 26  1  0  0  0  0
 14 28  2  0  0  0  0
 14 29  1  0  0  0  0
 15 16  2  0  0  0  0
 16 17  1  0  0  0  0
 17 18  2  0  0  0  0
 18 29  1  0  0  0  0
 19 26  1  0  0  0  0
 19 31  1  0  0  0  0
 19 32  2  0  0  0  0
 20 21  1  0  0  0  0
 20 22  1  0  0  0  0
 21 23  1  0  0  0  0
 22 24  1  0  0  0  0
 23 30  1  0  0  0  0
 24 30  1  0  0  0  0
 25 31  1  0  0  0  0
 27 28  1  0  0  0  0
  1 34  1  0  0  0  0
  2 35  1  0  0  0  0
  3 36  1  0  0  0  0
  4 37  1  0  0  0  0
  5 38  1  0  0  0  0
  6 39  1  0  0  0  0
  7 40  1  0  0  0  0
  8 41  1  0  0  0  0
 15 42  1  0  0  0  0
 16 43  1  0  0  0  0
 17 44  1  0  0  0  0
 18 45  1  0  0  0  0
 20 46  1  0  0  0  0
 20 47  1  0  0  0  0
 21 48  1  0  0  0  0
 21 49  1  0  0  0  0
 22 50  1  0  0  0  0
 22 51  1  0  0  0  0
 23 52  1  0  0  0  0
 23 53  1  0  0  0  0
 24 54  1  0  0  0  0
 24 55  1  0  0  0  0
 25 56  1  0  0  0  0
 25 57  1  0  0  0  0
 26 58  1  0  0  0  0
 26 59  1  0  0  0  0
M  END
> <clash_score>
0

> <docking_score>
-7.791309356689453

> <overlap_score>
0.9966532588005066

$$$$
BENZO_491_1
  -OEChem-08222022423D

 47 50  0     0  0  0  0  0  0999 V2000
    8.3310   -2.7170   25.3430 C   0  0  0  0  0  0  0  0  0  0  0  0
   10.2570   -3.5000   24.1350 C   0  0  0  0  0  0  0  0  0  0  0  0
    8.3510   -1.5420   24.6110 C   0  0  0  0  0  0  0  0  0  0  0  0
   10.2760   -2.3270   23.4020 C   0  0  0  0  0  0  0  0  0  0  0  0
   12.4295    0.9466   24.6692 C   0  0  0  0  0  0  0  0  0  0  0  0
   12.3161    1.0259   22.4747 C   0  0  0  0  0  0  0  0  0  0  0  0
    9.2850   -3.7090   25.1090 C   0  0  0  0  0  0  0  0  0  0  0  0
   11.5217    1.0079   23.5949 C   0  0  0  0  0  0  0  0  0  0  0  0
    9.3300   -1.3350   23.6390 C   0  0  0  0  0  0  0  0  0  0  0  0
    5.9810    0.8330   18.8060 C   0  0  0  0  0  0  0  0  0  0  0  0
    7.2210   -0.4620   20.0350 C   0  0  0  0  0  0  0  0  0  0  0  0
    4.9400    1.7060   18.5060 C   0  0  0  0  0  0  0  0  0  0  0  0
    4.0980    2.1130   19.5350 C   0  0  0  0  0  0  0  0  0  0  0  0
    4.2970    1.6690   20.8430 C   0  0  0  0  0  0  0  0  0  0  0  0
    5.3360    0.8000   21.1530 C   0  0  0  0  0  0  0  0  0  0  0  0
    8.9510    0.1280   21.6880 C   0  0  0  0  0  0  0  0  0  0  0  0
    9.2610   -4.9721   25.8916 C   0  0  0  0  0  0  0  0  0  0  0  0
   14.7958    0.9722   22.1181 C   0  0  0  0  0  0  0  0  0  0  0  0
   10.0220    1.0430   23.6570 C   0  0  0  0  0  0  0  0  0  0  0  0
    8.0810   -0.9750   21.0820 C   0  0  0  0  0  0  0  0  0  0  0  0
   13.7032    0.9267   24.2674 N   0  0  0  0  0  0  0  0  0  0  0  0
    6.9440    0.2550   18.0100 N   0  0  0  0  0  0  0  0  0  0  0  0
    7.6830   -0.5170   18.7600 N   0  0  0  0  0  0  0  0  0  0  0  0
   13.6014    0.9758   22.9283 N   0  0  0  0  0  0  0  0  0  0  0  0
    6.1600    0.3870   20.1140 N   0  0  0  0  0  0  0  0  0  0  0  0
    9.4200   -0.0840   22.9530 N   0  0  0  0  0  0  0  0  0  0  0  0
    9.1870    1.1500   21.0630 O   0  0  0  0  0  0  0  0  0  0  0  0
    7.5665   -2.8638   26.1066 H   0  0  0  0  0  0  0  0  0  0  0  0
   11.0137   -4.2652   23.9447 H   0  0  0  0  0  0  0  0  0  0  0  0
    7.5948   -0.7788   24.7997 H   0  0  0  0  0  0  0  0  0  0  0  0
   11.0411   -2.1856   22.6358 H   0  0  0  0  0  0  0  0  0  0  0  0
   12.2184    0.9145   25.7287 H   0  0  0  0  0  0  0  0  0  0  0  0
   12.0821    1.0677   21.4195 H   0  0  0  0  0  0  0  0  0  0  0  0
    4.7732    2.0709   17.5073 H   0  0  0  0  0  0  0  0  0  0  0  0
    3.2823    2.7848   19.2995 H   0  0  0  0  0  0  0  0  0  0  0  0
    3.6338    1.9971   21.6547 H   0  0  0  0  0  0  0  0  0  0  0  0
    5.5079    0.4527   22.1466 H   0  0  0  0  0  0  0  0  0  0  0  0
    8.6398   -5.7223   25.3871 H   0  0  0  0  0  0  0  0  0  0  0  0
   10.2715   -5.3829   26.0145 H   0  0  0  0  0  0  0  0  0  0  0  0
    8.8596   -4.8092   26.9004 H   0  0  0  0  0  0  0  0  0  0  0  0
   15.1026    2.0102   21.9649 H   0  0  0  0  0  0  0  0  0  0  0  0
   15.5825    0.4128   22.6318 H   0  0  0  0  0  0  0  0  0  0  0  0
   14.5811    0.4906   21.1600 H   0  0  0  0  0  0  0  0  0  0  0  0
    9.6778    1.0140   24.6966 H   0  0  0  0  0  0  0  0  0  0  0  0
    9.6316    1.9637   23.2107 H   0  0  0  0  0  0  0  0  0  0  0  0
    7.4889   -1.4161   21.8965 H   0  0  0  0  0  0  0  0  0  0  0  0
    8.7528   -1.7575   20.7010 H   0  0  0  0  0  0  0  0  0  0  0  0
  1  3  2  0  0  0  0
  1  7  1  0  0  0  0
  2  4  1  0  0  0  0
  2  7  2  0  0  0  0
  3  9  1  0  0  0  0
  4  9  2  0  0  0  0
  5  8  1  0  0  0  0
  5 21  2  0  0  0  0
  6  8  2  0  0  0  0
  6 24  1  0  0  0  0
  7 17  1  0  0  0  0
  8 19  1  0  0  0  0
  9 26  1  0  0  0  0
 10 12  1  0  0  0  0
 10 22  2  0  0  0  0
 10 25  1  0  0  0  0
 11 20  1  0  0  0  0
 11 23  2  0  0  0  0
 11 25  1  0  0  0  0
 12 13  2  0  0  0  0
 13 14  1  0  0  0  0
 14 15  2  0  0  0  0
 15 25  1  0  0  0  0
 16 20  1  0  0  0  0
 16 26  1  0  0  0  0
 16 27  2  0  0  0  0
 18 24  1  0  0  0  0
 19 26  1  0  0  0  0
 21 24  1  0  0  0  0
 22 23  1  0  0  0  0
  1 28  1  0  0  0  0
  2 29  1  0  0  0  0
  3 30  1  0  0  0  0
  4 31  1  0  0  0  0
  5 32  1  0  0  0  0
  6 33  1  0  0  0  0
 12 34  1  0  0  0  0
 13 35  1  0  0  0  0
 14 36  1  0  0  0  0
 15 37  1  0  0  0  0
 17 38  1  0  0  0  0
 17 39  1  0  0  0  0
 17 40  1  0  0  0  0
 18 41  1  0  0  0  0
 18 42  1  0  0  0  0
 18 43  1  0  0  0  0
 19 44  1  0  0  0  0
 19 45  1  0  0  0  0
 20 46  1  0  0  0  0
 20 47  1  0  0  0  0
M  END
> <clash_score>
0

> <docking_score>
-9.440104484558105

> <overlap_score>
0.9625561237335205

$$$$
BENZO_490_1
  -OEChem-08222022423D

 47 50  0     0  0  0  0  0  0999 V2000
   13.5977    1.8457   22.6865 C   0  0  0  0  0  0  0  0  0  0  0  0
   12.2044    1.8769   22.7438 C   0  0  0  0  0  0  0  0  0  0  0  0
    8.3310   -2.7170   25.3430 C   0  0  0  0  0  0  0  0  0  0  0  0
   10.2570   -3.5000   24.1350 C   0  0  0  0  0  0  0  0  0  0  0  0
    8.3510   -1.5420   24.6110 C   0  0  0  0  0  0  0  0  0  0  0  0
   10.2760   -2.3270   23.4020 C   0  0  0  0  0  0  0  0  0  0  0  0
   14.3084    0.9454   23.4803 C   0  0  0  0  0  0  0  0  0  0  0  0
   12.2323    0.1076   24.3888 C   0  0  0  0  0  0  0  0  0  0  0  0
    9.2850   -3.7090   25.1090 C   0  0  0  0  0  0  0  0  0  0  0  0
   11.5217    1.0079   23.5949 C   0  0  0  0  0  0  0  0  0  0  0  0
    9.3300   -1.3350   23.6390 C   0  0  0  0  0  0  0  0  0  0  0  0
   13.6257    0.0764   24.3314 C   0  0  0  0  0  0  0  0  0  0  0  0
    5.9810    0.8330   18.8060 C   0  0  0  0  0  0  0  0  0  0  0  0
    7.2210   -0.4620   20.0350 C   0  0  0  0  0  0  0  0  0  0  0  0
    4.9400    1.7060   18.5060 C   0  0  0  0  0  0  0  0  0  0  0  0
    4.0980    2.1130   19.5350 C   0  0  0  0  0  0  0  0  0  0  0  0
    4.2970    1.6690   20.8430 C   0  0  0  0  0  0  0  0  0  0  0  0
    5.3360    0.8000   21.1530 C   0  0  0  0  0  0  0  0  0  0  0  0
    8.9510    0.1280   21.6880 C   0  0  0  0  0  0  0  0  0  0  0  0
    9.2610   -4.9721   25.8916 C   0  0  0  0  0  0  0  0  0  0  0  0
   10.0220    1.0430   23.6570 C   0  0  0  0  0  0  0  0  0  0  0  0
    8.0810   -0.9750   21.0820 C   0  0  0  0  0  0  0  0  0  0  0  0
    6.9440    0.2550   18.0100 N   0  0  0  0  0  0  0  0  0  0  0  0
    7.6830   -0.5170   18.7600 N   0  0  0  0  0  0  0  0  0  0  0  0
    6.1600    0.3870   20.1140 N   0  0  0  0  0  0  0  0  0  0  0  0
    9.4200   -0.0840   22.9530 N   0  0  0  0  0  0  0  0  0  0  0  0
    9.1870    1.1500   21.0630 O   0  0  0  0  0  0  0  0  0  0  0  0
   14.5031   -1.0334   25.3114 Cl  0  0  0  0  0  0  0  0  0  0  0  0
   14.1289    2.5226   22.0237 H   0  0  0  0  0  0  0  0  0  0  0  0
   11.6588    2.5818   22.1218 H   0  0  0  0  0  0  0  0  0  0  0  0
    7.5665   -2.8638   26.1066 H   0  0  0  0  0  0  0  0  0  0  0  0
   11.0137   -4.2652   23.9447 H   0  0  0  0  0  0  0  0  0  0  0  0
    7.5948   -0.7788   24.7997 H   0  0  0  0  0  0  0  0  0  0  0  0
   11.0411   -2.1856   22.6358 H   0  0  0  0  0  0  0  0  0  0  0  0
   15.3941    0.9323   23.4255 H   0  0  0  0  0  0  0  0  0  0  0  0
   11.6954   -0.5682   25.0504 H   0  0  0  0  0  0  0  0  0  0  0  0
    4.7732    2.0709   17.5073 H   0  0  0  0  0  0  0  0  0  0  0  0
    3.2823    2.7848   19.2995 H   0  0  0  0  0  0  0  0  0  0  0  0
    3.6338    1.9971   21.6547 H   0  0  0  0  0  0  0  0  0  0  0  0
    5.5079    0.4527   22.1466 H   0  0  0  0  0  0  0  0  0  0  0  0
    8.6398   -5.7223   25.3871 H   0  0  0  0  0  0  0  0  0  0  0  0
   10.2715   -5.3829   26.0145 H   0  0  0  0  0  0  0  0  0  0  0  0
    8.8596   -4.8092   26.9004 H   0  0  0  0  0  0  0  0  0  0  0  0
    9.6778    1.0140   24.6966 H   0  0  0  0  0  0  0  0  0  0  0  0
    9.6316    1.9637   23.2107 H   0  0  0  0  0  0  0  0  0  0  0  0
    7.4889   -1.4161   21.8965 H   0  0  0  0  0  0  0  0  0  0  0  0
    8.7528   -1.7575   20.7010 H   0  0  0  0  0  0  0  0  0  0  0  0
  1  2  2  0  0  0  0
  1  7  1  0  0  0  0
  2 10  1  0  0  0  0
  3  5  2  0  0  0  0
  3  9  1  0  0  0  0
  4  6  1  0  0  0  0
  4  9  2  0  0  0  0
  5 11  1  0  0  0  0
  6 11  2  0  0  0  0
  7 12  2  0  0  0  0
  8 10  2  0  0  0  0
  8 12  1  0  0  0  0
  9 20  1  0  0  0  0
 10 21  1  0  0  0  0
 11 26  1  0  0  0  0
 12 28  1  0  0  0  0
 13 15  1  0  0  0  0
 13 23  2  0  0  0  0
 13 25  1  0  0  0  0
 14 22  1  0  0  0  0
 14 24  2  0  0  0  0
 14 25  1  0  0  0  0
 15 16  2  0  0  0  0
 16 17  1  0  0  0  0
 17 18  2  0  0  0  0
 18 25  1  0  0  0  0
 19 22  1  0  0  0  0
 19 26  1  0  0  0  0
 19 27  2  0  0  0  0
 21 26  1  0  0  0  0
 23 24  1  0  0  0  0
  1 29  1  0  0  0  0
  2 30  1  0  0  0  0
  3 31  1  0  0  0  0
  4 32  1  0  0  0  0
  5 33  1  0  0  0  0
  6 34  1  0  0  0  0
  7 35  1  0  0  0  0
  8 36  1  0  0  0  0
 15 37  1  0  0  0  0
 16 38  1  0  0  0  0
 17 39  1  0  0  0  0
 18 40  1  0  0  0  0
 20 41  1  0  0  0  0
 20 42  1  0  0  0  0
 20 43  1  0  0  0  0
 21 44  1  0  0  0  0
 21 45  1  0  0  0  0
 22 46  1  0  0  0  0
 22 47  1  0  0  0  0
M  END
> <clash_score>
0.7662469096885672

> <docking_score>
-8.679945945739746

> <overlap_score>
0.9770406484603882

$$$$
BENZO_493_1
  -OEChem-08222022423D

 48 51  0     0  0  0  0  0  0999 V2000
   14.3082    0.9431   23.4783 C   0  0  0  0  0  0  0  0  0  0  0  0
   13.6391    0.3091   24.5251 C   0  0  0  0  0  0  0  0  0  0  0  0
   13.5841    1.6096   22.4898 C   0  0  0  0  0  0  0  0  0  0  0  0
   12.2459    0.3415   24.5835 C   0  0  0  0  0  0  0  0  0  0  0  0
   12.1908    1.6420   22.5481 C   0  0  0  0  0  0  0  0  0  0  0  0
    8.3510   -1.5420   24.6110 C   0  0  0  0  0  0  0  0  0  0  0  0
   10.2760   -2.3270   23.4020 C   0  0  0  0  0  0  0  0  0  0  0  0
    8.3310   -2.7170   25.3430 C   0  0  0  0  0  0  0  0  0  0  0  0
   10.2570   -3.5000   24.1350 C   0  0  0  0  0  0  0  0  0  0  0  0
   11.5217    1.0079   23.5949 C   0  0  0  0  0  0  0  0  0  0  0  0
    9.3300   -1.3350   23.6390 C   0  0  0  0  0  0  0  0  0  0  0  0
    9.2850   -3.7090   25.1090 C   0  0  0  0  0  0  0  0  0  0  0  0
    5.9810    0.8330   18.8060 C   0  0  0  0  0  0  0  0  0  0  0  0
    7.2210   -0.4620   20.0350 C   0  0  0  0  0  0  0  0  0  0  0  0
    4.9400    1.7060   18.5060 C   0  0  0  0  0  0  0  0  0  0  0  0
    4.0980    2.1130   19.5350 C   0  0  0  0  0  0  0  0  0  0  0  0
    4.2970    1.6690   20.8430 C   0  0  0  0  0  0  0  0  0  0  0  0
    5.3360    0.8000   21.1530 C   0  0  0  0  0  0  0  0  0  0  0  0
    8.9510    0.1280   21.6880 C   0  0  0  0  0  0  0  0  0  0  0  0
    8.2349   -4.9984   26.8025 C   0  0  0  0  0  0  0  0  0  0  0  0
   10.0220    1.0430   23.6570 C   0  0  0  0  0  0  0  0  0  0  0  0
    8.0810   -0.9750   21.0820 C   0  0  0  0  0  0  0  0  0  0  0  0
    6.9440    0.2550   18.0100 N   0  0  0  0  0  0  0  0  0  0  0  0
    7.6830   -0.5170   18.7600 N   0  0  0  0  0  0  0  0  0  0  0  0
    6.1600    0.3870   20.1140 N   0  0  0  0  0  0  0  0  0  0  0  0
    9.4200   -0.0840   22.9530 N   0  0  0  0  0  0  0  0  0  0  0  0
    9.1870    1.1500   21.0630 O   0  0  0  0  0  0  0  0  0  0  0  0
    9.2631   -4.8614   25.8229 O   0  0  0  0  0  0  0  0  0  0  0  0
   15.3932    0.9189   23.4337 H   0  0  0  0  0  0  0  0  0  0  0  0
   14.2029   -0.2090   25.2955 H   0  0  0  0  0  0  0  0  0  0  0  0
   14.1048    2.1043   21.6752 H   0  0  0  0  0  0  0  0  0  0  0  0
   11.7330   -0.1555   25.4027 H   0  0  0  0  0  0  0  0  0  0  0  0
   11.6349    2.1636   21.7735 H   0  0  0  0  0  0  0  0  0  0  0  0
    7.5951   -0.7786   24.8000 H   0  0  0  0  0  0  0  0  0  0  0  0
   11.0406   -2.1866   22.6351 H   0  0  0  0  0  0  0  0  0  0  0  0
    7.5664   -2.8674   26.1055 H   0  0  0  0  0  0  0  0  0  0  0  0
   11.0119   -4.2671   23.9461 H   0  0  0  0  0  0  0  0  0  0  0  0
    4.7732    2.0709   17.5073 H   0  0  0  0  0  0  0  0  0  0  0  0
    3.2823    2.7848   19.2995 H   0  0  0  0  0  0  0  0  0  0  0  0
    3.6338    1.9971   21.6547 H   0  0  0  0  0  0  0  0  0  0  0  0
    5.5079    0.4527   22.1466 H   0  0  0  0  0  0  0  0  0  0  0  0
    8.3315   -5.9664   27.3003 H   0  0  0  0  0  0  0  0  0  0  0  0
    7.2576   -4.9209   26.3195 H   0  0  0  0  0  0  0  0  0  0  0  0
    8.3386   -4.1997   27.5408 H   0  0  0  0  0  0  0  0  0  0  0  0
    9.6778    1.0140   24.6966 H   0  0  0  0  0  0  0  0  0  0  0  0
    9.6316    1.9637   23.2107 H   0  0  0  0  0  0  0  0  0  0  0  0
    7.4889   -1.4161   21.8965 H   0  0  0  0  0  0  0  0  0  0  0  0
    8.7528   -1.7575   20.7010 H   0  0  0  0  0  0  0  0  0  0  0  0
  1  2  1  0  0  0  0
  1  3  2  0  0  0  0
  2  4  2  0  0  0  0
  3  5  1  0  0  0  0
  4 10  1  0  0  0  0
  5 10  2  0  0  0  0
  6  8  2  0  0  0  0
  6 11  1  0  0  0  0
  7  9  1  0  0  0  0
  7 11  2  0  0  0  0
  8 12  1  0  0  0  0
  9 12  2  0  0  0  0
 10 21  1  0  0  0  0
 11 26  1  0  0  0  0
 12 28  1  0  0  0  0
 13 15  1  0  0  0  0
 13 23  2  0  0  0  0
 13 25  1  0  0  0  0
 14 22  1  0  0  0  0
 14 24  2  0  0  0  0
 14 25  1  0  0  0  0
 15 16  2  0  0  0  0
 16 17  1  0  0  0  0
 17 18  2  0  0  0  0
 18 25  1  0  0  0  0
 19 22  1  0  0  0  0
 19 26  1  0  0  0  0
 19 27  2  0  0  0  0
 20 28  1  0  0  0  0
 21 26  1  0  0  0  0
 23 24  1  0  0  0  0
  1 29  1  0  0  0  0
  2 30  1  0  0  0  0
  3 31  1  0  0  0  0
  4 32  1  0  0  0  0
  5 33  1  0  0  0  0
  6 34  1  0  0  0  0
  7 35  1  0  0  0  0
  8 36  1  0  0  0  0
  9 37  1  0  0  0  0
 15 38  1  0  0  0  0
 16 39  1  0  0  0  0
 17 40  1  0  0  0  0
 18 41  1  0  0  0  0
 20 42  1  0  0  0  0
 20 43  1  0  0  0  0
 20 44  1  0  0  0  0
 21 45  1  0  0  0  0
 21 46  1  0  0  0  0
 22 47  1  0  0  0  0
 22 48  1  0  0  0  0
M  END
> <clash_score>
0

> <docking_score>
-9.207281112670898

> <overlap_score>
0.9956541657447815

$$$$
BENZO_492_1
  -OEChem-08222022423D

 45 48  0     0  0  0  0  0  0999 V2000
    8.3510   -1.5420   24.6110 C   0  0  0  0  0  0  0  0  0  0  0  0
   10.2760   -2.3270   23.4020 C   0  0  0  0  0  0  0  0  0  0  0  0
    8.3310   -2.7170   25.3430 C   0  0  0  0  0  0  0  0  0  0  0  0
   10.2570   -3.5000   24.1350 C   0  0  0  0  0  0  0  0  0  0  0  0
   12.2675    1.0332   22.3812 C   0  0  0  0  0  0  0  0  0  0  0  0
   13.6257    0.9906   22.6074 C   0  0  0  0  0  0  0  0  0  0  0  0
   12.3384    0.9467   24.7028 C   0  0  0  0  0  0  0  0  0  0  0  0
   11.5217    1.0079   23.5949 C   0  0  0  0  0  0  0  0  0  0  0  0
    9.3300   -1.3350   23.6390 C   0  0  0  0  0  0  0  0  0  0  0  0
    9.2850   -3.7090   25.1090 C   0  0  0  0  0  0  0  0  0  0  0  0
    5.9810    0.8330   18.8060 C   0  0  0  0  0  0  0  0  0  0  0  0
    7.2210   -0.4620   20.0350 C   0  0  0  0  0  0  0  0  0  0  0  0
    4.9400    1.7060   18.5060 C   0  0  0  0  0  0  0  0  0  0  0  0
    4.0980    2.1130   19.5350 C   0  0  0  0  0  0  0  0  0  0  0  0
    4.2970    1.6690   20.8430 C   0  0  0  0  0  0  0  0  0  0  0  0
    5.3360    0.8000   21.1530 C   0  0  0  0  0  0  0  0  0  0  0  0
    8.9510    0.1280   21.6880 C   0  0  0  0  0  0  0  0  0  0  0  0
    8.2349   -4.9984   26.8025 C   0  0  0  0  0  0  0  0  0  0  0  0
   10.0220    1.0430   23.6570 C   0  0  0  0  0  0  0  0  0  0  0  0
    8.0810   -0.9750   21.0820 C   0  0  0  0  0  0  0  0  0  0  0  0
    6.9440    0.2550   18.0100 N   0  0  0  0  0  0  0  0  0  0  0  0
    7.6830   -0.5170   18.7600 N   0  0  0  0  0  0  0  0  0  0  0  0
    6.1600    0.3870   20.1140 N   0  0  0  0  0  0  0  0  0  0  0  0
    9.4200   -0.0840   22.9530 N   0  0  0  0  0  0  0  0  0  0  0  0
    9.1870    1.1500   21.0630 O   0  0  0  0  0  0  0  0  0  0  0  0
    9.2631   -4.8614   25.8229 O   0  0  0  0  0  0  0  0  0  0  0  0
   13.9969    0.9202   24.2776 S   0  0  0  0  0  0  0  0  0  0  0  0
    7.5951   -0.7786   24.8000 H   0  0  0  0  0  0  0  0  0  0  0  0
   11.0406   -2.1866   22.6351 H   0  0  0  0  0  0  0  0  0  0  0  0
    7.5664   -2.8674   26.1055 H   0  0  0  0  0  0  0  0  0  0  0  0
   11.0119   -4.2671   23.9461 H   0  0  0  0  0  0  0  0  0  0  0  0
   11.8338    1.0798   21.3902 H   0  0  0  0  0  0  0  0  0  0  0  0
   14.4176    0.9966   21.8719 H   0  0  0  0  0  0  0  0  0  0  0  0
   12.0446    0.9149   25.7428 H   0  0  0  0  0  0  0  0  0  0  0  0
    4.7732    2.0709   17.5073 H   0  0  0  0  0  0  0  0  0  0  0  0
    3.2823    2.7848   19.2995 H   0  0  0  0  0  0  0  0  0  0  0  0
    3.6338    1.9971   21.6547 H   0  0  0  0  0  0  0  0  0  0  0  0
    5.5079    0.4527   22.1466 H   0  0  0  0  0  0  0  0  0  0  0  0
    8.3315   -5.9664   27.3003 H   0  0  0  0  0  0  0  0  0  0  0  0
    7.2576   -4.9209   26.3195 H   0  0  0  0  0  0  0  0  0  0  0  0
    8.3386   -4.1997   27.5408 H   0  0  0  0  0  0  0  0  0  0  0  0
    9.6778    1.0140   24.6966 H   0  0  0  0  0  0  0  0  0  0  0  0
    9.6316    1.9637   23.2107 H   0  0  0  0  0  0  0  0  0  0  0  0
    7.4889   -1.4161   21.8965 H   0  0  0  0  0  0  0  0  0  0  0  0
    8.7528   -1.7575   20.7010 H   0  0  0  0  0  0  0  0  0  0  0  0
  1  3  2  0  0  0  0
  1  9  1  0  0  0  0
  2  4  1  0  0  0  0
  2  9  2  0  0  0  0
  3 10  1  0  0  0  0
  4 10  2  0  0  0  0
  5  6  2  0  0  0  0
  5  8  1  0  0  0  0
  6 27  1  0  0  0  0
  7  8  2  0  0  0  0
  7 27  1  0  0  0  0
  8 19  1  0  0  0  0
  9 24  1  0  0  0  0
 10 26  1  0  0  0  0
 11 13  1  0  0  0  0
 11 21  2  0  0  0  0
 11 23  1  0  0  0  0
 12 20  1  0  0  0  0
 12 22  2  0  0  0  0
 12 23  1  0  0  0  0
 13 14  2  0  0  0  0
 14 15  1  0  0  0  0
 15 16  2  0  0  0  0
 16 23  1  0  0  0  0
 17 20  1  0  0  0  0
 17 24  1  0  0  0  0
 17 25  2  0  0  0  0
 18 26  1  0  0  0  0
 19 24  1  0  0  0  0
 21 22  1  0  0  0  0
  1 28  1  0  0  0  0
  2 29  1  0  0  0  0
  3 30  1  0  0  0  0
  4 31  1  0  0  0  0
  5 32  1  0  0  0  0
  6 33  1  0  0  0  0
  7 34  1  0  0  0  0
 13 35  1  0  0  0  0
 14 36  1  0  0  0  0
 15 37  1  0  0  0  0
 16 38  1  0  0  0  0
 18 39  1  0  0  0  0
 18 40  1  0  0  0  0
 18 41  1  0  0  0  0
 19 42  1  0  0  0  0
 19 43  1  0  0  0  0
 20 44  1  0  0  0  0
 20 45  1  0  0  0  0
M  END
> <clash_score>
0

> <docking_score>
-9.453479766845703

> <overlap_score>
0.9697703123092651

$$$$
BENZO_495_1
  -OEChem-08222022433D

 48 51  0     0  0  0  0  0  0999 V2000
    8.3510   -1.5420   24.6110 C   0  0  0  0  0  0  0  0  0  0  0  0
   10.2760   -2.3270   23.4020 C   0  0  0  0  0  0  0  0  0  0  0  0
    8.3310   -2.7170   25.3430 C   0  0  0  0  0  0  0  0  0  0  0  0
   10.2570   -3.5000   24.1350 C   0  0  0  0  0  0  0  0  0  0  0  0
   12.4359    1.7439   24.3724 C   0  0  0  0  0  0  0  0  0  0  0  0
   12.3100    0.2469   22.7668 C   0  0  0  0  0  0  0  0  0  0  0  0
   11.5217    1.0079   23.5949 C   0  0  0  0  0  0  0  0  0  0  0  0
    9.3300   -1.3350   23.6390 C   0  0  0  0  0  0  0  0  0  0  0  0
    9.2850   -3.7090   25.1090 C   0  0  0  0  0  0  0  0  0  0  0  0
    5.9810    0.8330   18.8060 C   0  0  0  0  0  0  0  0  0  0  0  0
    7.2210   -0.4620   20.0350 C   0  0  0  0  0  0  0  0  0  0  0  0
    4.9400    1.7060   18.5060 C   0  0  0  0  0  0  0  0  0  0  0  0
    4.0980    2.1130   19.5350 C   0  0  0  0  0  0  0  0  0  0  0  0
    4.2970    1.6690   20.8430 C   0  0  0  0  0  0  0  0  0  0  0  0
    5.3360    0.8000   21.1530 C   0  0  0  0  0  0  0  0  0  0  0  0
    8.9510    0.1280   21.6880 C   0  0  0  0  0  0  0  0  0  0  0  0
   14.7884    0.0124   22.4815 C   0  0  0  0  0  0  0  0  0  0  0  0
    8.2349   -4.9984   26.8025 C   0  0  0  0  0  0  0  0  0  0  0  0
   10.0220    1.0430   23.6570 C   0  0  0  0  0  0  0  0  0  0  0  0
    8.0810   -0.9750   21.0820 C   0  0  0  0  0  0  0  0  0  0  0  0
   13.7076    1.4745   24.0657 N   0  0  0  0  0  0  0  0  0  0  0  0
    6.9440    0.2550   18.0100 N   0  0  0  0  0  0  0  0  0  0  0  0
    7.6830   -0.5170   18.7600 N   0  0  0  0  0  0  0  0  0  0  0  0
   13.5982    0.5607   23.0864 N   0  0  0  0  0  0  0  0  0  0  0  0
    6.1600    0.3870   20.1140 N   0  0  0  0  0  0  0  0  0  0  0  0
    9.4200   -0.0840   22.9530 N   0  0  0  0  0  0  0  0  0  0  0  0
    9.1870    1.1500   21.0630 O   0  0  0  0  0  0  0  0  0  0  0  0
    9.2631   -4.8614   25.8229 O   0  0  0  0  0  0  0  0  0  0  0  0
    7.5951   -0.7786   24.8000 H   0  0  0  0  0  0  0  0  0  0  0  0
   11.0406   -2.1866   22.6351 H   0  0  0  0  0  0  0  0  0  0  0  0
    7.5664   -2.8674   26.1055 H   0  0  0  0  0  0  0  0  0  0  0  0
   11.0119   -4.2671   23.9461 H   0  0  0  0  0  0  0  0  0  0  0  0
   12.2308    2.4652   25.1508 H   0  0  0  0  0  0  0  0  0  0  0  0
   12.0700   -0.4744   21.9974 H   0  0  0  0  0  0  0  0  0  0  0  0
    4.7732    2.0709   17.5073 H   0  0  0  0  0  0  0  0  0  0  0  0
    3.2823    2.7848   19.2995 H   0  0  0  0  0  0  0  0  0  0  0  0
    3.6338    1.9971   21.6547 H   0  0  0  0  0  0  0  0  0  0  0  0
    5.5079    0.4527   22.1466 H   0  0  0  0  0  0  0  0  0  0  0  0
   15.0569    0.6453   21.6315 H   0  0  0  0  0  0  0  0  0  0  0  0
   15.5971   -0.0026   23.2174 H   0  0  0  0  0  0  0  0  0  0  0  0
   14.5870   -1.0100   22.1498 H   0  0  0  0  0  0  0  0  0  0  0  0
    8.3315   -5.9664   27.3003 H   0  0  0  0  0  0  0  0  0  0  0  0
    7.2576   -4.9209   26.3195 H   0  0  0  0  0  0  0  0  0  0  0  0
    8.3386   -4.1997   27.5408 H   0  0  0  0  0  0  0  0  0  0  0  0
    9.6778    1.0140   24.6966 H   0  0  0  0  0  0  0  0  0  0  0  0
    9.6316    1.9637   23.2107 H   0  0  0  0  0  0  0  0  0  0  0  0
    7.4889   -1.4161   21.8965 H   0  0  0  0  0  0  0  0  0  0  0  0
    8.7528   -1.7575   20.7010 H   0  0  0  0  0  0  0  0  0  0  0  0
  1  3  2  0  0  0  0
  1  8  1  0  0  0  0
  2  4  1  0  0  0  0
  2  8  2  0  0  0  0
  3  9  1  0  0  0  0
  4  9  2  0  0  0  0
  5  7  1  0  0  0  0
  5 21  2  0  0  0  0
  6  7  2  0  0  0  0
  6 24  1  0  0  0  0
  7 19  1  0  0  0  0
  8 26  1  0  0  0  0
  9 28  1  0  0  0  0
 10 12  1  0  0  0  0
 10 22  2  0  0  0  0
 10 25  1  0  0  0  0
 11 20  1  0  0  0  0
 11 23  2  0  0  0  0
 11 25  1  0  0  0  0
 12 13  2  0  0  0  0
 13 14  1  0  0  0  0
 14 15  2  0  0  0  0
 15 25  1  0  0  0  0
 16 20  1  0  0  0  0
 16 26  1  0  0  0  0
 16 27  2  0  0  0  0
 17 24  1  0  0  0  0
 18 28  1  0  0  0  0
 19 26  1  0  0  0  0
 21 24  1  0  0  0  0
 22 23  1  0  0  0  0
  1 29  1  0  0  0  0
  2 30  1  0  0  0  0
  3 31  1  0  0  0  0
  4 32  1  0  0  0  0
  5 33  1  0  0  0  0
  6 34  1  0  0  0  0
 12 35  1  0  0  0  0
 13 36  1  0  0  0  0
 14 37  1  0  0  0  0
 15 38  1  0  0  0  0
 17 39  1  0  0  0  0
 17 40  1  0  0  0  0
 17 41  1  0  0  0  0
 18 42  1  0  0  0  0
 18 43  1  0  0  0  0
 18 44  1  0  0  0  0
 19 45  1  0  0  0  0
 19 46  1  0  0  0  0
 20 47  1  0  0  0  0
 20 48  1  0  0  0  0
M  END
> <clash_score>
0

> <docking_score>
-9.421884536743164

> <overlap_score>
0.9817346930503845

$$$$
BENZO_494_1
  -OEChem-08222022433D

 48 51  0     0  0  0  0  0  0999 V2000
   13.6668    1.7807   24.3938 C   0  0  0  0  0  0  0  0  0  0  0  0
   12.2735    1.8136   24.4501 C   0  0  0  0  0  0  0  0  0  0  0  0
    8.3510   -1.5420   24.6110 C   0  0  0  0  0  0  0  0  0  0  0  0
   10.2760   -2.3270   23.4020 C   0  0  0  0  0  0  0  0  0  0  0  0
    8.3310   -2.7170   25.3430 C   0  0  0  0  0  0  0  0  0  0  0  0
   10.2570   -3.5000   24.1350 C   0  0  0  0  0  0  0  0  0  0  0  0
   14.3084    0.9422   23.4822 C   0  0  0  0  0  0  0  0  0  0  0  0
   12.1632    0.1693   22.6834 C   0  0  0  0  0  0  0  0  0  0  0  0
   11.5217    1.0079   23.5949 C   0  0  0  0  0  0  0  0  0  0  0  0
    9.3300   -1.3350   23.6390 C   0  0  0  0  0  0  0  0  0  0  0  0
    9.2850   -3.7090   25.1090 C   0  0  0  0  0  0  0  0  0  0  0  0
   13.5566    0.1365   22.6270 C   0  0  0  0  0  0  0  0  0  0  0  0
    5.9810    0.8330   18.8060 C   0  0  0  0  0  0  0  0  0  0  0  0
    7.2210   -0.4620   20.0350 C   0  0  0  0  0  0  0  0  0  0  0  0
    4.9400    1.7060   18.5060 C   0  0  0  0  0  0  0  0  0  0  0  0
    4.0980    2.1130   19.5350 C   0  0  0  0  0  0  0  0  0  0  0  0
    4.2970    1.6690   20.8430 C   0  0  0  0  0  0  0  0  0  0  0  0
    5.3360    0.8000   21.1530 C   0  0  0  0  0  0  0  0  0  0  0  0
    8.9510    0.1280   21.6880 C   0  0  0  0  0  0  0  0  0  0  0  0
    8.2349   -4.9984   26.8025 C   0  0  0  0  0  0  0  0  0  0  0  0
   10.0220    1.0430   23.6570 C   0  0  0  0  0  0  0  0  0  0  0  0
    8.0810   -0.9750   21.0820 C   0  0  0  0  0  0  0  0  0  0  0  0
    6.9440    0.2550   18.0100 N   0  0  0  0  0  0  0  0  0  0  0  0
    7.6830   -0.5170   18.7600 N   0  0  0  0  0  0  0  0  0  0  0  0
    6.1600    0.3870   20.1140 N   0  0  0  0  0  0  0  0  0  0  0  0
    9.4200   -0.0840   22.9530 N   0  0  0  0  0  0  0  0  0  0  0  0
    9.1870    1.1500   21.0630 O   0  0  0  0  0  0  0  0  0  0  0  0
    9.2631   -4.8614   25.8229 O   0  0  0  0  0  0  0  0  0  0  0  0
   14.3487   -0.8988   21.5034 Cl  0  0  0  0  0  0  0  0  0  0  0  0
   14.2519    2.4082   25.0600 H   0  0  0  0  0  0  0  0  0  0  0  0
   11.7821    2.4700   25.1636 H   0  0  0  0  0  0  0  0  0  0  0  0
    7.5951   -0.7786   24.8000 H   0  0  0  0  0  0  0  0  0  0  0  0
   11.0406   -2.1866   22.6351 H   0  0  0  0  0  0  0  0  0  0  0  0
    7.5664   -2.8674   26.1055 H   0  0  0  0  0  0  0  0  0  0  0  0
   11.0119   -4.2671   23.9461 H   0  0  0  0  0  0  0  0  0  0  0  0
   15.3950    0.9267   23.4496 H   0  0  0  0  0  0  0  0  0  0  0  0
   11.5726   -0.4565   22.0184 H   0  0  0  0  0  0  0  0  0  0  0  0
    4.7732    2.0709   17.5073 H   0  0  0  0  0  0  0  0  0  0  0  0
    3.2823    2.7848   19.2995 H   0  0  0  0  0  0  0  0  0  0  0  0
    3.6338    1.9971   21.6547 H   0  0  0  0  0  0  0  0  0  0  0  0
    5.5079    0.4527   22.1466 H   0  0  0  0  0  0  0  0  0  0  0  0
    8.3315   -5.9664   27.3003 H   0  0  0  0  0  0  0  0  0  0  0  0
    7.2576   -4.9209   26.3195 H   0  0  0  0  0  0  0  0  0  0  0  0
    8.3386   -4.1997   27.5408 H   0  0  0  0  0  0  0  0  0  0  0  0
    9.6778    1.0140   24.6966 H   0  0  0  0  0  0  0  0  0  0  0  0
    9.6316    1.9637   23.2107 H   0  0  0  0  0  0  0  0  0  0  0  0
    7.4889   -1.4161   21.8965 H   0  0  0  0  0  0  0  0  0  0  0  0
    8.7528   -1.7575   20.7010 H   0  0  0  0  0  0  0  0  0  0  0  0
  1  2  2  0  0  0  0
  1  7  1  0  0  0  0
  2  9  1  0  0  0  0
  3  5  2  0  0  0  0
  3 10  1  0  0  0  0
  4  6  1  0  0  0  0
  4 10  2  0  0  0  0
  5 11  1  0  0  0  0
  6 11  2  0  0  0  0
  7 12  2  0  0  0  0
  8  9  2  0  0  0  0
  8 12  1  0  0  0  0
  9 21  1  0  0  0  0
 10 26  1  0  0  0  0
 11 28  1  0  0  0  0
 12 29  1  0  0  0  0
 13 15  1  0  0  0  0
 13 23  2  0  0  0  0
 13 25  1  0  0  0  0
 14 22  1  0  0  0  0
 14 24  2  0  0  0  0
 14 25  1  0  0  0  0
 15 16  2  0  0  0  0
 16 17  1  0  0  0  0
 17 18  2  0  0  0  0
 18 25  1  0  0  0  0
 19 22  1  0  0  0  0
 19 26  1  0  0  0  0
 19 27  2  0  0  0  0
 20 28  1  0  0  0  0
 21 26  1  0  0  0  0
 23 24  1  0  0  0  0
  1 30  1  0  0  0  0
  2 31  1  0  0  0  0
  3 32  1  0  0  0  0
  4 33  1  0  0  0  0
  5 34  1  0  0  0  0
  6 35  1  0  0  0  0
  7 36  1  0  0  0  0
  8 37  1  0  0  0  0
 15 38  1  0  0  0  0
 16 39  1  0  0  0  0
 17 40  1  0  0  0  0
 18 41  1  0  0  0  0
 20 42  1  0  0  0  0
 20 43  1  0  0  0  0
 20 44  1  0  0  0  0
 21 45  1  0  0  0  0
 21 46  1  0  0  0  0
 22 47  1  0  0  0  0
 22 48  1  0  0  0  0
M  END
> <clash_score>
0

> <docking_score>
-8.458199501037598

> <overlap_score>
0.9766170382499695

$$$$
BENZO_497_1
  -OEChem-08222022433D

 58 62  0     0  0  0  0  0  0999 V2000
   14.3082    0.9431   23.4783 C   0  0  0  0  0  0  0  0  0  0  0  0
   13.6391    0.3091   24.5251 C   0  0  0  0  0  0  0  0  0  0  0  0
   13.5841    1.6096   22.4898 C   0  0  0  0  0  0  0  0  0  0  0  0
   12.2459    0.3415   24.5835 C   0  0  0  0  0  0  0  0  0  0  0  0
   12.1908    1.6420   22.5481 C   0  0  0  0  0  0  0  0  0  0  0  0
    8.3310   -2.7170   25.3430 C   0  0  0  0  0  0  0  0  0  0  0  0
   10.2570   -3.5000   24.1350 C   0  0  0  0  0  0  0  0  0  0  0  0
    8.3510   -1.5420   24.6110 C   0  0  0  0  0  0  0  0  0  0  0  0
   10.2760   -2.3270   23.4020 C   0  0  0  0  0  0  0  0  0  0  0  0
   11.5217    1.0079   23.5949 C   0  0  0  0  0  0  0  0  0  0  0  0
    9.2850   -3.7090   25.1090 C   0  0  0  0  0  0  0  0  0  0  0  0
    9.3300   -1.3350   23.6390 C   0  0  0  0  0  0  0  0  0  0  0  0
    5.9810    0.8330   18.8060 C   0  0  0  0  0  0  0  0  0  0  0  0
    7.2210   -0.4620   20.0350 C   0  0  0  0  0  0  0  0  0  0  0  0
    4.9400    1.7060   18.5060 C   0  0  0  0  0  0  0  0  0  0  0  0
    4.0980    2.1130   19.5350 C   0  0  0  0  0  0  0  0  0  0  0  0
    4.2970    1.6690   20.8430 C   0  0  0  0  0  0  0  0  0  0  0  0
    5.3360    0.8000   21.1530 C   0  0  0  0  0  0  0  0  0  0  0  0
    8.0635   -5.4710   26.3667 C   0  0  0  0  0  0  0  0  0  0  0  0
    8.9510    0.1280   21.6880 C   0  0  0  0  0  0  0  0  0  0  0  0
    8.2626   -6.7580   27.1475 C   0  0  0  0  0  0  0  0  0  0  0  0
    9.4048   -6.6156   28.1380 C   0  0  0  0  0  0  0  0  0  0  0  0
   10.6949   -6.1500   27.4702 C   0  0  0  0  0  0  0  0  0  0  0  0
   10.4942   -5.7069   26.0219 C   0  0  0  0  0  0  0  0  0  0  0  0
   10.0220    1.0430   23.6570 C   0  0  0  0  0  0  0  0  0  0  0  0
    8.0810   -0.9750   21.0820 C   0  0  0  0  0  0  0  0  0  0  0  0
    6.9440    0.2550   18.0100 N   0  0  0  0  0  0  0  0  0  0  0  0
    7.6830   -0.5170   18.7600 N   0  0  0  0  0  0  0  0  0  0  0  0
    6.1600    0.3870   20.1140 N   0  0  0  0  0  0  0  0  0  0  0  0
    9.2623   -4.9266   25.8635 N   0  0  0  0  0  0  0  0  0  0  0  0
    9.4200   -0.0840   22.9530 N   0  0  0  0  0  0  0  0  0  0  0  0
    6.9244   -5.0476   26.1739 O   0  0  0  0  0  0  0  0  0  0  0  0
    9.1870    1.1500   21.0630 O   0  0  0  0  0  0  0  0  0  0  0  0
   15.3932    0.9189   23.4337 H   0  0  0  0  0  0  0  0  0  0  0  0
   14.2028   -0.2090   25.2955 H   0  0  0  0  0  0  0  0  0  0  0  0
   14.1048    2.1042   21.6752 H   0  0  0  0  0  0  0  0  0  0  0  0
   11.7330   -0.1555   25.4027 H   0  0  0  0  0  0  0  0  0  0  0  0
   11.6349    2.1636   21.7735 H   0  0  0  0  0  0  0  0  0  0  0  0
    7.5639   -2.8621   26.1045 H   0  0  0  0  0  0  0  0  0  0  0  0
   11.0141   -4.2644   23.9422 H   0  0  0  0  0  0  0  0  0  0  0  0
    7.5950   -0.7788   24.8007 H   0  0  0  0  0  0  0  0  0  0  0  0
   11.0408   -2.1861   22.6359 H   0  0  0  0  0  0  0  0  0  0  0  0
    4.7732    2.0709   17.5073 H   0  0  0  0  0  0  0  0  0  0  0  0
    3.2823    2.7848   19.2995 H   0  0  0  0  0  0  0  0  0  0  0  0
    3.6338    1.9971   21.6547 H   0  0  0  0  0  0  0  0  0  0  0  0
    5.5079    0.4527   22.1466 H   0  0  0  0  0  0  0  0  0  0  0  0
    7.3516   -6.9810   27.6812 H   0  0  0  0  0  0  0  0  0  0  0  0
    8.4757   -7.5428   26.4371 H   0  0  0  0  0  0  0  0  0  0  0  0
    9.1234   -5.9016   28.9400 H   0  0  0  0  0  0  0  0  0  0  0  0
    9.5778   -7.5840   28.6491 H   0  0  0  0  0  0  0  0  0  0  0  0
   11.1305   -5.3108   28.0523 H   0  0  0  0  0  0  0  0  0  0  0  0
   11.4565   -6.9587   27.5131 H   0  0  0  0  0  0  0  0  0  0  0  0
   11.3212   -5.0729   25.7168 H   0  0  0  0  0  0  0  0  0  0  0  0
   10.4483   -6.5796   25.3796 H   0  0  0  0  0  0  0  0  0  0  0  0
    9.6778    1.0140   24.6966 H   0  0  0  0  0  0  0  0  0  0  0  0
    9.6316    1.9637   23.2107 H   0  0  0  0  0  0  0  0  0  0  0  0
    7.4781   -1.4136   21.8845 H   0  0  0  0  0  0  0  0  0  0  0  0
    8.7420   -1.7550   20.6889 H   0  0  0  0  0  0  0  0  0  0  0  0
  1  2  1  0  0  0  0
  1  3  2  0  0  0  0
  2  4  2  0  0  0  0
  3  5  1  0  0  0  0
  4 10  1  0  0  0  0
  5 10  2  0  0  0  0
  6  8  2  0  0  0  0
  6 11  1  0  0  0  0
  7  9  1  0  0  0  0
  7 11  2  0  0  0  0
  8 12  1  0  0  0  0
  9 12  2  0  0  0  0
 10 25  1  0  0  0  0
 11 30  1  0  0  0  0
 12 31  1  0  0  0  0
 13 15  1  0  0  0  0
 13 27  2  0  0  0  0
 13 29  1  0  0  0  0
 14 26  1  0  0  0  0
 14 28  2  0  0  0  0
 14 29  1  0  0  0  0
 15 16  2  0  0  0  0
 16 17  1  0  0  0  0
 17 18  2  0  0  0  0
 18 29  1  0  0  0  0
 19 21  1  0  0  0  0
 19 30  1  0  0  0  0
 19 32  2  0  0  0  0
 20 26  1  0  0  0  0
 20 31  1  0  0  0  0
 20 33  2  0  0  0  0
 21 22  1  0  0  0  0
 22 23  1  0  0  0  0
 23 24  1  0  0  0  0
 24 30  1  0  0  0  0
 25 31  1  0  0  0  0
 27 28  1  0  0  0  0
  1 34  1  0  0  0  0
  2 35  1  0  0  0  0
  3 36  1  0  0  0  0
  4 37  1  0  0  0  0
  5 38  1  0  0  0  0
  6 39  1  0  0  0  0
  7 40  1  0  0  0  0
  8 41  1  0  0  0  0
  9 42  1  0  0  0  0
 15 43  1  0  0  0  0
 16 44  1  0  0  0  0
 17 45  1  0  0  0  0
 18 46  1  0  0  0  0
 21 47  1  0  0  0  0
 21 48  1  0  0  0  0
 22 49  1  0  0  0  0
 22 50  1  0  0  0  0
 23 51  1  0  0  0  0
 23 52  1  0  0  0  0
 24 53  1  0  0  0  0
 24 54  1  0  0  0  0
 25 55  1  0  0  0  0
 25 56  1  0  0  0  0
 26 57  1  0  0  0  0
 26 58  1  0  0  0  0
M  END
> <clash_score>
1.272782601224562

> <docking_score>
-7.6935834884643555

> <overlap_score>
1.0159265995025635

$$$$
BENZO_496_1
  -OEChem-08222022433D

 55 59  0     0  0  0  0  0  0999 V2000
    8.3310   -2.7170   25.3430 C   0  0  0  0  0  0  0  0  0  0  0  0
   10.2570   -3.5000   24.1350 C   0  0  0  0  0  0  0  0  0  0  0  0
    8.3510   -1.5420   24.6110 C   0  0  0  0  0  0  0  0  0  0  0  0
   10.2760   -2.3270   23.4020 C   0  0  0  0  0  0  0  0  0  0  0  0
   12.2675    1.0332   22.3812 C   0  0  0  0  0  0  0  0  0  0  0  0
   13.6257    0.9906   22.6074 C   0  0  0  0  0  0  0  0  0  0  0  0
   12.3384    0.9467   24.7028 C   0  0  0  0  0  0  0  0  0  0  0  0
   11.5217    1.0079   23.5949 C   0  0  0  0  0  0  0  0  0  0  0  0
    9.2850   -3.7090   25.1090 C   0  0  0  0  0  0  0  0  0  0  0  0
    9.3300   -1.3350   23.6390 C   0  0  0  0  0  0  0  0  0  0  0  0
    5.9810    0.8330   18.8060 C   0  0  0  0  0  0  0  0  0  0  0  0
    7.2210   -0.4620   20.0350 C   0  0  0  0  0  0  0  0  0  0  0  0
    4.9400    1.7060   18.5060 C   0  0  0  0  0  0  0  0  0  0  0  0
    4.0980    2.1130   19.5350 C   0  0  0  0  0  0  0  0  0  0  0  0
    4.2970    1.6690   20.8430 C   0  0  0  0  0  0  0  0  0  0  0  0
    5.3360    0.8000   21.1530 C   0  0  0  0  0  0  0  0  0  0  0  0
    8.0635   -5.4710   26.3667 C   0  0  0  0  0  0  0  0  0  0  0  0
    8.9510    0.1280   21.6880 C   0  0  0  0  0  0  0  0  0  0  0  0
    8.2626   -6.7580   27.1475 C   0  0  0  0  0  0  0  0  0  0  0  0
    9.4048   -6.6156   28.1380 C   0  0  0  0  0  0  0  0  0  0  0  0
   10.6949   -6.1500   27.4702 C   0  0  0  0  0  0  0  0  0  0  0  0
   10.4942   -5.7069   26.0219 C   0  0  0  0  0  0  0  0  0  0  0  0
   10.0220    1.0430   23.6570 C   0  0  0  0  0  0  0  0  0  0  0  0
    8.0810   -0.9750   21.0820 C   0  0  0  0  0  0  0  0  0  0  0  0
    6.9440    0.2550   18.0100 N   0  0  0  0  0  0  0  0  0  0  0  0
    7.6830   -0.5170   18.7600 N   0  0  0  0  0  0  0  0  0  0  0  0
    6.1600    0.3870   20.1140 N   0  0  0  0  0  0  0  0  0  0  0  0
    9.2623   -4.9266   25.8635 N   0  0  0  0  0  0  0  0  0  0  0  0
    9.4200   -0.0840   22.9530 N   0  0  0  0  0  0  0  0  0  0  0  0
    6.9244   -5.0476   26.1739 O   0  0  0  0  0  0  0  0  0  0  0  0
    9.1870    1.1500   21.0630 O   0  0  0  0  0  0  0  0  0  0  0  0
   13.9969    0.9202   24.2776 S   0  0  0  0  0  0  0  0  0  0  0  0
    7.5639   -2.8621   26.1045 H   0  0  0  0  0  0  0  0  0  0  0  0
   11.0141   -4.2644   23.9422 H   0  0  0  0  0  0  0  0  0  0  0  0
    7.5950   -0.7788   24.8007 H   0  0  0  0  0  0  0  0  0  0  0  0
   11.0408   -2.1861   22.6359 H   0  0  0  0  0  0  0  0  0  0  0  0
   11.8338    1.0798   21.3902 H   0  0  0  0  0  0  0  0  0  0  0  0
   14.4176    0.9966   21.8719 H   0  0  0  0  0  0  0  0  0  0  0  0
   12.0446    0.9149   25.7428 H   0  0  0  0  0  0  0  0  0  0  0  0
    4.7732    2.0709   17.5073 H   0  0  0  0  0  0  0  0  0  0  0  0
    3.2823    2.7848   19.2995 H   0  0  0  0  0  0  0  0  0  0  0  0
    3.6338    1.9971   21.6547 H   0  0  0  0  0  0  0  0  0  0  0  0
    5.5079    0.4527   22.1466 H   0  0  0  0  0  0  0  0  0  0  0  0
    7.3516   -6.9810   27.6812 H   0  0  0  0  0  0  0  0  0  0  0  0
    8.4757   -7.5428   26.4371 H   0  0  0  0  0  0  0  0  0  0  0  0
    9.1234   -5.9016   28.9400 H   0  0  0  0  0  0  0  0  0  0  0  0
    9.5778   -7.5840   28.6491 H   0  0  0  0  0  0  0  0  0  0  0  0
   11.1305   -5.3108   28.0523 H   0  0  0  0  0  0  0  0  0  0  0  0
   11.4565   -6.9587   27.5131 H   0  0  0  0  0  0  0  0  0  0  0  0
   11.3212   -5.0729   25.7168 H   0  0  0  0  0  0  0  0  0  0  0  0
   10.4483   -6.5796   25.3796 H   0  0  0  0  0  0  0  0  0  0  0  0
    9.6778    1.0140   24.6966 H   0  0  0  0  0  0  0  0  0  0  0  0
    9.6316    1.9637   23.2107 H   0  0  0  0  0  0  0  0  0  0  0  0
    7.4781   -1.4136   21.8845 H   0  0  0  0  0  0  0  0  0  0  0  0
    8.7420   -1.7550   20.6889 H   0  0  0  0  0  0  0  0  0  0  0  0
  1  3  2  0  0  0  0
  1  9  1  0  0  0  0
  2  4  1  0  0  0  0
  2  9  2  0  0  0  0
  3 10  1  0  0  0  0
  4 10  2  0  0  0  0
  5  6  2  0  0  0  0
  5  8  1  0  0  0  0
  6 32  1  0  0  0  0
  7  8  2  0  0  0  0
  7 32  1  0  0  0  0
  8 23  1  0  0  0  0
  9 28  1  0  0  0  0
 10 29  1  0  0  0  0
 11 13  1  0  0  0  0
 11 25  2  0  0  0  0
 11 27  1  0  0  0  0
 12 24  1  0  0  0  0
 12 26  2  0  0  0  0
 12 27  1  0  0  0  0
 13 14  2  0  0  0  0
 14 15  1  0  0  0  0
 15 16  2  0  0  0  0
 16 27  1  0  0  0  0
 17 19  1  0  0  0  0
 17 28  1  0  0  0  0
 17 30  2  0  0  0  0
 18 24  1  0  0  0  0
 18 29  1  0  0  0  0
 18 31  2  0  0  0  0
 19 20  1  0  0  0  0
 20 21  1  0  0  0  0
 21 22  1  0  0  0  0
 22 28  1  0  0  0  0
 23 29  1  0  0  0  0
 25 26  1  0  0  0  0
  1 33  1  0  0  0  0
  2 34  1  0  0  0  0
  3 35  1  0  0  0  0
  4 36  1  0  0  0  0
  5 37  1  0  0  0  0
  6 38  1  0  0  0  0
  7 39  1  0  0  0  0
 13 40  1  0  0  0  0
 14 41  1  0  0  0  0
 15 42  1  0  0  0  0
 16 43  1  0  0  0  0
 19 44  1  0  0  0  0
 19 45  1  0  0  0  0
 20 46  1  0  0  0  0
 20 47  1  0  0  0  0
 21 48  1  0  0  0  0
 21 49  1  0  0  0  0
 22 50  1  0  0  0  0
 22 51  1  0  0  0  0
 23 52  1  0  0  0  0
 23 53  1  0  0  0  0
 24 54  1  0  0  0  0
 24 55  1  0  0  0  0
M  END
> <clash_score>
1.272782601224562

> <docking_score>
-7.939785957336426

> <overlap_score>
0.9903323650360107

$$$$
BENZO_499_1
  -OEChem-08222022433D

 58 62  0     0  0  0  0  0  0999 V2000
    8.3310   -2.7170   25.3430 C   0  0  0  0  0  0  0  0  0  0  0  0
   10.2570   -3.5000   24.1350 C   0  0  0  0  0  0  0  0  0  0  0  0
    8.3510   -1.5420   24.6110 C   0  0  0  0  0  0  0  0  0  0  0  0
   10.2760   -2.3270   23.4020 C   0  0  0  0  0  0  0  0  0  0  0  0
   12.4359    1.7439   24.3724 C   0  0  0  0  0  0  0  0  0  0  0  0
   12.3100    0.2469   22.7668 C   0  0  0  0  0  0  0  0  0  0  0  0
   11.5217    1.0079   23.5949 C   0  0  0  0  0  0  0  0  0  0  0  0
    9.2850   -3.7090   25.1090 C   0  0  0  0  0  0  0  0  0  0  0  0
    9.3300   -1.3350   23.6390 C   0  0  0  0  0  0  0  0  0  0  0  0
    5.9810    0.8330   18.8060 C   0  0  0  0  0  0  0  0  0  0  0  0
    7.2210   -0.4620   20.0350 C   0  0  0  0  0  0  0  0  0  0  0  0
    4.9400    1.7060   18.5060 C   0  0  0  0  0  0  0  0  0  0  0  0
    4.0980    2.1130   19.5350 C   0  0  0  0  0  0  0  0  0  0  0  0
    4.2970    1.6690   20.8430 C   0  0  0  0  0  0  0  0  0  0  0  0
    5.3360    0.8000   21.1530 C   0  0  0  0  0  0  0  0  0  0  0  0
    8.2934   -5.1724   26.8574 C   0  0  0  0  0  0  0  0  0  0  0  0
    8.9510    0.1280   21.6880 C   0  0  0  0  0  0  0  0  0  0  0  0
    8.4443   -6.5251   27.5306 C   0  0  0  0  0  0  0  0  0  0  0  0
    8.6421   -7.6210   26.4982 C   0  0  0  0  0  0  0  0  0  0  0  0
    9.8032   -7.3237   25.5546 C   0  0  0  0  0  0  0  0  0  0  0  0
   10.3452   -5.9024   25.6995 C   0  0  0  0  0  0  0  0  0  0  0  0
   14.7884    0.0124   22.4815 C   0  0  0  0  0  0  0  0  0  0  0  0
   10.0220    1.0430   23.6570 C   0  0  0  0  0  0  0  0  0  0  0  0
    8.0810   -0.9750   21.0820 C   0  0  0  0  0  0  0  0  0  0  0  0
   13.7076    1.4745   24.0657 N   0  0  0  0  0  0  0  0  0  0  0  0
    6.9440    0.2550   18.0100 N   0  0  0  0  0  0  0  0  0  0  0  0
    7.6830   -0.5170   18.7600 N   0  0  0  0  0  0  0  0  0  0  0  0
   13.5982    0.5607   23.0864 N   0  0  0  0  0  0  0  0  0  0  0  0
    6.1600    0.3870   20.1140 N   0  0  0  0  0  0  0  0  0  0  0  0
    9.2623   -4.9267   25.8636 N   0  0  0  0  0  0  0  0  0  0  0  0
    9.4200   -0.0840   22.9530 N   0  0  0  0  0  0  0  0  0  0  0  0
    7.4269   -4.3921   27.2503 O   0  0  0  0  0  0  0  0  0  0  0  0
    9.1870    1.1500   21.0630 O   0  0  0  0  0  0  0  0  0  0  0  0
    7.5639   -2.8621   26.1045 H   0  0  0  0  0  0  0  0  0  0  0  0
   11.0141   -4.2644   23.9422 H   0  0  0  0  0  0  0  0  0  0  0  0
    7.5950   -0.7788   24.8007 H   0  0  0  0  0  0  0  0  0  0  0  0
   11.0408   -2.1861   22.6359 H   0  0  0  0  0  0  0  0  0  0  0  0
   12.2308    2.4652   25.1508 H   0  0  0  0  0  0  0  0  0  0  0  0
   12.0700   -0.4744   21.9974 H   0  0  0  0  0  0  0  0  0  0  0  0
    4.7732    2.0709   17.5073 H   0  0  0  0  0  0  0  0  0  0  0  0
    3.2823    2.7848   19.2995 H   0  0  0  0  0  0  0  0  0  0  0  0
    3.6338    1.9971   21.6547 H   0  0  0  0  0  0  0  0  0  0  0  0
    5.5079    0.4527   22.1466 H   0  0  0  0  0  0  0  0  0  0  0  0
    9.3021   -6.4901   28.1844 H   0  0  0  0  0  0  0  0  0  0  0  0
    7.5489   -6.7067   28.1060 H   0  0  0  0  0  0  0  0  0  0  0  0
    8.8161   -8.5925   27.0061 H   0  0  0  0  0  0  0  0  0  0  0  0
    7.7102   -7.7540   25.9127 H   0  0  0  0  0  0  0  0  0  0  0  0
   10.6240   -8.0484   25.7384 H   0  0  0  0  0  0  0  0  0  0  0  0
    9.4907   -7.5005   24.5024 H   0  0  0  0  0  0  0  0  0  0  0  0
   10.9741   -5.8406   26.5826 H   0  0  0  0  0  0  0  0  0  0  0  0
   10.9262   -5.6455   24.8203 H   0  0  0  0  0  0  0  0  0  0  0  0
   15.0569    0.6453   21.6315 H   0  0  0  0  0  0  0  0  0  0  0  0
   15.5971   -0.0026   23.2174 H   0  0  0  0  0  0  0  0  0  0  0  0
   14.5870   -1.0100   22.1498 H   0  0  0  0  0  0  0  0  0  0  0  0
    9.6778    1.0140   24.6966 H   0  0  0  0  0  0  0  0  0  0  0  0
    9.6316    1.9637   23.2107 H   0  0  0  0  0  0  0  0  0  0  0  0
    7.4781   -1.4136   21.8845 H   0  0  0  0  0  0  0  0  0  0  0  0
    8.7420   -1.7550   20.6889 H   0  0  0  0  0  0  0  0  0  0  0  0
  1  3  2  0  0  0  0
  1  8  1  0  0  0  0
  2  4  1  0  0  0  0
  2  8  2  0  0  0  0
  3  9  1  0  0  0  0
  4  9  2  0  0  0  0
  5  7  1  0  0  0  0
  5 25  2  0  0  0  0
  6  7  2  0  0  0  0
  6 28  1  0  0  0  0
  7 23  1  0  0  0  0
  8 30  1  0  0  0  0
  9 31  1  0  0  0  0
 10 12  1  0  0  0  0
 10 26  2  0  0  0  0
 10 29  1  0  0  0  0
 11 24  1  0  0  0  0
 11 27  2  0  0  0  0
 11 29  1  0  0  0  0
 12 13  2  0  0  0  0
 13 14  1  0  0  0  0
 14 15  2  0  0  0  0
 15 29  1  0  0  0  0
 16 18  1  0  0  0  0
 16 30  1  0  0  0  0
 16 32  2  0  0  0  0
 17 24  1  0  0  0  0
 17 31  1  0  0  0  0
 17 33  2  0  0  0  0
 18 19  1  0  0  0  0
 19 20  1  0  0  0  0
 20 21  1  0  0  0  0
 21 30  1  0  0  0  0
 22 28  1  0  0  0  0
 23 31  1  0  0  0  0
 25 28  1  0  0  0  0
 26 27  1  0  0  0  0
  1 34  1  0  0  0  0
  2 35  1  0  0  0  0
  3 36  1  0  0  0  0
  4 37  1  0  0  0  0
  5 38  1  0  0  0  0
  6 39  1  0  0  0  0
 12 40  1  0  0  0  0
 13 41  1  0  0  0  0
 14 42  1  0  0  0  0
 15 43  1  0  0  0  0
 18 44  1  0  0  0  0
 18 45  1  0  0  0  0
 19 46  1  0  0  0  0
 19 47  1  0  0  0  0
 20 48  1  0  0  0  0
 20 49  1  0  0  0  0
 21 50  1  0  0  0  0
 21 51  1  0  0  0  0
 22 52  1  0  0  0  0
 22 53  1  0  0  0  0
 22 54  1  0  0  0  0
 23 55  1  0  0  0  0
 23 56  1  0  0  0  0
 24 57  1  0  0  0  0
 24 58  1  0  0  0  0
M  END
> <clash_score>
0.6927847163055834

> <docking_score>
-7.6838788986206055

> <overlap_score>
1.0033575296401978

$$$$
BENZO_501_1
  -OEChem-08222022433D

 57 61  0     0  0  0  0  0  0999 V2000
   14.3082    0.9431   23.4783 C   0  0  0  0  0  0  0  0  0  0  0  0
   13.6391    0.3091   24.5251 C   0  0  0  0  0  0  0  0  0  0  0  0
   13.5841    1.6096   22.4898 C   0  0  0  0  0  0  0  0  0  0  0  0
   12.2459    0.3415   24.5835 C   0  0  0  0  0  0  0  0  0  0  0  0
   12.1908    1.6420   22.5481 C   0  0  0  0  0  0  0  0  0  0  0  0
    8.3310   -2.7170   25.3430 C   0  0  0  0  0  0  0  0  0  0  0  0
   10.2570   -3.5000   24.1350 C   0  0  0  0  0  0  0  0  0  0  0  0
    8.3510   -1.5420   24.6110 C   0  0  0  0  0  0  0  0  0  0  0  0
   10.2760   -2.3270   23.4020 C   0  0  0  0  0  0  0  0  0  0  0  0
   11.5217    1.0079   23.5949 C   0  0  0  0  0  0  0  0  0  0  0  0
    9.2850   -3.7090   25.1090 C   0  0  0  0  0  0  0  0  0  0  0  0
    9.3300   -1.3350   23.6390 C   0  0  0  0  0  0  0  0  0  0  0  0
    5.9810    0.8330   18.8060 C   0  0  0  0  0  0  0  0  0  0  0  0
    7.2210   -0.4620   20.0350 C   0  0  0  0  0  0  0  0  0  0  0  0
    4.9400    1.7060   18.5060 C   0  0  0  0  0  0  0  0  0  0  0  0
    4.0980    2.1130   19.5350 C   0  0  0  0  0  0  0  0  0  0  0  0
    4.2970    1.6690   20.8430 C   0  0  0  0  0  0  0  0  0  0  0  0
    5.3360    0.8000   21.1530 C   0  0  0  0  0  0  0  0  0  0  0  0
    8.9510    0.1280   21.6880 C   0  0  0  0  0  0  0  0  0  0  0  0
    8.7666   -4.9523   27.2147 C   0  0  0  0  0  0  0  0  0  0  0  0
    9.3034   -6.1866   25.1651 C   0  0  0  0  0  0  0  0  0  0  0  0
    7.3827   -5.5925   27.1999 C   0  0  0  0  0  0  0  0  0  0  0  0
    7.9024   -6.7967   25.2263 C   0  0  0  0  0  0  0  0  0  0  0  0
   10.0220    1.0430   23.6570 C   0  0  0  0  0  0  0  0  0  0  0  0
    8.0810   -0.9750   21.0820 C   0  0  0  0  0  0  0  0  0  0  0  0
    6.9440    0.2550   18.0100 N   0  0  0  0  0  0  0  0  0  0  0  0
    7.6830   -0.5170   18.7600 N   0  0  0  0  0  0  0  0  0  0  0  0
    6.1600    0.3870   20.1140 N   0  0  0  0  0  0  0  0  0  0  0  0
    9.2640   -4.8844   25.8389 N   0  0  0  0  0  0  0  0  0  0  0  0
    9.4200   -0.0840   22.9530 N   0  0  0  0  0  0  0  0  0  0  0  0
    9.1870    1.1500   21.0630 O   0  0  0  0  0  0  0  0  0  0  0  0
    7.4483   -6.8833   26.5817 O   0  0  0  0  0  0  0  0  0  0  0  0
   15.3932    0.9189   23.4337 H   0  0  0  0  0  0  0  0  0  0  0  0
   14.2029   -0.2090   25.2955 H   0  0  0  0  0  0  0  0  0  0  0  0
   14.1048    2.1043   21.6752 H   0  0  0  0  0  0  0  0  0  0  0  0
   11.7330   -0.1555   25.4027 H   0  0  0  0  0  0  0  0  0  0  0  0
   11.6349    2.1636   21.7735 H   0  0  0  0  0  0  0  0  0  0  0  0
    7.5647   -2.8621   26.1053 H   0  0  0  0  0  0  0  0  0  0  0  0
   11.0144   -4.2642   23.9425 H   0  0  0  0  0  0  0  0  0  0  0  0
    7.5958   -0.7779   24.8006 H   0  0  0  0  0  0  0  0  0  0  0  0
   11.0406   -2.1848   22.6356 H   0  0  0  0  0  0  0  0  0  0  0  0
    4.7732    2.0709   17.5073 H   0  0  0  0  0  0  0  0  0  0  0  0
    3.2823    2.7848   19.2995 H   0  0  0  0  0  0  0  0  0  0  0  0
    3.6338    1.9971   21.6547 H   0  0  0  0  0  0  0  0  0  0  0  0
    5.5079    0.4527   22.1466 H   0  0  0  0  0  0  0  0  0  0  0  0
    8.7030   -3.9561   27.6574 H   0  0  0  0  0  0  0  0  0  0  0  0
    9.4460   -5.5639   27.8143 H   0  0  0  0  0  0  0  0  0  0  0  0
   10.0083   -6.8392   25.6817 H   0  0  0  0  0  0  0  0  0  0  0  0
    9.6089   -6.0802   24.1251 H   0  0  0  0  0  0  0  0  0  0  0  0
    7.0281   -5.7334   28.2231 H   0  0  0  0  0  0  0  0  0  0  0  0
    6.6541   -4.9678   26.6754 H   0  0  0  0  0  0  0  0  0  0  0  0
    7.1860   -6.2177   24.6318 H   0  0  0  0  0  0  0  0  0  0  0  0
    7.9246   -7.8119   24.8187 H   0  0  0  0  0  0  0  0  0  0  0  0
    9.6778    1.0140   24.6966 H   0  0  0  0  0  0  0  0  0  0  0  0
    9.6316    1.9637   23.2107 H   0  0  0  0  0  0  0  0  0  0  0  0
    7.4781   -1.4136   21.8845 H   0  0  0  0  0  0  0  0  0  0  0  0
    8.7420   -1.7550   20.6889 H   0  0  0  0  0  0  0  0  0  0  0  0
  1  2  1  0  0  0  0
  1  3  2  0  0  0  0
  2  4  2  0  0  0  0
  3  5  1  0  0  0  0
  4 10  1  0  0  0  0
  5 10  2  0  0  0  0
  6  8  2  0  0  0  0
  6 11  1  0  0  0  0
  7  9  1  0  0  0  0
  7 11  2  0  0  0  0
  8 12  1  0  0  0  0
  9 12  2  0  0  0  0
 10 24  1  0  0  0  0
 11 29  1  0  0  0  0
 12 30  1  0  0  0  0
 13 15  1  0  0  0  0
 13 26  2  0  0  0  0
 13 28  1  0  0  0  0
 14 25  1  0  0  0  0
 14 27  2  0  0  0  0
 14 28  1  0  0  0  0
 15 16  2  0  0  0  0
 16 17  1  0  0  0  0
 17 18  2  0  0  0  0
 18 28  1  0  0  0  0
 19 25  1  0  0  0  0
 19 30  1  0  0  0  0
 19 31  2  0  0  0  0
 20 22  1  0  0  0  0
 20 29  1  0  0  0  0
 21 23  1  0  0  0  0
 21 29  1  0  0  0  0
 22 32  1  0  0  0  0
 23 32  1  0  0  0  0
 24 30  1  0  0  0  0
 26 27  1  0  0  0  0
  1 33  1  0  0  0  0
  2 34  1  0  0  0  0
  3 35  1  0  0  0  0
  4 36  1  0  0  0  0
  5 37  1  0  0  0  0
  6 38  1  0  0  0  0
  7 39  1  0  0  0  0
  8 40  1  0  0  0  0
  9 41  1  0  0  0  0
 15 42  1  0  0  0  0
 16 43  1  0  0  0  0
 17 44  1  0  0  0  0
 18 45  1  0  0  0  0
 20 46  1  0  0  0  0
 20 47  1  0  0  0  0
 21 48  1  0  0  0  0
 21 49  1  0  0  0  0
 22 50  1  0  0  0  0
 22 51  1  0  0  0  0
 23 52  1  0  0  0  0
 23 53  1  0  0  0  0
 24 54  1  0  0  0  0
 24 55  1  0  0  0  0
 25 56  1  0  0  0  0
 25 57  1  0  0  0  0
M  END
> <clash_score>
0

> <docking_score>
-8.938709259033203

> <overlap_score>
1.016516089439392

$$$$
BENZO_498_1
  -OEChem-08222022433D

 58 62  0     0  0  0  0  0  0999 V2000
   13.5977    1.8457   22.6865 C   0  0  0  0  0  0  0  0  0  0  0  0
   12.2044    1.8769   22.7438 C   0  0  0  0  0  0  0  0  0  0  0  0
    8.3310   -2.7170   25.3430 C   0  0  0  0  0  0  0  0  0  0  0  0
   10.2570   -3.5000   24.1350 C   0  0  0  0  0  0  0  0  0  0  0  0
    8.3510   -1.5420   24.6110 C   0  0  0  0  0  0  0  0  0  0  0  0
   10.2760   -2.3270   23.4020 C   0  0  0  0  0  0  0  0  0  0  0  0
   14.3084    0.9453   23.4803 C   0  0  0  0  0  0  0  0  0  0  0  0
   12.2323    0.1076   24.3888 C   0  0  0  0  0  0  0  0  0  0  0  0
   11.5217    1.0079   23.5949 C   0  0  0  0  0  0  0  0  0  0  0  0
    9.2850   -3.7090   25.1090 C   0  0  0  0  0  0  0  0  0  0  0  0
    9.3300   -1.3350   23.6390 C   0  0  0  0  0  0  0  0  0  0  0  0
   13.6257    0.0764   24.3314 C   0  0  0  0  0  0  0  0  0  0  0  0
    5.9810    0.8330   18.8060 C   0  0  0  0  0  0  0  0  0  0  0  0
    7.2210   -0.4620   20.0350 C   0  0  0  0  0  0  0  0  0  0  0  0
    4.9400    1.7060   18.5060 C   0  0  0  0  0  0  0  0  0  0  0  0
    4.0980    2.1130   19.5350 C   0  0  0  0  0  0  0  0  0  0  0  0
    4.2970    1.6690   20.8430 C   0  0  0  0  0  0  0  0  0  0  0  0
    5.3360    0.8000   21.1530 C   0  0  0  0  0  0  0  0  0  0  0  0
    8.2930   -5.1714   26.8572 C   0  0  0  0  0  0  0  0  0  0  0  0
    8.9510    0.1280   21.6880 C   0  0  0  0  0  0  0  0  0  0  0  0
    8.4551   -6.5156   27.5444 C   0  0  0  0  0  0  0  0  0  0  0  0
    9.9019   -6.7444   27.9450 C   0  0  0  0  0  0  0  0  0  0  0  0
   10.8596   -6.5882   26.7680 C   0  0  0  0  0  0  0  0  0  0  0  0
   10.1895   -6.0108   25.5223 C   0  0  0  0  0  0  0  0  0  0  0  0
   10.0220    1.0430   23.6570 C   0  0  0  0  0  0  0  0  0  0  0  0
    8.0810   -0.9750   21.0820 C   0  0  0  0  0  0  0  0  0  0  0  0
    6.9440    0.2550   18.0100 N   0  0  0  0  0  0  0  0  0  0  0  0
    7.6830   -0.5170   18.7600 N   0  0  0  0  0  0  0  0  0  0  0  0
    6.1600    0.3870   20.1140 N   0  0  0  0  0  0  0  0  0  0  0  0
    9.2623   -4.9266   25.8635 N   0  0  0  0  0  0  0  0  0  0  0  0
    9.4200   -0.0840   22.9530 N   0  0  0  0  0  0  0  0  0  0  0  0
    7.3370   -4.4527   27.1463 O   0  0  0  0  0  0  0  0  0  0  0  0
    9.1870    1.1500   21.0630 O   0  0  0  0  0  0  0  0  0  0  0  0
   14.5031   -1.0334   25.3114 Cl  0  0  0  0  0  0  0  0  0  0  0  0
   14.1289    2.5226   22.0237 H   0  0  0  0  0  0  0  0  0  0  0  0
   11.6588    2.5818   22.1218 H   0  0  0  0  0  0  0  0  0  0  0  0
    7.5639   -2.8621   26.1045 H   0  0  0  0  0  0  0  0  0  0  0  0
   11.0141   -4.2644   23.9422 H   0  0  0  0  0  0  0  0  0  0  0  0
    7.5950   -0.7788   24.8007 H   0  0  0  0  0  0  0  0  0  0  0  0
   11.0408   -2.1861   22.6359 H   0  0  0  0  0  0  0  0  0  0  0  0
   15.3941    0.9323   23.4255 H   0  0  0  0  0  0  0  0  0  0  0  0
   11.6954   -0.5682   25.0504 H   0  0  0  0  0  0  0  0  0  0  0  0
    4.7732    2.0709   17.5073 H   0  0  0  0  0  0  0  0  0  0  0  0
    3.2823    2.7848   19.2995 H   0  0  0  0  0  0  0  0  0  0  0  0
    3.6338    1.9971   21.6547 H   0  0  0  0  0  0  0  0  0  0  0  0
    5.5079    0.4527   22.1466 H   0  0  0  0  0  0  0  0  0  0  0  0
    7.8332   -6.5283   28.4263 H   0  0  0  0  0  0  0  0  0  0  0  0
    8.1305   -7.2787   26.8530 H   0  0  0  0  0  0  0  0  0  0  0  0
   10.1875   -6.0379   28.7521 H   0  0  0  0  0  0  0  0  0  0  0  0
   10.0116   -7.7568   28.3834 H   0  0  0  0  0  0  0  0  0  0  0  0
   11.7061   -5.9337   27.0644 H   0  0  0  0  0  0  0  0  0  0  0  0
   11.3230   -7.5689   26.5243 H   0  0  0  0  0  0  0  0  0  0  0  0
   10.9445   -5.5959   24.8614 H   0  0  0  0  0  0  0  0  0  0  0  0
    9.6461   -6.7954   25.0072 H   0  0  0  0  0  0  0  0  0  0  0  0
    9.6778    1.0140   24.6966 H   0  0  0  0  0  0  0  0  0  0  0  0
    9.6316    1.9637   23.2107 H   0  0  0  0  0  0  0  0  0  0  0  0
    7.4781   -1.4136   21.8845 H   0  0  0  0  0  0  0  0  0  0  0  0
    8.7420   -1.7550   20.6889 H   0  0  0  0  0  0  0  0  0  0  0  0
  1  2  2  0  0  0  0
  1  7  1  0  0  0  0
  2  9  1  0  0  0  0
  3  5  2  0  0  0  0
  3 10  1  0  0  0  0
  4  6  1  0  0  0  0
  4 10  2  0  0  0  0
  5 11  1  0  0  0  0
  6 11  2  0  0  0  0
  7 12  2  0  0  0  0
  8  9  2  0  0  0  0
  8 12  1  0  0  0  0
  9 25  1  0  0  0  0
 10 30  1  0  0  0  0
 11 31  1  0  0  0  0
 12 34  1  0  0  0  0
 13 15  1  0  0  0  0
 13 27  2  0  0  0  0
 13 29  1  0  0  0  0
 14 26  1  0  0  0  0
 14 28  2  0  0  0  0
 14 29  1  0  0  0  0
 15 16  2  0  0  0  0
 16 17  1  0  0  0  0
 17 18  2  0  0  0  0
 18 29  1  0  0  0  0
 19 21  1  0  0  0  0
 19 30  1  0  0  0  0
 19 32  2  0  0  0  0
 20 26  1  0  0  0  0
 20 31  1  0  0  0  0
 20 33  2  0  0  0  0
 21 22  1  0  0  0  0
 22 23  1  0  0  0  0
 23 24  1  0  0  0  0
 24 30  1  0  0  0  0
 25 31  1  0  0  0  0
 27 28  1  0  0  0  0
  1 35  1  0  0  0  0
  2 36  1  0  0  0  0
  3 37  1  0  0  0  0
  4 38  1  0  0  0  0
  5 39  1  0  0  0  0
  6 40  1  0  0  0  0
  7 41  1  0  0  0  0
  8 42  1  0  0  0  0
 15 43  1  0  0  0  0
 16 44  1  0  0  0  0
 17 45  1  0  0  0  0
 18 46  1  0  0  0  0
 21 47  1  0  0  0  0
 21 48  1  0  0  0  0
 22 49  1  0  0  0  0
 22 50  1  0  0  0  0
 23 51  1  0  0  0  0
 23 52  1  0  0  0  0
 24 53  1  0  0  0  0
 24 54  1  0  0  0  0
 25 55  1  0  0  0  0
 25 56  1  0  0  0  0
 26 57  1  0  0  0  0
 26 58  1  0  0  0  0
M  END
> <clash_score>
2.8259427848402625

> <docking_score>
-6.88631010055542

> <overlap_score>
1.021795392036438

$$$$
BENZO_500_1
  -OEChem-08222022433D

 54 58  0     0  0  0  0  0  0999 V2000
    8.3310   -2.7170   25.3430 C   0  0  0  0  0  0  0  0  0  0  0  0
   10.2570   -3.5000   24.1350 C   0  0  0  0  0  0  0  0  0  0  0  0
    8.3510   -1.5420   24.6110 C   0  0  0  0  0  0  0  0  0  0  0  0
   10.2760   -2.3270   23.4020 C   0  0  0  0  0  0  0  0  0  0  0  0
   12.2675    1.0332   22.3812 C   0  0  0  0  0  0  0  0  0  0  0  0
   13.6257    0.9906   22.6074 C   0  0  0  0  0  0  0  0  0  0  0  0
   12.3384    0.9467   24.7028 C   0  0  0  0  0  0  0  0  0  0  0  0
   11.5217    1.0079   23.5949 C   0  0  0  0  0  0  0  0  0  0  0  0
    9.2850   -3.7090   25.1090 C   0  0  0  0  0  0  0  0  0  0  0  0
    9.3300   -1.3350   23.6390 C   0  0  0  0  0  0  0  0  0  0  0  0
    5.9810    0.8330   18.8060 C   0  0  0  0  0  0  0  0  0  0  0  0
    7.2210   -0.4620   20.0350 C   0  0  0  0  0  0  0  0  0  0  0  0
    4.9400    1.7060   18.5060 C   0  0  0  0  0  0  0  0  0  0  0  0
    4.0980    2.1130   19.5350 C   0  0  0  0  0  0  0  0  0  0  0  0
    4.2970    1.6690   20.8430 C   0  0  0  0  0  0  0  0  0  0  0  0
    5.3360    0.8000   21.1530 C   0  0  0  0  0  0  0  0  0  0  0  0
    8.9510    0.1280   21.6880 C   0  0  0  0  0  0  0  0  0  0  0  0
    8.7666   -4.9523   27.2147 C   0  0  0  0  0  0  0  0  0  0  0  0
    9.3034   -6.1866   25.1651 C   0  0  0  0  0  0  0  0  0  0  0  0
    7.3827   -5.5925   27.1999 C   0  0  0  0  0  0  0  0  0  0  0  0
    7.9024   -6.7967   25.2263 C   0  0  0  0  0  0  0  0  0  0  0  0
   10.0220    1.0430   23.6570 C   0  0  0  0  0  0  0  0  0  0  0  0
    8.0810   -0.9750   21.0820 C   0  0  0  0  0  0  0  0  0  0  0  0
    6.9440    0.2550   18.0100 N   0  0  0  0  0  0  0  0  0  0  0  0
    7.6830   -0.5170   18.7600 N   0  0  0  0  0  0  0  0  0  0  0  0
    6.1600    0.3870   20.1140 N   0  0  0  0  0  0  0  0  0  0  0  0
    9.2640   -4.8844   25.8389 N   0  0  0  0  0  0  0  0  0  0  0  0
    9.4200   -0.0840   22.9530 N   0  0  0  0  0  0  0  0  0  0  0  0
    9.1870    1.1500   21.0630 O   0  0  0  0  0  0  0  0  0  0  0  0
    7.4483   -6.8833   26.5817 O   0  0  0  0  0  0  0  0  0  0  0  0
   13.9969    0.9202   24.2776 S   0  0  0  0  0  0  0  0  0  0  0  0
    7.5647   -2.8621   26.1053 H   0  0  0  0  0  0  0  0  0  0  0  0
   11.0144   -4.2642   23.9425 H   0  0  0  0  0  0  0  0  0  0  0  0
    7.5958   -0.7779   24.8006 H   0  0  0  0  0  0  0  0  0  0  0  0
   11.0406   -2.1848   22.6356 H   0  0  0  0  0  0  0  0  0  0  0  0
   11.8338    1.0798   21.3902 H   0  0  0  0  0  0  0  0  0  0  0  0
   14.4176    0.9966   21.8719 H   0  0  0  0  0  0  0  0  0  0  0  0
   12.0446    0.9149   25.7428 H   0  0  0  0  0  0  0  0  0  0  0  0
    4.7732    2.0709   17.5073 H   0  0  0  0  0  0  0  0  0  0  0  0
    3.2823    2.7848   19.2995 H   0  0  0  0  0  0  0  0  0  0  0  0
    3.6338    1.9971   21.6547 H   0  0  0  0  0  0  0  0  0  0  0  0
    5.5079    0.4527   22.1466 H   0  0  0  0  0  0  0  0  0  0  0  0
    8.7030   -3.9561   27.6574 H   0  0  0  0  0  0  0  0  0  0  0  0
    9.4460   -5.5639   27.8143 H   0  0  0  0  0  0  0  0  0  0  0  0
   10.0083   -6.8392   25.6817 H   0  0  0  0  0  0  0  0  0  0  0  0
    9.6089   -6.0802   24.1251 H   0  0  0  0  0  0  0  0  0  0  0  0
    7.0281   -5.7334   28.2231 H   0  0  0  0  0  0  0  0  0  0  0  0
    6.6541   -4.9678   26.6754 H   0  0  0  0  0  0  0  0  0  0  0  0
    7.1860   -6.2177   24.6318 H   0  0  0  0  0  0  0  0  0  0  0  0
    7.9246   -7.8119   24.8187 H   0  0  0  0  0  0  0  0  0  0  0  0
    9.6778    1.0140   24.6966 H   0  0  0  0  0  0  0  0  0  0  0  0
    9.6316    1.9637   23.2107 H   0  0  0  0  0  0  0  0  0  0  0  0
    7.4781   -1.4136   21.8845 H   0  0  0  0  0  0  0  0  0  0  0  0
    8.7420   -1.7550   20.6889 H   0  0  0  0  0  0  0  0  0  0  0  0
  1  3  2  0  0  0  0
  1  9  1  0  0  0  0
  2  4  1  0  0  0  0
  2  9  2  0  0  0  0
  3 10  1  0  0  0  0
  4 10  2  0  0  0  0
  5  6  2  0  0  0  0
  5  8  1  0  0  0  0
  6 31  1  0  0  0  0
  7  8  2  0  0  0  0
  7 31  1  0  0  0  0
  8 22  1  0  0  0  0
  9 27  1  0  0  0  0
 10 28  1  0  0  0  0
 11 13  1  0  0  0  0
 11 24  2  0  0  0  0
 11 26  1  0  0  0  0
 12 23  1  0  0  0  0
 12 25  2  0  0  0  0
 12 26  1  0  0  0  0
 13 14  2  0  0  0  0
 14 15  1  0  0  0  0
 15 16  2  0  0  0  0
 16 26  1  0  0  0  0
 17 23  1  0  0  0  0
 17 28  1  0  0  0  0
 17 29  2  0  0  0  0
 18 20  1  0  0  0  0
 18 27  1  0  0  0  0
 19 21  1  0  0  0  0
 19 27  1  0  0  0  0
 20 30  1  0  0  0  0
 21 30  1  0  0  0  0
 22 28  1  0  0  0  0
 24 25  1  0  0  0  0
  1 32  1  0  0  0  0
  2 33  1  0  0  0  0
  3 34  1  0  0  0  0
  4 35  1  0  0  0  0
  5 36  1  0  0  0  0
  6 37  1  0  0  0  0
  7 38  1  0  0  0  0
 13 39  1  0  0  0  0
 14 40  1  0  0  0  0
 15 41  1  0  0  0  0
 16 42  1  0  0  0  0
 18 43  1  0  0  0  0
 18 44  1  0  0  0  0
 19 45  1  0  0  0  0
 19 46  1  0  0  0  0
 20 47  1  0  0  0  0
 20 48  1  0  0  0  0
 21 49  1  0  0  0  0
 21 50  1  0  0  0  0
 22 51  1  0  0  0  0
 22 52  1  0  0  0  0
 23 53  1  0  0  0  0
 23 54  1  0  0  0  0
M  END
> <clash_score>
0

> <docking_score>
-9.184908866882324

> <overlap_score>
0.9908769130706787

$$$$
BENZO_502_1
  -OEChem-08222022433D

 57 61  0     0  0  0  0  0  0999 V2000
   13.5977    1.8457   22.6865 C   0  0  0  0  0  0  0  0  0  0  0  0
   12.2044    1.8769   22.7438 C   0  0  0  0  0  0  0  0  0  0  0  0
    8.3310   -2.7170   25.3430 C   0  0  0  0  0  0  0  0  0  0  0  0
   10.2570   -3.5000   24.1350 C   0  0  0  0  0  0  0  0  0  0  0  0
    8.3510   -1.5420   24.6110 C   0  0  0  0  0  0  0  0  0  0  0  0
   10.2760   -2.3270   23.4020 C   0  0  0  0  0  0  0  0  0  0  0  0
   14.3084    0.9454   23.4803 C   0  0  0  0  0  0  0  0  0  0  0  0
   12.2323    0.1076   24.3888 C   0  0  0  0  0  0  0  0  0  0  0  0
   11.5217    1.0079   23.5949 C   0  0  0  0  0  0  0  0  0  0  0  0
    9.2850   -3.7090   25.1090 C   0  0  0  0  0  0  0  0  0  0  0  0
    9.3300   -1.3350   23.6390 C   0  0  0  0  0  0  0  0  0  0  0  0
   13.6257    0.0764   24.3314 C   0  0  0  0  0  0  0  0  0  0  0  0
    5.9810    0.8330   18.8060 C   0  0  0  0  0  0  0  0  0  0  0  0
    7.2210   -0.4620   20.0350 C   0  0  0  0  0  0  0  0  0  0  0  0
    4.9400    1.7060   18.5060 C   0  0  0  0  0  0  0  0  0  0  0  0
    4.0980    2.1130   19.5350 C   0  0  0  0  0  0  0  0  0  0  0  0
    4.2970    1.6690   20.8430 C   0  0  0  0  0  0  0  0  0  0  0  0
    5.3360    0.8000   21.1530 C   0  0  0  0  0  0  0  0  0  0  0  0
    8.9510    0.1280   21.6880 C   0  0  0  0  0  0  0  0  0  0  0  0
    8.7666   -4.9523   27.2147 C   0  0  0  0  0  0  0  0  0  0  0  0
    9.3034   -6.1866   25.1651 C   0  0  0  0  0  0  0  0  0  0  0  0
    7.3827   -5.5925   27.1999 C   0  0  0  0  0  0  0  0  0  0  0  0
    7.9024   -6.7967   25.2263 C   0  0  0  0  0  0  0  0  0  0  0  0
   10.0220    1.0430   23.6570 C   0  0  0  0  0  0  0  0  0  0  0  0
    8.0810   -0.9750   21.0820 C   0  0  0  0  0  0  0  0  0  0  0  0
    6.9440    0.2550   18.0100 N   0  0  0  0  0  0  0  0  0  0  0  0
    7.6830   -0.5170   18.7600 N   0  0  0  0  0  0  0  0  0  0  0  0
    6.1600    0.3870   20.1140 N   0  0  0  0  0  0  0  0  0  0  0  0
    9.2640   -4.8844   25.8389 N   0  0  0  0  0  0  0  0  0  0  0  0
    9.4200   -0.0840   22.9530 N   0  0  0  0  0  0  0  0  0  0  0  0
    9.1870    1.1500   21.0630 O   0  0  0  0  0  0  0  0  0  0  0  0
    7.4483   -6.8833   26.5817 O   0  0  0  0  0  0  0  0  0  0  0  0
   14.5031   -1.0334   25.3114 Cl  0  0  0  0  0  0  0  0  0  0  0  0
   14.1289    2.5226   22.0237 H   0  0  0  0  0  0  0  0  0  0  0  0
   11.6588    2.5818   22.1218 H   0  0  0  0  0  0  0  0  0  0  0  0
    7.5647   -2.8621   26.1053 H   0  0  0  0  0  0  0  0  0  0  0  0
   11.0144   -4.2642   23.9425 H   0  0  0  0  0  0  0  0  0  0  0  0
    7.5958   -0.7779   24.8006 H   0  0  0  0  0  0  0  0  0  0  0  0
   11.0406   -2.1848   22.6356 H   0  0  0  0  0  0  0  0  0  0  0  0
   15.3941    0.9323   23.4255 H   0  0  0  0  0  0  0  0  0  0  0  0
   11.6954   -0.5682   25.0504 H   0  0  0  0  0  0  0  0  0  0  0  0
    4.7732    2.0709   17.5073 H   0  0  0  0  0  0  0  0  0  0  0  0
    3.2823    2.7848   19.2995 H   0  0  0  0  0  0  0  0  0  0  0  0
    3.6338    1.9971   21.6547 H   0  0  0  0  0  0  0  0  0  0  0  0
    5.5079    0.4527   22.1466 H   0  0  0  0  0  0  0  0  0  0  0  0
    8.7030   -3.9561   27.6574 H   0  0  0  0  0  0  0  0  0  0  0  0
    9.4460   -5.5639   27.8143 H   0  0  0  0  0  0  0  0  0  0  0  0
   10.0083   -6.8392   25.6817 H   0  0  0  0  0  0  0  0  0  0  0  0
    9.6089   -6.0802   24.1251 H   0  0  0  0  0  0  0  0  0  0  0  0
    7.0281   -5.7334   28.2231 H   0  0  0  0  0  0  0  0  0  0  0  0
    6.6541   -4.9678   26.6754 H   0  0  0  0  0  0  0  0  0  0  0  0
    7.1860   -6.2177   24.6318 H   0  0  0  0  0  0  0  0  0  0  0  0
    7.9246   -7.8119   24.8187 H   0  0  0  0  0  0  0  0  0  0  0  0
    9.6778    1.0140   24.6966 H   0  0  0  0  0  0  0  0  0  0  0  0
    9.6316    1.9637   23.2107 H   0  0  0  0  0  0  0  0  0  0  0  0
    7.4781   -1.4136   21.8845 H   0  0  0  0  0  0  0  0  0  0  0  0
    8.7420   -1.7550   20.6889 H   0  0  0  0  0  0  0  0  0  0  0  0
  1  2  2  0  0  0  0
  1  7  1  0  0  0  0
  2  9  1  0  0  0  0
  3  5  2  0  0  0  0
  3 10  1  0  0  0  0
  4  6  1  0  0  0  0
  4 10  2  0  0  0  0
  5 11  1  0  0  0  0
  6 11  2  0  0  0  0
  7 12  2  0  0  0  0
  8  9  2  0  0  0  0
  8 12  1  0  0  0  0
  9 24  1  0  0  0  0
 10 29  1  0  0  0  0
 11 30  1  0  0  0  0
 12 33  1  0  0  0  0
 13 15  1  0  0  0  0
 13 26  2  0  0  0  0
 13 28  1  0  0  0  0
 14 25  1  0  0  0  0
 14 27  2  0  0  0  0
 14 28  1  0  0  0  0
 15 16  2  0  0  0  0
 16 17  1  0  0  0  0
 17 18  2  0  0  0  0
 18 28  1  0  0  0  0
 19 25  1  0  0  0  0
 19 30  1  0  0  0  0
 19 31  2  0  0  0  0
 20 22  1  0  0  0  0
 20 29  1  0  0  0  0
 21 23  1  0  0  0  0
 21 29  1  0  0  0  0
 22 32  1  0  0  0  0
 23 32  1  0  0  0  0
 24 30  1  0  0  0  0
 26 27  1  0  0  0  0
  1 34  1  0  0  0  0
  2 35  1  0  0  0  0
  3 36  1  0  0  0  0
  4 37  1  0  0  0  0
  5 38  1  0  0  0  0
  6 39  1  0  0  0  0
  7 40  1  0  0  0  0
  8 41  1  0  0  0  0
 15 42  1  0  0  0  0
 16 43  1  0  0  0  0
 17 44  1  0  0  0  0
 18 45  1  0  0  0  0
 20 46  1  0  0  0  0
 20 47  1  0  0  0  0
 21 48  1  0  0  0  0
 21 49  1  0  0  0  0
 22 50  1  0  0  0  0
 22 51  1  0  0  0  0
 23 52  1  0  0  0  0
 23 53  1  0  0  0  0
 24 54  1  0  0  0  0
 24 55  1  0  0  0  0
 25 56  1  0  0  0  0
 25 57  1  0  0  0  0
M  END
> <clash_score>
0.7662450791812931

> <docking_score>
-8.120609283447266

> <overlap_score>
1.021671175956726

$$$$
BENZO_503_1
  -OEChem-08222022433D

 57 61  0     0  0  0  0  0  0999 V2000
    8.3310   -2.7170   25.3430 C   0  0  0  0  0  0  0  0  0  0  0  0
   10.2570   -3.5000   24.1350 C   0  0  0  0  0  0  0  0  0  0  0  0
    8.3510   -1.5420   24.6110 C   0  0  0  0  0  0  0  0  0  0  0  0
   10.2760   -2.3270   23.4020 C   0  0  0  0  0  0  0  0  0  0  0  0
   12.4359    1.7439   24.3724 C   0  0  0  0  0  0  0  0  0  0  0  0
   12.3100    0.2469   22.7668 C   0  0  0  0  0  0  0  0  0  0  0  0
   11.5217    1.0079   23.5949 C   0  0  0  0  0  0  0  0  0  0  0  0
    9.2850   -3.7090   25.1090 C   0  0  0  0  0  0  0  0  0  0  0  0
    9.3300   -1.3350   23.6390 C   0  0  0  0  0  0  0  0  0  0  0  0
    5.9810    0.8330   18.8060 C   0  0  0  0  0  0  0  0  0  0  0  0
    7.2210   -0.4620   20.0350 C   0  0  0  0  0  0  0  0  0  0  0  0
    4.9400    1.7060   18.5060 C   0  0  0  0  0  0  0  0  0  0  0  0
    4.0980    2.1130   19.5350 C   0  0  0  0  0  0  0  0  0  0  0  0
    4.2970    1.6690   20.8430 C   0  0  0  0  0  0  0  0  0  0  0  0
    5.3360    0.8000   21.1530 C   0  0  0  0  0  0  0  0  0  0  0  0
    8.9510    0.1280   21.6880 C   0  0  0  0  0  0  0  0  0  0  0  0
    8.7666   -4.9523   27.2147 C   0  0  0  0  0  0  0  0  0  0  0  0
    9.3034   -6.1866   25.1651 C   0  0  0  0  0  0  0  0  0  0  0  0
    7.3827   -5.5925   27.1999 C   0  0  0  0  0  0  0  0  0  0  0  0
    7.9024   -6.7967   25.2263 C   0  0  0  0  0  0  0  0  0  0  0  0
   14.7884    0.0124   22.4815 C   0  0  0  0  0  0  0  0  0  0  0  0
   10.0220    1.0430   23.6570 C   0  0  0  0  0  0  0  0  0  0  0  0
    8.0810   -0.9750   21.0820 C   0  0  0  0  0  0  0  0  0  0  0  0
   13.7076    1.4745   24.0657 N   0  0  0  0  0  0  0  0  0  0  0  0
    6.9440    0.2550   18.0100 N   0  0  0  0  0  0  0  0  0  0  0  0
    7.6830   -0.5170   18.7600 N   0  0  0  0  0  0  0  0  0  0  0  0
   13.5982    0.5607   23.0864 N   0  0  0  0  0  0  0  0  0  0  0  0
    6.1600    0.3870   20.1140 N   0  0  0  0  0  0  0  0  0  0  0  0
    9.2640   -4.8844   25.8389 N   0  0  0  0  0  0  0  0  0  0  0  0
    9.4200   -0.0840   22.9530 N   0  0  0  0  0  0  0  0  0  0  0  0
    9.1870    1.1500   21.0630 O   0  0  0  0  0  0  0  0  0  0  0  0
    7.4483   -6.8833   26.5817 O   0  0  0  0  0  0  0  0  0  0  0  0
    7.5647   -2.8621   26.1053 H   0  0  0  0  0  0  0  0  0  0  0  0
   11.0144   -4.2642   23.9425 H   0  0  0  0  0  0  0  0  0  0  0  0
    7.5958   -0.7779   24.8006 H   0  0  0  0  0  0  0  0  0  0  0  0
   11.0406   -2.1848   22.6356 H   0  0  0  0  0  0  0  0  0  0  0  0
   12.2308    2.4652   25.1508 H   0  0  0  0  0  0  0  0  0  0  0  0
   12.0700   -0.4744   21.9974 H   0  0  0  0  0  0  0  0  0  0  0  0
    4.7732    2.0709   17.5073 H   0  0  0  0  0  0  0  0  0  0  0  0
    3.2823    2.7848   19.2995 H   0  0  0  0  0  0  0  0  0  0  0  0
    3.6338    1.9971   21.6547 H   0  0  0  0  0  0  0  0  0  0  0  0
    5.5079    0.4527   22.1466 H   0  0  0  0  0  0  0  0  0  0  0  0
    8.7030   -3.9561   27.6574 H   0  0  0  0  0  0  0  0  0  0  0  0
    9.4460   -5.5639   27.8143 H   0  0  0  0  0  0  0  0  0  0  0  0
   10.0083   -6.8392   25.6817 H   0  0  0  0  0  0  0  0  0  0  0  0
    9.6089   -6.0802   24.1251 H   0  0  0  0  0  0  0  0  0  0  0  0
    7.0281   -5.7334   28.2231 H   0  0  0  0  0  0  0  0  0  0  0  0
    6.6541   -4.9678   26.6754 H   0  0  0  0  0  0  0  0  0  0  0  0
    7.1860   -6.2177   24.6318 H   0  0  0  0  0  0  0  0  0  0  0  0
    7.9246   -7.8119   24.8187 H   0  0  0  0  0  0  0  0  0  0  0  0
   15.0569    0.6453   21.6315 H   0  0  0  0  0  0  0  0  0  0  0  0
   15.5971   -0.0026   23.2174 H   0  0  0  0  0  0  0  0  0  0  0  0
   14.5870   -1.0100   22.1498 H   0  0  0  0  0  0  0  0  0  0  0  0
    9.6778    1.0140   24.6966 H   0  0  0  0  0  0  0  0  0  0  0  0
    9.6316    1.9637   23.2107 H   0  0  0  0  0  0  0  0  0  0  0  0
    7.4781   -1.4136   21.8845 H   0  0  0  0  0  0  0  0  0  0  0  0
    8.7420   -1.7550   20.6889 H   0  0  0  0  0  0  0  0  0  0  0  0
  1  3  2  0  0  0  0
  1  8  1  0  0  0  0
  2  4  1  0  0  0  0
  2  8  2  0  0  0  0
  3  9  1  0  0  0  0
  4  9  2  0  0  0  0
  5  7  1  0  0  0  0
  5 24  2  0  0  0  0
  6  7  2  0  0  0  0
  6 27  1  0  0  0  0
  7 22  1  0  0  0  0
  8 29  1  0  0  0  0
  9 30  1  0  0  0  0
 10 12  1  0  0  0  0
 10 25  2  0  0  0  0
 10 28  1  0  0  0  0
 11 23  1  0  0  0  0
 11 26  2  0  0  0  0
 11 28  1  0  0  0  0
 12 13  2  0  0  0  0
 13 14  1  0  0  0  0
 14 15  2  0  0  0  0
 15 28  1  0  0  0  0
 16 23  1  0  0  0  0
 16 30  1  0  0  0  0
 16 31  2  0  0  0  0
 17 19  1  0  0  0  0
 17 29  1  0  0  0  0
 18 20  1  0  0  0  0
 18 29  1  0  0  0  0
 19 32  1  0  0  0  0
 20 32  1  0  0  0  0
 21 27  1  0  0  0  0
 22 30  1  0  0  0  0
 24 27  1  0  0  0  0
 25 26  1  0  0  0  0
  1 33  1  0  0  0  0
  2 34  1  0  0  0  0
  3 35  1  0  0  0  0
  4 36  1  0  0  0  0
  5 37  1  0  0  0  0
  6 38  1  0  0  0  0
 12 39  1  0  0  0  0
 13 40  1  0  0  0  0
 14 41  1  0  0  0  0
 15 42  1  0  0  0  0
 17 43  1  0  0  0  0
 17 44  1  0  0  0  0
 18 45  1  0  0  0  0
 18 46  1  0  0  0  0
 19 47  1  0  0  0  0
 19 48  1  0  0  0  0
 20 49  1  0  0  0  0
 20 50  1  0  0  0  0
 21 51  1  0  0  0  0
 21 52  1  0  0  0  0
 21 53  1  0  0  0  0
 22 54  1  0  0  0  0
 22 55  1  0  0  0  0
 23 56  1  0  0  0  0
 23 57  1  0  0  0  0
M  END
> <clash_score>
0

> <docking_score>
-9.153329849243164

> <overlap_score>
1.0026934146881104

$$$$
