TRY-UNI-2eddb1ff-7
  -OEChem-08112022573D

 40 42  0     1  0  0  0  0  0999 V2000
    6.6320    0.5940   17.2520 N   0  0  0  0  0  0  0  0  0  0  0  0
    5.0980    0.9060   21.2740 C   0  0  0  0  0  0  0  0  0  0  0  0
    9.0150    1.2120   20.8220 O   0  0  0  0  0  0  0  0  0  0  0  0
   14.1940   -1.9100   21.6990 Cl  0  0  0  0  0  0  0  0  0  0  0  0
    5.6260    0.7590   19.8690 C   0  0  0  0  0  0  0  0  0  0  0  0
    7.5630   -0.5230   20.6330 N   0  0  0  0  0  0  0  0  0  0  0  0
   12.7170    2.6360   23.4450 O   0  0  0  0  0  0  0  0  0  0  0  0
    5.0000    1.4070   18.8080 C   0  0  0  0  0  0  0  0  0  0  0  0
   12.0750    4.6580   22.1930 N   0  0  0  0  0  0  0  0  0  0  0  0
   13.2020    6.6930   21.8710 O   0  0  0  0  0  0  0  0  0  0  0  0
    5.5330    1.3060   17.5390 C   0  0  0  0  0  0  0  0  0  0  0  0
    7.2400   -0.0390   18.2610 C   0  0  0  0  0  0  0  0  0  0  0  0
    6.7930    0.0210   19.5790 C   0  0  0  0  0  0  0  0  0  0  0  0
    8.6020    0.1230   21.2070 C   0  0  0  0  0  0  0  0  0  0  0  0
    9.2100   -0.5900   22.3990 C   0  0  0  0  0  0  0  0  0  0  0  0
   10.6720   -0.2500   22.5660 C   0  0  0  0  0  0  0  0  0  0  0  0
   11.6520   -1.1420   22.1450 C   0  0  0  0  0  0  0  0  0  0  0  0
   12.9770   -0.7640   22.1810 C   0  0  0  0  0  0  0  0  0  0  0  0
   13.3680    0.4840   22.6240 C   0  0  0  0  0  0  0  0  0  0  0  0
   12.3850    1.3610   23.0530 C   0  0  0  0  0  0  0  0  0  0  0  0
   12.9780    3.4700   22.3070 C   0  0  1  0  0  0  0  0  0  0  0  0
   14.0670    4.4610   22.7270 C   0  0  0  0  0  0  0  0  0  0  0  0
   13.1090    5.5190   22.2110 C   0  0  0  0  0  0  0  0  0  0  0  0
   11.0490    1.0010   23.0460 C   0  0  0  0  0  0  0  0  0  0  0  0
    4.2146    1.5614   21.2676 H   0  0  0  0  0  0  0  0  0  0  0  0
    4.8178   -0.0830   21.6656 H   0  0  0  0  0  0  0  0  0  0  0  0
    5.8767    1.3466   21.9140 H   0  0  0  0  0  0  0  0  0  0  0  0
    7.3262   -1.4337   20.9714 H   0  0  0  0  0  0  0  0  0  0  0  0
    4.1033    1.9849   18.9767 H   0  0  0  0  0  0  0  0  0  0  0  0
   11.0833    4.7693   22.1283 H   0  0  0  0  0  0  0  0  0  0  0  0
    5.0381    1.8287   16.7338 H   0  0  0  0  0  0  0  0  0  0  0  0
    8.1205   -0.6253   18.0434 H   0  0  0  0  0  0  0  0  0  0  0  0
    8.6681   -0.2905   23.3082 H   0  0  0  0  0  0  0  0  0  0  0  0
    9.1107   -1.6758   22.2538 H   0  0  0  0  0  0  0  0  0  0  0  0
   11.3767   -2.1249   21.7920 H   0  0  0  0  0  0  0  0  0  0  0  0
   14.4099    0.7682   22.6357 H   0  0  0  0  0  0  0  0  0  0  0  0
   13.1802    2.9479   21.3601 H   0  0  0  0  0  0  0  0  0  0  0  0
   14.2732    4.5015   23.8067 H   0  0  0  0  0  0  0  0  0  0  0  0
   15.0151    4.3776   22.1755 H   0  0  0  0  0  0  0  0  0  0  0  0
   10.3009    1.6886   23.4119 H   0  0  0  0  0  0  0  0  0  0  0  0
  1 11  2  0  0  0  0
  1 12  1  0  0  0  0
  2  5  1  0  0  0  0
  3 14  2  0  0  0  0
  4 18  1  0  0  0  0
  5  8  2  0  0  0  0
  5 13  1  0  0  0  0
  6 13  1  0  0  0  0
  6 14  1  0  0  0  0
  7 20  1  0  0  0  0
  7 21  1  0  0  0  0
  8 11  1  0  0  0  0
  9 21  1  0  0  0  0
  9 23  1  0  0  0  0
 10 23  2  0  0  0  0
 12 13  2  0  0  0  0
 14 15  1  0  0  0  0
 15 16  1  0  0  0  0
 16 17  2  0  0  0  0
 16 24  1  0  0  0  0
 17 18  1  0  0  0  0
 18 19  2  0  0  0  0
 19 20  1  0  0  0  0
 20 24  2  0  0  0  0
 21 22  1  0  0  0  0
 22 23  1  0  0  0  0
  2 25  1  0  0  0  0
  2 26  1  0  0  0  0
  2 27  1  0  0  0  0
  6 28  1  0  0  0  0
  8 29  1  0  0  0  0
  9 30  1  0  0  0  0
 11 31  1  0  0  0  0
 12 32  1  0  0  0  0
 15 33  1  0  0  0  0
 15 34  1  0  0  0  0
 17 35  1  0  0  0  0
 19 36  1  0  0  0  0
 21 37  1  0  0  0  0
 22 38  1  0  0  0  0
 22 39  1  0  0  0  0
 24 40  1  0  0  0  0
M  END
> <canonical_CID>
TRY-UNI-2eddb1ff-7

> <r_inhibition_at_20_uM>

> <r_inhibition_at_50_uM>
87.191315835

> <r_avg_IC50>
0.940748777754165

> <f_inhibition_at_20_uM>
94.4703

> <f_inhibition_at_50_uM>
97.00562

> <f_avg_IC50>
3.6098563119233

> <f_avg_pIC50>
5.44251008457101

> <relative_solubility_at_20_uM>
0.99

> <relative_solubility_at_100_uM>
1.0

> <trypsin_IC50>
99.0

> <NMR_std_ratio>
304.016753887219

> <acrylamide>
False

> <chloroacetamide>
False

> <series>
3-aminopyridine-like

> <clash_score>
0.0

$$$$
RAL-MED-2de63afb-1
  -OEChem-08112022573D

 37 39  0     1  0  0  0  0  0999 V2000
   12.9770   -0.7640   22.1810 C   0  0  0  0  0  0  0  0  0  0  0  0
    6.6320    0.5940   17.2520 C   0  0  0  0  0  0  0  0  0  0  0  0
    7.2400   -0.0390   18.2610 C   0  0  0  0  0  0  0  0  0  0  0  0
   11.6520   -1.1420   22.1450 C   0  0  0  0  0  0  0  0  0  0  0  0
   13.3680    0.4840   22.6240 C   0  0  0  0  0  0  0  0  0  0  0  0
   11.0490    1.0010   23.0460 C   0  0  0  0  0  0  0  0  0  0  0  0
    5.5330    1.3060   17.5390 C   0  0  0  0  0  0  0  0  0  0  0  0
    5.6260    0.7590   19.8690 C   0  0  0  0  0  0  0  0  0  0  0  0
    6.7930    0.0210   19.5790 C   0  0  0  0  0  0  0  0  0  0  0  0
   10.6720   -0.2500   22.5660 C   0  0  0  0  0  0  0  0  0  0  0  0
   12.3850    1.3610   23.0530 C   0  0  0  0  0  0  0  0  0  0  0  0
   13.1090    5.5190   22.2110 C   0  0  0  0  0  0  0  0  0  0  0  0
    8.6020    0.1230   21.2070 C   0  0  0  0  0  0  0  0  0  0  0  0
   12.0750    4.6580   22.1930 C   0  0  0  0  0  0  0  0  0  0  0  0
   12.9780    3.4700   22.3070 C   0  0  2  0  0  0  0  0  0  0  0  0
    7.5630   -0.5230   20.6330 C   0  0  0  0  0  0  0  0  0  0  0  0
    5.0000    1.4070   18.8080 N   0  0  0  0  0  0  0  0  0  0  0  0
   14.0670    4.4610   22.7270 N   0  0  0  0  0  0  0  0  0  0  0  0
    9.2100   -0.5900   22.3990 N   0  0  0  0  0  0  0  0  0  0  0  0
   13.2020    6.6930   21.8710 O   0  0  0  0  0  0  0  0  0  0  0  0
    9.0150    1.2120   20.8220 O   0  0  0  0  0  0  0  0  0  0  0  0
   12.7170    2.6360   23.4450 O   0  0  0  0  0  0  0  0  0  0  0  0
   13.7488   -1.4798   21.8470 H   0  0  0  0  0  0  0  0  0  0  0  0
    7.0166    0.5349   16.2247 H   0  0  0  0  0  0  0  0  0  0  0  0
    8.1537   -0.6505   18.0518 H   0  0  0  0  0  0  0  0  0  0  0  0
   11.3808   -2.1329   21.7880 H   0  0  0  0  0  0  0  0  0  0  0  0
   14.4082    0.7629   22.6345 H   0  0  0  0  0  0  0  0  0  0  0  0
   10.2957    1.6948   23.4155 H   0  0  0  0  0  0  0  0  0  0  0  0
    4.9773    1.8594   16.7882 H   0  0  0  0  0  0  0  0  0  0  0  0
    5.2033    0.8546   20.8013 H   0  0  0  0  0  0  0  0  0  0  0  0
   11.3001    4.7340   23.0427 H   0  0  0  0  0  0  0  0  0  0  0  0
   11.4072    4.6554   21.2540 H   0  0  0  0  0  0  0  0  0  0  0  0
   13.2487    2.9419   21.4593 H   0  0  0  0  0  0  0  0  0  0  0  0
    6.8150   -0.8676   21.4660 H   0  0  0  0  0  0  0  0  0  0  0  0
    7.9098   -1.5886   20.2921 H   0  0  0  0  0  0  0  0  0  0  0  0
   14.8697    4.5010   23.1075 H   0  0  0  0  0  0  0  0  0  0  0  0
    8.7728   -1.1274   22.9215 H   0  0  0  0  0  0  0  0  0  0  0  0
  1  4  2  0  0  0  0
  1  5  1  0  0  0  0
  2  3  2  0  0  0  0
  2  7  1  0  0  0  0
  3  9  1  0  0  0  0
  4 10  1  0  0  0  0
  5 11  2  0  0  0  0
  6 10  2  0  0  0  0
  6 11  1  0  0  0  0
  7 17  2  0  0  0  0
  8  9  2  0  0  0  0
  8 17  1  0  0  0  0
  9 16  1  0  0  0  0
 10 19  1  0  0  0  0
 11 22  1  0  0  0  0
 12 14  1  0  0  0  0
 12 18  1  0  0  0  0
 12 20  2  0  0  0  0
 13 16  1  0  0  0  0
 13 19  1  0  0  0  0
 13 21  2  0  0  0  0
 14 15  1  0  0  0  0
 15 18  1  0  0  0  0
 15 22  1  1  0  0  0
  1 23  1  0  0  0  0
  2 24  1  0  0  0  0
  3 25  1  0  0  0  0
  4 26  1  0  0  0  0
  5 27  1  0  0  0  0
  6 28  1  0  0  0  0
  7 29  1  0  0  0  0
  8 30  1  0  0  0  0
 14 31  1  0  0  0  0
 14 32  1  0  0  0  0
 15 33  1  0  0  0  0
 16 34  1  0  0  0  0
 16 35  1  0  0  0  0
 18 36  1  0  0  0  0
 19 37  1  0  0  0  0
M  END
> <canonical_CID>
RAL-MED-2de63afb-1

> <r_inhibition_at_20_uM>

> <r_inhibition_at_50_uM>
26.440201745

> <r_avg_IC50>

> <f_inhibition_at_20_uM>
39.5682

> <f_inhibition_at_50_uM>
71.7735

> <f_avg_IC50>
88.3422842953824

> <f_avg_pIC50>
4.05383137523776

> <relative_solubility_at_20_uM>
0.97

> <relative_solubility_at_100_uM>
0.99

> <trypsin_IC50>

> <NMR_std_ratio>

> <acrylamide>
False

> <chloroacetamide>
False

> <series>
3-aminopyridine-like

> <clash_score>
0

> <docking_score>
-8.026605606079102

$$$$
BAR-COM-0f94fc3d-48
  -OEChem-08112022573D

 37 39  0     0  0  0  0  0  0999 V2000
    6.6320    0.5940   17.2520 C   0  0  0  0  0  0  0  0  0  0  0  0
    5.5330    1.3060   17.5390 C   0  0  0  0  0  0  0  0  0  0  0  0
    5.1788   -2.8101   26.8344 C   0  0  0  0  0  0  0  0  0  0  0  0
    5.6260    0.7590   19.8690 C   0  0  0  0  0  0  0  0  0  0  0  0
    3.8891   -2.3256   26.6872 C   0  0  0  0  0  0  0  0  0  0  0  0
    4.2386   -1.8125   24.4753 C   0  0  0  0  0  0  0  0  0  0  0  0
    6.0161   -2.7796   25.7248 C   0  0  0  0  0  0  0  0  0  0  0  0
    6.7930    0.0210   19.5790 C   0  0  0  0  0  0  0  0  0  0  0  0
    5.5447   -2.2728   24.5189 C   0  0  0  0  0  0  0  0  0  0  0  0
    7.2400   -0.0390   18.2610 C   0  0  0  0  0  0  0  0  0  0  0  0
    5.0000    1.4070   18.8080 C   0  0  0  0  0  0  0  0  0  0  0  0
    8.6020    0.1230   21.2070 C   0  0  0  0  0  0  0  0  0  0  0  0
    6.0109   -1.7413   22.1013 C   0  0  0  0  0  0  0  0  0  0  0  0
    9.2100   -0.5900   22.3990 C   0  0  0  0  0  0  0  0  0  0  0  0
    7.4118   -3.2950   25.8554 C   0  0  0  0  0  0  0  0  0  0  0  0
    7.1806   -1.8691   21.1446 C   0  0  0  0  0  0  0  0  0  0  0  0
    3.3956   -1.8258   25.5321 N   0  0  0  0  0  0  0  0  0  0  0  0
    7.5630   -0.5230   20.6330 N   0  0  0  0  0  0  0  0  0  0  0  0
    6.3578   -2.2208   23.3617 N   0  0  0  0  0  0  0  0  0  0  0  0
    9.0150    1.2120   20.8220 O   0  0  0  0  0  0  0  0  0  0  0  0
    4.9346   -1.2629   21.7579 O   0  0  0  0  0  0  0  0  0  0  0  0
   10.6720   -0.2500   22.5660 O   0  0  0  0  0  0  0  0  0  0  0  0
    3.5771    2.3347   19.0804 Cl  0  0  0  0  0  0  0  0  0  0  0  0
    7.0051    0.5387   16.2300 H   0  0  0  0  0  0  0  0  0  0  0  0
    5.0195    1.8547   16.7040 H   0  0  0  0  0  0  0  0  0  0  0  0
    5.5158   -3.1987   27.7894 H   0  0  0  0  0  0  0  0  0  0  0  0
    5.0980    0.9060   21.2740 H   0  0  0  0  0  0  0  0  0  0  0  0
    3.1966   -2.3270   27.5226 H   0  0  0  0  0  0  0  0  0  0  0  0
    3.8129   -1.4058   23.5627 H   0  0  0  0  0  0  0  0  0  0  0  0
    8.7403   -0.2551   23.2965 H   0  0  0  0  0  0  0  0  0  0  0  0
    9.1350   -1.6464   22.2825 H   0  0  0  0  0  0  0  0  0  0  0  0
    7.4451   -4.3651   25.6201 H   0  0  0  0  0  0  0  0  0  0  0  0
    8.0943   -2.7667   25.1784 H   0  0  0  0  0  0  0  0  0  0  0  0
    7.7947   -3.1485   26.8730 H   0  0  0  0  0  0  0  0  0  0  0  0
    6.9009   -2.5092   20.3020 H   0  0  0  0  0  0  0  0  0  0  0  0
    8.0232   -2.3273   21.6719 H   0  0  0  0  0  0  0  0  0  0  0  0
    7.3035   -2.5785   23.4788 H   0  0  0  0  0  0  0  0  0  0  0  0
  1  2  2  0  0  0  0
  1 10  1  0  0  0  0
  2 11  1  0  0  0  0
  3  5  2  0  0  0  0
  3  7  1  0  0  0  0
  4  8  1  0  0  0  0
  4 11  2  0  0  0  0
  5 17  1  0  0  0  0
  6  9  1  0  0  0  0
  6 17  2  0  0  0  0
  7  9  2  0  0  0  0
  7 15  1  0  0  0  0
  8 10  2  0  0  0  0
  8 18  1  0  0  0  0
  9 19  1  0  0  0  0
 10 22  1  0  0  0  0
 11 23  1  0  0  0  0
 12 14  1  0  0  0  0
 12 18  1  0  0  0  0
 12 20  2  0  0  0  0
 13 16  1  0  0  0  0
 13 19  1  0  0  0  0
 13 21  2  0  0  0  0
 14 22  1  0  0  0  0
 16 18  1  0  0  0  0
  1 24  1  0  0  0  0
  2 25  1  0  0  0  0
  3 26  1  0  0  0  0
  4 27  1  0  0  0  0
  5 28  1  0  0  0  0
  6 29  1  0  0  0  0
 14 30  1  0  0  0  0
 14 31  1  0  0  0  0
 15 32  1  0  0  0  0
 15 33  1  0  0  0  0
 15 34  1  0  0  0  0
 16 35  1  0  0  0  0
 16 36  1  0  0  0  0
 19 37  1  0  0  0  0
M  END
> <canonical_CID>
BAR-COM-0f94fc3d-48

> <r_inhibition_at_20_uM>

> <r_inhibition_at_50_uM>
67.195

> <r_avg_IC50>
38.9272880340427

> <f_inhibition_at_20_uM>
32.761255

> <f_inhibition_at_50_uM>
49.274905

> <f_avg_IC50>
59.9331319543654

> <f_avg_pIC50>
4.22233302657587

> <relative_solubility_at_20_uM>
0.99

> <relative_solubility_at_100_uM>
0.99

> <trypsin_IC50>
99.0

> <NMR_std_ratio>
247.0860854

> <acrylamide>
False

> <chloroacetamide>
False

> <series>
3-aminopyridine-like

> <clash_score>
0

> <docking_score>
0.07339364290237427

$$$$
RAL-MED-2de63afb-1
  -OEChem-08112022583D

 37 39  0     1  0  0  0  0  0999 V2000
   12.9770   -0.7640   22.1810 C   0  0  0  0  0  0  0  0  0  0  0  0
    6.6320    0.5940   17.2520 C   0  0  0  0  0  0  0  0  0  0  0  0
    7.2400   -0.0390   18.2610 C   0  0  0  0  0  0  0  0  0  0  0  0
   11.6520   -1.1420   22.1450 C   0  0  0  0  0  0  0  0  0  0  0  0
   13.3680    0.4840   22.6240 C   0  0  0  0  0  0  0  0  0  0  0  0
   11.0490    1.0010   23.0460 C   0  0  0  0  0  0  0  0  0  0  0  0
    5.5330    1.3060   17.5390 C   0  0  0  0  0  0  0  0  0  0  0  0
    5.6260    0.7590   19.8690 C   0  0  0  0  0  0  0  0  0  0  0  0
    6.7930    0.0210   19.5790 C   0  0  0  0  0  0  0  0  0  0  0  0
   10.6720   -0.2500   22.5660 C   0  0  0  0  0  0  0  0  0  0  0  0
   12.3850    1.3610   23.0530 C   0  0  0  0  0  0  0  0  0  0  0  0
   13.1090    5.5190   22.2110 C   0  0  0  0  0  0  0  0  0  0  0  0
    8.6020    0.1230   21.2070 C   0  0  0  0  0  0  0  0  0  0  0  0
   12.0750    4.6580   22.1930 C   0  0  0  0  0  0  0  0  0  0  0  0
   12.9780    3.4700   22.3070 C   0  0  1  0  0  0  0  0  0  0  0  0
    7.5630   -0.5230   20.6330 C   0  0  0  0  0  0  0  0  0  0  0  0
    5.0000    1.4070   18.8080 N   0  0  0  0  0  0  0  0  0  0  0  0
   14.0670    4.4610   22.7270 N   0  0  0  0  0  0  0  0  0  0  0  0
    9.2100   -0.5900   22.3990 N   0  0  0  0  0  0  0  0  0  0  0  0
   13.2020    6.6930   21.8710 O   0  0  0  0  0  0  0  0  0  0  0  0
    9.0150    1.2120   20.8220 O   0  0  0  0  0  0  0  0  0  0  0  0
   12.7170    2.6360   23.4450 O   0  0  0  0  0  0  0  0  0  0  0  0
   13.7488   -1.4798   21.8470 H   0  0  0  0  0  0  0  0  0  0  0  0
    7.0166    0.5349   16.2247 H   0  0  0  0  0  0  0  0  0  0  0  0
    8.1537   -0.6505   18.0518 H   0  0  0  0  0  0  0  0  0  0  0  0
   11.3808   -2.1329   21.7880 H   0  0  0  0  0  0  0  0  0  0  0  0
   14.4082    0.7629   22.6345 H   0  0  0  0  0  0  0  0  0  0  0  0
   10.2957    1.6948   23.4155 H   0  0  0  0  0  0  0  0  0  0  0  0
    4.9773    1.8594   16.7882 H   0  0  0  0  0  0  0  0  0  0  0  0
    5.2033    0.8546   20.8013 H   0  0  0  0  0  0  0  0  0  0  0  0
   11.3006    4.7460   23.0417 H   0  0  0  0  0  0  0  0  0  0  0  0
   11.4073    4.6431   21.2540 H   0  0  0  0  0  0  0  0  0  0  0  0
   13.2493    2.9421   21.4596 H   0  0  0  0  0  0  0  0  0  0  0  0
    6.8150   -0.8676   21.4660 H   0  0  0  0  0  0  0  0  0  0  0  0
    7.9098   -1.5886   20.2921 H   0  0  0  0  0  0  0  0  0  0  0  0
   14.8839    4.4991   23.0767 H   0  0  0  0  0  0  0  0  0  0  0  0
    8.7728   -1.1274   22.9215 H   0  0  0  0  0  0  0  0  0  0  0  0
  1  4  2  0  0  0  0
  1  5  1  0  0  0  0
  2  3  2  0  0  0  0
  2  7  1  0  0  0  0
  3  9  1  0  0  0  0
  4 10  1  0  0  0  0
  5 11  2  0  0  0  0
  6 10  2  0  0  0  0
  6 11  1  0  0  0  0
  7 17  2  0  0  0  0
  8  9  2  0  0  0  0
  8 17  1  0  0  0  0
  9 16  1  0  0  0  0
 10 19  1  0  0  0  0
 11 22  1  0  0  0  0
 12 14  1  0  0  0  0
 12 18  1  0  0  0  0
 12 20  2  0  0  0  0
 13 16  1  0  0  0  0
 13 19  1  0  0  0  0
 13 21  2  0  0  0  0
 14 15  1  0  0  0  0
 15 18  1  0  0  0  0
 15 22  1  6  0  0  0
  1 23  1  0  0  0  0
  2 24  1  0  0  0  0
  3 25  1  0  0  0  0
  4 26  1  0  0  0  0
  5 27  1  0  0  0  0
  6 28  1  0  0  0  0
  7 29  1  0  0  0  0
  8 30  1  0  0  0  0
 14 31  1  0  0  0  0
 14 32  1  0  0  0  0
 15 33  1  0  0  0  0
 16 34  1  0  0  0  0
 16 35  1  0  0  0  0
 18 36  1  0  0  0  0
 19 37  1  0  0  0  0
M  END
> <canonical_CID>
RAL-MED-2de63afb-1

> <r_inhibition_at_20_uM>

> <r_inhibition_at_50_uM>
26.440201745

> <r_avg_IC50>

> <f_inhibition_at_20_uM>
39.5682

> <f_inhibition_at_50_uM>
71.7735

> <f_avg_IC50>
88.3422842953824

> <f_avg_pIC50>
4.05383137523776

> <relative_solubility_at_20_uM>
0.97

> <relative_solubility_at_100_uM>
0.99

> <trypsin_IC50>

> <NMR_std_ratio>

> <acrylamide>
False

> <chloroacetamide>
False

> <series>
3-aminopyridine-like

> <clash_score>
0

> <docking_score>
-8.026605606079102

$$$$
RAL-MED-2de63afb-2
  -OEChem-08112022583D

 39 41  0     1  0  0  0  0  0999 V2000
   11.6520   -1.1420   22.1450 C   0  0  0  0  0  0  0  0  0  0  0  0
   13.3680    0.4840   22.6240 C   0  0  0  0  0  0  0  0  0  0  0  0
   11.0490    1.0010   23.0460 C   0  0  0  0  0  0  0  0  0  0  0  0
    7.2400   -0.0390   18.2610 C   0  0  0  0  0  0  0  0  0  0  0  0
    5.6260    0.7590   19.8690 C   0  0  0  0  0  0  0  0  0  0  0  0
    5.5330    1.3060   17.5390 C   0  0  0  0  0  0  0  0  0  0  0  0
   12.9770   -0.7640   22.1810 C   0  0  0  0  0  0  0  0  0  0  0  0
    6.7930    0.0210   19.5790 C   0  0  0  0  0  0  0  0  0  0  0  0
   10.6720   -0.2500   22.5660 C   0  0  0  0  0  0  0  0  0  0  0  0
   12.3850    1.3610   23.0530 C   0  0  0  0  0  0  0  0  0  0  0  0
   13.1090    5.5190   22.2110 C   0  0  0  0  0  0  0  0  0  0  0  0
    8.6020    0.1230   21.2070 C   0  0  0  0  0  0  0  0  0  0  0  0
   12.0750    4.6580   22.1930 C   0  0  0  0  0  0  0  0  0  0  0  0
   12.9780    3.4700   22.3070 C   0  0  2  0  0  0  0  0  0  0  0  0
   14.1940   -1.9100   21.6990 C   0  0  0  0  0  0  0  0  0  0  0  0
    7.5630   -0.5230   20.6330 C   0  0  0  0  0  0  0  0  0  0  0  0
    6.6320    0.5940   17.2520 N   0  0  0  0  0  0  0  0  0  0  0  0
    5.0000    1.4070   18.8080 N   0  0  0  0  0  0  0  0  0  0  0  0
   14.0670    4.4610   22.7270 N   0  0  0  0  0  0  0  0  0  0  0  0
    9.2100   -0.5900   22.3990 N   0  0  0  0  0  0  0  0  0  0  0  0
   13.2020    6.6930   21.8710 O   0  0  0  0  0  0  0  0  0  0  0  0
    9.0150    1.2120   20.8220 O   0  0  0  0  0  0  0  0  0  0  0  0
   12.7170    2.6360   23.4450 O   0  0  0  0  0  0  0  0  0  0  0  0
   11.3714   -2.1314   21.7889 H   0  0  0  0  0  0  0  0  0  0  0  0
   14.4065    0.7725   22.6376 H   0  0  0  0  0  0  0  0  0  0  0  0
   10.2957    1.6948   23.4149 H   0  0  0  0  0  0  0  0  0  0  0  0
    8.1166   -0.6137   17.9960 H   0  0  0  0  0  0  0  0  0  0  0  0
    5.2047    0.8541   20.8027 H   0  0  0  0  0  0  0  0  0  0  0  0
    5.0378    1.8238   16.7644 H   0  0  0  0  0  0  0  0  0  0  0  0
   11.3001    4.7340   23.0427 H   0  0  0  0  0  0  0  0  0  0  0  0
   11.4072    4.6554   21.2540 H   0  0  0  0  0  0  0  0  0  0  0  0
   13.2487    2.9419   21.4593 H   0  0  0  0  0  0  0  0  0  0  0  0
   13.9969   -2.8896   22.1515 H   0  0  0  0  0  0  0  0  0  0  0  0
   14.2192   -2.0295   20.6080 H   0  0  0  0  0  0  0  0  0  0  0  0
   15.1954   -1.5804   22.0054 H   0  0  0  0  0  0  0  0  0  0  0  0
    6.8150   -0.8676   21.4660 H   0  0  0  0  0  0  0  0  0  0  0  0
    7.9098   -1.5886   20.2921 H   0  0  0  0  0  0  0  0  0  0  0  0
   14.8697    4.5010   23.1075 H   0  0  0  0  0  0  0  0  0  0  0  0
    8.7728   -1.1274   22.9215 H   0  0  0  0  0  0  0  0  0  0  0  0
  1  7  1  0  0  0  0
  1  9  2  0  0  0  0
  2  7  2  0  0  0  0
  2 10  1  0  0  0  0
  3  9  1  0  0  0  0
  3 10  2  0  0  0  0
  4  8  1  0  0  0  0
  4 17  2  0  0  0  0
  5  8  2  0  0  0  0
  5 18  1  0  0  0  0
  6 17  1  0  0  0  0
  6 18  2  0  0  0  0
  7 15  1  0  0  0  0
  8 16  1  0  0  0  0
  9 20  1  0  0  0  0
 10 23  1  0  0  0  0
 11 13  1  0  0  0  0
 11 19  1  0  0  0  0
 11 21  2  0  0  0  0
 12 16  1  0  0  0  0
 12 20  1  0  0  0  0
 12 22  2  0  0  0  0
 13 14  1  0  0  0  0
 14 19  1  0  0  0  0
 14 23  1  1  0  0  0
  1 24  1  0  0  0  0
  2 25  1  0  0  0  0
  3 26  1  0  0  0  0
  4 27  1  0  0  0  0
  5 28  1  0  0  0  0
  6 29  1  0  0  0  0
 13 30  1  0  0  0  0
 13 31  1  0  0  0  0
 14 32  1  0  0  0  0
 15 33  1  0  0  0  0
 15 34  1  0  0  0  0
 15 35  1  0  0  0  0
 16 36  1  0  0  0  0
 16 37  1  0  0  0  0
 19 38  1  0  0  0  0
 20 39  1  0  0  0  0
M  END
> <canonical_CID>
RAL-MED-2de63afb-2

> <r_inhibition_at_20_uM>

> <r_inhibition_at_50_uM>
44.951235785

> <r_avg_IC50>

> <f_inhibition_at_20_uM>
49.30711

> <f_inhibition_at_50_uM>
72.72272

> <f_avg_IC50>
34.3199073353597

> <f_avg_pIC50>
4.46445389342812

> <relative_solubility_at_20_uM>
1.01

> <relative_solubility_at_100_uM>
1.0

> <trypsin_IC50>

> <NMR_std_ratio>
443.664197363056

> <acrylamide>
False

> <chloroacetamide>
False

> <series>
3-aminopyridine-like

> <clash_score>
0

> <docking_score>
-11.232288360595703

$$$$
RAL-MED-2de63afb-2
  -OEChem-08112022583D

 39 41  0     1  0  0  0  0  0999 V2000
   11.6520   -1.1420   22.1450 C   0  0  0  0  0  0  0  0  0  0  0  0
   13.3680    0.4840   22.6240 C   0  0  0  0  0  0  0  0  0  0  0  0
   11.0490    1.0010   23.0460 C   0  0  0  0  0  0  0  0  0  0  0  0
    7.2400   -0.0390   18.2610 C   0  0  0  0  0  0  0  0  0  0  0  0
    5.6260    0.7590   19.8690 C   0  0  0  0  0  0  0  0  0  0  0  0
    5.5330    1.3060   17.5390 C   0  0  0  0  0  0  0  0  0  0  0  0
   12.9770   -0.7640   22.1810 C   0  0  0  0  0  0  0  0  0  0  0  0
    6.7930    0.0210   19.5790 C   0  0  0  0  0  0  0  0  0  0  0  0
   10.6720   -0.2500   22.5660 C   0  0  0  0  0  0  0  0  0  0  0  0
   12.3850    1.3610   23.0530 C   0  0  0  0  0  0  0  0  0  0  0  0
   13.1090    5.5190   22.2110 C   0  0  0  0  0  0  0  0  0  0  0  0
    8.6020    0.1230   21.2070 C   0  0  0  0  0  0  0  0  0  0  0  0
   12.0750    4.6580   22.1930 C   0  0  0  0  0  0  0  0  0  0  0  0
   12.9780    3.4700   22.3070 C   0  0  1  0  0  0  0  0  0  0  0  0
   14.1940   -1.9100   21.6990 C   0  0  0  0  0  0  0  0  0  0  0  0
    7.5630   -0.5230   20.6330 C   0  0  0  0  0  0  0  0  0  0  0  0
    6.6320    0.5940   17.2520 N   0  0  0  0  0  0  0  0  0  0  0  0
    5.0000    1.4070   18.8080 N   0  0  0  0  0  0  0  0  0  0  0  0
   14.0670    4.4610   22.7270 N   0  0  0  0  0  0  0  0  0  0  0  0
    9.2100   -0.5900   22.3990 N   0  0  0  0  0  0  0  0  0  0  0  0
   13.2020    6.6930   21.8710 O   0  0  0  0  0  0  0  0  0  0  0  0
    9.0150    1.2120   20.8220 O   0  0  0  0  0  0  0  0  0  0  0  0
   12.7170    2.6360   23.4450 O   0  0  0  0  0  0  0  0  0  0  0  0
   11.3714   -2.1314   21.7889 H   0  0  0  0  0  0  0  0  0  0  0  0
   14.4065    0.7725   22.6376 H   0  0  0  0  0  0  0  0  0  0  0  0
   10.2957    1.6948   23.4149 H   0  0  0  0  0  0  0  0  0  0  0  0
    8.1166   -0.6137   17.9960 H   0  0  0  0  0  0  0  0  0  0  0  0
    5.2047    0.8541   20.8027 H   0  0  0  0  0  0  0  0  0  0  0  0
    5.0378    1.8238   16.7644 H   0  0  0  0  0  0  0  0  0  0  0  0
   11.3006    4.7460   23.0417 H   0  0  0  0  0  0  0  0  0  0  0  0
   11.4073    4.6431   21.2540 H   0  0  0  0  0  0  0  0  0  0  0  0
   13.2493    2.9421   21.4596 H   0  0  0  0  0  0  0  0  0  0  0  0
   13.9969   -2.8896   22.1515 H   0  0  0  0  0  0  0  0  0  0  0  0
   14.2192   -2.0295   20.6080 H   0  0  0  0  0  0  0  0  0  0  0  0
   15.1954   -1.5804   22.0054 H   0  0  0  0  0  0  0  0  0  0  0  0
    6.8150   -0.8676   21.4660 H   0  0  0  0  0  0  0  0  0  0  0  0
    7.9098   -1.5886   20.2921 H   0  0  0  0  0  0  0  0  0  0  0  0
   14.8839    4.4991   23.0767 H   0  0  0  0  0  0  0  0  0  0  0  0
    8.7728   -1.1274   22.9215 H   0  0  0  0  0  0  0  0  0  0  0  0
  1  7  1  0  0  0  0
  1  9  2  0  0  0  0
  2  7  2  0  0  0  0
  2 10  1  0  0  0  0
  3  9  1  0  0  0  0
  3 10  2  0  0  0  0
  4  8  1  0  0  0  0
  4 17  2  0  0  0  0
  5  8  2  0  0  0  0
  5 18  1  0  0  0  0
  6 17  1  0  0  0  0
  6 18  2  0  0  0  0
  7 15  1  0  0  0  0
  8 16  1  0  0  0  0
  9 20  1  0  0  0  0
 10 23  1  0  0  0  0
 11 13  1  0  0  0  0
 11 19  1  0  0  0  0
 11 21  2  0  0  0  0
 12 16  1  0  0  0  0
 12 20  1  0  0  0  0
 12 22  2  0  0  0  0
 13 14  1  0  0  0  0
 14 19  1  0  0  0  0
 14 23  1  6  0  0  0
  1 24  1  0  0  0  0
  2 25  1  0  0  0  0
  3 26  1  0  0  0  0
  4 27  1  0  0  0  0
  5 28  1  0  0  0  0
  6 29  1  0  0  0  0
 13 30  1  0  0  0  0
 13 31  1  0  0  0  0
 14 32  1  0  0  0  0
 15 33  1  0  0  0  0
 15 34  1  0  0  0  0
 15 35  1  0  0  0  0
 16 36  1  0  0  0  0
 16 37  1  0  0  0  0
 19 38  1  0  0  0  0
 20 39  1  0  0  0  0
M  END
> <canonical_CID>
RAL-MED-2de63afb-2

> <r_inhibition_at_20_uM>

> <r_inhibition_at_50_uM>
44.951235785

> <r_avg_IC50>

> <f_inhibition_at_20_uM>
49.30711

> <f_inhibition_at_50_uM>
72.72272

> <f_avg_IC50>
34.3199073353597

> <f_avg_pIC50>
4.46445389342812

> <relative_solubility_at_20_uM>
1.01

> <relative_solubility_at_100_uM>
1.0

> <trypsin_IC50>

> <NMR_std_ratio>
443.664197363056

> <acrylamide>
False

> <chloroacetamide>
False

> <series>
3-aminopyridine-like

> <clash_score>
0

> <docking_score>
-11.232288360595703

$$$$
RAL-MED-2de63afb-14
  -OEChem-08112022583D

 36 38  0     1  0  0  0  0  0999 V2000
   11.0490    1.0010   23.0460 C   0  0  0  0  0  0  0  0  0  0  0  0
   11.6520   -1.1420   22.1450 C   0  0  0  0  0  0  0  0  0  0  0  0
   13.3680    0.4840   22.6240 C   0  0  0  0  0  0  0  0  0  0  0  0
    7.2400   -0.0390   18.2610 C   0  0  0  0  0  0  0  0  0  0  0  0
    5.6260    0.7590   19.8690 C   0  0  0  0  0  0  0  0  0  0  0  0
    5.5330    1.3060   17.5390 C   0  0  0  0  0  0  0  0  0  0  0  0
    6.7930    0.0210   19.5790 C   0  0  0  0  0  0  0  0  0  0  0  0
   10.6720   -0.2500   22.5660 C   0  0  0  0  0  0  0  0  0  0  0  0
   12.3850    1.3610   23.0530 C   0  0  0  0  0  0  0  0  0  0  0  0
   12.9770   -0.7640   22.1810 C   0  0  0  0  0  0  0  0  0  0  0  0
   13.1090    5.5190   22.2110 C   0  0  0  0  0  0  0  0  0  0  0  0
    8.6020    0.1230   21.2070 C   0  0  0  0  0  0  0  0  0  0  0  0
   12.0750    4.6580   22.1930 C   0  0  0  0  0  0  0  0  0  0  0  0
   12.9780    3.4700   22.3070 C   0  0  1  0  0  0  0  0  0  0  0  0
    7.5630   -0.5230   20.6330 C   0  0  0  0  0  0  0  0  0  0  0  0
    6.6320    0.5940   17.2520 N   0  0  0  0  0  0  0  0  0  0  0  0
    5.0000    1.4070   18.8080 N   0  0  0  0  0  0  0  0  0  0  0  0
   14.0670    4.4610   22.7270 N   0  0  0  0  0  0  0  0  0  0  0  0
    9.2100   -0.5900   22.3990 N   0  0  0  0  0  0  0  0  0  0  0  0
   13.2020    6.6930   21.8710 O   0  0  0  0  0  0  0  0  0  0  0  0
    9.0150    1.2120   20.8220 O   0  0  0  0  0  0  0  0  0  0  0  0
   12.7170    2.6360   23.4450 O   0  0  0  0  0  0  0  0  0  0  0  0
   14.1940   -1.9100   21.6990 F   0  0  0  0  0  0  0  0  0  0  0  0
   10.2953    1.6949   23.4142 H   0  0  0  0  0  0  0  0  0  0  0  0
   11.3818   -2.1330   21.7878 H   0  0  0  0  0  0  0  0  0  0  0  0
   14.4082    0.7633   22.6340 H   0  0  0  0  0  0  0  0  0  0  0  0
    8.1166   -0.6137   17.9960 H   0  0  0  0  0  0  0  0  0  0  0  0
    5.2047    0.8541   20.8027 H   0  0  0  0  0  0  0  0  0  0  0  0
    5.0378    1.8238   16.7644 H   0  0  0  0  0  0  0  0  0  0  0  0
   11.3006    4.7460   23.0417 H   0  0  0  0  0  0  0  0  0  0  0  0
   11.4073    4.6431   21.2540 H   0  0  0  0  0  0  0  0  0  0  0  0
   13.2493    2.9421   21.4596 H   0  0  0  0  0  0  0  0  0  0  0  0
    6.8150   -0.8676   21.4660 H   0  0  0  0  0  0  0  0  0  0  0  0
    7.9098   -1.5886   20.2921 H   0  0  0  0  0  0  0  0  0  0  0  0
   14.8839    4.4991   23.0767 H   0  0  0  0  0  0  0  0  0  0  0  0
    8.7729   -1.1274   22.9216 H   0  0  0  0  0  0  0  0  0  0  0  0
  1  8  2  0  0  0  0
  1  9  1  0  0  0  0
  2  8  1  0  0  0  0
  2 10  2  0  0  0  0
  3  9  2  0  0  0  0
  3 10  1  0  0  0  0
  4  7  1  0  0  0  0
  4 16  2  0  0  0  0
  5  7  2  0  0  0  0
  5 17  1  0  0  0  0
  6 16  1  0  0  0  0
  6 17  2  0  0  0  0
  7 15  1  0  0  0  0
  8 19  1  0  0  0  0
  9 22  1  0  0  0  0
 10 23  1  0  0  0  0
 11 13  1  0  0  0  0
 11 18  1  0  0  0  0
 11 20  2  0  0  0  0
 12 15  1  0  0  0  0
 12 19  1  0  0  0  0
 12 21  2  0  0  0  0
 13 14  1  0  0  0  0
 14 18  1  0  0  0  0
 14 22  1  6  0  0  0
  1 24  1  0  0  0  0
  2 25  1  0  0  0  0
  3 26  1  0  0  0  0
  4 27  1  0  0  0  0
  5 28  1  0  0  0  0
  6 29  1  0  0  0  0
 13 30  1  0  0  0  0
 13 31  1  0  0  0  0
 14 32  1  0  0  0  0
 15 33  1  0  0  0  0
 15 34  1  0  0  0  0
 18 35  1  0  0  0  0
 19 36  1  0  0  0  0
M  END
> <canonical_CID>
RAL-MED-2de63afb-14

> <r_inhibition_at_20_uM>

> <r_inhibition_at_50_uM>
45.74945463

> <r_avg_IC50>

> <f_inhibition_at_20_uM>
52.84184

> <f_inhibition_at_50_uM>
87.837815

> <f_avg_IC50>
24.9466748468068

> <f_avg_pIC50>
4.60298733348432

> <relative_solubility_at_20_uM>
0.99

> <relative_solubility_at_100_uM>
0.99

> <trypsin_IC50>

> <NMR_std_ratio>
278.961147950946

> <acrylamide>
False

> <chloroacetamide>
False

> <series>
3-aminopyridine-like

> <clash_score>
0

> <docking_score>
-11.739461898803711

$$$$
RAL-MED-2de63afb-14
  -OEChem-08112022583D

 36 38  0     1  0  0  0  0  0999 V2000
   11.0490    1.0010   23.0460 C   0  0  0  0  0  0  0  0  0  0  0  0
   11.6520   -1.1420   22.1450 C   0  0  0  0  0  0  0  0  0  0  0  0
   13.3680    0.4840   22.6240 C   0  0  0  0  0  0  0  0  0  0  0  0
    7.2400   -0.0390   18.2610 C   0  0  0  0  0  0  0  0  0  0  0  0
    5.6260    0.7590   19.8690 C   0  0  0  0  0  0  0  0  0  0  0  0
    5.5330    1.3060   17.5390 C   0  0  0  0  0  0  0  0  0  0  0  0
    6.7930    0.0210   19.5790 C   0  0  0  0  0  0  0  0  0  0  0  0
   10.6720   -0.2500   22.5660 C   0  0  0  0  0  0  0  0  0  0  0  0
   12.3850    1.3610   23.0530 C   0  0  0  0  0  0  0  0  0  0  0  0
   12.9770   -0.7640   22.1810 C   0  0  0  0  0  0  0  0  0  0  0  0
   13.1090    5.5190   22.2110 C   0  0  0  0  0  0  0  0  0  0  0  0
    8.6020    0.1230   21.2070 C   0  0  0  0  0  0  0  0  0  0  0  0
   12.0750    4.6580   22.1930 C   0  0  0  0  0  0  0  0  0  0  0  0
   12.9780    3.4700   22.3070 C   0  0  2  0  0  0  0  0  0  0  0  0
    7.5630   -0.5230   20.6330 C   0  0  0  0  0  0  0  0  0  0  0  0
    6.6320    0.5940   17.2520 N   0  0  0  0  0  0  0  0  0  0  0  0
    5.0000    1.4070   18.8080 N   0  0  0  0  0  0  0  0  0  0  0  0
   14.0670    4.4610   22.7270 N   0  0  0  0  0  0  0  0  0  0  0  0
    9.2100   -0.5900   22.3990 N   0  0  0  0  0  0  0  0  0  0  0  0
   13.2020    6.6930   21.8710 O   0  0  0  0  0  0  0  0  0  0  0  0
    9.0150    1.2120   20.8220 O   0  0  0  0  0  0  0  0  0  0  0  0
   12.7170    2.6360   23.4450 O   0  0  0  0  0  0  0  0  0  0  0  0
   14.1940   -1.9100   21.6990 F   0  0  0  0  0  0  0  0  0  0  0  0
   10.2953    1.6949   23.4142 H   0  0  0  0  0  0  0  0  0  0  0  0
   11.3818   -2.1330   21.7878 H   0  0  0  0  0  0  0  0  0  0  0  0
   14.4082    0.7633   22.6340 H   0  0  0  0  0  0  0  0  0  0  0  0
    8.1166   -0.6137   17.9960 H   0  0  0  0  0  0  0  0  0  0  0  0
    5.2047    0.8541   20.8027 H   0  0  0  0  0  0  0  0  0  0  0  0
    5.0378    1.8238   16.7644 H   0  0  0  0  0  0  0  0  0  0  0  0
   11.3001    4.7340   23.0427 H   0  0  0  0  0  0  0  0  0  0  0  0
   11.4072    4.6554   21.2540 H   0  0  0  0  0  0  0  0  0  0  0  0
   13.2487    2.9419   21.4593 H   0  0  0  0  0  0  0  0  0  0  0  0
    6.8150   -0.8676   21.4660 H   0  0  0  0  0  0  0  0  0  0  0  0
    7.9098   -1.5886   20.2921 H   0  0  0  0  0  0  0  0  0  0  0  0
   14.8697    4.5010   23.1075 H   0  0  0  0  0  0  0  0  0  0  0  0
    8.7729   -1.1274   22.9216 H   0  0  0  0  0  0  0  0  0  0  0  0
  1  8  2  0  0  0  0
  1  9  1  0  0  0  0
  2  8  1  0  0  0  0
  2 10  2  0  0  0  0
  3  9  2  0  0  0  0
  3 10  1  0  0  0  0
  4  7  1  0  0  0  0
  4 16  2  0  0  0  0
  5  7  2  0  0  0  0
  5 17  1  0  0  0  0
  6 16  1  0  0  0  0
  6 17  2  0  0  0  0
  7 15  1  0  0  0  0
  8 19  1  0  0  0  0
  9 22  1  0  0  0  0
 10 23  1  0  0  0  0
 11 13  1  0  0  0  0
 11 18  1  0  0  0  0
 11 20  2  0  0  0  0
 12 15  1  0  0  0  0
 12 19  1  0  0  0  0
 12 21  2  0  0  0  0
 13 14  1  0  0  0  0
 14 18  1  0  0  0  0
 14 22  1  1  0  0  0
  1 24  1  0  0  0  0
  2 25  1  0  0  0  0
  3 26  1  0  0  0  0
  4 27  1  0  0  0  0
  5 28  1  0  0  0  0
  6 29  1  0  0  0  0
 13 30  1  0  0  0  0
 13 31  1  0  0  0  0
 14 32  1  0  0  0  0
 15 33  1  0  0  0  0
 15 34  1  0  0  0  0
 18 35  1  0  0  0  0
 19 36  1  0  0  0  0
M  END
> <canonical_CID>
RAL-MED-2de63afb-14

> <r_inhibition_at_20_uM>

> <r_inhibition_at_50_uM>
45.74945463

> <r_avg_IC50>

> <f_inhibition_at_20_uM>
52.84184

> <f_inhibition_at_50_uM>
87.837815

> <f_avg_IC50>
24.9466748468068

> <f_avg_pIC50>
4.60298733348432

> <relative_solubility_at_20_uM>
0.99

> <relative_solubility_at_100_uM>
0.99

> <trypsin_IC50>

> <NMR_std_ratio>
278.961147950946

> <acrylamide>
False

> <chloroacetamide>
False

> <series>
3-aminopyridine-like

> <clash_score>
0

> <docking_score>
-11.739461898803711

$$$$
EDG-MED-0da5ad92-2
  -OEChem-08112022583D

 28 29  0     0  0  0  0  0  0999 V2000
    6.6320    0.5940   17.2520 C   0  0  0  0  0  0  0  0  0  0  0  0
   12.9770   -0.7640   22.1810 C   0  0  0  0  0  0  0  0  0  0  0  0
    7.2400   -0.0390   18.2610 C   0  0  0  0  0  0  0  0  0  0  0  0
   11.6520   -1.1420   22.1450 C   0  0  0  0  0  0  0  0  0  0  0  0
    5.5330    1.3060   17.5390 C   0  0  0  0  0  0  0  0  0  0  0  0
    5.6260    0.7590   19.8690 C   0  0  0  0  0  0  0  0  0  0  0  0
   13.3680    0.4840   22.6240 C   0  0  0  0  0  0  0  0  0  0  0  0
   11.0490    1.0010   23.0460 C   0  0  0  0  0  0  0  0  0  0  0  0
    6.7930    0.0210   19.5790 C   0  0  0  0  0  0  0  0  0  0  0  0
   10.6720   -0.2500   22.5660 C   0  0  0  0  0  0  0  0  0  0  0  0
    5.0000    1.4070   18.8080 C   0  0  0  0  0  0  0  0  0  0  0  0
    8.6020    0.1230   21.2070 C   0  0  0  0  0  0  0  0  0  0  0  0
    7.5630   -0.5230   20.6330 C   0  0  0  0  0  0  0  0  0  0  0  0
   12.3850    1.3610   23.0530 N   0  0  0  0  0  0  0  0  0  0  0  0
    9.2100   -0.5900   22.3990 N   0  0  0  0  0  0  0  0  0  0  0  0
    9.0150    1.2120   20.8220 O   0  0  0  0  0  0  0  0  0  0  0  0
    3.5709    2.3254   19.0825 Cl  0  0  0  0  0  0  0  0  0  0  0  0
    7.0145    0.5340   16.2348 H   0  0  0  0  0  0  0  0  0  0  0  0
   14.1940   -1.9100   21.6990 H   0  0  0  0  0  0  0  0  0  0  0  0
    8.1534   -0.6507   18.0518 H   0  0  0  0  0  0  0  0  0  0  0  0
   11.3801   -2.1331   21.7886 H   0  0  0  0  0  0  0  0  0  0  0  0
    5.0158    1.8504   16.7039 H   0  0  0  0  0  0  0  0  0  0  0  0
    5.2503    0.8099   20.8660 H   0  0  0  0  0  0  0  0  0  0  0  0
   14.3509    0.8203   22.6604 H   0  0  0  0  0  0  0  0  0  0  0  0
   10.3766    1.7185   23.4162 H   0  0  0  0  0  0  0  0  0  0  0  0
    6.8188   -0.8698   21.4708 H   0  0  0  0  0  0  0  0  0  0  0  0
    7.9136   -1.5908   20.2970 H   0  0  0  0  0  0  0  0  0  0  0  0
    8.7631   -1.1236   22.9125 H   0  0  0  0  0  0  0  0  0  0  0  0
  1  3  2  0  0  0  0
  1  5  1  0  0  0  0
  2  4  2  0  0  0  0
  2  7  1  0  0  0  0
  3  9  1  0  0  0  0
  4 10  1  0  0  0  0
  5 11  2  0  0  0  0
  6  9  2  0  0  0  0
  6 11  1  0  0  0  0
  7 14  2  0  0  0  0
  8 10  2  0  0  0  0
  8 14  1  0  0  0  0
  9 13  1  0  0  0  0
 10 15  1  0  0  0  0
 11 17  1  0  0  0  0
 12 13  1  0  0  0  0
 12 15  1  0  0  0  0
 12 16  2  0  0  0  0
  1 18  1  0  0  0  0
  2 19  1  0  0  0  0
  3 20  1  0  0  0  0
  4 21  1  0  0  0  0
  5 22  1  0  0  0  0
  6 23  1  0  0  0  0
  7 24  1  0  0  0  0
  8 25  1  0  0  0  0
 13 26  1  0  0  0  0
 13 27  1  0  0  0  0
 15 28  1  0  0  0  0
M  END
> <canonical_CID>
EDG-MED-0da5ad92-2

> <r_inhibition_at_20_uM>

> <r_inhibition_at_50_uM>
52.3682892479862

> <r_avg_IC50>

> <f_inhibition_at_20_uM>
24.074975

> <f_inhibition_at_50_uM>
40.890465

> <f_avg_IC50>
53.717306778232

> <f_avg_pIC50>
4.26988576965696

> <relative_solubility_at_20_uM>

> <relative_solubility_at_100_uM>

> <trypsin_IC50>
99.0

> <NMR_std_ratio>
309.414811031578

> <acrylamide>
False

> <chloroacetamide>
False

> <series>
3-aminopyridine-like

> <clash_score>
0

> <docking_score>
-6.598698139190674

$$$$
EDJ-MED-49816e9b-1
  -OEChem-08112022583D

 31 32  0     0  0  0  0  0  0999 V2000
   12.3850    1.3610   23.0530 C   0  0  0  0  0  0  0  0  0  0  0  0
   11.0490    1.0010   23.0460 C   0  0  0  0  0  0  0  0  0  0  0  0
   13.3680    0.4840   22.6240 C   0  0  0  0  0  0  0  0  0  0  0  0
    5.0000    1.4070   18.8080 C   0  0  0  0  0  0  0  0  0  0  0  0
   11.6520   -1.1420   22.1450 C   0  0  0  0  0  0  0  0  0  0  0  0
    5.5330    1.3060   17.5390 C   0  0  0  0  0  0  0  0  0  0  0  0
    7.2400   -0.0390   18.2610 C   0  0  0  0  0  0  0  0  0  0  0  0
    5.6260    0.7590   19.8690 C   0  0  0  0  0  0  0  0  0  0  0  0
    6.7930    0.0210   19.5790 C   0  0  0  0  0  0  0  0  0  0  0  0
   10.6720   -0.2500   22.5660 C   0  0  0  0  0  0  0  0  0  0  0  0
   12.9770   -0.7640   22.1810 C   0  0  0  0  0  0  0  0  0  0  0  0
    8.6020    0.1230   21.2070 C   0  0  0  0  0  0  0  0  0  0  0  0
    5.0980    0.9060   21.2740 C   0  0  0  0  0  0  0  0  0  0  0  0
    7.5630   -0.5230   20.6330 C   0  0  0  0  0  0  0  0  0  0  0  0
    6.6320    0.5940   17.2520 N   0  0  0  0  0  0  0  0  0  0  0  0
    9.2100   -0.5900   22.3990 N   0  0  0  0  0  0  0  0  0  0  0  0
    9.0150    1.2120   20.8220 O   0  0  0  0  0  0  0  0  0  0  0  0
   14.1940   -1.9100   21.6990 Cl  0  0  0  0  0  0  0  0  0  0  0  0
   12.6724    2.3610   23.4052 H   0  0  0  0  0  0  0  0  0  0  0  0
   10.3013    1.6995   23.4166 H   0  0  0  0  0  0  0  0  0  0  0  0
   14.4027    0.7838   22.6422 H   0  0  0  0  0  0  0  0  0  0  0  0
    4.0895    1.9954   18.9739 H   0  0  0  0  0  0  0  0  0  0  0  0
   11.3653   -2.1304   21.7904 H   0  0  0  0  0  0  0  0  0  0  0  0
    5.0711    1.8127   16.6995 H   0  0  0  0  0  0  0  0  0  0  0  0
    8.1158   -0.6121   17.9928 H   0  0  0  0  0  0  0  0  0  0  0  0
    5.2119    1.9411   21.6170 H   0  0  0  0  0  0  0  0  0  0  0  0
    4.0363    0.6347   21.3296 H   0  0  0  0  0  0  0  0  0  0  0  0
    5.6322    0.2468   21.9699 H   0  0  0  0  0  0  0  0  0  0  0  0
    6.8150   -0.8676   21.4660 H   0  0  0  0  0  0  0  0  0  0  0  0
    7.9098   -1.5886   20.2921 H   0  0  0  0  0  0  0  0  0  0  0  0
    8.7729   -1.1274   22.9216 H   0  0  0  0  0  0  0  0  0  0  0  0
  1  2  2  0  0  0  0
  1  3  1  0  0  0  0
  2 10  1  0  0  0  0
  3 11  2  0  0  0  0
  4  6  2  0  0  0  0
  4  8  1  0  0  0  0
  5 10  2  0  0  0  0
  5 11  1  0  0  0  0
  6 15  1  0  0  0  0
  7  9  1  0  0  0  0
  7 15  2  0  0  0  0
  8  9  2  0  0  0  0
  8 13  1  0  0  0  0
  9 14  1  0  0  0  0
 10 16  1  0  0  0  0
 11 18  1  0  0  0  0
 12 14  1  0  0  0  0
 12 16  1  0  0  0  0
 12 17  2  0  0  0  0
  1 19  1  0  0  0  0
  2 20  1  0  0  0  0
  3 21  1  0  0  0  0
  4 22  1  0  0  0  0
  5 23  1  0  0  0  0
  6 24  1  0  0  0  0
  7 25  1  0  0  0  0
 13 26  1  0  0  0  0
 13 27  1  0  0  0  0
 13 28  1  0  0  0  0
 14 29  1  0  0  0  0
 14 30  1  0  0  0  0
 16 31  1  0  0  0  0
M  END
> <canonical_CID>
EDJ-MED-49816e9b-1

> <r_inhibition_at_20_uM>

> <r_inhibition_at_50_uM>
88.6064239800908

> <r_avg_IC50>
26.3621258020849

> <f_inhibition_at_20_uM>
42.193095

> <f_inhibition_at_50_uM>
67.38706

> <f_avg_IC50>
29.8595914518367

> <f_avg_pIC50>
4.52491613872173

> <relative_solubility_at_20_uM>
1.0

> <relative_solubility_at_100_uM>
1.0

> <trypsin_IC50>
99.0

> <NMR_std_ratio>
166.76967023858

> <acrylamide>
False

> <chloroacetamide>
False

> <series>
3-aminopyridine-like

> <clash_score>
0

> <docking_score>
-10.525826454162598

$$$$
JAN-GHE-5a013bed-11
  -OEChem-08112022583D

 23 24  0     0  0  0  0  0  0999 V2000
   12.3850    1.3610   23.0530 C   0  0  0  0  0  0  0  0  0  0  0  0
   11.0490    1.0010   23.0460 C   0  0  0  0  0  0  0  0  0  0  0  0
   13.3680    0.4840   22.6240 C   0  0  0  0  0  0  0  0  0  0  0  0
   11.6520   -1.1420   22.1450 C   0  0  0  0  0  0  0  0  0  0  0  0
   10.6720   -0.2500   22.5660 C   0  0  0  0  0  0  0  0  0  0  0  0
   12.9770   -0.7640   22.1810 C   0  0  0  0  0  0  0  0  0  0  0  0
    6.7930    0.0210   19.5790 C   0  0  0  0  0  0  0  0  0  0  0  0
    8.6020    0.1230   21.2070 C   0  0  0  0  0  0  0  0  0  0  0  0
    9.2100   -0.5900   22.3990 C   0  0  0  0  0  0  0  0  0  0  0  0
    6.6320    0.5940   17.2520 N   0  5  0  0  0  0  0  0  0  0  0  0
    7.2400   -0.0390   18.2610 N   0  0  0  0  0  0  0  0  0  0  0  0
    5.0000    1.4070   18.8080 N   0  0  0  0  0  0  0  0  0  0  0  0
    5.5330    1.3060   17.5390 N   0  0  0  0  0  0  0  0  0  0  0  0
    7.5630   -0.5230   20.6330 N   0  0  0  0  0  0  0  0  0  0  0  0
    9.0150    1.2120   20.8220 O   0  0  0  0  0  0  0  0  0  0  0  0
   14.1940   -1.9100   21.6990 Cl  0  0  0  0  0  0  0  0  0  0  0  0
   12.6720    2.3610   23.4053 H   0  0  0  0  0  0  0  0  0  0  0  0
   10.2994    1.6973   23.4158 H   0  0  0  0  0  0  0  0  0  0  0  0
   14.4033    0.7831   22.6425 H   0  0  0  0  0  0  0  0  0  0  0  0
   11.3638   -2.1297   21.7906 H   0  0  0  0  0  0  0  0  0  0  0  0
    9.0901   -1.6664   22.2639 H   0  0  0  0  0  0  0  0  0  0  0  0
    8.6579   -0.3097   23.2977 H   0  0  0  0  0  0  0  0  0  0  0  0
    7.3129   -1.4300   20.9567 H   0  0  0  0  0  0  0  0  0  0  0  0
  1  2  2  0  0  0  0
  1  3  1  0  0  0  0
  2  5  1  0  0  0  0
  3  6  2  0  0  0  0
  4  5  2  0  0  0  0
  4  6  1  0  0  0  0
  5  9  1  0  0  0  0
  6 16  1  0  0  0  0
  7 11  2  0  0  0  0
  7 12  1  0  0  0  0
  7 14  1  0  0  0  0
  8  9  1  0  0  0  0
  8 14  1  0  0  0  0
  8 15  2  0  0  0  0
 10 11  1  0  0  0  0
 10 13  1  0  0  0  0
 12 13  2  0  0  0  0
  1 17  1  0  0  0  0
  2 18  1  0  0  0  0
  3 19  1  0  0  0  0
  4 20  1  0  0  0  0
  9 21  1  0  0  0  0
  9 22  1  0  0  0  0
 14 23  1  0  0  0  0
M  CHG  1  10  -1
M  END
> <canonical_CID>
JAN-GHE-5a013bed-11

> <r_inhibition_at_20_uM>

> <r_inhibition_at_50_uM>
27.1620157701656

> <r_avg_IC50>

> <f_inhibition_at_20_uM>
23.335045

> <f_inhibition_at_50_uM>
49.133815

> <f_avg_IC50>
45.2867094312226

> <f_avg_pIC50>
4.34402923435745

> <relative_solubility_at_20_uM>
1.0

> <relative_solubility_at_100_uM>
1.0

> <trypsin_IC50>
99.0

> <NMR_std_ratio>
0.0

> <acrylamide>
False

> <chloroacetamide>
False

> <series>
3-aminopyridine-like

> <clash_score>
0

> <docking_score>
-7.563981056213379

$$$$
TRY-UNI-2eddb1ff-7
  -OEChem-08112022583D

 40 42  0     1  0  0  0  0  0999 V2000
    5.0000    1.4070   18.8080 C   0  0  0  0  0  0  0  0  0  0  0  0
   11.0490    1.0010   23.0460 C   0  0  0  0  0  0  0  0  0  0  0  0
   11.6520   -1.1420   22.1450 C   0  0  0  0  0  0  0  0  0  0  0  0
   13.3680    0.4840   22.6240 C   0  0  0  0  0  0  0  0  0  0  0  0
    5.5330    1.3060   17.5390 C   0  0  0  0  0  0  0  0  0  0  0  0
    7.2400   -0.0390   18.2610 C   0  0  0  0  0  0  0  0  0  0  0  0
    5.6260    0.7590   19.8690 C   0  0  0  0  0  0  0  0  0  0  0  0
   10.6720   -0.2500   22.5660 C   0  0  0  0  0  0  0  0  0  0  0  0
    6.7930    0.0210   19.5790 C   0  0  0  0  0  0  0  0  0  0  0  0
   12.3850    1.3610   23.0530 C   0  0  0  0  0  0  0  0  0  0  0  0
   12.9770   -0.7640   22.1810 C   0  0  0  0  0  0  0  0  0  0  0  0
   13.1090    5.5190   22.2110 C   0  0  0  0  0  0  0  0  0  0  0  0
    8.6020    0.1230   21.2070 C   0  0  0  0  0  0  0  0  0  0  0  0
   12.0750    4.6580   22.1930 C   0  0  0  0  0  0  0  0  0  0  0  0
   12.9780    3.4700   22.3070 C   0  0  2  0  0  0  0  0  0  0  0  0
    5.0980    0.9060   21.2740 C   0  0  0  0  0  0  0  0  0  0  0  0
    9.2100   -0.5900   22.3990 C   0  0  0  0  0  0  0  0  0  0  0  0
    6.6320    0.5940   17.2520 N   0  0  0  0  0  0  0  0  0  0  0  0
   14.0670    4.4610   22.7270 N   0  0  0  0  0  0  0  0  0  0  0  0
    7.5630   -0.5230   20.6330 N   0  0  0  0  0  0  0  0  0  0  0  0
   13.2020    6.6930   21.8710 O   0  0  0  0  0  0  0  0  0  0  0  0
    9.0150    1.2120   20.8220 O   0  0  0  0  0  0  0  0  0  0  0  0
   12.7170    2.6360   23.4450 O   0  0  0  0  0  0  0  0  0  0  0  0
   14.1940   -1.9100   21.6990 Cl  0  0  0  0  0  0  0  0  0  0  0  0
    4.0894    1.9955   18.9731 H   0  0  0  0  0  0  0  0  0  0  0  0
   10.2940    1.6937   23.4123 H   0  0  0  0  0  0  0  0  0  0  0  0
   11.3634   -2.1301   21.7911 H   0  0  0  0  0  0  0  0  0  0  0  0
   14.4053    0.7775   22.6398 H   0  0  0  0  0  0  0  0  0  0  0  0
    5.0712    1.8129   16.6995 H   0  0  0  0  0  0  0  0  0  0  0  0
    8.1159   -0.6122   17.9919 H   0  0  0  0  0  0  0  0  0  0  0  0
   11.3001    4.7340   23.0427 H   0  0  0  0  0  0  0  0  0  0  0  0
   11.4072    4.6554   21.2540 H   0  0  0  0  0  0  0  0  0  0  0  0
   13.2487    2.9419   21.4593 H   0  0  0  0  0  0  0  0  0  0  0  0
    4.7838   -0.0684   21.6655 H   0  0  0  0  0  0  0  0  0  0  0  0
    5.8615    1.3219   21.9428 H   0  0  0  0  0  0  0  0  0  0  0  0
    4.2399    1.5888   21.3054 H   0  0  0  0  0  0  0  0  0  0  0  0
    9.0901   -1.6664   22.2639 H   0  0  0  0  0  0  0  0  0  0  0  0
    8.6578   -0.3097   23.2977 H   0  0  0  0  0  0  0  0  0  0  0  0
   14.8697    4.5010   23.1075 H   0  0  0  0  0  0  0  0  0  0  0  0
    7.3129   -1.4300   20.9567 H   0  0  0  0  0  0  0  0  0  0  0  0
  1  5  2  0  0  0  0
  1  7  1  0  0  0  0
  2  8  2  0  0  0  0
  2 10  1  0  0  0  0
  3  8  1  0  0  0  0
  3 11  2  0  0  0  0
  4 10  2  0  0  0  0
  4 11  1  0  0  0  0
  5 18  1  0  0  0  0
  6  9  1  0  0  0  0
  6 18  2  0  0  0  0
  7  9  2  0  0  0  0
  7 16  1  0  0  0  0
  8 17  1  0  0  0  0
  9 20  1  0  0  0  0
 10 23  1  0  0  0  0
 11 24  1  0  0  0  0
 12 14  1  0  0  0  0
 12 19  1  0  0  0  0
 12 21  2  0  0  0  0
 13 17  1  0  0  0  0
 13 20  1  0  0  0  0
 13 22  2  0  0  0  0
 14 15  1  0  0  0  0
 15 19  1  0  0  0  0
 15 23  1  1  0  0  0
  1 25  1  0  0  0  0
  2 26  1  0  0  0  0
  3 27  1  0  0  0  0
  4 28  1  0  0  0  0
  5 29  1  0  0  0  0
  6 30  1  0  0  0  0
 14 31  1  0  0  0  0
 14 32  1  0  0  0  0
 15 33  1  0  0  0  0
 16 34  1  0  0  0  0
 16 35  1  0  0  0  0
 16 36  1  0  0  0  0
 17 37  1  0  0  0  0
 17 38  1  0  0  0  0
 19 39  1  0  0  0  0
 20 40  1  0  0  0  0
M  END
> <canonical_CID>
TRY-UNI-2eddb1ff-7

> <r_inhibition_at_20_uM>

> <r_inhibition_at_50_uM>
87.191315835

> <r_avg_IC50>
0.940748777754165

> <f_inhibition_at_20_uM>
94.4703

> <f_inhibition_at_50_uM>
97.00562

> <f_avg_IC50>
3.6098563119233

> <f_avg_pIC50>
5.44251008457101

> <relative_solubility_at_20_uM>
0.99

> <relative_solubility_at_100_uM>
1.0

> <trypsin_IC50>
99.0

> <NMR_std_ratio>
304.016753887219

> <acrylamide>
False

> <chloroacetamide>
False

> <series>
3-aminopyridine-like

> <clash_score>
0

> <docking_score>
-11.334111213684082

$$$$
TRY-UNI-2eddb1ff-7
  -OEChem-08112022583D

 40 42  0     1  0  0  0  0  0999 V2000
    5.0000    1.4070   18.8080 C   0  0  0  0  0  0  0  0  0  0  0  0
   11.0490    1.0010   23.0460 C   0  0  0  0  0  0  0  0  0  0  0  0
   11.6520   -1.1420   22.1450 C   0  0  0  0  0  0  0  0  0  0  0  0
   13.3680    0.4840   22.6240 C   0  0  0  0  0  0  0  0  0  0  0  0
    5.5330    1.3060   17.5390 C   0  0  0  0  0  0  0  0  0  0  0  0
    7.2400   -0.0390   18.2610 C   0  0  0  0  0  0  0  0  0  0  0  0
    5.6260    0.7590   19.8690 C   0  0  0  0  0  0  0  0  0  0  0  0
   10.6720   -0.2500   22.5660 C   0  0  0  0  0  0  0  0  0  0  0  0
    6.7930    0.0210   19.5790 C   0  0  0  0  0  0  0  0  0  0  0  0
   12.3850    1.3610   23.0530 C   0  0  0  0  0  0  0  0  0  0  0  0
   12.9770   -0.7640   22.1810 C   0  0  0  0  0  0  0  0  0  0  0  0
   13.1090    5.5190   22.2110 C   0  0  0  0  0  0  0  0  0  0  0  0
    8.6020    0.1230   21.2070 C   0  0  0  0  0  0  0  0  0  0  0  0
   12.0750    4.6580   22.1930 C   0  0  0  0  0  0  0  0  0  0  0  0
   12.9780    3.4700   22.3070 C   0  0  1  0  0  0  0  0  0  0  0  0
    5.0980    0.9060   21.2740 C   0  0  0  0  0  0  0  0  0  0  0  0
    9.2100   -0.5900   22.3990 C   0  0  0  0  0  0  0  0  0  0  0  0
    6.6320    0.5940   17.2520 N   0  0  0  0  0  0  0  0  0  0  0  0
   14.0670    4.4610   22.7270 N   0  0  0  0  0  0  0  0  0  0  0  0
    7.5630   -0.5230   20.6330 N   0  0  0  0  0  0  0  0  0  0  0  0
   13.2020    6.6930   21.8710 O   0  0  0  0  0  0  0  0  0  0  0  0
    9.0150    1.2120   20.8220 O   0  0  0  0  0  0  0  0  0  0  0  0
   12.7170    2.6360   23.4450 O   0  0  0  0  0  0  0  0  0  0  0  0
   14.1940   -1.9100   21.6990 Cl  0  0  0  0  0  0  0  0  0  0  0  0
    4.0894    1.9955   18.9731 H   0  0  0  0  0  0  0  0  0  0  0  0
   10.2940    1.6937   23.4123 H   0  0  0  0  0  0  0  0  0  0  0  0
   11.3634   -2.1301   21.7911 H   0  0  0  0  0  0  0  0  0  0  0  0
   14.4053    0.7775   22.6398 H   0  0  0  0  0  0  0  0  0  0  0  0
    5.0712    1.8129   16.6995 H   0  0  0  0  0  0  0  0  0  0  0  0
    8.1159   -0.6122   17.9919 H   0  0  0  0  0  0  0  0  0  0  0  0
   11.3006    4.7460   23.0417 H   0  0  0  0  0  0  0  0  0  0  0  0
   11.4073    4.6431   21.2540 H   0  0  0  0  0  0  0  0  0  0  0  0
   13.2493    2.9421   21.4596 H   0  0  0  0  0  0  0  0  0  0  0  0
    4.7838   -0.0684   21.6655 H   0  0  0  0  0  0  0  0  0  0  0  0
    5.8615    1.3219   21.9428 H   0  0  0  0  0  0  0  0  0  0  0  0
    4.2399    1.5888   21.3054 H   0  0  0  0  0  0  0  0  0  0  0  0
    9.0901   -1.6664   22.2639 H   0  0  0  0  0  0  0  0  0  0  0  0
    8.6578   -0.3097   23.2977 H   0  0  0  0  0  0  0  0  0  0  0  0
   14.8839    4.4991   23.0767 H   0  0  0  0  0  0  0  0  0  0  0  0
    7.3129   -1.4300   20.9567 H   0  0  0  0  0  0  0  0  0  0  0  0
  1  5  2  0  0  0  0
  1  7  1  0  0  0  0
  2  8  2  0  0  0  0
  2 10  1  0  0  0  0
  3  8  1  0  0  0  0
  3 11  2  0  0  0  0
  4 10  2  0  0  0  0
  4 11  1  0  0  0  0
  5 18  1  0  0  0  0
  6  9  1  0  0  0  0
  6 18  2  0  0  0  0
  7  9  2  0  0  0  0
  7 16  1  0  0  0  0
  8 17  1  0  0  0  0
  9 20  1  0  0  0  0
 10 23  1  0  0  0  0
 11 24  1  0  0  0  0
 12 14  1  0  0  0  0
 12 19  1  0  0  0  0
 12 21  2  0  0  0  0
 13 17  1  0  0  0  0
 13 20  1  0  0  0  0
 13 22  2  0  0  0  0
 14 15  1  0  0  0  0
 15 19  1  0  0  0  0
 15 23  1  6  0  0  0
  1 25  1  0  0  0  0
  2 26  1  0  0  0  0
  3 27  1  0  0  0  0
  4 28  1  0  0  0  0
  5 29  1  0  0  0  0
  6 30  1  0  0  0  0
 14 31  1  0  0  0  0
 14 32  1  0  0  0  0
 15 33  1  0  0  0  0
 16 34  1  0  0  0  0
 16 35  1  0  0  0  0
 16 36  1  0  0  0  0
 17 37  1  0  0  0  0
 17 38  1  0  0  0  0
 19 39  1  0  0  0  0
 20 40  1  0  0  0  0
M  END
> <canonical_CID>
TRY-UNI-2eddb1ff-7

> <r_inhibition_at_20_uM>

> <r_inhibition_at_50_uM>
87.191315835

> <r_avg_IC50>
0.940748777754165

> <f_inhibition_at_20_uM>
94.4703

> <f_inhibition_at_50_uM>
97.00562

> <f_avg_IC50>
3.6098563119233

> <f_avg_pIC50>
5.44251008457101

> <relative_solubility_at_20_uM>
0.99

> <relative_solubility_at_100_uM>
1.0

> <trypsin_IC50>
99.0

> <NMR_std_ratio>
304.016753887219

> <acrylamide>
False

> <chloroacetamide>
False

> <series>
3-aminopyridine-like

> <clash_score>
0

> <docking_score>
-11.334111213684082

$$$$
TRY-UNI-2eddb1ff-2
  -OEChem-08112022583D

 30 31  0     0  0  0  0  0  0999 V2000
   12.9770   -0.7640   22.1810 C   0  0  0  0  0  0  0  0  0  0  0  0
    5.6260    0.7590   19.8690 C   0  0  0  0  0  0  0  0  0  0  0  0
   13.3680    0.4840   22.6240 C   0  0  0  0  0  0  0  0  0  0  0  0
    7.2400   -0.0390   18.2610 C   0  0  0  0  0  0  0  0  0  0  0  0
   11.0490    1.0010   23.0460 C   0  0  0  0  0  0  0  0  0  0  0  0
    5.5330    1.3060   17.5390 C   0  0  0  0  0  0  0  0  0  0  0  0
   11.6520   -1.1420   22.1450 C   0  0  0  0  0  0  0  0  0  0  0  0
    6.7930    0.0210   19.5790 C   0  0  0  0  0  0  0  0  0  0  0  0
   10.6720   -0.2500   22.5660 C   0  0  0  0  0  0  0  0  0  0  0  0
    5.0000    1.4070   18.8080 C   0  0  0  0  0  0  0  0  0  0  0  0
    8.6020    0.1230   21.2070 C   0  0  0  0  0  0  0  0  0  0  0  0
   11.2923   -2.5064   21.6525 C   0  0  0  0  0  0  0  0  0  0  0  0
    7.5630   -0.5230   20.6330 C   0  0  0  0  0  0  0  0  0  0  0  0
   12.3850    1.3610   23.0530 N   0  0  0  0  0  0  0  0  0  0  0  0
    6.6320    0.5940   17.2520 N   0  0  0  0  0  0  0  0  0  0  0  0
    9.2100   -0.5900   22.3990 N   0  0  0  0  0  0  0  0  0  0  0  0
    9.0150    1.2120   20.8220 O   0  0  0  0  0  0  0  0  0  0  0  0
    3.5678    2.3320   19.0814 Cl  0  0  0  0  0  0  0  0  0  0  0  0
   14.1940   -1.9100   21.6990 H   0  0  0  0  0  0  0  0  0  0  0  0
    5.0980    0.9060   21.2740 H   0  0  0  0  0  0  0  0  0  0  0  0
   14.3509    0.8205   22.6613 H   0  0  0  0  0  0  0  0  0  0  0  0
    8.1160   -0.6130   17.9946 H   0  0  0  0  0  0  0  0  0  0  0  0
   10.3771    1.7188   23.4165 H   0  0  0  0  0  0  0  0  0  0  0  0
    5.0798    1.8086   16.6911 H   0  0  0  0  0  0  0  0  0  0  0  0
   11.2805   -3.2196   22.4847 H   0  0  0  0  0  0  0  0  0  0  0  0
   10.3051   -2.5104   21.1744 H   0  0  0  0  0  0  0  0  0  0  0  0
   12.0119   -2.8565   20.9020 H   0  0  0  0  0  0  0  0  0  0  0  0
    6.8150   -0.8676   21.4660 H   0  0  0  0  0  0  0  0  0  0  0  0
    7.9098   -1.5886   20.2921 H   0  0  0  0  0  0  0  0  0  0  0  0
    8.7731   -1.1275   22.9218 H   0  0  0  0  0  0  0  0  0  0  0  0
  1  3  2  0  0  0  0
  1  7  1  0  0  0  0
  2  8  2  0  0  0  0
  2 10  1  0  0  0  0
  3 14  1  0  0  0  0
  4  8  1  0  0  0  0
  4 15  2  0  0  0  0
  5  9  1  0  0  0  0
  5 14  2  0  0  0  0
  6 10  2  0  0  0  0
  6 15  1  0  0  0  0
  7  9  2  0  0  0  0
  7 12  1  0  0  0  0
  8 13  1  0  0  0  0
  9 16  1  0  0  0  0
 10 18  1  0  0  0  0
 11 13  1  0  0  0  0
 11 16  1  0  0  0  0
 11 17  2  0  0  0  0
  1 19  1  0  0  0  0
  2 20  1  0  0  0  0
  3 21  1  0  0  0  0
  4 22  1  0  0  0  0
  5 23  1  0  0  0  0
  6 24  1  0  0  0  0
 12 25  1  0  0  0  0
 12 26  1  0  0  0  0
 12 27  1  0  0  0  0
 13 28  1  0  0  0  0
 13 29  1  0  0  0  0
 16 30  1  0  0  0  0
M  END
> <canonical_CID>
TRY-UNI-2eddb1ff-2

> <r_inhibition_at_20_uM>

> <r_inhibition_at_50_uM>
71.44

> <r_avg_IC50>
99.0

> <f_inhibition_at_20_uM>
28.841385

> <f_inhibition_at_50_uM>
46.01123

> <f_avg_IC50>
46.4360480992792

> <f_avg_pIC50>
4.33314474762652

> <relative_solubility_at_20_uM>
1.0

> <relative_solubility_at_100_uM>
1.01

> <trypsin_IC50>
99.0

> <NMR_std_ratio>
76.78827958

> <acrylamide>
False

> <chloroacetamide>
False

> <series>
3-aminopyridine-like

> <clash_score>
0

> <docking_score>
-9.27510929107666

$$$$
ALP-POS-95b75b4d-1
  -OEChem-08112022593D

 31 32  0     0  0  0  0  0  0999 V2000
   12.3850    1.3610   23.0530 C   0  0  0  0  0  0  0  0  0  0  0  0
   11.0490    1.0010   23.0460 C   0  0  0  0  0  0  0  0  0  0  0  0
   13.3680    0.4840   22.6240 C   0  0  0  0  0  0  0  0  0  0  0  0
    5.0000    1.4070   18.8080 C   0  0  0  0  0  0  0  0  0  0  0  0
   11.6520   -1.1420   22.1450 C   0  0  0  0  0  0  0  0  0  0  0  0
    5.5330    1.3060   17.5390 C   0  0  0  0  0  0  0  0  0  0  0  0
    7.2400   -0.0390   18.2610 C   0  0  0  0  0  0  0  0  0  0  0  0
   10.6720   -0.2500   22.5660 C   0  0  0  0  0  0  0  0  0  0  0  0
    5.6260    0.7590   19.8690 C   0  0  0  0  0  0  0  0  0  0  0  0
    6.7930    0.0210   19.5790 C   0  0  0  0  0  0  0  0  0  0  0  0
   12.9770   -0.7640   22.1810 C   0  0  0  0  0  0  0  0  0  0  0  0
    8.6020    0.1230   21.2070 C   0  0  0  0  0  0  0  0  0  0  0  0
    5.0980    0.9060   21.2740 C   0  0  0  0  0  0  0  0  0  0  0  0
    9.2100   -0.5900   22.3990 C   0  0  0  0  0  0  0  0  0  0  0  0
    6.6320    0.5940   17.2520 N   0  0  0  0  0  0  0  0  0  0  0  0
    7.5630   -0.5230   20.6330 N   0  0  0  0  0  0  0  0  0  0  0  0
    9.0150    1.2120   20.8220 O   0  0  0  0  0  0  0  0  0  0  0  0
   14.1940   -1.9100   21.6990 F   0  0  0  0  0  0  0  0  0  0  0  0
   12.6725    2.3610   23.4047 H   0  0  0  0  0  0  0  0  0  0  0  0
   10.2996    1.6975   23.4160 H   0  0  0  0  0  0  0  0  0  0  0  0
   14.4058    0.7692   22.6372 H   0  0  0  0  0  0  0  0  0  0  0  0
    4.0894    1.9955   18.9731 H   0  0  0  0  0  0  0  0  0  0  0  0
   11.3790   -2.1321   21.7883 H   0  0  0  0  0  0  0  0  0  0  0  0
    5.0712    1.8129   16.6995 H   0  0  0  0  0  0  0  0  0  0  0  0
    8.1159   -0.6122   17.9919 H   0  0  0  0  0  0  0  0  0  0  0  0
    5.3306    1.9034   21.6647 H   0  0  0  0  0  0  0  0  0  0  0  0
    4.0109    0.7627   21.3059 H   0  0  0  0  0  0  0  0  0  0  0  0
    5.5386    0.1566   21.9433 H   0  0  0  0  0  0  0  0  0  0  0  0
    9.0901   -1.6664   22.2639 H   0  0  0  0  0  0  0  0  0  0  0  0
    8.6578   -0.3097   23.2977 H   0  0  0  0  0  0  0  0  0  0  0  0
    7.3129   -1.4300   20.9567 H   0  0  0  0  0  0  0  0  0  0  0  0
  1  2  2  0  0  0  0
  1  3  1  0  0  0  0
  2  8  1  0  0  0  0
  3 11  2  0  0  0  0
  4  6  2  0  0  0  0
  4  9  1  0  0  0  0
  5  8  2  0  0  0  0
  5 11  1  0  0  0  0
  6 15  1  0  0  0  0
  7 10  1  0  0  0  0
  7 15  2  0  0  0  0
  8 14  1  0  0  0  0
  9 10  2  0  0  0  0
  9 13  1  0  0  0  0
 10 16  1  0  0  0  0
 11 18  1  0  0  0  0
 12 14  1  0  0  0  0
 12 16  1  0  0  0  0
 12 17  2  0  0  0  0
  1 19  1  0  0  0  0
  2 20  1  0  0  0  0
  3 21  1  0  0  0  0
  4 22  1  0  0  0  0
  5 23  1  0  0  0  0
  6 24  1  0  0  0  0
  7 25  1  0  0  0  0
 13 26  1  0  0  0  0
 13 27  1  0  0  0  0
 13 28  1  0  0  0  0
 14 29  1  0  0  0  0
 14 30  1  0  0  0  0
 16 31  1  0  0  0  0
M  END
> <canonical_CID>
ALP-POS-95b75b4d-1

> <r_inhibition_at_20_uM>

> <r_inhibition_at_50_uM>
40.854543705

> <r_avg_IC50>

> <f_inhibition_at_20_uM>
39.63515

> <f_inhibition_at_50_uM>
65.25146

> <f_avg_IC50>
95.8330784284157

> <f_avg_pIC50>
4.01848456086563

> <relative_solubility_at_20_uM>
1.01

> <relative_solubility_at_100_uM>
1.0

> <trypsin_IC50>
99.0

> <NMR_std_ratio>
345.409207161125

> <acrylamide>
False

> <chloroacetamide>
False

> <series>
3-aminopyridine-like

> <clash_score>
0

> <docking_score>
-10.7835693359375

$$$$
JAN-GHE-83b26c96-8
  -OEChem-08112022593D

 40 41  0     1  0  0  0  0  0999 V2000
   12.3850    1.3610   23.0530 C   0  0  0  0  0  0  0  0  0  0  0  0
   11.0490    1.0010   23.0460 C   0  0  0  0  0  0  0  0  0  0  0  0
   13.3680    0.4840   22.6240 C   0  0  0  0  0  0  0  0  0  0  0  0
    5.0000    1.4070   18.8080 C   0  0  0  0  0  0  0  0  0  0  0  0
   11.6520   -1.1420   22.1450 C   0  0  0  0  0  0  0  0  0  0  0  0
    5.5330    1.3060   17.5390 C   0  0  0  0  0  0  0  0  0  0  0  0
    7.2400   -0.0390   18.2610 C   0  0  0  0  0  0  0  0  0  0  0  0
   10.6720   -0.2500   22.5660 C   0  0  0  0  0  0  0  0  0  0  0  0
    5.6260    0.7590   19.8690 C   0  0  0  0  0  0  0  0  0  0  0  0
    6.7930    0.0210   19.5790 C   0  0  0  0  0  0  0  0  0  0  0  0
   12.9770   -0.7640   22.1810 C   0  0  0  0  0  0  0  0  0  0  0  0
    8.6020    0.1230   21.2070 C   0  0  0  0  0  0  0  0  0  0  0  0
    5.0980    0.9060   21.2740 C   0  0  0  0  0  0  0  0  0  0  0  0
    8.8202   -2.6449   24.5575 C   0  0  0  0  0  0  0  0  0  0  0  0
    8.9056   -1.1624   24.8860 C   0  0  0  0  0  0  0  0  0  0  0  0
    8.4276   -0.3013   23.7116 C   0  0  0  0  0  0  0  0  0  0  0  0
    9.2100   -0.5900   22.3990 C   0  0  1  0  0  0  0  0  0  0  0  0
    6.6320    0.5940   17.2520 N   0  0  0  0  0  0  0  0  0  0  0  0
    7.5630   -0.5230   20.6330 N   0  0  0  0  0  0  0  0  0  0  0  0
    9.0150    1.2120   20.8220 O   0  0  0  0  0  0  0  0  0  0  0  0
   14.1940   -1.9100   21.6990 Cl  0  0  0  0  0  0  0  0  0  0  0  0
   12.6720    2.3610   23.4053 H   0  0  0  0  0  0  0  0  0  0  0  0
   10.2994    1.6973   23.4158 H   0  0  0  0  0  0  0  0  0  0  0  0
   14.4033    0.7831   22.6425 H   0  0  0  0  0  0  0  0  0  0  0  0
    4.0894    1.9955   18.9731 H   0  0  0  0  0  0  0  0  0  0  0  0
   11.3638   -2.1297   21.7906 H   0  0  0  0  0  0  0  0  0  0  0  0
    5.0712    1.8129   16.6995 H   0  0  0  0  0  0  0  0  0  0  0  0
    8.1159   -0.6122   17.9919 H   0  0  0  0  0  0  0  0  0  0  0  0
    5.4136    1.8654   21.6999 H   0  0  0  0  0  0  0  0  0  0  0  0
    4.0022    0.8587   21.2926 H   0  0  0  0  0  0  0  0  0  0  0  0
    5.4634    0.0989   21.9211 H   0  0  0  0  0  0  0  0  0  0  0  0
    7.7944   -2.9320   24.3052 H   0  0  0  0  0  0  0  0  0  0  0  0
    9.4664   -2.8972   23.7107 H   0  0  0  0  0  0  0  0  0  0  0  0
    9.1386   -3.2424   25.4174 H   0  0  0  0  0  0  0  0  0  0  0  0
    9.9433   -0.9100   25.1333 H   0  0  0  0  0  0  0  0  0  0  0  0
    8.3019   -0.9613   25.7778 H   0  0  0  0  0  0  0  0  0  0  0  0
    8.5040    0.7584   23.9861 H   0  0  0  0  0  0  0  0  0  0  0  0
    7.3614   -0.5036   23.5427 H   0  0  0  0  0  0  0  0  0  0  0  0
    9.1203   -1.6819   22.2242 H   0  0  0  0  0  0  0  0  0  0  0  0
    7.2947   -1.4276   20.9484 H   0  0  0  0  0  0  0  0  0  0  0  0
  1  2  2  0  0  0  0
  1  3  1  0  0  0  0
  2  8  1  0  0  0  0
  3 11  2  0  0  0  0
  4  6  2  0  0  0  0
  4  9  1  0  0  0  0
  5  8  2  0  0  0  0
  5 11  1  0  0  0  0
  6 18  1  0  0  0  0
  7 10  1  0  0  0  0
  7 18  2  0  0  0  0
  8 17  1  0  0  0  0
  9 10  2  0  0  0  0
  9 13  1  0  0  0  0
 10 19  1  0  0  0  0
 11 21  1  0  0  0  0
 12 17  1  0  0  0  0
 12 19  1  0  0  0  0
 12 20  2  0  0  0  0
 14 15  1  0  0  0  0
 15 16  1  0  0  0  0
 16 17  1  1  0  0  0
  1 22  1  0  0  0  0
  2 23  1  0  0  0  0
  3 24  1  0  0  0  0
  4 25  1  0  0  0  0
  5 26  1  0  0  0  0
  6 27  1  0  0  0  0
  7 28  1  0  0  0  0
 13 29  1  0  0  0  0
 13 30  1  0  0  0  0
 13 31  1  0  0  0  0
 14 32  1  0  0  0  0
 14 33  1  0  0  0  0
 14 34  1  0  0  0  0
 15 35  1  0  0  0  0
 15 36  1  0  0  0  0
 16 37  1  0  0  0  0
 16 38  1  0  0  0  0
 17 39  1  0  0  0  0
 19 40  1  0  0  0  0
M  END
> <canonical_CID>
JAN-GHE-83b26c96-8

> <r_inhibition_at_20_uM>

> <r_inhibition_at_50_uM>
78.318200805

> <r_avg_IC50>
5.47937183813606

> <f_inhibition_at_20_uM>
77.852725

> <f_inhibition_at_50_uM>
90.64927

> <f_avg_IC50>
17.3103456122319

> <f_avg_pIC50>
4.76169426106818

> <relative_solubility_at_20_uM>
1.0

> <relative_solubility_at_100_uM>
0.99

> <trypsin_IC50>
99.0

> <NMR_std_ratio>
315.811903829992

> <acrylamide>
False

> <chloroacetamide>
False

> <series>
3-aminopyridine-like

> <clash_score>
0

> <docking_score>
-10.892559051513672

$$$$
JAN-GHE-83b26c96-8
  -OEChem-08112022593D

 40 41  0     1  0  0  0  0  0999 V2000
   12.3850    1.3610   23.0530 C   0  0  0  0  0  0  0  0  0  0  0  0
   11.0490    1.0010   23.0460 C   0  0  0  0  0  0  0  0  0  0  0  0
   13.3680    0.4840   22.6240 C   0  0  0  0  0  0  0  0  0  0  0  0
    5.0000    1.4070   18.8080 C   0  0  0  0  0  0  0  0  0  0  0  0
   11.6520   -1.1420   22.1450 C   0  0  0  0  0  0  0  0  0  0  0  0
    5.5330    1.3060   17.5390 C   0  0  0  0  0  0  0  0  0  0  0  0
    7.2400   -0.0390   18.2610 C   0  0  0  0  0  0  0  0  0  0  0  0
   10.6720   -0.2500   22.5660 C   0  0  0  0  0  0  0  0  0  0  0  0
    5.6260    0.7590   19.8690 C   0  0  0  0  0  0  0  0  0  0  0  0
    6.7930    0.0210   19.5790 C   0  0  0  0  0  0  0  0  0  0  0  0
   12.9770   -0.7640   22.1810 C   0  0  0  0  0  0  0  0  0  0  0  0
    8.6020    0.1230   21.2070 C   0  0  0  0  0  0  0  0  0  0  0  0
    5.0980    0.9060   21.2740 C   0  0  0  0  0  0  0  0  0  0  0  0
    8.8161   -2.4303   24.8202 C   0  0  0  0  0  0  0  0  0  0  0  0
    9.5581   -2.8520   23.5614 C   0  0  0  0  0  0  0  0  0  0  0  0
    9.0134   -2.1309   22.3235 C   0  0  0  0  0  0  0  0  0  0  0  0
    9.2100   -0.5900   22.3990 C   0  0  2  0  0  0  0  0  0  0  0  0
    6.6320    0.5940   17.2520 N   0  0  0  0  0  0  0  0  0  0  0  0
    7.5630   -0.5230   20.6330 N   0  0  0  0  0  0  0  0  0  0  0  0
    9.0150    1.2120   20.8220 O   0  0  0  0  0  0  0  0  0  0  0  0
   14.1940   -1.9100   21.6990 Cl  0  0  0  0  0  0  0  0  0  0  0  0
   12.6720    2.3610   23.4053 H   0  0  0  0  0  0  0  0  0  0  0  0
   10.2994    1.6973   23.4158 H   0  0  0  0  0  0  0  0  0  0  0  0
   14.4033    0.7831   22.6425 H   0  0  0  0  0  0  0  0  0  0  0  0
    4.0894    1.9955   18.9731 H   0  0  0  0  0  0  0  0  0  0  0  0
   11.3638   -2.1297   21.7906 H   0  0  0  0  0  0  0  0  0  0  0  0
    5.0712    1.8129   16.6995 H   0  0  0  0  0  0  0  0  0  0  0  0
    8.1159   -0.6122   17.9919 H   0  0  0  0  0  0  0  0  0  0  0  0
    4.4208    1.7656   21.3372 H   0  0  0  0  0  0  0  0  0  0  0  0
    4.5529    0.0076   21.5885 H   0  0  0  0  0  0  0  0  0  0  0  0
    5.9153    1.0511   21.9913 H   0  0  0  0  0  0  0  0  0  0  0  0
    8.8957   -1.3501   24.9787 H   0  0  0  0  0  0  0  0  0  0  0  0
    7.7550   -2.6915   24.7566 H   0  0  0  0  0  0  0  0  0  0  0  0
    9.2379   -2.9341   25.6954 H   0  0  0  0  0  0  0  0  0  0  0  0
    9.4581   -3.9361   23.4336 H   0  0  0  0  0  0  0  0  0  0  0  0
   10.6248   -2.6379   23.6898 H   0  0  0  0  0  0  0  0  0  0  0  0
    7.9503   -2.3745   22.2022 H   0  0  0  0  0  0  0  0  0  0  0  0
    9.5269   -2.5256   21.4365 H   0  0  0  0  0  0  0  0  0  0  0  0
    8.6656   -0.2585   23.3071 H   0  0  0  0  0  0  0  0  0  0  0  0
    7.2947   -1.4276   20.9484 H   0  0  0  0  0  0  0  0  0  0  0  0
  1  2  2  0  0  0  0
  1  3  1  0  0  0  0
  2  8  1  0  0  0  0
  3 11  2  0  0  0  0
  4  6  2  0  0  0  0
  4  9  1  0  0  0  0
  5  8  2  0  0  0  0
  5 11  1  0  0  0  0
  6 18  1  0  0  0  0
  7 10  1  0  0  0  0
  7 18  2  0  0  0  0
  8 17  1  0  0  0  0
  9 10  2  0  0  0  0
  9 13  1  0  0  0  0
 10 19  1  0  0  0  0
 11 21  1  0  0  0  0
 12 17  1  0  0  0  0
 12 19  1  0  0  0  0
 12 20  2  0  0  0  0
 14 15  1  0  0  0  0
 15 16  1  0  0  0  0
 16 17  1  6  0  0  0
  1 22  1  0  0  0  0
  2 23  1  0  0  0  0
  3 24  1  0  0  0  0
  4 25  1  0  0  0  0
  5 26  1  0  0  0  0
  6 27  1  0  0  0  0
  7 28  1  0  0  0  0
 13 29  1  0  0  0  0
 13 30  1  0  0  0  0
 13 31  1  0  0  0  0
 14 32  1  0  0  0  0
 14 33  1  0  0  0  0
 14 34  1  0  0  0  0
 15 35  1  0  0  0  0
 15 36  1  0  0  0  0
 16 37  1  0  0  0  0
 16 38  1  0  0  0  0
 17 39  1  0  0  0  0
 19 40  1  0  0  0  0
M  END
> <canonical_CID>
JAN-GHE-83b26c96-8

> <r_inhibition_at_20_uM>

> <r_inhibition_at_50_uM>
78.318200805

> <r_avg_IC50>
5.47937183813606

> <f_inhibition_at_20_uM>
77.852725

> <f_inhibition_at_50_uM>
90.64927

> <f_avg_IC50>
17.3103456122319

> <f_avg_pIC50>
4.76169426106818

> <relative_solubility_at_20_uM>
1.0

> <relative_solubility_at_100_uM>
0.99

> <trypsin_IC50>
99.0

> <NMR_std_ratio>
315.811903829992

> <acrylamide>
False

> <chloroacetamide>
False

> <series>
3-aminopyridine-like

> <clash_score>
0

> <docking_score>
-11.241762161254883

$$$$
JAN-GHE-83b26c96-12
  -OEChem-08112022593D

 31 32  0     0  0  0  0  0  0999 V2000
   12.3850    1.3610   23.0530 C   0  0  0  0  0  0  0  0  0  0  0  0
   11.0490    1.0010   23.0460 C   0  0  0  0  0  0  0  0  0  0  0  0
   13.3680    0.4840   22.6240 C   0  0  0  0  0  0  0  0  0  0  0  0
    5.0000    1.4070   18.8080 C   0  0  0  0  0  0  0  0  0  0  0  0
   11.6520   -1.1420   22.1450 C   0  0  0  0  0  0  0  0  0  0  0  0
    5.5330    1.3060   17.5390 C   0  0  0  0  0  0  0  0  0  0  0  0
    7.2400   -0.0390   18.2610 C   0  0  0  0  0  0  0  0  0  0  0  0
   10.6720   -0.2500   22.5660 C   0  0  0  0  0  0  0  0  0  0  0  0
    5.6260    0.7590   19.8690 C   0  0  0  0  0  0  0  0  0  0  0  0
    6.7930    0.0210   19.5790 C   0  0  0  0  0  0  0  0  0  0  0  0
   12.9770   -0.7640   22.1810 C   0  0  0  0  0  0  0  0  0  0  0  0
    8.6020    0.1230   21.2070 C   0  0  0  0  0  0  0  0  0  0  0  0
    5.0980    0.9060   21.2740 C   0  0  0  0  0  0  0  0  0  0  0  0
    9.2100   -0.5900   22.3990 C   0  0  0  0  0  0  0  0  0  0  0  0
    6.6320    0.5940   17.2520 N   0  0  0  0  0  0  0  0  0  0  0  0
    7.5630   -0.5230   20.6330 N   0  0  0  0  0  0  0  0  0  0  0  0
    9.0150    1.2120   20.8220 O   0  0  0  0  0  0  0  0  0  0  0  0
   14.1940   -1.9100   21.6990 Br  0  0  0  0  0  0  0  0  0  0  0  0
   12.6723    2.3608   23.4052 H   0  0  0  0  0  0  0  0  0  0  0  0
   10.2997    1.6974   23.4157 H   0  0  0  0  0  0  0  0  0  0  0  0
   14.4024    0.7854   22.6431 H   0  0  0  0  0  0  0  0  0  0  0  0
    4.0894    1.9955   18.9731 H   0  0  0  0  0  0  0  0  0  0  0  0
   11.3614   -2.1295   21.7915 H   0  0  0  0  0  0  0  0  0  0  0  0
    5.0712    1.8129   16.6995 H   0  0  0  0  0  0  0  0  0  0  0  0
    8.1159   -0.6122   17.9919 H   0  0  0  0  0  0  0  0  0  0  0  0
    5.3304    1.9034   21.6647 H   0  0  0  0  0  0  0  0  0  0  0  0
    4.0109    0.7626   21.3059 H   0  0  0  0  0  0  0  0  0  0  0  0
    5.5387    0.1568   21.9433 H   0  0  0  0  0  0  0  0  0  0  0  0
    9.0901   -1.6664   22.2639 H   0  0  0  0  0  0  0  0  0  0  0  0
    8.6578   -0.3097   23.2977 H   0  0  0  0  0  0  0  0  0  0  0  0
    7.3129   -1.4300   20.9567 H   0  0  0  0  0  0  0  0  0  0  0  0
  1  2  2  0  0  0  0
  1  3  1  0  0  0  0
  2  8  1  0  0  0  0
  3 11  2  0  0  0  0
  4  6  2  0  0  0  0
  4  9  1  0  0  0  0
  5  8  2  0  0  0  0
  5 11  1  0  0  0  0
  6 15  1  0  0  0  0
  7 10  1  0  0  0  0
  7 15  2  0  0  0  0
  8 14  1  0  0  0  0
  9 10  2  0  0  0  0
  9 13  1  0  0  0  0
 10 16  1  0  0  0  0
 11 18  1  0  0  0  0
 12 14  1  0  0  0  0
 12 16  1  0  0  0  0
 12 17  2  0  0  0  0
  1 19  1  0  0  0  0
  2 20  1  0  0  0  0
  3 21  1  0  0  0  0
  4 22  1  0  0  0  0
  5 23  1  0  0  0  0
  6 24  1  0  0  0  0
  7 25  1  0  0  0  0
 13 26  1  0  0  0  0
 13 27  1  0  0  0  0
 13 28  1  0  0  0  0
 14 29  1  0  0  0  0
 14 30  1  0  0  0  0
 16 31  1  0  0  0  0
M  END
> <canonical_CID>
JAN-GHE-83b26c96-12

> <r_inhibition_at_20_uM>

> <r_inhibition_at_50_uM>
98.3386197794272

> <r_avg_IC50>
15.9429761516083

> <f_inhibition_at_20_uM>
56.18509

> <f_inhibition_at_50_uM>
77.679955

> <f_avg_IC50>
20.5939440724842

> <f_avg_pIC50>
4.68626047101758

> <relative_solubility_at_20_uM>
1.01

> <relative_solubility_at_100_uM>
1.0

> <trypsin_IC50>

> <NMR_std_ratio>
398.894579076177

> <acrylamide>
False

> <chloroacetamide>
False

> <series>
3-aminopyridine-like

> <clash_score>
0

> <docking_score>
-10.109495162963867

$$$$
JOR-UNI-2fc98d0b-12
  -OEChem-08112022593D

 49 51  0     0  0  0  0  0  0999 V2000
   12.3850    1.3610   23.0530 C   0  0  0  0  0  0  0  0  0  0  0  0
    6.6320    0.5940   17.2520 C   0  0  0  0  0  0  0  0  0  0  0  0
   11.0490    1.0010   23.0460 C   0  0  0  0  0  0  0  0  0  0  0  0
    7.2400   -0.0390   18.2610 C   0  0  0  0  0  0  0  0  0  0  0  0
   13.3680    0.4840   22.6240 C   0  0  0  0  0  0  0  0  0  0  0  0
   11.6520   -1.1420   22.1450 C   0  0  0  0  0  0  0  0  0  0  0  0
    5.5330    1.3060   17.5390 C   0  0  0  0  0  0  0  0  0  0  0  0
    5.6260    0.7590   19.8690 C   0  0  0  0  0  0  0  0  0  0  0  0
   10.6720   -0.2500   22.5660 C   0  0  0  0  0  0  0  0  0  0  0  0
    6.7930    0.0210   19.5790 C   0  0  0  0  0  0  0  0  0  0  0  0
   12.9770   -0.7640   22.1810 C   0  0  0  0  0  0  0  0  0  0  0  0
    8.6020    0.1230   21.2070 C   0  0  0  0  0  0  0  0  0  0  0  0
    6.2412   -4.6762   25.7756 C   0  0  0  0  0  0  0  0  0  0  0  0
    7.6233   -4.3944   26.3567 C   0  0  0  0  0  0  0  0  0  0  0  0
    6.3272   -5.1488   24.3277 C   0  0  0  0  0  0  0  0  0  0  0  0
    8.4080   -3.4103   25.4922 C   0  0  0  0  0  0  0  0  0  0  0  0
    7.1099   -4.1660   23.4597 C   0  0  0  0  0  0  0  0  0  0  0  0
    8.5043   -3.8867   24.0366 C   0  0  0  0  0  0  0  0  0  0  0  0
    9.2464   -2.8614   23.1814 C   0  0  0  0  0  0  0  0  0  0  0  0
    8.5667   -1.4998   23.1816 C   0  0  0  0  0  0  0  0  0  0  0  0
    5.0000    1.4070   18.8080 N   0  0  0  0  0  0  0  0  0  0  0  0
    7.5630   -0.5230   20.6330 N   0  0  0  0  0  0  0  0  0  0  0  0
    9.2100   -0.5900   22.3990 N   0  0  0  0  0  0  0  0  0  0  0  0
    9.0150    1.2120   20.8220 O   0  0  0  0  0  0  0  0  0  0  0  0
   14.1940   -1.9100   21.6990 Cl  0  0  0  0  0  0  0  0  0  0  0  0
   12.6724    2.3610   23.4052 H   0  0  0  0  0  0  0  0  0  0  0  0
    7.0166    0.5346   16.2247 H   0  0  0  0  0  0  0  0  0  0  0  0
   10.3013    1.6995   23.4166 H   0  0  0  0  0  0  0  0  0  0  0  0
    8.1536   -0.6503   18.0499 H   0  0  0  0  0  0  0  0  0  0  0  0
   14.4027    0.7838   22.6422 H   0  0  0  0  0  0  0  0  0  0  0  0
   11.3653   -2.1304   21.7904 H   0  0  0  0  0  0  0  0  0  0  0  0
    4.9769    1.8591   16.7883 H   0  0  0  0  0  0  0  0  0  0  0  0
    5.2019    0.8559   20.8009 H   0  0  0  0  0  0  0  0  0  0  0  0
    5.7342   -5.4354   26.3817 H   0  0  0  0  0  0  0  0  0  0  0  0
    5.6319   -3.7654   25.8262 H   0  0  0  0  0  0  0  0  0  0  0  0
    7.5208   -3.9935   27.3716 H   0  0  0  0  0  0  0  0  0  0  0  0
    8.1833   -5.3340   26.4396 H   0  0  0  0  0  0  0  0  0  0  0  0
    6.8117   -6.1323   24.2925 H   0  0  0  0  0  0  0  0  0  0  0  0
    5.3172   -5.2761   23.9217 H   0  0  0  0  0  0  0  0  0  0  0  0
    7.9202   -2.4278   25.5321 H   0  0  0  0  0  0  0  0  0  0  0  0
    9.4132   -3.2821   25.9114 H   0  0  0  0  0  0  0  0  0  0  0  0
    7.1989   -4.5713   22.4447 H   0  0  0  0  0  0  0  0  0  0  0  0
    6.5448   -3.2285   23.3784 H   0  0  0  0  0  0  0  0  0  0  0  0
    9.0795   -4.8221   24.0167 H   0  0  0  0  0  0  0  0  0  0  0  0
    9.2931   -3.2378   22.1547 H   0  0  0  0  0  0  0  0  0  0  0  0
   10.2748   -2.7732   23.5460 H   0  0  0  0  0  0  0  0  0  0  0  0
    7.5508   -1.5921   22.7847 H   0  0  0  0  0  0  0  0  0  0  0  0
    8.5011   -1.0864   24.1930 H   0  0  0  0  0  0  0  0  0  0  0  0
    7.3107   -1.4294   20.9543 H   0  0  0  0  0  0  0  0  0  0  0  0
  1  3  2  0  0  0  0
  1  5  1  0  0  0  0
  2  4  2  0  0  0  0
  2  7  1  0  0  0  0
  3  9  1  0  0  0  0
  4 10  1  0  0  0  0
  5 11  2  0  0  0  0
  6  9  2  0  0  0  0
  6 11  1  0  0  0  0
  7 21  2  0  0  0  0
  8 10  2  0  0  0  0
  8 21  1  0  0  0  0
  9 23  1  0  0  0  0
 10 22  1  0  0  0  0
 11 25  1  0  0  0  0
 12 22  1  0  0  0  0
 12 23  1  0  0  0  0
 12 24  2  0  0  0  0
 13 14  1  0  0  0  0
 13 15  1  0  0  0  0
 14 16  1  0  0  0  0
 15 17  1  0  0  0  0
 16 18  1  0  0  0  0
 17 18  1  0  0  0  0
 18 19  1  0  0  0  0
 19 20  1  0  0  0  0
 20 23  1  0  0  0  0
  1 26  1  0  0  0  0
  2 27  1  0  0  0  0
  3 28  1  0  0  0  0
  4 29  1  0  0  0  0
  5 30  1  0  0  0  0
  6 31  1  0  0  0  0
  7 32  1  0  0  0  0
  8 33  1  0  0  0  0
 13 34  1  0  0  0  0
 13 35  1  0  0  0  0
 14 36  1  0  0  0  0
 14 37  1  0  0  0  0
 15 38  1  0  0  0  0
 15 39  1  0  0  0  0
 16 40  1  0  0  0  0
 16 41  1  0  0  0  0
 17 42  1  0  0  0  0
 17 43  1  0  0  0  0
 18 44  1  0  0  0  0
 19 45  1  0  0  0  0
 19 46  1  0  0  0  0
 20 47  1  0  0  0  0
 20 48  1  0  0  0  0
 22 49  1  0  0  0  0
M  END
> <canonical_CID>
JOR-UNI-2fc98d0b-12

> <r_inhibition_at_20_uM>

> <r_inhibition_at_50_uM>
78.9446538442645

> <r_avg_IC50>

> <f_inhibition_at_20_uM>
83.33063

> <f_inhibition_at_50_uM>
88.791675

> <f_avg_IC50>
3.05667196423036

> <f_avg_pIC50>
5.51475116636676

> <relative_solubility_at_20_uM>

> <relative_solubility_at_100_uM>

> <trypsin_IC50>
99.0

> <NMR_std_ratio>

> <acrylamide>
False

> <chloroacetamide>
False

> <series>
3-aminopyridine-like

> <clash_score>
0

> <docking_score>
-7.935922622680664

$$$$
JAN-GHE-83b26c96-22
  -OEChem-08112022593D

 37 38  0     0  0  0  0  0  0999 V2000
   12.3850    1.3610   23.0530 C   0  0  0  0  0  0  0  0  0  0  0  0
   11.0490    1.0010   23.0460 C   0  0  0  0  0  0  0  0  0  0  0  0
   13.3680    0.4840   22.6240 C   0  0  0  0  0  0  0  0  0  0  0  0
    5.0000    1.4070   18.8080 C   0  0  0  0  0  0  0  0  0  0  0  0
   11.6520   -1.1420   22.1450 C   0  0  0  0  0  0  0  0  0  0  0  0
    5.5330    1.3060   17.5390 C   0  0  0  0  0  0  0  0  0  0  0  0
    7.2400   -0.0390   18.2610 C   0  0  0  0  0  0  0  0  0  0  0  0
   10.6720   -0.2500   22.5660 C   0  0  0  0  0  0  0  0  0  0  0  0
    5.6260    0.7590   19.8690 C   0  0  0  0  0  0  0  0  0  0  0  0
    6.7930    0.0210   19.5790 C   0  0  0  0  0  0  0  0  0  0  0  0
   12.9770   -0.7640   22.1810 C   0  0  0  0  0  0  0  0  0  0  0  0
    8.6020    0.1230   21.2070 C   0  0  0  0  0  0  0  0  0  0  0  0
    5.0980    0.9060   21.2740 C   0  0  0  0  0  0  0  0  0  0  0  0
    9.0999   -2.1317   22.2006 C   0  0  0  0  0  0  0  0  0  0  0  0
    8.3255   -0.2627   23.6402 C   0  0  0  0  0  0  0  0  0  0  0  0
    9.2100   -0.5900   22.3990 C   0  0  0  0  0  0  0  0  0  0  0  0
    6.6320    0.5940   17.2520 N   0  0  0  0  0  0  0  0  0  0  0  0
    7.5630   -0.5230   20.6330 N   0  0  0  0  0  0  0  0  0  0  0  0
    9.0150    1.2120   20.8220 O   0  0  0  0  0  0  0  0  0  0  0  0
   14.1940   -1.9100   21.6990 Cl  0  0  0  0  0  0  0  0  0  0  0  0
   12.6720    2.3610   23.4053 H   0  0  0  0  0  0  0  0  0  0  0  0
   10.2994    1.6973   23.4158 H   0  0  0  0  0  0  0  0  0  0  0  0
   14.4033    0.7831   22.6425 H   0  0  0  0  0  0  0  0  0  0  0  0
    4.0894    1.9955   18.9731 H   0  0  0  0  0  0  0  0  0  0  0  0
   11.3638   -2.1297   21.7906 H   0  0  0  0  0  0  0  0  0  0  0  0
    5.0712    1.8129   16.6995 H   0  0  0  0  0  0  0  0  0  0  0  0
    8.1159   -0.6122   17.9919 H   0  0  0  0  0  0  0  0  0  0  0  0
    4.1514    1.4586   21.2681 H   0  0  0  0  0  0  0  0  0  0  0  0
    4.9283   -0.0733   21.7381 H   0  0  0  0  0  0  0  0  0  0  0  0
    5.8120    1.4421   21.9115 H   0  0  0  0  0  0  0  0  0  0  0  0
    8.0565   -2.4477   22.0823 H   0  0  0  0  0  0  0  0  0  0  0  0
    9.5198   -2.6945   23.0427 H   0  0  0  0  0  0  0  0  0  0  0  0
    9.6474   -2.4450   21.3035 H   0  0  0  0  0  0  0  0  0  0  0  0
    7.2740   -0.5316   23.4894 H   0  0  0  0  0  0  0  0  0  0  0  0
    8.3622    0.8069   23.8781 H   0  0  0  0  0  0  0  0  0  0  0  0
    8.6692   -0.8067   24.5286 H   0  0  0  0  0  0  0  0  0  0  0  0
    7.2889   -1.4241   20.9494 H   0  0  0  0  0  0  0  0  0  0  0  0
  1  2  2  0  0  0  0
  1  3  1  0  0  0  0
  2  8  1  0  0  0  0
  3 11  2  0  0  0  0
  4  6  2  0  0  0  0
  4  9  1  0  0  0  0
  5  8  2  0  0  0  0
  5 11  1  0  0  0  0
  6 17  1  0  0  0  0
  7 10  1  0  0  0  0
  7 17  2  0  0  0  0
  8 16  1  0  0  0  0
  9 10  2  0  0  0  0
  9 13  1  0  0  0  0
 10 18  1  0  0  0  0
 11 20  1  0  0  0  0
 12 16  1  0  0  0  0
 12 18  1  0  0  0  0
 12 19  2  0  0  0  0
 14 16  1  0  0  0  0
 15 16  1  0  0  0  0
  1 21  1  0  0  0  0
  2 22  1  0  0  0  0
  3 23  1  0  0  0  0
  4 24  1  0  0  0  0
  5 25  1  0  0  0  0
  6 26  1  0  0  0  0
  7 27  1  0  0  0  0
 13 28  1  0  0  0  0
 13 29  1  0  0  0  0
 13 30  1  0  0  0  0
 14 31  1  0  0  0  0
 14 32  1  0  0  0  0
 14 33  1  0  0  0  0
 15 34  1  0  0  0  0
 15 35  1  0  0  0  0
 15 36  1  0  0  0  0
 18 37  1  0  0  0  0
M  END
> <canonical_CID>
JAN-GHE-83b26c96-22

> <r_inhibition_at_20_uM>

> <r_inhibition_at_50_uM>
66.91403689

> <r_avg_IC50>
24.522808858117

> <f_inhibition_at_20_uM>
49.325525

> <f_inhibition_at_50_uM>
67.95416

> <f_avg_IC50>
96.9383202483582

> <f_avg_pIC50>
4.01350451002268

> <relative_solubility_at_20_uM>
1.0

> <relative_solubility_at_100_uM>
1.0

> <trypsin_IC50>
99.0

> <NMR_std_ratio>
268.055549685779

> <acrylamide>
False

> <chloroacetamide>
False

> <series>
3-aminopyridine-like

> <clash_score>
0

> <docking_score>
-10.642889022827148

$$$$
TRY-UNI-714a760b-6
  -OEChem-08112022593D

 31 32  0     0  0  0  0  0  0999 V2000
   12.3850    1.3610   23.0530 C   0  0  0  0  0  0  0  0  0  0  0  0
   11.0490    1.0010   23.0460 C   0  0  0  0  0  0  0  0  0  0  0  0
   13.3680    0.4840   22.6240 C   0  0  0  0  0  0  0  0  0  0  0  0
    5.0000    1.4070   18.8080 C   0  0  0  0  0  0  0  0  0  0  0  0
   11.6520   -1.1420   22.1450 C   0  0  0  0  0  0  0  0  0  0  0  0
    5.5330    1.3060   17.5390 C   0  0  0  0  0  0  0  0  0  0  0  0
    7.2400   -0.0390   18.2610 C   0  0  0  0  0  0  0  0  0  0  0  0
   10.6720   -0.2500   22.5660 C   0  0  0  0  0  0  0  0  0  0  0  0
    5.6260    0.7590   19.8690 C   0  0  0  0  0  0  0  0  0  0  0  0
    6.7930    0.0210   19.5790 C   0  0  0  0  0  0  0  0  0  0  0  0
   12.9770   -0.7640   22.1810 C   0  0  0  0  0  0  0  0  0  0  0  0
    8.6020    0.1230   21.2070 C   0  0  0  0  0  0  0  0  0  0  0  0
    5.0980    0.9060   21.2740 C   0  0  0  0  0  0  0  0  0  0  0  0
    9.2100   -0.5900   22.3990 C   0  0  0  0  0  0  0  0  0  0  0  0
    6.6320    0.5940   17.2520 N   0  0  0  0  0  0  0  0  0  0  0  0
    7.5630   -0.5230   20.6330 N   0  0  0  0  0  0  0  0  0  0  0  0
    9.0150    1.2120   20.8220 O   0  0  0  0  0  0  0  0  0  0  0  0
   14.1940   -1.9100   21.6990 Cl  0  0  0  0  0  0  0  0  0  0  0  0
   12.6720    2.3610   23.4053 H   0  0  0  0  0  0  0  0  0  0  0  0
   10.2994    1.6973   23.4158 H   0  0  0  0  0  0  0  0  0  0  0  0
   14.4033    0.7831   22.6425 H   0  0  0  0  0  0  0  0  0  0  0  0
    4.0894    1.9955   18.9731 H   0  0  0  0  0  0  0  0  0  0  0  0
   11.3638   -2.1297   21.7906 H   0  0  0  0  0  0  0  0  0  0  0  0
    5.0712    1.8129   16.6995 H   0  0  0  0  0  0  0  0  0  0  0  0
    8.1159   -0.6122   17.9919 H   0  0  0  0  0  0  0  0  0  0  0  0
    5.3304    1.9035   21.6646 H   0  0  0  0  0  0  0  0  0  0  0  0
    4.0110    0.7624   21.3059 H   0  0  0  0  0  0  0  0  0  0  0  0
    5.5388    0.1568   21.9433 H   0  0  0  0  0  0  0  0  0  0  0  0
    9.0901   -1.6664   22.2639 H   0  0  0  0  0  0  0  0  0  0  0  0
    8.6579   -0.3097   23.2977 H   0  0  0  0  0  0  0  0  0  0  0  0
    7.3129   -1.4300   20.9567 H   0  0  0  0  0  0  0  0  0  0  0  0
  1  2  2  0  0  0  0
  1  3  1  0  0  0  0
  2  8  1  0  0  0  0
  3 11  2  0  0  0  0
  4  6  2  0  0  0  0
  4  9  1  0  0  0  0
  5  8  2  0  0  0  0
  5 11  1  0  0  0  0
  6 15  1  0  0  0  0
  7 10  1  0  0  0  0
  7 15  2  0  0  0  0
  8 14  1  0  0  0  0
  9 10  2  0  0  0  0
  9 13  1  0  0  0  0
 10 16  1  0  0  0  0
 11 18  1  0  0  0  0
 12 14  1  0  0  0  0
 12 16  1  0  0  0  0
 12 17  2  0  0  0  0
  1 19  1  0  0  0  0
  2 20  1  0  0  0  0
  3 21  1  0  0  0  0
  4 22  1  0  0  0  0
  5 23  1  0  0  0  0
  6 24  1  0  0  0  0
  7 25  1  0  0  0  0
 13 26  1  0  0  0  0
 13 27  1  0  0  0  0
 13 28  1  0  0  0  0
 14 29  1  0  0  0  0
 14 30  1  0  0  0  0
 16 31  1  0  0  0  0
M  END
> <canonical_CID>
TRY-UNI-714a760b-6

> <r_inhibition_at_20_uM>
20.0252393

> <r_inhibition_at_50_uM>

> <r_avg_IC50>
13.8951649217851

> <f_inhibition_at_20_uM>
61.634345

> <f_inhibition_at_50_uM>
81.75696

> <f_avg_IC50>
24.5666191954425

> <f_avg_pIC50>
4.60965460606728

> <relative_solubility_at_20_uM>
1.0

> <relative_solubility_at_100_uM>
1.0

> <trypsin_IC50>
99.0

> <NMR_std_ratio>

> <acrylamide>
False

> <chloroacetamide>
False

> <series>
3-aminopyridine-like

> <clash_score>
0

> <docking_score>
-10.192285537719727

$$$$
TRY-UNI-714a760b-12
  -OEChem-08112022593D

 30 31  0     0  0  0  0  0  0999 V2000
   12.3850    1.3610   23.0530 C   0  0  0  0  0  0  0  0  0  0  0  0
   11.0490    1.0010   23.0460 C   0  0  0  0  0  0  0  0  0  0  0  0
   13.3680    0.4840   22.6240 C   0  0  0  0  0  0  0  0  0  0  0  0
    5.0000    1.4070   18.8080 C   0  0  0  0  0  0  0  0  0  0  0  0
   11.6520   -1.1420   22.1450 C   0  0  0  0  0  0  0  0  0  0  0  0
    5.5330    1.3060   17.5390 C   0  0  0  0  0  0  0  0  0  0  0  0
    7.2400   -0.0390   18.2610 C   0  0  0  0  0  0  0  0  0  0  0  0
    5.6260    0.7590   19.8690 C   0  0  0  0  0  0  0  0  0  0  0  0
   10.6720   -0.2500   22.5660 C   0  0  0  0  0  0  0  0  0  0  0  0
    6.7930    0.0210   19.5790 C   0  0  0  0  0  0  0  0  0  0  0  0
   12.9770   -0.7640   22.1810 C   0  0  0  0  0  0  0  0  0  0  0  0
    8.6020    0.1230   21.2070 C   0  0  0  0  0  0  0  0  0  0  0  0
    5.0980    0.9060   21.2740 C   0  0  0  0  0  0  0  0  0  0  0  0
    6.6320    0.5940   17.2520 N   0  0  0  0  0  0  0  0  0  0  0  0
    9.2100   -0.5900   22.3990 N   0  0  0  0  0  0  0  0  0  0  0  0
    7.5630   -0.5230   20.6330 N   0  0  0  0  0  0  0  0  0  0  0  0
    9.0150    1.2120   20.8220 O   0  0  0  0  0  0  0  0  0  0  0  0
   14.1940   -1.9100   21.6990 Cl  0  0  0  0  0  0  0  0  0  0  0  0
   12.6724    2.3610   23.4052 H   0  0  0  0  0  0  0  0  0  0  0  0
   10.3013    1.6995   23.4166 H   0  0  0  0  0  0  0  0  0  0  0  0
   14.4027    0.7838   22.6422 H   0  0  0  0  0  0  0  0  0  0  0  0
    4.0894    1.9955   18.9731 H   0  0  0  0  0  0  0  0  0  0  0  0
   11.3653   -2.1304   21.7904 H   0  0  0  0  0  0  0  0  0  0  0  0
    5.0712    1.8129   16.6995 H   0  0  0  0  0  0  0  0  0  0  0  0
    8.1159   -0.6122   17.9919 H   0  0  0  0  0  0  0  0  0  0  0  0
    4.2728    0.2051   21.4449 H   0  0  0  0  0  0  0  0  0  0  0  0
    5.8827    0.7095   22.0149 H   0  0  0  0  0  0  0  0  0  0  0  0
    4.7348    1.9250   21.4562 H   0  0  0  0  0  0  0  0  0  0  0  0
    8.7780   -1.1266   22.9226 H   0  0  0  0  0  0  0  0  0  0  0  0
    7.3031   -1.4280   20.9474 H   0  0  0  0  0  0  0  0  0  0  0  0
  1  2  2  0  0  0  0
  1  3  1  0  0  0  0
  2  9  1  0  0  0  0
  3 11  2  0  0  0  0
  4  6  2  0  0  0  0
  4  8  1  0  0  0  0
  5  9  2  0  0  0  0
  5 11  1  0  0  0  0
  6 14  1  0  0  0  0
  7 10  1  0  0  0  0
  7 14  2  0  0  0  0
  8 10  2  0  0  0  0
  8 13  1  0  0  0  0
  9 15  1  0  0  0  0
 10 16  1  0  0  0  0
 11 18  1  0  0  0  0
 12 15  1  0  0  0  0
 12 16  1  0  0  0  0
 12 17  2  0  0  0  0
  1 19  1  0  0  0  0
  2 20  1  0  0  0  0
  3 21  1  0  0  0  0
  4 22  1  0  0  0  0
  5 23  1  0  0  0  0
  6 24  1  0  0  0  0
  7 25  1  0  0  0  0
 13 26  1  0  0  0  0
 13 27  1  0  0  0  0
 13 28  1  0  0  0  0
 15 29  1  0  0  0  0
 16 30  1  0  0  0  0
M  END
> <canonical_CID>
TRY-UNI-714a760b-12

> <r_inhibition_at_20_uM>
25.5825

> <r_inhibition_at_50_uM>
64.135

> <r_avg_IC50>
45.6892627861479

> <f_inhibition_at_20_uM>
32.14497

> <f_inhibition_at_50_uM>
58.708675

> <f_avg_IC50>
64.4136105144302

> <f_avg_pIC50>
4.19102235706909

> <relative_solubility_at_20_uM>
0.99

> <relative_solubility_at_100_uM>
0.96

> <trypsin_IC50>
99.0

> <NMR_std_ratio>

> <acrylamide>
False

> <chloroacetamide>
False

> <series>
3-aminopyridine-like

> <clash_score>
0

> <docking_score>
-9.854488372802734

$$$$
TRY-UNI-714a760b-18
  -OEChem-08112022593D

 34 35  0     1  0  0  0  0  0999 V2000
   12.3850    1.3610   23.0530 C   0  0  0  0  0  0  0  0  0  0  0  0
   11.0490    1.0010   23.0460 C   0  0  0  0  0  0  0  0  0  0  0  0
   13.3680    0.4840   22.6240 C   0  0  0  0  0  0  0  0  0  0  0  0
    5.0000    1.4070   18.8080 C   0  0  0  0  0  0  0  0  0  0  0  0
   11.6520   -1.1420   22.1450 C   0  0  0  0  0  0  0  0  0  0  0  0
    5.5330    1.3060   17.5390 C   0  0  0  0  0  0  0  0  0  0  0  0
    7.2400   -0.0390   18.2610 C   0  0  0  0  0  0  0  0  0  0  0  0
   10.6720   -0.2500   22.5660 C   0  0  0  0  0  0  0  0  0  0  0  0
    5.6260    0.7590   19.8690 C   0  0  0  0  0  0  0  0  0  0  0  0
    6.7930    0.0210   19.5790 C   0  0  0  0  0  0  0  0  0  0  0  0
   12.9770   -0.7640   22.1810 C   0  0  0  0  0  0  0  0  0  0  0  0
    8.6020    0.1230   21.2070 C   0  0  0  0  0  0  0  0  0  0  0  0
    5.0980    0.9060   21.2740 C   0  0  0  0  0  0  0  0  0  0  0  0
    8.9959   -2.1117   22.3062 C   0  0  0  0  0  0  0  0  0  0  0  0
    9.2100   -0.5900   22.3990 C   0  0  1  0  0  0  0  0  0  0  0  0
    6.6320    0.5940   17.2520 N   0  0  0  0  0  0  0  0  0  0  0  0
    7.5630   -0.5230   20.6330 N   0  0  0  0  0  0  0  0  0  0  0  0
    9.0150    1.2120   20.8220 O   0  0  0  0  0  0  0  0  0  0  0  0
   14.1940   -1.9100   21.6990 Cl  0  0  0  0  0  0  0  0  0  0  0  0
   12.6720    2.3610   23.4053 H   0  0  0  0  0  0  0  0  0  0  0  0
   10.2994    1.6973   23.4158 H   0  0  0  0  0  0  0  0  0  0  0  0
   14.4033    0.7831   22.6425 H   0  0  0  0  0  0  0  0  0  0  0  0
    4.0894    1.9955   18.9731 H   0  0  0  0  0  0  0  0  0  0  0  0
   11.3638   -2.1297   21.7906 H   0  0  0  0  0  0  0  0  0  0  0  0
    5.0712    1.8129   16.6995 H   0  0  0  0  0  0  0  0  0  0  0  0
    8.1159   -0.6122   17.9919 H   0  0  0  0  0  0  0  0  0  0  0  0
    5.2553   -0.0208   21.8377 H   0  0  0  0  0  0  0  0  0  0  0  0
    5.5999    1.7260   21.8022 H   0  0  0  0  0  0  0  0  0  0  0  0
    4.0254    1.1365   21.2721 H   0  0  0  0  0  0  0  0  0  0  0  0
    9.5333   -2.5426   21.4540 H   0  0  0  0  0  0  0  0  0  0  0  0
    9.3396   -2.6341   23.2061 H   0  0  0  0  0  0  0  0  0  0  0  0
    7.9299   -2.3313   22.1801 H   0  0  0  0  0  0  0  0  0  0  0  0
    8.6439   -0.2596   23.2905 H   0  0  0  0  0  0  0  0  0  0  0  0
    7.2972   -1.4288   20.9467 H   0  0  0  0  0  0  0  0  0  0  0  0
  1  2  2  0  0  0  0
  1  3  1  0  0  0  0
  2  8  1  0  0  0  0
  3 11  2  0  0  0  0
  4  6  2  0  0  0  0
  4  9  1  0  0  0  0
  5  8  2  0  0  0  0
  5 11  1  0  0  0  0
  6 16  1  0  0  0  0
  7 10  1  0  0  0  0
  7 16  2  0  0  0  0
  8 15  1  0  0  0  0
  9 10  2  0  0  0  0
  9 13  1  0  0  0  0
 10 17  1  0  0  0  0
 11 19  1  0  0  0  0
 12 15  1  0  0  0  0
 12 17  1  0  0  0  0
 12 18  2  0  0  0  0
 14 15  1  1  0  0  0
  1 20  1  0  0  0  0
  2 21  1  0  0  0  0
  3 22  1  0  0  0  0
  4 23  1  0  0  0  0
  5 24  1  0  0  0  0
  6 25  1  0  0  0  0
  7 26  1  0  0  0  0
 13 27  1  0  0  0  0
 13 28  1  0  0  0  0
 13 29  1  0  0  0  0
 14 30  1  0  0  0  0
 14 31  1  0  0  0  0
 14 32  1  0  0  0  0
 15 33  1  0  0  0  0
 17 34  1  0  0  0  0
M  END
> <canonical_CID>
TRY-UNI-714a760b-18

> <r_inhibition_at_20_uM>
20.37830295

> <r_inhibition_at_50_uM>

> <r_avg_IC50>
12.9676931084341

> <f_inhibition_at_20_uM>
58.02024

> <f_inhibition_at_50_uM>
78.712695

> <f_avg_IC50>
26.1796376915625

> <f_avg_pIC50>
4.58203636808488

> <relative_solubility_at_20_uM>
1.0

> <relative_solubility_at_100_uM>
1.0

> <trypsin_IC50>
99.0

> <NMR_std_ratio>

> <acrylamide>
False

> <chloroacetamide>
False

> <series>
3-aminopyridine-like

> <clash_score>
0

> <docking_score>
-10.580694198608398

$$$$
TRY-UNI-714a760b-20
  -OEChem-08112022593D

 32 33  0     0  0  0  0  0  0999 V2000
   12.7170    2.6360   23.4450 C   0  0  0  0  0  0  0  0  0  0  0  0
   12.9770   -0.7640   22.1810 C   0  0  0  0  0  0  0  0  0  0  0  0
   13.3680    0.4840   22.6240 C   0  0  0  0  0  0  0  0  0  0  0  0
   11.6520   -1.1420   22.1450 C   0  0  0  0  0  0  0  0  0  0  0  0
    5.0000    1.4070   18.8080 C   0  0  0  0  0  0  0  0  0  0  0  0
   11.0490    1.0010   23.0460 C   0  0  0  0  0  0  0  0  0  0  0  0
    5.5330    1.3060   17.5390 C   0  0  0  0  0  0  0  0  0  0  0  0
    7.2400   -0.0390   18.2610 C   0  0  0  0  0  0  0  0  0  0  0  0
   12.3850    1.3610   23.0530 C   0  0  0  0  0  0  0  0  0  0  0  0
   10.6720   -0.2500   22.5660 C   0  0  0  0  0  0  0  0  0  0  0  0
    5.6260    0.7590   19.8690 C   0  0  0  0  0  0  0  0  0  0  0  0
    6.7930    0.0210   19.5790 C   0  0  0  0  0  0  0  0  0  0  0  0
    8.6020    0.1230   21.2070 C   0  0  0  0  0  0  0  0  0  0  0  0
    5.0980    0.9060   21.2740 C   0  0  0  0  0  0  0  0  0  0  0  0
    9.2100   -0.5900   22.3990 C   0  0  0  0  0  0  0  0  0  0  0  0
   12.9780    3.4700   22.3070 N   0  0  0  0  0  0  0  0  0  0  0  0
    6.6320    0.5940   17.2520 N   0  0  0  0  0  0  0  0  0  0  0  0
    7.5630   -0.5230   20.6330 N   0  0  0  0  0  0  0  0  0  0  0  0
    9.0150    1.2120   20.8220 O   0  0  0  0  0  0  0  0  0  0  0  0
   13.7489   -1.4799   21.8469 H   0  0  0  0  0  0  0  0  0  0  0  0
   14.4112    0.7553   22.6303 H   0  0  0  0  0  0  0  0  0  0  0  0
   11.3790   -2.1324   21.7884 H   0  0  0  0  0  0  0  0  0  0  0  0
    4.0894    1.9955   18.9731 H   0  0  0  0  0  0  0  0  0  0  0  0
   10.2872    1.6870   23.4139 H   0  0  0  0  0  0  0  0  0  0  0  0
    5.0712    1.8129   16.6995 H   0  0  0  0  0  0  0  0  0  0  0  0
    8.1159   -0.6122   17.9919 H   0  0  0  0  0  0  0  0  0  0  0  0
    5.3779    1.8830   21.6846 H   0  0  0  0  0  0  0  0  0  0  0  0
    4.0050    0.8168   21.2980 H   0  0  0  0  0  0  0  0  0  0  0  0
    5.4968    0.1232   21.9311 H   0  0  0  0  0  0  0  0  0  0  0  0
    9.0901   -1.6664   22.2639 H   0  0  0  0  0  0  0  0  0  0  0  0
    8.6579   -0.3097   23.2977 H   0  0  0  0  0  0  0  0  0  0  0  0
    7.3129   -1.4300   20.9567 H   0  0  0  0  0  0  0  0  0  0  0  0
  1  9  1  0  0  0  0
  1 16  3  0  0  0  0
  2  3  1  0  0  0  0
  2  4  2  0  0  0  0
  3  9  2  0  0  0  0
  4 10  1  0  0  0  0
  5  7  2  0  0  0  0
  5 11  1  0  0  0  0
  6  9  1  0  0  0  0
  6 10  2  0  0  0  0
  7 17  1  0  0  0  0
  8 12  1  0  0  0  0
  8 17  2  0  0  0  0
 10 15  1  0  0  0  0
 11 12  2  0  0  0  0
 11 14  1  0  0  0  0
 12 18  1  0  0  0  0
 13 15  1  0  0  0  0
 13 18  1  0  0  0  0
 13 19  2  0  0  0  0
  2 20  1  0  0  0  0
  3 21  1  0  0  0  0
  4 22  1  0  0  0  0
  5 23  1  0  0  0  0
  6 24  1  0  0  0  0
  7 25  1  0  0  0  0
  8 26  1  0  0  0  0
 14 27  1  0  0  0  0
 14 28  1  0  0  0  0
 14 29  1  0  0  0  0
 15 30  1  0  0  0  0
 15 31  1  0  0  0  0
 18 32  1  0  0  0  0
M  END
> <canonical_CID>
TRY-UNI-714a760b-20

> <r_inhibition_at_20_uM>
20.495

> <r_inhibition_at_50_uM>
52.68

> <r_avg_IC50>
43.8470509906189

> <f_inhibition_at_20_uM>
33.561645

> <f_inhibition_at_50_uM>
58.318795

> <f_avg_IC50>
61.3302720094334

> <f_avg_pIC50>
4.21232510914368

> <relative_solubility_at_20_uM>
1.0

> <relative_solubility_at_100_uM>
1.01

> <trypsin_IC50>
99.0

> <NMR_std_ratio>

> <acrylamide>
False

> <chloroacetamide>
False

> <series>
3-aminopyridine-like

> <clash_score>
0

> <docking_score>
-10.595052719116211

$$$$
TRY-UNI-714a760b-22
  -OEChem-08112022593D

 35 36  0     1  0  0  0  0  0999 V2000
   12.7170    2.6360   23.4450 C   0  0  0  0  0  0  0  0  0  0  0  0
   12.9770   -0.7640   22.1810 C   0  0  0  0  0  0  0  0  0  0  0  0
   13.3680    0.4840   22.6240 C   0  0  0  0  0  0  0  0  0  0  0  0
   11.6520   -1.1420   22.1450 C   0  0  0  0  0  0  0  0  0  0  0  0
    5.0000    1.4070   18.8080 C   0  0  0  0  0  0  0  0  0  0  0  0
   11.0490    1.0010   23.0460 C   0  0  0  0  0  0  0  0  0  0  0  0
    5.5330    1.3060   17.5390 C   0  0  0  0  0  0  0  0  0  0  0  0
    7.2400   -0.0390   18.2610 C   0  0  0  0  0  0  0  0  0  0  0  0
   12.3850    1.3610   23.0530 C   0  0  0  0  0  0  0  0  0  0  0  0
   10.6720   -0.2500   22.5660 C   0  0  0  0  0  0  0  0  0  0  0  0
    5.6260    0.7590   19.8690 C   0  0  0  0  0  0  0  0  0  0  0  0
    6.7930    0.0210   19.5790 C   0  0  0  0  0  0  0  0  0  0  0  0
    8.6020    0.1230   21.2070 C   0  0  0  0  0  0  0  0  0  0  0  0
    5.0980    0.9060   21.2740 C   0  0  0  0  0  0  0  0  0  0  0  0
    8.9959   -2.1117   22.3062 C   0  0  0  0  0  0  0  0  0  0  0  0
    9.2100   -0.5900   22.3990 C   0  0  1  0  0  0  0  0  0  0  0  0
   12.9780    3.4700   22.3070 N   0  0  0  0  0  0  0  0  0  0  0  0
    6.6320    0.5940   17.2520 N   0  0  0  0  0  0  0  0  0  0  0  0
    7.5630   -0.5230   20.6330 N   0  0  0  0  0  0  0  0  0  0  0  0
    9.0150    1.2120   20.8220 O   0  0  0  0  0  0  0  0  0  0  0  0
   13.7489   -1.4799   21.8469 H   0  0  0  0  0  0  0  0  0  0  0  0
   14.4112    0.7553   22.6303 H   0  0  0  0  0  0  0  0  0  0  0  0
   11.3790   -2.1324   21.7884 H   0  0  0  0  0  0  0  0  0  0  0  0
    4.0894    1.9955   18.9731 H   0  0  0  0  0  0  0  0  0  0  0  0
   10.2872    1.6870   23.4139 H   0  0  0  0  0  0  0  0  0  0  0  0
    5.0712    1.8129   16.6995 H   0  0  0  0  0  0  0  0  0  0  0  0
    8.1159   -0.6122   17.9919 H   0  0  0  0  0  0  0  0  0  0  0  0
    5.4441    1.8488   21.7131 H   0  0  0  0  0  0  0  0  0  0  0  0
    4.0012    0.8954   21.2883 H   0  0  0  0  0  0  0  0  0  0  0  0
    5.4337    0.0790   21.9120 H   0  0  0  0  0  0  0  0  0  0  0  0
    9.5332   -2.5427   21.4540 H   0  0  0  0  0  0  0  0  0  0  0  0
    9.3396   -2.6341   23.2061 H   0  0  0  0  0  0  0  0  0  0  0  0
    7.9298   -2.3312   22.1801 H   0  0  0  0  0  0  0  0  0  0  0  0
    8.6438   -0.2596   23.2905 H   0  0  0  0  0  0  0  0  0  0  0  0
    7.2972   -1.4288   20.9467 H   0  0  0  0  0  0  0  0  0  0  0  0
  1  9  1  0  0  0  0
  1 17  3  0  0  0  0
  2  3  1  0  0  0  0
  2  4  2  0  0  0  0
  3  9  2  0  0  0  0
  4 10  1  0  0  0  0
  5  7  2  0  0  0  0
  5 11  1  0  0  0  0
  6  9  1  0  0  0  0
  6 10  2  0  0  0  0
  7 18  1  0  0  0  0
  8 12  1  0  0  0  0
  8 18  2  0  0  0  0
 10 16  1  0  0  0  0
 11 12  2  0  0  0  0
 11 14  1  0  0  0  0
 12 19  1  0  0  0  0
 13 16  1  0  0  0  0
 13 19  1  0  0  0  0
 13 20  2  0  0  0  0
 15 16  1  1  0  0  0
  2 21  1  0  0  0  0
  3 22  1  0  0  0  0
  4 23  1  0  0  0  0
  5 24  1  0  0  0  0
  6 25  1  0  0  0  0
  7 26  1  0  0  0  0
  8 27  1  0  0  0  0
 14 28  1  0  0  0  0
 14 29  1  0  0  0  0
 14 30  1  0  0  0  0
 15 31  1  0  0  0  0
 15 32  1  0  0  0  0
 15 33  1  0  0  0  0
 16 34  1  0  0  0  0
 19 35  1  0  0  0  0
M  END
> <canonical_CID>
TRY-UNI-714a760b-22

> <r_inhibition_at_20_uM>
21.0225

> <r_inhibition_at_50_uM>
58.415

> <r_avg_IC50>
45.3119234238456

> <f_inhibition_at_20_uM>
35.40893

> <f_inhibition_at_50_uM>
61.411195

> <f_avg_IC50>
54.9421036995899

> <f_avg_pIC50>
4.26009471572667

> <relative_solubility_at_20_uM>
1.0

> <relative_solubility_at_100_uM>
1.0

> <trypsin_IC50>
99.0

> <NMR_std_ratio>

> <acrylamide>
False

> <chloroacetamide>
False

> <series>
3-aminopyridine-like

> <clash_score>
0

> <docking_score>
-10.983453750610352

$$$$
TRY-UNI-714a760b-18
  -OEChem-08112022593D

 34 35  0     1  0  0  0  0  0999 V2000
   12.3850    1.3610   23.0530 C   0  0  0  0  0  0  0  0  0  0  0  0
   11.0490    1.0010   23.0460 C   0  0  0  0  0  0  0  0  0  0  0  0
   13.3680    0.4840   22.6240 C   0  0  0  0  0  0  0  0  0  0  0  0
    5.0000    1.4070   18.8080 C   0  0  0  0  0  0  0  0  0  0  0  0
   11.6520   -1.1420   22.1450 C   0  0  0  0  0  0  0  0  0  0  0  0
    5.5330    1.3060   17.5390 C   0  0  0  0  0  0  0  0  0  0  0  0
    7.2400   -0.0390   18.2610 C   0  0  0  0  0  0  0  0  0  0  0  0
   10.6720   -0.2500   22.5660 C   0  0  0  0  0  0  0  0  0  0  0  0
    5.6260    0.7590   19.8690 C   0  0  0  0  0  0  0  0  0  0  0  0
    6.7930    0.0210   19.5790 C   0  0  0  0  0  0  0  0  0  0  0  0
   12.9770   -0.7640   22.1810 C   0  0  0  0  0  0  0  0  0  0  0  0
    8.6020    0.1230   21.2070 C   0  0  0  0  0  0  0  0  0  0  0  0
    5.0980    0.9060   21.2740 C   0  0  0  0  0  0  0  0  0  0  0  0
    8.4096   -0.2852   23.6771 C   0  0  0  0  0  0  0  0  0  0  0  0
    9.2100   -0.5900   22.3990 C   0  0  2  0  0  0  0  0  0  0  0  0
    6.6320    0.5940   17.2520 N   0  0  0  0  0  0  0  0  0  0  0  0
    7.5630   -0.5230   20.6330 N   0  0  0  0  0  0  0  0  0  0  0  0
    9.0150    1.2120   20.8220 O   0  0  0  0  0  0  0  0  0  0  0  0
   14.1940   -1.9100   21.6990 Cl  0  0  0  0  0  0  0  0  0  0  0  0
   12.6720    2.3610   23.4053 H   0  0  0  0  0  0  0  0  0  0  0  0
   10.2994    1.6973   23.4158 H   0  0  0  0  0  0  0  0  0  0  0  0
   14.4033    0.7831   22.6425 H   0  0  0  0  0  0  0  0  0  0  0  0
    4.0894    1.9955   18.9731 H   0  0  0  0  0  0  0  0  0  0  0  0
   11.3638   -2.1297   21.7906 H   0  0  0  0  0  0  0  0  0  0  0  0
    5.0712    1.8129   16.6995 H   0  0  0  0  0  0  0  0  0  0  0  0
    8.1159   -0.6122   17.9919 H   0  0  0  0  0  0  0  0  0  0  0  0
    4.3803    1.7329   21.3254 H   0  0  0  0  0  0  0  0  0  0  0  0
    4.5985   -0.0119   21.6077 H   0  0  0  0  0  0  0  0  0  0  0  0
    5.9106    1.1036   21.9840 H   0  0  0  0  0  0  0  0  0  0  0  0
    8.4737    0.7742   23.9500 H   0  0  0  0  0  0  0  0  0  0  0  0
    7.3483   -0.5242   23.5461 H   0  0  0  0  0  0  0  0  0  0  0  0
    8.7824   -0.8752   24.5218 H   0  0  0  0  0  0  0  0  0  0  0  0
    9.0955   -1.6749   22.2175 H   0  0  0  0  0  0  0  0  0  0  0  0
    7.2972   -1.4288   20.9467 H   0  0  0  0  0  0  0  0  0  0  0  0
  1  2  2  0  0  0  0
  1  3  1  0  0  0  0
  2  8  1  0  0  0  0
  3 11  2  0  0  0  0
  4  6  2  0  0  0  0
  4  9  1  0  0  0  0
  5  8  2  0  0  0  0
  5 11  1  0  0  0  0
  6 16  1  0  0  0  0
  7 10  1  0  0  0  0
  7 16  2  0  0  0  0
  8 15  1  0  0  0  0
  9 10  2  0  0  0  0
  9 13  1  0  0  0  0
 10 17  1  0  0  0  0
 11 19  1  0  0  0  0
 12 15  1  0  0  0  0
 12 17  1  0  0  0  0
 12 18  2  0  0  0  0
 14 15  1  6  0  0  0
  1 20  1  0  0  0  0
  2 21  1  0  0  0  0
  3 22  1  0  0  0  0
  4 23  1  0  0  0  0
  5 24  1  0  0  0  0
  6 25  1  0  0  0  0
  7 26  1  0  0  0  0
 13 27  1  0  0  0  0
 13 28  1  0  0  0  0
 13 29  1  0  0  0  0
 14 30  1  0  0  0  0
 14 31  1  0  0  0  0
 14 32  1  0  0  0  0
 15 33  1  0  0  0  0
 17 34  1  0  0  0  0
M  END
> <canonical_CID>
TRY-UNI-714a760b-18

> <r_inhibition_at_20_uM>
20.37830295

> <r_inhibition_at_50_uM>

> <r_avg_IC50>
12.9676931084341

> <f_inhibition_at_20_uM>
58.02024

> <f_inhibition_at_50_uM>
78.712695

> <f_avg_IC50>
26.1796376915625

> <f_avg_pIC50>
4.58203636808488

> <relative_solubility_at_20_uM>
1.0

> <relative_solubility_at_100_uM>
1.0

> <trypsin_IC50>
99.0

> <NMR_std_ratio>

> <acrylamide>
False

> <chloroacetamide>
False

> <series>
3-aminopyridine-like

> <clash_score>
0

> <docking_score>
-10.280433654785156

$$$$
TRY-UNI-714a760b-22
  -OEChem-08112022593D

 35 36  0     1  0  0  0  0  0999 V2000
   12.7170    2.6360   23.4450 C   0  0  0  0  0  0  0  0  0  0  0  0
   12.9770   -0.7640   22.1810 C   0  0  0  0  0  0  0  0  0  0  0  0
   13.3680    0.4840   22.6240 C   0  0  0  0  0  0  0  0  0  0  0  0
   11.6520   -1.1420   22.1450 C   0  0  0  0  0  0  0  0  0  0  0  0
    5.0000    1.4070   18.8080 C   0  0  0  0  0  0  0  0  0  0  0  0
   11.0490    1.0010   23.0460 C   0  0  0  0  0  0  0  0  0  0  0  0
    5.5330    1.3060   17.5390 C   0  0  0  0  0  0  0  0  0  0  0  0
    7.2400   -0.0390   18.2610 C   0  0  0  0  0  0  0  0  0  0  0  0
   12.3850    1.3610   23.0530 C   0  0  0  0  0  0  0  0  0  0  0  0
   10.6720   -0.2500   22.5660 C   0  0  0  0  0  0  0  0  0  0  0  0
    5.6260    0.7590   19.8690 C   0  0  0  0  0  0  0  0  0  0  0  0
    6.7930    0.0210   19.5790 C   0  0  0  0  0  0  0  0  0  0  0  0
    8.6020    0.1230   21.2070 C   0  0  0  0  0  0  0  0  0  0  0  0
    5.0980    0.9060   21.2740 C   0  0  0  0  0  0  0  0  0  0  0  0
    8.4096   -0.2851   23.6771 C   0  0  0  0  0  0  0  0  0  0  0  0
    9.2100   -0.5900   22.3990 C   0  0  2  0  0  0  0  0  0  0  0  0
   12.9780    3.4700   22.3070 N   0  0  0  0  0  0  0  0  0  0  0  0
    6.6320    0.5940   17.2520 N   0  0  0  0  0  0  0  0  0  0  0  0
    7.5630   -0.5230   20.6330 N   0  0  0  0  0  0  0  0  0  0  0  0
    9.0150    1.2120   20.8220 O   0  0  0  0  0  0  0  0  0  0  0  0
   13.7489   -1.4799   21.8469 H   0  0  0  0  0  0  0  0  0  0  0  0
   14.4112    0.7553   22.6303 H   0  0  0  0  0  0  0  0  0  0  0  0
   11.3790   -2.1324   21.7884 H   0  0  0  0  0  0  0  0  0  0  0  0
    4.0894    1.9955   18.9731 H   0  0  0  0  0  0  0  0  0  0  0  0
   10.2872    1.6870   23.4139 H   0  0  0  0  0  0  0  0  0  0  0  0
    5.0712    1.8129   16.6995 H   0  0  0  0  0  0  0  0  0  0  0  0
    8.1159   -0.6122   17.9919 H   0  0  0  0  0  0  0  0  0  0  0  0
    5.8787    0.6550   22.0013 H   0  0  0  0  0  0  0  0  0  0  0  0
    4.7591    1.9317   21.4647 H   0  0  0  0  0  0  0  0  0  0  0  0
    4.2367    0.2482   21.4444 H   0  0  0  0  0  0  0  0  0  0  0  0
    8.4737    0.7742   23.9500 H   0  0  0  0  0  0  0  0  0  0  0  0
    7.3482   -0.5242   23.5461 H   0  0  0  0  0  0  0  0  0  0  0  0
    8.7823   -0.8752   24.5218 H   0  0  0  0  0  0  0  0  0  0  0  0
    9.0955   -1.6749   22.2175 H   0  0  0  0  0  0  0  0  0  0  0  0
    7.2972   -1.4288   20.9467 H   0  0  0  0  0  0  0  0  0  0  0  0
  1  9  1  0  0  0  0
  1 17  3  0  0  0  0
  2  3  1  0  0  0  0
  2  4  2  0  0  0  0
  3  9  2  0  0  0  0
  4 10  1  0  0  0  0
  5  7  2  0  0  0  0
  5 11  1  0  0  0  0
  6  9  1  0  0  0  0
  6 10  2  0  0  0  0
  7 18  1  0  0  0  0
  8 12  1  0  0  0  0
  8 18  2  0  0  0  0
 10 16  1  0  0  0  0
 11 12  2  0  0  0  0
 11 14  1  0  0  0  0
 12 19  1  0  0  0  0
 13 16  1  0  0  0  0
 13 19  1  0  0  0  0
 13 20  2  0  0  0  0
 15 16  1  6  0  0  0
  2 21  1  0  0  0  0
  3 22  1  0  0  0  0
  4 23  1  0  0  0  0
  5 24  1  0  0  0  0
  6 25  1  0  0  0  0
  7 26  1  0  0  0  0
  8 27  1  0  0  0  0
 14 28  1  0  0  0  0
 14 29  1  0  0  0  0
 14 30  1  0  0  0  0
 15 31  1  0  0  0  0
 15 32  1  0  0  0  0
 15 33  1  0  0  0  0
 16 34  1  0  0  0  0
 19 35  1  0  0  0  0
M  END
> <canonical_CID>
TRY-UNI-714a760b-22

> <r_inhibition_at_20_uM>
21.0225

> <r_inhibition_at_50_uM>
58.415

> <r_avg_IC50>
45.3119234238456

> <f_inhibition_at_20_uM>
35.40893

> <f_inhibition_at_50_uM>
61.411195

> <f_avg_IC50>
54.9421036995899

> <f_avg_pIC50>
4.26009471572667

> <relative_solubility_at_20_uM>
1.0

> <relative_solubility_at_100_uM>
1.0

> <trypsin_IC50>
99.0

> <NMR_std_ratio>

> <acrylamide>
False

> <chloroacetamide>
False

> <series>
3-aminopyridine-like

> <clash_score>
0

> <docking_score>
-10.683197021484375

$$$$
DAR-DIA-23aa0b97-8
  -OEChem-08112022593D

 30 31  0     0  0  0  0  0  0999 V2000
   12.7170    2.6360   23.4450 C   0  0  0  0  0  0  0  0  0  0  0  0
   12.9770   -0.7640   22.1810 C   0  0  0  0  0  0  0  0  0  0  0  0
   13.3680    0.4840   22.6240 C   0  0  0  0  0  0  0  0  0  0  0  0
   11.6520   -1.1420   22.1450 C   0  0  0  0  0  0  0  0  0  0  0  0
   11.0490    1.0010   23.0460 C   0  0  0  0  0  0  0  0  0  0  0  0
    7.2400   -0.0390   18.2610 C   0  0  0  0  0  0  0  0  0  0  0  0
    5.5330    1.3060   17.5390 C   0  0  0  0  0  0  0  0  0  0  0  0
    5.6260    0.7590   19.8690 C   0  0  0  0  0  0  0  0  0  0  0  0
   12.3850    1.3610   23.0530 C   0  0  0  0  0  0  0  0  0  0  0  0
   10.6720   -0.2500   22.5660 C   0  0  0  0  0  0  0  0  0  0  0  0
    6.6320    0.5940   17.2520 C   0  0  0  0  0  0  0  0  0  0  0  0
    6.7930    0.0210   19.5790 C   0  0  0  0  0  0  0  0  0  0  0  0
    8.6020    0.1230   21.2070 C   0  0  0  0  0  0  0  0  0  0  0  0
   12.9780    3.4700   22.3070 N   0  0  0  0  0  0  0  0  0  0  0  0
    5.0000    1.4070   18.8080 N   0  0  0  0  0  0  0  0  0  0  0  0
    7.1285    0.5169   15.9250 N   0  0  0  0  0  0  0  0  0  0  0  0
    9.2100   -0.5900   22.3990 N   0  0  0  0  0  0  0  0  0  0  0  0
    7.5630   -0.5230   20.6330 N   0  0  0  0  0  0  0  0  0  0  0  0
    9.0150    1.2120   20.8220 O   0  0  0  0  0  0  0  0  0  0  0  0
   13.7491   -1.4789   21.8451 H   0  0  0  0  0  0  0  0  0  0  0  0
   14.4113    0.7544   22.6312 H   0  0  0  0  0  0  0  0  0  0  0  0
   11.3808   -2.1332   21.7885 H   0  0  0  0  0  0  0  0  0  0  0  0
   10.2889    1.6892   23.4140 H   0  0  0  0  0  0  0  0  0  0  0  0
    8.1540   -0.6548   18.0592 H   0  0  0  0  0  0  0  0  0  0  0  0
    4.9716    1.8647   16.7948 H   0  0  0  0  0  0  0  0  0  0  0  0
    5.2019    0.8561   20.8009 H   0  0  0  0  0  0  0  0  0  0  0  0
    7.9787    0.0160   15.7460 H   0  0  0  0  0  0  0  0  0  0  0  0
    6.6792    1.0401   15.1969 H   0  0  0  0  0  0  0  0  0  0  0  0
    8.7781   -1.1266   22.9227 H   0  0  0  0  0  0  0  0  0  0  0  0
    7.3031   -1.4280   20.9474 H   0  0  0  0  0  0  0  0  0  0  0  0
  1  9  1  0  0  0  0
  1 14  3  0  0  0  0
  2  3  2  0  0  0  0
  2  4  1  0  0  0  0
  3  9  1  0  0  0  0
  4 10  2  0  0  0  0
  5  9  2  0  0  0  0
  5 10  1  0  0  0  0
  6 11  1  0  0  0  0
  6 12  2  0  0  0  0
  7 11  2  0  0  0  0
  7 15  1  0  0  0  0
  8 12  1  0  0  0  0
  8 15  2  0  0  0  0
 10 17  1  0  0  0  0
 11 16  1  0  0  0  0
 12 18  1  0  0  0  0
 13 17  1  0  0  0  0
 13 18  1  0  0  0  0
 13 19  2  0  0  0  0
  2 20  1  0  0  0  0
  3 21  1  0  0  0  0
  4 22  1  0  0  0  0
  5 23  1  0  0  0  0
  6 24  1  0  0  0  0
  7 25  1  0  0  0  0
  8 26  1  0  0  0  0
 16 27  1  0  0  0  0
 16 28  1  0  0  0  0
 17 29  1  0  0  0  0
 18 30  1  0  0  0  0
M  END
> <canonical_CID>
DAR-DIA-23aa0b97-8

> <r_inhibition_at_20_uM>
9.085

> <r_inhibition_at_50_uM>
48.4

> <r_avg_IC50>

> <f_inhibition_at_20_uM>

> <f_inhibition_at_50_uM>
57.24192

> <f_avg_IC50>
54.2729639849878

> <f_avg_pIC50>
4.26541645984352

> <relative_solubility_at_20_uM>
1.0

> <relative_solubility_at_100_uM>
1.0

> <trypsin_IC50>
99.0

> <NMR_std_ratio>

> <acrylamide>
False

> <chloroacetamide>
False

> <series>
3-aminopyridine-like

> <clash_score>
0.758386096827627

> <docking_score>
-5.486564636230469

$$$$
