ANT-DIA-b7f-9
 OpenBabel03242009303D

 44 45  0  0  0  0  0  0  0  0999 V2000
    7.8838   -5.5422   28.9285 C   0  0  0  0  0  0  0  0  0  0  0  0
    9.4310   -3.8796   28.0221 C   0  0  0  0  0  0  0  0  0  0  0  0
    9.8240   -3.0211   26.9955 C   0  0  0  0  0  0  0  0  0  0  0  0
    7.5326   -4.5857   26.7050 C   0  0  0  0  0  0  0  0  0  0  0  0
    8.2853   -4.6619   27.8769 C   0  0  0  0  0  0  0  0  0  0  0  0
    7.9257   -3.7271   25.6783 C   0  0  0  0  0  0  0  0  0  0  0  0
    9.0714   -2.9448   25.8236 C   0  0  0  0  0  0  0  0  0  0  0  0
   10.1838   -0.8669   24.9307 C   0  0  0  0  0  0  0  0  0  0  0  0
   11.2222   -1.3654   22.6340 C   0  0  0  0  0  0  0  0  0  0  0  0
   11.6695    0.7652   23.7940 C   0  0  0  0  0  0  0  0  0  0  0  0
   12.6911   -1.3743   22.2234 C   0  0  0  0  0  0  0  0  0  0  0  0
   13.1196    0.6419   23.3535 C   0  0  0  0  0  0  0  0  0  0  0  0
    4.7953   -5.9456   22.2904 C   0  0  0  0  0  0  0  0  0  0  0  0
    7.1015   -3.6665   24.4332 C   0  0  0  0  0  0  0  0  0  0  0  0
    7.7263   -4.4152   23.2509 C   0  0  0  0  0  0  0  0  0  0  0  0
    7.5577   -6.2571   29.7825 N   0  0  0  0  0  0  0  0  0  0  0  0
   11.0206   -0.5474   23.8392 N   0  0  0  0  0  0  0  0  0  0  0  0
    9.4885   -2.0681   24.7912 N   0  0  0  0  0  0  0  0  0  0  0  0
    6.9249   -4.3240   22.0600 N   0  0  0  0  0  0  0  0  0  0  0  0
   10.0750   -0.1180   25.9049 O   0  0  0  0  0  0  0  0  0  0  0  0
    7.1543   -6.8695   21.6333 O   0  0  0  0  0  0  0  0  0  0  0  0
    5.8847   -5.4637   19.9695 O   0  0  0  0  0  0  0  0  0  0  0  0
   13.1922   -0.0427   22.1016 O   0  0  0  0  0  0  0  0  0  0  0  0
    6.2820   -5.7507   21.3345 S   0  0  0  0  0  0  0  0  0  0  0  0
   10.0289   -3.9293   28.9291 H   0  0  0  0  0  0  0  0  0  0  0  0
   10.7200   -2.4179   27.1194 H   0  0  0  0  0  0  0  0  0  0  0  0
    6.6374   -5.1930   26.5873 H   0  0  0  0  0  0  0  0  0  0  0  0
   10.6112   -0.9085   21.8471 H   0  0  0  0  0  0  0  0  0  0  0  0
   10.8925   -2.3957   22.7722 H   0  0  0  0  0  0  0  0  0  0  0  0
   11.6082    1.2730   24.7610 H   0  0  0  0  0  0  0  0  0  0  0  0
   11.1051    1.3600   23.0659 H   0  0  0  0  0  0  0  0  0  0  0  0
   13.3028   -1.9337   22.9414 H   0  0  0  0  0  0  0  0  0  0  0  0
   12.7999   -1.8601   21.2486 H   0  0  0  0  0  0  0  0  0  0  0  0
   13.5521    1.6375   23.2124 H   0  0  0  0  0  0  0  0  0  0  0  0
   13.7272    0.1180   24.1008 H   0  0  0  0  0  0  0  0  0  0  0  0
    4.2703   -6.8330   21.9335 H   0  0  0  0  0  0  0  0  0  0  0  0
    5.0729   -6.0614   23.3392 H   0  0  0  0  0  0  0  0  0  0  0  0
    4.1790   -5.0558   22.1537 H   0  0  0  0  0  0  0  0  0  0  0  0
    6.9562   -2.6127   24.1455 H   0  0  0  0  0  0  0  0  0  0  0  0
    6.0885   -4.0588   24.6218 H   0  0  0  0  0  0  0  0  0  0  0  0
    8.7056   -3.9921   23.0056 H   0  0  0  0  0  0  0  0  0  0  0  0
    7.8607   -5.4778   23.4781 H   0  0  0  0  0  0  0  0  0  0  0  0
    9.2435   -2.3604   23.8059 H   0  0  0  0  0  0  0  0  0  0  0  0
    6.3055   -3.4871   21.9939 H   0  0  0  0  0  0  0  0  0  0  0  0
  1  5  1  0  0  0  0
  1 16  3  0  0  0  0
  2  3  2  0  0  0  0
  2  5  1  0  0  0  0
  2 25  1  0  0  0  0
  3  7  1  0  0  0  0
  3 26  1  0  0  0  0
  4  5  2  0  0  0  0
  4  6  1  0  0  0  0
  4 27  1  0  0  0  0
  6  7  2  0  0  0  0
  6 14  1  0  0  0  0
  7 18  1  0  0  0  0
  8 17  1  0  0  0  0
  8 18  1  0  0  0  0
  8 20  2  0  0  0  0
  9 11  1  0  0  0  0
  9 17  1  0  0  0  0
  9 28  1  0  0  0  0
  9 29  1  0  0  0  0
 10 12  1  0  0  0  0
 10 17  1  0  0  0  0
 10 30  1  0  0  0  0
 10 31  1  0  0  0  0
 11 23  1  0  0  0  0
 11 32  1  0  0  0  0
 11 33  1  0  0  0  0
 12 23  1  0  0  0  0
 12 34  1  0  0  0  0
 12 35  1  0  0  0  0
 13 24  1  0  0  0  0
 13 36  1  0  0  0  0
 13 37  1  0  0  0  0
 13 38  1  0  0  0  0
 14 15  1  0  0  0  0
 14 39  1  0  0  0  0
 14 40  1  0  0  0  0
 15 19  1  0  0  0  0
 15 41  1  0  0  0  0
 15 42  1  0  0  0  0
 18 43  1  0  0  0  0
 19 24  1  0  0  0  0
 19 44  1  0  0  0  0
 21 24  2  0  0  0  0
 22 24  2  0  0  0  0
M  END
>  <Chemgauss4 Score>
-5.11093616485596

>  <Number of Confs>
200

$$$$
