DUN-NEW-f8c-22
 OpenBabel03242009303D

 37 38  0  0  1  0  0  0  0  0999 V2000
    5.8944   -5.1037   22.1475 C   0  0  0  0  0  0  0  0  0  0  0  0
    5.2677   -4.0676   22.8397 C   0  0  0  0  0  0  0  0  0  0  0  0
    7.2237   -5.4235   22.4242 C   0  0  0  0  0  0  0  0  0  0  0  0
    5.9703   -3.3511   23.8086 C   0  0  0  0  0  0  0  0  0  0  0  0
    7.9262   -4.7070   23.3931 C   0  0  0  0  0  0  0  0  0  0  0  0
    7.2995   -3.6708   24.0853 C   0  0  0  0  0  0  0  0  0  0  0  0
   10.4141   -1.5956   22.6624 C   0  0  0  0  0  0  0  0  0  0  0  0
   10.9855   -2.7756   24.8160 C   0  0  0  0  0  0  0  0  0  0  0  0
   10.3554   -3.1546   26.1509 C   0  0  0  0  0  0  0  0  0  0  0  0
    8.7759   -1.6751   24.5175 C   0  0  0  0  0  0  0  0  0  0  0  0
    8.0652   -2.8909   25.1400 C   0  0  2  0  0  0  0  0  0  0  0  0
    9.0323   -6.2677   26.7652 C   0  0  0  0  0  0  0  0  0  0  0  0
   11.8767   -1.3088   22.4228 C   0  0  0  0  0  0  0  0  0  0  0  0
   10.0771   -2.0209   23.9485 N   0  0  0  0  0  0  0  0  0  0  0  0
    9.0236   -3.7647   25.9059 N   0  0  0  0  0  0  0  0  0  0  0  0
    9.6057   -1.4530   21.7425 O   0  0  0  0  0  0  0  0  0  0  0  0
    6.9308   -4.7361   27.0200 O   0  0  0  0  0  0  0  0  0  0  0  0
    8.9758   -4.2477   28.4218 O   0  0  0  0  0  0  0  0  0  0  0  0
    8.3629   -4.6823   27.1897 S   0  0  0  0  0  0  0  0  0  0  0  0
   12.3215   -0.0080   23.5218 Cl  0  0  0  0  0  0  0  0  0  0  0  0
    5.3468   -5.6624   21.3941 H   0  0  0  0  0  0  0  0  0  0  0  0
    4.2324   -3.8192   22.6252 H   0  0  0  0  0  0  0  0  0  0  0  0
    7.7116   -6.2309   21.8862 H   0  0  0  0  0  0  0  0  0  0  0  0
    5.4739   -2.5452   24.3428 H   0  0  0  0  0  0  0  0  0  0  0  0
    8.9616   -4.9631   23.6019 H   0  0  0  0  0  0  0  0  0  0  0  0
   11.9153   -2.2065   24.9934 H   0  0  0  0  0  0  0  0  0  0  0  0
   11.2815   -3.6835   24.2578 H   0  0  0  0  0  0  0  0  0  0  0  0
   11.0034   -3.8785   26.6488 H   0  0  0  0  0  0  0  0  0  0  0  0
   10.2519   -2.2733   26.7877 H   0  0  0  0  0  0  0  0  0  0  0  0
    8.1762   -1.2550   23.6909 H   0  0  0  0  0  0  0  0  0  0  0  0
    8.8610   -0.8720   25.2633 H   0  0  0  0  0  0  0  0  0  0  0  0
    7.2957   -2.5272   25.8755 H   0  0  0  0  0  0  0  0  0  0  0  0
    8.6966   -6.9933   27.5078 H   0  0  0  0  0  0  0  0  0  0  0  0
    8.6695   -6.5403   25.7730 H   0  0  0  0  0  0  0  0  0  0  0  0
   10.1208   -6.1937   26.7677 H   0  0  0  0  0  0  0  0  0  0  0  0
   12.0083   -0.9894   21.3954 H   0  0  0  0  0  0  0  0  0  0  0  0
   12.4509   -2.2000   22.6487 H   0  0  0  0  0  0  0  0  0  0  0  0
  1  2  1  0  0  0  0
  1  3  2  0  0  0  0
  1 21  1  0  0  0  0
  2  4  2  0  0  0  0
  2 22  1  0  0  0  0
  3  5  1  0  0  0  0
  3 23  1  0  0  0  0
  4  6  1  0  0  0  0
  4 24  1  0  0  0  0
  5  6  2  0  0  0  0
  5 25  1  0  0  0  0
  6 11  1  0  0  0  0
  7 13  1  0  0  0  0
  7 14  1  0  0  0  0
  7 16  2  0  0  0  0
  8  9  1  0  0  0  0
  8 14  1  0  0  0  0
  8 26  1  0  0  0  0
  8 27  1  0  0  0  0
  9 15  1  0  0  0  0
  9 28  1  0  0  0  0
  9 29  1  0  0  0  0
 10 11  1  0  0  0  0
 10 14  1  0  0  0  0
 10 30  1  0  0  0  0
 10 31  1  0  0  0  0
 11 15  1  0  0  0  0
 11 32  1  1  0  0  0
 12 19  1  0  0  0  0
 12 33  1  0  0  0  0
 12 34  1  0  0  0  0
 12 35  1  0  0  0  0
 13 20  1  0  0  0  0
 13 36  1  0  0  0  0
 13 37  1  0  0  0  0
 15 19  1  0  0  0  0
 17 19  2  0  0  0  0
 18 19  2  0  0  0  0
M  END
>  <Chemgauss4 Score>
-4.72541427612305

>  <Number of Confs>
26

$$$$
