CHR-SOS-597-1
 OpenBabel03242009303D

 44 46  0  0  0  0  0  0  0  0999 V2000
    7.0308   -5.7520   21.7167 C   0  0  0  0  0  0  0  0  0  0  0  0
    7.8383   -4.6351   21.9313 C   0  0  0  0  0  0  0  0  0  0  0  0
    6.3434   -6.3309   22.7835 C   0  0  0  0  0  0  0  0  0  0  0  0
   12.6372   -0.5091   22.0437 C   0  0  0  0  0  0  0  0  0  0  0  0
    7.9585   -4.0972   23.2126 C   0  0  0  0  0  0  0  0  0  0  0  0
    6.4636   -5.7930   24.0648 C   0  0  0  0  0  0  0  0  0  0  0  0
   12.1320   -1.7087   22.5327 C   0  0  0  0  0  0  0  0  0  0  0  0
   12.4410    0.6342   22.8013 C   0  0  0  0  0  0  0  0  0  0  0  0
   11.3122   -0.5300   24.4288 C   0  0  0  0  0  0  0  0  0  0  0  0
    7.2712   -4.6761   24.2794 C   0  0  0  0  0  0  0  0  0  0  0  0
   11.4554   -1.7279   23.7473 C   0  0  0  0  0  0  0  0  0  0  0  0
   10.2343   -3.1081   25.4636 C   0  0  0  0  0  0  0  0  0  0  0  0
    7.6367   -4.8641   28.6747 C   0  0  0  0  0  0  0  0  0  0  0  0
    7.3755   -6.1950   27.9698 C   0  0  0  0  0  0  0  0  0  0  0  0
    8.6931   -4.1416   27.8421 C   0  0  0  0  0  0  0  0  0  0  0  0
    8.2852   -6.2131   26.7435 C   0  0  0  0  0  0  0  0  0  0  0  0
    8.5658   -4.7364   26.4329 C   0  0  0  0  0  0  0  0  0  0  0  0
    7.4005   -4.0972   25.6603 C   0  0  0  0  0  0  0  0  0  0  0  0
    9.8571   -4.5650   25.6304 C   0  0  0  0  0  0  0  0  0  0  0  0
   11.7891    0.6548   23.9855 N   0  0  0  0  0  0  0  0  0  0  0  0
   10.9298   -2.9331   24.2706 N   0  0  0  0  0  0  0  0  0  0  0  0
    9.9436   -2.2496   26.2901 O   0  0  0  0  0  0  0  0  0  0  0  0
    6.9363   -6.1699   20.7187 H   0  0  0  0  0  0  0  0  0  0  0  0
    8.3728   -4.1835   21.1006 H   0  0  0  0  0  0  0  0  0  0  0  0
    5.7137   -7.1999   22.6166 H   0  0  0  0  0  0  0  0  0  0  0  0
   13.1679   -0.4706   21.0992 H   0  0  0  0  0  0  0  0  0  0  0  0
    8.5902   -3.2269   23.3704 H   0  0  0  0  0  0  0  0  0  0  0  0
    5.9244   -6.2508   24.8900 H   0  0  0  0  0  0  0  0  0  0  0  0
   12.2709   -2.6217   21.9598 H   0  0  0  0  0  0  0  0  0  0  0  0
   12.8150    1.5949   22.4631 H   0  0  0  0  0  0  0  0  0  0  0  0
   10.7941   -0.4812   25.3819 H   0  0  0  0  0  0  0  0  0  0  0  0
    6.7238   -4.2660   28.7616 H   0  0  0  0  0  0  0  0  0  0  0  0
    8.0054   -5.0455   29.6908 H   0  0  0  0  0  0  0  0  0  0  0  0
    7.6177   -7.0272   28.6407 H   0  0  0  0  0  0  0  0  0  0  0  0
    6.3238   -6.3038   27.6853 H   0  0  0  0  0  0  0  0  0  0  0  0
    8.4645   -3.0682   27.8301 H   0  0  0  0  0  0  0  0  0  0  0  0
    9.6954   -4.2579   28.2674 H   0  0  0  0  0  0  0  0  0  0  0  0
    9.1961   -6.7942   26.9213 H   0  0  0  0  0  0  0  0  0  0  0  0
    7.7502   -6.6875   25.9107 H   0  0  0  0  0  0  0  0  0  0  0  0
    7.5559   -3.0162   25.6014 H   0  0  0  0  0  0  0  0  0  0  0  0
    6.4718   -4.2464   26.2186 H   0  0  0  0  0  0  0  0  0  0  0  0
    9.7169   -5.0163   24.6483 H   0  0  0  0  0  0  0  0  0  0  0  0
   10.6596   -5.0887   26.1494 H   0  0  0  0  0  0  0  0  0  0  0  0
   11.0852   -3.7602   23.6980 H   0  0  0  0  0  0  0  0  0  0  0  0
  1  2  1  0  0  0  0
  1  3  2  0  0  0  0
  1 23  1  0  0  0  0
  2  5  2  0  0  0  0
  2 24  1  0  0  0  0
  3  6  1  0  0  0  0
  3 25  1  0  0  0  0
  4  7  2  0  0  0  0
  4  8  1  0  0  0  0
  4 26  1  0  0  0  0
  5 10  1  0  0  0  0
  5 27  1  0  0  0  0
  6 10  2  0  0  0  0
  6 28  1  0  0  0  0
  7 11  1  0  0  0  0
  7 29  1  0  0  0  0
  8 20  2  0  0  0  0
  8 30  1  0  0  0  0
  9 11  2  0  0  0  0
  9 20  1  0  0  0  0
  9 31  1  0  0  0  0
 10 18  1  0  0  0  0
 11 21  1  0  0  0  0
 12 19  1  0  0  0  0
 12 21  1  0  0  0  0
 12 22  2  0  0  0  0
 13 14  1  0  0  0  0
 13 15  1  0  0  0  0
 13 32  1  0  0  0  0
 13 33  1  0  0  0  0
 14 16  1  0  0  0  0
 14 34  1  0  0  0  0
 14 35  1  0  0  0  0
 15 17  1  0  0  0  0
 15 36  1  0  0  0  0
 15 37  1  0  0  0  0
 16 17  1  0  0  0  0
 16 38  1  0  0  0  0
 16 39  1  0  0  0  0
 17 18  1  0  0  0  0
 17 19  1  0  0  0  0
 18 40  1  0  0  0  0
 18 41  1  0  0  0  0
 19 42  1  0  0  0  0
 19 43  1  0  0  0  0
 21 44  1  0  0  0  0
M  END
>  <Chemgauss4 Score>
-5.94241666793823

>  <Number of Confs>
90

$$$$
