JOH-MEM-5e3-5
 OpenBabel03242009303D

 48 51  0  0  1  0  0  0  0  0999 V2000
   10.8325   -2.6454   22.6675 C   0  0  0  0  0  0  0  0  0  0  0  0
   11.1391   -3.1524   23.9338 C   0  0  0  0  0  0  0  0  0  0  0  0
    9.0409   -2.3308   24.8437 C   0  0  0  0  0  0  0  0  0  0  0  0
    8.7069   -1.8101   23.5798 C   0  0  0  0  0  0  0  0  0  0  0  0
    7.6126   -1.1037   23.0524 C   0  0  0  0  0  0  0  0  0  0  0  0
    9.6122   -1.9779   22.5113 C   0  0  0  0  0  0  0  0  0  0  0  0
   10.2600   -2.9989   25.0046 C   0  0  0  0  0  0  0  0  0  0  0  0
    7.8660   -0.8689   21.7346 C   0  0  0  0  0  0  0  0  0  0  0  0
    6.6195   -5.8580   25.3806 C   0  0  0  0  0  0  0  0  0  0  0  0
    6.9149    0.1632   19.7684 C   0  0  0  0  0  0  0  0  0  0  0  0
    6.3001   -0.5424   23.4565 C   0  0  0  0  0  0  0  0  0  0  0  0
    5.7869    0.0916   22.1099 C   0  0  0  0  0  0  0  0  0  0  0  0
    7.7531   -5.7573   26.3815 C   0  0  2  0  0  0  0  0  0  0  0  0
    7.1339   -5.3817   27.7263 C   0  0  2  0  0  0  0  0  0  0  0  0
    8.2263   -4.9872   28.7244 C   0  0  1  0  0  0  0  0  0  0  0  0
    9.1814   -3.9614   28.1152 C   0  0  1  0  0  0  0  0  0  0  0  0
    9.7135   -4.4817   26.7801 C   0  0  1  0  0  0  0  0  0  0  0  0
    5.7066    0.9188   19.2745 C   0  0  0  0  0  0  0  0  0  0  0  0
    9.0624   -1.3834   21.3816 N   0  0  0  0  0  0  0  0  0  0  0  0
    6.8633   -0.1803   21.1025 N   0  0  0  0  0  0  0  0  0  0  0  0
    6.5118   -5.1774   24.3714 O   0  0  0  0  0  0  0  0  0  0  0  0
    7.8399   -0.0970   18.9982 O   0  0  0  0  0  0  0  0  0  0  0  0
    8.6240   -4.7421   25.8931 O   0  0  0  0  0  0  0  0  0  0  0  0
    5.7311   -6.8099   25.7576 O   0  0  0  0  0  0  0  0  0  0  0  0
    6.4256   -6.5106   28.2377 O   0  0  0  0  0  0  0  0  0  0  0  0
    7.6177   -4.4544   29.8974 O   0  0  0  0  0  0  0  0  0  0  0  0
    8.4804   -2.7377   27.8723 O   0  0  0  0  0  0  0  0  0  0  0  0
   10.5906   -3.5058   26.2262 O   0  0  0  0  0  0  0  0  0  0  0  0
   11.5200   -2.7674   21.8371 H   0  0  0  0  0  0  0  0  0  0  0  0
   12.0823   -3.6747   24.0781 H   0  0  0  0  0  0  0  0  0  0  0  0
    8.3619   -2.2158   25.6843 H   0  0  0  0  0  0  0  0  0  0  0  0
    5.6180   -1.3246   23.8023 H   0  0  0  0  0  0  0  0  0  0  0  0
    6.4117    0.2240   24.2289 H   0  0  0  0  0  0  0  0  0  0  0  0
    4.8543   -0.3713   21.7714 H   0  0  0  0  0  0  0  0  0  0  0  0
    5.6434    1.1734   22.1980 H   0  0  0  0  0  0  0  0  0  0  0  0
    8.2476   -6.7281   26.4183 H   0  0  0  0  0  0  0  0  0  0  0  0
    6.4100   -4.5648   27.6183 H   0  0  0  0  0  0  0  0  0  0  0  0
    8.7810   -5.8819   29.0311 H   0  0  0  0  0  0  0  0  0  0  0  0
    9.9986   -3.7229   28.8044 H   0  0  0  0  0  0  0  0  0  0  0  0
   10.2892   -5.4044   26.9315 H   0  0  0  0  0  0  0  0  0  0  0  0
    5.8762    1.9825   19.4040 H   0  0  0  0  0  0  0  0  0  0  0  0
    4.8367    0.6095   19.8449 H   0  0  0  0  0  0  0  0  0  0  0  0
    5.5516    0.6927   18.2245 H   0  0  0  0  0  0  0  0  0  0  0  0
    9.4926   -1.3503   20.4669 H   0  0  0  0  0  0  0  0  0  0  0  0
    4.9876   -6.8892   25.1226 H   0  0  0  0  0  0  0  0  0  0  0  0
    7.0769   -7.2216   28.3368 H   0  0  0  0  0  0  0  0  0  0  0  0
    8.3395   -4.2182   30.5005 H   0  0  0  0  0  0  0  0  0  0  0  0
    7.7645   -2.9535   27.2573 H   0  0  0  0  0  0  0  0  0  0  0  0
  1  2  2  0  0  0  0
  1  6  1  0  0  0  0
  1 29  1  0  0  0  0
  2  7  1  0  0  0  0
  2 30  1  0  0  0  0
  3  4  1  0  0  0  0
  3  7  2  0  0  0  0
  3 31  1  0  0  0  0
  4  5  1  0  0  0  0
  4  6  2  0  0  0  0
  5  8  2  0  0  0  0
  5 11  1  0  0  0  0
  6 19  1  0  0  0  0
  7 28  1  0  0  0  0
  8 19  1  0  0  0  0
  8 20  1  0  0  0  0
  9 13  1  0  0  0  0
  9 21  2  0  0  0  0
  9 24  1  0  0  0  0
 10 18  1  0  0  0  0
 10 20  1  0  0  0  0
 10 22  2  0  0  0  0
 11 12  1  0  0  0  0
 11 32  1  0  0  0  0
 11 33  1  0  0  0  0
 12 20  1  0  0  0  0
 12 34  1  0  0  0  0
 12 35  1  0  0  0  0
 13 14  1  0  0  0  0
 13 23  1  0  0  0  0
 13 36  1  1  0  0  0
 14 15  1  0  0  0  0
 14 25  1  0  0  0  0
 14 37  1  6  0  0  0
 15 16  1  0  0  0  0
 15 26  1  0  0  0  0
 15 38  1  1  0  0  0
 16 17  1  0  0  0  0
 16 27  1  0  0  0  0
 16 39  1  1  0  0  0
 17 23  1  0  0  0  0
 17 28  1  0  0  0  0
 17 40  1  1  0  0  0
 18 41  1  0  0  0  0
 18 42  1  0  0  0  0
 18 43  1  0  0  0  0
 19 44  1  0  0  0  0
 24 45  1  0  0  0  0
 25 46  1  0  0  0  0
 26 47  1  0  0  0  0
 27 48  1  0  0  0  0
M  END
>  <Chemgauss4 Score>
-6.02192449569702

>  <Number of Confs>
84

$$$$
