CHR-SOS-6c4-7
 OpenBabel03242009303D

 41 43  0  0  0  0  0  0  0  0999 V2000
   10.0609   -3.1256   24.7673 C   0  0  0  0  0  0  0  0  0  0  0  0
   10.6302   -2.4350   23.9662 C   0  0  0  0  0  0  0  0  0  0  0  0
    9.2097   -4.9981   27.8489 C   0  0  0  0  0  0  0  0  0  0  0  0
    7.9940   -5.5406   27.4476 C   0  0  0  0  0  0  0  0  0  0  0  0
    9.9246   -4.1862   26.9754 C   0  0  0  0  0  0  0  0  0  0  0  0
    5.5546    1.4547   19.5754 C   0  0  0  0  0  0  0  0  0  0  0  0
    7.5404   -5.2430   26.1726 C   0  0  0  0  0  0  0  0  0  0  0  0
    5.0072    1.9666   20.7408 C   0  0  0  0  0  0  0  0  0  0  0  0
    6.7066    1.1041   22.0239 C   0  0  0  0  0  0  0  0  0  0  0  0
    9.3847   -3.9494   25.7215 C   0  0  0  0  0  0  0  0  0  0  0  0
    6.7401    0.7350   19.6746 C   0  0  0  0  0  0  0  0  0  0  0  0
    7.3336    0.5517   20.9186 C   0  0  0  0  0  0  0  0  0  0  0  0
    9.2401   -0.4317   22.2522 C   0  0  0  0  0  0  0  0  0  0  0  0
   13.2372   -0.7606   22.5343 C   0  0  0  0  0  0  0  0  0  0  0  0
   12.1621   -0.4458   23.5936 C   0  0  0  0  0  0  0  0  0  0  0  0
   12.6438   -2.1806   22.4420 C   0  0  0  0  0  0  0  0  0  0  0  0
   11.3154   -1.6056   23.0035 C   0  0  0  0  0  0  0  0  0  0  0  0
    7.3519    0.1714   18.4342 C   0  0  0  0  0  0  0  0  0  0  0  0
    5.5546    1.8092   21.9669 N   0  0  0  0  0  0  0  0  0  0  0  0
    8.2068   -4.4586   25.2961 N   0  0  0  0  0  0  0  0  0  0  0  0
    8.5391   -0.1721   21.0712 N   0  0  0  0  0  0  0  0  0  0  0  0
   10.3758   -1.1771   21.9659 N   0  0  0  0  0  0  0  0  0  0  0  0
    8.9270   -0.0711   23.3843 O   0  0  0  0  0  0  0  0  0  0  0  0
    9.5994   -5.2081   28.8404 H   0  0  0  0  0  0  0  0  0  0  0  0
    7.4197   -6.1762   28.1117 H   0  0  0  0  0  0  0  0  0  0  0  0
   10.8746   -3.7586   27.2797 H   0  0  0  0  0  0  0  0  0  0  0  0
    5.0662    1.6154   18.6203 H   0  0  0  0  0  0  0  0  0  0  0  0
    6.5980   -5.6415   25.8115 H   0  0  0  0  0  0  0  0  0  0  0  0
    4.0833    2.5352   20.7174 H   0  0  0  0  0  0  0  0  0  0  0  0
    7.1213    0.9956   23.0217 H   0  0  0  0  0  0  0  0  0  0  0  0
   13.1327   -0.1775   21.6122 H   0  0  0  0  0  0  0  0  0  0  0  0
   14.2732   -0.7004   22.8770 H   0  0  0  0  0  0  0  0  0  0  0  0
   12.5079   -0.6083   24.6223 H   0  0  0  0  0  0  0  0  0  0  0  0
   11.7297    0.5576   23.5311 H   0  0  0  0  0  0  0  0  0  0  0  0
   12.6072   -2.6029   21.4330 H   0  0  0  0  0  0  0  0  0  0  0  0
   13.1449   -2.9024   23.0994 H   0  0  0  0  0  0  0  0  0  0  0  0
    8.0448    0.8952   17.9898 H   0  0  0  0  0  0  0  0  0  0  0  0
    7.9020   -0.7532   18.6484 H   0  0  0  0  0  0  0  0  0  0  0  0
    6.5839   -0.0788   17.6919 H   0  0  0  0  0  0  0  0  0  0  0  0
    8.9401   -0.5476   20.2154 H   0  0  0  0  0  0  0  0  0  0  0  0
   10.5599   -1.4322   21.0100 H   0  0  0  0  0  0  0  0  0  0  0  0
  1  2  3  0  0  0  0
  1 10  1  0  0  0  0
  2 17  1  0  0  0  0
  3  4  1  0  0  0  0
  3  5  2  0  0  0  0
  3 24  1  0  0  0  0
  4  7  2  0  0  0  0
  4 25  1  0  0  0  0
  5 10  1  0  0  0  0
  5 26  1  0  0  0  0
  6  8  2  0  0  0  0
  6 11  1  0  0  0  0
  6 27  1  0  0  0  0
  7 20  1  0  0  0  0
  7 28  1  0  0  0  0
  8 19  1  0  0  0  0
  8 29  1  0  0  0  0
  9 12  1  0  0  0  0
  9 19  2  0  0  0  0
  9 30  1  0  0  0  0
 10 20  2  0  0  0  0
 11 12  2  0  0  0  0
 11 18  1  0  0  0  0
 12 21  1  0  0  0  0
 13 21  1  0  0  0  0
 13 22  1  0  0  0  0
 13 23  2  0  0  0  0
 14 15  1  0  0  0  0
 14 16  1  0  0  0  0
 14 31  1  0  0  0  0
 14 32  1  0  0  0  0
 15 17  1  0  0  0  0
 15 33  1  0  0  0  0
 15 34  1  0  0  0  0
 16 17  1  0  0  0  0
 16 35  1  0  0  0  0
 16 36  1  0  0  0  0
 17 22  1  0  0  0  0
 18 37  1  0  0  0  0
 18 38  1  0  0  0  0
 18 39  1  0  0  0  0
 21 40  1  0  0  0  0
 22 41  1  0  0  0  0
M  END
>  <Chemgauss4 Score>
-6.49560213088989

>  <Number of Confs>
5

$$$$
