PAU-WEI-b9b-6
 OpenBabel03242009303D

 54 56  0  0  1  0  0  0  0  0999 V2000
   13.5628   -1.5254   21.4213 C   0  0  0  0  0  0  0  0  0  0  0  0
   12.1006    0.3409   24.2910 C   0  0  0  0  0  0  0  0  0  0  0  0
   13.0188   -0.1232   23.3491 C   0  0  0  0  0  0  0  0  0  0  0  0
   10.7849   -0.1219   24.2692 C   0  0  0  0  0  0  0  0  0  0  0  0
    9.6841   -3.9318   27.1555 C   0  0  0  0  0  0  0  0  0  0  0  0
    8.1238   -5.6367   26.4514 C   0  0  0  0  0  0  0  0  0  0  0  0
    9.9760   -3.6479   25.8214 C   0  0  0  0  0  0  0  0  0  0  0  0
    8.4156   -5.3528   25.1172 C   0  0  0  0  0  0  0  0  0  0  0  0
   11.3056   -1.5128   22.3637 C   0  0  0  0  0  0  0  0  0  0  0  0
   12.6213   -1.0500   22.3855 C   0  0  0  0  0  0  0  0  0  0  0  0
    8.7580   -4.9262   27.4705 C   0  0  0  0  0  0  0  0  0  0  0  0
    9.3418   -4.3584   24.8023 C   0  0  0  0  0  0  0  0  0  0  0  0
   10.3874   -1.0487   23.3056 C   0  0  0  0  0  0  0  0  0  0  0  0
    5.4324    0.1856   19.3778 C   0  0  0  0  0  0  0  0  0  0  0  0
    7.7469    0.5211   20.3714 C   0  0  0  0  0  0  0  0  0  0  0  0
    5.8303   -0.0559   21.8060 C   0  0  0  0  0  0  0  0  0  0  0  0
    8.5991   -0.4809   21.1523 C   0  0  0  0  0  0  0  0  0  0  0  0
    6.7167   -1.0505   22.5548 C   0  0  0  0  0  0  0  0  0  0  0  0
    8.4453   -5.2303   28.8966 C   0  0  0  0  0  0  0  0  0  0  0  0
    9.6565   -4.0498   23.3606 C   0  0  0  0  0  0  0  0  0  0  0  0
    5.9962    0.5759   18.0348 C   0  0  0  0  0  0  0  0  0  0  0  0
    8.7754   -2.9719   22.7077 C   0  0  0  0  0  0  0  0  0  0  0  0
    8.9596   -1.5507   23.2821 C   0  0  2  0  0  0  0  0  0  0  0  0
   14.3274   -1.9114   20.6383 N   0  0  0  0  0  0  0  0  0  0  0  0
    6.3238    0.1783   20.4498 N   0  0  0  0  0  0  0  0  0  0  0  0
    8.1204   -0.6139   22.5361 N   0  0  0  0  0  0  0  0  0  0  0  0
    4.2376   -0.1073   19.4692 O   0  0  0  0  0  0  0  0  0  0  0  0
    6.5838   -0.9044   17.2857 Cl  0  0  0  0  0  0  0  0  0  0  0  0
   12.4094    1.0634   25.0408 H   0  0  0  0  0  0  0  0  0  0  0  0
   14.0410    0.2465   23.3791 H   0  0  0  0  0  0  0  0  0  0  0  0
   10.0769    0.2452   25.0076 H   0  0  0  0  0  0  0  0  0  0  0  0
   10.1835   -3.3736   27.9430 H   0  0  0  0  0  0  0  0  0  0  0  0
    7.4000   -6.4123   26.6879 H   0  0  0  0  0  0  0  0  0  0  0  0
   10.6976   -2.8705   25.5852 H   0  0  0  0  0  0  0  0  0  0  0  0
    7.9171   -5.9113   24.3294 H   0  0  0  0  0  0  0  0  0  0  0  0
   10.9894   -2.2350   21.6137 H   0  0  0  0  0  0  0  0  0  0  0  0
    7.8568    1.5281   20.7928 H   0  0  0  0  0  0  0  0  0  0  0  0
    8.0979    0.5629   19.3384 H   0  0  0  0  0  0  0  0  0  0  0  0
    4.7989   -0.4229   21.7851 H   0  0  0  0  0  0  0  0  0  0  0  0
    5.8210    0.9139   22.3187 H   0  0  0  0  0  0  0  0  0  0  0  0
    8.5897   -1.4510   20.6378 H   0  0  0  0  0  0  0  0  0  0  0  0
    9.6353   -0.1217   21.1530 H   0  0  0  0  0  0  0  0  0  0  0  0
    6.3624   -1.1122   23.5909 H   0  0  0  0  0  0  0  0  0  0  0  0
    6.6079   -2.0494   22.1117 H   0  0  0  0  0  0  0  0  0  0  0  0
    7.6102   -4.6104   29.2452 H   0  0  0  0  0  0  0  0  0  0  0  0
    8.1739   -6.2857   29.0288 H   0  0  0  0  0  0  0  0  0  0  0  0
    9.3121   -5.0420   29.5435 H   0  0  0  0  0  0  0  0  0  0  0  0
    9.5426   -4.9844   22.7954 H   0  0  0  0  0  0  0  0  0  0  0  0
   10.7114   -3.7674   23.2533 H   0  0  0  0  0  0  0  0  0  0  0  0
    6.8170    1.2678   18.1859 H   0  0  0  0  0  0  0  0  0  0  0  0
    5.2047    1.0087   17.4339 H   0  0  0  0  0  0  0  0  0  0  0  0
    7.7199   -3.2686   22.7217 H   0  0  0  0  0  0  0  0  0  0  0  0
    9.0551   -2.9401   21.6450 H   0  0  0  0  0  0  0  0  0  0  0  0
    8.5537   -1.5420   24.3015 H   0  0  0  0  0  0  0  0  0  0  0  0
  1 10  1  0  0  0  0
  1 24  3  0  0  0  0
  2  3  1  0  0  0  0
  2  4  2  0  0  0  0
  2 29  1  0  0  0  0
  3 10  2  0  0  0  0
  3 30  1  0  0  0  0
  4 13  1  0  0  0  0
  4 31  1  0  0  0  0
  5  7  2  0  0  0  0
  5 11  1  0  0  0  0
  5 32  1  0  0  0  0
  6  8  1  0  0  0  0
  6 11  2  0  0  0  0
  6 33  1  0  0  0  0
  7 12  1  0  0  0  0
  7 34  1  0  0  0  0
  8 12  2  0  0  0  0
  8 35  1  0  0  0  0
  9 10  1  0  0  0  0
  9 13  2  0  0  0  0
  9 36  1  0  0  0  0
 11 19  1  0  0  0  0
 12 20  1  0  0  0  0
 13 23  1  0  0  0  0
 14 21  1  0  0  0  0
 14 25  1  0  0  0  0
 14 27  2  0  0  0  0
 15 17  1  0  0  0  0
 15 25  1  0  0  0  0
 15 37  1  0  0  0  0
 15 38  1  0  0  0  0
 16 18  1  0  0  0  0
 16 25  1  0  0  0  0
 16 39  1  0  0  0  0
 16 40  1  0  0  0  0
 17 26  1  0  0  0  0
 17 41  1  0  0  0  0
 17 42  1  0  0  0  0
 18 26  1  0  0  0  0
 18 43  1  0  0  0  0
 18 44  1  0  0  0  0
 19 45  1  0  0  0  0
 19 46  1  0  0  0  0
 19 47  1  0  0  0  0
 20 22  1  0  0  0  0
 20 48  1  0  0  0  0
 20 49  1  0  0  0  0
 21 28  1  0  0  0  0
 21 50  1  0  0  0  0
 21 51  1  0  0  0  0
 22 23  1  0  0  0  0
 22 52  1  0  0  0  0
 22 53  1  0  0  0  0
 23 26  1  0  0  0  0
 23 54  1  1  0  0  0
M  END
>  <Chemgauss4 Score>
-4.92124938964844

>  <Number of Confs>
200

$$$$
