ANT-DIA-b7f-2
 OpenBabel03242009303D

 27 27  0  0  0  0  0  0  0  0999 V2000
    8.6655   -2.9354   26.1414 C   0  0  0  0  0  0  0  0  0  0  0  0
    8.2697   -2.1622   25.0501 C   0  0  0  0  0  0  0  0  0  0  0  0
    9.2982   -4.1613   25.9349 C   0  0  0  0  0  0  0  0  0  0  0  0
    9.1390   -3.8408   23.5455 C   0  0  0  0  0  0  0  0  0  0  0  0
    8.5064   -2.6149   23.7521 C   0  0  0  0  0  0  0  0  0  0  0  0
    9.5349   -4.6140   24.6369 C   0  0  0  0  0  0  0  0  0  0  0  0
   13.0144   -1.0842   22.0148 C   0  0  0  0  0  0  0  0  0  0  0  0
    8.0777   -1.7785   22.5716 C   0  0  0  0  0  0  0  0  0  0  0  0
    9.1580   -0.8042   22.1084 C   0  0  0  0  0  0  0  0  0  0  0  0
   10.3866   -1.4893   21.6681 N   0  0  0  0  0  0  0  0  0  0  0  0
   11.8370   -3.2553   22.8813 O   0  0  0  0  0  0  0  0  0  0  0  0
   11.3376   -1.0585   24.0131 O   0  0  0  0  0  0  0  0  0  0  0  0
   10.1528   -5.8100   24.4354 O   0  0  0  0  0  0  0  0  0  0  0  0
   11.6083   -1.8253   22.8122 S   0  0  0  0  0  0  0  0  0  0  0  0
    8.4817   -2.5826   27.1519 H   0  0  0  0  0  0  0  0  0  0  0  0
    7.7771   -1.2086   25.2209 H   0  0  0  0  0  0  0  0  0  0  0  0
    9.6040   -4.7588   26.7891 H   0  0  0  0  0  0  0  0  0  0  0  0
    9.3246   -4.1964   22.5347 H   0  0  0  0  0  0  0  0  0  0  0  0
   13.8877   -1.2285   22.6528 H   0  0  0  0  0  0  0  0  0  0  0  0
   13.1604   -1.5729   21.0503 H   0  0  0  0  0  0  0  0  0  0  0  0
   12.8119   -0.0209   21.8783 H   0  0  0  0  0  0  0  0  0  0  0  0
    7.1782   -1.2160   22.8519 H   0  0  0  0  0  0  0  0  0  0  0  0
    7.7785   -2.4326   21.7426 H   0  0  0  0  0  0  0  0  0  0  0  0
    8.7959   -0.2249   21.2531 H   0  0  0  0  0  0  0  0  0  0  0  0
    9.4370   -0.1032   22.9019 H   0  0  0  0  0  0  0  0  0  0  0  0
   10.2321   -2.1916   20.9331 H   0  0  0  0  0  0  0  0  0  0  0  0
   10.2452   -5.9849   23.4853 H   0  0  0  0  0  0  0  0  0  0  0  0
  1  2  2  0  0  0  0
  1  3  1  0  0  0  0
  1 15  1  0  0  0  0
  2  5  1  0  0  0  0
  2 16  1  0  0  0  0
  3  6  2  0  0  0  0
  3 17  1  0  0  0  0
  4  5  2  0  0  0  0
  4  6  1  0  0  0  0
  4 18  1  0  0  0  0
  5  8  1  0  0  0  0
  6 13  1  0  0  0  0
  7 14  1  0  0  0  0
  7 19  1  0  0  0  0
  7 20  1  0  0  0  0
  7 21  1  0  0  0  0
  8  9  1  0  0  0  0
  8 22  1  0  0  0  0
  8 23  1  0  0  0  0
  9 10  1  0  0  0  0
  9 24  1  0  0  0  0
  9 25  1  0  0  0  0
 10 14  1  0  0  0  0
 10 26  1  0  0  0  0
 11 14  2  0  0  0  0
 12 14  2  0  0  0  0
 13 27  1  0  0  0  0
M  END
>  <Chemgauss4 Score>
-5.75530576705933

>  <Number of Confs>
166

$$$$
