HAN-NEW-5f5-3
 OpenBabel03242009303D

 55 57  0  0  0  0  0  0  0  0999 V2000
   12.8671    0.0327   22.2704 C   0  0  0  0  0  0  0  0  0  0  0  0
   12.5819   -1.1472   21.5832 C   0  0  0  0  0  0  0  0  0  0  0  0
   12.3810    0.2211   23.5642 C   0  0  0  0  0  0  0  0  0  0  0  0
   11.8106   -2.1385   22.1897 C   0  0  0  0  0  0  0  0  0  0  0  0
   11.6096   -0.7702   24.1707 C   0  0  0  0  0  0  0  0  0  0  0  0
    6.7803   -5.7519   27.8257 C   0  0  0  0  0  0  0  0  0  0  0  0
    7.2444   -5.2484   29.0302 C   0  0  0  0  0  0  0  0  0  0  0  0
    8.9402   -4.0934   27.9965 C   0  0  0  0  0  0  0  0  0  0  0  0
    7.4541   -5.3877   26.6652 C   0  0  0  0  0  0  0  0  0  0  0  0
   11.3244   -1.9501   23.4835 C   0  0  0  0  0  0  0  0  0  0  0  0
    8.5558   -4.5430   26.7436 C   0  0  0  0  0  0  0  0  0  0  0  0
    9.9721   -2.9436   25.3817 C   0  0  0  0  0  0  0  0  0  0  0  0
    6.3557   -3.2814   23.4002 C   0  0  0  0  0  0  0  0  0  0  0  0
    8.8091    0.8308   21.1113 C   0  0  0  0  0  0  0  0  0  0  0  0
    7.4264    1.2778   21.5774 C   0  0  0  0  0  0  0  0  0  0  0  0
    8.8248   -0.6472   20.7315 C   0  0  0  0  0  0  0  0  0  0  0  0
    6.9041    0.4009   22.7142 C   0  0  0  0  0  0  0  0  0  0  0  0
    8.3047   -1.5262   21.8677 C   0  0  0  0  0  0  0  0  0  0  0  0
    6.9111   -1.0813   22.3244 C   0  0  0  0  0  0  0  0  0  0  0  0
    6.9707   -5.9219   25.3393 C   0  0  0  0  0  0  0  0  0  0  0  0
    5.7155   -5.2147   24.8342 C   0  0  0  0  0  0  0  0  0  0  0  0
    8.3108   -4.4256   29.1459 N   0  0  0  0  0  0  0  0  0  0  0  0
   10.5421   -2.9559   24.0986 N   0  0  0  0  0  0  0  0  0  0  0  0
    9.2637   -4.1493   25.6083 N   0  0  0  0  0  0  0  0  0  0  0  0
    6.4765   -1.8951   23.4582 N   0  0  0  0  0  0  0  0  0  0  0  0
    5.9245   -3.8024   24.6175 N   0  0  0  0  0  0  0  0  0  0  0  0
   10.0689   -2.0277   26.1922 O   0  0  0  0  0  0  0  0  0  0  0  0
    6.5989   -3.9597   22.4030 O   0  0  0  0  0  0  0  0  0  0  0  0
   13.4683    0.8045   21.7987 H   0  0  0  0  0  0  0  0  0  0  0  0
   12.9610   -1.2946   20.5762 H   0  0  0  0  0  0  0  0  0  0  0  0
   12.6040    1.1396   24.0994 H   0  0  0  0  0  0  0  0  0  0  0  0
   11.5949   -3.0540   21.6444 H   0  0  0  0  0  0  0  0  0  0  0  0
   11.2362   -0.6123   25.1794 H   0  0  0  0  0  0  0  0  0  0  0  0
    5.9179   -6.4092   27.7988 H   0  0  0  0  0  0  0  0  0  0  0  0
    6.7540   -5.5024   29.9641 H   0  0  0  0  0  0  0  0  0  0  0  0
    9.7920   -3.4316   28.1225 H   0  0  0  0  0  0  0  0  0  0  0  0
    9.1221    1.4354   20.2527 H   0  0  0  0  0  0  0  0  0  0  0  0
    9.5384    1.0091   21.9111 H   0  0  0  0  0  0  0  0  0  0  0  0
    7.4686    2.3220   21.9073 H   0  0  0  0  0  0  0  0  0  0  0  0
    6.7259    1.2368   20.7342 H   0  0  0  0  0  0  0  0  0  0  0  0
    8.2059   -0.8014   19.8389 H   0  0  0  0  0  0  0  0  0  0  0  0
    9.8449   -0.9495   20.4692 H   0  0  0  0  0  0  0  0  0  0  0  0
    7.5275    0.5578   23.6040 H   0  0  0  0  0  0  0  0  0  0  0  0
    5.8867    0.7177   22.9733 H   0  0  0  0  0  0  0  0  0  0  0  0
    8.2757   -2.5693   21.5300 H   0  0  0  0  0  0  0  0  0  0  0  0
    9.0083   -1.4787   22.7090 H   0  0  0  0  0  0  0  0  0  0  0  0
    6.1887   -1.2587   21.5332 H   0  0  0  0  0  0  0  0  0  0  0  0
    6.7629   -6.9937   25.4508 H   0  0  0  0  0  0  0  0  0  0  0  0
    7.7728   -5.8460   24.5940 H   0  0  0  0  0  0  0  0  0  0  0  0
    5.4093   -5.6396   23.8730 H   0  0  0  0  0  0  0  0  0  0  0  0
    4.8816   -5.3214   25.5358 H   0  0  0  0  0  0  0  0  0  0  0  0
   10.3718   -3.7903   23.5430 H   0  0  0  0  0  0  0  0  0  0  0  0
    9.2821   -4.8126   24.8261 H   0  0  0  0  0  0  0  0  0  0  0  0
    6.2518   -1.4267   24.3309 H   0  0  0  0  0  0  0  0  0  0  0  0
    5.7929   -3.1702   25.4008 H   0  0  0  0  0  0  0  0  0  0  0  0
  1  2  1  0  0  0  0
  1  3  2  0  0  0  0
  1 29  1  0  0  0  0
  2  4  2  0  0  0  0
  2 30  1  0  0  0  0
  3  5  1  0  0  0  0
  3 31  1  0  0  0  0
  4 10  1  0  0  0  0
  4 32  1  0  0  0  0
  5 10  2  0  0  0  0
  5 33  1  0  0  0  0
  6  7  2  0  0  0  0
  6  9  1  0  0  0  0
  6 34  1  0  0  0  0
  7 22  1  0  0  0  0
  7 35  1  0  0  0  0
  8 11  1  0  0  0  0
  8 22  2  0  0  0  0
  8 36  1  0  0  0  0
  9 11  2  0  0  0  0
  9 20  1  0  0  0  0
 10 23  1  0  0  0  0
 11 24  1  0  0  0  0
 12 23  1  0  0  0  0
 12 24  1  0  0  0  0
 12 27  2  0  0  0  0
 13 25  1  0  0  0  0
 13 26  1  0  0  0  0
 13 28  2  0  0  0  0
 14 15  1  0  0  0  0
 14 16  1  0  0  0  0
 14 37  1  0  0  0  0
 14 38  1  0  0  0  0
 15 17  1  0  0  0  0
 15 39  1  0  0  0  0
 15 40  1  0  0  0  0
 16 18  1  0  0  0  0
 16 41  1  0  0  0  0
 16 42  1  0  0  0  0
 17 19  1  0  0  0  0
 17 43  1  0  0  0  0
 17 44  1  0  0  0  0
 18 19  1  0  0  0  0
 18 45  1  0  0  0  0
 18 46  1  0  0  0  0
 19 25  1  0  0  0  0
 19 47  1  0  0  0  0
 20 21  1  0  0  0  0
 20 48  1  0  0  0  0
 20 49  1  0  0  0  0
 21 26  1  0  0  0  0
 21 50  1  0  0  0  0
 21 51  1  0  0  0  0
 23 52  1  0  0  0  0
 24 53  1  0  0  0  0
 25 54  1  0  0  0  0
 26 55  1  0  0  0  0
M  END
>  <Chemgauss4 Score>
-4.54722356796265

>  <Number of Confs>
200

$$$$
