TRY-UNI-714-12
 OpenBabel03242009303D

 30 31  0  0  0  0  0  0  0  0999 V2000
    6.3912   -5.8573   27.0784 C   0  0  0  0  0  0  0  0  0  0  0  0
    7.3642   -5.1805   26.3431 C   0  0  0  0  0  0  0  0  0  0  0  0
    5.2534   -6.3518   26.4406 C   0  0  0  0  0  0  0  0  0  0  0  0
   12.9492   -0.9608   22.8255 C   0  0  0  0  0  0  0  0  0  0  0  0
    6.0617   -5.4925   24.3323 C   0  0  0  0  0  0  0  0  0  0  0  0
   12.7466    0.0926   23.7025 C   0  0  0  0  0  0  0  0  0  0  0  0
   10.7631   -0.7938   24.4496 C   0  0  0  0  0  0  0  0  0  0  0  0
   11.9897   -1.9662   22.7832 C   0  0  0  0  0  0  0  0  0  0  0  0
    7.1995   -4.9980   24.9701 C   0  0  0  0  0  0  0  0  0  0  0  0
   10.8726   -1.8886   23.6075 C   0  0  0  0  0  0  0  0  0  0  0  0
    5.0887   -6.1694   25.0676 C   0  0  0  0  0  0  0  0  0  0  0  0
    9.0441   -3.2885   24.6638 C   0  0  0  0  0  0  0  0  0  0  0  0
   12.1825   -3.1134   21.8464 C   0  0  0  0  0  0  0  0  0  0  0  0
   11.6744    0.2024   24.5185 N   0  0  0  0  0  0  0  0  0  0  0  0
    8.1730   -4.3199   24.2359 N   0  0  0  0  0  0  0  0  0  0  0  0
    9.8692   -2.8861   23.6014 N   0  0  0  0  0  0  0  0  0  0  0  0
    9.0685   -2.8204   25.7976 O   0  0  0  0  0  0  0  0  0  0  0  0
    3.6850   -6.7795   24.2806 Cl  0  0  0  0  0  0  0  0  0  0  0  0
    6.5195   -5.9993   28.1476 H   0  0  0  0  0  0  0  0  0  0  0  0
    8.2468   -4.7994   26.8511 H   0  0  0  0  0  0  0  0  0  0  0  0
    4.5040   -6.8774   27.0267 H   0  0  0  0  0  0  0  0  0  0  0  0
   13.8317   -0.9914   22.1955 H   0  0  0  0  0  0  0  0  0  0  0  0
    5.9367   -5.3487   23.2613 H   0  0  0  0  0  0  0  0  0  0  0  0
   13.4655    0.9022   23.7734 H   0  0  0  0  0  0  0  0  0  0  0  0
    9.9144   -0.6769   25.1170 H   0  0  0  0  0  0  0  0  0  0  0  0
   12.7374   -3.9188   22.3414 H   0  0  0  0  0  0  0  0  0  0  0  0
   11.2195   -3.5115   21.5039 H   0  0  0  0  0  0  0  0  0  0  0  0
   12.7372   -2.8053   20.9515 H   0  0  0  0  0  0  0  0  0  0  0  0
    8.2709   -4.6065   23.2561 H   0  0  0  0  0  0  0  0  0  0  0  0
    9.7337   -3.3664   22.7154 H   0  0  0  0  0  0  0  0  0  0  0  0
  1  2  2  0  0  0  0
  1  3  1  0  0  0  0
  1 19  1  0  0  0  0
  2  9  1  0  0  0  0
  2 20  1  0  0  0  0
  3 11  2  0  0  0  0
  3 21  1  0  0  0  0
  4  6  2  0  0  0  0
  4  8  1  0  0  0  0
  4 22  1  0  0  0  0
  5  9  2  0  0  0  0
  5 11  1  0  0  0  0
  5 23  1  0  0  0  0
  6 14  1  0  0  0  0
  6 24  1  0  0  0  0
  7 10  1  0  0  0  0
  7 14  2  0  0  0  0
  7 25  1  0  0  0  0
  8 10  2  0  0  0  0
  8 13  1  0  0  0  0
  9 15  1  0  0  0  0
 10 16  1  0  0  0  0
 11 18  1  0  0  0  0
 12 15  1  0  0  0  0
 12 16  1  0  0  0  0
 12 17  2  0  0  0  0
 13 26  1  0  0  0  0
 13 27  1  0  0  0  0
 13 28  1  0  0  0  0
 15 29  1  0  0  0  0
 16 30  1  0  0  0  0
M  END
>  <Chemgauss4 Score>
-4.69970464706421

>  <Number of Confs>
6

$$$$
