JOH-MEM-5e3-8
 OpenBabel03242009303D

 35 36  0  0  0  0  0  0  0  0999 V2000
   11.6161   -3.2040   23.4948 C   0  0  0  0  0  0  0  0  0  0  0  0
   10.3626   -4.6658   26.5621 C   0  0  0  0  0  0  0  0  0  0  0  0
   10.4540   -2.6327   25.5784 C   0  0  0  0  0  0  0  0  0  0  0  0
   10.0160   -3.3449   26.7299 C   0  0  0  0  0  0  0  0  0  0  0  0
   11.0647   -3.5595   24.7309 C   0  0  0  0  0  0  0  0  0  0  0  0
   11.5400   -1.8608   23.1154 C   0  0  0  0  0  0  0  0  0  0  0  0
   10.3891   -1.2843   25.1746 C   0  0  0  0  0  0  0  0  0  0  0  0
   10.9364   -0.9141   23.9408 C   0  0  0  0  0  0  0  0  0  0  0  0
    6.9129   -4.0985   26.0027 C   0  0  0  0  0  0  0  0  0  0  0  0
    6.1093   -5.3496   25.8719 C   0  0  0  0  0  0  0  0  0  0  0  0
    9.7311    0.7839   22.7920 C   0  0  0  0  0  0  0  0  0  0  0  0
    9.3148   -2.7848   27.9032 C   0  0  0  0  0  0  0  0  0  0  0  0
    7.8251   -2.4836   27.6588 C   0  0  0  0  0  0  0  0  0  0  0  0
   10.9949   -4.7853   25.3536 N   0  0  0  0  0  0  0  0  0  0  0  0
    7.0835   -3.6651   27.3077 N   0  0  0  0  0  0  0  0  0  0  0  0
    7.3542   -3.5559   24.9965 O   0  0  0  0  0  0  0  0  0  0  0  0
   12.0701   -1.4865   21.9148 O   0  0  0  0  0  0  0  0  0  0  0  0
    9.8018   -0.3344   25.9685 O   0  0  0  0  0  0  0  0  0  0  0  0
   10.8768    0.3905   23.5420 O   0  0  0  0  0  0  0  0  0  0  0  0
   12.0851   -3.9449   22.8552 H   0  0  0  0  0  0  0  0  0  0  0  0
   10.2181   -5.5320   27.1930 H   0  0  0  0  0  0  0  0  0  0  0  0
    5.0316   -5.1477   25.7622 H   0  0  0  0  0  0  0  0  0  0  0  0
    6.3875   -5.9370   24.9821 H   0  0  0  0  0  0  0  0  0  0  0  0
    6.1880   -6.0510   26.7180 H   0  0  0  0  0  0  0  0  0  0  0  0
    9.8075    1.8439   22.5377 H   0  0  0  0  0  0  0  0  0  0  0  0
    8.8288    0.6039   23.3820 H   0  0  0  0  0  0  0  0  0  0  0  0
    9.6874    0.1935   21.8737 H   0  0  0  0  0  0  0  0  0  0  0  0
    9.8032   -1.8436   28.2239 H   0  0  0  0  0  0  0  0  0  0  0  0
    9.4009   -3.4553   28.7819 H   0  0  0  0  0  0  0  0  0  0  0  0
    7.3555   -2.0718   28.5577 H   0  0  0  0  0  0  0  0  0  0  0  0
    7.6990   -1.7608   26.8461 H   0  0  0  0  0  0  0  0  0  0  0  0
   11.3575   -5.6485   24.9727 H   0  0  0  0  0  0  0  0  0  0  0  0
    6.6620   -4.2114   28.0572 H   0  0  0  0  0  0  0  0  0  0  0  0
   12.4499   -2.2561   21.4644 H   0  0  0  0  0  0  0  0  0  0  0  0
    9.4747   -0.7441   26.7815 H   0  0  0  0  0  0  0  0  0  0  0  0
  1  5  1  0  0  0  0
  1  6  2  0  0  0  0
  1 20  1  0  0  0  0
  2  4  2  0  0  0  0
  2 14  1  0  0  0  0
  2 21  1  0  0  0  0
  3  4  1  0  0  0  0
  3  5  2  0  0  0  0
  3  7  1  0  0  0  0
  4 12  1  0  0  0  0
  5 14  1  0  0  0  0
  6  8  1  0  0  0  0
  6 17  1  0  0  0  0
  7  8  2  0  0  0  0
  7 18  1  0  0  0  0
  8 19  1  0  0  0  0
  9 10  1  0  0  0  0
  9 15  1  0  0  0  0
  9 16  2  0  0  0  0
 10 22  1  0  0  0  0
 10 23  1  0  0  0  0
 10 24  1  0  0  0  0
 11 19  1  0  0  0  0
 11 25  1  0  0  0  0
 11 26  1  0  0  0  0
 11 27  1  0  0  0  0
 12 13  1  0  0  0  0
 12 28  1  0  0  0  0
 12 29  1  0  0  0  0
 13 15  1  0  0  0  0
 13 30  1  0  0  0  0
 13 31  1  0  0  0  0
 14 32  1  0  0  0  0
 15 33  1  0  0  0  0
 17 34  1  0  0  0  0
 18 35  1  0  0  0  0
M  END
>  <Chemgauss4 Score>
-6.16498327255249

>  <Number of Confs>
49

$$$$
