JOH-MSK-35a-1
 OpenBabel03242009303D

 33 34  0  0  0  0  0  0  0  0999 V2000
    9.6763   -4.8121   26.9425 C   0  0  0  0  0  0  0  0  0  0  0  0
    8.6805   -4.0553   27.5665 C   0  0  0  0  0  0  0  0  0  0  0  0
    7.9882   -3.1070   25.4408 C   0  0  0  0  0  0  0  0  0  0  0  0
   10.4440   -4.8906   23.4040 C   0  0  0  0  0  0  0  0  0  0  0  0
    8.9852   -3.8603   24.7897 C   0  0  0  0  0  0  0  0  0  0  0  0
    9.4001   -3.9950   23.4352 C   0  0  0  0  0  0  0  0  0  0  0  0
    9.8046   -4.6938   25.5540 C   0  0  0  0  0  0  0  0  0  0  0  0
    7.8483   -3.2153   26.8292 C   0  0  0  0  0  0  0  0  0  0  0  0
   11.5326   -1.5373   23.0615 C   0  0  0  0  0  0  0  0  0  0  0  0
   12.9690   -1.4051   22.6773 C   0  0  0  0  0  0  0  0  0  0  0  0
    6.0667   -1.6496   26.6559 C   0  0  0  0  0  0  0  0  0  0  0  0
    8.8212   -3.3040   22.2655 C   0  0  0  0  0  0  0  0  0  0  0  0
    9.2438   -1.8294   22.1348 C   0  0  0  0  0  0  0  0  0  0  0  0
   10.6805   -5.3068   24.6867 N   0  0  0  0  0  0  0  0  0  0  0  0
   10.6674   -1.6844   21.9892 N   0  0  0  0  0  0  0  0  0  0  0  0
   11.2191   -1.5108   24.2459 O   0  0  0  0  0  0  0  0  0  0  0  0
    6.8856   -2.4902   27.4658 O   0  0  0  0  0  0  0  0  0  0  0  0
   10.3240   -5.4654   27.5176 H   0  0  0  0  0  0  0  0  0  0  0  0
    8.5601   -4.1276   28.6450 H   0  0  0  0  0  0  0  0  0  0  0  0
    7.3342   -2.4497   24.8743 H   0  0  0  0  0  0  0  0  0  0  0  0
   11.0401   -5.2695   22.5855 H   0  0  0  0  0  0  0  0  0  0  0  0
   13.2665   -0.3564   22.5167 H   0  0  0  0  0  0  0  0  0  0  0  0
   13.6493   -1.7848   23.4564 H   0  0  0  0  0  0  0  0  0  0  0  0
   13.2608   -1.9335   21.7556 H   0  0  0  0  0  0  0  0  0  0  0  0
    5.3419   -1.1288   27.2865 H   0  0  0  0  0  0  0  0  0  0  0  0
    5.5471   -2.2555   25.9093 H   0  0  0  0  0  0  0  0  0  0  0  0
    6.6999   -0.9164   26.1507 H   0  0  0  0  0  0  0  0  0  0  0  0
    7.7147   -3.3366   22.3138 H   0  0  0  0  0  0  0  0  0  0  0  0
    9.0728   -3.8289   21.3217 H   0  0  0  0  0  0  0  0  0  0  0  0
    8.7877   -1.3668   21.2539 H   0  0  0  0  0  0  0  0  0  0  0  0
    8.9419   -1.2551   23.0169 H   0  0  0  0  0  0  0  0  0  0  0  0
   11.3950   -5.9678   24.9586 H   0  0  0  0  0  0  0  0  0  0  0  0
   11.0599   -1.6901   21.0490 H   0  0  0  0  0  0  0  0  0  0  0  0
  1  2  2  0  0  0  0
  1  7  1  0  0  0  0
  1 18  1  0  0  0  0
  2  8  1  0  0  0  0
  2 19  1  0  0  0  0
  3  5  1  0  0  0  0
  3  8  2  0  0  0  0
  3 20  1  0  0  0  0
  4  6  2  0  0  0  0
  4 14  1  0  0  0  0
  4 21  1  0  0  0  0
  5  6  1  0  0  0  0
  5  7  2  0  0  0  0
  6 12  1  0  0  0  0
  7 14  1  0  0  0  0
  8 17  1  0  0  0  0
  9 10  1  0  0  0  0
  9 15  1  0  0  0  0
  9 16  2  0  0  0  0
 10 22  1  0  0  0  0
 10 23  1  0  0  0  0
 10 24  1  0  0  0  0
 11 17  1  0  0  0  0
 11 25  1  0  0  0  0
 11 26  1  0  0  0  0
 11 27  1  0  0  0  0
 12 13  1  0  0  0  0
 12 28  1  0  0  0  0
 12 29  1  0  0  0  0
 13 15  1  0  0  0  0
 13 30  1  0  0  0  0
 13 31  1  0  0  0  0
 14 32  1  0  0  0  0
 15 33  1  0  0  0  0
M  END
>  <Chemgauss4 Score>
-4.58027744293213

>  <Number of Confs>
74

$$$$
