HEI-REL-0c9-6
 OpenBabel03242009303D

 53 56  0  0  1  0  0  0  0  0999 V2000
   12.3616   -1.6222   22.4849 C   0  0  0  0  0  0  0  0  0  0  0  0
   11.5155   -0.5275   22.6374 C   0  0  0  0  0  0  0  0  0  0  0  0
   12.1362   -2.7847   23.2214 C   0  0  0  0  0  0  0  0  0  0  0  0
   10.4449   -0.5934   23.5279 C   0  0  0  0  0  0  0  0  0  0  0  0
    5.9579   -2.2483   20.5686 C   0  0  0  0  0  0  0  0  0  0  0  0
    5.6261   -1.0794   19.8931 C   0  0  0  0  0  0  0  0  0  0  0  0
    6.3651    0.2050   21.7996 C   0  0  0  0  0  0  0  0  0  0  0  0
   11.0605   -2.8656   24.1187 C   0  0  0  0  0  0  0  0  0  0  0  0
   10.2104   -1.7567   24.2773 C   0  0  0  0  0  0  0  0  0  0  0  0
    6.5069   -2.1941   21.8609 C   0  0  0  0  0  0  0  0  0  0  0  0
    6.7062   -0.9594   22.5171 C   0  0  0  0  0  0  0  0  0  0  0  0
    5.8342    0.1479   20.5072 C   0  0  0  0  0  0  0  0  0  0  0  0
    9.0339   -5.2983   26.2180 C   0  0  0  0  0  0  0  0  0  0  0  0
    6.8326   -3.4800   22.5692 C   0  0  0  0  0  0  0  0  0  0  0  0
   10.8544   -4.1432   24.8947 C   0  0  0  0  0  0  0  0  0  0  0  0
    8.0177   -3.2555   23.4905 C   0  0  0  0  0  0  0  0  0  0  0  0
    9.3002   -2.8449   26.3396 C   0  0  0  0  0  0  0  0  0  0  0  0
    9.0400   -1.8150   25.2346 C   0  0  2  0  0  0  0  0  0  0  0  0
    7.7409   -2.1179   24.4827 C   0  0  1  0  0  0  0  0  0  0  0  0
    8.3788   -5.2255   27.5755 C   0  0  0  0  0  0  0  0  0  0  0  0
    6.9657    0.2822   24.6226 C   0  0  0  0  0  0  0  0  0  0  0  0
    7.2199   -0.9090   23.8160 N   0  0  0  0  0  0  0  0  0  0  0  0
    9.6832   -4.1410   25.7806 N   0  0  0  0  0  0  0  0  0  0  0  0
    3.8117    1.8441   20.1372 N   0  0  0  0  0  0  0  0  0  0  0  0
    8.9763   -6.3482   25.5735 O   0  0  0  0  0  0  0  0  0  0  0  0
    6.2413    2.7020   20.2182 O   0  0  0  0  0  0  0  0  0  0  0  0
    5.4738    1.3588   18.2296 O   0  0  0  0  0  0  0  0  0  0  0  0
    5.4376    1.6233   19.6610 S   0  0  0  0  0  0  0  0  0  0  0  0
   13.1966   -1.5716   21.7924 H   0  0  0  0  0  0  0  0  0  0  0  0
   11.6892    0.3779   22.0632 H   0  0  0  0  0  0  0  0  0  0  0  0
   12.8046   -3.6325   23.0915 H   0  0  0  0  0  0  0  0  0  0  0  0
    9.7921    0.2692   23.6364 H   0  0  0  0  0  0  0  0  0  0  0  0
    5.7845   -3.2062   20.0860 H   0  0  0  0  0  0  0  0  0  0  0  0
    5.2079   -1.1382   18.8922 H   0  0  0  0  0  0  0  0  0  0  0  0
    6.5158    1.1879   22.2397 H   0  0  0  0  0  0  0  0  0  0  0  0
    5.9822   -3.8117   23.1624 H   0  0  0  0  0  0  0  0  0  0  0  0
    7.0602   -4.2449   21.8293 H   0  0  0  0  0  0  0  0  0  0  0  0
   10.7728   -4.9724   24.1856 H   0  0  0  0  0  0  0  0  0  0  0  0
   11.7273   -4.3200   25.5344 H   0  0  0  0  0  0  0  0  0  0  0  0
    8.2233   -4.1717   24.0556 H   0  0  0  0  0  0  0  0  0  0  0  0
    8.9130   -3.0396   22.9010 H   0  0  0  0  0  0  0  0  0  0  0  0
   10.1324   -2.5195   26.9775 H   0  0  0  0  0  0  0  0  0  0  0  0
    8.4221   -2.9401   26.9873 H   0  0  0  0  0  0  0  0  0  0  0  0
    8.9384   -0.8359   25.7217 H   0  0  0  0  0  0  0  0  0  0  0  0
    7.0268   -2.4964   25.2061 H   0  0  0  0  0  0  0  0  0  0  0  0
    7.3557   -4.8856   27.4568 H   0  0  0  0  0  0  0  0  0  0  0  0
    8.9315   -4.5303   28.1988 H   0  0  0  0  0  0  0  0  0  0  0  0
    8.3931   -6.2111   28.0287 H   0  0  0  0  0  0  0  0  0  0  0  0
    7.4342    0.1633   25.6108 H   0  0  0  0  0  0  0  0  0  0  0  0
    7.3904    1.1632   24.1192 H   0  0  0  0  0  0  0  0  0  0  0  0
    5.8809    0.4173   24.7452 H   0  0  0  0  0  0  0  0  0  0  0  0
    3.6011    2.6058   20.7937 H   0  0  0  0  0  0  0  0  0  0  0  0
    3.0783    1.6863   19.4353 H   0  0  0  0  0  0  0  0  0  0  0  0
  1  2  1  0  0  0  0
  1  3  2  0  0  0  0
  1 29  1  0  0  0  0
  2  4  2  0  0  0  0
  2 30  1  0  0  0  0
  3  8  1  0  0  0  0
  3 31  1  0  0  0  0
  4  9  1  0  0  0  0
  4 32  1  0  0  0  0
  5  6  2  0  0  0  0
  5 10  1  0  0  0  0
  5 33  1  0  0  0  0
  6 12  1  0  0  0  0
  6 34  1  0  0  0  0
  7 11  1  0  0  0  0
  7 12  2  0  0  0  0
  7 35  1  0  0  0  0
  8  9  2  0  0  0  0
  8 15  1  0  0  0  0
  9 18  1  0  0  0  0
 10 11  2  0  0  0  0
 10 14  1  0  0  0  0
 11 22  1  0  0  0  0
 12 28  1  0  0  0  0
 13 20  1  0  0  0  0
 13 23  1  0  0  0  0
 13 25  2  0  0  0  0
 14 16  1  0  0  0  0
 14 36  1  0  0  0  0
 14 37  1  0  0  0  0
 15 23  1  0  0  0  0
 15 38  1  0  0  0  0
 15 39  1  0  0  0  0
 16 19  1  0  0  0  0
 16 40  1  0  0  0  0
 16 41  1  0  0  0  0
 17 18  1  0  0  0  0
 17 23  1  0  0  0  0
 17 42  1  0  0  0  0
 17 43  1  0  0  0  0
 18 19  1  0  0  0  0
 18 44  1  1  0  0  0
 19 22  1  0  0  0  0
 19 45  1  1  0  0  0
 20 46  1  0  0  0  0
 20 47  1  0  0  0  0
 20 48  1  0  0  0  0
 21 22  1  0  0  0  0
 21 49  1  0  0  0  0
 21 50  1  0  0  0  0
 21 51  1  0  0  0  0
 24 28  1  0  0  0  0
 24 52  1  0  0  0  0
 24 53  1  0  0  0  0
 26 28  2  0  0  0  0
 27 28  2  0  0  0  0
M  END
>  <Chemgauss4 Score>
-5.61361217498779

>  <Number of Confs>
18

$$$$
