  ver_1.2
  COVID Moonshot Alchemical Binding Energy Results via Folding@home

 21 23  0     1  0  0  0  0  0999 V2000
    6.0189    0.6874   19.0002 C   0  0  0  0  0  0  0  0  0  0  0  0
    7.0065    0.4601   19.9522 C   0  0  0  0  0  0  0  0  0  0  0  0
   13.2814   -0.0579   24.2358 C   0  0  0  0  0  0  0  0  0  0  0  0
    6.3525    0.5172   17.6662 C   0  0  0  0  0  0  0  0  0  0  0  0
    8.5119   -0.0682   18.1885 C   0  0  0  0  0  0  0  0  0  0  0  0
   14.4941   -0.5844   24.6228 C   0  0  0  0  0  0  0  0  0  0  0  0
   13.1826   -2.1747   23.2808 C   0  0  0  0  0  0  0  0  0  0  0  0
   12.5215   -0.9791   23.4585 C   0  0  0  0  0  0  0  0  0  0  0  0
    8.2795    0.0749   19.5469 C   0  0  0  0  0  0  0  0  0  0  0  0
   11.1706    0.4972   21.9011 C   0  0  0  0  0  0  0  0  0  0  0  0
   10.1105   -0.3994   23.9901 C   0  0  0  0  0  0  0  0  0  0  0  0
   11.1467   -0.6765   22.8931 C   0  0  2  0  0  0  0  0  0  0  0  0
    9.7679    0.8433   21.3963 C   0  0  1  0  0  0  0  0  0  0  0  0
    8.7531   -0.0612   23.3770 C   0  0  2  0  0  0  0  0  0  0  0  0
    7.5780    0.1439   17.2343 N   0  0  0  0  0  0  0  0  0  0  0  0
    9.2823   -0.1585   20.4716 N   0  0  0  0  0  0  0  0  0  0  0  0
    8.8651    1.0510   22.4879 O   0  0  0  0  0  0  0  0  0  0  0  0
    7.8601    0.2498   24.4436 O   0  0  0  0  0  0  0  0  0  0  0  0
   14.7127   -2.1832   24.0496 S   0  0  0  0  0  0  0  0  0  0  0  0
    9.7029   -1.0787   20.5057 H   0  0  0  0  0  0  0  0  0  0  0  0
    7.8136   -0.5403   25.0039 H   0  0  0  0  0  0  0  0  0  0  0  0
  1  2  2  0  0  0  0
  1  4  1  0  0  0  0
  2  9  1  0  0  0  0
  3  6  2  0  0  0  0
  3  8  1  0  0  0  0
  4 15  2  0  0  0  0
  5  9  2  0  0  0  0
  5 15  1  0  0  0  0
  6 19  1  0  0  0  0
  7  8  2  0  0  0  0
  7 19  1  0  0  0  0
  8 12  1  0  0  0  0
  9 16  1  0  0  0  0
 10 12  1  0  0  0  0
 10 13  1  0  0  0  0
 11 12  1  0  0  0  0
 11 14  1  0  0  0  0
 13 16  1  0  0  0  0
 13 17  1  0  0  0  0
 14 17  1  0  0  0  0
 14 18  1  0  0  0  0
 16 20  1  0  0  0  0
 18 21  1  0  0  0  0
M  END

> <ref_mols>
a comma separated list of the fragments that inspired the design of the new molecule (codes as they appear in fragalysis - e.g. x0104_0,x0692_0)

> <original SMILES>
the original SMILES of the compound before any computation was carried out

> <Chemgauss4>
The [Chemgauss4 docking score](https://docs.eyesopen.com/toolkits/cpp/dockingtk/scoring.html#section-scoring-chemgauss4) of the best scoring pose and protonation/tautomeric state to any Mpro structure; more negative is better, and fragments score ~ -10

> <ref_pdb>
The name of the fragment (and corresponding Mpro fragment structure) with the best scoring hybrid docking pose

> <ref_url>
https://discuss.postera.ai/t/updated-submission-for-foldingathome-absolute-fep-of-non-covalent-bound-mpro-structures/1444

> <submitter_name>
Matthew F.D. Hurley & Vincent A. Voelz

> <submitter_email>
matthew.hurley@temple.edu

> <submitter_institution>
Temple University

> <generation_date>
2020-05-19

> <method>
Folding@home absolute FEP

> <binding_free_energy>

Absolute binding free energy (kT) computed via Expanded Ensemble (Wang-Landau) Sampling using Folding@home

> <binding_std_error>

Standard Error of computed binding free energies (kT)

$$$$
NIM-UNI-36e12f95-2
  -OEChem-05122002103D

 28 31  0     1  0  0  0  0  0999 V2000
   14.4940   -2.2627   22.7057 C   0  0  0  0  0  0  0  0  0  0  0  0
   14.4293   -2.0294   24.0794 C   0  0  0  0  0  0  0  0  0  0  0  0
   13.7358   -1.4856   21.8298 C   0  0  0  0  0  0  0  0  0  0  0  0
    5.5911    0.8253   19.4770 C   0  0  0  0  0  0  0  0  0  0  0  0
   13.6064   -1.0191   24.5772 C   0  0  0  0  0  0  0  0  0  0  0  0
   12.9130   -0.4753   22.3277 C   0  0  0  0  0  0  0  0  0  0  0  0
    6.3993    0.5734   20.5800 C   0  0  0  0  0  0  0  0  0  0  0  0
    6.1154    0.5774   18.2187 C   0  0  0  0  0  0  0  0  0  0  0  0
    8.1193   -0.1268   19.0942 C   0  0  0  0  0  0  0  0  0  0  0  0
   12.8483   -0.2420   23.7013 C   0  0  0  0  0  0  0  0  0  0  0  0
    7.6890    0.0882   20.3936 C   0  0  0  0  0  0  0  0  0  0  0  0
    9.5556   -1.1834   21.5160 C   0  0  0  0  0  0  0  0  0  0  0  0
    6.8572    2.1083   23.7386 C   0  0  0  0  0  0  0  0  0  0  0  0
    9.0519    2.7092   22.6438 C   0  0  0  0  0  0  0  0  0  0  0  0
   10.2397    2.4990   23.5605 C   0  0  0  0  0  0  0  0  0  0  0  0
    8.3605    0.3483   22.8574 C   0  0  2  0  0  0  0  0  0  0  0  0
    9.6953    0.0009   23.5480 C   0  0  1  0  0  0  0  0  0  0  0  0
    6.7087    3.5600   24.1200 C   0  0  0  0  0  0  0  0  0  0  0  0
   11.9628    0.8447   24.2362 C   0  0  0  0  0  0  0  0  0  0  0  0
    7.3631    0.1062   17.9980 N   0  0  0  0  0  0  0  0  0  0  0  0
   10.1398   -1.1477   22.7986 N   0  0  0  0  0  0  0  0  0  0  0  0
    8.5394   -0.1787   21.5020 N   0  0  0  0  0  0  0  0  0  0  0  0
    8.0090    1.7608   23.0218 N   0  0  0  0  0  0  0  0  0  0  0  0
   10.7455    1.0904   23.3796 N   0  3  2  0  0  0  0  0  0  0  0  0
    9.8727   -1.9723   20.6353 O   0  0  0  0  0  0  0  0  0  0  0  0
    5.9726    1.3105   24.0606 O   0  0  0  0  0  0  0  0  0  0  0  0
   10.7910   -1.8427   23.1499 H   0  0  0  0  0  0  0  0  0  0  0  0
   11.0635    1.0236   22.4035 H   0  0  0  0  0  0  0  0  0  0  0  0
  1  2  1  0  0  0  0
  1  3  2  0  0  0  0
  2  5  2  0  0  0  0
  3  6  1  0  0  0  0
  4  7  2  0  0  0  0
  4  8  1  0  0  0  0
  5 10  1  0  0  0  0
  6 10  2  0  0  0  0
  7 11  1  0  0  0  0
  8 20  2  0  0  0  0
  9 11  2  0  0  0  0
  9 20  1  0  0  0  0
 10 19  1  0  0  0  0
 11 22  1  0  0  0  0
 12 21  1  0  0  0  0
 12 22  1  0  0  0  0
 12 25  2  0  0  0  0
 13 18  1  0  0  0  0
 13 23  1  0  0  0  0
 13 26  2  0  0  0  0
 14 15  1  0  0  0  0
 14 23  1  0  0  0  0
 15 24  1  0  0  0  0
 16 17  1  0  0  0  0
 16 22  1  0  0  0  0
 16 23  1  0  0  0  0
 17 21  1  0  0  0  0
 17 24  1  0  0  0  0
 19 24  1  0  0  0  0
 21 27  1  0  0  0  0
 24 28  1  0  0  0  0
M  CHG  1  24   1
M  END

> <original SMILES>

CC(=O)N1CCN(Cc2ccccc2)C2NC(=O)N(c3cccnc3)C21

> <ref_mols>

x0434_0,x0678_0,x0692_0,x0749_0,x0770_0,x0830_0,x1386_0,x1418_0

> <ref_pdb>

receptors/protein-0387.pdb

> <Chemgauss4>

-4.94093799591064

> <binding_free_energy>

-25.57750217727009

> <binding_std_error>

14.264139158423047

$$$$
SEL-UNI-8426c22c-3
  -OEChem-05122002103D

 18 19  0     0  0  0  0  0  0999 V2000
   12.6053    0.4753   23.6870 C   0  0  0  0  0  0  0  0  0  0  0  0
   11.5469   -0.2269   22.9234 C   0  0  0  0  0  0  0  0  0  0  0  0
   11.9526   -1.2396   22.1404 C   0  0  0  0  0  0  0  0  0  0  0  0
    9.6016    0.3194   24.2807 C   0  0  0  0  0  0  0  0  0  0  0  0
    9.6710    0.7315   21.7998 C   0  0  0  0  0  0  0  0  0  0  0  0
   13.4098   -1.6310   22.1341 C   0  0  0  0  0  0  0  0  0  0  0  0
    7.3545    0.1267   19.3897 C   0  0  0  0  0  0  0  0  0  0  0  0
    6.1817    0.4174   20.2779 C   0  0  0  0  0  0  0  0  0  0  0  0
   14.0941   -1.3033   23.4581 C   0  0  0  0  0  0  0  0  0  0  0  0
    7.5242    1.0211   20.5872 C   0  0  0  0  0  0  0  0  0  0  0  0
   11.0719   -2.0343   21.2189 C   0  0  0  0  0  0  0  0  0  0  0  0
   10.0166   -0.6957   25.3242 C   0  0  0  0  0  0  0  0  0  0  0  0
   13.7967    0.0522   23.9307 N   0  0  0  0  0  0  0  0  0  0  0  0
    8.2852    0.5996   21.7297 N   0  0  0  0  0  0  0  0  0  0  0  0
   10.2770    0.2532   23.0213 N   0  0  0  0  0  0  0  0  0  0  0  0
    8.7438    1.1537   24.5853 O   0  0  0  0  0  0  0  0  0  0  0  0
   10.3239    1.2229   20.8732 O   0  0  0  0  0  0  0  0  0  0  0  0
    7.7767    0.1601   22.4900 H   0  0  0  0  0  0  0  0  0  0  0  0
  1  2  1  0  0  0  0
  1 13  2  0  0  0  0
  2  3  2  0  0  0  0
  2 15  1  0  0  0  0
  3  6  1  0  0  0  0
  3 11  1  0  0  0  0
  4 12  1  0  0  0  0
  4 15  1  0  0  0  0
  4 16  2  0  0  0  0
  5 14  1  0  0  0  0
  5 15  1  0  0  0  0
  5 17  2  0  0  0  0
  6  9  1  0  0  0  0
  7  8  1  0  0  0  0
  7 10  1  0  0  0  0
  8 10  1  0  0  0  0
  9 13  1  0  0  0  0
 10 14  1  0  0  0  0
 14 18  1  0  0  0  0
M  END

> <original SMILES>

CC(=O)N(C(=O)NC1CC1)C1=CNCC=C1C

> <ref_mols>

x0107_0,x0397_0,x1374_0,x1425_0,x1478_0

> <ref_pdb>

receptors/Mpro-x1374-protein.pdb

> <Chemgauss4>

-3.871179

> <binding_free_energy>

-24.071801351515155

> <binding_std_error>

2.5047975420607664

$$$$
ALV-UNI-7ff1a6f9-22
  -OEChem-05122002103D

 27 31  0     0  0  0  0  0  0999 V2000
   11.0320   -0.6330   22.6178 C   0  0  0  0  0  0  0  0  0  0  0  0
    9.1553   -1.0116   25.8923 C   0  0  0  0  0  0  0  0  0  0  0  0
    7.3341   -0.3134   24.4666 C   0  0  0  0  0  0  0  0  0  0  0  0
   11.8357   -1.6547   22.0659 C   0  0  0  0  0  0  0  0  0  0  0  0
    8.4687   -2.1878   26.1935 C   0  0  0  0  0  0  0  0  0  0  0  0
    6.6475   -1.4896   24.7677 C   0  0  0  0  0  0  0  0  0  0  0  0
   12.7625    0.2254   24.2146 C   0  0  0  0  0  0  0  0  0  0  0  0
   14.8175   -1.0910   23.9844 C   0  0  0  0  0  0  0  0  0  0  0  0
   13.5275   -0.7883   23.6519 C   0  0  0  0  0  0  0  0  0  0  0  0
    8.5881   -0.0744   25.0289 C   0  0  0  0  0  0  0  0  0  0  0  0
   11.4757    0.2621   23.6419 C   0  0  0  0  0  0  0  0  0  0  0  0
   10.5561    1.2563   24.1125 C   0  0  0  0  0  0  0  0  0  0  0  0
   13.1277   -1.7149   22.6198 C   0  0  0  0  0  0  0  0  0  0  0  0
    7.2148   -2.4268   25.6311 C   0  0  0  0  0  0  0  0  0  0  0  0
    9.2975    1.1411   24.7180 C   0  0  0  0  0  0  0  0  0  0  0  0
   10.7880    2.6107   24.0361 C   0  0  0  0  0  0  0  0  0  0  0  0
    9.5860    4.6200   24.6699 C   0  0  0  0  0  0  0  0  0  0  0  0
   11.7262    4.6246   23.6360 C   0  0  0  0  0  0  0  0  0  0  0  0
   10.5815    5.3890   24.2091 C   0  0  0  0  0  0  0  0  0  0  0  0
   10.6295    6.8749   24.2226 C   0  0  0  0  0  0  0  0  0  0  0  0
   14.1535   -2.5417   22.3504 N   0  0  0  0  0  0  0  0  0  0  0  0
    8.7535    2.3214   25.0122 N   0  0  0  0  0  0  0  0  0  0  0  0
   11.8358    3.3334   23.5488 N   0  0  0  0  0  0  0  0  0  0  0  0
   15.1392   -2.1435   23.1779 N   0  0  0  0  0  0  0  0  0  0  0  0
    9.6704    3.2325   24.5928 N   0  0  0  0  0  0  0  0  0  0  0  0
    6.5554   -3.5564   25.9204 F   0  0  0  0  0  0  0  0  0  0  0  0
   16.0195   -2.6413   23.1401 H   0  0  0  0  0  0  0  0  0  0  0  0
  1  4  2  0  0  0  0
  1 11  1  0  0  0  0
  2  5  2  0  0  0  0
  2 10  1  0  0  0  0
  3  6  1  0  0  0  0
  3 10  2  0  0  0  0
  4 13  1  0  0  0  0
  5 14  1  0  0  0  0
  6 14  2  0  0  0  0
  7  9  1  0  0  0  0
  7 11  2  0  0  0  0
  8  9  2  0  0  0  0
  8 24  1  0  0  0  0
  9 13  1  0  0  0  0
 10 15  1  0  0  0  0
 11 12  1  0  0  0  0
 12 15  1  0  0  0  0
 12 16  2  0  0  0  0
 13 21  2  0  0  0  0
 14 26  1  0  0  0  0
 15 22  2  0  0  0  0
 16 23  1  0  0  0  0
 16 25  1  0  0  0  0
 17 19  2  0  0  0  0
 17 25  1  0  0  0  0
 18 19  1  0  0  0  0
 18 23  2  0  0  0  0
 19 20  1  0  0  0  0
 21 24  1  0  0  0  0
 22 25  1  0  0  0  0
 24 27  1  0  0  0  0
M  END

> <original SMILES>

Cc1cnc2c(-c3ccc4[nH]ncc4c3)c(-c3ccc(F)cc3)nn2c1

> <ref_mols>

x0395_0,x0426_0,x0434_0,x0540_0,x0678_0,x0830_0,x1093_0

> <ref_pdb>

receptors/Mpro-x1093-protein.pdb

> <Chemgauss4>

-6.421802

> <binding_free_energy>

-21.664681481010106

> <binding_std_error>

2.3154552752698465

$$$$
NIM-UNI-36e12f95-3
  -OEChem-05122002103D

 21 23  0     0  0  0  0  0  0999 V2000
    4.6931    0.4475   19.3236 C   0  0  0  0  0  0  0  0  0  0  0  0
   10.1492   -0.7113   22.8177 C   0  0  0  0  0  0  0  0  0  0  0  0
    5.1501   -0.3224   20.3874 C   0  0  0  0  0  0  0  0  0  0  0  0
   10.2651   -1.7669   23.7396 C   0  0  0  0  0  0  0  0  0  0  0  0
    5.4759    0.5058   18.1818 C   0  0  0  0  0  0  0  0  0  0  0  0
    7.0671   -0.8779   19.0940 C   0  0  0  0  0  0  0  0  0  0  0  0
    9.0450   -0.6146   21.9596 C   0  0  0  0  0  0  0  0  0  0  0  0
    6.3589   -1.0008   20.2786 C   0  0  0  0  0  0  0  0  0  0  0  0
    8.0777   -1.6012   22.0265 C   0  0  0  0  0  0  0  0  0  0  0  0
    8.1954   -2.6195   22.9759 C   0  0  0  0  0  0  0  0  0  0  0  0
    9.2705   -2.7385   23.8333 C   0  0  0  0  0  0  0  0  0  0  0  0
    6.1887   -2.9348   21.9153 C   0  0  0  0  0  0  0  0  0  0  0  0
    8.9732    0.4992   21.0272 C   0  0  0  0  0  0  0  0  0  0  0  0
    8.2928    1.7527   21.4955 C   0  0  0  0  0  0  0  0  0  0  0  0
    6.6554   -0.1394   18.0391 N   0  0  0  0  0  0  0  0  0  0  0  0
    7.0642   -3.4278   22.9183 N   0  0  0  0  0  0  0  0  0  0  0  0
    6.8505   -1.7925   21.3451 N   0  0  0  0  0  0  0  0  0  0  0  0
    5.1163   -3.4378   21.6084 O   0  0  0  0  0  0  0  0  0  0  0  0
    9.4244    0.4904   19.8800 O   0  0  0  0  0  0  0  0  0  0  0  0
    9.4086   -4.1314   25.0949 Br  0  0  0  0  0  0  0  0  0  0  0  0
    6.8926   -4.2391   23.4998 H   0  0  0  0  0  0  0  0  0  0  0  0
  1  3  2  0  0  0  0
  1  5  1  0  0  0  0
  2  4  2  0  0  0  0
  2  7  1  0  0  0  0
  3  8  1  0  0  0  0
  4 11  1  0  0  0  0
  5 15  2  0  0  0  0
  6  8  2  0  0  0  0
  6 15  1  0  0  0  0
  7  9  2  0  0  0  0
  7 13  1  0  0  0  0
  8 17  1  0  0  0  0
  9 10  1  0  0  0  0
  9 17  1  0  0  0  0
 10 11  2  0  0  0  0
 10 16  1  0  0  0  0
 11 20  1  0  0  0  0
 12 16  1  0  0  0  0
 12 17  1  0  0  0  0
 12 18  2  0  0  0  0
 13 14  1  0  0  0  0
 13 19  2  0  0  0  0
 16 21  1  0  0  0  0
M  END

> <original SMILES>

CC(=O)c1ccc(Br)c2[nH]c(=O)n(-c3cccnc3)c12

> <ref_mols>

x0434_0,x0678_0,x0692_0,x0749_0,x0770_0,x0830_0,x1386_0,x1418_0

> <ref_pdb>

receptors/protein-0387.pdb

> <Chemgauss4>

-5.72001075744629

> <binding_free_energy>

-17.775589720000013

> <binding_std_error>

2.2477057546738437

$$$$
JON-UIO-066ce08b-14
  -OEChem-05122002103D

 16 16  0     1  0  0  0  0  0999 V2000
   13.5437   -1.4248   21.3321 C   0  0  0  0  0  0  0  0  0  0  0  0
   12.3020   -0.8333   21.5640 C   0  0  0  0  0  0  0  0  0  0  0  0
   14.3746   -1.7461   22.4055 C   0  0  0  0  0  0  0  0  0  0  0  0
   12.7221   -0.8841   23.9427 C   0  0  0  0  0  0  0  0  0  0  0  0
   11.8912   -0.5629   22.8693 C   0  0  0  0  0  0  0  0  0  0  0  0
   13.9638   -1.4757   23.7108 C   0  0  0  0  0  0  0  0  0  0  0  0
    9.5237    0.5791   20.9136 C   0  0  0  0  0  0  0  0  0  0  0  0
    9.9440   -0.3265   24.4646 C   0  0  0  0  0  0  0  0  0  0  0  0
   10.5633    0.0696   23.1160 C   0  0  2  0  0  0  0  0  0  0  0  0
    8.4977    0.0470   19.9525 C   0  0  0  0  0  0  0  0  0  0  0  0
    9.6200   -0.2043   22.0451 N   0  0  0  0  0  0  0  0  0  0  0  0
   10.1941    1.5768   20.6631 O   0  0  0  0  0  0  0  0  0  0  0  0
   14.7617   -1.7838   24.7416 F   0  0  0  0  0  0  0  0  0  0  0  0
    9.0582   -0.2855   18.7601 F   0  0  0  0  0  0  0  0  0  0  0  0
    7.5391    0.9712   19.6810 F   0  0  0  0  0  0  0  0  0  0  0  0
    9.0070   -1.0047   22.1331 H   0  0  0  0  0  0  0  0  0  0  0  0
  1  2  2  0  0  0  0
  1  3  1  0  0  0  0
  2  5  1  0  0  0  0
  3  6  2  0  0  0  0
  4  5  2  0  0  0  0
  4  6  1  0  0  0  0
  5  9  1  0  0  0  0
  6 13  1  0  0  0  0
  7 10  1  0  0  0  0
  7 11  1  0  0  0  0
  7 12  2  0  0  0  0
  8  9  1  0  0  0  0
  9 11  1  0  0  0  0
 10 14  1  0  0  0  0
 10 15  1  0  0  0  0
 11 16  1  0  0  0  0
M  END

> <original SMILES>

C[C@H](NC(=O)C(F)F)c1cccc(F)c1

> <ref_mols>

x0689_0,x0769_0,x0831_0,x1382_0

> <ref_pdb>

receptors/Mpro-x0769-protein.pdb

> <Chemgauss4>

-2.553305

> <binding_free_energy>

-17.765678776767672

> <binding_std_error>

3.956361910947825

$$$$
CHR-SOS-7098f804-10
  -OEChem-05122002103D

 20 21  0     0  0  0  0  0  0999 V2000
   12.6591    1.4431   23.4465 C   0  0  0  0  0  0  0  0  0  0  0  0
   13.4803    0.3480   23.7150 C   0  0  0  0  0  0  0  0  0  0  0  0
    6.0317    0.4163   19.3246 C   0  0  0  0  0  0  0  0  0  0  0  0
   12.5755   -0.8018   21.7924 C   0  0  0  0  0  0  0  0  0  0  0  0
    6.3479    0.2215   17.9898 C   0  0  0  0  0  0  0  0  0  0  0  0
    8.5986    0.1361   18.4429 C   0  0  0  0  0  0  0  0  0  0  0  0
   11.7543    0.2933   21.5239 C   0  0  0  0  0  0  0  0  0  0  0  0
    8.3879    0.3271   19.7990 C   0  0  0  0  0  0  0  0  0  0  0  0
   11.7961    1.4157   22.3510 C   0  0  0  0  0  0  0  0  0  0  0  0
   13.4385   -0.7744   22.8879 C   0  0  0  0  0  0  0  0  0  0  0  0
    7.0769    0.4689   20.2401 C   0  0  0  0  0  0  0  0  0  0  0  0
   10.8587    0.2437   20.3766 C   0  0  0  0  0  0  0  0  0  0  0  0
    7.6089    0.0795   17.5237 N   0  0  0  0  0  0  0  0  0  0  0  0
    9.4958    0.3714   20.6824 N   0  0  0  0  0  0  0  0  0  0  0  0
   11.2844    0.0659   19.2279 O   0  0  0  0  0  0  0  0  0  0  0  0
   11.0000    2.4947   22.1066 O   0  0  0  0  0  0  0  0  0  0  0  0
   14.4533   -2.1247   23.2180 Cl  0  0  0  0  0  0  0  0  0  0  0  0
    6.7063    0.7107   21.9084 Cl  0  0  0  0  0  0  0  0  0  0  0  0
    9.2737    0.5142   21.6646 H   0  0  0  0  0  0  0  0  0  0  0  0
   10.4561    2.3375   21.3191 H   0  0  0  0  0  0  0  0  0  0  0  0
  1  2  2  0  0  0  0
  1  9  1  0  0  0  0
  2 10  1  0  0  0  0
  3  5  2  0  0  0  0
  3 11  1  0  0  0  0
  4  7  1  0  0  0  0
  4 10  2  0  0  0  0
  5 13  1  0  0  0  0
  6  8  1  0  0  0  0
  6 13  2  0  0  0  0
  7  9  2  0  0  0  0
  7 12  1  0  0  0  0
  8 11  2  0  0  0  0
  8 14  1  0  0  0  0
  9 16  1  0  0  0  0
 10 17  1  0  0  0  0
 11 18  1  0  0  0  0
 12 14  1  0  0  0  0
 12 15  2  0  0  0  0
 14 19  1  0  0  0  0
 16 20  1  0  0  0  0
M  END

> <original SMILES>

O=C(Nc1cnccc1Cl)c1cc(Cl)ccc1O

> <ref_mols>

x0107_0,x0161_0,x0195_0,x0678_0,x0946_0

> <ref_pdb>

receptors/Mpro-x0161_0.pdb

> <Chemgauss4>

-9.904811

> <binding_free_energy>

-16.68206243538465

> <binding_std_error>

3.698626213482679

$$$$
LIZ-THE-f118233e-1
  -OEChem-05122002103D

 25 27  0     0  0  0  0  0  0999 V2000
    6.5830   -5.5756   26.3514 C   0  0  0  0  0  0  0  0  0  0  0  0
    5.1234    1.5244   19.9362 C   0  0  0  0  0  0  0  0  0  0  0  0
    5.7341    1.5279   17.6816 C   0  0  0  0  0  0  0  0  0  0  0  0
    6.1038   -5.0821   27.5449 C   0  0  0  0  0  0  0  0  0  0  0  0
    5.2883   -3.7904   25.6171 C   0  0  0  0  0  0  0  0  0  0  0  0
    6.1108   -4.8273   25.2346 C   0  0  0  0  0  0  0  0  0  0  0  0
    4.9215    2.0402   18.6722 C   0  0  0  0  0  0  0  0  0  0  0  0
    6.7745    0.1622   19.1713 C   0  0  0  0  0  0  0  0  0  0  0  0
    6.4373   -5.0983   23.8259 C   0  0  0  0  0  0  0  0  0  0  0  0
    8.2745   -0.7596   20.7221 C   0  0  0  0  0  0  0  0  0  0  0  0
    7.4213   -4.3415   21.6960 C   0  0  0  0  0  0  0  0  0  0  0  0
    7.5397   -2.8253   23.6800 C   0  0  0  0  0  0  0  0  0  0  0  0
    7.3380   -3.0799   20.8477 C   0  0  0  0  0  0  0  0  0  0  0  0
    8.5407   -2.0882   22.7998 C   0  0  0  0  0  0  0  0  0  0  0  0
    6.0445    0.5811   20.2225 N   0  0  0  0  0  0  0  0  0  0  0  0
    6.6746    0.5848   17.8965 N   0  0  0  0  0  0  0  0  0  0  0  0
    7.0846   -4.0939   23.0967 N   0  0  0  0  0  0  0  0  0  0  0  0
    8.0503   -1.9432   21.4325 N   0  0  0  0  0  0  0  0  0  0  0  0
    3.9558    3.0169   18.4119 N   0  0  0  0  0  0  0  0  0  0  0  0
    6.1146   -6.2021   23.3892 O   0  0  0  0  0  0  0  0  0  0  0  0
    8.8672    0.2194   21.1729 O   0  0  0  0  0  0  0  0  0  0  0  0
    7.7395   -0.8160   19.4311 O   0  0  0  0  0  0  0  0  0  0  0  0
    5.0886   -3.7221   27.3165 S   0  0  0  0  0  0  0  0  0  0  0  0
    3.3498    3.3308   19.1511 H   0  0  0  0  0  0  0  0  0  0  0  0
    3.8066    3.3338   17.4687 H   0  0  0  0  0  0  0  0  0  0  0  0
  1  4  2  0  0  0  0
  1  6  1  0  0  0  0
  2  7  1  0  0  0  0
  2 15  2  0  0  0  0
  3  7  2  0  0  0  0
  3 16  1  0  0  0  0
  4 23  1  0  0  0  0
  5  6  2  0  0  0  0
  5 23  1  0  0  0  0
  6  9  1  0  0  0  0
  7 19  1  0  0  0  0
  8 15  1  0  0  0  0
  8 16  2  0  0  0  0
  8 22  1  0  0  0  0
  9 17  1  0  0  0  0
  9 20  2  0  0  0  0
 10 18  1  0  0  0  0
 10 21  2  0  0  0  0
 10 22  1  0  0  0  0
 11 13  1  0  0  0  0
 11 17  1  0  0  0  0
 12 14  1  0  0  0  0
 12 17  1  0  0  0  0
 13 18  1  0  0  0  0
 14 18  1  0  0  0  0
 19 24  1  0  0  0  0
 19 25  1  0  0  0  0
M  END

> <original SMILES>

Nc1cnc(OC(=O)N2CCN(C(=O)c3ccsc3)CC2)nc1

> <ref_mols>

x0995_0,x1412_0

> <ref_pdb>

receptors/Mpro-x1412-protein.pdb

> <Chemgauss4>

-1.269837

> <binding_free_energy>

-13.651686567268058

> <binding_std_error>

2.2976382286756816

$$$$
ALV-UNI-7ff1a6f9-36
  -OEChem-05122002103D

 24 27  0     0  0  0  0  0  0999 V2000
   10.8958   -2.1344   22.4073 C   0  0  0  0  0  0  0  0  0  0  0  0
   11.9035   -0.1561   21.4544 C   0  0  0  0  0  0  0  0  0  0  0  0
   12.1294   -2.5049   22.9426 C   0  0  0  0  0  0  0  0  0  0  0  0
   13.1371   -0.5266   21.9897 C   0  0  0  0  0  0  0  0  0  0  0  0
    8.9458   -0.1164   24.2822 C   0  0  0  0  0  0  0  0  0  0  0  0
   10.7828   -0.9600   21.6631 C   0  0  0  0  0  0  0  0  0  0  0  0
    8.3187   -0.3163   21.8147 C   0  0  0  0  0  0  0  0  0  0  0  0
   13.2500   -1.7011   22.7338 C   0  0  0  0  0  0  0  0  0  0  0  0
    9.5080   -0.5772   21.1097 C   0  0  0  0  0  0  0  0  0  0  0  0
    8.0620   -0.3625   23.2600 C   0  0  0  0  0  0  0  0  0  0  0  0
    7.4075    0.0031   20.8379 C   0  0  0  0  0  0  0  0  0  0  0  0
    8.1877   -0.2986   25.4544 C   0  0  0  0  0  0  0  0  0  0  0  0
    6.0465    0.3682   20.8052 C   0  0  0  0  0  0  0  0  0  0  0  0
    5.4645    0.6162   19.6256 C   0  0  0  0  0  0  0  0  0  0  0  0
    6.3111    0.4870   18.4020 C   0  0  0  0  0  0  0  0  0  0  0  0
    8.6436   -0.1600   26.8479 C   0  0  0  0  0  0  0  0  0  0  0  0
    5.6333    0.7703   17.0867 C   0  0  0  0  0  0  0  0  0  0  0  0
    9.3719   -0.4366   19.7887 N   0  0  0  0  0  0  0  0  0  0  0  0
    6.9199   -0.6343   25.2015 N   0  0  0  0  0  0  0  0  0  0  0  0
    7.5683    0.1526   18.3959 N   0  0  0  0  0  0  0  0  0  0  0  0
    6.8745   -0.6649   23.8588 N   0  0  0  0  0  0  0  0  0  0  0  0
    8.0781   -0.0807   19.6359 N   0  0  0  0  0  0  0  0  0  0  0  0
   14.4346   -2.0570   23.2479 F   0  0  0  0  0  0  0  0  0  0  0  0
    5.9952   -0.9006   23.4152 H   0  0  0  0  0  0  0  0  0  0  0  0
  1  3  2  0  0  0  0
  1  6  1  0  0  0  0
  2  4  1  0  0  0  0
  2  6  2  0  0  0  0
  3  8  1  0  0  0  0
  4  8  2  0  0  0  0
  5 10  2  0  0  0  0
  5 12  1  0  0  0  0
  6  9  1  0  0  0  0
  7  9  1  0  0  0  0
  7 10  1  0  0  0  0
  7 11  2  0  0  0  0
  8 23  1  0  0  0  0
  9 18  2  0  0  0  0
 10 21  1  0  0  0  0
 11 13  1  0  0  0  0
 11 22  1  0  0  0  0
 12 16  1  0  0  0  0
 12 19  2  0  0  0  0
 13 14  2  0  0  0  0
 14 15  1  0  0  0  0
 15 17  1  0  0  0  0
 15 20  2  0  0  0  0
 18 22  1  0  0  0  0
 19 21  1  0  0  0  0
 20 22  1  0  0  0  0
 21 24  1  0  0  0  0
M  END

> <original SMILES>

Cc1cc(-c2c(-c3ccc(F)cc3)nn3nc(C)ccc23)[nH]n1

> <ref_mols>

x0395_0,x0426_0,x0434_0,x0540_0,x0678_0,x0830_0,x1093_0

> <ref_pdb>

receptors/Mpro-x0426-protein.pdb

> <Chemgauss4>

-6.752863

> <binding_free_energy>

-13.536783342835594

> <binding_std_error>

2.3589662884424616

$$$$
TRY-UNI-714a760b-16
  -OEChem-05122002103D

 19 20  0     1  0  0  0  0  0999 V2000
    5.6580    0.9093   18.9186 C   0  0  0  0  0  0  0  0  0  0  0  0
    6.2802    0.7486   17.6910 C   0  0  0  0  0  0  0  0  0  0  0  0
    8.2235    0.0137   18.6717 C   0  0  0  0  0  0  0  0  0  0  0  0
    6.3844    0.5971   20.0623 C   0  0  0  0  0  0  0  0  0  0  0  0
    7.6924    0.1401   19.9452 C   0  0  0  0  0  0  0  0  0  0  0  0
    9.8549   -0.1016   21.2144 C   0  0  0  0  0  0  0  0  0  0  0  0
   14.4162   -1.5828   23.6772 C   0  0  0  0  0  0  0  0  0  0  0  0
   13.7617   -0.3944   24.3745 C   0  0  0  0  0  0  0  0  0  0  0  0
   14.0106   -1.6647   22.2088 C   0  0  0  0  0  0  0  0  0  0  0  0
   12.2433   -0.4128   24.2133 C   0  0  0  0  0  0  0  0  0  0  0  0
   12.4927   -1.6851   22.0438 C   0  0  0  0  0  0  0  0  0  0  0  0
   11.8313   -0.4861   22.7368 C   0  0  0  0  0  0  0  0  0  0  0  0
    5.7384    0.7615   21.3988 C   0  0  0  0  0  0  0  0  0  0  0  0
    9.6428    0.2946   23.6811 C   0  0  0  0  0  0  0  0  0  0  0  0
   10.3112   -0.5574   22.6038 C   0  0  1  0  0  0  0  0  0  0  0  0
    7.5488    0.3073   17.5376 N   0  0  0  0  0  0  0  0  0  0  0  0
    8.4724   -0.1910   21.0789 N   0  0  0  0  0  0  0  0  0  0  0  0
   10.6565    0.2903   20.3711 O   0  0  0  0  0  0  0  0  0  0  0  0
    7.9628   -0.5346   21.8900 H   0  0  0  0  0  0  0  0  0  0  0  0
  1  2  2  0  0  0  0
  1  4  1  0  0  0  0
  2 16  1  0  0  0  0
  3  5  1  0  0  0  0
  3 16  2  0  0  0  0
  4  5  2  0  0  0  0
  4 13  1  0  0  0  0
  5 17  1  0  0  0  0
  6 15  1  0  0  0  0
  6 17  1  0  0  0  0
  6 18  2  0  0  0  0
  7  8  1  0  0  0  0
  7  9  1  0  0  0  0
  8 10  1  0  0  0  0
  9 11  1  0  0  0  0
 10 12  1  0  0  0  0
 11 12  1  0  0  0  0
 12 15  1  0  0  0  0
 14 15  1  0  0  0  0
 17 19  1  0  0  0  0
M  END

> <original SMILES>

Cc1ccncc1NC(=O)C(C)C1CCCCC1

> <ref_mols>

x0107_0,x0434_0,x0678_0,x0748_0,x0995_0,x1382_0

> <ref_pdb>

receptors/Mpro-x0678-protein.pdb

> <Chemgauss4>

-12.283777

> <binding_free_energy>

-12.73080573881191

> <binding_std_error>

7.118614949567666

$$$$
ALV-UNI-7ff1a6f9-43
  -OEChem-05122002103D

 22 25  0     0  0  0  0  0  0999 V2000
   14.5604   -1.2404   23.9956 C   0  0  0  0  0  0  0  0  0  0  0  0
   13.5761   -0.2726   24.1626 C   0  0  0  0  0  0  0  0  0  0  0  0
    9.8116   -1.4546   25.2687 C   0  0  0  0  0  0  0  0  0  0  0  0
    8.2755   -1.0746   23.4430 C   0  0  0  0  0  0  0  0  0  0  0  0
    9.1556   -2.6474   25.5724 C   0  0  0  0  0  0  0  0  0  0  0  0
    7.6195   -2.2675   23.7467 C   0  0  0  0  0  0  0  0  0  0  0  0
   14.3429   -2.2303   23.0509 C   0  0  0  0  0  0  0  0  0  0  0  0
   12.2992   -1.3545   22.4729 C   0  0  0  0  0  0  0  0  0  0  0  0
    9.3715   -0.6681   24.2040 C   0  0  0  0  0  0  0  0  0  0  0  0
   12.4208   -0.3236   23.3906 C   0  0  0  0  0  0  0  0  0  0  0  0
    8.0595   -3.0539   24.8114 C   0  0  0  0  0  0  0  0  0  0  0  0
   10.0453    0.5575   23.8922 C   0  0  0  0  0  0  0  0  0  0  0  0
   11.3810    0.6664   23.5407 C   0  0  0  0  0  0  0  0  0  0  0  0
   10.3672    2.6093   23.5747 C   0  0  0  0  0  0  0  0  0  0  0  0
   12.5962    2.8326   22.9828 C   0  0  0  0  0  0  0  0  0  0  0  0
   12.2042    4.1199   22.9338 C   0  0  0  0  0  0  0  0  0  0  0  0
   13.0434    5.2968   22.5842 C   0  0  0  0  0  0  0  0  0  0  0  0
   13.2337   -2.3127   22.2825 N   0  0  0  0  0  0  0  0  0  0  0  0
    9.4128    1.7868   23.9114 N   0  0  0  0  0  0  0  0  0  0  0  0
   11.5620    2.0008   23.3413 N   0  0  0  0  0  0  0  0  0  0  0  0
    7.4296   -4.1995   25.1031 F   0  0  0  0  0  0  0  0  0  0  0  0
   10.4819    4.3267   23.3471 S   0  0  0  0  0  0  0  0  0  0  0  0
  1  2  2  0  0  0  0
  1  7  1  0  0  0  0
  2 10  1  0  0  0  0
  3  5  2  0  0  0  0
  3  9  1  0  0  0  0
  4  6  1  0  0  0  0
  4  9  2  0  0  0  0
  5 11  1  0  0  0  0
  6 11  2  0  0  0  0
  7 18  2  0  0  0  0
  8 10  2  0  0  0  0
  8 18  1  0  0  0  0
  9 12  1  0  0  0  0
 10 13  1  0  0  0  0
 11 21  1  0  0  0  0
 12 13  2  0  0  0  0
 12 19  1  0  0  0  0
 13 20  1  0  0  0  0
 14 19  2  0  0  0  0
 14 20  1  0  0  0  0
 14 22  1  0  0  0  0
 15 16  2  0  0  0  0
 15 20  1  0  0  0  0
 16 17  1  0  0  0  0
 16 22  1  0  0  0  0
M  END

> <original SMILES>

Cc1cn2c(-c3cccnc3)c(-c3ccc(F)cc3)nc2s1

> <ref_mols>

x0395_0,x0426_0,x0434_0,x0540_0,x0678_0,x0830_0,x1093_0

> <ref_pdb>

receptors/Mpro-x0540-protein.pdb

> <Chemgauss4>

-4.088367

> <binding_free_energy>

-12.51736660642073

> <binding_std_error>

0.9416212293948951

$$$$
BEN-VAN-d8fd1356-12
  -OEChem-05122002103D

 24 26  0     0  0  0  0  0  0999 V2000
   13.4910    2.6160   22.4863 C   0  0  0  0  0  0  0  0  0  0  0  0
    9.5204   -1.2741   25.0757 C   0  0  0  0  0  0  0  0  0  0  0  0
   10.0304   -2.3814   22.6346 C   0  0  0  0  0  0  0  0  0  0  0  0
   10.4946    3.8342   24.1887 C   0  0  0  0  0  0  0  0  0  0  0  0
   12.3253    2.9424   23.2074 C   0  0  0  0  0  0  0  0  0  0  0  0
    8.5640   -2.0921   24.4845 C   0  0  0  0  0  0  0  0  0  0  0  0
   11.7428    1.9677   24.0204 C   0  0  0  0  0  0  0  0  0  0  0  0
   11.5271    4.1147   23.3237 C   0  0  0  0  0  0  0  0  0  0  0  0
   12.2699    0.6777   24.1489 C   0  0  0  0  0  0  0  0  0  0  0  0
   14.0294    1.3296   22.6050 C   0  0  0  0  0  0  0  0  0  0  0  0
   13.4266    0.3769   23.4240 C   0  0  0  0  0  0  0  0  0  0  0  0
    8.8161   -2.6602   23.2408 C   0  0  0  0  0  0  0  0  0  0  0  0
   10.7033   -1.0575   24.3875 C   0  0  0  0  0  0  0  0  0  0  0  0
    7.2846   -2.3324   25.2175 C   0  0  0  0  0  0  0  0  0  0  0  0
   10.8831    6.4788   22.8528 C   0  0  0  0  0  0  0  0  0  0  0  0
   10.9839   -1.5919   23.1778 N   0  0  0  0  0  0  0  0  0  0  0  0
   10.6334    2.5369   24.6038 N   0  0  0  0  0  0  0  0  0  0  0  0
   11.7331    5.2966   22.7041 N   0  0  0  0  0  0  0  0  0  0  0  0
   11.6709   -0.2495   24.9544 O   0  0  0  0  0  0  0  0  0  0  0  0
   15.1394    1.0284   21.9143 F   0  0  0  0  0  0  0  0  0  0  0  0
   14.1336   -1.1967   23.5326 Cl  0  0  0  0  0  0  0  0  0  0  0  0
    7.5726   -3.7823   22.3664 Br  0  0  0  0  0  0  0  0  0  0  0  0
   10.0117    2.0642   25.2453 H   0  0  0  0  0  0  0  0  0  0  0  0
   12.5385    5.4118   22.0705 H   0  0  0  0  0  0  0  0  0  0  0  0
  1  5  1  0  0  0  0
  1 10  2  0  0  0  0
  2  6  2  0  0  0  0
  2 13  1  0  0  0  0
  3 12  2  0  0  0  0
  3 16  1  0  0  0  0
  4  8  2  0  0  0  0
  4 17  1  0  0  0  0
  5  7  2  0  0  0  0
  5  8  1  0  0  0  0
  6 12  1  0  0  0  0
  6 14  1  0  0  0  0
  7  9  1  0  0  0  0
  7 17  1  0  0  0  0
  8 18  1  0  0  0  0
  9 11  2  0  0  0  0
  9 19  1  0  0  0  0
 10 11  1  0  0  0  0
 10 20  1  0  0  0  0
 11 21  1  0  0  0  0
 12 22  1  0  0  0  0
 13 16  2  0  0  0  0
 13 19  1  0  0  0  0
 15 18  1  0  0  0  0
 17 23  1  0  0  0  0
 18 24  1  0  0  0  0
M  END

> <original SMILES>

CNc1c[nH]c2c(Oc3cc(C)c(Br)cn3)c(Cl)c(F)cc12

> <ref_mols>

x0104_0,x0107_0,x0946_0,x0995_0

> <ref_pdb>

receptors/Mpro-x0104-protein.pdb

> <Chemgauss4>

-7.925056

> <binding_free_energy>

-12.314507319999997

> <binding_std_error>

2.7669189163128944

$$$$
ALE-HEI-f28a35b5-17
  -OEChem-05122002103D

 19 20  0     0  0  0  0  0  0999 V2000
    5.8960    0.6371   19.1020 C   0  0  0  0  0  0  0  0  0  0  0  0
    6.4956    0.3422   17.8882 C   0  0  0  0  0  0  0  0  0  0  0  0
    8.5655    0.1264   18.8615 C   0  0  0  0  0  0  0  0  0  0  0  0
    6.7016    0.6704   20.2348 C   0  0  0  0  0  0  0  0  0  0  0  0
    8.0629    0.4114   20.1208 C   0  0  0  0  0  0  0  0  0  0  0  0
   10.2795    0.7655   21.2651 C   0  0  0  0  0  0  0  0  0  0  0  0
   10.7680   -1.2376   22.7994 C   0  0  0  0  0  0  0  0  0  0  0  0
   12.1358    0.8180   22.9126 C   0  0  0  0  0  0  0  0  0  0  0  0
   12.0353   -2.0845   22.8259 C   0  0  0  0  0  0  0  0  0  0  0  0
   13.4105   -0.0096   22.9140 C   0  0  0  0  0  0  0  0  0  0  0  0
    6.0815    0.9864   21.5563 C   0  0  0  0  0  0  0  0  0  0  0  0
   14.3677   -2.1737   23.7066 C   0  0  0  0  0  0  0  0  0  0  0  0
    7.8143    0.0850   17.7382 N   0  0  0  0  0  0  0  0  0  0  0  0
   11.0285    0.1085   22.2668 N   0  0  0  0  0  0  0  0  0  0  0  0
    8.9252    0.4330   21.2453 N   0  0  0  0  0  0  0  0  0  0  0  0
   13.1238   -1.3430   23.5616 N   0  3  0  0  0  0  0  0  0  0  0  0
   10.7965    1.5823   20.4985 O   0  0  0  0  0  0  0  0  0  0  0  0
    8.4901    0.1669   22.1701 H   0  0  0  0  0  0  0  0  0  0  0  0
   12.7819   -1.1573   24.5150 H   0  0  0  0  0  0  0  0  0  0  0  0
  1  2  2  0  0  0  0
  1  4  1  0  0  0  0
  2 13  1  0  0  0  0
  3  5  1  0  0  0  0
  3 13  2  0  0  0  0
  4  5  2  0  0  0  0
  4 11  1  0  0  0  0
  5 15  1  0  0  0  0
  6 14  1  0  0  0  0
  6 15  1  0  0  0  0
  6 17  2  0  0  0  0
  7  9  1  0  0  0  0
  7 14  1  0  0  0  0
  8 10  1  0  0  0  0
  8 14  1  0  0  0  0
  9 16  1  0  0  0  0
 10 16  1  0  0  0  0
 12 16  1  0  0  0  0
 15 18  1  0  0  0  0
 16 19  1  0  0  0  0
M  CHG  1  16   1
M  END

> <original SMILES>

Cc1ccncc1NC(=O)N1CCN(C)CC1

> <ref_mols>

x0107_0,x0395_0,x0434_0,x0678_0,x0967_0,x0991_0,x1093_0

> <ref_pdb>

receptors/Mpro-x1093-protein.pdb

> <Chemgauss4>

-5.126537

> <binding_free_energy>

-12.298713021922822

> <binding_std_error>

3.6586373548805846

$$$$
CHR-SOS-7098f804-6
  -OEChem-05122002103D

 19 20  0     0  0  0  0  0  0999 V2000
   13.3840   -1.1614   23.3421 C   0  0  0  0  0  0  0  0  0  0  0  0
   13.2554    0.2275   23.3506 C   0  0  0  0  0  0  0  0  0  0  0  0
   12.3187   -1.9580   22.9224 C   0  0  0  0  0  0  0  0  0  0  0  0
   12.0613    0.8198   22.9395 C   0  0  0  0  0  0  0  0  0  0  0  0
   11.1246   -1.3657   22.5114 C   0  0  0  0  0  0  0  0  0  0  0  0
    6.8646    1.0625   21.2051 C   0  0  0  0  0  0  0  0  0  0  0  0
    7.4776   -0.2588   19.2776 C   0  0  0  0  0  0  0  0  0  0  0  0
    5.6588    1.3997   20.5905 C   0  0  0  0  0  0  0  0  0  0  0  0
    6.2717    0.0784   18.6629 C   0  0  0  0  0  0  0  0  0  0  0  0
   10.9959    0.0232   22.5199 C   0  0  0  0  0  0  0  0  0  0  0  0
    7.7741    0.2332   20.5487 C   0  0  0  0  0  0  0  0  0  0  0  0
    5.3623    0.9077   19.3194 C   0  0  0  0  0  0  0  0  0  0  0  0
    9.7509    0.6408   22.0913 C   0  0  0  0  0  0  0  0  0  0  0  0
    8.9997   -0.1095   21.1734 N   0  0  0  0  0  0  0  0  0  0  0  0
    4.1347    1.2509   18.6938 N   0  0  0  0  0  0  0  0  0  0  0  0
    9.4098    1.7632   22.4896 O   0  0  0  0  0  0  0  0  0  0  0  0
    3.3305    1.9982   19.3016 O   0  0  0  0  0  0  0  0  0  0  0  0
    3.8876    0.7980   17.5499 O   0  0  0  0  0  0  0  0  0  0  0  0
    9.3847   -1.0172   20.9239 H   0  0  0  0  0  0  0  0  0  0  0  0
  1  2  1  0  0  0  0
  1  3  2  0  0  0  0
  2  4  2  0  0  0  0
  3  5  1  0  0  0  0
  4 10  1  0  0  0  0
  5 10  2  0  0  0  0
  6  8  2  0  0  0  0
  6 11  1  0  0  0  0
  7  9  1  0  0  0  0
  7 11  2  0  0  0  0
  8 12  1  0  0  0  0
  9 12  2  0  0  0  0
 10 13  1  0  0  0  0
 11 14  1  0  0  0  0
 12 15  1  0  0  0  0
 13 14  1  0  0  0  0
 13 16  2  0  0  0  0
 15 17  2  0  0  0  0
 15 18  2  0  0  0  0
 14 19  1  0  0  0  0
M  END

> <original SMILES>

O=C(Nc1ccc([N+](=O)[O-])cc1)c1ccccc1

> <ref_mols>

x0107_0,x0161_0,x0195_0,x0678_0,x0946_0

> <ref_pdb>

receptors/protein-0387.pdb

> <Chemgauss4>

-4.60802936553955

> <binding_free_energy>

-11.694883087368428

> <binding_std_error>

2.5162638543247624

$$$$
TRY-UNI-714a760b-5
  -OEChem-05122002103D

 18 19  0     0  0  0  0  0  0999 V2000
   14.4414   -2.1141   23.0676 C   0  0  0  0  0  0  0  0  0  0  0  0
   13.9030   -1.3728   24.1193 C   0  0  0  0  0  0  0  0  0  0  0  0
   14.0714   -1.8301   21.7530 C   0  0  0  0  0  0  0  0  0  0  0  0
   12.9945   -0.3476   23.8565 C   0  0  0  0  0  0  0  0  0  0  0  0
   13.1629   -0.8049   21.4902 C   0  0  0  0  0  0  0  0  0  0  0  0
    6.0123    0.3635   19.9815 C   0  0  0  0  0  0  0  0  0  0  0  0
    6.3437    0.1960   18.6466 C   0  0  0  0  0  0  0  0  0  0  0  0
    8.5897    0.3967   19.0865 C   0  0  0  0  0  0  0  0  0  0  0  0
   12.6244   -0.0636   22.5419 C   0  0  0  0  0  0  0  0  0  0  0  0
    7.0473    0.5555   20.8899 C   0  0  0  0  0  0  0  0  0  0  0  0
    8.3635    0.5739   20.4420 C   0  0  0  0  0  0  0  0  0  0  0  0
   10.8066    0.8042   21.0103 C   0  0  0  0  0  0  0  0  0  0  0  0
    6.7185    0.7394   22.3352 C   0  0  0  0  0  0  0  0  0  0  0  0
   11.6527    1.0324   22.2602 C   0  0  0  0  0  0  0  0  0  0  0  0
    7.6103    0.2077   18.1740 N   0  0  0  0  0  0  0  0  0  0  0  0
    9.4511    0.7655   21.3270 N   0  0  0  0  0  0  0  0  0  0  0  0
   11.3141    0.6774   19.9005 O   0  0  0  0  0  0  0  0  0  0  0  0
    9.2151    0.8894   22.3094 H   0  0  0  0  0  0  0  0  0  0  0  0
  1  2  1  0  0  0  0
  1  3  2  0  0  0  0
  2  4  2  0  0  0  0
  3  5  1  0  0  0  0
  4  9  1  0  0  0  0
  5  9  2  0  0  0  0
  6  7  2  0  0  0  0
  6 10  1  0  0  0  0
  7 15  1  0  0  0  0
  8 11  1  0  0  0  0
  8 15  2  0  0  0  0
  9 14  1  0  0  0  0
 10 11  2  0  0  0  0
 10 13  1  0  0  0  0
 11 16  1  0  0  0  0
 12 14  1  0  0  0  0
 12 16  1  0  0  0  0
 12 17  2  0  0  0  0
 16 18  1  0  0  0  0
M  END

> <original SMILES>

Cc1ccncc1NC(=O)Cc1ccccc1

> <ref_mols>

x0107_0,x0434_0,x0678_0,x0748_0,x0995_0,x1382_0

> <ref_pdb>

receptors/Mpro-x0107-protein.pdb

> <Chemgauss4>

-9.394628

> <binding_free_energy>

-11.650847155413537

> <binding_std_error>

4.760626084142947

$$$$
ALV-UNI-7ff1a6f9-14
  -OEChem-05122002103D

 27 31  0     0  0  0  0  0  0999 V2000
    8.6671   -0.3609   20.8854 C   0  0  0  0  0  0  0  0  0  0  0  0
    8.3340    2.8475   23.6062 C   0  0  0  0  0  0  0  0  0  0  0  0
   10.6240    2.1972   24.0185 C   0  0  0  0  0  0  0  0  0  0  0  0
    8.3781   -0.1701   19.5162 C   0  0  0  0  0  0  0  0  0  0  0  0
    8.7502    4.1552   23.3567 C   0  0  0  0  0  0  0  0  0  0  0  0
   11.0403    3.5050   23.7690 C   0  0  0  0  0  0  0  0  0  0  0  0
    6.4726    0.4993   21.7370 C   0  0  0  0  0  0  0  0  0  0  0  0
    5.0671    1.1781   19.8468 C   0  0  0  0  0  0  0  0  0  0  0  0
    6.2187    0.6749   20.3826 C   0  0  0  0  0  0  0  0  0  0  0  0
    9.2709    1.8685   23.9371 C   0  0  0  0  0  0  0  0  0  0  0  0
    7.7574   -0.0412   21.9423 C   0  0  0  0  0  0  0  0  0  0  0  0
    7.1000    0.3693   19.2812 C   0  0  0  0  0  0  0  0  0  0  0  0
   10.1033    4.4840   23.4381 C   0  0  0  0  0  0  0  0  0  0  0  0
    8.8434    0.5258   24.1935 C   0  0  0  0  0  0  0  0  0  0  0  0
    8.1830   -0.2876   23.3032 C   0  0  0  0  0  0  0  0  0  0  0  0
    8.5255   -1.3092   25.2428 C   0  0  0  0  0  0  0  0  0  0  0  0
    8.4311   -2.4193   26.1331 C   0  0  0  0  0  0  0  0  0  0  0  0
    7.2682   -3.6745   24.3868 C   0  0  0  0  0  0  0  0  0  0  0  0
    7.3546   -2.6321   23.5446 C   0  0  0  0  0  0  0  0  0  0  0  0
    7.8292   -3.5608   25.7327 C   0  0  0  0  0  0  0  0  0  0  0  0
    7.6970   -4.7599   26.6205 C   0  0  0  0  0  0  0  0  0  0  0  0
    6.4857    0.6832   18.1268 N   0  0  0  0  0  0  0  0  0  0  0  0
    9.0526   -0.1107   25.3906 N   0  0  0  0  0  0  0  0  0  0  0  0
    5.2822    1.1603   18.4995 N   0  0  0  0  0  0  0  0  0  0  0  0
    7.9774   -1.4656   23.9742 N   0  0  0  0  0  0  0  0  0  0  0  0
   10.5029    5.7398   23.1985 F   0  0  0  0  0  0  0  0  0  0  0  0
    4.6463    1.4608   17.7718 H   0  0  0  0  0  0  0  0  0  0  0  0
  1  4  2  0  0  0  0
  1 11  1  0  0  0  0
  2  5  2  0  0  0  0
  2 10  1  0  0  0  0
  3  6  1  0  0  0  0
  3 10  2  0  0  0  0
  4 12  1  0  0  0  0
  5 13  1  0  0  0  0
  6 13  2  0  0  0  0
  7  9  1  0  0  0  0
  7 11  2  0  0  0  0
  8  9  2  0  0  0  0
  8 24  1  0  0  0  0
  9 12  1  0  0  0  0
 10 14  1  0  0  0  0
 11 15  1  0  0  0  0
 12 22  2  0  0  0  0
 13 26  1  0  0  0  0
 14 15  2  0  0  0  0
 14 23  1  0  0  0  0
 15 25  1  0  0  0  0
 16 17  1  0  0  0  0
 16 23  2  0  0  0  0
 16 25  1  0  0  0  0
 17 20  2  0  0  0  0
 18 19  2  0  0  0  0
 18 20  1  0  0  0  0
 19 25  1  0  0  0  0
 20 21  1  0  0  0  0
 22 24  1  0  0  0  0
 24 27  1  0  0  0  0
M  END

> <original SMILES>

Cc1ccn2c(-c3ccc4[nH]ncc4c3)c(-c3ccc(F)cc3)nc2c1

> <ref_mols>

x0395_0,x0426_0,x0434_0,x0540_0,x0678_0,x0830_0,x1093_0

> <ref_pdb>

receptors/Mpro-x0830-protein.pdb

> <Chemgauss4>

-3.8201

> <binding_free_energy>

-11.520536002135017

> <binding_std_error>

5.924056279400585

$$$$
TRY-UNI-1fd04853-11
  -OEChem-05122002103D

 23 25  0     0  0  0  0  0  0999 V2000
    7.2749   -2.2930   21.1604 C   0  0  0  0  0  0  0  0  0  0  0  0
    8.0278   -3.2233   21.8745 C   0  0  0  0  0  0  0  0  0  0  0  0
   12.0892   -0.7609   25.2344 C   0  0  0  0  0  0  0  0  0  0  0  0
   11.3959   -1.8570   25.7358 C   0  0  0  0  0  0  0  0  0  0  0  0
    5.9934   -2.6409   20.7549 C   0  0  0  0  0  0  0  0  0  0  0  0
   13.8681   -2.2236   24.6406 C   0  0  0  0  0  0  0  0  0  0  0  0
    6.7948   -6.5507   22.7397 C   0  0  0  0  0  0  0  0  0  0  0  0
    7.4428   -4.4707   22.1460 C   0  0  0  0  0  0  0  0  0  0  0  0
    7.8418   -5.6577   22.8155 C   0  0  0  0  0  0  0  0  0  0  0  0
   13.3494   -0.9393   24.6748 C   0  0  0  0  0  0  0  0  0  0  0  0
   12.0019   -3.1003   25.6540 C   0  0  0  0  0  0  0  0  0  0  0  0
    6.1492   -4.6864   21.6798 C   0  0  0  0  0  0  0  0  0  0  0  0
    9.4790   -4.9079   24.5861 C   0  0  0  0  0  0  0  0  0  0  0  0
    9.1400   -5.9018   23.4755 C   0  0  0  0  0  0  0  0  0  0  0  0
   11.2820   -4.3060   26.1851 C   0  0  0  0  0  0  0  0  0  0  0  0
   13.2245   -3.3126   25.1175 N   0  0  0  0  0  0  0  0  0  0  0  0
    5.3803   -3.8248   20.9875 N   0  0  0  0  0  0  0  0  0  0  0  0
    5.7738   -5.9514   22.0486 N   0  0  0  0  0  0  0  0  0  0  0  0
   10.7398   -5.1225   25.1245 N   0  0  0  0  0  0  0  0  0  0  0  0
    8.7029   -4.0242   24.9404 O   0  0  0  0  0  0  0  0  0  0  0  0
   14.2333    0.3887   24.0455 Cl  0  0  0  0  0  0  0  0  0  0  0  0
    4.8812   -6.3773   21.8411 H   0  0  0  0  0  0  0  0  0  0  0  0
   11.3036   -5.8839   24.7581 H   0  0  0  0  0  0  0  0  0  0  0  0
  1  2  2  0  0  0  0
  1  5  1  0  0  0  0
  2  8  1  0  0  0  0
  3  4  2  0  0  0  0
  3 10  1  0  0  0  0
  4 11  1  0  0  0  0
  5 17  2  0  0  0  0
  6 10  2  0  0  0  0
  6 16  1  0  0  0  0
  7  9  2  0  0  0  0
  7 18  1  0  0  0  0
  8  9  1  0  0  0  0
  8 12  2  0  0  0  0
  9 14  1  0  0  0  0
 10 21  1  0  0  0  0
 11 15  1  0  0  0  0
 11 16  2  0  0  0  0
 12 17  1  0  0  0  0
 12 18  1  0  0  0  0
 13 14  1  0  0  0  0
 13 19  1  0  0  0  0
 13 20  2  0  0  0  0
 15 19  1  0  0  0  0
 18 22  1  0  0  0  0
 19 23  1  0  0  0  0
M  END

> <original SMILES>

O=C(Cc1c[nH]c2ncccc12)NCc1ccc(Cl)cn1

> <ref_mols>

x0104_0,x0161_0,x0195_0,x0305_0,x0387_0,x0678_0,x1382_0

> <ref_pdb>

receptors/Mpro-x0161-protein.pdb

> <Chemgauss4>

-7.189248

> <binding_free_energy>

-11.44049634807952

> <binding_std_error>

3.192411315744325

$$$$
LIZ-THE-d3ff4653-1
  -OEChem-05122002103D

 17 17  0     0  0  0  0  0  0999 V2000
   10.4827   -4.5538   24.8890 C   0  0  0  0  0  0  0  0  0  0  0  0
    9.5258   -5.3788   24.2981 C   0  0  0  0  0  0  0  0  0  0  0  0
    9.0231   -3.6453   22.6920 C   0  0  0  0  0  0  0  0  0  0  0  0
   10.7098   -3.2745   24.3815 C   0  0  0  0  0  0  0  0  0  0  0  0
    9.9800   -2.8203   23.2830 C   0  0  0  0  0  0  0  0  0  0  0  0
    8.7960   -4.9246   23.1996 C   0  0  0  0  0  0  0  0  0  0  0  0
   11.7148   -2.4342   25.0181 C   0  0  0  0  0  0  0  0  0  0  0  0
   10.2031   -1.4542   22.7204 C   0  0  0  0  0  0  0  0  0  0  0  0
   14.0281   -2.2834   25.5749 C   0  0  0  0  0  0  0  0  0  0  0  0
    6.2047   -5.5293   23.3554 N   0  0  0  0  0  0  0  0  0  0  0  0
   11.4808   -1.3338   25.5323 O   0  0  0  0  0  0  0  0  0  0  0  0
    7.4150   -5.5335   21.0794 O   0  0  0  0  0  0  0  0  0  0  0  0
    7.9339   -7.3420   22.7550 O   0  0  0  0  0  0  0  0  0  0  0  0
   12.9521   -3.0150   24.9776 O   0  0  0  0  0  0  0  0  0  0  0  0
    7.5964   -5.9563   22.4609 S   0  0  0  0  0  0  0  0  0  0  0  0
    5.4783   -4.9777   22.8826 H   0  0  0  0  0  0  0  0  0  0  0  0
    5.8352   -6.2127   24.0276 H   0  0  0  0  0  0  0  0  0  0  0  0
  1  2  2  0  0  0  0
  1  4  1  0  0  0  0
  2  6  1  0  0  0  0
  3  5  1  0  0  0  0
  3  6  2  0  0  0  0
  4  5  2  0  0  0  0
  4  7  1  0  0  0  0
  5  8  1  0  0  0  0
  6 15  1  0  0  0  0
  7 11  2  0  0  0  0
  7 14  1  0  0  0  0
  9 14  1  0  0  0  0
 10 15  1  0  0  0  0
 12 15  2  0  0  0  0
 13 15  2  0  0  0  0
 10 16  1  0  0  0  0
 10 17  1  0  0  0  0
M  END

> <original SMILES>

COC(=O)c1ccc(S(N)(=O)=O)cc1C

> <ref_mols>

x0161_0,x0305_0

> <ref_pdb>

receptors/Mpro-x0305-protein.pdb

> <Chemgauss4>

-5.376036

> <binding_free_energy>

-11.221998999999983

> <binding_std_error>

2.302035754205858

$$$$
MAT-GIT-deadff56-1
  -OEChem-05122002103D

 19 20  0     0  0  0  0  0  0999 V2000
    6.4581   -4.0941   20.8026 C   0  0  0  0  0  0  0  0  0  0  0  0
    7.7767   -5.8101   21.9324 C   0  0  0  0  0  0  0  0  0  0  0  0
    8.7418   -6.2053   22.8632 C   0  0  0  0  0  0  0  0  0  0  0  0
    8.0800   -3.4743   22.5231 C   0  0  0  0  0  0  0  0  0  0  0  0
   10.6489   -4.0476   25.0594 C   0  0  0  0  0  0  0  0  0  0  0  0
    7.4494   -4.4662   21.7633 C   0  0  0  0  0  0  0  0  0  0  0  0
    9.0562   -3.8487   23.4678 C   0  0  0  0  0  0  0  0  0  0  0  0
    9.8748   -3.1318   24.3848 C   0  0  0  0  0  0  0  0  0  0  0  0
    9.3639   -5.2028   23.6157 C   0  0  0  0  0  0  0  0  0  0  0  0
   12.9898   -0.9185   25.5753 C   0  0  0  0  0  0  0  0  0  0  0  0
   14.2723   -1.5902   25.9392 C   0  0  0  0  0  0  0  0  0  0  0  0
    9.8973   -1.6687   24.5851 C   0  0  0  0  0  0  0  0  0  0  0  0
   11.1104   -0.9667   23.9481 C   0  0  0  0  0  0  0  0  0  0  0  0
    5.6535   -3.7920   20.0228 N   0  0  0  0  0  0  0  0  0  0  0  0
   10.3338   -5.2939   24.5885 N   0  0  0  0  0  0  0  0  0  0  0  0
   12.3572   -1.4605   24.4680 N   0  0  0  0  0  0  0  0  0  0  0  0
   12.5910    0.0262   26.2462 O   0  0  0  0  0  0  0  0  0  0  0  0
   10.7523   -6.1565   24.9081 H   0  0  0  0  0  0  0  0  0  0  0  0
   12.7981   -2.2496   23.9979 H   0  0  0  0  0  0  0  0  0  0  0  0
  1  6  1  0  0  0  0
  1 14  3  0  0  0  0
  2  3  2  0  0  0  0
  2  6  1  0  0  0  0
  3  9  1  0  0  0  0
  4  6  2  0  0  0  0
  4  7  1  0  0  0  0
  5  8  2  0  0  0  0
  5 15  1  0  0  0  0
  7  8  1  0  0  0  0
  7  9  2  0  0  0  0
  8 12  1  0  0  0  0
  9 15  1  0  0  0  0
 10 11  1  0  0  0  0
 10 16  1  0  0  0  0
 10 17  2  0  0  0  0
 12 13  1  0  0  0  0
 13 16  1  0  0  0  0
 15 18  1  0  0  0  0
 16 19  1  0  0  0  0
M  END

> <original SMILES>

CC(=O)NCCc1c[nH]c2ccc(C#N)cc12

> <ref_mols>

x0104_0,x0434_0,x0678_0

> <ref_pdb>

receptors/Mpro-x0678_0.pdb

> <Chemgauss4>

-9.765643

> <binding_free_energy>

-11.147694800000025

> <binding_std_error>

3.71697235970339

$$$$
MIH-UNI-6b9ca91a-8
  -OEChem-05122002103D

 21 23  0     1  0  0  0  0  0999 V2000
    6.0189    0.6874   19.0002 C   0  0  0  0  0  0  0  0  0  0  0  0
    7.0065    0.4601   19.9522 C   0  0  0  0  0  0  0  0  0  0  0  0
   13.2814   -0.0579   24.2358 C   0  0  0  0  0  0  0  0  0  0  0  0
    6.3525    0.5172   17.6662 C   0  0  0  0  0  0  0  0  0  0  0  0
    8.5119   -0.0682   18.1885 C   0  0  0  0  0  0  0  0  0  0  0  0
   14.4941   -0.5844   24.6228 C   0  0  0  0  0  0  0  0  0  0  0  0
   13.1826   -2.1747   23.2808 C   0  0  0  0  0  0  0  0  0  0  0  0
   12.5215   -0.9791   23.4585 C   0  0  0  0  0  0  0  0  0  0  0  0
    8.2795    0.0749   19.5469 C   0  0  0  0  0  0  0  0  0  0  0  0
   11.1706    0.4972   21.9011 C   0  0  0  0  0  0  0  0  0  0  0  0
   10.1105   -0.3994   23.9901 C   0  0  0  0  0  0  0  0  0  0  0  0
   11.1467   -0.6765   22.8931 C   0  0  2  0  0  0  0  0  0  0  0  0
    9.7679    0.8433   21.3963 C   0  0  1  0  0  0  0  0  0  0  0  0
    8.7531   -0.0612   23.3770 C   0  0  2  0  0  0  0  0  0  0  0  0
    7.5780    0.1439   17.2343 N   0  0  0  0  0  0  0  0  0  0  0  0
    9.2823   -0.1585   20.4716 N   0  0  0  0  0  0  0  0  0  0  0  0
    8.8651    1.0510   22.4879 O   0  0  0  0  0  0  0  0  0  0  0  0
    7.8601    0.2498   24.4436 O   0  0  0  0  0  0  0  0  0  0  0  0
   14.7127   -2.1832   24.0496 S   0  0  0  0  0  0  0  0  0  0  0  0
    9.7029   -1.0787   20.5057 H   0  0  0  0  0  0  0  0  0  0  0  0
    7.8136   -0.5403   25.0039 H   0  0  0  0  0  0  0  0  0  0  0  0
  1  2  2  0  0  0  0
  1  4  1  0  0  0  0
  2  9  1  0  0  0  0
  3  6  2  0  0  0  0
  3  8  1  0  0  0  0
  4 15  2  0  0  0  0
  5  9  2  0  0  0  0
  5 15  1  0  0  0  0
  6 19  1  0  0  0  0
  7  8  2  0  0  0  0
  7 19  1  0  0  0  0
  8 12  1  0  0  0  0
  9 16  1  0  0  0  0
 10 12  1  0  0  0  0
 10 13  1  0  0  0  0
 11 12  1  0  0  0  0
 11 14  1  0  0  0  0
 13 16  1  0  0  0  0
 13 17  1  0  0  0  0
 14 17  1  0  0  0  0
 14 18  1  0  0  0  0
 16 20  1  0  0  0  0
 18 21  1  0  0  0  0
M  END

> <original SMILES>

O[C@@H]1C[C@H](c2ccsc2)C[C@@H](Nc2cccnc2)O1

> <ref_mols>

x0072_0,x0107_0,x0161_0,x0305_0,x0387_0,x0434_0,x0874_0

> <ref_pdb>

receptors/Mpro-x0874-protein.pdb

> <Chemgauss4>

-6.432608

> <binding_free_energy>

-11.056631531578947

> <binding_std_error>

3.647068501330281

$$$$
DAR-DIA-842b4336-10
  -OEChem-05122002103D

 16 17  0     0  0  0  0  0  0999 V2000
    6.2759    0.9309   19.6564 C   0  0  0  0  0  0  0  0  0  0  0  0
    7.0439    0.3231   20.6434 C   0  0  0  0  0  0  0  0  0  0  0  0
   11.6995   -0.0165   23.3623 C   0  0  0  0  0  0  0  0  0  0  0  0
    6.6599    0.7565   18.3366 C   0  0  0  0  0  0  0  0  0  0  0  0
    8.4563   -0.5436   18.9374 C   0  0  0  0  0  0  0  0  0  0  0  0
   13.0146    0.1875   23.0066 C   0  0  0  0  0  0  0  0  0  0  0  0
   12.2590   -2.0937   22.4821 C   0  0  0  0  0  0  0  0  0  0  0  0
   11.2617   -1.3380   23.0587 C   0  0  0  0  0  0  0  0  0  0  0  0
    8.1566   -0.4300   20.2854 C   0  0  0  0  0  0  0  0  0  0  0  0
    8.7830   -1.0364   22.6487 C   0  0  0  0  0  0  0  0  0  0  0  0
    9.8712   -1.8466   23.3354 C   0  0  0  0  0  0  0  0  0  0  0  0
    7.7341    0.0323   17.9503 N   0  0  0  0  0  0  0  0  0  0  0  0
    8.9449   -1.0502   21.2516 N   0  0  0  0  0  0  0  0  0  0  0  0
    7.8995   -0.4609   23.2759 O   0  0  0  0  0  0  0  0  0  0  0  0
   13.7158   -1.2105   22.3094 S   0  0  0  0  0  0  0  0  0  0  0  0
    9.7474   -1.5866   20.8987 H   0  0  0  0  0  0  0  0  0  0  0  0
  1  2  2  0  0  0  0
  1  4  1  0  0  0  0
  2  9  1  0  0  0  0
  3  6  2  0  0  0  0
  3  8  1  0  0  0  0
  4 12  2  0  0  0  0
  5  9  2  0  0  0  0
  5 12  1  0  0  0  0
  6 15  1  0  0  0  0
  7  8  2  0  0  0  0
  7 15  1  0  0  0  0
  8 11  1  0  0  0  0
  9 13  1  0  0  0  0
 10 11  1  0  0  0  0
 10 13  1  0  0  0  0
 10 14  2  0  0  0  0
 13 16  1  0  0  0  0
M  END

> <original SMILES>

O=C(Cc1ccsc1)Nc1cccnc1

> <ref_mols>

x0434_0,x0678_0,x1093_0

> <ref_pdb>

receptors/Mpro-x1093-protein.pdb

> <Chemgauss4>

-7.331079

> <binding_free_energy>

-10.930220718461527

> <binding_std_error>

3.7308610159339284

$$$$
MIH-UNI-6b9ca91a-5
  -OEChem-05122002103D

 19 20  0     0  0  0  0  0  0999 V2000
    6.4130   -2.4970   21.3024 C   0  0  0  0  0  0  0  0  0  0  0  0
    6.9443   -6.0912   22.1121 C   0  0  0  0  0  0  0  0  0  0  0  0
    6.4183   -4.9299   21.5460 C   0  0  0  0  0  0  0  0  0  0  0  0
    8.0045   -6.0087   23.0148 C   0  0  0  0  0  0  0  0  0  0  0  0
   12.1799   -3.6757   25.4196 C   0  0  0  0  0  0  0  0  0  0  0  0
   11.3042   -1.4353   25.1950 C   0  0  0  0  0  0  0  0  0  0  0  0
   13.4284   -3.1538   25.7580 C   0  0  0  0  0  0  0  0  0  0  0  0
   12.5527   -0.9133   25.5334 C   0  0  0  0  0  0  0  0  0  0  0  0
    8.0130   -3.6036   22.7851 C   0  0  0  0  0  0  0  0  0  0  0  0
    6.9527   -3.6862   21.8824 C   0  0  0  0  0  0  0  0  0  0  0  0
    8.5389   -4.7649   23.3512 C   0  0  0  0  0  0  0  0  0  0  0  0
   11.1178   -2.8165   25.1381 C   0  0  0  0  0  0  0  0  0  0  0  0
   13.6148   -1.7726   25.8149 C   0  0  0  0  0  0  0  0  0  0  0  0
    9.6726   -4.6770   24.3162 C   0  0  0  0  0  0  0  0  0  0  0  0
    5.9745   -1.5312   20.8314 N   0  0  0  0  0  0  0  0  0  0  0  0
    9.8761   -3.3356   24.8015 N   0  0  0  0  0  0  0  0  0  0  0  0
   14.8331   -1.2634   26.1450 O   0  0  0  0  0  0  0  0  0  0  0  0
    9.0651   -2.7333   24.9026 H   0  0  0  0  0  0  0  0  0  0  0  0
   14.8041   -0.2933   26.1420 H   0  0  0  0  0  0  0  0  0  0  0  0
  1 10  1  0  0  0  0
  1 15  3  0  0  0  0
  2  3  2  0  0  0  0
  2  4  1  0  0  0  0
  3 10  1  0  0  0  0
  4 11  2  0  0  0  0
  5  7  2  0  0  0  0
  5 12  1  0  0  0  0
  6  8  1  0  0  0  0
  6 12  2  0  0  0  0
  7 13  1  0  0  0  0
  8 13  2  0  0  0  0
  9 10  2  0  0  0  0
  9 11  1  0  0  0  0
 11 14  1  0  0  0  0
 12 16  1  0  0  0  0
 13 17  1  0  0  0  0
 14 16  1  0  0  0  0
 16 18  1  0  0  0  0
 17 19  1  0  0  0  0
M  END

> <original SMILES>

N#Cc1cccc(CNc2ccc(O)cc2)c1

> <ref_mols>

x0072_0,x0107_0,x0161_0,x0305_0,x0387_0,x0434_0,x0874_0

> <ref_pdb>

receptors/Mpro-x0107_0.pdb

> <Chemgauss4>

-8.755191

> <binding_free_energy>

-10.73166602734694

> <binding_std_error>

2.3650623570395033

$$$$
WAR-XCH-b72a1bbc-37
  -OEChem-05122002103D

 25 27  0     0  0  0  0  0  0999 V2000
   13.2460    2.3530   22.7295 C   0  0  0  0  0  0  0  0  0  0  0  0
   11.5645    1.7992   24.3736 C   0  0  0  0  0  0  0  0  0  0  0  0
   12.8327    3.6849   22.7553 C   0  0  0  0  0  0  0  0  0  0  0  0
   11.1512    3.1312   24.3995 C   0  0  0  0  0  0  0  0  0  0  0  0
    6.3614   -3.2040   23.8042 C   0  0  0  0  0  0  0  0  0  0  0  0
    5.5791   -4.3355   23.8753 C   0  0  0  0  0  0  0  0  0  0  0  0
    7.9784   -4.8736   23.8159 C   0  0  0  0  0  0  0  0  0  0  0  0
   12.6119    1.4101   23.5386 C   0  0  0  0  0  0  0  0  0  0  0  0
    7.7514   -3.5156   23.7696 C   0  0  0  0  0  0  0  0  0  0  0  0
   11.7853    4.0740   23.5903 C   0  0  0  0  0  0  0  0  0  0  0  0
   11.7615   -1.6424   22.3223 C   0  0  0  0  0  0  0  0  0  0  0  0
   11.8958   -1.6212   24.8506 C   0  0  0  0  0  0  0  0  0  0  0  0
   12.9842   -0.7246   22.2907 C   0  0  0  0  0  0  0  0  0  0  0  0
   13.1150   -0.6982   24.7522 C   0  0  0  0  0  0  0  0  0  0  0  0
   11.7533   -2.5032   23.5979 C   0  0  0  0  0  0  0  0  0  0  0  0
   10.4857   -3.3510   23.6722 C   0  0  0  0  0  0  0  0  0  0  0  0
   13.0237    0.0817   23.5132 N   0  0  0  0  0  0  0  0  0  0  0  0
   10.0729    5.7344   22.4005 N   0  0  0  0  0  0  0  0  0  0  0  0
   10.6254    5.9976   24.9047 O   0  0  0  0  0  0  0  0  0  0  0  0
   12.3758    6.5789   23.1883 O   0  0  0  0  0  0  0  0  0  0  0  0
    6.5196   -5.7663   23.9004 S   0  0  0  0  0  0  0  0  0  0  0  0
    9.0202   -2.2886   23.6809 S   0  0  0  0  0  0  0  0  0  0  0  0
   11.2668    5.7409   23.6228 S   0  0  0  0  0  0  0  0  0  0  0  0
    9.0895    5.8138   22.6869 H   0  0  0  0  0  0  0  0  0  0  0  0
   10.2870    6.2092   21.5151 H   0  0  0  0  0  0  0  0  0  0  0  0
  1  3  2  0  0  0  0
  1  8  1  0  0  0  0
  2  4  1  0  0  0  0
  2  8  2  0  0  0  0
  3 10  1  0  0  0  0
  4 10  2  0  0  0  0
  5  6  2  0  0  0  0
  5  9  1  0  0  0  0
  6 21  1  0  0  0  0
  7  9  2  0  0  0  0
  7 21  1  0  0  0  0
  8 17  1  0  0  0  0
  9 22  1  0  0  0  0
 10 23  1  0  0  0  0
 11 13  1  0  0  0  0
 11 15  1  0  0  0  0
 12 14  1  0  0  0  0
 12 15  1  0  0  0  0
 13 17  1  0  0  0  0
 14 17  1  0  0  0  0
 15 16  1  0  0  0  0
 16 22  1  0  0  0  0
 18 23  1  0  0  0  0
 19 23  2  0  0  0  0
 20 23  2  0  0  0  0
 18 24  1  0  0  0  0
 18 25  1  0  0  0  0
M  END

> <original SMILES>

NS(=O)(=O)c1ccc(N2CCC(CSc3ccsc3)CC2)cc1

> <ref_mols>

x0072_0,x0104_0,x0107_0,x0161_0,x0165_0

> <ref_pdb>

receptors/Mpro-x0161-protein.pdb

> <Chemgauss4>

-9.148085

> <binding_free_energy>

-10.568765640816327

> <binding_std_error>

2.679230994183504

$$$$
MIH-UNI-6b9ca91a-7
  -OEChem-05122002103D

 22 24  0     1  0  0  0  0  0999 V2000
    5.9793    1.6498   18.7801 C   0  0  0  0  0  0  0  0  0  0  0  0
    6.3821    1.1450   20.0114 C   0  0  0  0  0  0  0  0  0  0  0  0
   13.1644   -0.9517   24.1729 C   0  0  0  0  0  0  0  0  0  0  0  0
    6.5364    1.0964   17.6386 C   0  0  0  0  0  0  0  0  0  0  0  0
    7.8137   -0.3683   18.8639 C   0  0  0  0  0  0  0  0  0  0  0  0
   14.2923   -1.4811   23.5854 C   0  0  0  0  0  0  0  0  0  0  0  0
   12.7195   -0.5819   21.9218 C   0  0  0  0  0  0  0  0  0  0  0  0
   12.2532   -0.4309   23.2093 C   0  0  0  0  0  0  0  0  0  0  0  0
    7.3165    0.1167   20.0629 C   0  0  0  0  0  0  0  0  0  0  0  0
    9.7086   -0.5375   22.9858 C   0  0  0  0  0  0  0  0  0  0  0  0
   10.9136    1.6999   23.1580 C   0  0  0  0  0  0  0  0  0  0  0  0
   10.9248    0.2153   23.5623 C   0  0  2  0  0  0  0  0  0  0  0  0
    8.9889    0.2893   21.9189 C   0  0  1  0  0  0  0  0  0  0  0  0
    9.4924    2.2661   23.2220 C   0  0  1  0  0  0  0  0  0  0  0  0
    7.7720   -0.4512   21.3789 C   0  0  0  0  0  0  0  0  0  0  0  0
    7.4465    0.0967   17.6488 N   0  0  0  0  0  0  0  0  0  0  0  0
    9.5660    3.7069   22.8409 N   0  3  0  0  0  0  0  0  0  0  0  0
    8.5311    1.5259   22.4672 O   0  0  0  0  0  0  0  0  0  0  0  0
   14.2498   -1.3491   21.8786 S   0  0  0  0  0  0  0  0  0  0  0  0
    8.6437    4.1424   22.9088 H   0  0  0  0  0  0  0  0  0  0  0  0
    9.9003    3.8053   21.8796 H   0  0  0  0  0  0  0  0  0  0  0  0
   10.2072    4.2082   23.4596 H   0  0  0  0  0  0  0  0  0  0  0  0
  1  2  2  0  0  0  0
  1  4  1  0  0  0  0
  2  9  1  0  0  0  0
  3  6  2  0  0  0  0
  3  8  1  0  0  0  0
  4 16  2  0  0  0  0
  5  9  2  0  0  0  0
  5 16  1  0  0  0  0
  6 19  1  0  0  0  0
  7  8  2  0  0  0  0
  7 19  1  0  0  0  0
  8 12  1  0  0  0  0
  9 15  1  0  0  0  0
 10 12  1  0  0  0  0
 10 13  1  0  0  0  0
 11 12  1  0  0  0  0
 11 14  1  0  0  0  0
 13 15  1  0  0  0  0
 13 18  1  0  0  0  0
 14 17  1  0  0  0  0
 14 18  1  0  0  0  0
 17 20  1  0  0  0  0
 17 21  1  0  0  0  0
 17 22  1  0  0  0  0
M  CHG  1  17   1
M  END

> <original SMILES>

N[C@@H]1C[C@H](c2ccsc2)C[C@@H](Cc2cccnc2)O1

> <ref_mols>

x0072_0,x0107_0,x0161_0,x0305_0,x0387_0,x0434_0,x0874_0

> <ref_pdb>

receptors/protein-0387.pdb

> <Chemgauss4>

-5.49370193481445

> <binding_free_energy>

-10.555751857375096

> <binding_std_error>

3.5964297950429787

$$$$
ALV-UNI-7ff1a6f9-31
  -OEChem-05122002103D

 27 31  0     0  0  0  0  0  0999 V2000
   11.2229   -1.0481   22.0959 C   0  0  0  0  0  0  0  0  0  0  0  0
   10.0377   -1.7737   22.2702 C   0  0  0  0  0  0  0  0  0  0  0  0
    6.6113   -0.1650   22.0477 C   0  0  0  0  0  0  0  0  0  0  0  0
    6.2225   -2.0652   20.6071 C   0  0  0  0  0  0  0  0  0  0  0  0
    6.2840    0.6960   21.0003 C   0  0  0  0  0  0  0  0  0  0  0  0
    5.8952   -1.2041   19.5597 C   0  0  0  0  0  0  0  0  0  0  0  0
    9.8221   -0.9941   24.5667 C   0  0  0  0  0  0  0  0  0  0  0  0
   12.8179    0.5522   23.4109 C   0  0  0  0  0  0  0  0  0  0  0  0
   11.7091   -0.2882   23.1729 C   0  0  0  0  0  0  0  0  0  0  0  0
    6.5807   -1.5457   21.8511 C   0  0  0  0  0  0  0  0  0  0  0  0
    9.3508   -1.7458   23.4854 C   0  0  0  0  0  0  0  0  0  0  0  0
    8.1400   -2.5001   23.6297 C   0  0  0  0  0  0  0  0  0  0  0  0
   11.0054   -0.2782   24.3720 C   0  0  0  0  0  0  0  0  0  0  0  0
    5.9259    0.1765   19.7563 C   0  0  0  0  0  0  0  0  0  0  0  0
    6.9192   -2.4355   22.9334 C   0  0  0  0  0  0  0  0  0  0  0  0
    7.9525   -3.4998   24.5526 C   0  0  0  0  0  0  0  0  0  0  0  0
    8.7282   -4.0995   25.5652 C   0  0  0  0  0  0  0  0  0  0  0  0
    8.1971   -5.0860   26.2976 C   0  0  0  0  0  0  0  0  0  0  0  0
    6.7938   -5.4923   25.9871 C   0  0  0  0  0  0  0  0  0  0  0  0
    6.2185   -6.6044   26.8247 C   0  0  0  0  0  0  0  0  0  0  0  0
   12.8297    1.0571   24.6466 N   0  0  0  0  0  0  0  0  0  0  0  0
    6.0212   -3.3207   23.3732 N   0  0  0  0  0  0  0  0  0  0  0  0
    6.0504   -4.9610   25.0609 N   0  0  0  0  0  0  0  0  0  0  0  0
   11.7229    0.5382   25.2040 N   0  0  0  0  0  0  0  0  0  0  0  0
    6.6686   -3.9673   24.3665 N   0  0  0  0  0  0  0  0  0  0  0  0
    5.6116    1.0034   18.7505 F   0  0  0  0  0  0  0  0  0  0  0  0
   11.5112    0.7830   26.1633 H   0  0  0  0  0  0  0  0  0  0  0  0
  1  2  2  0  0  0  0
  1  9  1  0  0  0  0
  2 11  1  0  0  0  0
  3  5  2  0  0  0  0
  3 10  1  0  0  0  0
  4  6  1  0  0  0  0
  4 10  2  0  0  0  0
  5 14  1  0  0  0  0
  6 14  2  0  0  0  0
  7 11  2  0  0  0  0
  7 13  1  0  0  0  0
  8  9  1  0  0  0  0
  8 21  2  0  0  0  0
  9 13  2  0  0  0  0
 10 15  1  0  0  0  0
 11 12  1  0  0  0  0
 12 15  1  0  0  0  0
 12 16  2  0  0  0  0
 13 24  1  0  0  0  0
 14 26  1  0  0  0  0
 15 22  2  0  0  0  0
 16 17  1  0  0  0  0
 16 25  1  0  0  0  0
 17 18  2  0  0  0  0
 18 19  1  0  0  0  0
 19 20  1  0  0  0  0
 19 23  2  0  0  0  0
 21 24  1  0  0  0  0
 22 25  1  0  0  0  0
 23 25  1  0  0  0  0
 24 27  1  0  0  0  0
M  END

> <original SMILES>

Cc1ccc2c(-c3ccc4cn[nH]c4c3)c(-c3ccc(F)cc3)nn2n1

> <ref_mols>

x0395_0,x0426_0,x0434_0,x0540_0,x0678_0,x0830_0,x1093_0

> <ref_pdb>

receptors/Mpro-x0395-protein.pdb

> <Chemgauss4>

-7.341803

> <binding_free_energy>

-10.447925840000002

> <binding_std_error>

2.356847065638992

$$$$
JOH-MSK-ec639444-1
  -OEChem-05122002103D

 21 22  0     1  0  0  0  0  0999 V2000
   10.7809    2.2362   24.6528 C   0  0  0  0  0  0  0  0  0  0  0  0
   12.5929    0.9297   22.9144 C   0  0  0  0  0  0  0  0  0  0  0  0
   12.9301    4.5335   22.7917 C   0  0  0  0  0  0  0  0  0  0  0  0
   11.6737    2.9941   23.8692 C   0  0  0  0  0  0  0  0  0  0  0  0
   11.9203    4.3870   23.7145 C   0  0  0  0  0  0  0  0  0  0  0  0
   12.5573    2.3247   23.0198 C   0  0  0  0  0  0  0  0  0  0  0  0
   10.8052    0.8401   24.5578 C   0  0  0  0  0  0  0  0  0  0  0  0
   11.6981    0.1989   23.7013 C   0  0  0  0  0  0  0  0  0  0  0  0
    8.1686    5.5476   22.9826 C   0  0  0  0  0  0  0  0  0  0  0  0
    7.3445    4.8038   21.9848 C   0  0  0  0  0  0  0  0  0  0  0  0
   12.1761    6.3047   25.3193 C   0  0  0  0  0  0  0  0  0  0  0  0
    8.6584   -0.1636   24.7569 C   0  0  0  0  0  0  0  0  0  0  0  0
   10.4569    6.4153   23.4224 C   0  0  0  0  0  0  0  0  0  0  0  0
   11.2220    5.4861   24.4118 C   0  0  1  0  0  0  0  0  0  0  0  0
   13.3076    3.2841   22.3782 N   0  0  0  0  0  0  0  0  0  0  0  0
    9.4767    5.7148   22.5975 N   0  0  0  0  0  0  0  0  0  0  0  0
    7.6508    5.9395   24.0219 O   0  0  0  0  0  0  0  0  0  0  0  0
    9.9319    0.1261   25.3267 O   0  0  0  0  0  0  0  0  0  0  0  0
   11.7247   -1.5253   23.5876 Cl  0  0  0  0  0  0  0  0  0  0  0  0
   14.0308    3.0925   21.6987 H   0  0  0  0  0  0  0  0  0  0  0  0
    9.7718    5.3385   21.7092 H   0  0  0  0  0  0  0  0  0  0  0  0
  1  4  2  0  0  0  0
  1  7  1  0  0  0  0
  2  6  2  0  0  0  0
  2  8  1  0  0  0  0
  3  5  2  0  0  0  0
  3 15  1  0  0  0  0
  4  5  1  0  0  0  0
  4  6  1  0  0  0  0
  5 14  1  0  0  0  0
  6 15  1  0  0  0  0
  7  8  2  0  0  0  0
  7 18  1  0  0  0  0
  8 19  1  0  0  0  0
  9 10  1  0  0  0  0
  9 16  1  0  0  0  0
  9 17  2  0  0  0  0
 11 14  1  0  0  0  0
 12 18  1  0  0  0  0
 13 14  1  0  0  0  0
 13 16  1  0  0  0  0
 15 20  1  0  0  0  0
 16 21  1  0  0  0  0
M  END

> <original SMILES>

COc1cc2c([C@@H](C)CNC(C)=O)c[nH]c2cc1Cl

> <ref_mols>

x0104_0

> <ref_pdb>

receptors/protein-0387.pdb

> <Chemgauss4>

-4.73276281356812

> <binding_free_energy>

-10.304330885268087

> <binding_std_error>

4.011128437590698

$$$$
DAV-AUT-7eb4e0c3-4
  -OEChem-05122002103D

 21 23  0     1  0  0  0  0  0999 V2000
   11.6497    1.5950   24.4855 C   0  0  0  0  0  0  0  0  0  0  0  0
   10.9662    2.8091   24.5831 C   0  0  0  0  0  0  0  0  0  0  0  0
   13.1022    2.4727   22.7235 C   0  0  0  0  0  0  0  0  0  0  0  0
   12.4183    3.6662   22.8312 C   0  0  0  0  0  0  0  0  0  0  0  0
   12.7067    1.4284   23.5663 C   0  0  0  0  0  0  0  0  0  0  0  0
   11.3801    3.8209   23.7466 C   0  0  0  0  0  0  0  0  0  0  0  0
   12.6120    4.9236   22.0779 C   0  0  0  0  0  0  0  0  0  0  0  0
   12.2441   -2.8150   23.8939 C   0  0  0  0  0  0  0  0  0  0  0  0
   13.7373   -2.8501   24.1686 C   0  0  0  0  0  0  0  0  0  0  0  0
   12.7620   -0.8307   22.4536 C   0  0  0  0  0  0  0  0  0  0  0  0
   14.2434   -1.6434   24.9515 C   0  0  0  0  0  0  0  0  0  0  0  0
   13.4236    0.0937   23.4905 C   0  0  2  0  0  0  0  0  0  0  0  0
   10.4179   -1.6481   22.6923 C   0  0  0  0  0  0  0  0  0  0  0  0
   11.1746    6.2200   25.1410 C   0  0  0  0  0  0  0  0  0  0  0  0
   11.6809    5.9239   22.4964 N   0  0  0  0  0  0  0  0  0  0  0  0
   11.8225   -1.7859   23.0465 N   0  0  0  0  0  0  0  0  0  0  0  0
   13.4740    5.0330   21.2190 O   0  0  0  0  0  0  0  0  0  0  0  0
   11.5015   -3.6578   24.3992 O   0  0  0  0  0  0  0  0  0  0  0  0
    9.2730    5.3109   23.5613 O   0  0  0  0  0  0  0  0  0  0  0  0
   13.4553   -0.4695   24.8035 O   0  0  0  0  0  0  0  0  0  0  0  0
   10.7143    5.4354   23.6219 S   0  0  1  0  0  0  0  0  0  0  0  0
  1  2  2  0  0  0  0
  1  5  1  0  0  0  0
  2  6  1  0  0  0  0
  3  4  1  0  0  0  0
  3  5  2  0  0  0  0
  4  6  2  0  0  0  0
  4  7  1  0  0  0  0
  5 12  1  0  0  0  0
  6 21  1  0  0  0  0
  7 15  1  0  0  0  0
  7 17  2  0  0  0  0
  8  9  1  0  0  0  0
  8 16  1  0  0  0  0
  8 18  2  0  0  0  0
  9 11  1  0  0  0  0
 10 12  1  0  0  0  0
 10 16  1  0  0  0  0
 11 20  1  0  0  0  0
 12 20  1  0  0  0  0
 13 16  1  0  0  0  0
 14 21  1  0  0  0  0
 15 21  2  0  0  0  0
 19 21  2  0  0  0  0
M  END

> <original SMILES>

CN1C[C@@H](c2ccc3c(c2)C(=O)N=[S@@]3(C)=O)OCCC1=O

> <ref_mols>

x0161_0,x0305_0

> <ref_pdb>

receptors/protein-0387.pdb

> <Chemgauss4>

-4.9032621383667

> <binding_free_energy>

-10.041648872989695

> <binding_std_error>

2.633066111455608

$$$$
AGN-NEW-891393a6-2
  -OEChem-05122002103D

 20 21  0     0  0  0  0  0  0999 V2000
    5.8383    0.9738   18.8618 C   0  0  0  0  0  0  0  0  0  0  0  0
    6.5124    0.5744   20.0104 C   0  0  0  0  0  0  0  0  0  0  0  0
   12.3833   -1.6167   22.1115 C   0  0  0  0  0  0  0  0  0  0  0  0
   14.2044   -0.9311   23.5434 C   0  0  0  0  0  0  0  0  0  0  0  0
   11.9624   -0.1439   23.9799 C   0  0  0  0  0  0  0  0  0  0  0  0
    6.4936    0.8463   17.6477 C   0  0  0  0  0  0  0  0  0  0  0  0
    8.3704   -0.0205   18.6501 C   0  0  0  0  0  0  0  0  0  0  0  0
    7.8031    0.0667   19.9112 C   0  0  0  0  0  0  0  0  0  0  0  0
   13.7377   -1.6506   22.4433 C   0  0  0  0  0  0  0  0  0  0  0  0
   11.4956   -0.8633   22.8798 C   0  0  0  0  0  0  0  0  0  0  0  0
   13.3168   -0.1778   24.3117 C   0  0  0  0  0  0  0  0  0  0  0  0
    9.8797   -0.3296   21.2687 C   0  0  0  0  0  0  0  0  0  0  0  0
    7.7468    0.3577   17.5118 N   0  0  0  0  0  0  0  0  0  0  0  0
    8.5136   -0.3473   21.0607 N   0  0  0  0  0  0  0  0  0  0  0  0
   10.7505    0.0498   20.4941 O   0  0  0  0  0  0  0  0  0  0  0  0
   14.6037   -2.3860   21.6937 O   0  0  0  0  0  0  0  0  0  0  0  0
   10.1739   -0.8308   22.5564 O   0  0  0  0  0  0  0  0  0  0  0  0
   13.8928    0.7084   25.6699 Cl  0  0  0  0  0  0  0  0  0  0  0  0
    7.9500   -0.7019   21.8297 H   0  0  0  0  0  0  0  0  0  0  0  0
   15.5039   -2.3093   22.0479 H   0  0  0  0  0  0  0  0  0  0  0  0
  1  2  2  0  0  0  0
  1  6  1  0  0  0  0
  2  8  1  0  0  0  0
  3  9  2  0  0  0  0
  3 10  1  0  0  0  0
  4  9  1  0  0  0  0
  4 11  2  0  0  0  0
  5 10  2  0  0  0  0
  5 11  1  0  0  0  0
  6 13  2  0  0  0  0
  7  8  2  0  0  0  0
  7 13  1  0  0  0  0
  8 14  1  0  0  0  0
  9 16  1  0  0  0  0
 10 17  1  0  0  0  0
 11 18  1  0  0  0  0
 12 14  1  0  0  0  0
 12 15  2  0  0  0  0
 12 17  1  0  0  0  0
 14 19  1  0  0  0  0
 16 20  1  0  0  0  0
M  END

> <original SMILES>

O=C(Nc1cccnc1)Oc1cc(O)cc(Cl)c1

> <ref_mols>

x0434_0

> <ref_pdb>

receptors/protein-0387.pdb

> <Chemgauss4>

-4.89531993865967

> <binding_free_energy>

-10.038113936161473

> <binding_std_error>

2.4582565796893077

$$$$
ALE-HEI-f28a35b5-3
  -OEChem-05122002103D

 18 19  0     0  0  0  0  0  0999 V2000
    5.8220    1.0244   18.9723 C   0  0  0  0  0  0  0  0  0  0  0  0
    6.4582    0.6564   17.7977 C   0  0  0  0  0  0  0  0  0  0  0  0
    8.4305    0.2279   18.8951 C   0  0  0  0  0  0  0  0  0  0  0  0
    6.5569    0.9807   20.1517 C   0  0  0  0  0  0  0  0  0  0  0  0
    7.8868    0.5760   20.1211 C   0  0  0  0  0  0  0  0  0  0  0  0
   13.5065   -1.7771   23.3888 C   0  0  0  0  0  0  0  0  0  0  0  0
   11.5346   -0.5277   23.0457 C   0  0  0  0  0  0  0  0  0  0  0  0
   10.0524    0.6986   21.4018 C   0  0  0  0  0  0  0  0  0  0  0  0
    5.8962    1.3727   21.4326 C   0  0  0  0  0  0  0  0  0  0  0  0
   14.8893   -2.2449   23.6133 C   0  0  0  0  0  0  0  0  0  0  0  0
   10.4968    0.5459   22.8480 C   0  0  0  0  0  0  0  0  0  0  0  0
    7.7481    0.2579   17.7284 N   0  0  0  0  0  0  0  0  0  0  0  0
   12.4521   -2.5546   23.2635 N   0  0  0  0  0  0  0  0  0  0  0  0
   11.2957   -1.8218   23.0612 N   0  0  0  0  0  0  0  0  0  0  0  0
    8.6647    0.5155   21.2770 N   0  0  0  0  0  0  0  0  0  0  0  0
   10.8417    0.9478   20.4963 O   0  0  0  0  0  0  0  0  0  0  0  0
   13.1790   -0.0974   23.2739 S   0  0  0  0  0  0  0  0  0  0  0  0
    8.1594    0.3112   22.1473 H   0  0  0  0  0  0  0  0  0  0  0  0
  1  2  2  0  0  0  0
  1  4  1  0  0  0  0
  2 12  1  0  0  0  0
  3  5  1  0  0  0  0
  3 12  2  0  0  0  0
  4  5  2  0  0  0  0
  4  9  1  0  0  0  0
  5 15  1  0  0  0  0
  6 10  1  0  0  0  0
  6 13  2  0  0  0  0
  6 17  1  0  0  0  0
  7 11  1  0  0  0  0
  7 14  2  0  0  0  0
  7 17  1  0  0  0  0
  8 11  1  0  0  0  0
  8 15  1  0  0  0  0
  8 16  2  0  0  0  0
 13 14  1  0  0  0  0
 15 18  1  0  0  0  0
M  END

> <original SMILES>

Cc1nnc(CC(=O)Nc2cnccc2C)s1

> <ref_mols>

x0107_0,x0395_0,x0434_0,x0678_0,x0967_0,x0991_0,x1093_0

> <ref_pdb>

receptors/Mpro-x0678_0.pdb

> <Chemgauss4>

-10.637608

> <binding_free_energy>

-10.019654451020408

> <binding_std_error>

4.2134664388906735

$$$$
ANT-DIA-045cfdc4-3
  -OEChem-05122002103D

 20 22  0     1  0  0  0  0  0999 V2000
   10.3418    2.0311   23.4024 C   0  0  0  0  0  0  0  0  0  0  0  0
    7.1777    0.6573   20.6716 C   0  0  0  0  0  0  0  0  0  0  0  0
    8.7304   -0.1910   19.1466 C   0  0  0  0  0  0  0  0  0  0  0  0
   10.2286    3.4028   23.3439 C   0  0  0  0  0  0  0  0  0  0  0  0
   12.5764    2.6703   23.3779 C   0  0  0  0  0  0  0  0  0  0  0  0
    6.7888    0.7522   18.4340 C   0  0  0  0  0  0  0  0  0  0  0  0
   11.7019    1.6067   23.4222 C   0  0  0  0  0  0  0  0  0  0  0  0
    8.3933    0.0376   20.4650 C   0  0  0  0  0  0  0  0  0  0  0  0
   10.6251   -0.4171   21.5310 C   0  0  0  0  0  0  0  0  0  0  0  0
   13.4338   -1.7482   22.8217 C   0  0  0  0  0  0  0  0  0  0  0  0
   13.4549   -0.2258   22.8079 C   0  0  0  0  0  0  0  0  0  0  0  0
   11.9611   -2.1466   22.7082 C   0  0  0  0  0  0  0  0  0  0  0  0
   12.1328    0.1575   23.4838 C   0  0  2  0  0  0  0  0  0  0  0  0
   11.1477   -0.8571   22.8708 C   0  0  1  0  0  0  0  0  0  0  0  0
    6.3473    1.0296   19.6755 N   0  0  0  0  0  0  0  0  0  0  0  0
    7.9491    0.1543   18.1023 N   0  0  0  0  0  0  0  0  0  0  0  0
    9.2383   -0.3387   21.5359 N   0  0  0  0  0  0  0  0  0  0  0  0
   11.3935   -0.1751   20.6058 O   0  0  0  0  0  0  0  0  0  0  0  0
   11.7577    4.1729   23.3130 S   0  0  0  0  0  0  0  0  0  0  0  0
    8.7625   -0.5759   22.4039 H   0  0  0  0  0  0  0  0  0  0  0  0
  1  4  2  0  0  0  0
  1  7  1  0  0  0  0
  2  8  1  0  0  0  0
  2 15  2  0  0  0  0
  3  8  2  0  0  0  0
  3 16  1  0  0  0  0
  4 19  1  0  0  0  0
  5  7  2  0  0  0  0
  5 19  1  0  0  0  0
  6 15  1  0  0  0  0
  6 16  2  0  0  0  0
  7 13  1  0  0  0  0
  8 17  1  0  0  0  0
  9 14  1  0  0  0  0
  9 17  1  0  0  0  0
  9 18  2  0  0  0  0
 10 11  1  0  0  0  0
 10 12  1  0  0  0  0
 11 13  1  0  0  0  0
 12 14  1  0  0  0  0
 13 14  1  0  0  0  0
 17 20  1  0  0  0  0
M  END

> <original SMILES>

O=C(Nc1cncnc1)[C@H]1CCC[C@H]1c1ccsc1

> <ref_mols>

x0874_0

> <ref_pdb>

receptors/protein-0387.pdb

> <Chemgauss4>

-6.6090259552002

> <binding_free_energy>

-10.004704793846145

> <binding_std_error>

5.093061990323143

$$$$
MUS-SCH-c2f96c06-14
  -OEChem-05122002103D

 17 18  0     0  0  0  0  0  0999 V2000
    6.6826    0.7018   20.0618 C   0  0  0  0  0  0  0  0  0  0  0  0
    6.8796    0.3336   18.7407 C   0  0  0  0  0  0  0  0  0  0  0  0
    9.1639    0.3385   18.9865 C   0  0  0  0  0  0  0  0  0  0  0  0
   12.0086    1.8942   22.0117 C   0  0  0  0  0  0  0  0  0  0  0  0
    9.0739    0.7071   20.3191 C   0  0  0  0  0  0  0  0  0  0  0  0
    7.8058    0.8901   20.8594 C   0  0  0  0  0  0  0  0  0  0  0  0
   10.2727    0.8881   21.1001 C   0  0  0  0  0  0  0  0  0  0  0  0
   11.0108    0.0195   21.8691 C   0  0  0  0  0  0  0  0  0  0  0  0
    7.6133    1.2876   22.2871 C   0  0  0  0  0  0  0  0  0  0  0  0
   10.7740   -1.4110   22.1252 C   0  0  0  0  0  0  0  0  0  0  0  0
    8.0957    0.1465   18.1805 N   0  0  0  0  0  0  0  0  0  0  0  0
   12.0898    0.6521   22.4341 N   0  0  0  0  0  0  0  0  0  0  0  0
   10.9240    2.0851   21.2015 N   0  0  0  0  0  0  0  0  0  0  0  0
    7.8603    0.1657   23.1241 O   0  0  0  0  0  0  0  0  0  0  0  0
   12.2181   -2.1907   22.8269 Cl  0  0  0  0  0  0  0  0  0  0  0  0
   10.6573    2.9553   20.7598 H   0  0  0  0  0  0  0  0  0  0  0  0
    7.7256    0.4632   24.0383 H   0  0  0  0  0  0  0  0  0  0  0  0
  1  2  2  0  0  0  0
  1  6  1  0  0  0  0
  2 11  1  0  0  0  0
  3  5  1  0  0  0  0
  3 11  2  0  0  0  0
  4 12  2  0  0  0  0
  4 13  1  0  0  0  0
  5  6  2  0  0  0  0
  5  7  1  0  0  0  0
  6  9  1  0  0  0  0
  7  8  2  0  0  0  0
  7 13  1  0  0  0  0
  8 10  1  0  0  0  0
  8 12  1  0  0  0  0
  9 14  1  0  0  0  0
 10 15  1  0  0  0  0
 13 16  1  0  0  0  0
 14 17  1  0  0  0  0
M  END

> <original SMILES>

OCc1ccncc1-c1nc[nH]c1CCl

> <ref_mols>

x0107_0,x0540_0,x0995_0

> <ref_pdb>

receptors/Mpro-x0540-protein.pdb

> <Chemgauss4>

-6.148854

> <binding_free_energy>

-9.873736274545436

> <binding_std_error>

20.66016790587856

$$$$
BEN-VAN-d8fd1356-19
  -OEChem-05122002103D

 23 25  0     0  0  0  0  0  0999 V2000
    4.7336    0.7612   19.6598 C   0  0  0  0  0  0  0  0  0  0  0  0
   10.6172   -1.6746   22.7665 C   0  0  0  0  0  0  0  0  0  0  0  0
    7.1027    0.8750   19.2611 C   0  0  0  0  0  0  0  0  0  0  0  0
    8.6359   -0.7761   21.6875 C   0  0  0  0  0  0  0  0  0  0  0  0
    4.9877    1.1653   20.9606 C   0  0  0  0  0  0  0  0  0  0  0  0
   12.4954    1.4609   22.7984 C   0  0  0  0  0  0  0  0  0  0  0  0
   11.2161   -0.4005   22.7087 C   0  0  0  0  0  0  0  0  0  0  0  0
    5.8168    0.6157   18.8002 C   0  0  0  0  0  0  0  0  0  0  0  0
   12.4731    0.1237   23.1213 C   0  0  0  0  0  0  0  0  0  0  0  0
   10.5000    0.6536   22.1376 C   0  0  0  0  0  0  0  0  0  0  0  0
    9.2096    0.4967   21.6192 C   0  0  0  0  0  0  0  0  0  0  0  0
    9.3270   -1.8464   22.2519 C   0  0  0  0  0  0  0  0  0  0  0  0
    7.2507    1.2741   20.5797 C   0  0  0  0  0  0  0  0  0  0  0  0
    5.6004    0.1835   17.3899 C   0  0  0  0  0  0  0  0  0  0  0  0
   13.5642   -0.6232   23.7786 C   0  0  0  0  0  0  0  0  0  0  0  0
    6.2228    1.4264   21.4444 N   0  0  0  0  0  0  0  0  0  0  0  0
   11.3009    1.7713   22.2057 N   0  0  0  0  0  0  0  0  0  0  0  0
    8.5193    1.5361   21.0624 O   0  0  0  0  0  0  0  0  0  0  0  0
    8.7504   -3.0551   22.3035 F   0  0  0  0  0  0  0  0  0  0  0  0
   14.6701    0.1354   24.0679 F   0  0  0  0  0  0  0  0  0  0  0  0
   13.2140   -1.1893   24.9782 F   0  0  0  0  0  0  0  0  0  0  0  0
   14.0381   -1.6636   23.0225 F   0  0  0  0  0  0  0  0  0  0  0  0
   11.0434    2.6879   21.8669 H   0  0  0  0  0  0  0  0  0  0  0  0
  1  5  2  0  0  0  0
  1  8  1  0  0  0  0
  2  7  2  0  0  0  0
  2 12  1  0  0  0  0
  3  8  2  0  0  0  0
  3 13  1  0  0  0  0
  4 11  1  0  0  0  0
  4 12  2  0  0  0  0
  5 16  1  0  0  0  0
  6  9  2  0  0  0  0
  6 17  1  0  0  0  0
  7  9  1  0  0  0  0
  7 10  1  0  0  0  0
  8 14  1  0  0  0  0
  9 15  1  0  0  0  0
 10 11  2  0  0  0  0
 10 17  1  0  0  0  0
 11 18  1  0  0  0  0
 12 19  1  0  0  0  0
 13 16  2  0  0  0  0
 13 18  1  0  0  0  0
 15 20  1  0  0  0  0
 15 21  1  0  0  0  0
 15 22  1  0  0  0  0
 17 23  1  0  0  0  0
M  END

> <original SMILES>

Cc1ccnc(Oc2cc(F)cc3c(C(F)(F)F)c[nH]c23)c1

> <ref_mols>

x0104_0,x0107_0,x0946_0,x0995_0

> <ref_pdb>

receptors/Mpro-x0946-protein.pdb

> <Chemgauss4>

-7.495101

> <binding_free_energy>

-9.870704105630864

> <binding_std_error>

0.7839121283674206

$$$$
DOU-UNK-b5326f8f-16
  -OEChem-05122002103D

 19 21  0     1  0  0  0  0  0999 V2000
    7.3441   -5.5678   23.8831 C   0  0  0  0  0  0  0  0  0  0  0  0
   10.0592   -3.8372   23.8727 C   0  0  0  0  0  0  0  0  0  0  0  0
   13.4566   -2.2850   25.9674 C   0  0  0  0  0  0  0  0  0  0  0  0
    8.8562   -3.8400   23.0984 C   0  0  0  0  0  0  0  0  0  0  0  0
   10.5400   -2.5642   24.0878 C   0  0  0  0  0  0  0  0  0  0  0  0
    8.4908   -2.5543   22.7391 C   0  0  0  0  0  0  0  0  0  0  0  0
   11.7006   -2.1972   24.8165 C   0  0  0  0  0  0  0  0  0  0  0  0
    7.0538   -4.7157   21.5707 C   0  0  0  0  0  0  0  0  0  0  0  0
    6.3269   -3.3758   21.8030 C   0  0  0  0  0  0  0  0  0  0  0  0
    8.0543   -5.0483   22.7000 C   0  0  2  0  0  0  0  0  0  0  0  0
    7.3114   -2.1980   21.8903 C   0  0  2  0  0  0  0  0  0  0  0  0
    7.4979   -0.8545   18.4720 C   0  0  0  0  0  0  0  0  0  0  0  0
    6.9031   -1.1324   19.8360 C   0  0  0  0  0  0  0  0  0  0  0  0
    6.7852   -5.9765   24.8140 N   0  0  0  0  0  0  0  0  0  0  0  0
   13.2450   -1.0114   25.7311 N   0  0  0  0  0  0  0  0  0  0  0  0
   12.0897   -0.9537   24.9740 N   0  0  0  0  0  0  0  0  0  0  0  0
   12.5177   -3.1038   25.4191 O   0  0  0  0  0  0  0  0  0  0  0  0
    7.8223   -1.9062   20.5924 O   0  0  0  0  0  0  0  0  0  0  0  0
    9.5539   -1.3727   23.3563 S   0  0  0  0  0  0  0  0  0  0  0  0
  1 10  1  0  0  0  0
  1 14  3  0  0  0  0
  2  4  1  0  0  0  0
  2  5  2  0  0  0  0
  3 15  2  0  0  0  0
  3 17  1  0  0  0  0
  4  6  2  0  0  0  0
  4 10  1  0  0  0  0
  5  7  1  0  0  0  0
  5 19  1  0  0  0  0
  6 11  1  0  0  0  0
  6 19  1  0  0  0  0
  7 16  2  0  0  0  0
  7 17  1  0  0  0  0
  8  9  1  0  0  0  0
  8 10  1  0  0  0  0
  9 11  1  0  0  0  0
 11 18  1  0  0  0  0
 12 13  1  0  0  0  0
 13 18  1  0  0  0  0
 15 16  1  0  0  0  0
M  END

> <original SMILES>

CCOC1CCC(C#N)c2cc(-c3nnco3)sc21

> <ref_mols>

x0104_0,x0107_0,x0387_0,x0397_0,x0708_0,x0770_0,x1093_0,x1392_0

> <ref_pdb>

receptors/Mpro-x0107_0.pdb

> <Chemgauss4>

-7.412068

> <binding_free_energy>

-9.815183280808084

> <binding_std_error>

4.2134664388906735

$$$$
DAR-DIA-23aa0b97-19
  -OEChem-05122002103D

 23 25  0     0  0  0  0  0  0999 V2000
    5.6880   -1.0556   18.4218 C   0  0  0  0  0  0  0  0  0  0  0  0
   12.7403    2.2635   23.3297 C   0  0  0  0  0  0  0  0  0  0  0  0
   11.5364    2.2446   24.0301 C   0  0  0  0  0  0  0  0  0  0  0  0
    5.2390    1.0750   21.4409 C   0  0  0  0  0  0  0  0  0  0  0  0
    5.0682    0.5473   20.1611 C   0  0  0  0  0  0  0  0  0  0  0  0
   13.2666    1.0795   22.8136 C   0  0  0  0  0  0  0  0  0  0  0  0
   10.8533    1.0417   24.2175 C   0  0  0  0  0  0  0  0  0  0  0  0
    6.2058    0.5402   22.2925 C   0  0  0  0  0  0  0  0  0  0  0  0
    6.8308   -1.0500   20.5844 C   0  0  0  0  0  0  0  0  0  0  0  0
   13.0686   -1.3505   22.5013 C   0  0  0  0  0  0  0  0  0  0  0  0
   11.2813   -2.5245   23.3392 C   0  0  0  0  0  0  0  0  0  0  0  0
    5.8640   -0.5152   19.7329 C   0  0  0  0  0  0  0  0  0  0  0  0
   12.5877   -0.1367   22.9961 C   0  0  0  0  0  0  0  0  0  0  0  0
   11.3686   -0.1599   23.7046 C   0  0  0  0  0  0  0  0  0  0  0  0
   10.7077   -1.3818   23.8757 C   0  0  0  0  0  0  0  0  0  0  0  0
    7.0016   -0.5222   21.8643 C   0  0  0  0  0  0  0  0  0  0  0  0
    8.2867   -0.6612   24.0263 C   0  0  0  0  0  0  0  0  0  0  0  0
    9.4138   -1.5087   24.6094 C   0  0  0  0  0  0  0  0  0  0  0  0
    5.5452   -1.4945   17.3571 N   0  0  0  0  0  0  0  0  0  0  0  0
   12.4455   -2.5406   22.6559 N   0  0  0  0  0  0  0  0  0  0  0  0
    7.9833   -1.0636   22.7281 N   0  0  0  0  0  0  0  0  0  0  0  0
    7.7589    0.2426   24.6664 O   0  0  0  0  0  0  0  0  0  0  0  0
    8.5313   -1.8372   22.3573 H   0  0  0  0  0  0  0  0  0  0  0  0
  1 12  1  0  0  0  0
  1 19  3  0  0  0  0
  2  3  1  0  0  0  0
  2  6  2  0  0  0  0
  3  7  2  0  0  0  0
  4  5  2  0  0  0  0
  4  8  1  0  0  0  0
  5 12  1  0  0  0  0
  6 13  1  0  0  0  0
  7 14  1  0  0  0  0
  8 16  2  0  0  0  0
  9 12  2  0  0  0  0
  9 16  1  0  0  0  0
 10 13  2  0  0  0  0
 10 20  1  0  0  0  0
 11 15  1  0  0  0  0
 11 20  2  0  0  0  0
 13 14  1  0  0  0  0
 14 15  2  0  0  0  0
 15 18  1  0  0  0  0
 16 21  1  0  0  0  0
 17 18  1  0  0  0  0
 17 21  1  0  0  0  0
 17 22  2  0  0  0  0
 21 23  1  0  0  0  0
M  END

> <original SMILES>

N#Cc1cccc(NC(=O)Cc2cncc3ccccc23)c1

> <ref_mols>

x0104_0,x0305_0,x0434_0,x0678_0,x0995_0,x1093_0,x1249_0

> <ref_pdb>

receptors/Mpro-x0104-protein.pdb

> <Chemgauss4>

-8.744043

> <binding_free_energy>

-9.805733817227733

> <binding_std_error>

2.4955524467388406

$$$$
ALV-UNI-7ff1a6f9-47
  -OEChem-05122002103D

 23 25  0     0  0  0  0  0  0999 V2000
   11.6066   -1.6774   22.9799 C   0  0  0  0  0  0  0  0  0  0  0  0
   12.6188   -1.2295   22.1363 C   0  0  0  0  0  0  0  0  0  0  0  0
   10.9103   -0.7700   23.7787 C   0  0  0  0  0  0  0  0  0  0  0  0
   12.9387    0.1276   22.0884 C   0  0  0  0  0  0  0  0  0  0  0  0
   10.5284    1.5271   24.5404 C   0  0  0  0  0  0  0  0  0  0  0  0
   10.8483    2.8842   24.4925 C   0  0  0  0  0  0  0  0  0  0  0  0
    6.3578    7.4882   22.8186 C   0  0  0  0  0  0  0  0  0  0  0  0
   12.5569    2.4248   22.8501 C   0  0  0  0  0  0  0  0  0  0  0  0
    8.4950    7.1444   23.8669 C   0  0  0  0  0  0  0  0  0  0  0  0
    6.7100    6.5096   21.9030 C   0  0  0  0  0  0  0  0  0  0  0  0
   11.2189    0.5996   23.7433 C   0  0  0  0  0  0  0  0  0  0  0  0
   12.2483    1.0552   22.8855 C   0  0  0  0  0  0  0  0  0  0  0  0
   11.8606    3.3322   23.6490 C   0  0  0  0  0  0  0  0  0  0  0  0
    7.2729    7.8058   23.8161 C   0  0  0  0  0  0  0  0  0  0  0  0
    8.7514    6.1811   22.9046 C   0  0  0  0  0  0  0  0  0  0  0  0
   11.0207    5.7071   23.8896 C   0  0  0  0  0  0  0  0  0  0  0  0
    7.9592    9.0344   25.7332 C   0  0  0  0  0  0  0  0  0  0  0  0
   12.2010    4.7836   23.5989 C   0  0  0  0  0  0  0  0  0  0  0  0
    7.8874    5.8455   21.9204 N   0  0  0  0  0  0  0  0  0  0  0  0
    9.9978    5.5134   22.9647 N   0  0  0  0  0  0  0  0  0  0  0  0
   11.0332    6.4958   24.8292 O   0  0  0  0  0  0  0  0  0  0  0  0
    6.9734    8.7599   24.7385 O   0  0  0  0  0  0  0  0  0  0  0  0
   10.1661    4.8098   22.2487 H   0  0  0  0  0  0  0  0  0  0  0  0
  1  2  1  0  0  0  0
  1  3  2  0  0  0  0
  2  4  2  0  0  0  0
  3 11  1  0  0  0  0
  4 12  1  0  0  0  0
  5  6  2  0  0  0  0
  5 11  1  0  0  0  0
  6 13  1  0  0  0  0
  7 10  2  0  0  0  0
  7 14  1  0  0  0  0
  8 12  1  0  0  0  0
  8 13  2  0  0  0  0
  9 14  2  0  0  0  0
  9 15  1  0  0  0  0
 10 19  1  0  0  0  0
 11 12  2  0  0  0  0
 13 18  1  0  0  0  0
 14 22  1  0  0  0  0
 15 19  2  0  0  0  0
 15 20  1  0  0  0  0
 16 18  1  0  0  0  0
 16 20  1  0  0  0  0
 16 21  2  0  0  0  0
 17 22  1  0  0  0  0
 20 23  1  0  0  0  0
M  END

> <original SMILES>

COc1ccnc(NC(=O)Cc2ccc3ccccc3c2)c1

> <ref_mols>

x0395_0,x0426_0,x0434_0,x0540_0,x0678_0,x0830_0,x1093_0

> <ref_pdb>

receptors/Mpro-x0434-protein.pdb

> <Chemgauss4>

-6.484867

> <binding_free_energy>

-9.737808760000007

> <binding_std_error>

2.41936775980067

$$$$
AGN-NEW-c7b24fe3-5
  -OEChem-05122002103D

 20 21  0     0  0  0  0  0  0999 V2000
    7.9368    4.8069   21.7535 C   0  0  0  0  0  0  0  0  0  0  0  0
    8.7464    5.3113   22.4828 C   0  0  0  0  0  0  0  0  0  0  0  0
   13.8200   -1.2028   23.0236 C   0  0  0  0  0  0  0  0  0  0  0  0
   11.4184    7.1947   25.0476 C   0  0  0  0  0  0  0  0  0  0  0  0
   13.5898   -0.0278   22.3081 C   0  0  0  0  0  0  0  0  0  0  0  0
   11.8345    6.0297   24.4129 C   0  0  0  0  0  0  0  0  0  0  0  0
   13.3789   -1.3143   24.3422 C   0  0  0  0  0  0  0  0  0  0  0  0
   12.4775    0.9244   24.2298 C   0  0  0  0  0  0  0  0  0  0  0  0
   10.1382    7.6549   24.7845 C   0  0  0  0  0  0  0  0  0  0  0  0
    9.7097    5.9114   23.3511 C   0  0  0  0  0  0  0  0  0  0  0  0
   12.9186    1.0358   22.9112 C   0  0  0  0  0  0  0  0  0  0  0  0
   10.9698    5.3697   23.5468 C   0  0  0  0  0  0  0  0  0  0  0  0
   12.7077   -0.2506   24.9453 C   0  0  0  0  0  0  0  0  0  0  0  0
   12.6250    3.5471   23.0141 C   0  0  0  0  0  0  0  0  0  0  0  0
   12.6738    2.2924   22.1460 C   0  0  0  0  0  0  0  0  0  0  0  0
    9.2700    7.0410   23.9496 N   0  0  0  0  0  0  0  0  0  0  0  0
   11.3919    4.1841   22.8993 N   0  0  0  0  0  0  0  0  0  0  0  0
   13.5807    3.8964   23.6995 O   0  0  0  0  0  0  0  0  0  0  0  0
   12.1647   -0.3883   26.5726 Cl  0  0  0  0  0  0  0  0  0  0  0  0
   10.7156    3.7461   22.2774 H   0  0  0  0  0  0  0  0  0  0  0  0
  1  2  3  0  0  0  0
  2 10  1  0  0  0  0
  3  5  2  0  0  0  0
  3  7  1  0  0  0  0
  4  6  2  0  0  0  0
  4  9  1  0  0  0  0
  5 11  1  0  0  0  0
  6 12  1  0  0  0  0
  7 13  2  0  0  0  0
  8 11  2  0  0  0  0
  8 13  1  0  0  0  0
  9 16  2  0  0  0  0
 10 12  2  0  0  0  0
 10 16  1  0  0  0  0
 11 15  1  0  0  0  0
 12 17  1  0  0  0  0
 13 19  1  0  0  0  0
 14 15  1  0  0  0  0
 14 17  1  0  0  0  0
 14 18  2  0  0  0  0
 17 20  1  0  0  0  0
M  END

> <original SMILES>

C#Cc1ncccc1NC(=O)Cc1cccc(Cl)c1

> <ref_mols>

x0434_0

> <ref_pdb>

receptors/protein-0387.pdb

> <Chemgauss4>

-4.59582710266113

> <binding_free_energy>

-9.500194830910019

> <binding_std_error>

7.267927698739415

$$$$
GUZ-UNI-5a173832-3
  -OEChem-05122002103D

 23 25  0     0  0  0  0  0  0999 V2000
    4.0858   -6.6026   28.1053 C   0  0  0  0  0  0  0  0  0  0  0  0
   12.1516    5.5399   23.7412 C   0  0  0  0  0  0  0  0  0  0  0  0
    4.4318   -5.5207   27.2608 C   0  0  0  0  0  0  0  0  0  0  0  0
   11.4965    4.3063   23.9697 C   0  0  0  0  0  0  0  0  0  0  0  0
    5.2028   -7.4018   28.1792 C   0  0  0  0  0  0  0  0  0  0  0  0
   13.0940    5.2976   22.7690 C   0  0  0  0  0  0  0  0  0  0  0  0
    5.7357   -5.7359   26.8792 C   0  0  0  0  0  0  0  0  0  0  0  0
   12.0850    3.3982   23.1206 C   0  0  0  0  0  0  0  0  0  0  0  0
    9.3708   -2.1859   23.8516 C   0  0  0  0  0  0  0  0  0  0  0  0
    8.5337   -2.9574   24.8218 C   0  0  0  0  0  0  0  0  0  0  0  0
    9.5554   -0.7305   24.1441 C   0  0  0  0  0  0  0  0  0  0  0  0
    6.5581   -4.8911   25.9957 C   0  0  0  0  0  0  0  0  0  0  0  0
   11.7587    1.9687   22.9775 C   0  0  0  0  0  0  0  0  0  0  0  0
    8.5803   -4.2965   24.7573 C   0  0  0  0  0  0  0  0  0  0  0  0
   10.5140   -0.0769   23.4710 C   0  0  0  0  0  0  0  0  0  0  0  0
    7.8231   -5.1580   25.6343 C   0  0  0  0  0  0  0  0  0  0  0  0
   10.7959    1.3268   23.6581 C   0  0  0  0  0  0  0  0  0  0  0  0
    7.6984   -2.2376   25.8392 C   0  0  0  0  0  0  0  0  0  0  0  0
    8.7036   -0.0523   25.1761 C   0  0  0  0  0  0  0  0  0  0  0  0
    8.3856   -0.9760   26.3440 C   0  0  0  0  0  0  0  0  0  0  0  0
    9.8812   -2.7189   22.8701 O   0  0  0  0  0  0  0  0  0  0  0  0
    6.2130   -6.8804   27.4347 O   0  0  0  0  0  0  0  0  0  0  0  0
   13.0597    3.9945   22.3852 O   0  0  0  0  0  0  0  0  0  0  0  0
  1  3  1  0  0  0  0
  1  5  2  0  0  0  0
  2  4  1  0  0  0  0
  2  6  2  0  0  0  0
  3  7  2  0  0  0  0
  4  8  2  0  0  0  0
  5 22  1  0  0  0  0
  6 23  1  0  0  0  0
  7 12  1  0  0  0  0
  7 22  1  0  0  0  0
  8 13  1  0  0  0  0
  8 23  1  0  0  0  0
  9 10  1  0  0  0  0
  9 11  1  0  0  0  0
  9 21  2  0  0  0  0
 10 14  2  0  0  0  0
 10 18  1  0  0  0  0
 11 15  2  0  0  0  0
 11 19  1  0  0  0  0
 12 16  2  0  0  0  0
 13 17  2  0  0  0  0
 14 16  1  0  0  0  0
 15 17  1  0  0  0  0
 18 20  1  0  0  0  0
 19 20  1  0  0  0  0
M  END

> <original SMILES>

O=C1/C(=C/C=C/c2ccco2)CCC/C1=C\C=C\c1ccco1

> <ref_mols>

x0104_0,x0305_0,x0434_0,x0830_0

> <ref_pdb>

receptors/Mpro-x0434-protein.pdb

> <Chemgauss4>

-3.18235

> <binding_free_energy>

-9.344990080000017

> <binding_std_error>

3.033509989940371

$$$$
ANN-UNI-26382800-5
  -OEChem-05122002103D

 19 20  0     0  0  0  0  0  0999 V2000
    6.7517   -2.7136   20.9226 C   0  0  0  0  0  0  0  0  0  0  0  0
    6.0716   -6.1415   22.2044 C   0  0  0  0  0  0  0  0  0  0  0  0
   13.7799   -1.5567   25.2076 C   0  0  0  0  0  0  0  0  0  0  0  0
    5.9550   -4.9583   21.4750 C   0  0  0  0  0  0  0  0  0  0  0  0
    7.1052   -6.2919   23.1289 C   0  0  0  0  0  0  0  0  0  0  0  0
   13.0441   -2.6548   24.7763 C   0  0  0  0  0  0  0  0  0  0  0  0
    7.9058   -4.0760   22.5944 C   0  0  0  0  0  0  0  0  0  0  0  0
   13.1306   -0.6009   25.9723 C   0  0  0  0  0  0  0  0  0  0  0  0
   11.1445   -1.7524   25.8868 C   0  0  0  0  0  0  0  0  0  0  0  0
    6.8721   -3.9255   21.6699 C   0  0  0  0  0  0  0  0  0  0  0  0
    8.0223   -5.2591   23.3239 C   0  0  0  0  0  0  0  0  0  0  0  0
   11.7006   -2.7621   25.1180 C   0  0  0  0  0  0  0  0  0  0  0  0
    9.5798   -4.1115   24.9549 C   0  0  0  0  0  0  0  0  0  0  0  0
    9.1274   -5.4203   24.3123 C   0  0  0  0  0  0  0  0  0  0  0  0
    6.6538   -1.7293   20.3157 N   0  0  0  0  0  0  0  0  0  0  0  0
   11.8272   -0.6707   26.3243 N   0  0  0  0  0  0  0  0  0  0  0  0
   10.9258   -3.8678   24.6936 N   0  0  0  0  0  0  0  0  0  0  0  0
    8.8108   -3.4113   25.6057 O   0  0  0  0  0  0  0  0  0  0  0  0
   11.4086   -4.5662   24.1321 H   0  0  0  0  0  0  0  0  0  0  0  0
  1 10  1  0  0  0  0
  1 15  3  0  0  0  0
  2  4  2  0  0  0  0
  2  5  1  0  0  0  0
  3  6  2  0  0  0  0
  3  8  1  0  0  0  0
  4 10  1  0  0  0  0
  5 11  2  0  0  0  0
  6 12  1  0  0  0  0
  7 10  2  0  0  0  0
  7 11  1  0  0  0  0
  8 16  2  0  0  0  0
  9 12  2  0  0  0  0
  9 16  1  0  0  0  0
 11 14  1  0  0  0  0
 12 17  1  0  0  0  0
 13 14  1  0  0  0  0
 13 17  1  0  0  0  0
 13 18  2  0  0  0  0
 17 19  1  0  0  0  0
M  END

> <original SMILES>

N#Cc1cccc(CC(=O)Nc2cccnc2)c1

> <ref_mols>

x0104_0,x0305_0,x0434_0,x0678_0,x1093_0,x1249_0

> <ref_pdb>

receptors/protein-0387.pdb

> <Chemgauss4>

-4.88376092910767

> <binding_free_energy>

-9.299317940000023

> <binding_std_error>

1.2035531107254989

$$$$
ALV-UNI-7ff1a6f9-20
  -OEChem-05122002103D

 24 27  0     0  0  0  0  0  0999 V2000
    9.3408   -1.4457   25.0856 C   0  0  0  0  0  0  0  0  0  0  0  0
    7.1559   -0.7508   24.3239 C   0  0  0  0  0  0  0  0  0  0  0  0
    8.8730   -2.7510   25.2370 C   0  0  0  0  0  0  0  0  0  0  0  0
    6.6880   -2.0561   24.4753 C   0  0  0  0  0  0  0  0  0  0  0  0
   12.2113    0.2926   22.8481 C   0  0  0  0  0  0  0  0  0  0  0  0
    8.4823   -0.4456   24.6291 C   0  0  0  0  0  0  0  0  0  0  0  0
    7.5466   -3.0562   24.9319 C   0  0  0  0  0  0  0  0  0  0  0  0
   10.8141    0.4440   22.7661 C   0  0  0  0  0  0  0  0  0  0  0  0
    8.9627    0.8948   24.4739 C   0  0  0  0  0  0  0  0  0  0  0  0
    9.9918    1.2891   23.6516 C   0  0  0  0  0  0  0  0  0  0  0  0
   12.5226   -0.5769   21.8315 C   0  0  0  0  0  0  0  0  0  0  0  0
    9.1221    3.0082   24.7523 C   0  0  0  0  0  0  0  0  0  0  0  0
    9.0379    4.3890   25.0989 C   0  0  0  0  0  0  0  0  0  0  0  0
   10.8900    4.8483   23.5705 C   0  0  0  0  0  0  0  0  0  0  0  0
   10.9734    3.5493   23.2407 C   0  0  0  0  0  0  0  0  0  0  0  0
    9.8821    5.2822   24.5374 C   0  0  0  0  0  0  0  0  0  0  0  0
   13.8043   -1.1415   21.3794 C   0  0  0  0  0  0  0  0  0  0  0  0
    9.8451    6.7446   24.8596 C   0  0  0  0  0  0  0  0  0  0  0  0
    8.4289    1.9614   25.1516 N   0  0  0  0  0  0  0  0  0  0  0  0
   10.2750   -0.2718   21.7756 N   0  0  0  0  0  0  0  0  0  0  0  0
   11.3391   -0.8814   21.2258 N   0  0  0  0  0  0  0  0  0  0  0  0
   10.0964    2.6448   23.8286 N   0  0  0  0  0  0  0  0  0  0  0  0
    7.0973   -4.3097   25.0773 F   0  0  0  0  0  0  0  0  0  0  0  0
   11.1832   -1.4949   20.4356 H   0  0  0  0  0  0  0  0  0  0  0  0
  1  3  2  0  0  0  0
  1  6  1  0  0  0  0
  2  4  1  0  0  0  0
  2  6  2  0  0  0  0
  3  7  1  0  0  0  0
  4  7  2  0  0  0  0
  5  8  1  0  0  0  0
  5 11  2  0  0  0  0
  6  9  1  0  0  0  0
  7 23  1  0  0  0  0
  8 10  1  0  0  0  0
  8 20  2  0  0  0  0
  9 10  2  0  0  0  0
  9 19  1  0  0  0  0
 10 22  1  0  0  0  0
 11 17  1  0  0  0  0
 11 21  1  0  0  0  0
 12 13  1  0  0  0  0
 12 19  2  0  0  0  0
 12 22  1  0  0  0  0
 13 16  2  0  0  0  0
 14 15  2  0  0  0  0
 14 16  1  0  0  0  0
 15 22  1  0  0  0  0
 16 18  1  0  0  0  0
 20 21  1  0  0  0  0
 21 24  1  0  0  0  0
M  END

> <original SMILES>

Cc1ccn2c(-c3cc(C)n[nH]3)c(-c3ccc(F)cc3)nc2c1

> <ref_mols>

x0395_0,x0426_0,x0434_0,x0540_0,x0678_0,x0830_0,x1093_0

> <ref_pdb>

receptors/Mpro-x0540-protein.pdb

> <Chemgauss4>

-3.537782

> <binding_free_energy>

-9.240105763313327

> <binding_std_error>

3.2755917079887955

$$$$
LIZ-THE-7023c732-1
  -OEChem-05122002103D

 18 19  0     0  0  0  0  0  0999 V2000
    7.3720   -0.0755   19.2470 C   0  0  0  0  0  0  0  0  0  0  0  0
   11.6304   -0.0393   23.8421 C   0  0  0  0  0  0  0  0  0  0  0  0
   10.3828    0.2537   24.3928 C   0  0  0  0  0  0  0  0  0  0  0  0
   11.8048   -1.2001   23.0884 C   0  0  0  0  0  0  0  0  0  0  0  0
    9.3097   -0.6139   24.1899 C   0  0  0  0  0  0  0  0  0  0  0  0
   10.7317   -2.0677   22.8855 C   0  0  0  0  0  0  0  0  0  0  0  0
    7.9167   -1.3574   21.2652 C   0  0  0  0  0  0  0  0  0  0  0  0
    6.0450   -2.0086   19.9503 C   0  0  0  0  0  0  0  0  0  0  0  0
    7.1105   -1.1462   20.1522 C   0  0  0  0  0  0  0  0  0  0  0  0
    9.4841   -1.7747   23.4363 C   0  0  0  0  0  0  0  0  0  0  0  0
    7.6367   -2.4096   22.1300 C   0  0  0  0  0  0  0  0  0  0  0  0
    6.5475   -3.2152   21.8396 C   0  0  0  0  0  0  0  0  0  0  0  0
    5.1655   -5.1781   22.5199 C   0  0  0  0  0  0  0  0  0  0  0  0
    7.5848    0.7956   18.5104 N   0  0  0  0  0  0  0  0  0  0  0  0
    5.7416   -3.0413   20.7682 N   0  0  0  0  0  0  0  0  0  0  0  0
    6.2617   -4.2880   22.7209 N   0  0  0  0  0  0  0  0  0  0  0  0
    8.4377   -2.6224   23.2394 O   0  0  0  0  0  0  0  0  0  0  0  0
    6.8712   -4.3969   23.5054 H   0  0  0  0  0  0  0  0  0  0  0  0
  1  9  1  0  0  0  0
  1 14  3  0  0  0  0
  2  3  1  0  0  0  0
  2  4  2  0  0  0  0
  3  5  2  0  0  0  0
  4  6  1  0  0  0  0
  5 10  1  0  0  0  0
  6 10  2  0  0  0  0
  7  9  2  0  0  0  0
  7 11  1  0  0  0  0
  8  9  1  0  0  0  0
  8 15  2  0  0  0  0
 10 17  1  0  0  0  0
 11 12  2  0  0  0  0
 11 17  1  0  0  0  0
 12 15  1  0  0  0  0
 12 16  1  0  0  0  0
 13 16  1  0  0  0  0
 16 18  1  0  0  0  0
M  END

> <original SMILES>

CNc1ncc(C#N)cc1Oc1ccccc1

> <ref_mols>

x0305_0

> <ref_pdb>

receptors/Mpro-x0305_0.pdb

> <Chemgauss4>

-6.016492

> <binding_free_energy>

-9.207516966666653

> <binding_std_error>

8.53626069303672

$$$$
GIA-UNK-995df016-14
  -OEChem-05122002103D

 20 21  0     0  0  0  0  0  0999 V2000
   12.8340   -3.4538   24.4096 C   0  0  0  0  0  0  0  0  0  0  0  0
   11.4508   -3.6240   24.4659 C   0  0  0  0  0  0  0  0  0  0  0  0
   13.3728   -2.3122   23.8161 C   0  0  0  0  0  0  0  0  0  0  0  0
   10.6062   -2.6526   23.9285 C   0  0  0  0  0  0  0  0  0  0  0  0
   12.5282   -1.3409   23.2787 C   0  0  0  0  0  0  0  0  0  0  0  0
   11.1449   -1.5110   23.3349 C   0  0  0  0  0  0  0  0  0  0  0  0
   13.0956   -0.1491   22.6591 C   0  0  0  0  0  0  0  0  0  0  0  0
   10.0747    4.3620   23.0831 C   0  0  0  0  0  0  0  0  0  0  0  0
   12.1565    3.3053   22.3069 C   0  0  0  0  0  0  0  0  0  0  0  0
   10.7674    2.2439   24.1249 C   0  0  0  0  0  0  0  0  0  0  0  0
   13.2850    2.3286   22.6332 C   0  0  0  0  0  0  0  0  0  0  0  0
   11.9286    1.2973   24.4189 C   0  0  0  0  0  0  0  0  0  0  0  0
   11.2780    3.5551   23.5308 C   0  0  0  0  0  0  0  0  0  0  0  0
    8.7176    6.6911   22.5781 C   0  0  0  0  0  0  0  0  0  0  0  0
   12.7479    1.0959   23.2146 N   0  0  0  0  0  0  0  0  0  0  0  0
   13.8457   -0.2542   21.6870 O   0  0  0  0  0  0  0  0  0  0  0  0
    9.0317    3.8483   22.6969 O   0  0  0  0  0  0  0  0  0  0  0  0
   10.3230   -0.5843   22.8215 F   0  0  0  0  0  0  0  0  0  0  0  0
    7.7309    6.2134   23.3826 F   0  0  0  0  0  0  0  0  0  0  0  0
   10.3173    6.1062   23.1733 S   0  0  0  0  0  0  0  0  0  0  0  0
  1  2  1  0  0  0  0
  1  3  2  0  0  0  0
  2  4  2  0  0  0  0
  3  5  1  0  0  0  0
  4  6  1  0  0  0  0
  5  6  2  0  0  0  0
  5  7  1  0  0  0  0
  6 18  1  0  0  0  0
  7 15  1  0  0  0  0
  7 16  2  0  0  0  0
  8 13  1  0  0  0  0
  8 17  2  0  0  0  0
  8 20  1  0  0  0  0
  9 11  1  0  0  0  0
  9 13  1  0  0  0  0
 10 12  1  0  0  0  0
 10 13  1  0  0  0  0
 11 15  1  0  0  0  0
 12 15  1  0  0  0  0
 14 19  1  0  0  0  0
 14 20  1  0  0  0  0
M  END

> <original SMILES>

O=C(SCF)C1CCN(C(=O)c2ccccc2F)CC1

> <ref_mols>

x1334_0

> <ref_pdb>

receptors/protein-0387.pdb

> <Chemgauss4>

-5.44075965881348

> <binding_free_energy>

-9.176931120000003

> <binding_std_error>

0.5364406284261751

$$$$
GIA-UNK-5ec6c2b8-3
  -OEChem-05122002103D

 17 18  0     0  0  0  0  0  0999 V2000
   14.2824   -0.7369   24.4681 C   0  0  0  0  0  0  0  0  0  0  0  0
   14.4883   -1.6268   23.4139 C   0  0  0  0  0  0  0  0  0  0  0  0
   13.0047   -0.2368   24.7194 C   0  0  0  0  0  0  0  0  0  0  0  0
   13.4164   -2.0166   22.6109 C   0  0  0  0  0  0  0  0  0  0  0  0
   11.9329   -0.6267   23.9164 C   0  0  0  0  0  0  0  0  0  0  0  0
   12.1387   -1.5165   22.8621 C   0  0  0  0  0  0  0  0  0  0  0  0
    7.7142    0.4793   19.2136 C   0  0  0  0  0  0  0  0  0  0  0  0
    7.5184   -0.3836   21.5483 C   0  0  0  0  0  0  0  0  0  0  0  0
    9.2850    1.3293   20.9580 C   0  0  0  0  0  0  0  0  0  0  0  0
    8.5837   -1.4728   21.5193 C   0  0  0  0  0  0  0  0  0  0  0  0
   10.3318    0.2220   20.9353 C   0  0  0  0  0  0  0  0  0  0  0  0
    7.8732    0.8167   20.6695 C   0  0  0  0  0  0  0  0  0  0  0  0
   10.9854   -1.9352   21.9987 C   0  0  0  0  0  0  0  0  0  0  0  0
    9.9218   -0.8782   21.8827 N   0  3  0  0  0  0  0  0  0  0  0  0
    8.6218    0.0521   18.5122 O   0  0  0  0  0  0  0  0  0  0  0  0
    6.1223    0.6941   18.3948 S   0  5  0  0  0  0  0  0  0  0  0  0
    9.8270   -0.4583   22.8177 H   0  0  0  0  0  0  0  0  0  0  0  0
  1  2  1  0  0  0  0
  1  3  2  0  0  0  0
  2  4  2  0  0  0  0
  3  5  1  0  0  0  0
  4  6  1  0  0  0  0
  5  6  2  0  0  0  0
  6 13  1  0  0  0  0
  7 12  1  0  0  0  0
  7 15  2  0  0  0  0
  7 16  1  0  0  0  0
  8 10  1  0  0  0  0
  8 12  1  0  0  0  0
  9 11  1  0  0  0  0
  9 12  1  0  0  0  0
 10 14  1  0  0  0  0
 11 14  1  0  0  0  0
 13 14  1  0  0  0  0
 14 17  1  0  0  0  0
M  CHG  2  14   1  16  -1
M  END

> <original SMILES>

O=C(S)C1CCN(Cc2ccccc2)CC1

> <ref_mols>

x1380_0,x1386_0

> <ref_pdb>

receptors/protein-0387.pdb

> <Chemgauss4>

-5.12282752990723

> <binding_free_energy>

-9.084806490058526

> <binding_std_error>

1.5821608741097584

$$$$
ALV-UNI-7ff1a6f9-33
  -OEChem-05122002103D

 23 26  0     0  0  0  0  0  0999 V2000
   11.4355   -2.0425   22.3469 C   0  0  0  0  0  0  0  0  0  0  0  0
   12.5053   -0.2163   21.1817 C   0  0  0  0  0  0  0  0  0  0  0  0
   12.6748   -2.4577   22.8340 C   0  0  0  0  0  0  0  0  0  0  0  0
   13.7447   -0.6315   21.6688 C   0  0  0  0  0  0  0  0  0  0  0  0
    9.6335    0.7397   24.0712 C   0  0  0  0  0  0  0  0  0  0  0  0
    7.9769   -0.7058   24.0392 C   0  0  0  0  0  0  0  0  0  0  0  0
   11.3508   -0.9218   21.5207 C   0  0  0  0  0  0  0  0  0  0  0  0
    8.8416   -0.0390   23.2061 C   0  0  0  0  0  0  0  0  0  0  0  0
    8.9462   -0.0963   21.7657 C   0  0  0  0  0  0  0  0  0  0  0  0
   13.8294   -1.7522   22.4950 C   0  0  0  0  0  0  0  0  0  0  0  0
   10.0694   -0.4926   21.0169 C   0  0  0  0  0  0  0  0  0  0  0  0
    7.9991    0.2127   20.8202 C   0  0  0  0  0  0  0  0  0  0  0  0
    6.6657    0.6696   20.8364 C   0  0  0  0  0  0  0  0  0  0  0  0
    6.0291    0.8692   19.6760 C   0  0  0  0  0  0  0  0  0  0  0  0
    6.7875    0.5894   18.4201 C   0  0  0  0  0  0  0  0  0  0  0  0
    6.0490    0.8198   17.1274 C   0  0  0  0  0  0  0  0  0  0  0  0
    7.6524   -0.7314   26.5243 C   0  0  0  0  0  0  0  0  0  0  0  0
    9.3012    0.5831   25.3554 N   0  0  0  0  0  0  0  0  0  0  0  0
    9.8610   -0.4420   19.6987 N   0  0  0  0  0  0  0  0  0  0  0  0
    8.0171    0.1675   18.3689 N   0  0  0  0  0  0  0  0  0  0  0  0
    8.2909   -0.3015   25.3033 N   0  0  0  0  0  0  0  0  0  0  0  0
    8.5865   -0.0080   19.5923 N   0  0  0  0  0  0  0  0  0  0  0  0
   15.0195   -2.1510   22.9629 F   0  0  0  0  0  0  0  0  0  0  0  0
  1  3  2  0  0  0  0
  1  7  1  0  0  0  0
  2  4  1  0  0  0  0
  2  7  2  0  0  0  0
  3 10  1  0  0  0  0
  4 10  2  0  0  0  0
  5  8  1  0  0  0  0
  5 18  2  0  0  0  0
  6  8  2  0  0  0  0
  6 21  1  0  0  0  0
  7 11  1  0  0  0  0
  8  9  1  0  0  0  0
  9 11  1  0  0  0  0
  9 12  2  0  0  0  0
 10 23  1  0  0  0  0
 11 19  2  0  0  0  0
 12 13  1  0  0  0  0
 12 22  1  0  0  0  0
 13 14  2  0  0  0  0
 14 15  1  0  0  0  0
 15 16  1  0  0  0  0
 15 20  2  0  0  0  0
 17 21  1  0  0  0  0
 18 21  1  0  0  0  0
 19 22  1  0  0  0  0
 20 22  1  0  0  0  0
M  END

> <original SMILES>

Cc1ccc2c(-c3cnn(C)c3)c(-c3ccc(F)cc3)nn2n1

> <ref_mols>

x0395_0,x0426_0,x0434_0,x0540_0,x0678_0,x0830_0,x1093_0

> <ref_pdb>

receptors/Mpro-x0395-protein.pdb

> <Chemgauss4>

-5.022665

> <binding_free_energy>

-9.031713437979798

> <binding_std_error>

2.2847217505078072

$$$$
MAK-UNK-5e88aa6a-14
  -OEChem-05122002103D

 12 13  0     0  0  0  0  0  0999 V2000
   13.3173    2.7764   22.6157 C   0  0  0  0  0  0  0  0  0  0  0  0
   12.9821    4.1153   22.7840 C   0  0  0  0  0  0  0  0  0  0  0  0
   11.9499   -0.6954   23.0548 C   0  0  0  0  0  0  0  0  0  0  0  0
   11.4445    2.1923   23.9604 C   0  0  0  0  0  0  0  0  0  0  0  0
   12.5940   -1.9007   22.8818 C   0  0  0  0  0  0  0  0  0  0  0  0
   14.1633   -0.0068   22.8842 C   0  0  0  0  0  0  0  0  0  0  0  0
   12.5390    1.7904   23.2118 C   0  0  0  0  0  0  0  0  0  0  0  0
   12.8589    0.4018   23.0561 C   0  0  0  0  0  0  0  0  0  0  0  0
   11.8677    4.4132   23.5516 C   0  0  0  0  0  0  0  0  0  0  0  0
   11.4778    5.8396   23.7523 C   0  0  0  0  0  0  0  0  0  0  0  0
   11.0875    3.4829   24.1463 N   0  0  0  0  0  0  0  0  0  0  0  0
   14.2879   -1.7069   22.7220 S   0  0  0  0  0  0  0  0  0  0  0  0
  1  2  2  0  0  0  0
  1  7  1  0  0  0  0
  2  9  1  0  0  0  0
  3  5  2  0  0  0  0
  3  8  1  0  0  0  0
  4  7  2  0  0  0  0
  4 11  1  0  0  0  0
  5 12  1  0  0  0  0
  6  8  2  0  0  0  0
  6 12  1  0  0  0  0
  7  8  1  0  0  0  0
  9 10  1  0  0  0  0
  9 11  2  0  0  0  0
M  END

> <original SMILES>

Cc1ccc(-c2ccsc2)cn1

> <ref_mols>

x0195_0,x0387_0

> <ref_pdb>

receptors/Mpro-x0195_0.pdb

> <Chemgauss4>

-8.162913

> <binding_free_energy>

-9.018335

> <binding_std_error>

2.637202359703391

$$$$
GIA-UNK-995df016-3
  -OEChem-05122002103D

 16 17  0     0  0  0  0  0  0999 V2000
    6.7636   -4.7490   22.2493 C   0  0  0  0  0  0  0  0  0  0  0  0
   11.0729   -2.3778   24.6244 C   0  0  0  0  0  0  0  0  0  0  0  0
    5.6509   -5.4055   24.4791 C   0  0  0  0  0  0  0  0  0  0  0  0
    4.6679   -5.7182   23.3915 C   0  0  0  0  0  0  0  0  0  0  0  0
    9.5901   -4.3438   24.4089 C   0  0  0  0  0  0  0  0  0  0  0  0
    9.6658   -2.5977   22.5918 C   0  0  0  0  0  0  0  0  0  0  0  0
    8.8651   -5.2778   23.4435 C   0  0  0  0  0  0  0  0  0  0  0  0
    8.9388   -3.5680   21.6630 C   0  0  0  0  0  0  0  0  0  0  0  0
    6.1328   -5.8021   23.1247 C   0  0  0  0  0  0  0  0  0  0  0  0
   10.4745   -3.3482   23.6534 C   0  0  0  0  0  0  0  0  0  0  0  0
   13.4107   -1.3255   25.5985 C   0  0  0  0  0  0  0  0  0  0  0  0
    8.1257   -4.5158   22.4351 N   0  0  0  0  0  0  0  0  0  0  0  0
    6.0655   -4.1540   21.4243 O   0  0  0  0  0  0  0  0  0  0  0  0
   10.5439   -1.3120   24.9160 O   0  0  0  0  0  0  0  0  0  0  0  0
   13.5610   -0.6700   24.4166 F   0  0  0  0  0  0  0  0  0  0  0  0
   12.6068   -2.9146   25.3088 S   0  0  0  0  0  0  0  0  0  0  0  0
  1  9  1  0  0  0  0
  1 12  1  0  0  0  0
  1 13  2  0  0  0  0
  2 10  1  0  0  0  0
  2 14  2  0  0  0  0
  2 16  1  0  0  0  0
  3  4  1  0  0  0  0
  3  9  1  0  0  0  0
  4  9  1  0  0  0  0
  5  7  1  0  0  0  0
  5 10  1  0  0  0  0
  6  8  1  0  0  0  0
  6 10  1  0  0  0  0
  7 12  1  0  0  0  0
  8 12  1  0  0  0  0
 11 15  1  0  0  0  0
 11 16  1  0  0  0  0
M  END

> <original SMILES>

O=C(SCF)C1CCN(C(=O)C2CC2)CC1

> <ref_mols>

x1334_0

> <ref_pdb>

receptors/Mpro-x1334-protein.pdb

> <Chemgauss4>

-5.792887

> <binding_free_energy>

-8.986936747058834

> <binding_std_error>

2.3134809350042342

$$$$
DAR-DIA-fc970077-9
  -OEChem-05122002103D

 20 21  0     0  0  0  0  0  0999 V2000
   14.2637   -1.9364   23.4317 C   0  0  0  0  0  0  0  0  0  0  0  0
   13.7331   -0.9970   24.3157 C   0  0  0  0  0  0  0  0  0  0  0  0
   13.6241   -2.1917   22.2186 C   0  0  0  0  0  0  0  0  0  0  0  0
    5.7256    1.0436   19.2216 C   0  0  0  0  0  0  0  0  0  0  0  0
   12.5628   -0.3129   23.9868 C   0  0  0  0  0  0  0  0  0  0  0  0
   12.4539   -1.5076   21.8897 C   0  0  0  0  0  0  0  0  0  0  0  0
    6.4911    1.0677   20.3821 C   0  0  0  0  0  0  0  0  0  0  0  0
    6.3282    0.5977   18.0563 C   0  0  0  0  0  0  0  0  0  0  0  0
    8.3260    0.2226   19.1270 C   0  0  0  0  0  0  0  0  0  0  0  0
   11.9232   -0.5682   22.7737 C   0  0  0  0  0  0  0  0  0  0  0  0
    7.8170    0.6511   20.3424 C   0  0  0  0  0  0  0  0  0  0  0  0
    8.3746    1.6328   22.5293 C   0  0  0  0  0  0  0  0  0  0  0  0
    9.6725   -0.3224   21.6483 C   0  0  0  0  0  0  0  0  0  0  0  0
    8.7467    1.2300   23.9392 C   0  0  0  0  0  0  0  0  0  0  0  0
    7.6133    0.1851   17.9788 N   0  0  0  0  0  0  0  0  0  0  0  0
   10.7368    0.1257   22.4403 N   0  0  0  0  0  0  0  0  0  0  0  0
    8.6406    0.6648   21.5350 N   0  0  0  0  0  0  0  0  0  0  0  0
    7.9214    2.7590   22.3147 O   0  0  0  0  0  0  0  0  0  0  0  0
    9.5874   -1.4319   21.1210 O   0  0  0  0  0  0  0  0  0  0  0  0
   10.6455    1.0636   22.8220 H   0  0  0  0  0  0  0  0  0  0  0  0
  1  2  1  0  0  0  0
  1  3  2  0  0  0  0
  2  5  2  0  0  0  0
  3  6  1  0  0  0  0
  4  7  2  0  0  0  0
  4  8  1  0  0  0  0
  5 10  1  0  0  0  0
  6 10  2  0  0  0  0
  7 11  1  0  0  0  0
  8 15  2  0  0  0  0
  9 11  2  0  0  0  0
  9 15  1  0  0  0  0
 10 16  1  0  0  0  0
 11 17  1  0  0  0  0
 12 14  1  0  0  0  0
 12 17  1  0  0  0  0
 12 18  2  0  0  0  0
 13 16  1  0  0  0  0
 13 17  1  0  0  0  0
 13 19  2  0  0  0  0
 16 20  1  0  0  0  0
M  END

> <original SMILES>

CC(=O)N(C(=O)Nc1ccccc1)c1cccnc1

> <ref_mols>

x0434_0

> <ref_pdb>

receptors/protein-0387.pdb

> <Chemgauss4>

-4.58622646331787

> <binding_free_energy>

-8.949724257358184

> <binding_std_error>

3.7556962836317123

$$$$
WAR-XCH-b72a1bbc-16
  -OEChem-05122002103D

 23 25  0     0  0  0  0  0  0999 V2000
   12.0224    1.5874   23.3436 C   0  0  0  0  0  0  0  0  0  0  0  0
   14.1388    0.6841   22.6074 C   0  0  0  0  0  0  0  0  0  0  0  0
   12.3743    2.8339   22.8259 C   0  0  0  0  0  0  0  0  0  0  0  0
   14.4907    1.9306   22.0897 C   0  0  0  0  0  0  0  0  0  0  0  0
    8.1205   -1.9884   22.1866 C   0  0  0  0  0  0  0  0  0  0  0  0
    6.9012   -2.5461   21.8705 C   0  0  0  0  0  0  0  0  0  0  0  0
    8.2321   -4.0053   23.3364 C   0  0  0  0  0  0  0  0  0  0  0  0
    8.8916   -2.8338   23.0356 C   0  0  0  0  0  0  0  0  0  0  0  0
   12.9047    0.5125   23.2344 C   0  0  0  0  0  0  0  0  0  0  0  0
   13.6085    3.0055   22.1990 C   0  0  0  0  0  0  0  0  0  0  0  0
   10.2584   -1.2239   24.4409 C   0  0  0  0  0  0  0  0  0  0  0  0
   11.2951   -2.3290   22.3998 C   0  0  0  0  0  0  0  0  0  0  0  0
   11.6712   -0.8727   24.9116 C   0  0  0  0  0  0  0  0  0  0  0  0
   12.6797   -1.9429   22.9330 C   0  0  0  0  0  0  0  0  0  0  0  0
   10.2757   -2.4825   23.5480 C   0  0  0  0  0  0  0  0  0  0  0  0
   12.5541   -0.7311   23.7506 N   0  0  0  0  0  0  0  0  0  0  0  0
   12.6636    5.4846   21.9416 N   0  0  0  0  0  0  0  0  0  0  0  0
   15.1816    5.0756   22.3129 O   0  0  0  0  0  0  0  0  0  0  0  0
   14.1446    4.4549   20.1023 O   0  0  0  0  0  0  0  0  0  0  0  0
    6.6899   -4.0827   22.5961 S   0  0  0  0  0  0  0  0  0  0  0  0
   14.0501    4.5655   21.5513 S   0  0  0  0  0  0  0  0  0  0  0  0
   12.7455    6.1880   22.6859 H   0  0  0  0  0  0  0  0  0  0  0  0
   12.0376    5.7615   21.1757 H   0  0  0  0  0  0  0  0  0  0  0  0
  1  3  2  0  0  0  0
  1  9  1  0  0  0  0
  2  4  1  0  0  0  0
  2  9  2  0  0  0  0
  3 10  1  0  0  0  0
  4 10  2  0  0  0  0
  5  6  2  0  0  0  0
  5  8  1  0  0  0  0
  6 20  1  0  0  0  0
  7  8  2  0  0  0  0
  7 20  1  0  0  0  0
  8 15  1  0  0  0  0
  9 16  1  0  0  0  0
 10 21  1  0  0  0  0
 11 13  1  0  0  0  0
 11 15  1  0  0  0  0
 12 14  1  0  0  0  0
 12 15  1  0  0  0  0
 13 16  1  0  0  0  0
 14 16  1  0  0  0  0
 17 21  1  0  0  0  0
 18 21  2  0  0  0  0
 19 21  2  0  0  0  0
 17 22  1  0  0  0  0
 17 23  1  0  0  0  0
M  END

> <original SMILES>

NS(=O)(=O)c1ccc(N2CCC(c3ccsc3)CC2)cc1

> <ref_mols>

x0072_0,x0104_0,x0107_0,x0161_0,x0165_0

> <ref_pdb>

receptors/Mpro-x0072-protein.pdb

> <Chemgauss4>

-8.280297

> <binding_free_energy>

-8.916817626016748

> <binding_std_error>

2.8587410624983423

$$$$
CHR-SOS-7098f804-2
  -OEChem-05122002103D

 21 22  0     0  0  0  0  0  0999 V2000
   10.0551    7.5322   24.8218 C   0  0  0  0  0  0  0  0  0  0  0  0
   10.4789    6.2052   24.8920 C   0  0  0  0  0  0  0  0  0  0  0  0
   12.2427   -0.0451   23.6641 C   0  0  0  0  0  0  0  0  0  0  0  0
   11.6394    1.2039   23.8112 C   0  0  0  0  0  0  0  0  0  0  0  0
    9.1020    7.9109   23.8763 C   0  0  0  0  0  0  0  0  0  0  0  0
    8.9967    5.6355   23.0711 C   0  0  0  0  0  0  0  0  0  0  0  0
   13.8423    0.9089   22.1252 C   0  0  0  0  0  0  0  0  0  0  0  0
    9.9497    5.2568   24.0167 C   0  0  0  0  0  0  0  0  0  0  0  0
   13.3442   -0.1926   22.8211 C   0  0  0  0  0  0  0  0  0  0  0  0
   12.1375    2.3054   23.1153 C   0  0  0  0  0  0  0  0  0  0  0  0
    8.5728    6.9626   23.0010 C   0  0  0  0  0  0  0  0  0  0  0  0
   13.2389    2.1579   22.2723 C   0  0  0  0  0  0  0  0  0  0  0  0
   10.3926    3.8737   24.0901 C   0  0  0  0  0  0  0  0  0  0  0  0
   11.5004    3.5602   23.2873 N   0  0  0  0  0  0  0  0  0  0  0  0
   13.9575   -1.4643   22.6719 N   0  0  0  0  0  0  0  0  0  0  0  0
    9.8028    3.0371   24.7881 O   0  0  0  0  0  0  0  0  0  0  0  0
   13.4932   -2.4418   23.3071 O   0  0  0  0  0  0  0  0  0  0  0  0
   14.9472   -1.5765   21.9085 O   0  0  0  0  0  0  0  0  0  0  0  0
    7.3964    7.4305   21.8349 Cl  0  0  0  0  0  0  0  0  0  0  0  0
   13.8881    3.4960   21.3928 Cl  0  0  0  0  0  0  0  0  0  0  0  0
   11.8979    4.3339   22.7603 H   0  0  0  0  0  0  0  0  0  0  0  0
  1  2  2  0  0  0  0
  1  5  1  0  0  0  0
  2  8  1  0  0  0  0
  3  4  2  0  0  0  0
  3  9  1  0  0  0  0
  4 10  1  0  0  0  0
  5 11  2  0  0  0  0
  6  8  2  0  0  0  0
  6 11  1  0  0  0  0
  7  9  2  0  0  0  0
  7 12  1  0  0  0  0
  8 13  1  0  0  0  0
  9 15  1  0  0  0  0
 10 12  2  0  0  0  0
 10 14  1  0  0  0  0
 11 19  1  0  0  0  0
 12 20  1  0  0  0  0
 13 14  1  0  0  0  0
 13 16  2  0  0  0  0
 15 17  2  0  0  0  0
 15 18  2  0  0  0  0
 14 21  1  0  0  0  0
M  END

> <original SMILES>

O=C(Nc1ccc([N+](=O)[O-])cc1Cl)c1cccc(Cl)c1

> <ref_mols>

x0107_0,x0161_0,x0195_0,x0678_0,x0946_0

> <ref_pdb>

receptors/Mpro-x0107-protein.pdb

> <Chemgauss4>

-5.892989

> <binding_free_energy>

-8.790134539102382

> <binding_std_error>

2.581174726711249

$$$$
LIZ-THE-7023c732-2
  -OEChem-05122002103D

 19 20  0     0  0  0  0  0  0999 V2000
    7.5268   -5.1783   24.1145 C   0  0  0  0  0  0  0  0  0  0  0  0
   11.5409   -0.3718   24.3013 C   0  0  0  0  0  0  0  0  0  0  0  0
   11.6846   -1.0207   23.0750 C   0  0  0  0  0  0  0  0  0  0  0  0
   10.2866    0.0852   24.7058 C   0  0  0  0  0  0  0  0  0  0  0  0
   10.5740   -1.2125   22.2531 C   0  0  0  0  0  0  0  0  0  0  0  0
    9.1760   -0.1066   23.8840 C   0  0  0  0  0  0  0  0  0  0  0  0
    7.8915   -3.0362   22.9779 C   0  0  0  0  0  0  0  0  0  0  0  0
    6.0527   -4.3955   22.3238 C   0  0  0  0  0  0  0  0  0  0  0  0
    7.1564   -4.2053   23.1397 C   0  0  0  0  0  0  0  0  0  0  0  0
    9.3197   -0.7555   22.6576 C   0  0  0  0  0  0  0  0  0  0  0  0
    7.5059   -2.1062   22.0189 C   0  0  0  0  0  0  0  0  0  0  0  0
    6.3868   -2.3905   21.2531 C   0  0  0  0  0  0  0  0  0  0  0  0
    6.3960    0.0812   18.4567 C   0  0  0  0  0  0  0  0  0  0  0  0
    6.8829   -0.4538   19.7603 C   0  0  0  0  0  0  0  0  0  0  0  0
    7.8281   -5.9699   24.9078 N   0  0  0  0  0  0  0  0  0  0  0  0
    5.6475   -3.5151   21.3813 N   0  0  0  0  0  0  0  0  0  0  0  0
    5.9933   -1.4426   20.2753 N   0  0  0  0  0  0  0  0  0  0  0  0
    8.2361   -0.9409   21.8553 O   0  0  0  0  0  0  0  0  0  0  0  0
    5.0479   -1.4956   19.9560 H   0  0  0  0  0  0  0  0  0  0  0  0
  1  9  1  0  0  0  0
  1 15  3  0  0  0  0
  2  3  1  0  0  0  0
  2  4  2  0  0  0  0
  3  5  2  0  0  0  0
  4  6  1  0  0  0  0
  5 10  1  0  0  0  0
  6 10  2  0  0  0  0
  7  9  2  0  0  0  0
  7 11  1  0  0  0  0
  8  9  1  0  0  0  0
  8 16  2  0  0  0  0
 10 18  1  0  0  0  0
 11 12  2  0  0  0  0
 11 18  1  0  0  0  0
 12 16  1  0  0  0  0
 12 17  1  0  0  0  0
 13 14  1  0  0  0  0
 14 17  1  0  0  0  0
 17 19  1  0  0  0  0
M  END

> <original SMILES>

CCNc1ncc(C#N)cc1Oc1ccccc1

> <ref_mols>

x0305_0

> <ref_pdb>

receptors/Mpro-x0305-protein.pdb

> <Chemgauss4>

-4.943679

> <binding_free_energy>

-8.698952875

> <binding_std_error>

3.447062355947721

$$$$
ALV-UNI-7ff1a6f9-7
  -OEChem-05122002103D

 23 26  0     0  0  0  0  0  0999 V2000
   12.0754   -2.1993   22.6765 C   0  0  0  0  0  0  0  0  0  0  0  0
   12.2064    0.1914   22.9997 C   0  0  0  0  0  0  0  0  0  0  0  0
   13.2599   -2.3614   23.3950 C   0  0  0  0  0  0  0  0  0  0  0  0
   13.3909    0.0293   23.7183 C   0  0  0  0  0  0  0  0  0  0  0  0
    8.8877   -1.6809   24.4920 C   0  0  0  0  0  0  0  0  0  0  0  0
    8.2072   -3.4061   22.9606 C   0  0  0  0  0  0  0  0  0  0  0  0
    8.5069   -2.5224   25.5248 C   0  0  0  0  0  0  0  0  0  0  0  0
    7.8570   -4.1704   24.0620 C   0  0  0  0  0  0  0  0  0  0  0  0
   11.5487   -0.9229   22.4788 C   0  0  0  0  0  0  0  0  0  0  0  0
    8.7318   -2.1387   23.1884 C   0  0  0  0  0  0  0  0  0  0  0  0
   13.9176   -1.2471   23.9160 C   0  0  0  0  0  0  0  0  0  0  0  0
   10.3326   -0.7564   21.7408 C   0  0  0  0  0  0  0  0  0  0  0  0
    9.1139   -1.2995   22.0732 C   0  0  0  0  0  0  0  0  0  0  0  0
    8.9921   -0.1005   20.2103 C   0  0  0  0  0  0  0  0  0  0  0  0
    8.2990    0.4535   19.0939 C   0  0  0  0  0  0  0  0  0  0  0  0
    6.2467   -0.6145   19.8844 C   0  0  0  0  0  0  0  0  0  0  0  0
    6.8947   -1.1384   20.9373 C   0  0  0  0  0  0  0  0  0  0  0  0
    6.9798    0.2133   18.9271 C   0  0  0  0  0  0  0  0  0  0  0  0
    6.1966    0.7645   17.7755 C   0  0  0  0  0  0  0  0  0  0  0  0
    7.9937   -3.7598   25.3428 N   0  0  0  0  0  0  0  0  0  0  0  0
   10.2514   -0.0163   20.5886 N   0  0  0  0  0  0  0  0  0  0  0  0
    8.2521   -0.8804   21.0925 N   0  0  0  0  0  0  0  0  0  0  0  0
   15.0551   -1.4029   24.6060 F   0  0  0  0  0  0  0  0  0  0  0  0
  1  3  2  0  0  0  0
  1  9  1  0  0  0  0
  2  4  1  0  0  0  0
  2  9  2  0  0  0  0
  3 11  1  0  0  0  0
  4 11  2  0  0  0  0
  5  7  2  0  0  0  0
  5 10  1  0  0  0  0
  6  8  1  0  0  0  0
  6 10  2  0  0  0  0
  7 20  1  0  0  0  0
  8 20  2  0  0  0  0
  9 12  1  0  0  0  0
 10 13  1  0  0  0  0
 11 23  1  0  0  0  0
 12 13  2  0  0  0  0
 12 21  1  0  0  0  0
 13 22  1  0  0  0  0
 14 15  1  0  0  0  0
 14 21  2  0  0  0  0
 14 22  1  0  0  0  0
 15 18  2  0  0  0  0
 16 17  2  0  0  0  0
 16 18  1  0  0  0  0
 17 22  1  0  0  0  0
 18 19  1  0  0  0  0
M  END

> <original SMILES>

Cc1ccn2c(-c3ccncc3)c(-c3ccc(F)cc3)nc2c1

> <ref_mols>

x0395_0,x0426_0,x0434_0,x0540_0,x0678_0,x0830_0,x1093_0

> <ref_pdb>

receptors/Mpro-x0426-protein.pdb

> <Chemgauss4>

-7.175254

> <binding_free_energy>

-8.569888780372718

> <binding_std_error>

2.3204705733057036

$$$$
AUS-ARG-7cfdce8f-7
  -OEChem-05122002103D

 25 28  0     0  0  0  0  0  0999 V2000
    8.2792   -5.2473   23.8654 C   0  0  0  0  0  0  0  0  0  0  0  0
    7.6309   -5.7456   22.7408 C   0  0  0  0  0  0  0  0  0  0  0  0
    5.7296    1.3508   19.0217 C   0  0  0  0  0  0  0  0  0  0  0  0
    8.5424   -3.8843   23.9584 C   0  0  0  0  0  0  0  0  0  0  0  0
    6.1052    0.5280   20.0778 C   0  0  0  0  0  0  0  0  0  0  0  0
   12.4868   -0.3127   24.9778 C   0  0  0  0  0  0  0  0  0  0  0  0
    7.2471   -4.8805   21.7120 C   0  0  0  0  0  0  0  0  0  0  0  0
   11.0963   -0.4079   25.0310 C   0  0  0  0  0  0  0  0  0  0  0  0
   11.0850   -1.4599   22.8561 C   0  0  0  0  0  0  0  0  0  0  0  0
    6.2686    1.0894   17.7724 C   0  0  0  0  0  0  0  0  0  0  0  0
    7.4779   -0.6944   18.5686 C   0  0  0  0  0  0  0  0  0  0  0  0
    8.1533   -3.0208   22.9196 C   0  0  0  0  0  0  0  0  0  0  0  0
    6.9957   -0.5164   19.8553 C   0  0  0  0  0  0  0  0  0  0  0  0
   13.1765   -0.7910   23.8636 C   0  0  0  0  0  0  0  0  0  0  0  0
   12.4756   -1.3646   22.8028 C   0  0  0  0  0  0  0  0  0  0  0  0
    7.4978   -3.5121   21.7788 C   0  0  0  0  0  0  0  0  0  0  0  0
   10.3953   -0.9815   23.9702 C   0  0  0  0  0  0  0  0  0  0  0  0
    8.3861   -1.6487   22.9503 C   0  0  0  0  0  0  0  0  0  0  0  0
    7.4040   -1.3852   20.9283 C   0  0  0  0  0  0  0  0  0  0  0  0
   14.6652   -0.6780   23.8295 C   0  0  0  0  0  0  0  0  0  0  0  0
   13.1925   -1.8825   21.5994 C   0  0  0  0  0  0  0  0  0  0  0  0
    7.1362    0.0844   17.5177 N   0  0  0  0  0  0  0  0  0  0  0  0
    7.1210   -2.6952   20.7796 N   0  0  0  0  0  0  0  0  0  0  0  0
    8.0228   -0.8028   21.9679 N   0  0  0  0  0  0  0  0  0  0  0  0
    9.0193   -1.0754   24.0226 O   0  0  0  0  0  0  0  0  0  0  0  0
  1  2  1  0  0  0  0
  1  4  2  0  0  0  0
  2  7  2  0  0  0  0
  3  5  2  0  0  0  0
  3 10  1  0  0  0  0
  4 12  1  0  0  0  0
  5 13  1  0  0  0  0
  6  8  2  0  0  0  0
  6 14  1  0  0  0  0
  7 16  1  0  0  0  0
  8 17  1  0  0  0  0
  9 15  1  0  0  0  0
  9 17  2  0  0  0  0
 10 22  2  0  0  0  0
 11 13  2  0  0  0  0
 11 22  1  0  0  0  0
 12 16  1  0  0  0  0
 12 18  2  0  0  0  0
 13 19  1  0  0  0  0
 14 15  2  0  0  0  0
 14 20  1  0  0  0  0
 15 21  1  0  0  0  0
 16 23  2  0  0  0  0
 17 25  1  0  0  0  0
 18 24  1  0  0  0  0
 18 25  1  0  0  0  0
 19 23  1  0  0  0  0
 19 24  2  0  0  0  0
M  END

> <original SMILES>

Cc1ccc(Oc2nc(-c3cccnc3)nc3ccccc23)cc1C

> <ref_mols>

x0678_0

> <ref_pdb>

receptors/Mpro-x0678_0.pdb

> <Chemgauss4>

-10.603008

> <binding_free_energy>

-8.525753983164947

> <binding_std_error>

4.001015616066006

$$$$
CHR-SOS-7098f804-7
  -OEChem-05122002103D

 19 20  0     0  0  0  0  0  0999 V2000
    6.6176   -5.5764   21.6466 C   0  0  0  0  0  0  0  0  0  0  0  0
    7.6304   -6.2072   22.3690 C   0  0  0  0  0  0  0  0  0  0  0  0
    6.6685   -4.1992   21.4311 C   0  0  0  0  0  0  0  0  0  0  0  0
    8.6941   -5.4608   22.8760 C   0  0  0  0  0  0  0  0  0  0  0  0
    7.7322   -3.4528   21.9381 C   0  0  0  0  0  0  0  0  0  0  0  0
   13.7606   -1.9521   25.5257 C   0  0  0  0  0  0  0  0  0  0  0  0
   13.5496   -0.6317   25.1289 C   0  0  0  0  0  0  0  0  0  0  0  0
   11.4010   -1.2501   24.2134 C   0  0  0  0  0  0  0  0  0  0  0  0
   11.6120   -2.5706   24.6102 C   0  0  0  0  0  0  0  0  0  0  0  0
    8.7450   -4.0836   22.6606 C   0  0  0  0  0  0  0  0  0  0  0  0
   12.7918   -2.9216   25.2663 C   0  0  0  0  0  0  0  0  0  0  0  0
   12.3698   -0.2806   24.4727 C   0  0  0  0  0  0  0  0  0  0  0  0
   10.5891   -3.5680   24.3277 C   0  0  0  0  0  0  0  0  0  0  0  0
    9.8263   -3.3252   23.1759 N   0  0  0  0  0  0  0  0  0  0  0  0
   10.3982   -4.5330   25.0791 O   0  0  0  0  0  0  0  0  0  0  0  0
   13.0174   -4.2068   25.6600 O   0  0  0  0  0  0  0  0  0  0  0  0
   12.1087    1.3490   23.9850 Cl  0  0  0  0  0  0  0  0  0  0  0  0
   10.0819   -2.4985   22.6415 H   0  0  0  0  0  0  0  0  0  0  0  0
   12.2651   -4.7682   25.4163 H   0  0  0  0  0  0  0  0  0  0  0  0
  1  2  1  0  0  0  0
  1  3  2  0  0  0  0
  2  4  2  0  0  0  0
  3  5  1  0  0  0  0
  4 10  1  0  0  0  0
  5 10  2  0  0  0  0
  6  7  2  0  0  0  0
  6 11  1  0  0  0  0
  7 12  1  0  0  0  0
  8  9  1  0  0  0  0
  8 12  2  0  0  0  0
  9 11  2  0  0  0  0
  9 13  1  0  0  0  0
 10 14  1  0  0  0  0
 11 16  1  0  0  0  0
 12 17  1  0  0  0  0
 13 14  1  0  0  0  0
 13 15  2  0  0  0  0
 14 18  1  0  0  0  0
 16 19  1  0  0  0  0
M  END

> <original SMILES>

O=C(Nc1ccccc1)c1cc(Cl)ccc1O

> <ref_mols>

x0107_0,x0161_0,x0195_0,x0678_0,x0946_0

> <ref_pdb>

receptors/Mpro-x0195-protein.pdb

> <Chemgauss4>

-8.379775

> <binding_free_energy>

-8.511555915658633

> <binding_std_error>

2.9535105224347986

$$$$
CHR-SOS-6c45c019-16
  -OEChem-05122002103D

 24 26  0     0  0  0  0  0  0999 V2000
   12.4070    0.3540   23.6798 C   0  0  0  0  0  0  0  0  0  0  0  0
   11.6869    1.3147   23.6451 C   0  0  0  0  0  0  0  0  0  0  0  0
    5.4892    0.5698   18.8889 C   0  0  0  0  0  0  0  0  0  0  0  0
    6.3690    0.2575   17.8650 C   0  0  0  0  0  0  0  0  0  0  0  0
    8.1959    0.7925   19.1512 C   0  0  0  0  0  0  0  0  0  0  0  0
   13.1516   -1.9553   23.0031 C   0  0  0  0  0  0  0  0  0  0  0  0
   14.9100   -1.9965   24.3309 C   0  0  0  0  0  0  0  0  0  0  0  0
   13.2664   -0.7889   23.7220 C   0  0  0  0  0  0  0  0  0  0  0  0
    6.0234    1.0138   20.0933 C   0  0  0  0  0  0  0  0  0  0  0  0
    7.4017    1.1302   20.2352 C   0  0  0  0  0  0  0  0  0  0  0  0
    9.3529    1.7400   21.7189 C   0  0  0  0  0  0  0  0  0  0  0  0
   11.4795    3.8121   23.3807 C   0  0  0  0  0  0  0  0  0  0  0  0
   10.9483    3.4627   24.7364 C   0  0  0  0  0  0  0  0  0  0  0  0
   10.8254    2.4655   23.6042 C   0  0  0  0  0  0  0  0  0  0  0  0
    5.0979    1.3581   21.2138 C   0  0  0  0  0  0  0  0  0  0  0  0
   14.5355   -4.0441   22.9352 C   0  0  0  0  0  0  0  0  0  0  0  0
    7.7134    0.3578   17.9655 N   0  0  0  0  0  0  0  0  0  0  0  0
   14.3632   -0.8207   24.5464 N   0  0  0  0  0  0  0  0  0  0  0  0
   14.2117   -2.7189   23.4036 N   0  0  0  0  0  0  0  0  0  0  0  0
    7.9932    1.5766   21.4399 N   0  0  0  0  0  0  0  0  0  0  0  0
    9.5441    2.2054   23.0350 N   0  0  0  0  0  0  0  0  0  0  0  0
   10.2891    1.5211   20.9539 O   0  0  0  0  0  0  0  0  0  0  0  0
    7.3467    1.8058   22.1908 H   0  0  0  0  0  0  0  0  0  0  0  0
    8.7159    2.3659   23.6156 H   0  0  0  0  0  0  0  0  0  0  0  0
  1  2  3  0  0  0  0
  1  8  1  0  0  0  0
  2 14  1  0  0  0  0
  3  4  2  0  0  0  0
  3  9  1  0  0  0  0
  4 17  1  0  0  0  0
  5 10  1  0  0  0  0
  5 17  2  0  0  0  0
  6  8  2  0  0  0  0
  6 19  1  0  0  0  0
  7 18  2  0  0  0  0
  7 19  1  0  0  0  0
  8 18  1  0  0  0  0
  9 10  2  0  0  0  0
  9 15  1  0  0  0  0
 10 20  1  0  0  0  0
 11 20  1  0  0  0  0
 11 21  1  0  0  0  0
 11 22  2  0  0  0  0
 12 13  1  0  0  0  0
 12 14  1  0  0  0  0
 13 14  1  0  0  0  0
 14 21  1  0  0  0  0
 16 19  1  0  0  0  0
 20 23  1  0  0  0  0
 21 24  1  0  0  0  0
M  END

> <original SMILES>

Cc1ccncc1NC(=O)NC1(C#Cc2cn(C)cn2)CC1

> <ref_mols>

x0107_0,x0161_0,x0195_0,x0678_0,x0946_0

> <ref_pdb>

receptors/Mpro-x0946-protein.pdb

> <Chemgauss4>

-5.514146

> <binding_free_energy>

-8.257251244166653

> <binding_std_error>

2.9113895935265472

$$$$
DAR-DIA-23aa0b97-2
  -OEChem-05122002103D

 23 25  0     0  0  0  0  0  0999 V2000
    6.3449   -4.3210   20.5987 C   0  0  0  0  0  0  0  0  0  0  0  0
   11.4645    0.7909   24.4330 C   0  0  0  0  0  0  0  0  0  0  0  0
   11.1492   -0.5355   24.7224 C   0  0  0  0  0  0  0  0  0  0  0  0
    7.9220   -4.6967   22.4388 C   0  0  0  0  0  0  0  0  0  0  0  0
   12.7937    1.1298   24.2184 C   0  0  0  0  0  0  0  0  0  0  0  0
    6.4062   -6.4292   21.8412 C   0  0  0  0  0  0  0  0  0  0  0  0
    7.8797   -6.7902   23.5665 C   0  0  0  0  0  0  0  0  0  0  0  0
   13.6562   -3.1822   24.9469 C   0  0  0  0  0  0  0  0  0  0  0  0
    6.8895   -5.1489   21.6246 C   0  0  0  0  0  0  0  0  0  0  0  0
   12.2027   -1.4621   24.7812 C   0  0  0  0  0  0  0  0  0  0  0  0
   12.3203   -2.8543   25.0346 C   0  0  0  0  0  0  0  0  0  0  0  0
    8.4322   -5.5268   23.4306 C   0  0  0  0  0  0  0  0  0  0  0  0
   13.4889   -0.9853   24.5451 C   0  0  0  0  0  0  0  0  0  0  0  0
   10.1337   -3.8642   24.2587 C   0  0  0  0  0  0  0  0  0  0  0  0
   11.2189   -3.7897   25.3385 C   0  0  0  0  0  0  0  0  0  0  0  0
    5.9019   -3.6475   19.7640 N   0  0  0  0  0  0  0  0  0  0  0  0
    6.8763   -7.2645   22.7945 N   0  0  0  0  0  0  0  0  0  0  0  0
   13.8472    0.2814   24.2624 N   0  0  0  0  0  0  0  0  0  0  0  0
   14.3555   -2.0412   24.6500 N   0  0  0  0  0  0  0  0  0  0  0  0
    9.4829   -5.0953   24.2749 N   0  0  0  0  0  0  0  0  0  0  0  0
    9.9184   -2.9199   23.5056 O   0  0  0  0  0  0  0  0  0  0  0  0
   15.3573   -1.9862   24.5285 H   0  0  0  0  0  0  0  0  0  0  0  0
    9.7997   -5.7623   24.9755 H   0  0  0  0  0  0  0  0  0  0  0  0
  1  9  1  0  0  0  0
  1 16  3  0  0  0  0
  2  3  2  0  0  0  0
  2  5  1  0  0  0  0
  3 10  1  0  0  0  0
  4  9  2  0  0  0  0
  4 12  1  0  0  0  0
  5 18  2  0  0  0  0
  6  9  1  0  0  0  0
  6 17  2  0  0  0  0
  7 12  2  0  0  0  0
  7 17  1  0  0  0  0
  8 11  2  0  0  0  0
  8 19  1  0  0  0  0
 10 11  1  0  0  0  0
 10 13  2  0  0  0  0
 11 15  1  0  0  0  0
 12 20  1  0  0  0  0
 13 18  1  0  0  0  0
 13 19  1  0  0  0  0
 14 15  1  0  0  0  0
 14 20  1  0  0  0  0
 14 21  2  0  0  0  0
 19 22  1  0  0  0  0
 20 23  1  0  0  0  0
M  END

> <original SMILES>

N#Cc1cncc(NC(=O)Cc2c[nH]c3ncccc23)c1

> <ref_mols>

x0104_0,x0305_0,x0434_0,x0678_0,x0995_0,x1093_0,x1249_0

> <ref_pdb>

receptors/Mpro-x0104-protein.pdb

> <Chemgauss4>

-7.36787

> <binding_free_energy>

-8.22972071086248

> <binding_std_error>

3.5180306108766684

$$$$
GIA-UNK-5ec6c2b8-1
  -OEChem-05122002103D

 17 18  0     0  0  0  0  0  0999 V2000
   12.9062   -0.0336   25.1840 C   0  0  0  0  0  0  0  0  0  0  0  0
   11.6194   -0.1907   25.6987 C   0  0  0  0  0  0  0  0  0  0  0  0
   13.5641   -1.1198   24.6069 C   0  0  0  0  0  0  0  0  0  0  0  0
   10.9904   -1.4342   25.6365 C   0  0  0  0  0  0  0  0  0  0  0  0
   12.9351   -2.3633   24.5447 C   0  0  0  0  0  0  0  0  0  0  0  0
   11.6483   -2.5205   25.0595 C   0  0  0  0  0  0  0  0  0  0  0  0
   10.9907   -3.8204   24.9945 C   0  0  0  0  0  0  0  0  0  0  0  0
    6.3725   -3.9554   22.1118 C   0  0  0  0  0  0  0  0  0  0  0  0
    8.0459   -5.1781   23.4376 C   0  0  0  0  0  0  0  0  0  0  0  0
    8.6088   -2.9633   22.3701 C   0  0  0  0  0  0  0  0  0  0  0  0
    9.5307   -5.3854   23.7318 C   0  0  0  0  0  0  0  0  0  0  0  0
   10.0815   -3.2225   22.6779 C   0  0  0  0  0  0  0  0  0  0  0  0
    7.8499   -4.2801   22.2180 C   0  0  0  0  0  0  0  0  0  0  0  0
   10.2173   -4.0969   23.8523 N   0  0  0  0  0  0  0  0  0  0  0  0
   11.1209   -4.6267   25.9173 O   0  0  0  0  0  0  0  0  0  0  0  0
    5.6813   -4.2443   21.1437 O   0  0  0  0  0  0  0  0  0  0  0  0
    5.5275   -3.0961   23.4528 S   0  5  0  0  0  0  0  0  0  0  0  0
  1  2  1  0  0  0  0
  1  3  2  0  0  0  0
  2  4  2  0  0  0  0
  3  5  1  0  0  0  0
  4  6  1  0  0  0  0
  5  6  2  0  0  0  0
  6  7  1  0  0  0  0
  7 14  1  0  0  0  0
  7 15  2  0  0  0  0
  8 13  1  0  0  0  0
  8 16  2  0  0  0  0
  8 17  1  0  0  0  0
  9 11  1  0  0  0  0
  9 13  1  0  0  0  0
 10 12  1  0  0  0  0
 10 13  1  0  0  0  0
 11 14  1  0  0  0  0
 12 14  1  0  0  0  0
M  CHG  1  17  -1
M  END

> <original SMILES>

O=C(S)C1CCN(C(=O)c2ccccc2)CC1

> <ref_mols>

x1380_0,x1386_0

> <ref_pdb>

receptors/protein-0387.pdb

> <Chemgauss4>

-5.26096439361572

> <binding_free_energy>

-8.138603214827427

> <binding_std_error>

5.918895195062403

$$$$
JOH-MEM-5e386bbd-4
  -OEChem-05122002103D

 18 20  0     0  0  0  0  0  0999 V2000
   10.9492   -1.3668   23.5030 C   0  0  0  0  0  0  0  0  0  0  0  0
   11.9620   -1.6809   24.4142 C   0  0  0  0  0  0  0  0  0  0  0  0
   11.0498   -3.9063   24.7623 C   0  0  0  0  0  0  0  0  0  0  0  0
   10.0188   -3.6168   23.8494 C   0  0  0  0  0  0  0  0  0  0  0  0
    8.9125   -4.3195   23.3426 C   0  0  0  0  0  0  0  0  0  0  0  0
    9.9877   -2.3479   23.2345 C   0  0  0  0  0  0  0  0  0  0  0  0
   12.0133   -2.9284   25.0341 C   0  0  0  0  0  0  0  0  0  0  0  0
    8.2634   -3.4989   22.4702 C   0  0  0  0  0  0  0  0  0  0  0  0
    6.3531   -3.4207   20.9935 C   0  0  0  0  0  0  0  0  0  0  0  0
    8.2366   -5.6360   23.4476 C   0  0  0  0  0  0  0  0  0  0  0  0
    7.0279   -5.4634   22.4536 C   0  0  0  0  0  0  0  0  0  0  0  0
    6.3003   -1.9243   21.1751 C   0  0  0  0  0  0  0  0  0  0  0  0
   13.9677   -2.1676   26.1553 C   0  0  0  0  0  0  0  0  0  0  0  0
    8.8880   -2.3058   22.3855 N   0  0  0  0  0  0  0  0  0  0  0  0
    7.1560   -4.0748   21.9034 N   0  0  0  0  0  0  0  0  0  0  0  0
    5.7113   -3.9579   20.0901 O   0  0  0  0  0  0  0  0  0  0  0  0
   13.0150   -3.2013   25.9176 O   0  0  0  0  0  0  0  0  0  0  0  0
    8.6172   -1.5168   21.8137 H   0  0  0  0  0  0  0  0  0  0  0  0
  1  2  2  0  0  0  0
  1  6  1  0  0  0  0
  2  7  1  0  0  0  0
  3  4  1  0  0  0  0
  3  7  2  0  0  0  0
  4  5  1  0  0  0  0
  4  6  2  0  0  0  0
  5  8  2  0  0  0  0
  5 10  1  0  0  0  0
  6 14  1  0  0  0  0
  7 17  1  0  0  0  0
  8 14  1  0  0  0  0
  8 15  1  0  0  0  0
  9 12  1  0  0  0  0
  9 15  1  0  0  0  0
  9 16  2  0  0  0  0
 10 11  1  0  0  0  0
 11 15  1  0  0  0  0
 13 17  1  0  0  0  0
 14 18  1  0  0  0  0
M  END

> <original SMILES>

COc1ccc2[nH]c3c(c2c1)CCN3C(C)=O

> <ref_mols>

x0104_0

> <ref_pdb>

receptors/protein-0387.pdb

> <Chemgauss4>

-5.49479913711548

> <binding_free_energy>

-8.029797442857147

> <binding_std_error>

3.13291634112276

$$$$
ALV-UNI-7ff1a6f9-32
  -OEChem-05122002103D

 23 26  0     0  0  0  0  0  0999 V2000
   11.5728    1.1357   22.2482 C   0  0  0  0  0  0  0  0  0  0  0  0
   11.5042   -1.1776   21.5547 C   0  0  0  0  0  0  0  0  0  0  0  0
   12.7855    0.9052   22.8975 C   0  0  0  0  0  0  0  0  0  0  0  0
   12.7170   -1.4082   22.2041 C   0  0  0  0  0  0  0  0  0  0  0  0
    8.2745    0.2818   23.9711 C   0  0  0  0  0  0  0  0  0  0  0  0
    7.8862    1.0828   25.0617 C   0  0  0  0  0  0  0  0  0  0  0  0
   10.9321    0.0943   21.5768 C   0  0  0  0  0  0  0  0  0  0  0  0
    8.4764    0.7802   21.4837 C   0  0  0  0  0  0  0  0  0  0  0  0
   13.3577   -0.3667   22.8755 C   0  0  0  0  0  0  0  0  0  0  0  0
    9.6786    0.3325   20.9059 C   0  0  0  0  0  0  0  0  0  0  0  0
    8.1822    1.1149   22.8831 C   0  0  0  0  0  0  0  0  0  0  0  0
    7.5962    0.8432   20.4312 C   0  0  0  0  0  0  0  0  0  0  0  0
    6.2430    1.2009   20.2649 C   0  0  0  0  0  0  0  0  0  0  0  0
    5.6957    1.1388   19.0450 C   0  0  0  0  0  0  0  0  0  0  0  0
    6.5709    0.6865   17.9224 C   0  0  0  0  0  0  0  0  0  0  0  0
    5.9319    0.6241   16.5595 C   0  0  0  0  0  0  0  0  0  0  0  0
    7.5139    3.5225   22.6113 C   0  0  0  0  0  0  0  0  0  0  0  0
    7.5709    2.3292   24.6996 N   0  0  0  0  0  0  0  0  0  0  0  0
    9.5788    0.1253   19.5904 N   0  0  0  0  0  0  0  0  0  0  0  0
    7.8219    0.3494   18.0403 N   0  0  0  0  0  0  0  0  0  0  0  0
    7.7610    2.3176   23.3692 N   0  0  0  0  0  0  0  0  0  0  0  0
    8.2957    0.4422   19.3126 N   0  0  0  0  0  0  0  0  0  0  0  0
   14.5223   -0.5881   23.4991 F   0  0  0  0  0  0  0  0  0  0  0  0
  1  3  2  0  0  0  0
  1  7  1  0  0  0  0
  2  4  1  0  0  0  0
  2  7  2  0  0  0  0
  3  9  1  0  0  0  0
  4  9  2  0  0  0  0
  5  6  1  0  0  0  0
  5 11  2  0  0  0  0
  6 18  2  0  0  0  0
  7 10  1  0  0  0  0
  8 10  1  0  0  0  0
  8 11  1  0  0  0  0
  8 12  2  0  0  0  0
  9 23  1  0  0  0  0
 10 19  2  0  0  0  0
 11 21  1  0  0  0  0
 12 13  1  0  0  0  0
 12 22  1  0  0  0  0
 13 14  2  0  0  0  0
 14 15  1  0  0  0  0
 15 16  1  0  0  0  0
 15 20  2  0  0  0  0
 17 21  1  0  0  0  0
 18 21  1  0  0  0  0
 19 22  1  0  0  0  0
 20 22  1  0  0  0  0
M  END

> <original SMILES>

Cc1ccc2c(-c3ccnn3C)c(-c3ccc(F)cc3)nn2n1

> <ref_mols>

x0395_0,x0426_0,x0434_0,x0540_0,x0678_0,x0830_0,x1093_0

> <ref_pdb>

receptors/Mpro-x0678-protein.pdb

> <Chemgauss4>

-9.00619

> <binding_free_energy>

-8.003844964489794

> <binding_std_error>

2.3374529856151107

$$$$
TRY-UNI-1fd04853-9
  -OEChem-05122002103D

 23 25  0     0  0  0  0  0  0999 V2000
    5.2301    1.2969   18.2343 C   0  0  0  0  0  0  0  0  0  0  0  0
    5.6709    1.1238   19.5451 C   0  0  0  0  0  0  0  0  0  0  0  0
   13.8950    0.9454   23.3332 C   0  0  0  0  0  0  0  0  0  0  0  0
   12.0473   -0.1445   24.4205 C   0  0  0  0  0  0  0  0  0  0  0  0
    6.0530    0.8878   17.1935 C   0  0  0  0  0  0  0  0  0  0  0  0
   13.1427    2.1089   23.3397 C   0  0  0  0  0  0  0  0  0  0  0  0
    8.9002   -0.3601   20.3879 C   0  0  0  0  0  0  0  0  0  0  0  0
    6.9332    0.5405   19.7407 C   0  0  0  0  0  0  0  0  0  0  0  0
    7.7320    0.1960   20.8631 C   0  0  0  0  0  0  0  0  0  0  0  0
   13.3296   -0.1983   23.8858 C   0  0  0  0  0  0  0  0  0  0  0  0
   11.3777    1.0678   24.3785 C   0  0  0  0  0  0  0  0  0  0  0  0
    7.6535    0.1770   18.6066 C   0  0  0  0  0  0  0  0  0  0  0  0
    8.3773    1.2579   23.0616 C   0  0  0  0  0  0  0  0  0  0  0  0
    7.3845    0.3938   22.2845 C   0  0  0  0  0  0  0  0  0  0  0  0
    9.9914    1.1625   24.9472 C   0  0  0  0  0  0  0  0  0  0  0  0
   11.8941    2.1999   23.8500 N   0  0  0  0  0  0  0  0  0  0  0  0
    7.2754    0.3216   17.3224 N   0  0  0  0  0  0  0  0  0  0  0  0
    8.8419   -0.3663   19.0183 N   0  0  0  0  0  0  0  0  0  0  0  0
    9.0087    0.5570   24.0793 N   0  0  0  0  0  0  0  0  0  0  0  0
    8.5768    2.4393   22.7910 O   0  0  0  0  0  0  0  0  0  0  0  0
   14.2134   -1.6739   23.9064 Cl  0  0  0  0  0  0  0  0  0  0  0  0
    9.5651   -0.7164   18.4054 H   0  0  0  0  0  0  0  0  0  0  0  0
    8.7703   -0.4204   24.2193 H   0  0  0  0  0  0  0  0  0  0  0  0
  1  2  2  0  0  0  0
  1  5  1  0  0  0  0
  2  8  1  0  0  0  0
  3  6  2  0  0  0  0
  3 10  1  0  0  0  0
  4 10  2  0  0  0  0
  4 11  1  0  0  0  0
  5 17  2  0  0  0  0
  6 16  1  0  0  0  0
  7  9  2  0  0  0  0
  7 18  1  0  0  0  0
  8  9  1  0  0  0  0
  8 12  2  0  0  0  0
  9 14  1  0  0  0  0
 10 21  1  0  0  0  0
 11 15  1  0  0  0  0
 11 16  2  0  0  0  0
 12 17  1  0  0  0  0
 12 18  1  0  0  0  0
 13 14  1  0  0  0  0
 13 19  1  0  0  0  0
 13 20  2  0  0  0  0
 15 19  1  0  0  0  0
 18 22  1  0  0  0  0
 19 23  1  0  0  0  0
M  END

> <original SMILES>

O=C(Cc1c[nH]c2ncccc12)NCc1cc(Cl)ccn1

> <ref_mols>

x0104_0,x0161_0,x0195_0,x0305_0,x0387_0,x0678_0,x1382_0

> <ref_pdb>

receptors/Mpro-x0678_0.pdb

> <Chemgauss4>

-11.658267

> <binding_free_energy>

-7.998432169497718

> <binding_std_error>

7.125925992066697

$$$$
MAK-UNK-6435e6c2-6
  -OEChem-05122002103D

 20 21  0     0  0  0  0  0  0999 V2000
   12.9961   -0.1516   24.5371 C   0  0  0  0  0  0  0  0  0  0  0  0
   12.9914   -1.1202   23.5334 C   0  0  0  0  0  0  0  0  0  0  0  0
   11.8018    0.2168   25.1565 C   0  0  0  0  0  0  0  0  0  0  0  0
   11.7923   -1.7203   23.1491 C   0  0  0  0  0  0  0  0  0  0  0  0
   10.6028   -0.3834   24.7722 C   0  0  0  0  0  0  0  0  0  0  0  0
   10.5980   -1.3520   23.7684 C   0  0  0  0  0  0  0  0  0  0  0  0
    6.8535   -5.6773   27.3150 C   0  0  0  0  0  0  0  0  0  0  0  0
    8.8366   -4.3712   26.6385 C   0  0  0  0  0  0  0  0  0  0  0  0
    7.0874   -4.8501   24.9358 C   0  0  0  0  0  0  0  0  0  0  0  0
    9.0566   -3.1139   25.8089 C   0  0  0  0  0  0  0  0  0  0  0  0
    8.2369   -4.6195   23.9635 C   0  0  0  0  0  0  0  0  0  0  0  0
    5.5439   -6.3024   26.9021 C   0  0  0  0  0  0  0  0  0  0  0  0
    7.5557   -5.0007   26.3176 N   0  0  0  0  0  0  0  0  0  0  0  0
    9.0549   -3.4370   24.3552 N   0  0  0  0  0  0  0  0  0  0  0  0
    7.2416   -5.7883   28.4803 O   0  0  0  0  0  0  0  0  0  0  0  0
    8.0035   -1.2076   23.6234 O   0  0  0  0  0  0  0  0  0  0  0  0
    9.2415   -2.6048   21.9314 O   0  0  0  0  0  0  0  0  0  0  0  0
   11.8004   -2.6493   22.1829 F   0  0  0  0  0  0  0  0  0  0  0  0
    9.4617   -0.0215   25.3753 F   0  0  0  0  0  0  0  0  0  0  0  0
    9.0806   -2.1115   23.2822 S   0  0  0  0  0  0  0  0  0  0  0  0
  1  2  1  0  0  0  0
  1  3  2  0  0  0  0
  2  4  2  0  0  0  0
  3  5  1  0  0  0  0
  4  6  1  0  0  0  0
  4 18  1  0  0  0  0
  5  6  2  0  0  0  0
  5 19  1  0  0  0  0
  6 20  1  0  0  0  0
  7 12  1  0  0  0  0
  7 13  1  0  0  0  0
  7 15  2  0  0  0  0
  8 10  1  0  0  0  0
  8 13  1  0  0  0  0
  9 11  1  0  0  0  0
  9 13  1  0  0  0  0
 10 14  1  0  0  0  0
 11 14  1  0  0  0  0
 14 20  1  0  0  0  0
 16 20  2  0  0  0  0
 17 20  2  0  0  0  0
M  END

> <original SMILES>

CC(=O)N1CCN(S(=O)(=O)c2c(F)cccc2F)CC1

> <ref_mols>

x0689_0

> <ref_pdb>

receptors/Mpro-x0689_0.pdb

> <Chemgauss4>

-1.653805

> <binding_free_energy>

-7.9819614423076946

> <binding_std_error>

4.2134664388906735

$$$$
MAK-UNK-bdda130a-4
  -OEChem-05122002103D

 24 27  0     1  0  0  0  0  0999 V2000
   10.3888    4.0928   24.5291 C   0  0  0  0  0  0  0  0  0  0  0  0
   10.5084   -0.6982   24.4649 C   0  0  0  0  0  0  0  0  0  0  0  0
    9.8865    5.0838   25.3596 C   0  0  0  0  0  0  0  0  0  0  0  0
   11.7170    6.4240   25.0185 C   0  0  0  0  0  0  0  0  0  0  0  0
    9.2903   -1.3387   24.4055 C   0  0  0  0  0  0  0  0  0  0  0  0
   10.9391   -2.3466   22.8839 C   0  0  0  0  0  0  0  0  0  0  0  0
   11.6334    4.2950   23.9272 C   0  0  0  0  0  0  0  0  0  0  0  0
   12.2969    5.4911   24.1700 C   0  0  0  0  0  0  0  0  0  0  0  0
   11.4636   -1.2819   23.5833 C   0  0  0  0  0  0  0  0  0  0  0  0
   14.1573    4.9076   22.6700 C   0  0  0  0  0  0  0  0  0  0  0  0
   13.9151   -0.8196   24.9148 C   0  0  0  0  0  0  0  0  0  0  0  0
   13.9558   -1.7086   22.3091 C   0  0  0  0  0  0  0  0  0  0  0  0
   14.1093    2.7236   21.4999 C   0  0  0  0  0  0  0  0  0  0  0  0
   14.3224    1.4014   22.2306 C   0  0  0  0  0  0  0  0  0  0  0  0
   12.4923    1.9235   23.7388 C   0  0  0  0  0  0  0  0  0  0  0  0
   12.2491    3.2651   23.0180 C   0  0  2  0  0  0  0  0  0  0  0  0
   10.5232    6.2453   25.6241 N   0  0  0  0  0  0  0  0  0  0  0  0
   13.5247    5.7578   23.5600 N   0  0  0  0  0  0  0  0  0  0  0  0
   13.5067    3.7033   22.3953 N   0  0  0  0  0  0  0  0  0  0  0  0
   13.0884    0.9032   22.8568 N   0  0  2  0  0  0  0  0  0  0  0  0
   15.2366    5.2317   22.1646 O   0  0  0  0  0  0  0  0  0  0  0  0
    9.3015   -2.6383   23.2905 S   0  0  0  0  0  0  0  0  0  0  0  0
   13.0863   -0.7211   23.4134 S   0  0  0  0  0  0  0  0  0  0  0  0
   13.9745    6.6439   23.7731 H   0  0  0  0  0  0  0  0  0  0  0  0
  1  3  2  0  0  0  0
  1  7  1  0  0  0  0
  2  5  2  0  0  0  0
  2  9  1  0  0  0  0
  3 17  1  0  0  0  0
  4  8  1  0  0  0  0
  4 17  2  0  0  0  0
  5 22  1  0  0  0  0
  6  9  2  0  0  0  0
  6 22  1  0  0  0  0
  7  8  2  0  0  0  0
  7 16  1  0  0  0  0
  8 18  1  0  0  0  0
  9 23  1  0  0  0  0
 10 18  1  0  0  0  0
 10 19  1  0  0  0  0
 10 21  2  0  0  0  0
 11 23  2  0  0  0  0
 12 23  2  0  0  0  0
 13 14  1  0  0  0  0
 13 19  1  0  0  0  0
 14 20  1  0  0  0  0
 15 16  1  0  0  0  0
 15 20  1  0  0  0  0
 16 19  1  0  0  0  0
 20 23  1  0  0  0  0
 18 24  1  0  0  0  0
M  END

> <original SMILES>

C=S(=C)(c1ccsc1)N1CCN2C(=O)Nc3cnccc3C2C1

> <ref_mols>

x0107_0,x0689_0

> <ref_pdb>

receptors/Mpro-x0107_0.pdb

> <Chemgauss4>

-8.324169

> <binding_free_energy>

-7.959187862307715

> <binding_std_error>

2.5966322480332376

$$$$
DOU-UNK-b5326f8f-11
  -OEChem-05122002103D

 20 22  0     0  0  0  0  0  0999 V2000
   13.3942   -1.6849   24.8232 C   0  0  0  0  0  0  0  0  0  0  0  0
   12.7880   -0.8315   23.9062 C   0  0  0  0  0  0  0  0  0  0  0  0
   12.7766   -2.8850   25.1779 C   0  0  0  0  0  0  0  0  0  0  0  0
   11.5605   -1.1726   23.3381 C   0  0  0  0  0  0  0  0  0  0  0  0
    9.6961   -4.8145   24.4175 C   0  0  0  0  0  0  0  0  0  0  0  0
    7.7955   -4.1614   22.8003 C   0  0  0  0  0  0  0  0  0  0  0  0
   11.5414   -3.2510   24.6199 C   0  0  0  0  0  0  0  0  0  0  0  0
   10.9222   -2.3840   23.6863 C   0  0  0  0  0  0  0  0  0  0  0  0
    9.0457   -3.9769   23.4825 C   0  0  0  0  0  0  0  0  0  0  0  0
   10.9241   -4.4500   24.9729 C   0  0  0  0  0  0  0  0  0  0  0  0
    9.6618   -2.7702   23.1241 C   0  0  0  0  0  0  0  0  0  0  0  0
    7.4870   -3.1233   21.9575 C   0  0  0  0  0  0  0  0  0  0  0  0
    6.3401   -2.9596   21.1247 C   0  0  0  0  0  0  0  0  0  0  0  0
    6.2373   -1.8004   20.3376 N   0  0  0  0  0  0  0  0  0  0  0  0
    5.4102   -3.8059   21.0810 O   0  0  0  0  0  0  0  0  0  0  0  0
   11.4928   -5.3098   25.8702 O   0  0  0  0  0  0  0  0  0  0  0  0
    8.6851   -1.9169   21.9709 S   0  0  0  0  0  0  0  0  0  0  0  0
    6.9808   -1.1120   20.3829 H   0  0  0  0  0  0  0  0  0  0  0  0
    5.4468   -1.6262   19.7254 H   0  0  0  0  0  0  0  0  0  0  0  0
   10.9250   -6.0851   25.9910 H   0  0  0  0  0  0  0  0  0  0  0  0
  1  2  1  0  0  0  0
  1  3  2  0  0  0  0
  2  4  2  0  0  0  0
  3  7  1  0  0  0  0
  4  8  1  0  0  0  0
  5  9  2  0  0  0  0
  5 10  1  0  0  0  0
  6  9  1  0  0  0  0
  6 12  2  0  0  0  0
  7  8  1  0  0  0  0
  7 10  2  0  0  0  0
  8 11  2  0  0  0  0
  9 11  1  0  0  0  0
 10 16  1  0  0  0  0
 11 17  1  0  0  0  0
 12 13  1  0  0  0  0
 12 17  1  0  0  0  0
 13 14  1  0  0  0  0
 13 15  2  0  0  0  0
 14 18  1  0  0  0  0
 14 19  1  0  0  0  0
 16 20  1  0  0  0  0
M  END

> <original SMILES>

NC(=O)c1cc2c(s1)-c1ccccc1C(=O)C2

> <ref_mols>

x0104_0,x0107_0,x0387_0,x0397_0,x0708_0,x0770_0,x1093_0,x1392_0

> <ref_pdb>

receptors/Mpro-x1392-protein.pdb

> <Chemgauss4>

-6.245037

> <binding_free_energy>

-7.851599306185577

> <binding_std_error>

2.2980850913027924

$$$$
MIH-UNI-6b9ca91a-1
  -OEChem-05122002103D

 17 18  0     0  0  0  0  0  0999 V2000
    6.1298    0.4058   19.1988 C   0  0  0  0  0  0  0  0  0  0  0  0
   12.0645   -1.1756   22.5268 C   0  0  0  0  0  0  0  0  0  0  0  0
    6.6830    0.1989   17.9454 C   0  0  0  0  0  0  0  0  0  0  0  0
    8.8197    0.4671   18.7458 C   0  0  0  0  0  0  0  0  0  0  0  0
   13.0532   -1.9474   23.0963 C   0  0  0  0  0  0  0  0  0  0  0  0
   13.3134    0.4369   23.6415 C   0  0  0  0  0  0  0  0  0  0  0  0
    6.9945    0.6537   20.2590 C   0  0  0  0  0  0  0  0  0  0  0  0
   12.2152    0.2057   22.8425 C   0  0  0  0  0  0  0  0  0  0  0  0
    8.3666    0.6867   20.0366 C   0  0  0  0  0  0  0  0  0  0  0  0
   10.6758    0.9935   20.9951 C   0  0  0  0  0  0  0  0  0  0  0  0
    6.4252    0.8808   21.6210 C   0  0  0  0  0  0  0  0  0  0  0  0
   11.2817    1.2845   22.3591 C   0  0  0  0  0  0  0  0  0  0  0  0
    8.0104    0.2233   17.6907 N   0  0  0  0  0  0  0  0  0  0  0  0
    9.2738    0.9310   21.0674 N   0  0  0  0  0  0  0  0  0  0  0  0
   11.3641    0.8392   19.9914 O   0  0  0  0  0  0  0  0  0  0  0  0
   14.1572   -1.0076   24.0074 S   0  0  0  0  0  0  0  0  0  0  0  0
    8.8654    1.0847   21.9969 H   0  0  0  0  0  0  0  0  0  0  0  0
  1  3  2  0  0  0  0
  1  7  1  0  0  0  0
  2  5  2  0  0  0  0
  2  8  1  0  0  0  0
  3 13  1  0  0  0  0
  4  9  1  0  0  0  0
  4 13  2  0  0  0  0
  5 16  1  0  0  0  0
  6  8  2  0  0  0  0
  6 16  1  0  0  0  0
  7  9  2  0  0  0  0
  7 11  1  0  0  0  0
  8 12  1  0  0  0  0
  9 14  1  0  0  0  0
 10 12  1  0  0  0  0
 10 14  1  0  0  0  0
 10 15  2  0  0  0  0
 14 17  1  0  0  0  0
M  END

> <original SMILES>

Cc1ccncc1NC(=O)Cc1ccsc1

> <ref_mols>

x0072_0,x0107_0,x0161_0,x0305_0,x0387_0,x0434_0,x0874_0

> <ref_pdb>

receptors/Mpro-x0305-protein.pdb

> <Chemgauss4>

-5.766579

> <binding_free_energy>

-7.8460937999999985

> <binding_std_error>

4.296534232420801

$$$$
SEL-UNI-8426c22c-2
  -OEChem-05122002103D

 20 21  0     0  0  0  0  0  0999 V2000
   13.4595   -2.1690   22.8196 C   0  0  0  0  0  0  0  0  0  0  0  0
   12.4071   -1.6930   22.0455 C   0  0  0  0  0  0  0  0  0  0  0  0
   13.9975   -1.3214   23.7745 C   0  0  0  0  0  0  0  0  0  0  0  0
   11.9315   -0.4020   22.2472 C   0  0  0  0  0  0  0  0  0  0  0  0
   12.5378    0.3665   23.2279 C   0  0  0  0  0  0  0  0  0  0  0  0
    8.7849   -0.0356   19.2273 C   0  0  0  0  0  0  0  0  0  0  0  0
    8.5558   -0.0946   20.6903 C   0  0  0  0  0  0  0  0  0  0  0  0
    7.3955    0.4185   21.1305 C   0  0  0  0  0  0  0  0  0  0  0  0
   10.8111    0.0941   21.4190 C   0  0  0  0  0  0  0  0  0  0  0  0
    9.3439   -1.6775   22.3618 C   0  0  0  0  0  0  0  0  0  0  0  0
    6.3968    0.9508   20.1325 C   0  0  0  0  0  0  0  0  0  0  0  0
    6.5161    0.2548   18.7797 C   0  0  0  0  0  0  0  0  0  0  0  0
    6.9890    0.5415   22.5713 C   0  0  0  0  0  0  0  0  0  0  0  0
    8.2363   -2.6409   21.9955 C   0  0  0  0  0  0  0  0  0  0  0  0
   13.5622   -0.0614   23.9994 N   0  0  0  0  0  0  0  0  0  0  0  0
    7.9018    0.1587   18.3107 N   0  0  0  0  0  0  0  0  0  0  0  0
    9.5590   -0.5915   21.4646 N   0  0  0  0  0  0  0  0  0  0  0  0
   11.0330    1.0919   20.7318 O   0  0  0  0  0  0  0  0  0  0  0  0
    9.9565   -1.8537   23.4193 O   0  0  0  0  0  0  0  0  0  0  0  0
   12.0432    1.9782   23.5730 Cl  0  0  0  0  0  0  0  0  0  0  0  0
  1  2  2  0  0  0  0
  1  3  1  0  0  0  0
  2  4  1  0  0  0  0
  3 15  2  0  0  0  0
  4  5  2  0  0  0  0
  4  9  1  0  0  0  0
  5 15  1  0  0  0  0
  5 20  1  0  0  0  0
  6  7  1  0  0  0  0
  6 16  2  0  0  0  0
  7  8  2  0  0  0  0
  7 17  1  0  0  0  0
  8 11  1  0  0  0  0
  8 13  1  0  0  0  0
  9 17  1  0  0  0  0
  9 18  2  0  0  0  0
 10 14  1  0  0  0  0
 10 17  1  0  0  0  0
 10 19  2  0  0  0  0
 11 12  1  0  0  0  0
 12 16  1  0  0  0  0
M  END

> <original SMILES>

CC(=O)N(C(=O)c1cccnc1Cl)C1=CNCC=C1C

> <ref_mols>

x0107_0,x0397_0,x1374_0,x1425_0,x1478_0

> <ref_pdb>

receptors/Mpro-x1425-protein.pdb

> <Chemgauss4>

-2.92043

> <binding_free_energy>

-7.840159808672482

> <binding_std_error>

2.6951408219898827

$$$$
DAR-DIA-43a5904b-2
  -OEChem-05122002103D

 24 26  0     1  0  0  0  0  0999 V2000
   13.3811   -1.4265   21.0400 C   0  0  0  0  0  0  0  0  0  0  0  0
    5.5390    1.3547   19.1066 C   0  0  0  0  0  0  0  0  0  0  0  0
   12.0137   -1.4150   21.3151 C   0  0  0  0  0  0  0  0  0  0  0  0
    5.7641    0.3969   20.0891 C   0  0  0  0  0  0  0  0  0  0  0  0
   14.3024   -1.4880   22.0855 C   0  0  0  0  0  0  0  0  0  0  0  0
   12.4889   -1.5263   23.6814 C   0  0  0  0  0  0  0  0  0  0  0  0
    6.2010    1.2118   17.8978 C   0  0  0  0  0  0  0  0  0  0  0  0
    7.2448   -0.7125   18.5947 C   0  0  0  0  0  0  0  0  0  0  0  0
   11.5676   -1.4648   22.6358 C   0  0  0  0  0  0  0  0  0  0  0  0
    6.6319   -0.6596   19.8363 C   0  0  0  0  0  0  0  0  0  0  0  0
   13.8563   -1.5379   23.4062 C   0  0  0  0  0  0  0  0  0  0  0  0
    9.1814   -2.0676   21.9023 C   0  0  0  0  0  0  0  0  0  0  0  0
    8.0416   -1.3792   21.7654 C   0  0  0  0  0  0  0  0  0  0  0  0
   10.1352    1.0300   22.3270 C   0  0  0  0  0  0  0  0  0  0  0  0
    8.0006   -0.1849   22.6702 C   0  0  0  0  0  0  0  0  0  0  0  0
   10.0842   -1.4522   22.9336 C   0  0  2  0  0  0  0  0  0  0  0  0
    9.4603   -0.0506   23.1298 C   0  0  1  0  0  0  0  0  0  0  0  0
    6.8965   -1.7150   20.8810 C   0  0  0  0  0  0  0  0  0  0  0  0
    7.0511    0.1993   17.6156 N   0  0  0  0  0  0  0  0  0  0  0  0
   11.1484    1.6703   23.0005 N   0  0  0  0  0  0  0  0  0  0  0  0
    9.8056    1.2873   21.1718 O   0  0  0  0  0  0  0  0  0  0  0  0
   15.1052   -1.6211   24.8223 Br  0  0  0  0  0  0  0  0  0  0  0  0
   11.3605    1.3818   23.9499 H   0  0  0  0  0  0  0  0  0  0  0  0
   11.6928    2.4200   22.5862 H   0  0  0  0  0  0  0  0  0  0  0  0
  1  3  2  0  0  0  0
  1  5  1  0  0  0  0
  2  4  2  0  0  0  0
  2  7  1  0  0  0  0
  3  9  1  0  0  0  0
  4 10  1  0  0  0  0
  5 11  2  0  0  0  0
  6  9  2  0  0  0  0
  6 11  1  0  0  0  0
  7 19  2  0  0  0  0
  8 10  2  0  0  0  0
  8 19  1  0  0  0  0
  9 16  1  0  0  0  0
 10 18  1  0  0  0  0
 11 22  1  0  0  0  0
 12 13  2  0  0  0  0
 12 16  1  0  0  0  0
 13 15  1  0  0  0  0
 13 18  1  0  0  0  0
 14 17  1  0  0  0  0
 14 20  1  0  0  0  0
 14 21  2  0  0  0  0
 15 17  1  0  0  0  0
 16 17  1  0  0  0  0
 20 23  1  0  0  0  0
 20 24  1  0  0  0  0
M  END

> <original SMILES>

NC(=O)[C@H]1CC(Cc2cccnc2)=C[C@H]1c1cccc(Br)c1

> <ref_mols>

x0874_0

> <ref_pdb>

receptors/protein-0387.pdb

> <Chemgauss4>

-6.71505546569824

> <binding_free_energy>

-7.801746357144482

> <binding_std_error>

2.2826799220928033

$$$$
TRY-UNI-714a760b-4
  -OEChem-05122002103D

 19 20  0     0  0  0  0  0  0999 V2000
   14.2238   -0.9928   23.9289 C   0  0  0  0  0  0  0  0  0  0  0  0
   13.2682   -0.4429   24.7832 C   0  0  0  0  0  0  0  0  0  0  0  0
   13.9351   -1.1595   22.5745 C   0  0  0  0  0  0  0  0  0  0  0  0
   12.0237   -0.0598   24.2832 C   0  0  0  0  0  0  0  0  0  0  0  0
   12.6905   -0.7765   22.0744 C   0  0  0  0  0  0  0  0  0  0  0  0
    5.7813    1.2555   18.8360 C   0  0  0  0  0  0  0  0  0  0  0  0
    6.3228    0.7972   17.6459 C   0  0  0  0  0  0  0  0  0  0  0  0
    8.3046    0.2321   18.6615 C   0  0  0  0  0  0  0  0  0  0  0  0
    6.5689    1.1841   19.9796 C   0  0  0  0  0  0  0  0  0  0  0  0
   11.7348   -0.2266   22.9288 C   0  0  0  0  0  0  0  0  0  0  0  0
    7.8559    0.6641   19.8992 C   0  0  0  0  0  0  0  0  0  0  0  0
   10.0066    0.0714   21.1003 C   0  0  0  0  0  0  0  0  0  0  0  0
    6.0104    1.6717   21.2761 C   0  0  0  0  0  0  0  0  0  0  0  0
    7.5686    0.2855   17.5287 N   0  0  0  0  0  0  0  0  0  0  0  0
   10.4900    0.1568   22.4288 N   0  0  0  0  0  0  0  0  0  0  0  0
    8.6957    0.5701   21.0340 N   0  0  0  0  0  0  0  0  0  0  0  0
   10.6450   -0.3740   20.1520 O   0  0  0  0  0  0  0  0  0  0  0  0
    9.8384    0.5530   23.1143 H   0  0  0  0  0  0  0  0  0  0  0  0
    8.2947    0.9076   21.9055 H   0  0  0  0  0  0  0  0  0  0  0  0
  1  2  1  0  0  0  0
  1  3  2  0  0  0  0
  2  4  2  0  0  0  0
  3  5  1  0  0  0  0
  4 10  1  0  0  0  0
  5 10  2  0  0  0  0
  6  7  2  0  0  0  0
  6  9  1  0  0  0  0
  7 14  1  0  0  0  0
  8 11  1  0  0  0  0
  8 14  2  0  0  0  0
  9 11  2  0  0  0  0
  9 13  1  0  0  0  0
 10 15  1  0  0  0  0
 11 16  1  0  0  0  0
 12 15  1  0  0  0  0
 12 16  1  0  0  0  0
 12 17  2  0  0  0  0
 15 18  1  0  0  0  0
 16 19  1  0  0  0  0
M  END

> <original SMILES>

Cc1ccncc1NC(=O)Nc1ccccc1

> <ref_mols>

x0107_0,x0434_0,x0678_0,x0748_0,x0995_0,x1382_0

> <ref_pdb>

receptors/protein-0387.pdb

> <Chemgauss4>

-5.21119546890259

> <binding_free_energy>

-7.719436690297009

> <binding_std_error>

4.793699091859226

$$$$
AUS-ARG-7cfdce8f-1
  -OEChem-05122002103D

 21 23  0     1  0  0  0  0  0999 V2000
    6.0666    1.2952   19.1537 C   0  0  0  0  0  0  0  0  0  0  0  0
    6.7078    0.8043   20.2856 C   0  0  0  0  0  0  0  0  0  0  0  0
   13.6184   -0.4511   23.6942 C   0  0  0  0  0  0  0  0  0  0  0  0
    6.5876    0.9569   17.9152 C   0  0  0  0  0  0  0  0  0  0  0  0
   12.6193    0.1711   24.4146 C   0  0  0  0  0  0  0  0  0  0  0  0
   13.2160   -1.5117   22.9086 C   0  0  0  0  0  0  0  0  0  0  0  0
    8.2761   -0.2793   18.8635 C   0  0  0  0  0  0  0  0  0  0  0  0
    7.8344    0.0013   20.1464 C   0  0  0  0  0  0  0  0  0  0  0  0
   11.0583   -1.2520   23.5747 C   0  0  0  0  0  0  0  0  0  0  0  0
    7.6918   -2.6888   22.9063 C   0  0  0  0  0  0  0  0  0  0  0  0
    8.8275   -1.5058   24.6473 C   0  0  0  0  0  0  0  0  0  0  0  0
    7.7772   -2.5892   24.4210 C   0  0  2  0  0  0  0  0  0  0  0  0
    9.1422   -2.4644   22.4358 C   0  0  1  0  0  0  0  0  0  0  0  0
    7.9112   -3.9340   26.3520 C   0  0  0  0  0  0  0  0  0  0  0  0
    9.1466   -1.7420   21.0923 C   0  0  0  0  0  0  0  0  0  0  0  0
    7.6797    0.1795   17.7403 N   0  0  0  0  0  0  0  0  0  0  0  0
   11.3240   -0.2046   24.3784 N   0  0  0  0  0  0  0  0  0  0  0  0
   11.9396   -1.9408   22.8248 N   0  0  0  0  0  0  0  0  0  0  0  0
    9.7412   -1.6631   23.5122 N   0  0  3  0  0  0  0  0  0  0  0  0
    8.4874   -0.4979   21.2460 O   0  0  0  0  0  0  0  0  0  0  0  0
    8.2412   -3.8161   24.9721 O   0  0  0  0  0  0  0  0  0  0  0  0
  1  2  2  0  0  0  0
  1  4  1  0  0  0  0
  2  8  1  0  0  0  0
  3  5  1  0  0  0  0
  3  6  2  0  0  0  0
  4 16  2  0  0  0  0
  5 17  2  0  0  0  0
  6 18  1  0  0  0  0
  7  8  2  0  0  0  0
  7 16  1  0  0  0  0
  8 20  1  0  0  0  0
  9 17  1  0  0  0  0
  9 18  2  0  0  0  0
  9 19  1  0  0  0  0
 10 12  1  0  0  0  0
 10 13  1  0  0  0  0
 11 12  1  0  0  0  0
 11 19  1  0  0  0  0
 12 21  1  0  0  0  0
 13 15  1  0  0  0  0
 13 19  1  0  0  0  0
 14 21  1  0  0  0  0
 15 20  1  0  0  0  0
M  END

> <original SMILES>

CO[C@@H]1C[C@@H](COc2cccnc2)N(c2ncccn2)C1

> <ref_mols>

x0678_0

> <ref_pdb>

receptors/Mpro-x0678_0.pdb

> <Chemgauss4>

-10.726346

> <binding_free_energy>

-7.665710293939391

> <binding_std_error>

4.2134664388906735

$$$$
ALV-UNI-7ff1a6f9-5
  -OEChem-05122002103D

 23 26  0     0  0  0  0  0  0999 V2000
   14.5902   -1.1151   23.6349 C   0  0  0  0  0  0  0  0  0  0  0  0
   13.6402   -0.1442   23.9320 C   0  0  0  0  0  0  0  0  0  0  0  0
    9.9451   -1.3419   25.4438 C   0  0  0  0  0  0  0  0  0  0  0  0
    8.2346   -0.8815   23.8009 C   0  0  0  0  0  0  0  0  0  0  0  0
    9.2876   -2.5199   25.7983 C   0  0  0  0  0  0  0  0  0  0  0  0
    7.5771   -2.0595   24.1553 C   0  0  0  0  0  0  0  0  0  0  0  0
   14.2600   -2.0800   22.6970 C   0  0  0  0  0  0  0  0  0  0  0  0
   12.1741   -1.1749   22.3686 C   0  0  0  0  0  0  0  0  0  0  0  0
    9.4186   -0.5227   24.4451 C   0  0  0  0  0  0  0  0  0  0  0  0
   12.4065   -0.1676   23.2912 C   0  0  0  0  0  0  0  0  0  0  0  0
   11.4062    0.8192   23.5766 C   0  0  0  0  0  0  0  0  0  0  0  0
    8.1036   -2.8787   25.1541 C   0  0  0  0  0  0  0  0  0  0  0  0
   10.0980    0.6948   24.0790 C   0  0  0  0  0  0  0  0  0  0  0  0
   11.5721    2.1700   23.3910 C   0  0  0  0  0  0  0  0  0  0  0  0
   12.6062    3.0073   22.9260 C   0  0  0  0  0  0  0  0  0  0  0  0
   12.4058    4.3299   22.8803 C   0  0  0  0  0  0  0  0  0  0  0  0
   11.0764    4.8385   23.3332 C   0  0  0  0  0  0  0  0  0  0  0  0
   10.8751    6.3302   23.2724 C   0  0  0  0  0  0  0  0  0  0  0  0
   13.0721   -2.1352   22.0539 N   0  0  0  0  0  0  0  0  0  0  0  0
    9.4746    1.8690   24.2055 N   0  0  0  0  0  0  0  0  0  0  0  0
   10.1011    4.0951   23.7674 N   0  0  0  0  0  0  0  0  0  0  0  0
   10.3908    2.7655   23.7802 N   0  0  0  0  0  0  0  0  0  0  0  0
    7.4722   -4.0099   25.4946 F   0  0  0  0  0  0  0  0  0  0  0  0
  1  2  2  0  0  0  0
  1  7  1  0  0  0  0
  2 10  1  0  0  0  0
  3  5  2  0  0  0  0
  3  9  1  0  0  0  0
  4  6  1  0  0  0  0
  4  9  2  0  0  0  0
  5 12  1  0  0  0  0
  6 12  2  0  0  0  0
  7 19  2  0  0  0  0
  8 10  2  0  0  0  0
  8 19  1  0  0  0  0
  9 13  1  0  0  0  0
 10 11  1  0  0  0  0
 11 13  1  0  0  0  0
 11 14  2  0  0  0  0
 12 23  1  0  0  0  0
 13 20  2  0  0  0  0
 14 15  1  0  0  0  0
 14 22  1  0  0  0  0
 15 16  2  0  0  0  0
 16 17  1  0  0  0  0
 17 18  1  0  0  0  0
 17 21  2  0  0  0  0
 20 22  1  0  0  0  0
 21 22  1  0  0  0  0
M  END

> <original SMILES>

Cc1ccc2c(-c3cccnc3)c(-c3ccc(F)cc3)nn2n1

> <ref_mols>

x0395_0,x0426_0,x0434_0,x0540_0,x0678_0,x0830_0,x1093_0

> <ref_pdb>

receptors/Mpro-x0395-protein.pdb

> <Chemgauss4>

-3.817697

> <binding_free_energy>

-7.654260407692291

> <binding_std_error>

2.2586208208751053

$$$$
PHI-UNK-c3ab17cb-1
  -OEChem-05122002103D

 24 25  0     0  0  0  0  0  0999 V2000
    7.9620   -4.0873   25.9088 C   0  0  0  0  0  0  0  0  0  0  0  0
    6.1186   -3.9023   24.3123 C   0  0  0  0  0  0  0  0  0  0  0  0
    5.6531   -3.6589   23.0201 C   0  0  0  0  0  0  0  0  0  0  0  0
    8.3861   -3.5316   23.5653 C   0  0  0  0  0  0  0  0  0  0  0  0
    7.4851   -3.8386   24.5849 C   0  0  0  0  0  0  0  0  0  0  0  0
    6.5542   -3.3520   22.0005 C   0  0  0  0  0  0  0  0  0  0  0  0
    7.9207   -3.2883   22.2731 C   0  0  0  0  0  0  0  0  0  0  0  0
    6.0407   -3.1065   20.6595 C   0  0  0  0  0  0  0  0  0  0  0  0
   10.5492   -1.2772   22.0097 C   0  0  0  0  0  0  0  0  0  0  0  0
    9.7146    0.9916   22.5794 C   0  0  0  0  0  0  0  0  0  0  0  0
   12.1770    0.4360   22.7580 C   0  0  0  0  0  0  0  0  0  0  0  0
    9.6754    0.9274   24.1027 C   0  0  0  0  0  0  0  0  0  0  0  0
   11.9744    0.4064   24.2692 C   0  0  0  0  0  0  0  0  0  0  0  0
   10.8803    0.2062   21.9903 C   0  0  0  0  0  0  0  0  0  0  0  0
    8.9118   -2.9612   21.1938 C   0  0  0  0  0  0  0  0  0  0  0  0
    8.3494   -4.2894   26.9840 N   0  0  0  0  0  0  0  0  0  0  0  0
    5.7017   -1.7992   20.3278 N   0  0  0  0  0  0  0  0  0  0  0  0
    9.4068   -1.6080   21.3061 N   0  0  0  0  0  0  0  0  0  0  0  0
    5.8939   -4.0327   19.8447 O   0  0  0  0  0  0  0  0  0  0  0  0
   11.2798   -2.0515   22.6167 O   0  0  0  0  0  0  0  0  0  0  0  0
   10.9342    1.3002   24.6591 O   0  0  0  0  0  0  0  0  0  0  0  0
    5.8195   -1.0653   21.0178 H   0  0  0  0  0  0  0  0  0  0  0  0
    5.3388   -1.5643   19.4095 H   0  0  0  0  0  0  0  0  0  0  0  0
    8.8903   -0.8645   20.8458 H   0  0  0  0  0  0  0  0  0  0  0  0
  1  5  1  0  0  0  0
  1 16  3  0  0  0  0
  2  3  2  0  0  0  0
  2  5  1  0  0  0  0
  3  6  1  0  0  0  0
  4  5  2  0  0  0  0
  4  7  1  0  0  0  0
  6  7  2  0  0  0  0
  6  8  1  0  0  0  0
  7 15  1  0  0  0  0
  8 17  1  0  0  0  0
  8 19  2  0  0  0  0
  9 14  1  0  0  0  0
  9 18  1  0  0  0  0
  9 20  2  0  0  0  0
 10 12  1  0  0  0  0
 10 14  1  0  0  0  0
 11 13  1  0  0  0  0
 11 14  1  0  0  0  0
 12 21  1  0  0  0  0
 13 21  1  0  0  0  0
 15 18  1  0  0  0  0
 17 22  1  0  0  0  0
 17 23  1  0  0  0  0
 18 24  1  0  0  0  0
M  END

> <original SMILES>

N#Cc1ccc(C(N)=O)c(CNC(=O)C2CCOCC2)c1

> <ref_mols>

x0104_0,x1093_0,x1249_0

> <ref_pdb>

receptors/Mpro-x1093_0.pdb

> <Chemgauss4>

-8.594815

> <binding_free_energy>

-7.638216919999962

> <binding_std_error>

2.717638535569635

$$$$
ALV-UNI-7ff1a6f9-34
  -OEChem-05122002103D

 26 29  0     0  0  0  0  0  0999 V2000
   10.9207   -1.6108   22.1656 C   0  0  0  0  0  0  0  0  0  0  0  0
   12.0672    0.1335   20.9490 C   0  0  0  0  0  0  0  0  0  0  0  0
   12.1330   -2.0206   22.7205 C   0  0  0  0  0  0  0  0  0  0  0  0
   13.2795   -0.2763   21.5040 C   0  0  0  0  0  0  0  0  0  0  0  0
    9.0335    1.3781   23.5460 C   0  0  0  0  0  0  0  0  0  0  0  0
    7.2113   -0.1860   23.4121 C   0  0  0  0  0  0  0  0  0  0  0  0
    8.7512    1.5088   24.8962 C   0  0  0  0  0  0  0  0  0  0  0  0
   10.8878   -0.5337   21.2798 C   0  0  0  0  0  0  0  0  0  0  0  0
    8.2442    0.5126   22.7969 C   0  0  0  0  0  0  0  0  0  0  0  0
    8.4952    0.3427   21.3954 C   0  0  0  0  0  0  0  0  0  0  0  0
   13.3124   -1.3533   22.3897 C   0  0  0  0  0  0  0  0  0  0  0  0
    9.6350   -0.1104   20.7062 C   0  0  0  0  0  0  0  0  0  0  0  0
    7.5854    0.6179   20.4040 C   0  0  0  0  0  0  0  0  0  0  0  0
    7.0108    0.0145   24.7684 C   0  0  0  0  0  0  0  0  0  0  0  0
    6.2608    1.0969   20.3518 C   0  0  0  0  0  0  0  0  0  0  0  0
    5.6663    1.2465   19.1620 C   0  0  0  0  0  0  0  0  0  0  0  0
    6.4602    0.8894   17.9483 C   0  0  0  0  0  0  0  0  0  0  0  0
    5.7694    1.0663   16.6213 C   0  0  0  0  0  0  0  0  0  0  0  0
    7.7566    0.8469   25.5290 N   0  0  0  0  0  0  0  0  0  0  0  0
    9.4709   -0.1248   19.3809 N   0  0  0  0  0  0  0  0  0  0  0  0
    7.6829    0.4452   17.9602 N   0  0  0  0  0  0  0  0  0  0  0  0
    8.2087    0.3241   19.2096 N   0  0  0  0  0  0  0  0  0  0  0  0
    5.9547   -0.7038   25.3818 N   0  0  0  0  0  0  0  0  0  0  0  0
   14.4766   -1.7469   22.9227 F   0  0  0  0  0  0  0  0  0  0  0  0
    5.3729   -1.2818   24.8152 H   0  0  0  0  0  0  0  0  0  0  0  0
    5.7592   -0.5422   26.3458 H   0  0  0  0  0  0  0  0  0  0  0  0
  1  3  2  0  0  0  0
  1  8  1  0  0  0  0
  2  4  1  0  0  0  0
  2  8  2  0  0  0  0
  3 11  1  0  0  0  0
  4 11  2  0  0  0  0
  5  7  2  0  0  0  0
  5  9  1  0  0  0  0
  6  9  2  0  0  0  0
  6 14  1  0  0  0  0
  7 19  1  0  0  0  0
  8 12  1  0  0  0  0
  9 10  1  0  0  0  0
 10 12  1  0  0  0  0
 10 13  2  0  0  0  0
 11 24  1  0  0  0  0
 12 20  2  0  0  0  0
 13 15  1  0  0  0  0
 13 22  1  0  0  0  0
 14 19  2  0  0  0  0
 14 23  1  0  0  0  0
 15 16  2  0  0  0  0
 16 17  1  0  0  0  0
 17 18  1  0  0  0  0
 17 21  2  0  0  0  0
 20 22  1  0  0  0  0
 21 22  1  0  0  0  0
 23 25  1  0  0  0  0
 23 26  1  0  0  0  0
M  END

> <original SMILES>

Cc1ccc2c(-c3ccnc(N)c3)c(-c3ccc(F)cc3)nn2n1

> <ref_mols>

x0395_0,x0426_0,x0434_0,x0540_0,x0678_0,x0830_0,x1093_0

> <ref_pdb>

receptors/Mpro-x1093-protein.pdb

> <Chemgauss4>

-8.800723

> <binding_free_energy>

-7.574736671020446

> <binding_std_error>

6.7171637323155675

$$$$
DAR-DIA-23aa0b97-20
  -OEChem-05122002103D

 21 23  0     0  0  0  0  0  0999 V2000
   14.5035   -1.6332   23.3349 C   0  0  0  0  0  0  0  0  0  0  0  0
    3.8281    1.7710   20.0987 C   0  0  0  0  0  0  0  0  0  0  0  0
    4.4980    1.8697   21.3160 C   0  0  0  0  0  0  0  0  0  0  0  0
   13.9424   -0.7470   24.2544 C   0  0  0  0  0  0  0  0  0  0  0  0
   13.8698   -1.8655   22.1141 C   0  0  0  0  0  0  0  0  0  0  0  0
    4.5140    1.3625   18.9552 C   0  0  0  0  0  0  0  0  0  0  0  0
    5.8570    1.5604   21.3952 C   0  0  0  0  0  0  0  0  0  0  0  0
   12.7476   -0.0933   23.9532 C   0  0  0  0  0  0  0  0  0  0  0  0
   12.6750   -1.2117   21.8130 C   0  0  0  0  0  0  0  0  0  0  0  0
    6.6167    0.6349   17.9106 C   0  0  0  0  0  0  0  0  0  0  0  0
    8.5522    0.4302   19.1300 C   0  0  0  0  0  0  0  0  0  0  0  0
    5.8816    1.0486   19.0233 C   0  0  0  0  0  0  0  0  0  0  0  0
    6.5634    1.1473   20.2537 C   0  0  0  0  0  0  0  0  0  0  0  0
    7.9259    0.8302   20.3006 C   0  0  0  0  0  0  0  0  0  0  0  0
   12.1139   -0.3256   22.7325 C   0  0  0  0  0  0  0  0  0  0  0  0
    9.8614   -0.1219   21.6237 C   0  0  0  0  0  0  0  0  0  0  0  0
    8.7333    0.9035   21.5541 C   0  0  0  0  0  0  0  0  0  0  0  0
    7.9325    0.3243   17.9353 N   0  0  0  0  0  0  0  0  0  0  0  0
   10.9017    0.3379   22.4271 N   0  0  0  0  0  0  0  0  0  0  0  0
    9.8011   -1.1918   21.0264 O   0  0  0  0  0  0  0  0  0  0  0  0
   10.7756    1.2583   22.8432 H   0  0  0  0  0  0  0  0  0  0  0  0
  1  4  1  0  0  0  0
  1  5  2  0  0  0  0
  2  3  1  0  0  0  0
  2  6  2  0  0  0  0
  3  7  2  0  0  0  0
  4  8  2  0  0  0  0
  5  9  1  0  0  0  0
  6 12  1  0  0  0  0
  7 13  1  0  0  0  0
  8 15  1  0  0  0  0
  9 15  2  0  0  0  0
 10 12  2  0  0  0  0
 10 18  1  0  0  0  0
 11 14  1  0  0  0  0
 11 18  2  0  0  0  0
 12 13  1  0  0  0  0
 13 14  2  0  0  0  0
 14 17  1  0  0  0  0
 15 19  1  0  0  0  0
 16 17  1  0  0  0  0
 16 19  1  0  0  0  0
 16 20  2  0  0  0  0
 19 21  1  0  0  0  0
M  END

> <original SMILES>

O=C(Cc1cncc2ccccc12)Nc1ccccc1

> <ref_mols>

x0104_0,x0305_0,x0434_0,x0678_0,x0995_0,x1093_0,x1249_0

> <ref_pdb>

receptors/Mpro-x1249-protein.pdb

> <Chemgauss4>

-5.55803

> <binding_free_energy>

-7.556216039591838

> <binding_std_error>

2.3931814883160447

$$$$
DAR-DIA-43a5904b-10
  -OEChem-05122002103D

 21 23  0     1  0  0  0  0  0999 V2000
   11.8937    1.0955   24.5503 C   0  0  0  0  0  0  0  0  0  0  0  0
   10.5484    0.7381   24.6389 C   0  0  0  0  0  0  0  0  0  0  0  0
   12.8295    0.1772   24.0740 C   0  0  0  0  0  0  0  0  0  0  0  0
   11.0745   -1.4560   23.7750 C   0  0  0  0  0  0  0  0  0  0  0  0
   10.1387   -0.5377   24.2513 C   0  0  0  0  0  0  0  0  0  0  0  0
   12.4198   -1.0985   23.6864 C   0  0  0  0  0  0  0  0  0  0  0  0
    8.3460   -2.0890   25.2386 C   0  0  0  0  0  0  0  0  0  0  0  0
    7.3768   -2.8511   24.7174 C   0  0  0  0  0  0  0  0  0  0  0  0
    8.9538   -1.9624   22.0292 C   0  0  0  0  0  0  0  0  0  0  0  0
    6.9136   -2.3318   23.3899 C   0  0  0  0  0  0  0  0  0  0  0  0
    7.2670   -5.7292   27.2796 C   0  0  0  0  0  0  0  0  0  0  0  0
    8.5950   -5.2616   26.7526 C   0  0  0  0  0  0  0  0  0  0  0  0
    8.6794   -0.9251   24.3489 C   0  0  2  0  0  0  0  0  0  0  0  0
    8.0094   -1.3234   23.0129 C   0  0  1  0  0  0  0  0  0  0  0  0
    7.3953   -4.3585   26.6751 C   0  0  0  0  0  0  0  0  0  0  0  0
    6.7561   -4.0515   25.3340 C   0  0  0  0  0  0  0  0  0  0  0  0
    9.5460   -1.0688   21.1684 N   0  0  0  0  0  0  0  0  0  0  0  0
    9.1729   -3.1712   22.0256 O   0  0  0  0  0  0  0  0  0  0  0  0
   13.5749   -2.2315   23.0999 Cl  0  0  0  0  0  0  0  0  0  0  0  0
    9.3147   -0.0845   21.2533 H   0  0  0  0  0  0  0  0  0  0  0  0
   10.2052   -1.3542   20.4515 H   0  0  0  0  0  0  0  0  0  0  0  0
  1  2  2  0  0  0  0
  1  3  1  0  0  0  0
  2  5  1  0  0  0  0
  3  6  2  0  0  0  0
  4  5  2  0  0  0  0
  4  6  1  0  0  0  0
  5 13  1  0  0  0  0
  6 19  1  0  0  0  0
  7  8  2  0  0  0  0
  7 13  1  0  0  0  0
  8 10  1  0  0  0  0
  8 16  1  0  0  0  0
  9 14  1  0  0  0  0
  9 17  1  0  0  0  0
  9 18  2  0  0  0  0
 10 14  1  0  0  0  0
 11 12  1  0  0  0  0
 11 15  1  0  0  0  0
 12 15  1  0  0  0  0
 13 14  1  0  0  0  0
 15 16  1  0  0  0  0
 17 20  1  0  0  0  0
 17 21  1  0  0  0  0
M  END

> <original SMILES>

NC(=O)[C@H]1CC(CC2CC2)=C[C@H]1c1cccc(Cl)c1

> <ref_mols>

x0874_0

> <ref_pdb>

receptors/protein-0387.pdb

> <Chemgauss4>

-5.60416555404663

> <binding_free_energy>

-7.550312189292929

> <binding_std_error>

2.3502338105281853

$$$$
PAT-UNK-b2d83456-2
  -OEChem-05122002103D

 20 21  0     0  0  0  0  0  0999 V2000
   12.2633    0.7170   24.3270 C   0  0  0  0  0  0  0  0  0  0  0  0
   11.9444    1.8404   24.0464 C   0  0  0  0  0  0  0  0  0  0  0  0
   14.3413   -2.2071   25.3209 C   0  0  0  0  0  0  0  0  0  0  0  0
   13.9682   -0.9028   24.9966 C   0  0  0  0  0  0  0  0  0  0  0  0
   13.3909   -3.2281   25.3079 C   0  0  0  0  0  0  0  0  0  0  0  0
   11.6942   -1.6404   24.6467 C   0  0  0  0  0  0  0  0  0  0  0  0
   12.6446   -0.6194   24.6596 C   0  0  0  0  0  0  0  0  0  0  0  0
   12.0674   -2.9447   24.9709 C   0  0  0  0  0  0  0  0  0  0  0  0
    6.5738   -4.6157   21.7371 C   0  0  0  0  0  0  0  0  0  0  0  0
    7.3440   -3.9955   24.0050 C   0  0  0  0  0  0  0  0  0  0  0  0
    8.6675   -3.2131   22.0791 C   0  0  0  0  0  0  0  0  0  0  0  0
    8.6045   -4.4986   24.6931 C   0  0  0  0  0  0  0  0  0  0  0  0
    9.9491   -3.7031   22.7395 C   0  0  0  0  0  0  0  0  0  0  0  0
   11.5572    3.2082   23.7044 C   0  0  0  0  0  0  0  0  0  0  0  0
    5.8724   -5.8146   22.3240 C   0  0  0  0  0  0  0  0  0  0  0  0
   11.0454   -4.0430   24.9572 C   0  0  0  0  0  0  0  0  0  0  0  0
    7.5093   -3.9791   22.5515 N   0  0  0  0  0  0  0  0  0  0  0  0
    9.7801   -3.6610   24.2418 N   0  3  0  0  0  0  0  0  0  0  0  0
    6.2954   -4.2559   20.5904 O   0  0  0  0  0  0  0  0  0  0  0  0
    9.5805   -2.6850   24.5011 H   0  0  0  0  0  0  0  0  0  0  0  0
  1  2  3  0  0  0  0
  1  7  1  0  0  0  0
  2 14  1  0  0  0  0
  3  4  2  0  0  0  0
  3  5  1  0  0  0  0
  4  7  1  0  0  0  0
  5  8  2  0  0  0  0
  6  7  2  0  0  0  0
  6  8  1  0  0  0  0
  8 16  1  0  0  0  0
  9 15  1  0  0  0  0
  9 17  1  0  0  0  0
  9 19  2  0  0  0  0
 10 12  1  0  0  0  0
 10 17  1  0  0  0  0
 11 13  1  0  0  0  0
 11 17  1  0  0  0  0
 12 18  1  0  0  0  0
 13 18  1  0  0  0  0
 16 18  1  0  0  0  0
 18 20  1  0  0  0  0
M  CHG  1  18   1
M  END

> <original SMILES>

CC#Cc1cccc(CN2CCN(C(C)=O)CC2)c1

> <ref_mols>

x0104_0,x0692_0

> <ref_pdb>

receptors/protein-0387.pdb

> <Chemgauss4>

-4.72107887268066

> <binding_free_energy>

-7.542453264081615

> <binding_std_error>

2.309293349843939

$$$$
PAT-GYR-359dbb24-1
  -OEChem-05122002103D

 19 20  0     0  0  0  0  0  0999 V2000
    9.2860   -3.3846   24.3770 C   0  0  0  0  0  0  0  0  0  0  0  0
    9.9582   -2.4438   24.0533 C   0  0  0  0  0  0  0  0  0  0  0  0
   10.5860   -0.0932   24.3003 C   0  0  0  0  0  0  0  0  0  0  0  0
   11.7119   -1.4634   22.6596 C   0  0  0  0  0  0  0  0  0  0  0  0
   11.3678    0.9992   23.9245 C   0  0  0  0  0  0  0  0  0  0  0  0
   12.4936   -0.3710   22.2838 C   0  0  0  0  0  0  0  0  0  0  0  0
   10.7581   -1.3245   23.6678 C   0  0  0  0  0  0  0  0  0  0  0  0
   12.3216    0.8603   22.9163 C   0  0  0  0  0  0  0  0  0  0  0  0
   12.5184    4.0095   23.8720 C   0  0  0  0  0  0  0  0  0  0  0  0
   10.5670    5.3060   23.0741 C   0  0  0  0  0  0  0  0  0  0  0  0
   12.1731    6.4577   24.5484 C   0  0  0  0  0  0  0  0  0  0  0  0
    9.4479    5.9928   23.8409 C   0  0  0  0  0  0  0  0  0  0  0  0
   10.9772    7.1114   25.2326 C   0  0  0  0  0  0  0  0  0  0  0  0
   13.1619    2.0365   22.5107 C   0  0  0  0  0  0  0  0  0  0  0  0
   11.7780    5.2035   23.8915 N   0  0  0  0  0  0  0  0  0  0  0  0
   12.4603    3.2885   22.6851 N   0  0  0  0  0  0  0  0  0  0  0  0
   13.1754    3.6140   24.8407 O   0  0  0  0  0  0  0  0  0  0  0  0
    9.8916    7.2646   24.3176 O   0  0  0  0  0  0  0  0  0  0  0  0
   11.9092    3.6517   21.9183 H   0  0  0  0  0  0  0  0  0  0  0  0
  1  2  3  0  0  0  0
  2  7  1  0  0  0  0
  3  5  2  0  0  0  0
  3  7  1  0  0  0  0
  4  6  1  0  0  0  0
  4  7  2  0  0  0  0
  5  8  1  0  0  0  0
  6  8  2  0  0  0  0
  8 14  1  0  0  0  0
  9 15  1  0  0  0  0
  9 16  1  0  0  0  0
  9 17  2  0  0  0  0
 10 12  1  0  0  0  0
 10 15  1  0  0  0  0
 11 13  1  0  0  0  0
 11 15  1  0  0  0  0
 12 18  1  0  0  0  0
 13 18  1  0  0  0  0
 14 16  1  0  0  0  0
 16 19  1  0  0  0  0
M  END

> <original SMILES>

C#Cc1ccc(CNC(=O)N2CCOCC2)cc1

> <ref_mols>

x1249_0

> <ref_pdb>

receptors/protein-0387.pdb

> <Chemgauss4>

-4.81664085388184

> <binding_free_energy>

-7.493740172121193

> <binding_std_error>

14.111638188204372

$$$$
DAR-DIA-fc970077-13
  -OEChem-05122002103D

 20 22  0     1  0  0  0  0  0999 V2000
   14.3526   -1.5692   23.8479 C   0  0  0  0  0  0  0  0  0  0  0  0
   13.9461   -0.4789   24.6169 C   0  0  0  0  0  0  0  0  0  0  0  0
   13.4506   -2.1863   22.9810 C   0  0  0  0  0  0  0  0  0  0  0  0
    5.7060    0.8806   18.9033 C   0  0  0  0  0  0  0  0  0  0  0  0
   12.6376   -0.0056   24.5193 C   0  0  0  0  0  0  0  0  0  0  0  0
   12.1422   -1.7130   22.8833 C   0  0  0  0  0  0  0  0  0  0  0  0
    6.2954    0.9268   20.1618 C   0  0  0  0  0  0  0  0  0  0  0  0
    6.5283    0.6620   17.8097 C   0  0  0  0  0  0  0  0  0  0  0  0
    8.4039    0.5424   19.1310 C   0  0  0  0  0  0  0  0  0  0  0  0
   11.7356   -0.6226   23.6524 C   0  0  0  0  0  0  0  0  0  0  0  0
    7.6696    0.7555   20.2865 C   0  0  0  0  0  0  0  0  0  0  0  0
    9.6380    1.2460   21.7170 C   0  0  0  0  0  0  0  0  0  0  0  0
   10.2003    1.2326   23.1256 C   0  0  0  0  0  0  0  0  0  0  0  0
    8.1036   -1.0065   23.2838 C   0  0  0  0  0  0  0  0  0  0  0  0
    7.5506    0.3090   22.7446 C   0  0  0  0  0  0  0  0  0  0  0  0
    9.3177   -0.8527   24.2039 C   0  0  0  0  0  0  0  0  0  0  0  0
    7.8668    0.4911   17.8914 N   0  0  0  0  0  0  0  0  0  0  0  0
    8.3111    0.7986   21.5799 N   0  0  0  0  0  0  0  0  0  0  0  0
   10.4260   -0.1491   23.5543 N   0  0  2  0  0  0  0  0  0  0  0  0
   10.3772    1.5962   20.7939 O   0  0  0  0  0  0  0  0  0  0  0  0
  1  2  1  0  0  0  0
  1  3  2  0  0  0  0
  2  5  2  0  0  0  0
  3  6  1  0  0  0  0
  4  7  2  0  0  0  0
  4  8  1  0  0  0  0
  5 10  1  0  0  0  0
  6 10  2  0  0  0  0
  7 11  1  0  0  0  0
  8 17  2  0  0  0  0
  9 11  2  0  0  0  0
  9 17  1  0  0  0  0
 10 19  1  0  0  0  0
 11 18  1  0  0  0  0
 12 13  1  0  0  0  0
 12 18  1  0  0  0  0
 12 20  2  0  0  0  0
 13 19  1  0  0  0  0
 14 15  1  0  0  0  0
 14 16  1  0  0  0  0
 15 18  1  0  0  0  0
 16 19  1  0  0  0  0
M  END

> <original SMILES>

O=C1CN(c2ccccc2)CCCN1c1cccnc1

> <ref_mols>

x0434_0

> <ref_pdb>

receptors/protein-0387.pdb

> <Chemgauss4>

-5.4485445022583

> <binding_free_energy>

-7.4629409145454275

> <binding_std_error>

2.3482520069708688

$$$$
DAR-DIA-43a5904b-11
  -OEChem-05122002103D

 24 26  0     1  0  0  0  0  0999 V2000
   12.6822    1.1044   23.9797 C   0  0  0  0  0  0  0  0  0  0  0  0
   11.3026    1.0621   24.1811 C   0  0  0  0  0  0  0  0  0  0  0  0
   13.2713    0.2888   23.0135 C   0  0  0  0  0  0  0  0  0  0  0  0
   11.1012   -0.6114   22.4503 C   0  0  0  0  0  0  0  0  0  0  0  0
    7.4361   -5.1637   24.8801 C   0  0  0  0  0  0  0  0  0  0  0  0
    9.2855   -4.0984   24.3510 C   0  0  0  0  0  0  0  0  0  0  0  0
   10.5121    0.2042   23.4164 C   0  0  0  0  0  0  0  0  0  0  0  0
    7.9321   -4.0898   24.1169 C   0  0  0  0  0  0  0  0  0  0  0  0
   12.4808   -0.5691   22.2488 C   0  0  0  0  0  0  0  0  0  0  0  0
    8.5292   -1.1964   24.0800 C   0  0  0  0  0  0  0  0  0  0  0  0
    7.7710   -1.7941   23.1523 C   0  0  0  0  0  0  0  0  0  0  0  0
    8.7566    1.2161   21.3090 C   0  0  0  0  0  0  0  0  0  0  0  0
    7.6124   -0.9435   21.9308 C   0  0  0  0  0  0  0  0  0  0  0  0
    9.0131    0.1579   23.6368 C   0  0  2  0  0  0  0  0  0  0  0  0
    8.1130    0.4256   22.4068 C   0  0  1  0  0  0  0  0  0  0  0  0
   10.7855   -5.5448   25.7426 C   0  0  0  0  0  0  0  0  0  0  0  0
    7.1549   -3.1430   23.2368 C   0  0  0  0  0  0  0  0  0  0  0  0
    8.3962   -5.8077   25.5490 N   0  0  0  0  0  0  0  0  0  0  0  0
    9.5091   -5.1367   25.2067 N   0  0  0  0  0  0  0  0  0  0  0  0
    9.2065    2.4530   21.7066 N   0  0  0  0  0  0  0  0  0  0  0  0
    8.8761    0.7732   20.1693 O   0  0  0  0  0  0  0  0  0  0  0  0
   13.2083   -1.5759   21.0577 Cl  0  0  0  0  0  0  0  0  0  0  0  0
    9.0763    2.7307   22.6739 H   0  0  0  0  0  0  0  0  0  0  0  0
    9.6636    3.0993   21.0716 H   0  0  0  0  0  0  0  0  0  0  0  0
  1  2  2  0  0  0  0
  1  3  1  0  0  0  0
  2  7  1  0  0  0  0
  3  9  2  0  0  0  0
  4  7  2  0  0  0  0
  4  9  1  0  0  0  0
  5  8  1  0  0  0  0
  5 18  2  0  0  0  0
  6  8  2  0  0  0  0
  6 19  1  0  0  0  0
  7 14  1  0  0  0  0
  8 17  1  0  0  0  0
  9 22  1  0  0  0  0
 10 11  2  0  0  0  0
 10 14  1  0  0  0  0
 11 13  1  0  0  0  0
 11 17  1  0  0  0  0
 12 15  1  0  0  0  0
 12 20  1  0  0  0  0
 12 21  2  0  0  0  0
 13 15  1  0  0  0  0
 14 15  1  0  0  0  0
 16 19  1  0  0  0  0
 18 19  1  0  0  0  0
 20 23  1  0  0  0  0
 20 24  1  0  0  0  0
M  END

> <original SMILES>

Cn1cc(CC2=C[C@@H](c3cccc(Cl)c3)[C@@H](C(N)=O)C2)cn1

> <ref_mols>

x0874_0

> <ref_pdb>

receptors/protein-0387.pdb

> <Chemgauss4>

-5.58957767486572

> <binding_free_energy>

-7.4408915538461535

> <binding_std_error>

2.3132345101092273

$$$$
WIL-LEE-364b6ea8-19
  -OEChem-05122002103D

 18 19  0     1  0  0  0  0  0999 V2000
   13.4431    2.2362   22.9361 C   0  0  0  0  0  0  0  0  0  0  0  0
   11.4838    1.3282   23.6809 C   0  0  0  0  0  0  0  0  0  0  0  0
   12.7500    1.0639   23.3365 C   0  0  0  0  0  0  0  0  0  0  0  0
   12.5634    3.2506   23.0401 C   0  0  0  0  0  0  0  0  0  0  0  0
   10.7721    0.0932   24.0923 C   0  0  0  0  0  0  0  0  0  0  0  0
   12.8746    4.6317   22.7216 C   0  0  0  0  0  0  0  0  0  0  0  0
   12.1472    5.7214   23.4688 C   0  0  0  0  0  0  0  0  0  0  0  0
   13.1005   -1.2105   21.8851 C   0  0  0  0  0  0  0  0  0  0  0  0
   11.2075    2.7739   23.5308 C   0  0  0  0  0  0  0  0  0  0  0  0
   12.7825    6.2321   24.7267 C   0  0  0  0  0  0  0  0  0  0  0  0
   14.3038   -1.3325   20.9850 C   0  0  0  0  0  0  0  0  0  0  0  0
   11.6412   -1.0570   24.0132 N   0  0  0  0  0  0  0  0  0  0  0  0
    9.6004    0.1027   24.4440 O   0  0  0  0  0  0  0  0  0  0  0  0
   13.6709    4.9768   21.8510 O   0  0  0  0  0  0  0  0  0  0  0  0
   11.0790    6.1116   23.0204 O   0  0  0  0  0  0  0  0  0  0  0  0
   11.9976   -1.5692   21.4742 O   0  0  0  0  0  0  0  0  0  0  0  0
   14.3532   -0.8480   24.0777 O   0  0  0  0  0  0  0  0  0  0  0  0
   13.0465   -0.5890   23.5132 S   0  0  2  0  0  0  0  0  0  0  0  0
  1  3  1  0  0  0  0
  1  4  2  0  0  0  0
  2  3  2  0  0  0  0
  2  5  1  0  0  0  0
  2  9  1  0  0  0  0
  3 18  1  0  0  0  0
  4  6  1  0  0  0  0
  4  9  1  0  0  0  0
  5 12  1  0  0  0  0
  5 13  2  0  0  0  0
  6  7  1  0  0  0  0
  6 14  2  0  0  0  0
  7 10  1  0  0  0  0
  7 15  2  0  0  0  0
  8 11  1  0  0  0  0
  8 16  2  0  0  0  0
  8 18  1  0  0  0  0
 12 18  2  0  0  0  0
 17 18  2  0  0  0  0
M  END

> <original SMILES>

C=C(O)C(=O)C1=CC2=C(C1)C(=O)N=[S@]2(=O)C(C)=O

> <ref_mols>

x0072_0

> <ref_pdb>

receptors/Mpro-x0072_0.pdb

> <Chemgauss4>

-7.301652

> <binding_free_energy>

-7.396999528282805

> <binding_std_error>

4.2134664388906735

$$$$
CAS-DEP-751a2458-6
  -OEChem-05122002103D

 20 21  0     0  0  0  0  0  0999 V2000
    7.0030   -6.5568   22.0247 C   0  0  0  0  0  0  0  0  0  0  0  0
    7.9036   -5.6414   22.5579 C   0  0  0  0  0  0  0  0  0  0  0  0
   12.0189   -0.8808   24.9917 C   0  0  0  0  0  0  0  0  0  0  0  0
   12.3107   -3.2723   25.1730 C   0  0  0  0  0  0  0  0  0  0  0  0
   13.2055   -0.6825   25.6976 C   0  0  0  0  0  0  0  0  0  0  0  0
   13.4973   -3.0740   25.8789 C   0  0  0  0  0  0  0  0  0  0  0  0
    5.8921   -6.0621   21.3607 C   0  0  0  0  0  0  0  0  0  0  0  0
   11.5715   -2.1757   24.7294 C   0  0  0  0  0  0  0  0  0  0  0  0
    7.6690   -4.2786   22.4129 C   0  0  0  0  0  0  0  0  0  0  0  0
   13.9447   -1.7791   26.1412 C   0  0  0  0  0  0  0  0  0  0  0  0
    6.5284   -3.8859   21.7314 C   0  0  0  0  0  0  0  0  0  0  0  0
    9.7664   -3.5954   23.6593 C   0  0  0  0  0  0  0  0  0  0  0  0
    6.2203   -2.4354   21.5446 C   0  0  0  0  0  0  0  0  0  0  0  0
    5.6306   -4.7456   21.1998 N   0  0  0  0  0  0  0  0  0  0  0  0
   10.3846   -2.3743   24.0235 N   0  0  0  0  0  0  0  0  0  0  0  0
    8.5803   -3.3403   22.9525 N   0  0  0  0  0  0  0  0  0  0  0  0
   10.2081   -4.7085   23.9257 O   0  0  0  0  0  0  0  0  0  0  0  0
   15.0847   -1.5889   26.8183 F   0  0  0  0  0  0  0  0  0  0  0  0
    9.8946   -1.5228   23.7291 H   0  0  0  0  0  0  0  0  0  0  0  0
    8.3413   -2.3627   22.8063 H   0  0  0  0  0  0  0  0  0  0  0  0
  1  2  2  0  0  0  0
  1  7  1  0  0  0  0
  2  9  1  0  0  0  0
  3  5  2  0  0  0  0
  3  8  1  0  0  0  0
  4  6  1  0  0  0  0
  4  8  2  0  0  0  0
  5 10  1  0  0  0  0
  6 10  2  0  0  0  0
  7 14  2  0  0  0  0
  8 15  1  0  0  0  0
  9 11  2  0  0  0  0
  9 16  1  0  0  0  0
 10 18  1  0  0  0  0
 11 13  1  0  0  0  0
 11 14  1  0  0  0  0
 12 15  1  0  0  0  0
 12 16  1  0  0  0  0
 12 17  2  0  0  0  0
 15 19  1  0  0  0  0
 16 20  1  0  0  0  0
M  END

> <original SMILES>

Cc1ncccc1NC(=O)Nc1ccc(F)cc1

> <ref_mols>

x0104_0

> <ref_pdb>

receptors/Mpro-x0104_0.pdb

> <Chemgauss4>

-7.370047

> <binding_free_energy>

-7.392884800000012

> <binding_std_error>

4.2134664388906735

$$$$
MAK-UNK-6435e6c2-8
  -OEChem-05122002103D

 12 12  0     0  0  0  0  0  0999 V2000
    4.8165    0.8781   19.2824 C   0  0  0  0  0  0  0  0  0  0  0  0
    5.6256    0.7351   18.1668 C   0  0  0  0  0  0  0  0  0  0  0  0
    7.1744   -0.4939   19.3369 C   0  0  0  0  0  0  0  0  0  0  0  0
    5.2376    0.2926   20.4712 C   0  0  0  0  0  0  0  0  0  0  0  0
    6.4380   -0.4082   20.5074 C   0  0  0  0  0  0  0  0  0  0  0  0
    8.0826   -1.7460   21.8602 C   0  0  0  0  0  0  0  0  0  0  0  0
    4.3851    0.4316   21.6896 C   0  0  0  0  0  0  0  0  0  0  0  0
    8.2204   -2.2356   23.2800 C   0  0  0  0  0  0  0  0  0  0  0  0
    6.7979    0.0617   18.1634 N   0  0  0  0  0  0  0  0  0  0  0  0
    6.9023   -1.0130   21.6752 N   0  0  0  0  0  0  0  0  0  0  0  0
    8.9438   -1.9960   21.0232 O   0  0  0  0  0  0  0  0  0  0  0  0
    6.3102   -0.9119   22.5080 H   0  0  0  0  0  0  0  0  0  0  0  0
  1  2  2  0  0  0  0
  1  4  1  0  0  0  0
  2  9  1  0  0  0  0
  3  5  1  0  0  0  0
  3  9  2  0  0  0  0
  4  5  2  0  0  0  0
  4  7  1  0  0  0  0
  5 10  1  0  0  0  0
  6  8  1  0  0  0  0
  6 10  1  0  0  0  0
  6 11  2  0  0  0  0
 10 12  1  0  0  0  0
M  END

> <original SMILES>

CC(=O)Nc1cnccc1C

> <ref_mols>

x0689_0

> <ref_pdb>

receptors/Mpro-x0689-protein.pdb

> <Chemgauss4>

-2.902107

> <binding_free_energy>

-7.371330950947936

> <binding_std_error>

5.014268352036762

$$$$
DAR-DIA-842b4336-12
  -OEChem-05122002103D

 17 18  0     0  0  0  0  0  0999 V2000
    5.4583    0.6220   19.1578 C   0  0  0  0  0  0  0  0  0  0  0  0
    6.1923    0.3543   20.3080 C   0  0  0  0  0  0  0  0  0  0  0  0
   13.6754   -1.6301   22.4867 C   0  0  0  0  0  0  0  0  0  0  0  0
   12.3446   -1.3948   22.0353 C   0  0  0  0  0  0  0  0  0  0  0  0
    6.1204    0.5796   17.9414 C   0  0  0  0  0  0  0  0  0  0  0  0
    8.1154    0.0394   18.9446 C   0  0  0  0  0  0  0  0  0  0  0  0
    7.5468    0.0567   20.2080 C   0  0  0  0  0  0  0  0  0  0  0  0
   13.8571   -1.2312   23.7926 C   0  0  0  0  0  0  0  0  0  0  0  0
   11.5596   -0.8251   23.0136 C   0  0  0  0  0  0  0  0  0  0  0  0
    9.6779    0.0243   21.5506 C   0  0  0  0  0  0  0  0  0  0  0  0
   15.0832   -1.3070   24.6162 C   0  0  0  0  0  0  0  0  0  0  0  0
   10.1093   -0.4258   22.9375 C   0  0  0  0  0  0  0  0  0  0  0  0
    7.4347    0.2942   17.8047 N   0  0  0  0  0  0  0  0  0  0  0  0
    8.3077   -0.2154   21.3423 N   0  0  0  0  0  0  0  0  0  0  0  0
   10.4616    0.5252   20.7506 O   0  0  0  0  0  0  0  0  0  0  0  0
   12.4268   -0.5761   24.4690 S   0  0  0  0  0  0  0  0  0  0  0  0
    7.8037   -0.6464   22.1274 H   0  0  0  0  0  0  0  0  0  0  0  0
  1  2  2  0  0  0  0
  1  5  1  0  0  0  0
  2  7  1  0  0  0  0
  3  4  1  0  0  0  0
  3  8  2  0  0  0  0
  4  9  2  0  0  0  0
  5 13  2  0  0  0  0
  6  7  2  0  0  0  0
  6 13  1  0  0  0  0
  7 14  1  0  0  0  0
  8 11  1  0  0  0  0
  8 16  1  0  0  0  0
  9 12  1  0  0  0  0
  9 16  1  0  0  0  0
 10 12  1  0  0  0  0
 10 14  1  0  0  0  0
 10 15  2  0  0  0  0
 14 17  1  0  0  0  0
M  END

> <original SMILES>

Cc1ccc(CC(=O)Nc2cccnc2)s1

> <ref_mols>

x0434_0,x0678_0,x1093_0

> <ref_pdb>

receptors/Mpro-x0678_0.pdb

> <Chemgauss4>

-11.313638

> <binding_free_energy>

-7.300565872062734

> <binding_std_error>

3.7205671502398983

$$$$
MAK-UNK-5e88aa6a-13
  -OEChem-05122002103D

 12 13  0     0  0  0  0  0  0999 V2000
   10.7467    3.4682   24.2664 C   0  0  0  0  0  0  0  0  0  0  0  0
   12.4894   -0.3379   23.5764 C   0  0  0  0  0  0  0  0  0  0  0  0
   14.2307    0.6900   22.4069 C   0  0  0  0  0  0  0  0  0  0  0  0
   10.4592    4.8147   24.3084 C   0  0  0  0  0  0  0  0  0  0  0  0
   12.5386    4.3520   23.0789 C   0  0  0  0  0  0  0  0  0  0  0  0
   11.9513    3.2001   23.5544 C   0  0  0  0  0  0  0  0  0  0  0  0
   13.6661   -0.4810   22.8697 C   0  0  0  0  0  0  0  0  0  0  0  0
   12.5484    1.9194   23.3155 C   0  0  0  0  0  0  0  0  0  0  0  0
   14.2834   -1.8067   22.6241 C   0  0  0  0  0  0  0  0  0  0  0  0
   11.9005    0.8515   23.8188 N   0  0  0  0  0  0  0  0  0  0  0  0
   13.6968    1.9120   22.6121 N   0  0  0  0  0  0  0  0  0  0  0  0
   11.6388    5.7493   23.4915 S   0  0  0  0  0  0  0  0  0  0  0  0
  1  4  2  0  0  0  0
  1  6  1  0  0  0  0
  2  7  1  0  0  0  0
  2 10  2  0  0  0  0
  3  7  2  0  0  0  0
  3 11  1  0  0  0  0
  4 12  1  0  0  0  0
  5  6  2  0  0  0  0
  5 12  1  0  0  0  0
  6  8  1  0  0  0  0
  7  9  1  0  0  0  0
  8 10  1  0  0  0  0
  8 11  2  0  0  0  0
M  END

> <original SMILES>

Cc1cnc(-c2ccsc2)nc1

> <ref_mols>

x0195_0,x0387_0

> <ref_pdb>

receptors/Mpro-x0195_0.pdb

> <Chemgauss4>

-7.533288

> <binding_free_energy>

-7.248033815463913

> <binding_std_error>

3.832271844239492

$$$$
ALV-UNI-7ff1a6f9-10
  -OEChem-05122002103D

 23 26  0     0  0  0  0  0  0999 V2000
   12.2796   -2.1554   22.7328 C   0  0  0  0  0  0  0  0  0  0  0  0
   12.2846    0.2411   23.0389 C   0  0  0  0  0  0  0  0  0  0  0  0
   13.4594   -2.2521   23.4707 C   0  0  0  0  0  0  0  0  0  0  0  0
   13.4644    0.1444   23.7768 C   0  0  0  0  0  0  0  0  0  0  0  0
    8.9071   -1.7955   24.4397 C   0  0  0  0  0  0  0  0  0  0  0  0
    8.3516   -3.5324   22.8714 C   0  0  0  0  0  0  0  0  0  0  0  0
    8.4980   -2.6512   25.4498 C   0  0  0  0  0  0  0  0  0  0  0  0
    7.9676   -4.3103   23.9518 C   0  0  0  0  0  0  0  0  0  0  0  0
   11.6923   -0.9087   22.5169 C   0  0  0  0  0  0  0  0  0  0  0  0
    8.8293   -2.2521   23.1287 C   0  0  0  0  0  0  0  0  0  0  0  0
    9.2398   -1.4063   22.0463 C   0  0  0  0  0  0  0  0  0  0  0  0
   14.0517   -1.1022   23.9927 C   0  0  0  0  0  0  0  0  0  0  0  0
   10.4733   -0.8088   21.7542 C   0  0  0  0  0  0  0  0  0  0  0  0
    8.4058   -1.0103   21.0257 C   0  0  0  0  0  0  0  0  0  0  0  0
    8.6193    0.3648   19.0388 C   0  0  0  0  0  0  0  0  0  0  0  0
    6.6091   -0.7241   19.6891 C   0  0  0  0  0  0  0  0  0  0  0  0
    7.3352    0.1495   18.7234 C   0  0  0  0  0  0  0  0  0  0  0  0
    6.6126    0.6903   17.5420 C   0  0  0  0  0  0  0  0  0  0  0  0
    8.0286   -3.9013   25.2389 N   0  0  0  0  0  0  0  0  0  0  0  0
   10.4468   -0.0837   20.6366 N   0  0  0  0  0  0  0  0  0  0  0  0
    7.0937   -1.2698   20.7634 N   0  0  0  0  0  0  0  0  0  0  0  0
    9.1717   -0.2049   20.1828 N   0  0  0  0  0  0  0  0  0  0  0  0
   15.1847   -1.1952   24.7013 F   0  0  0  0  0  0  0  0  0  0  0  0
  1  3  2  0  0  0  0
  1  9  1  0  0  0  0
  2  4  1  0  0  0  0
  2  9  2  0  0  0  0
  3 12  1  0  0  0  0
  4 12  2  0  0  0  0
  5  7  2  0  0  0  0
  5 10  1  0  0  0  0
  6  8  1  0  0  0  0
  6 10  2  0  0  0  0
  7 19  1  0  0  0  0
  8 19  2  0  0  0  0
  9 13  1  0  0  0  0
 10 11  1  0  0  0  0
 11 13  1  0  0  0  0
 11 14  2  0  0  0  0
 12 23  1  0  0  0  0
 13 20  2  0  0  0  0
 14 21  1  0  0  0  0
 14 22  1  0  0  0  0
 15 17  2  0  0  0  0
 15 22  1  0  0  0  0
 16 17  1  0  0  0  0
 16 21  2  0  0  0  0
 17 18  1  0  0  0  0
 20 22  1  0  0  0  0
M  END

> <original SMILES>

Cc1cnc2c(-c3ccncc3)c(-c3ccc(F)cc3)nn2c1

> <ref_mols>

x0395_0,x0426_0,x0434_0,x0540_0,x0678_0,x0830_0,x1093_0

> <ref_pdb>

receptors/Mpro-x0830-protein.pdb

> <Chemgauss4>

-4.383739

> <binding_free_energy>

-7.224763133537426

> <binding_std_error>

2.2853606388074432

$$$$
WAR-XCH-b72a1bbc-39
  -OEChem-05122002103D

 22 23  0     0  0  0  0  0  0999 V2000
   12.9343    2.1353   22.8541 C   0  0  0  0  0  0  0  0  0  0  0  0
   11.4266    1.3839   24.5860 C   0  0  0  0  0  0  0  0  0  0  0  0
   12.2793    3.3663   22.8180 C   0  0  0  0  0  0  0  0  0  0  0  0
   10.7717    2.6149   24.5500 C   0  0  0  0  0  0  0  0  0  0  0  0
   12.5079    1.1440   23.7381 C   0  0  0  0  0  0  0  0  0  0  0  0
   11.1981    3.6061   23.6660 C   0  0  0  0  0  0  0  0  0  0  0  0
   12.2156   -2.0838   22.7301 C   0  0  0  0  0  0  0  0  0  0  0  0
   12.4046   -1.8786   25.2466 C   0  0  0  0  0  0  0  0  0  0  0  0
   13.2434   -0.9588   22.6024 C   0  0  0  0  0  0  0  0  0  0  0  0
   13.4265   -0.7534   25.0521 C   0  0  0  0  0  0  0  0  0  0  0  0
   12.3998   -2.8490   24.0525 C   0  0  0  0  0  0  0  0  0  0  0  0
    7.2033   -4.2867   24.4667 C   0  0  0  0  0  0  0  0  0  0  0  0
   11.3157   -3.9109   24.2204 C   0  0  0  0  0  0  0  0  0  0  0  0
    8.6795   -4.6336   24.4298 C   0  0  0  0  0  0  0  0  0  0  0  0
   13.1607   -0.0837   23.7744 N   0  0  0  0  0  0  0  0  0  0  0  0
    9.1765    4.8413   22.4443 N   0  0  0  0  0  0  0  0  0  0  0  0
    9.7302    5.3599   24.9081 O   0  0  0  0  0  0  0  0  0  0  0  0
   11.2986    6.1466   23.1000 O   0  0  0  0  0  0  0  0  0  0  0  0
    9.6778   -3.1406   24.2201 S   0  0  0  0  0  0  0  0  0  0  0  0
   10.3772    5.1464   23.6211 S   0  0  0  0  0  0  0  0  0  0  0  0
    8.2029    4.7547   22.7605 H   0  0  0  0  0  0  0  0  0  0  0  0
    9.2764    5.2908   21.5260 H   0  0  0  0  0  0  0  0  0  0  0  0
  1  3  2  0  0  0  0
  1  5  1  0  0  0  0
  2  4  1  0  0  0  0
  2  5  2  0  0  0  0
  3  6  1  0  0  0  0
  4  6  2  0  0  0  0
  5 15  1  0  0  0  0
  6 20  1  0  0  0  0
  7  9  1  0  0  0  0
  7 11  1  0  0  0  0
  8 10  1  0  0  0  0
  8 11  1  0  0  0  0
  9 15  1  0  0  0  0
 10 15  1  0  0  0  0
 11 13  1  0  0  0  0
 12 14  1  0  0  0  0
 13 19  1  0  0  0  0
 14 19  1  0  0  0  0
 16 20  1  0  0  0  0
 17 20  2  0  0  0  0
 18 20  2  0  0  0  0
 16 21  1  0  0  0  0
 16 22  1  0  0  0  0
M  END

> <original SMILES>

CCSCC1CCN(c2ccc(S(N)(=O)=O)cc2)CC1

> <ref_mols>

x0072_0,x0104_0,x0107_0,x0161_0,x0165_0

> <ref_pdb>

receptors/Mpro-x0161_0.pdb

> <Chemgauss4>

-8.662804

> <binding_free_energy>

-7.214592647174255

> <binding_std_error>

5.800171390315634

$$$$
AMD-UAU-3d234461-1
  -OEChem-05122002103D

 19 20  0     0  0  0  0  0  0999 V2000
    8.5353   -0.4025   19.1735 C   0  0  0  0  0  0  0  0  0  0  0  0
    9.0788   -0.6625   20.4340 C   0  0  0  0  0  0  0  0  0  0  0  0
    4.8898    1.5531   18.7780 C   0  0  0  0  0  0  0  0  0  0  0  0
    7.1774    0.3901   21.4604 C   0  0  0  0  0  0  0  0  0  0  0  0
    5.6315    1.1244   17.6958 C   0  0  0  0  0  0  0  0  0  0  0  0
    6.6309    0.6514   20.1924 C   0  0  0  0  0  0  0  0  0  0  0  0
    5.4028    1.3099   20.0439 C   0  0  0  0  0  0  0  0  0  0  0  0
    7.3152    0.2514   19.0255 C   0  0  0  0  0  0  0  0  0  0  0  0
    8.3993   -0.2658   21.5791 C   0  0  0  0  0  0  0  0  0  0  0  0
    4.6104    1.7656   21.1821 C   0  0  0  0  0  0  0  0  0  0  0  0
   10.1814   -1.1934   22.8517 C   0  0  0  0  0  0  0  0  0  0  0  0
    6.8199    0.4861   17.7956 N   0  0  0  0  0  0  0  0  0  0  0  0
    3.5931    3.6423   22.2745 N   0  0  0  0  0  0  0  0  0  0  0  0
    4.3590    3.1366   21.2400 N   0  0  0  0  0  0  0  0  0  0  0  0
    4.1633    0.9883   22.0367 O   0  0  0  0  0  0  0  0  0  0  0  0
    8.9253   -0.5172   22.8080 O   0  0  0  0  0  0  0  0  0  0  0  0
    3.0708    4.4312   21.8957 H   0  0  0  0  0  0  0  0  0  0  0  0
    2.9003    2.9307   22.5030 H   0  0  0  0  0  0  0  0  0  0  0  0
    4.7343    3.7565   20.5302 H   0  0  0  0  0  0  0  0  0  0  0  0
  1  2  2  0  0  0  0
  1  8  1  0  0  0  0
  2  9  1  0  0  0  0
  3  5  1  0  0  0  0
  3  7  2  0  0  0  0
  4  6  1  0  0  0  0
  4  9  2  0  0  0  0
  5 12  2  0  0  0  0
  6  7  1  0  0  0  0
  6  8  2  0  0  0  0
  7 10  1  0  0  0  0
  8 12  1  0  0  0  0
  9 16  1  0  0  0  0
 10 14  1  0  0  0  0
 10 15  2  0  0  0  0
 11 16  1  0  0  0  0
 13 14  1  0  0  0  0
 13 17  1  0  0  0  0
 13 18  1  0  0  0  0
 14 19  1  0  0  0  0
M  END

> <original SMILES>

COc1ccc2nccc(C(=O)NN)c2c1

> <ref_mols>

x0072_0,x0387_0

> <ref_pdb>

receptors/protein-0387.pdb

> <Chemgauss4>

-6.1827974319458

> <binding_free_energy>

-7.182498515446241

> <binding_std_error>

2.6016056223965673

$$$$
DAR-DIA-23aa0b97-6
  -OEChem-05122002103D

 19 20  0     0  0  0  0  0  0999 V2000
    7.7226    0.2415   20.2024 C   0  0  0  0  0  0  0  0  0  0  0  0
    7.0984   -4.0181   27.1569 C   0  0  0  0  0  0  0  0  0  0  0  0
    8.0416   -3.6893   26.1897 C   0  0  0  0  0  0  0  0  0  0  0  0
    8.0691   -1.7201   21.6328 C   0  0  0  0  0  0  0  0  0  0  0  0
    7.1077   -5.3093   27.6594 C   0  0  0  0  0  0  0  0  0  0  0  0
    6.2300   -1.6970   20.1249 C   0  0  0  0  0  0  0  0  0  0  0  0
    8.8789   -5.9112   26.3258 C   0  0  0  0  0  0  0  0  0  0  0  0
    6.5464   -3.5389   21.4611 C   0  0  0  0  0  0  0  0  0  0  0  0
    7.3400   -1.0569   20.6520 C   0  0  0  0  0  0  0  0  0  0  0  0
    8.9525   -4.6483   25.7606 C   0  0  0  0  0  0  0  0  0  0  0  0
    7.6714   -2.9852   22.0506 C   0  0  0  0  0  0  0  0  0  0  0  0
    9.5330   -3.2619   23.7249 C   0  0  0  0  0  0  0  0  0  0  0  0
    9.9867   -4.3231   24.7149 C   0  0  0  0  0  0  0  0  0  0  0  0
    8.0338    1.2980   19.8366 N   0  0  0  0  0  0  0  0  0  0  0  0
    7.9768   -6.2678   27.2674 N   0  0  0  0  0  0  0  0  0  0  0  0
    5.8129   -2.9254   20.5055 N   0  0  0  0  0  0  0  0  0  0  0  0
    8.3813   -3.6744   23.0310 N   0  0  0  0  0  0  0  0  0  0  0  0
   10.1291   -2.1989   23.5841 O   0  0  0  0  0  0  0  0  0  0  0  0
    8.0171   -4.6029   23.2789 H   0  0  0  0  0  0  0  0  0  0  0  0
  1  9  1  0  0  0  0
  1 14  3  0  0  0  0
  2  3  2  0  0  0  0
  2  5  1  0  0  0  0
  3 10  1  0  0  0  0
  4  9  2  0  0  0  0
  4 11  1  0  0  0  0
  5 15  2  0  0  0  0
  6  9  1  0  0  0  0
  6 16  2  0  0  0  0
  7 10  2  0  0  0  0
  7 15  1  0  0  0  0
  8 11  2  0  0  0  0
  8 16  1  0  0  0  0
 10 13  1  0  0  0  0
 11 17  1  0  0  0  0
 12 13  1  0  0  0  0
 12 17  1  0  0  0  0
 12 18  2  0  0  0  0
 17 19  1  0  0  0  0
M  END

> <original SMILES>

N#Cc1cncc(NC(=O)Cc2cccnc2)c1

> <ref_mols>

x0104_0,x0305_0,x0434_0,x0678_0,x0995_0,x1093_0,x1249_0

> <ref_pdb>

receptors/Mpro-x0104-protein.pdb

> <Chemgauss4>

-7.009195

> <binding_free_energy>

-6.9018376722222285

> <binding_std_error>

3.695476756637244

$$$$
DOU-UNK-b5326f8f-12
  -OEChem-05122002103D

 20 23  0     0  0  0  0  0  0999 V2000
    5.9402   -3.0381   20.9030 C   0  0  0  0  0  0  0  0  0  0  0  0
    6.6696   -1.8600   21.0326 C   0  0  0  0  0  0  0  0  0  0  0  0
    6.3441   -4.1903   21.5789 C   0  0  0  0  0  0  0  0  0  0  0  0
    7.8074   -1.8265   21.8389 C   0  0  0  0  0  0  0  0  0  0  0  0
    9.0235   -5.3240   23.8867 C   0  0  0  0  0  0  0  0  0  0  0  0
   10.9788   -3.9281   24.8260 C   0  0  0  0  0  0  0  0  0  0  0  0
   14.3224   -1.8892   26.5483 C   0  0  0  0  0  0  0  0  0  0  0  0
    7.4853   -4.1820   22.3965 C   0  0  0  0  0  0  0  0  0  0  0  0
    8.2295   -2.9841   22.5301 C   0  0  0  0  0  0  0  0  0  0  0  0
    9.7933   -4.1489   24.0462 C   0  0  0  0  0  0  0  0  0  0  0  0
    7.8891   -5.3322   23.0729 C   0  0  0  0  0  0  0  0  0  0  0  0
    9.3920   -2.9897   23.3683 C   0  0  0  0  0  0  0  0  0  0  0  0
   11.4490   -2.6422   24.7334 C   0  0  0  0  0  0  0  0  0  0  0  0
   12.5921   -2.0991   25.3744 C   0  0  0  0  0  0  0  0  0  0  0  0
   14.1127   -0.7136   26.0035 N   0  0  0  0  0  0  0  0  0  0  0  0
   12.9744   -0.8517   25.2314 N   0  0  0  0  0  0  0  0  0  0  0  0
   13.3980   -2.8246   26.1972 O   0  0  0  0  0  0  0  0  0  0  0  0
    7.1944   -6.5044   22.9670 O   0  0  0  0  0  0  0  0  0  0  0  0
   10.4817   -1.6841   23.7148 S   0  0  0  0  0  0  0  0  0  0  0  0
    7.6190   -7.1901   23.5033 H   0  0  0  0  0  0  0  0  0  0  0  0
  1  2  1  0  0  0  0
  1  3  2  0  0  0  0
  2  4  2  0  0  0  0
  3  8  1  0  0  0  0
  4  9  1  0  0  0  0
  5 10  2  0  0  0  0
  5 11  1  0  0  0  0
  6 10  1  0  0  0  0
  6 13  2  0  0  0  0
  7 15  2  0  0  0  0
  7 17  1  0  0  0  0
  8  9  1  0  0  0  0
  8 11  2  0  0  0  0
  9 12  2  0  0  0  0
 10 12  1  0  0  0  0
 11 18  1  0  0  0  0
 12 19  1  0  0  0  0
 13 14  1  0  0  0  0
 13 19  1  0  0  0  0
 14 16  2  0  0  0  0
 14 17  1  0  0  0  0
 15 16  1  0  0  0  0
 18 20  1  0  0  0  0
M  END

> <original SMILES>

O=C1Cc2cc(-c3nnco3)sc2-c2ccccc21

> <ref_mols>

x0104_0,x0107_0,x0387_0,x0397_0,x0708_0,x0770_0,x1093_0,x1392_0

> <ref_pdb>

receptors/Mpro-x0107-protein.pdb

> <Chemgauss4>

-7.145935

> <binding_free_energy>

-6.878592691292512

> <binding_std_error>

5.829759719761723

$$$$
JOO-IND-b2fae8f6-2
  -OEChem-05122002103D

 17 19  0     0  0  0  0  0  0999 V2000
   13.8590   -1.7687   26.2277 C   0  0  0  0  0  0  0  0  0  0  0  0
    6.4550   -4.7517   21.5572 C   0  0  0  0  0  0  0  0  0  0  0  0
    6.9180   -5.9074   22.1763 C   0  0  0  0  0  0  0  0  0  0  0  0
    7.1155   -3.5336   21.7416 C   0  0  0  0  0  0  0  0  0  0  0  0
    8.0503   -5.8779   22.9942 C   0  0  0  0  0  0  0  0  0  0  0  0
   11.8308    0.3495   24.2314 C   0  0  0  0  0  0  0  0  0  0  0  0
   12.8265   -1.3137   25.3623 C   0  0  0  0  0  0  0  0  0  0  0  0
    8.2622   -3.4759   22.5631 C   0  0  0  0  0  0  0  0  0  0  0  0
    8.7088   -4.6510   23.1751 C   0  0  0  0  0  0  0  0  0  0  0  0
   10.9973   -1.7319   24.1311 C   0  0  0  0  0  0  0  0  0  0  0  0
   10.0082   -2.6601   23.6368 C   0  0  0  0  0  0  0  0  0  0  0  0
   14.7017   -2.1400   26.9339 N   0  0  0  0  0  0  0  0  0  0  0  0
   12.8339   -0.0080   25.0496 N   0  0  0  0  0  0  0  0  0  0  0  0
   10.8782   -0.4550   23.7330 N   0  0  0  0  0  0  0  0  0  0  0  0
   11.9426   -2.2331   24.9423 N   0  0  0  0  0  0  0  0  0  0  0  0
    9.0164   -2.3443   22.8372 N   0  0  0  0  0  0  0  0  0  0  0  0
   10.1125   -4.2997   24.1128 S   0  0  0  0  0  0  0  0  0  0  0  0
  1  7  1  0  0  0  0
  1 12  3  0  0  0  0
  2  3  1  0  0  0  0
  2  4  2  0  0  0  0
  3  5  2  0  0  0  0
  4  8  1  0  0  0  0
  5  9  1  0  0  0  0
  6 13  2  0  0  0  0
  6 14  1  0  0  0  0
  7 13  1  0  0  0  0
  7 15  2  0  0  0  0
  8  9  2  0  0  0  0
  8 16  1  0  0  0  0
  9 17  1  0  0  0  0
 10 11  1  0  0  0  0
 10 14  2  0  0  0  0
 10 15  1  0  0  0  0
 11 16  2  0  0  0  0
 11 17  1  0  0  0  0
M  END

> <original SMILES>

N#Cc1ncnc(-c2nc3ccccc3s2)n1

> <ref_mols>

x0749_0

> <ref_pdb>

receptors/Mpro-x0749_0.pdb

> <Chemgauss4>

-9.441189

> <binding_free_energy>

-6.863111439393947

> <binding_std_error>

5.497981299097346

$$$$
ELE-IMP-dfb36048-6
  -OEChem-05122002103D

 17 18  0     0  0  0  0  0  0999 V2000
   13.6646   -1.7815   21.6907 C   0  0  0  0  0  0  0  0  0  0  0  0
   14.5618   -1.9013   22.7559 C   0  0  0  0  0  0  0  0  0  0  0  0
   13.0516   -0.7094   24.2377 C   0  0  0  0  0  0  0  0  0  0  0  0
   10.8452    0.0192   23.0523 C   0  0  0  0  0  0  0  0  0  0  0  0
   12.1314   -0.5762   23.1789 C   0  0  0  0  0  0  0  0  0  0  0  0
   12.4585   -1.1143   21.9324 C   0  0  0  0  0  0  0  0  0  0  0  0
   14.2621   -1.3743   24.0106 C   0  0  0  0  0  0  0  0  0  0  0  0
   10.4243   -0.1652   21.7555 C   0  0  0  0  0  0  0  0  0  0  0  0
   11.4039   -0.8500   21.0879 N   0  0  0  0  0  0  0  0  0  0  0  0
    9.2463   -0.3058   19.3686 N   0  0  0  0  0  0  0  0  0  0  0  0
    7.8439   -0.4170   21.5288 O   0  0  0  0  0  0  0  0  0  0  0  0
    8.9170    1.7641   20.8665 O   0  0  0  0  0  0  0  0  0  0  0  0
   15.1424   -1.5055   25.0126 F   0  0  0  0  0  0  0  0  0  0  0  0
    8.9402    0.3157   20.9262 S   0  0  0  0  0  0  0  0  0  0  0  0
   11.3626   -1.1223   20.1152 H   0  0  0  0  0  0  0  0  0  0  0  0
    8.7057   -1.1253   19.0657 H   0  0  0  0  0  0  0  0  0  0  0  0
    9.4403    0.3651   18.6152 H   0  0  0  0  0  0  0  0  0  0  0  0
  1  2  2  0  0  0  0
  1  6  1  0  0  0  0
  2  7  1  0  0  0  0
  3  5  1  0  0  0  0
  3  7  2  0  0  0  0
  4  5  1  0  0  0  0
  4  8  2  0  0  0  0
  5  6  2  0  0  0  0
  6  9  1  0  0  0  0
  7 13  1  0  0  0  0
  8  9  1  0  0  0  0
  8 14  1  0  0  0  0
 10 14  1  0  0  0  0
 11 14  2  0  0  0  0
 12 14  2  0  0  0  0
  9 15  1  0  0  0  0
 10 16  1  0  0  0  0
 10 17  1  0  0  0  0
M  END

> <original SMILES>

NS(=O)(=O)c1cc2cc(F)ccc2[nH]1

> <ref_mols>

x0072_0,x0104_0,x0161_0

> <ref_pdb>

receptors/protein-0387.pdb

> <Chemgauss4>

-5.45695781707764

> <binding_free_energy>

-6.819530102592552

> <binding_std_error>

3.1703730619867625

$$$$
JOH-MSK-a63bdd1d-9
  -OEChem-05122002103D

 18 19  0     0  0  0  0  0  0999 V2000
   12.5860    0.8519   24.3596 C   0  0  0  0  0  0  0  0  0  0  0  0
   13.3768    0.5745   23.2408 C   0  0  0  0  0  0  0  0  0  0  0  0
   11.8632   -1.1890   22.5362 C   0  0  0  0  0  0  0  0  0  0  0  0
    9.5121   -0.8110   25.3093 C   0  0  0  0  0  0  0  0  0  0  0  0
   11.0503   -0.9275   23.6571 C   0  0  0  0  0  0  0  0  0  0  0  0
    9.8386   -1.4837   24.1544 C   0  0  0  0  0  0  0  0  0  0  0  0
   11.4297    0.0849   24.5411 C   0  0  0  0  0  0  0  0  0  0  0  0
   13.0228   -0.4297   22.3419 C   0  0  0  0  0  0  0  0  0  0  0  0
    8.4446   -1.3350   20.9934 C   0  0  0  0  0  0  0  0  0  0  0  0
    6.2190   -0.6303   21.8599 C   0  0  0  0  0  0  0  0  0  0  0  0
    9.0621   -2.5838   23.5481 C   0  0  0  0  0  0  0  0  0  0  0  0
    7.6193   -2.2183   23.1707 C   0  0  0  0  0  0  0  0  0  0  0  0
   10.4775    0.1333   25.5342 N   0  0  0  0  0  0  0  0  0  0  0  0
    7.6141   -1.0741   22.2260 N   0  3  0  0  0  0  0  0  0  0  0  0
   13.8136   -0.6765   21.2595 O   0  0  0  0  0  0  0  0  0  0  0  0
   10.4907    0.7733   26.3163 H   0  0  0  0  0  0  0  0  0  0  0  0
    8.0547   -0.2685   22.7025 H   0  0  0  0  0  0  0  0  0  0  0  0
   13.4402   -1.3983   20.7302 H   0  0  0  0  0  0  0  0  0  0  0  0
  1  2  2  0  0  0  0
  1  7  1  0  0  0  0
  2  8  1  0  0  0  0
  3  5  1  0  0  0  0
  3  8  2  0  0  0  0
  4  6  2  0  0  0  0
  4 13  1  0  0  0  0
  5  6  1  0  0  0  0
  5  7  2  0  0  0  0
  6 11  1  0  0  0  0
  7 13  1  0  0  0  0
  8 15  1  0  0  0  0
  9 14  1  0  0  0  0
 10 14  1  0  0  0  0
 11 12  1  0  0  0  0
 12 14  1  0  0  0  0
 13 16  1  0  0  0  0
 14 17  1  0  0  0  0
 15 18  1  0  0  0  0
M  CHG  1  14   1
M  END

> <original SMILES>

CN(C)CCc1c[nH]c2ccc(O)cc12

> <ref_mols>

x0104_0

> <ref_pdb>

receptors/Mpro-x0104-protein.pdb

> <Chemgauss4>

-8.293149

> <binding_free_energy>

-6.784053608852346

> <binding_std_error>

2.2815435465429963

$$$$
CHR-SOS-7098f804-5
  -OEChem-05122002103D

 21 22  0     0  0  0  0  0  0999 V2000
   13.0404    0.2352   24.2976 C   0  0  0  0  0  0  0  0  0  0  0  0
   13.6664   -0.7865   23.5835 C   0  0  0  0  0  0  0  0  0  0  0  0
   11.7245    0.5893   23.9996 C   0  0  0  0  0  0  0  0  0  0  0  0
    7.2579    1.4952   21.2457 C   0  0  0  0  0  0  0  0  0  0  0  0
    7.5587   -0.3212   19.6814 C   0  0  0  0  0  0  0  0  0  0  0  0
    6.0317    1.8007   20.6553 C   0  0  0  0  0  0  0  0  0  0  0  0
    6.3324   -0.0159   19.0910 C   0  0  0  0  0  0  0  0  0  0  0  0
   12.9766   -1.4540   22.5714 C   0  0  0  0  0  0  0  0  0  0  0  0
   11.0347   -0.0781   22.9875 C   0  0  0  0  0  0  0  0  0  0  0  0
    8.0215    0.4343   20.7587 C   0  0  0  0  0  0  0  0  0  0  0  0
    5.5689    1.0451   19.5779 C   0  0  0  0  0  0  0  0  0  0  0  0
   11.6608   -1.0998   22.2734 C   0  0  0  0  0  0  0  0  0  0  0  0
    9.6618    0.3074   22.6924 C   0  0  0  0  0  0  0  0  0  0  0  0
    9.2679    0.1240   21.3587 N   0  0  0  0  0  0  0  0  0  0  0  0
    4.3205    1.3559   18.9770 N   0  0  0  0  0  0  0  0  0  0  0  0
    8.9230    0.7923   23.5592 O   0  0  0  0  0  0  0  0  0  0  0  0
    3.6492    2.3143   19.4304 O   0  0  0  0  0  0  0  0  0  0  0  0
    3.9227    0.6640   18.0087 O   0  0  0  0  0  0  0  0  0  0  0  0
   11.0028   -1.7650   21.2823 O   0  0  0  0  0  0  0  0  0  0  0  0
    9.9666   -0.2844   20.7428 H   0  0  0  0  0  0  0  0  0  0  0  0
   11.5795   -2.4405   20.8928 H   0  0  0  0  0  0  0  0  0  0  0  0
  1  2  1  0  0  0  0
  1  3  2  0  0  0  0
  2  8  2  0  0  0  0
  3  9  1  0  0  0  0
  4  6  2  0  0  0  0
  4 10  1  0  0  0  0
  5  7  1  0  0  0  0
  5 10  2  0  0  0  0
  6 11  1  0  0  0  0
  7 11  2  0  0  0  0
  8 12  1  0  0  0  0
  9 12  2  0  0  0  0
  9 13  1  0  0  0  0
 10 14  1  0  0  0  0
 11 15  1  0  0  0  0
 12 19  1  0  0  0  0
 13 14  1  0  0  0  0
 13 16  2  0  0  0  0
 15 17  2  0  0  0  0
 15 18  2  0  0  0  0
 14 20  1  0  0  0  0
 19 21  1  0  0  0  0
M  END

> <original SMILES>

O=C(Nc1ccc([N+](=O)[O-])cc1)c1ccccc1O

> <ref_mols>

x0107_0,x0161_0,x0195_0,x0678_0,x0946_0

> <ref_pdb>

receptors/Mpro-x0161-protein.pdb

> <Chemgauss4>

-7.22956

> <binding_free_energy>

-6.746025213846082

> <binding_std_error>

2.9735023315716482

$$$$
JOO-PER-74f994a9-1
  -OEChem-05122002103D

 17 18  0     0  0  0  0  0  0999 V2000
    5.9026   -5.6613   21.7987 C   0  0  0  0  0  0  0  0  0  0  0  0
   12.3338   -3.3243   25.2328 C   0  0  0  0  0  0  0  0  0  0  0  0
   12.8190   -2.0226   25.1066 C   0  0  0  0  0  0  0  0  0  0  0  0
   10.9672   -3.5743   25.1086 C   0  0  0  0  0  0  0  0  0  0  0  0
   10.5708   -1.2210   24.7323 C   0  0  0  0  0  0  0  0  0  0  0  0
   11.9374   -0.9710   24.8564 C   0  0  0  0  0  0  0  0  0  0  0  0
   10.0856   -2.5227   24.8584 C   0  0  0  0  0  0  0  0  0  0  0  0
    6.7256   -6.0597   24.1037 C   0  0  0  0  0  0  0  0  0  0  0  0
    8.3480   -5.6620   22.2101 C   0  0  0  0  0  0  0  0  0  0  0  0
    6.9308   -4.6220   24.5687 C   0  0  0  0  0  0  0  0  0  0  0  0
    8.5412   -4.2274   22.6896 C   0  0  0  0  0  0  0  0  0  0  0  0
    6.9887   -6.2498   22.6056 C   0  0  0  0  0  0  0  0  0  0  0  0
   12.4571    0.4203   24.7202 C   0  0  0  0  0  0  0  0  0  0  0  0
    8.6156   -2.7917   24.7256 C   0  0  0  0  0  0  0  0  0  0  0  0
    5.0486   -5.1985   21.1641 N   0  0  0  0  0  0  0  0  0  0  0  0
    8.3139   -4.1603   24.1799 N   0  3  0  0  0  0  0  0  0  0  0  0
    8.9860   -4.8033   24.6209 H   0  0  0  0  0  0  0  0  0  0  0  0
  1 12  1  0  0  0  0
  1 15  3  0  0  0  0
  2  3  2  0  0  0  0
  2  4  1  0  0  0  0
  3  6  1  0  0  0  0
  4  7  2  0  0  0  0
  5  6  2  0  0  0  0
  5  7  1  0  0  0  0
  6 13  1  0  0  0  0
  7 14  1  0  0  0  0
  8 10  1  0  0  0  0
  8 12  1  0  0  0  0
  9 11  1  0  0  0  0
  9 12  1  0  0  0  0
 10 16  1  0  0  0  0
 11 16  1  0  0  0  0
 14 16  1  0  0  0  0
 16 17  1  0  0  0  0
M  CHG  1  16   1
M  END

> <original SMILES>

Cc1cccc(CN2CCC(C#N)CC2)c1

> <ref_mols>

x0692_0

> <ref_pdb>

receptors/protein-0387.pdb

> <Chemgauss4>

-5.76726293563843

> <binding_free_energy>

-6.742133289114271

> <binding_std_error>

1.770376088013558

$$$$
GUZ-UNI-5a173832-2
  -OEChem-05122002103D

 19 21  0     0  0  0  0  0  0999 V2000
   14.2365   -2.1977   22.9592 C   0  0  0  0  0  0  0  0  0  0  0  0
    8.8067    7.5465   24.1595 C   0  0  0  0  0  0  0  0  0  0  0  0
   14.1741   -0.9161   23.5566 C   0  0  0  0  0  0  0  0  0  0  0  0
    9.5821    6.7031   23.3285 C   0  0  0  0  0  0  0  0  0  0  0  0
   14.1837   -1.9889   21.6007 C   0  0  0  0  0  0  0  0  0  0  0  0
    9.5250    7.7022   25.3222 C   0  0  0  0  0  0  0  0  0  0  0  0
   14.0877   -0.0155   22.5205 C   0  0  0  0  0  0  0  0  0  0  0  0
   10.7190    6.4037   24.0424 C   0  0  0  0  0  0  0  0  0  0  0  0
   12.9347    3.5826   22.8190 C   0  0  0  0  0  0  0  0  0  0  0  0
   12.8505    2.0919   22.7299 C   0  0  0  0  0  0  0  0  0  0  0  0
   11.6958    4.2925   23.2652 C   0  0  0  0  0  0  0  0  0  0  0  0
   13.9994    1.4090   22.6156 C   0  0  0  0  0  0  0  0  0  0  0  0
   11.8113    5.5790   23.6268 C   0  0  0  0  0  0  0  0  0  0  0  0
   11.5184    1.4047   22.7938 C   0  0  0  0  0  0  0  0  0  0  0  0
   10.3855    3.5641   23.3223 C   0  0  0  0  0  0  0  0  0  0  0  0
   10.5627    2.1120   23.7450 C   0  0  0  0  0  0  0  0  0  0  0  0
   13.9656    4.1905   22.5437 O   0  0  0  0  0  0  0  0  0  0  0  0
   14.0930   -0.6614   21.3249 O   0  0  0  0  0  0  0  0  0  0  0  0
   10.6920    7.0089   25.2588 O   0  0  0  0  0  0  0  0  0  0  0  0
  1  3  1  0  0  0  0
  1  5  2  0  0  0  0
  2  4  1  0  0  0  0
  2  6  2  0  0  0  0
  3  7  2  0  0  0  0
  4  8  2  0  0  0  0
  5 18  1  0  0  0  0
  6 19  1  0  0  0  0
  7 12  1  0  0  0  0
  7 18  1  0  0  0  0
  8 13  1  0  0  0  0
  8 19  1  0  0  0  0
  9 10  1  0  0  0  0
  9 11  1  0  0  0  0
  9 17  2  0  0  0  0
 10 12  2  0  0  0  0
 10 14  1  0  0  0  0
 11 13  2  0  0  0  0
 11 15  1  0  0  0  0
 14 16  1  0  0  0  0
 15 16  1  0  0  0  0
M  END

> <original SMILES>

O=C1/C(=C/c2ccco2)CCC/C1=C\c1ccco1

> <ref_mols>

x0104_0,x0305_0,x0434_0,x0830_0

> <ref_pdb>

receptors/Mpro-x0104-protein.pdb

> <Chemgauss4>

-8.12715

> <binding_free_energy>

-6.737908238775518

> <binding_std_error>

2.016342729955282

$$$$
DAR-DIA-842b4336-19
  -OEChem-05122002103D

 22 24  0     0  0  0  0  0  0999 V2000
    6.2114    0.9729   17.4710 C   0  0  0  0  0  0  0  0  0  0  0  0
   13.7067    0.4639   22.8866 C   0  0  0  0  0  0  0  0  0  0  0  0
    5.8111   -1.2240   18.5599 C   0  0  0  0  0  0  0  0  0  0  0  0
   13.3006   -0.8422   22.6189 C   0  0  0  0  0  0  0  0  0  0  0  0
    6.2563   -1.9876   19.6775 C   0  0  0  0  0  0  0  0  0  0  0  0
   11.1928   -2.3753   22.8492 C   0  0  0  0  0  0  0  0  0  0  0  0
   12.7973    1.3416   23.4612 C   0  0  0  0  0  0  0  0  0  0  0  0
    6.4482   -0.0053   18.4791 C   0  0  0  0  0  0  0  0  0  0  0  0
   11.9832   -1.1997   22.9483 C   0  0  0  0  0  0  0  0  0  0  0  0
    9.9452   -2.0823   23.3563 C   0  0  0  0  0  0  0  0  0  0  0  0
   11.1774   -0.2193   23.5200 C   0  0  0  0  0  0  0  0  0  0  0  0
    7.2170   -1.3234   20.4082 C   0  0  0  0  0  0  0  0  0  0  0  0
    7.8008   -2.8960   22.2873 C   0  0  0  0  0  0  0  0  0  0  0  0
    8.7425   -2.9246   23.4970 C   0  0  0  0  0  0  0  0  0  0  0  0
    6.0185    1.7699   16.6498 N   0  0  0  0  0  0  0  0  0  0  0  0
   11.5189    1.0530   23.7987 N   0  0  0  0  0  0  0  0  0  0  0  0
    9.9470   -0.7722   23.7597 N   0  0  0  0  0  0  0  0  0  0  0  0
    7.9212   -1.7055   21.5748 N   0  0  0  0  0  0  0  0  0  0  0  0
    7.0579   -3.8397   22.0370 O   0  0  0  0  0  0  0  0  0  0  0  0
    7.5781    0.2144   19.7469 S   0  0  0  0  0  0  0  0  0  0  0  0
    9.1630   -0.2850   24.1717 H   0  0  0  0  0  0  0  0  0  0  0  0
    8.5939   -1.0318   21.9350 H   0  0  0  0  0  0  0  0  0  0  0  0
  1  8  1  0  0  0  0
  1 15  3  0  0  0  0
  2  4  2  0  0  0  0
  2  7  1  0  0  0  0
  3  5  1  0  0  0  0
  3  8  2  0  0  0  0
  4  9  1  0  0  0  0
  5 12  2  0  0  0  0
  6  9  1  0  0  0  0
  6 10  2  0  0  0  0
  7 16  2  0  0  0  0
  8 20  1  0  0  0  0
  9 11  2  0  0  0  0
 10 14  1  0  0  0  0
 10 17  1  0  0  0  0
 11 16  1  0  0  0  0
 11 17  1  0  0  0  0
 12 18  1  0  0  0  0
 12 20  1  0  0  0  0
 13 14  1  0  0  0  0
 13 18  1  0  0  0  0
 13 19  2  0  0  0  0
 17 21  1  0  0  0  0
 18 22  1  0  0  0  0
M  END

> <original SMILES>

N#Cc1ccc(NC(=O)Cc2cc3cccnc3[nH]2)s1

> <ref_mols>

x0434_0,x0678_0,x1093_0

> <ref_pdb>

receptors/Mpro-x1093-protein.pdb

> <Chemgauss4>

-5.354954

> <binding_free_energy>

-6.732735099999999

> <binding_std_error>

4.0804976320703945

$$$$
WAR-XCH-b6889685-31
  -OEChem-05122002103D

 25 27  0     0  0  0  0  0  0999 V2000
    9.8569    2.3489   24.5016 C   0  0  0  0  0  0  0  0  0  0  0  0
   11.8685    1.7983   23.2821 C   0  0  0  0  0  0  0  0  0  0  0  0
   10.2126    3.6974   24.4796 C   0  0  0  0  0  0  0  0  0  0  0  0
   12.2243    3.1469   23.2600 C   0  0  0  0  0  0  0  0  0  0  0  0
    6.5855   -4.4693   23.9669 C   0  0  0  0  0  0  0  0  0  0  0  0
    6.0467   -5.4501   24.7701 C   0  0  0  0  0  0  0  0  0  0  0  0
    8.3261   -4.8380   25.4625 C   0  0  0  0  0  0  0  0  0  0  0  0
   10.6849    1.3993   23.9028 C   0  0  0  0  0  0  0  0  0  0  0  0
    7.9060   -4.1147   24.3678 C   0  0  0  0  0  0  0  0  0  0  0  0
   11.3963    4.0964   23.8588 C   0  0  0  0  0  0  0  0  0  0  0  0
    9.9981   -1.8872   25.3785 C   0  0  0  0  0  0  0  0  0  0  0  0
   10.7993   -2.1645   23.0092 C   0  0  0  0  0  0  0  0  0  0  0  0
    9.5430   -0.4677   25.0384 C   0  0  0  0  0  0  0  0  0  0  0  0
   10.3337   -0.7394   22.7006 C   0  0  0  0  0  0  0  0  0  0  0  0
   10.0133   -2.8065   24.1541 C   0  0  0  0  0  0  0  0  0  0  0  0
   10.3341    0.0679   23.9243 N   0  0  0  0  0  0  0  0  0  0  0  0
   11.1012    6.2935   22.3788 N   0  0  0  0  0  0  0  0  0  0  0  0
    8.6762   -3.1572   23.7355 N   0  0  0  0  0  0  0  0  0  0  0  0
   11.1908    6.4501   24.9503 O   0  0  0  0  0  0  0  0  0  0  0  0
   13.2877    5.8779   23.6762 O   0  0  0  0  0  0  0  0  0  0  0  0
    7.1309   -5.9393   26.0019 S   0  0  0  0  0  0  0  0  0  0  0  0
   11.8427    5.7841   23.8314 S   0  0  0  0  0  0  0  0  0  0  0  0
   10.2743    6.8994   22.4465 H   0  0  0  0  0  0  0  0  0  0  0  0
   11.7072    6.5063   21.5770 H   0  0  0  0  0  0  0  0  0  0  0  0
    8.2901   -2.6711   22.9379 H   0  0  0  0  0  0  0  0  0  0  0  0
  1  3  2  0  0  0  0
  1  8  1  0  0  0  0
  2  4  1  0  0  0  0
  2  8  2  0  0  0  0
  3 10  1  0  0  0  0
  4 10  2  0  0  0  0
  5  6  2  0  0  0  0
  5  9  1  0  0  0  0
  6 21  1  0  0  0  0
  7  9  2  0  0  0  0
  7 21  1  0  0  0  0
  8 16  1  0  0  0  0
  9 18  1  0  0  0  0
 10 22  1  0  0  0  0
 11 13  1  0  0  0  0
 11 15  1  0  0  0  0
 12 14  1  0  0  0  0
 12 15  1  0  0  0  0
 13 16  1  0  0  0  0
 14 16  1  0  0  0  0
 15 18  1  0  0  0  0
 17 22  1  0  0  0  0
 19 22  2  0  0  0  0
 20 22  2  0  0  0  0
 17 23  1  0  0  0  0
 17 24  1  0  0  0  0
 18 25  1  0  0  0  0
M  END

> <original SMILES>

NS(=O)(=O)c1ccc(N2CCC(Nc3ccsc3)CC2)cc1

> <ref_mols>

x0072_0,x0104_0,x0107_0,x0161_0,x0165_0

> <ref_pdb>

receptors/Mpro-x0165-protein.pdb

> <Chemgauss4>

0.387897

> <binding_free_energy>

-6.721720840816317

> <binding_std_error>

4.104100028007756

$$$$
ALV-UNI-7ff1a6f9-23
  -OEChem-05122002103D

 27 31  0     0  0  0  0  0  0999 V2000
    6.0886    0.6616   21.3271 C   0  0  0  0  0  0  0  0  0  0  0  0
    7.1593   -0.0647   21.8849 C   0  0  0  0  0  0  0  0  0  0  0  0
    7.1870   -3.8502   22.1308 C   0  0  0  0  0  0  0  0  0  0  0  0
    7.6545   -3.2975   24.4358 C   0  0  0  0  0  0  0  0  0  0  0  0
    6.0490   -4.5512   22.5297 C   0  0  0  0  0  0  0  0  0  0  0  0
    6.5164   -3.9984   24.8347 C   0  0  0  0  0  0  0  0  0  0  0  0
    8.2531   -0.6367   19.7022 C   0  0  0  0  0  0  0  0  0  0  0  0
    5.2977    1.3107   19.0995 C   0  0  0  0  0  0  0  0  0  0  0  0
    6.1769    0.6902   19.9411 C   0  0  0  0  0  0  0  0  0  0  0  0
    7.9898   -3.2234   23.0839 C   0  0  0  0  0  0  0  0  0  0  0  0
    8.1919   -0.6842   21.1123 C   0  0  0  0  0  0  0  0  0  0  0  0
    9.2226   -1.3953   21.8104 C   0  0  0  0  0  0  0  0  0  0  0  0
    7.1950    0.0832   19.1173 C   0  0  0  0  0  0  0  0  0  0  0  0
    5.7136   -4.6253   23.8816 C   0  0  0  0  0  0  0  0  0  0  0  0
    9.1659   -2.4993   22.6717 C   0  0  0  0  0  0  0  0  0  0  0  0
   10.5588   -1.0739   21.7367 C   0  0  0  0  0  0  0  0  0  0  0  0
   12.6120   -1.9405   22.6945 C   0  0  0  0  0  0  0  0  0  0  0  0
   12.5184   -0.0807   21.2174 C   0  0  0  0  0  0  0  0  0  0  0  0
   13.3310   -1.0074   22.0564 C   0  0  0  0  0  0  0  0  0  0  0  0
   14.8060   -0.8321   22.1191 C   0  0  0  0  0  0  0  0  0  0  0  0
    6.9242    0.3382   17.8250 N   0  0  0  0  0  0  0  0  0  0  0  0
   10.3645   -2.8677   23.1224 N   0  0  0  0  0  0  0  0  0  0  0  0
   11.2294   -0.0995   21.0595 N   0  0  0  0  0  0  0  0  0  0  0  0
    5.7924    1.0685   17.8512 N   0  0  0  0  0  0  0  0  0  0  0  0
   11.2284   -1.9901   22.5477 N   0  0  0  0  0  0  0  0  0  0  0  0
    4.6207   -5.2984   24.2646 F   0  0  0  0  0  0  0  0  0  0  0  0
    5.4055    1.3734   16.9671 H   0  0  0  0  0  0  0  0  0  0  0  0
  1  2  2  0  0  0  0
  1  9  1  0  0  0  0
  2 11  1  0  0  0  0
  3  5  2  0  0  0  0
  3 10  1  0  0  0  0
  4  6  1  0  0  0  0
  4 10  2  0  0  0  0
  5 14  1  0  0  0  0
  6 14  2  0  0  0  0
  7 11  2  0  0  0  0
  7 13  1  0  0  0  0
  8  9  2  0  0  0  0
  8 24  1  0  0  0  0
  9 13  1  0  0  0  0
 10 15  1  0  0  0  0
 11 12  1  0  0  0  0
 12 15  1  0  0  0  0
 12 16  2  0  0  0  0
 13 21  2  0  0  0  0
 14 26  1  0  0  0  0
 15 22  2  0  0  0  0
 16 23  1  0  0  0  0
 16 25  1  0  0  0  0
 17 19  2  0  0  0  0
 17 25  1  0  0  0  0
 18 19  1  0  0  0  0
 18 23  2  0  0  0  0
 19 20  1  0  0  0  0
 21 24  1  0  0  0  0
 22 25  1  0  0  0  0
 24 27  1  0  0  0  0
M  END

> <original SMILES>

Cc1cnc2c(-c3ccc4cn[nH]c4c3)c(-c3ccc(F)cc3)nn2c1

> <ref_mols>

x0395_0,x0426_0,x0434_0,x0540_0,x0678_0,x0830_0,x1093_0

> <ref_pdb>

receptors/Mpro-x0678-protein.pdb

> <Chemgauss4>

-7.531822

> <binding_free_energy>

-6.673030784081639

> <binding_std_error>

2.257878351261174

$$$$
MAT-GIT-deadff56-2
  -OEChem-05122002103D

 20 21  0     0  0  0  0  0  0999 V2000
    6.5626   -4.6559   21.4375 C   0  0  0  0  0  0  0  0  0  0  0  0
    7.8230   -5.8708   23.1135 C   0  0  0  0  0  0  0  0  0  0  0  0
    8.8836   -6.0005   24.0147 C   0  0  0  0  0  0  0  0  0  0  0  0
   11.4891   -3.5698   24.6624 C   0  0  0  0  0  0  0  0  0  0  0  0
    7.6731   -4.7209   22.3409 C   0  0  0  0  0  0  0  0  0  0  0  0
    9.6601   -3.7706   23.3494 C   0  0  0  0  0  0  0  0  0  0  0  0
   10.7421   -2.9187   23.7079 C   0  0  0  0  0  0  0  0  0  0  0  0
    9.7853   -4.9347   24.1107 C   0  0  0  0  0  0  0  0  0  0  0  0
    8.5830   -3.6627   22.4474 C   0  0  0  0  0  0  0  0  0  0  0  0
   12.7541   -0.5360   25.5352 C   0  0  0  0  0  0  0  0  0  0  0  0
   13.5082   -0.7821   26.7997 C   0  0  0  0  0  0  0  0  0  0  0  0
   11.0595   -1.5721   23.1874 C   0  0  0  0  0  0  0  0  0  0  0  0
   12.5641   -1.2495   23.1609 C   0  0  0  0  0  0  0  0  0  0  0  0
    5.6634   -4.6033   20.7058 N   0  0  0  0  0  0  0  0  0  0  0  0
   10.9044   -4.7850   24.8985 N   0  0  0  0  0  0  0  0  0  0  0  0
   13.1579   -1.3233   24.4688 N   0  0  0  0  0  0  0  0  0  0  0  0
   11.8642    0.3063   25.5166 O   0  0  0  0  0  0  0  0  0  0  0  0
    8.4612   -2.2209   21.5304 Cl  0  0  0  0  0  0  0  0  0  0  0  0
   11.2442   -5.4733   25.5560 H   0  0  0  0  0  0  0  0  0  0  0  0
   13.9145   -1.9889   24.6190 H   0  0  0  0  0  0  0  0  0  0  0  0
  1  5  1  0  0  0  0
  1 14  3  0  0  0  0
  2  3  2  0  0  0  0
  2  5  1  0  0  0  0
  3  8  1  0  0  0  0
  4  7  2  0  0  0  0
  4 15  1  0  0  0  0
  5  9  2  0  0  0  0
  6  7  1  0  0  0  0
  6  8  2  0  0  0  0
  6  9  1  0  0  0  0
  7 12  1  0  0  0  0
  8 15  1  0  0  0  0
  9 18  1  0  0  0  0
 10 11  1  0  0  0  0
 10 16  1  0  0  0  0
 10 17  2  0  0  0  0
 12 13  1  0  0  0  0
 13 16  1  0  0  0  0
 15 19  1  0  0  0  0
 16 20  1  0  0  0  0
M  END

> <original SMILES>

CC(=O)NCCc1c[nH]c2ccc(C#N)c(Cl)c12

> <ref_mols>

x0104_0,x0434_0,x0678_0

> <ref_pdb>

receptors/Mpro-x0678-protein.pdb

> <Chemgauss4>

-7.429149

> <binding_free_energy>

-6.664680744040407

> <binding_std_error>

4.083068254136002

$$$$
WAR-XCH-b72a1bbc-35
  -OEChem-05122002103D

 27 29  0     0  0  0  0  0  0999 V2000
    7.5732   -5.7739   26.4023 C   0  0  0  0  0  0  0  0  0  0  0  0
   10.7586    1.6710   22.8541 C   0  0  0  0  0  0  0  0  0  0  0  0
   13.1002    2.2219   23.0784 C   0  0  0  0  0  0  0  0  0  0  0  0
    8.7666   -5.5313   25.7314 C   0  0  0  0  0  0  0  0  0  0  0  0
   10.4200    2.9933   23.1410 C   0  0  0  0  0  0  0  0  0  0  0  0
   12.7616    3.5443   23.3653 C   0  0  0  0  0  0  0  0  0  0  0  0
    6.4042   -5.7962   25.6588 C   0  0  0  0  0  0  0  0  0  0  0  0
   12.0987    1.2852   22.8229 C   0  0  0  0  0  0  0  0  0  0  0  0
    8.7548   -5.3213   24.3570 C   0  0  0  0  0  0  0  0  0  0  0  0
   11.4214    3.9300   23.3966 C   0  0  0  0  0  0  0  0  0  0  0  0
    7.5330   -5.3641   23.7050 C   0  0  0  0  0  0  0  0  0  0  0  0
   10.7718   -1.8254   22.5334 C   0  0  0  0  0  0  0  0  0  0  0  0
   12.5824   -1.7160   24.2999 C   0  0  0  0  0  0  0  0  0  0  0  0
   11.6118   -0.8810   21.6726 C   0  0  0  0  0  0  0  0  0  0  0  0
   13.3745   -0.7688   23.3923 C   0  0  0  0  0  0  0  0  0  0  0  0
   11.6643   -2.6428   23.4839 C   0  0  0  0  0  0  0  0  0  0  0  0
   10.8174   -3.5168   24.4059 C   0  0  0  0  0  0  0  0  0  0  0  0
    6.3531   -5.5968   24.3227 N   0  0  0  0  0  0  0  0  0  0  0  0
   12.4370   -0.0334   22.5368 N   0  0  0  0  0  0  0  0  0  0  0  0
   10.9880    6.2666   22.1895 N   0  0  0  0  0  0  0  0  0  0  0  0
    9.6428    5.6080   24.2877 O   0  0  0  0  0  0  0  0  0  0  0  0
   12.0844    6.1848   24.5193 O   0  0  0  0  0  0  0  0  0  0  0  0
   10.2920   -5.0168   23.5398 S   0  0  0  0  0  0  0  0  0  0  0  0
   10.9985    5.5852   23.7564 S   0  0  0  0  0  0  0  0  0  0  0  0
    7.3522   -5.1235   22.0074 Cl  0  0  0  0  0  0  0  0  0  0  0  0
   10.0803    6.5175   21.7791 H   0  0  0  0  0  0  0  0  0  0  0  0
   11.7490    6.9093   21.9383 H   0  0  0  0  0  0  0  0  0  0  0  0
  1  4  2  0  0  0  0
  1  7  1  0  0  0  0
  2  5  2  0  0  0  0
  2  8  1  0  0  0  0
  3  6  1  0  0  0  0
  3  8  2  0  0  0  0
  4  9  1  0  0  0  0
  5 10  1  0  0  0  0
  6 10  2  0  0  0  0
  7 18  2  0  0  0  0
  8 19  1  0  0  0  0
  9 11  2  0  0  0  0
  9 23  1  0  0  0  0
 10 24  1  0  0  0  0
 11 18  1  0  0  0  0
 11 25  1  0  0  0  0
 12 14  1  0  0  0  0
 12 16  1  0  0  0  0
 13 15  1  0  0  0  0
 13 16  1  0  0  0  0
 14 19  1  0  0  0  0
 15 19  1  0  0  0  0
 16 17  1  0  0  0  0
 17 23  1  0  0  0  0
 20 24  1  0  0  0  0
 21 24  2  0  0  0  0
 22 24  2  0  0  0  0
 20 26  1  0  0  0  0
 20 27  1  0  0  0  0
M  END

> <original SMILES>

NS(=O)(=O)c1ccc(N2CCC(CSc3cccnc3Cl)CC2)cc1

> <ref_mols>

x0072_0,x0104_0,x0107_0,x0161_0,x0165_0

> <ref_pdb>

receptors/Mpro-x0161-protein.pdb

> <Chemgauss4>

-8.537715

> <binding_free_energy>

-6.66106348187153

> <binding_std_error>

2.4742038618483515

$$$$
DAR-DIA-eace69ff-37
  -OEChem-05122002103D

 16 17  0     0  0  0  0  0  0999 V2000
   14.2289   -0.3752   22.2780 C   0  0  0  0  0  0  0  0  0  0  0  0
   13.1397   -1.1203   22.7387 C   0  0  0  0  0  0  0  0  0  0  0  0
   11.8741    0.9020   23.1921 C   0  0  0  0  0  0  0  0  0  0  0  0
   14.4611    3.2337   22.0826 C   0  0  0  0  0  0  0  0  0  0  0  0
   12.9594    1.6741   22.7324 C   0  0  0  0  0  0  0  0  0  0  0  0
   13.1957    3.0709   22.5975 C   0  0  0  0  0  0  0  0  0  0  0  0
   14.1094    1.0190   22.2868 C   0  0  0  0  0  0  0  0  0  0  0  0
   11.9795   -0.4936   23.1891 C   0  0  0  0  0  0  0  0  0  0  0  0
   11.6376    5.9336   24.5890 C   0  0  0  0  0  0  0  0  0  0  0  0
   12.2590    4.1589   22.9449 C   0  0  0  0  0  0  0  0  0  0  0  0
   15.0042    1.9905   21.8983 N   0  0  0  0  0  0  0  0  0  0  0  0
   12.6083    4.8782   24.2078 N   0  3  0  0  0  0  0  0  0  0  0  0
   10.6585   -1.4466   23.7509 Cl  0  0  0  0  0  0  0  0  0  0  0  0
   15.9283    1.8108   21.5305 H   0  0  0  0  0  0  0  0  0  0  0  0
   13.5418    5.2926   24.1031 H   0  0  0  0  0  0  0  0  0  0  0  0
   12.6841    4.1917   24.9676 H   0  0  0  0  0  0  0  0  0  0  0  0
  1  2  2  0  0  0  0
  1  7  1  0  0  0  0
  2  8  1  0  0  0  0
  3  5  1  0  0  0  0
  3  8  2  0  0  0  0
  4  6  2  0  0  0  0
  4 11  1  0  0  0  0
  5  6  1  0  0  0  0
  5  7  2  0  0  0  0
  6 10  1  0  0  0  0
  7 11  1  0  0  0  0
  8 13  1  0  0  0  0
  9 12  1  0  0  0  0
 10 12  1  0  0  0  0
 11 14  1  0  0  0  0
 12 15  1  0  0  0  0
 12 16  1  0  0  0  0
M  CHG  1  12   1
M  END

> <original SMILES>

CNCc1c[nH]c2ccc(Cl)cc12

> <ref_mols>

x0104_0

> <ref_pdb>

receptors/Mpro-x0104-protein.pdb

> <Chemgauss4>

-7.552733

> <binding_free_energy>

-6.623506747979782

> <binding_std_error>

2.2482383291872883

$$$$
DAR-DIA-842b4336-24
  -OEChem-05122002103D

 20 22  0     0  0  0  0  0  0999 V2000
    4.9657    1.3248   18.8831 C   0  0  0  0  0  0  0  0  0  0  0  0
    5.3948    1.3917   20.2074 C   0  0  0  0  0  0  0  0  0  0  0  0
    7.9872   -2.7431   26.0702 C   0  0  0  0  0  0  0  0  0  0  0  0
    7.4324    0.6961   21.6942 C   0  0  0  0  0  0  0  0  0  0  0  0
    5.7895    0.7188   17.9440 C   0  0  0  0  0  0  0  0  0  0  0  0
    7.8528   -3.9717   26.6785 C   0  0  0  0  0  0  0  0  0  0  0  0
    9.0591   -4.1264   24.5406 C   0  0  0  0  0  0  0  0  0  0  0  0
    6.6467    0.8375   20.5198 C   0  0  0  0  0  0  0  0  0  0  0  0
    8.6859   -2.8325   24.8317 C   0  0  0  0  0  0  0  0  0  0  0  0
    8.5952    0.0457   21.3414 C   0  0  0  0  0  0  0  0  0  0  0  0
    7.3692    0.2603   19.4796 C   0  0  0  0  0  0  0  0  0  0  0  0
    9.6501   -1.7595   22.7668 C   0  0  0  0  0  0  0  0  0  0  0  0
    9.7568   -0.3569   22.1566 C   0  0  0  0  0  0  0  0  0  0  0  0
    7.0022    0.1696   18.1873 N   0  0  0  0  0  0  0  0  0  0  0  0
    8.5463   -0.2134   19.9962 N   0  0  0  0  0  0  0  0  0  0  0  0
    8.9741   -1.7365   23.9841 N   0  0  0  0  0  0  0  0  0  0  0  0
   10.1256   -2.7379   22.1995 O   0  0  0  0  0  0  0  0  0  0  0  0
    8.5673   -5.2261   25.7575 S   0  0  0  0  0  0  0  0  0  0  0  0
    9.2661   -0.6821   19.4634 H   0  0  0  0  0  0  0  0  0  0  0  0
    8.6494   -0.8253   24.3010 H   0  0  0  0  0  0  0  0  0  0  0  0
  1  2  2  0  0  0  0
  1  5  1  0  0  0  0
  2  8  1  0  0  0  0
  3  6  2  0  0  0  0
  3  9  1  0  0  0  0
  4  8  1  0  0  0  0
  4 10  2  0  0  0  0
  5 14  2  0  0  0  0
  6 18  1  0  0  0  0
  7  9  2  0  0  0  0
  7 18  1  0  0  0  0
  8 11  2  0  0  0  0
  9 16  1  0  0  0  0
 10 13  1  0  0  0  0
 10 15  1  0  0  0  0
 11 14  1  0  0  0  0
 11 15  1  0  0  0  0
 12 13  1  0  0  0  0
 12 16  1  0  0  0  0
 12 17  2  0  0  0  0
 15 19  1  0  0  0  0
 16 20  1  0  0  0  0
M  END

> <original SMILES>

O=C(Cc1cc2cccnc2[nH]1)Nc1ccsc1

> <ref_mols>

x0434_0,x0678_0,x1093_0

> <ref_pdb>

receptors/Mpro-x0678_0.pdb

> <Chemgauss4>

-9.859417

> <binding_free_energy>

-6.571259640000022

> <binding_std_error>

2.6260124502328344

$$$$
DAR-DIA-842b4336-15
  -OEChem-05122002103D

 18 19  0     0  0  0  0  0  0999 V2000
   12.7695    1.5811   23.0651 C   0  0  0  0  0  0  0  0  0  0  0  0
    6.5328   -0.2915   19.5112 C   0  0  0  0  0  0  0  0  0  0  0  0
    7.5569   -0.3805   20.4475 C   0  0  0  0  0  0  0  0  0  0  0  0
    5.5773   -1.2948   19.4978 C   0  0  0  0  0  0  0  0  0  0  0  0
   13.0650   -0.8334   22.2711 C   0  0  0  0  0  0  0  0  0  0  0  0
    6.5906   -2.4061   21.2346 C   0  0  0  0  0  0  0  0  0  0  0  0
   12.4705    0.2094   22.9372 C   0  0  0  0  0  0  0  0  0  0  0  0
    7.5936   -1.4549   21.3293 C   0  0  0  0  0  0  0  0  0  0  0  0
   11.3717   -1.5980   23.2566 C   0  0  0  0  0  0  0  0  0  0  0  0
    9.1569   -2.7436   22.8261 C   0  0  0  0  0  0  0  0  0  0  0  0
   10.2483   -2.4188   23.8338 C   0  0  0  0  0  0  0  0  0  0  0  0
   13.0156    2.7103   23.1703 N   0  0  0  0  0  0  0  0  0  0  0  0
    5.5798   -2.3536   20.3384 N   0  0  0  0  0  0  0  0  0  0  0  0
   12.3565   -1.9890   22.4797 N   0  0  0  0  0  0  0  0  0  0  0  0
    8.6070   -1.5711   22.2776 N   0  0  0  0  0  0  0  0  0  0  0  0
    8.8318   -3.8964   22.5606 O   0  0  0  0  0  0  0  0  0  0  0  0
   11.3716   -0.2757   23.5796 O   0  0  0  0  0  0  0  0  0  0  0  0
    9.0036   -0.6871   22.6204 H   0  0  0  0  0  0  0  0  0  0  0  0
  1  7  1  0  0  0  0
  1 12  3  0  0  0  0
  2  3  2  0  0  0  0
  2  4  1  0  0  0  0
  3  8  1  0  0  0  0
  4 13  2  0  0  0  0
  5  7  2  0  0  0  0
  5 14  1  0  0  0  0
  6  8  2  0  0  0  0
  6 13  1  0  0  0  0
  7 17  1  0  0  0  0
  8 15  1  0  0  0  0
  9 11  1  0  0  0  0
  9 14  2  0  0  0  0
  9 17  1  0  0  0  0
 10 11  1  0  0  0  0
 10 15  1  0  0  0  0
 10 16  2  0  0  0  0
 15 18  1  0  0  0  0
M  END

> <original SMILES>

N#Cc1cnc(CC(=O)Nc2cccnc2)o1

> <ref_mols>

x0434_0,x0678_0,x1093_0

> <ref_pdb>

receptors/Mpro-x0434-protein.pdb

> <Chemgauss4>

-5.552619

> <binding_free_energy>

-6.543113219999981

> <binding_std_error>

3.1372642485570132

$$$$
WAR-XCH-b72a1bbc-3
  -OEChem-05122002103D

 17 18  0     0  0  0  0  0  0999 V2000
    9.7156   -2.3627   23.2184 C   0  0  0  0  0  0  0  0  0  0  0  0
   10.1484   -4.3231   24.5624 C   0  0  0  0  0  0  0  0  0  0  0  0
    8.6115   -2.9968   22.6489 C   0  0  0  0  0  0  0  0  0  0  0  0
    9.0442   -4.9573   23.9929 C   0  0  0  0  0  0  0  0  0  0  0  0
   11.7940   -0.9750   24.9764 C   0  0  0  0  0  0  0  0  0  0  0  0
   13.0073   -0.6878   25.5618 C   0  0  0  0  0  0  0  0  0  0  0  0
   12.7091   -3.1008   25.1906 C   0  0  0  0  0  0  0  0  0  0  0  0
   10.4841   -3.0259   24.1751 C   0  0  0  0  0  0  0  0  0  0  0  0
   11.6210   -2.3729   24.7614 C   0  0  0  0  0  0  0  0  0  0  0  0
    8.2758   -4.2941   23.0361 C   0  0  0  0  0  0  0  0  0  0  0  0
    6.3373   -3.8745   21.2554 N   0  0  0  0  0  0  0  0  0  0  0  0
    7.3689   -6.2199   21.5387 O   0  0  0  0  0  0  0  0  0  0  0  0
    5.8925   -5.2944   23.3584 O   0  0  0  0  0  0  0  0  0  0  0  0
   13.9322   -2.0999   25.8498 S   0  0  0  0  0  0  0  0  0  0  0  0
    6.8943   -5.0876   22.3219 S   0  0  0  0  0  0  0  0  0  0  0  0
    6.4709   -4.0206   20.2473 H   0  0  0  0  0  0  0  0  0  0  0  0
    5.4639   -3.3884   21.4922 H   0  0  0  0  0  0  0  0  0  0  0  0
  1  3  2  0  0  0  0
  1  8  1  0  0  0  0
  2  4  1  0  0  0  0
  2  8  2  0  0  0  0
  3 10  1  0  0  0  0
  4 10  2  0  0  0  0
  5  6  2  0  0  0  0
  5  9  1  0  0  0  0
  6 14  1  0  0  0  0
  7  9  2  0  0  0  0
  7 14  1  0  0  0  0
  8  9  1  0  0  0  0
 10 15  1  0  0  0  0
 11 15  1  0  0  0  0
 12 15  2  0  0  0  0
 13 15  2  0  0  0  0
 11 16  1  0  0  0  0
 11 17  1  0  0  0  0
M  END

> <original SMILES>

NS(=O)(=O)c1ccc(-c2ccsc2)cc1

> <ref_mols>

x0072_0,x0104_0,x0107_0,x0161_0,x0165_0

> <ref_pdb>

receptors/Mpro-x0072-protein.pdb

> <Chemgauss4>

-5.893764

> <binding_free_energy>

-6.516528474509791

> <binding_std_error>

2.300812927464949

$$$$
TRY-UNI-1fd04853-8
  -OEChem-05122002103D

 24 26  0     0  0  0  0  0  0999 V2000
   13.5006    1.2970   24.4746 C   0  0  0  0  0  0  0  0  0  0  0  0
    7.1871   -2.2072   21.2092 C   0  0  0  0  0  0  0  0  0  0  0  0
   13.7370   -1.1056   24.8648 C   0  0  0  0  0  0  0  0  0  0  0  0
   11.6656   -0.0015   25.4367 C   0  0  0  0  0  0  0  0  0  0  0  0
    8.0678   -3.0208   21.9197 C   0  0  0  0  0  0  0  0  0  0  0  0
   13.2127   -2.3194   25.3091 C   0  0  0  0  0  0  0  0  0  0  0  0
   11.1413   -1.2153   25.8810 C   0  0  0  0  0  0  0  0  0  0  0  0
    5.9927   -2.7514   20.7565 C   0  0  0  0  0  0  0  0  0  0  0  0
    7.3907   -6.5335   22.6563 C   0  0  0  0  0  0  0  0  0  0  0  0
   12.9634    0.0534   24.9286 C   0  0  0  0  0  0  0  0  0  0  0  0
    7.6942   -4.3565   22.1394 C   0  0  0  0  0  0  0  0  0  0  0  0
   11.9149   -2.3743   25.8172 C   0  0  0  0  0  0  0  0  0  0  0  0
    8.2705   -5.4808   22.7877 C   0  0  0  0  0  0  0  0  0  0  0  0
    6.4672   -4.7705   21.6292 C   0  0  0  0  0  0  0  0  0  0  0  0
    9.7140   -4.5246   24.6261 C   0  0  0  0  0  0  0  0  0  0  0  0
    9.5745   -5.5252   23.4792 C   0  0  0  0  0  0  0  0  0  0  0  0
   11.3500   -3.6811   26.2940 C   0  0  0  0  0  0  0  0  0  0  0  0
   13.9371    2.3070   24.1058 N   0  0  0  0  0  0  0  0  0  0  0  0
    5.5818   -4.0280   20.9382 N   0  0  0  0  0  0  0  0  0  0  0  0
    6.3009   -6.0916   21.9518 N   0  0  0  0  0  0  0  0  0  0  0  0
   10.9792   -4.5424   25.1957 N   0  0  0  0  0  0  0  0  0  0  0  0
    8.7918   -3.7950   24.9813 O   0  0  0  0  0  0  0  0  0  0  0  0
    5.4980   -6.6540   21.7063 H   0  0  0  0  0  0  0  0  0  0  0  0
   11.6719   -5.1866   24.8256 H   0  0  0  0  0  0  0  0  0  0  0  0
  1 10  1  0  0  0  0
  1 18  3  0  0  0  0
  2  5  2  0  0  0  0
  2  8  1  0  0  0  0
  3  6  2  0  0  0  0
  3 10  1  0  0  0  0
  4  7  1  0  0  0  0
  4 10  2  0  0  0  0
  5 11  1  0  0  0  0
  6 12  1  0  0  0  0
  7 12  2  0  0  0  0
  8 19  2  0  0  0  0
  9 13  2  0  0  0  0
  9 20  1  0  0  0  0
 11 13  1  0  0  0  0
 11 14  2  0  0  0  0
 12 17  1  0  0  0  0
 13 16  1  0  0  0  0
 14 19  1  0  0  0  0
 14 20  1  0  0  0  0
 15 16  1  0  0  0  0
 15 21  1  0  0  0  0
 15 22  2  0  0  0  0
 17 21  1  0  0  0  0
 20 23  1  0  0  0  0
 21 24  1  0  0  0  0
M  END

> <original SMILES>

N#Cc1ccc(CNC(=O)Cc2c[nH]c3ncccc23)cc1

> <ref_mols>

x0104_0,x0161_0,x0195_0,x0305_0,x0387_0,x0678_0,x1382_0

> <ref_pdb>

receptors/Mpro-x0161-protein.pdb

> <Chemgauss4>

-8.564989

> <binding_free_energy>

-6.5134456677227845

> <binding_std_error>

3.133467726060049

$$$$
DOU-UNK-b5326f8f-10
  -OEChem-05122002103D

 21 24  0     1  0  0  0  0  0999 V2000
   14.2505    2.1404   22.3073 C   0  0  0  0  0  0  0  0  0  0  0  0
   13.5225    0.9429   22.5861 C   0  0  0  0  0  0  0  0  0  0  0  0
   13.4738    3.2684   22.4541 C   0  0  0  0  0  0  0  0  0  0  0  0
   12.2077    1.2165   22.9151 C   0  0  0  0  0  0  0  0  0  0  0  0
    9.7894   -1.0946   22.0863 C   0  0  0  0  0  0  0  0  0  0  0  0
   13.8394    4.6359   22.2729 C   0  0  0  0  0  0  0  0  0  0  0  0
    8.4894   -1.7652   24.5128 C   0  0  0  0  0  0  0  0  0  0  0  0
    8.3434   -3.1239   23.8865 C   0  0  0  0  0  0  0  0  0  0  0  0
   12.9152   -1.4680   22.3481 C   0  0  0  0  0  0  0  0  0  0  0  0
   14.0535   -0.4534   22.5388 C   0  0  2  0  0  0  0  0  0  0  0  0
   11.1614    0.1984   23.2478 C   0  0  2  0  0  0  0  0  0  0  0  0
   10.5231   -2.0880   22.9328 C   0  0  2  0  0  0  0  0  0  0  0  0
    9.7069   -2.5395   24.1047 C   0  0  0  0  0  0  0  0  0  0  0  0
   11.7309   -1.2364   23.3216 C   0  0  1  0  0  0  0  0  0  0  0  0
   10.1153    0.1531   22.1985 N   0  0  0  0  0  0  0  0  0  0  0  0
   12.8668    5.6278   22.4816 N   0  0  0  0  0  0  0  0  0  0  0  0
   14.9945    4.9849   21.9175 O   0  0  0  0  0  0  0  0  0  0  0  0
   11.8720    2.8893   22.9202 S   0  0  0  0  0  0  0  0  0  0  0  0
   14.9319   -0.7676   24.0644 Cl  0  0  0  0  0  0  0  0  0  0  0  0
   11.9320    5.3451   22.7552 H   0  0  0  0  0  0  0  0  0  0  0  0
   13.0648    6.6168   22.3687 H   0  0  0  0  0  0  0  0  0  0  0  0
  1  2  1  0  0  0  0
  1  3  2  0  0  0  0
  2  4  2  0  0  0  0
  2 10  1  0  0  0  0
  3  6  1  0  0  0  0
  3 18  1  0  0  0  0
  4 11  1  0  0  0  0
  4 18  1  0  0  0  0
  5 12  1  0  0  0  0
  5 15  2  0  0  0  0
  6 16  1  0  0  0  0
  6 17  2  0  0  0  0
  7  8  1  0  0  0  0
  7 13  1  0  0  0  0
  8 13  1  0  0  0  0
  9 10  1  0  0  0  0
  9 14  1  0  0  0  0
 10 19  1  0  0  0  0
 11 14  1  0  0  0  0
 11 15  1  0  0  0  0
 12 13  1  0  0  0  0
 12 14  1  0  0  0  0
 16 20  1  0  0  0  0
 16 21  1  0  0  0  0
M  END

> <original SMILES>

NC(=O)c1cc2c(s1)C1NC=C(C3CC3)C1CC2Cl

> <ref_mols>

x0104_0,x0107_0,x0387_0,x0397_0,x0708_0,x0770_0,x1093_0,x1392_0

> <ref_pdb>

receptors/Mpro-x0104_0.pdb

> <Chemgauss4>

-9.433017

> <binding_free_energy>

-6.500898969023577

> <binding_std_error>

6.106690752387889

$$$$
ALV-UNI-7ff1a6f9-2
  -OEChem-05122002103D

 23 26  0     0  0  0  0  0  0999 V2000
   10.8121   -1.8506   22.4799 C   0  0  0  0  0  0  0  0  0  0  0  0
   11.9956   -0.1764   21.2018 C   0  0  0  0  0  0  0  0  0  0  0  0
   12.0191   -2.2867   23.0263 C   0  0  0  0  0  0  0  0  0  0  0  0
   13.2027   -0.6125   21.7482 C   0  0  0  0  0  0  0  0  0  0  0  0
    9.0464    1.2328   23.8143 C   0  0  0  0  0  0  0  0  0  0  0  0
    7.1723   -0.2730   23.7455 C   0  0  0  0  0  0  0  0  0  0  0  0
    8.7895    1.4050   25.1649 C   0  0  0  0  0  0  0  0  0  0  0  0
    6.9994   -0.0336   25.0992 C   0  0  0  0  0  0  0  0  0  0  0  0
   10.8004   -0.7954   21.5676 C   0  0  0  0  0  0  0  0  0  0  0  0
    8.2178    0.3761   23.0982 C   0  0  0  0  0  0  0  0  0  0  0  0
    8.4402    0.1631   21.6979 C   0  0  0  0  0  0  0  0  0  0  0  0
   13.2144   -1.6677   22.6605 C   0  0  0  0  0  0  0  0  0  0  0  0
    9.5531   -0.3448   21.0028 C   0  0  0  0  0  0  0  0  0  0  0  0
    7.5240    0.4438   20.7139 C   0  0  0  0  0  0  0  0  0  0  0  0
    6.2153    0.9654   20.6701 C   0  0  0  0  0  0  0  0  0  0  0  0
    5.6067    1.1052   19.4861 C   0  0  0  0  0  0  0  0  0  0  0  0
    6.3686    0.6917   18.2698 C   0  0  0  0  0  0  0  0  0  0  0  0
    5.6626    0.8586   16.9496 C   0  0  0  0  0  0  0  0  0  0  0  0
    7.7838    0.7917   25.8282 N   0  0  0  0  0  0  0  0  0  0  0  0
    9.3670   -0.3866   19.6811 N   0  0  0  0  0  0  0  0  0  0  0  0
    7.5760    0.2073   18.2741 N   0  0  0  0  0  0  0  0  0  0  0  0
    8.1177    0.0998   19.5178 N   0  0  0  0  0  0  0  0  0  0  0  0
   14.3734   -2.0867   23.1852 F   0  0  0  0  0  0  0  0  0  0  0  0
  1  3  2  0  0  0  0
  1  9  1  0  0  0  0
  2  4  1  0  0  0  0
  2  9  2  0  0  0  0
  3 12  1  0  0  0  0
  4 12  2  0  0  0  0
  5  7  2  0  0  0  0
  5 10  1  0  0  0  0
  6  8  1  0  0  0  0
  6 10  2  0  0  0  0
  7 19  1  0  0  0  0
  8 19  2  0  0  0  0
  9 13  1  0  0  0  0
 10 11  1  0  0  0  0
 11 13  1  0  0  0  0
 11 14  2  0  0  0  0
 12 23  1  0  0  0  0
 13 20  2  0  0  0  0
 14 15  1  0  0  0  0
 14 22  1  0  0  0  0
 15 16  2  0  0  0  0
 16 17  1  0  0  0  0
 17 18  1  0  0  0  0
 17 21  2  0  0  0  0
 20 22  1  0  0  0  0
 21 22  1  0  0  0  0
M  END

> <original SMILES>

Cc1ccc2c(-c3ccncc3)c(-c3ccc(F)cc3)nn2n1

> <ref_mols>

x0395_0,x0426_0,x0434_0,x0540_0,x0678_0,x0830_0,x1093_0

> <ref_pdb>

receptors/Mpro-x0540-protein.pdb

> <Chemgauss4>

-6.075966

> <binding_free_energy>

-6.46146876000001

> <binding_std_error>

2.2870577556108826

$$$$
SUN-DEP-1496052a-1
  -OEChem-05122002103D

 12 12  0     1  0  0  0  0  0999 V2000
   12.8595    2.9052   22.8982 C   0  0  0  0  0  0  0  0  0  0  0  0
   11.7150    3.0028   23.5963 C   0  0  0  0  0  0  0  0  0  0  0  0
   13.5450    1.6035   22.6016 C   0  0  0  0  0  0  0  0  0  0  0  0
   11.0296    1.7918   24.1777 C   0  0  0  0  0  0  0  0  0  0  0  0
   11.9000    0.5312   24.1769 C   0  0  0  0  0  0  0  0  0  0  0  0
   12.6518    0.3776   22.8509 C   0  0  2  0  0  0  0  0  0  0  0  0
   11.0444    4.3224   23.8398 C   0  0  0  0  0  0  0  0  0  0  0  0
   14.1917   -1.0662   21.4895 C   0  0  0  0  0  0  0  0  0  0  0  0
   12.5985   -2.1245   23.1173 C   0  0  0  0  0  0  0  0  0  0  0  0
   13.4767   -0.9071   22.8300 C   0  0  0  0  0  0  0  0  0  0  0  0
   14.4793   -0.8212   23.8439 O   0  0  0  0  0  0  0  0  0  0  0  0
   14.9812   -1.6488   23.8022 H   0  0  0  0  0  0  0  0  0  0  0  0
  1  2  2  0  0  0  0
  1  3  1  0  0  0  0
  2  4  1  0  0  0  0
  2  7  1  0  0  0  0
  3  6  1  0  0  0  0
  4  5  1  0  0  0  0
  5  6  1  0  0  0  0
  6 10  1  0  0  0  0
  8 10  1  0  0  0  0
  9 10  1  0  0  0  0
 10 11  1  0  0  0  0
 11 12  1  0  0  0  0
M  END

> <original SMILES>

CC1=CCC(C(C)(C)O)CC1

> <ref_mols>

x0072_0,x0104_0,x0107_0

> <ref_pdb>

receptors/Mpro-x0072-protein.pdb

> <Chemgauss4>

-6.045083

> <binding_free_energy>

-6.326018172904947

> <binding_std_error>

3.587522710181045

$$$$
DOU-UNK-b5326f8f-20
  -OEChem-05122002103D

 19 21  0     1  0  0  0  0  0999 V2000
   11.7722   -0.3591   23.4650 C   0  0  0  0  0  0  0  0  0  0  0  0
   10.6765    1.5684   24.2003 C   0  0  0  0  0  0  0  0  0  0  0  0
   10.7122    0.1372   24.1883 C   0  0  0  0  0  0  0  0  0  0  0  0
   11.7283    2.1021   23.4758 C   0  0  0  0  0  0  0  0  0  0  0  0
    9.6409    2.3831   24.8989 C   0  0  0  0  0  0  0  0  0  0  0  0
   12.0388    3.5513   23.2567 C   0  0  0  0  0  0  0  0  0  0  0  0
    7.2435    3.8993   22.3041 C   0  0  0  0  0  0  0  0  0  0  0  0
    8.9100    5.6547   22.9995 C   0  0  0  0  0  0  0  0  0  0  0  0
    8.1246    2.8230   22.9187 C   0  0  0  0  0  0  0  0  0  0  0  0
    8.0461    5.1173   21.8576 C   0  0  2  0  0  0  0  0  0  0  0  0
    9.8322    4.5873   23.6139 C   0  0  2  0  0  0  0  0  0  0  0  0
    9.7268   -0.7377   24.8715 C   0  0  0  0  0  0  0  0  0  0  0  0
   10.9208    4.2921   22.6761 N   0  0  0  0  0  0  0  0  0  0  0  0
    8.9336    3.4242   24.0488 N   0  3  2  0  0  0  0  0  0  0  0  0
    7.1391    6.1268   21.4274 O   0  0  0  0  0  0  0  0  0  0  0  0
   12.7293    0.8886   22.8010 S   0  0  0  0  0  0  0  0  0  0  0  0
   11.2841    5.1736   22.3118 H   0  0  0  0  0  0  0  0  0  0  0  0
    8.2426    3.8413   24.6881 H   0  0  0  0  0  0  0  0  0  0  0  0
    7.6779    6.8848   21.1510 H   0  0  0  0  0  0  0  0  0  0  0  0
  1  3  2  0  0  0  0
  1 16  1  0  0  0  0
  2  3  1  0  0  0  0
  2  4  2  0  0  0  0
  2  5  1  0  0  0  0
  3 12  1  0  0  0  0
  4  6  1  0  0  0  0
  4 16  1  0  0  0  0
  5 14  1  0  0  0  0
  6 13  1  0  0  0  0
  7  9  1  0  0  0  0
  7 10  1  0  0  0  0
  8 10  1  0  0  0  0
  8 11  1  0  0  0  0
  9 14  1  0  0  0  0
 10 15  1  0  0  0  0
 11 13  1  0  0  0  0
 11 14  1  0  0  0  0
 13 17  1  0  0  0  0
 14 18  1  0  0  0  0
 15 19  1  0  0  0  0
M  CHG  1  14   1
M  END

> <original SMILES>

Cc1csc2c1CN1CCC(O)CC1NC2

> <ref_mols>

x0104_0,x0107_0,x0387_0,x0397_0,x0708_0,x0770_0,x1093_0,x1392_0

> <ref_pdb>

receptors/Mpro-x0107_0.pdb

> <Chemgauss4>

-8.316905

> <binding_free_energy>

-6.2033767561615605

> <binding_std_error>

9.08560806111865

$$$$
HAN-NEW-5f56c3bc-1
  -OEChem-05122002103D

 19 20  0     0  0  0  0  0  0999 V2000
   14.5562   -1.7224   23.7409 C   0  0  0  0  0  0  0  0  0  0  0  0
   13.6506   -1.2381   24.6847 C   0  0  0  0  0  0  0  0  0  0  0  0
   14.2068   -1.7535   22.3909 C   0  0  0  0  0  0  0  0  0  0  0  0
   12.3954   -0.7850   24.2786 C   0  0  0  0  0  0  0  0  0  0  0  0
   12.9516   -1.3005   21.9847 C   0  0  0  0  0  0  0  0  0  0  0  0
    8.4266    0.1232   18.8760 C   0  0  0  0  0  0  0  0  0  0  0  0
    6.4151    0.8327   18.0901 C   0  0  0  0  0  0  0  0  0  0  0  0
   12.0459   -0.8162   22.9285 C   0  0  0  0  0  0  0  0  0  0  0  0
    8.0649    0.4344   20.1709 C   0  0  0  0  0  0  0  0  0  0  0  0
    6.8001    0.9639   20.3266 C   0  0  0  0  0  0  0  0  0  0  0  0
   10.2497   -0.3117   21.2145 C   0  0  0  0  0  0  0  0  0  0  0  0
    6.2966    1.3396   21.6822 C   0  0  0  0  0  0  0  0  0  0  0  0
    7.6237    0.3099   17.8080 N   0  0  0  0  0  0  0  0  0  0  0  0
    5.9458    1.1774   19.3044 N   0  0  0  0  0  0  0  0  0  0  0  0
   10.7905   -0.3628   22.5224 N   0  0  0  0  0  0  0  0  0  0  0  0
    8.9493    0.2164   21.2536 N   0  0  0  0  0  0  0  0  0  0  0  0
   10.8370   -0.6769   20.2011 O   0  0  0  0  0  0  0  0  0  0  0  0
   10.1778   -0.0211   23.2705 H   0  0  0  0  0  0  0  0  0  0  0  0
    8.5934    0.4770   22.1699 H   0  0  0  0  0  0  0  0  0  0  0  0
  1  2  1  0  0  0  0
  1  3  2  0  0  0  0
  2  4  2  0  0  0  0
  3  5  1  0  0  0  0
  4  8  1  0  0  0  0
  5  8  2  0  0  0  0
  6  9  1  0  0  0  0
  6 13  2  0  0  0  0
  7 13  1  0  0  0  0
  7 14  2  0  0  0  0
  8 15  1  0  0  0  0
  9 10  2  0  0  0  0
  9 16  1  0  0  0  0
 10 12  1  0  0  0  0
 10 14  1  0  0  0  0
 11 15  1  0  0  0  0
 11 16  1  0  0  0  0
 11 17  2  0  0  0  0
 15 18  1  0  0  0  0
 16 19  1  0  0  0  0
M  END

> <original SMILES>

Cc1ncncc1NC(=O)Nc1ccccc1

> <ref_mols>

x0072_0,x0104_0,x0107_0,x0434_0,x0540_0,x1375_0,x1493_0

> <ref_pdb>

receptors/Mpro-x0434-protein.pdb

> <Chemgauss4>

-4.910699

> <binding_free_energy>

-6.179717874809626

> <binding_std_error>

2.718977528904801

$$$$
ANN-UNI-26382800-6
  -OEChem-05122002103D

 22 23  0     0  0  0  0  0  0999 V2000
    6.4620   -3.2586   20.7862 C   0  0  0  0  0  0  0  0  0  0  0  0
    6.6951   -6.5876   22.4351 C   0  0  0  0  0  0  0  0  0  0  0  0
   14.4077   -2.7710   26.9187 C   0  0  0  0  0  0  0  0  0  0  0  0
    6.2481   -5.5467   21.6214 C   0  0  0  0  0  0  0  0  0  0  0  0
    7.8139   -6.4063   23.2482 C   0  0  0  0  0  0  0  0  0  0  0  0
   13.4020   -3.6407   26.4972 C   0  0  0  0  0  0  0  0  0  0  0  0
   14.4724   -1.4768   26.4024 C   0  0  0  0  0  0  0  0  0  0  0  0
    8.0391   -4.1430   22.4335 C   0  0  0  0  0  0  0  0  0  0  0  0
   12.5256   -1.9221   25.0427 C   0  0  0  0  0  0  0  0  0  0  0  0
    6.9201   -4.3244   21.6205 C   0  0  0  0  0  0  0  0  0  0  0  0
    8.4859   -5.1840   23.2473 C   0  0  0  0  0  0  0  0  0  0  0  0
   12.4609   -3.2163   25.5591 C   0  0  0  0  0  0  0  0  0  0  0  0
   13.5313   -1.0524   25.4643 C   0  0  0  0  0  0  0  0  0  0  0  0
   10.4165   -3.8511   24.2040 C   0  0  0  0  0  0  0  0  0  0  0  0
   12.6008    0.5785   24.0049 C   0  0  0  0  0  0  0  0  0  0  0  0
    6.0899   -2.3930   20.1086 N   0  0  0  0  0  0  0  0  0  0  0  0
    9.6042   -5.0026   24.0615 N   0  0  0  0  0  0  0  0  0  0  0  0
   11.4407   -4.0987   25.1320 N   0  0  0  0  0  0  0  0  0  0  0  0
   10.2444   -2.7961   23.6019 O   0  0  0  0  0  0  0  0  0  0  0  0
   13.5944    0.2104   24.9602 O   0  0  0  0  0  0  0  0  0  0  0  0
    9.8739   -5.8104   24.6328 H   0  0  0  0  0  0  0  0  0  0  0  0
   11.4575   -5.0246   25.5521 H   0  0  0  0  0  0  0  0  0  0  0  0
  1 10  1  0  0  0  0
  1 16  3  0  0  0  0
  2  4  1  0  0  0  0
  2  5  2  0  0  0  0
  3  6  1  0  0  0  0
  3  7  2  0  0  0  0
  4 10  2  0  0  0  0
  5 11  1  0  0  0  0
  6 12  2  0  0  0  0
  7 13  1  0  0  0  0
  8 10  1  0  0  0  0
  8 11  2  0  0  0  0
  9 12  1  0  0  0  0
  9 13  2  0  0  0  0
 11 17  1  0  0  0  0
 12 18  1  0  0  0  0
 13 20  1  0  0  0  0
 14 17  1  0  0  0  0
 14 18  1  0  0  0  0
 14 19  2  0  0  0  0
 15 20  1  0  0  0  0
 17 21  1  0  0  0  0
 18 22  1  0  0  0  0
M  END

> <original SMILES>

COc1cccc(NC(=O)Nc2cccc(C#N)c2)c1

> <ref_mols>

x0104_0,x0305_0,x0434_0,x0678_0,x1093_0,x1249_0

> <ref_pdb>

receptors/Mpro-x0434-protein.pdb

> <Chemgauss4>

-6.088238

> <binding_free_energy>

-6.112884832119278

> <binding_std_error>

2.4259925391157027

$$$$
ANN-UNI-26382800-2
  -OEChem-05122002103D

 15 16  0     0  0  0  0  0  0999 V2000
   11.9937    2.2638   23.3236 C   0  0  0  0  0  0  0  0  0  0  0  0
   12.1265    3.6469   23.3735 C   0  0  0  0  0  0  0  0  0  0  0  0
   14.1931    2.1370   22.4275 C   0  0  0  0  0  0  0  0  0  0  0  0
   13.4506   -0.9362   21.9787 C   0  0  0  0  0  0  0  0  0  0  0  0
   12.2266   -1.8624   23.4164 C   0  0  0  0  0  0  0  0  0  0  0  0
   13.0421    1.4872   22.8429 C   0  0  0  0  0  0  0  0  0  0  0  0
   12.9347    0.0528   22.7788 C   0  0  0  0  0  0  0  0  0  0  0  0
   13.3186    4.2001   22.9346 C   0  0  0  0  0  0  0  0  0  0  0  0
   12.3776    6.4873   24.9662 C   0  0  0  0  0  0  0  0  0  0  0  0
   12.3946    6.4537   23.4759 C   0  0  0  0  0  0  0  0  0  0  0  0
   12.9935   -2.1613   22.3923 N   0  0  0  0  0  0  0  0  0  0  0  0
   14.3590    3.4782   22.4611 N   0  0  0  0  0  0  0  0  0  0  0  0
   13.4389    5.6109   22.9919 N   0  0  0  0  0  0  0  0  0  0  0  0
   12.1396   -0.5371   23.7144 O   0  0  0  0  0  0  0  0  0  0  0  0
   14.3021    6.0000   22.6717 H   0  0  0  0  0  0  0  0  0  0  0  0
  1  2  2  0  0  0  0
  1  6  1  0  0  0  0
  2  8  1  0  0  0  0
  3  6  2  0  0  0  0
  3 12  1  0  0  0  0
  4  7  2  0  0  0  0
  4 11  1  0  0  0  0
  5 11  2  0  0  0  0
  5 14  1  0  0  0  0
  6  7  1  0  0  0  0
  7 14  1  0  0  0  0
  8 12  2  0  0  0  0
  8 13  1  0  0  0  0
  9 10  1  0  0  0  0
 10 13  1  0  0  0  0
 13 15  1  0  0  0  0
M  END

> <original SMILES>

CCNc1ccc(-c2cnco2)cn1

> <ref_mols>

x0104_0,x0305_0,x0434_0,x0678_0,x1093_0,x1249_0

> <ref_pdb>

receptors/Mpro-x0104_0.pdb

> <Chemgauss4>

-6.288998

> <binding_free_energy>

-6.075707748484831

> <binding_std_error>

4.2134664388906735

$$$$
WAR-XCH-b72a1bbc-40
  -OEChem-05122002103D

 26 28  0     0  0  0  0  0  0999 V2000
   12.9800    1.7770   22.8615 C   0  0  0  0  0  0  0  0  0  0  0  0
   10.9982    1.7224   24.2423 C   0  0  0  0  0  0  0  0  0  0  0  0
   12.9670    3.1712   22.8979 C   0  0  0  0  0  0  0  0  0  0  0  0
   10.9852    3.1167   24.2788 C   0  0  0  0  0  0  0  0  0  0  0  0
    5.5346   -3.6651   24.0608 C   0  0  0  0  0  0  0  0  0  0  0  0
    4.2733   -4.1997   23.6691 C   0  0  0  0  0  0  0  0  0  0  0  0
   11.9956    1.0525   23.5337 C   0  0  0  0  0  0  0  0  0  0  0  0
   11.9697    3.8411   23.6065 C   0  0  0  0  0  0  0  0  0  0  0  0
    6.5583   -4.5692   23.8809 C   0  0  0  0  0  0  0  0  0  0  0  0
    4.3811   -5.4922   23.2044 C   0  0  0  0  0  0  0  0  0  0  0  0
   10.4830   -1.6098   22.0691 C   0  0  0  0  0  0  0  0  0  0  0  0
   10.2638   -1.6503   24.5912 C   0  0  0  0  0  0  0  0  0  0  0  0
   11.9096   -1.0873   22.2426 C   0  0  0  0  0  0  0  0  0  0  0  0
   11.6980   -1.1214   24.6984 C   0  0  0  0  0  0  0  0  0  0  0  0
   10.0503   -2.4419   23.2891 C   0  0  0  0  0  0  0  0  0  0  0  0
    8.5952   -2.8847   23.1554 C   0  0  0  0  0  0  0  0  0  0  0  0
   12.0081   -0.3380   23.4977 N   0  0  0  0  0  0  0  0  0  0  0  0
   10.9893    5.9382   22.2852 N   0  0  0  0  0  0  0  0  0  0  0  0
   11.2392    6.0076   24.8500 O   0  0  0  0  0  0  0  0  0  0  0  0
   13.3043    6.0691   23.4080 O   0  0  0  0  0  0  0  0  0  0  0  0
    5.9976   -6.0557   23.2419 S   0  0  0  0  0  0  0  0  0  0  0  0
    8.2652   -4.2917   24.2452 S   0  0  0  0  0  0  0  0  0  0  0  0
   11.9522    5.5864   23.6521 S   0  0  0  0  0  0  0  0  0  0  0  0
    3.1272   -6.5112   22.6333 Cl  0  0  0  0  0  0  0  0  0  0  0  0
   10.0402    6.2979   22.4439 H   0  0  0  0  0  0  0  0  0  0  0  0
   11.4520    6.3378   21.4596 H   0  0  0  0  0  0  0  0  0  0  0  0
  1  3  2  0  0  0  0
  1  7  1  0  0  0  0
  2  4  1  0  0  0  0
  2  7  2  0  0  0  0
  3  8  1  0  0  0  0
  4  8  2  0  0  0  0
  5  6  1  0  0  0  0
  5  9  2  0  0  0  0
  6 10  2  0  0  0  0
  7 17  1  0  0  0  0
  8 23  1  0  0  0  0
  9 21  1  0  0  0  0
  9 22  1  0  0  0  0
 10 21  1  0  0  0  0
 10 24  1  0  0  0  0
 11 13  1  0  0  0  0
 11 15  1  0  0  0  0
 12 14  1  0  0  0  0
 12 15  1  0  0  0  0
 13 17  1  0  0  0  0
 14 17  1  0  0  0  0
 15 16  1  0  0  0  0
 16 22  1  0  0  0  0
 18 23  1  0  0  0  0
 19 23  2  0  0  0  0
 20 23  2  0  0  0  0
 18 25  1  0  0  0  0
 18 26  1  0  0  0  0
M  END

> <original SMILES>

NS(=O)(=O)c1ccc(N2CCC(CSc3ccc(Cl)s3)CC2)cc1

> <ref_mols>

x0072_0,x0104_0,x0107_0,x0161_0,x0165_0

> <ref_pdb>

receptors/Mpro-x0072-protein.pdb

> <Chemgauss4>

-5.887928

> <binding_free_energy>

-6.043929481616164

> <binding_std_error>

2.4623343666697384

$$$$
GIA-UNK-995df016-4
  -OEChem-05122002103D

 17 18  0     0  0  0  0  0  0999 V2000
   12.0605   -0.0342   24.0307 C   0  0  0  0  0  0  0  0  0  0  0  0
    8.2002    0.0459   20.6914 C   0  0  0  0  0  0  0  0  0  0  0  0
   14.8259   -2.1732   23.5874 C   0  0  0  0  0  0  0  0  0  0  0  0
   14.4873   -0.9655   24.4809 C   0  0  0  0  0  0  0  0  0  0  0  0
   13.3718   -2.1175   23.0830 C   0  0  0  0  0  0  0  0  0  0  0  0
   10.1164   -1.3866   21.3748 C   0  0  0  0  0  0  0  0  0  0  0  0
    8.5757   -0.3791   23.1282 C   0  0  0  0  0  0  0  0  0  0  0  0
   11.1585   -0.3332   21.7465 C   0  0  0  0  0  0  0  0  0  0  0  0
    9.6742    0.6323   23.4587 C   0  0  0  0  0  0  0  0  0  0  0  0
   13.3618   -0.6157   23.4722 C   0  0  0  0  0  0  0  0  0  0  0  0
    8.6882   -0.9441   21.7085 C   0  0  0  0  0  0  0  0  0  0  0  0
    6.4150    0.4822   18.6555 C   0  0  0  0  0  0  0  0  0  0  0  0
   10.9969    0.0878   23.1375 N   0  0  0  0  0  0  0  0  0  0  0  0
   12.0088    0.2962   25.2182 O   0  0  0  0  0  0  0  0  0  0  0  0
    8.9381    0.8480   20.1318 O   0  0  0  0  0  0  0  0  0  0  0  0
    7.1792   -0.3475   17.8961 F   0  0  0  0  0  0  0  0  0  0  0  0
    6.4682   -0.0561   20.3769 S   0  0  0  0  0  0  0  0  0  0  0  0
  1 10  1  0  0  0  0
  1 13  1  0  0  0  0
  1 14  2  0  0  0  0
  2 11  1  0  0  0  0
  2 15  2  0  0  0  0
  2 17  1  0  0  0  0
  3  4  1  0  0  0  0
  3  5  1  0  0  0  0
  4 10  1  0  0  0  0
  5 10  1  0  0  0  0
  6  8  1  0  0  0  0
  6 11  1  0  0  0  0
  7  9  1  0  0  0  0
  7 11  1  0  0  0  0
  8 13  1  0  0  0  0
  9 13  1  0  0  0  0
 12 16  1  0  0  0  0
 12 17  1  0  0  0  0
M  END

> <original SMILES>

O=C(SCF)C1CCN(C(=O)C2CCC2)CC1

> <ref_mols>

x1334_0

> <ref_pdb>

receptors/protein-0387.pdb

> <Chemgauss4>

-4.58378314971924

> <binding_free_energy>

-6.012627839999951

> <binding_std_error>

2.3956622719682548

$$$$
GUZ-UNI-cc80d5b0-1
  -OEChem-05122002103D

 23 25  0     0  0  0  0  0  0999 V2000
    4.0858   -6.6026   28.1053 C   0  0  0  0  0  0  0  0  0  0  0  0
   12.1516    5.5399   23.7412 C   0  0  0  0  0  0  0  0  0  0  0  0
    4.4318   -5.5207   27.2608 C   0  0  0  0  0  0  0  0  0  0  0  0
   11.4965    4.3063   23.9697 C   0  0  0  0  0  0  0  0  0  0  0  0
    5.2028   -7.4018   28.1792 C   0  0  0  0  0  0  0  0  0  0  0  0
   13.0940    5.2976   22.7690 C   0  0  0  0  0  0  0  0  0  0  0  0
    5.7357   -5.7359   26.8792 C   0  0  0  0  0  0  0  0  0  0  0  0
   12.0850    3.3982   23.1206 C   0  0  0  0  0  0  0  0  0  0  0  0
    9.3708   -2.1859   23.8516 C   0  0  0  0  0  0  0  0  0  0  0  0
    8.5337   -2.9574   24.8218 C   0  0  0  0  0  0  0  0  0  0  0  0
    9.5554   -0.7305   24.1441 C   0  0  0  0  0  0  0  0  0  0  0  0
    6.5581   -4.8911   25.9957 C   0  0  0  0  0  0  0  0  0  0  0  0
   11.7587    1.9687   22.9775 C   0  0  0  0  0  0  0  0  0  0  0  0
    8.5803   -4.2965   24.7573 C   0  0  0  0  0  0  0  0  0  0  0  0
   10.5140   -0.0769   23.4710 C   0  0  0  0  0  0  0  0  0  0  0  0
    7.8231   -5.1580   25.6343 C   0  0  0  0  0  0  0  0  0  0  0  0
   10.7959    1.3268   23.6581 C   0  0  0  0  0  0  0  0  0  0  0  0
    7.6984   -2.2376   25.8392 C   0  0  0  0  0  0  0  0  0  0  0  0
    8.7036   -0.0523   25.1761 C   0  0  0  0  0  0  0  0  0  0  0  0
    8.3856   -0.9760   26.3440 C   0  0  0  0  0  0  0  0  0  0  0  0
    9.8812   -2.7189   22.8701 O   0  0  0  0  0  0  0  0  0  0  0  0
    6.2130   -6.8804   27.4347 O   0  0  0  0  0  0  0  0  0  0  0  0
   13.0597    3.9945   22.3852 O   0  0  0  0  0  0  0  0  0  0  0  0
  1  3  1  0  0  0  0
  1  5  2  0  0  0  0
  2  4  1  0  0  0  0
  2  6  2  0  0  0  0
  3  7  2  0  0  0  0
  4  8  2  0  0  0  0
  5 22  1  0  0  0  0
  6 23  1  0  0  0  0
  7 12  1  0  0  0  0
  7 22  1  0  0  0  0
  8 13  1  0  0  0  0
  8 23  1  0  0  0  0
  9 10  1  0  0  0  0
  9 11  1  0  0  0  0
  9 21  2  0  0  0  0
 10 14  2  0  0  0  0
 10 18  1  0  0  0  0
 11 15  2  0  0  0  0
 11 19  1  0  0  0  0
 12 16  2  0  0  0  0
 13 17  2  0  0  0  0
 14 16  1  0  0  0  0
 15 17  1  0  0  0  0
 18 20  1  0  0  0  0
 19 20  1  0  0  0  0
M  END

> <original SMILES>

O=C1/C(=C/C=C/c2ccco2)CCC/C1=C\C=C\c1ccco1

> <ref_mols>

x0104_0

> <ref_pdb>

receptors/Mpro-x0104_0.pdb

> <Chemgauss4>

-7.524545

> <binding_free_energy>

-5.864373031313143

> <binding_std_error>

5.079530491016519

$$$$
JOH-MEM-5e386bbd-1
  -OEChem-05122002103D

 20 21  0     1  0  0  0  0  0999 V2000
   14.1009   -1.0759   23.1808 C   0  0  0  0  0  0  0  0  0  0  0  0
   13.4084   -2.2550   23.4613 C   0  0  0  0  0  0  0  0  0  0  0  0
   11.2735   -1.0727   23.4317 C   0  0  0  0  0  0  0  0  0  0  0  0
   11.9659    0.0923   23.1581 C   0  0  0  0  0  0  0  0  0  0  0  0
   13.3535    0.0755   23.0341 C   0  0  0  0  0  0  0  0  0  0  0  0
   12.0068   -2.2538   23.5854 C   0  0  0  0  0  0  0  0  0  0  0  0
   12.7634    2.2742   22.6903 C   0  0  0  0  0  0  0  0  0  0  0  0
   11.0302    5.3549   23.8682 C   0  0  0  0  0  0  0  0  0  0  0  0
   11.4596    1.4883   22.9317 C   0  0  2  0  0  0  0  0  0  0  0  0
   11.7404    6.3794   23.0471 C   0  0  0  0  0  0  0  0  0  0  0  0
    9.9362   -3.3580   23.9718 C   0  0  0  0  0  0  0  0  0  0  0  0
   10.6937    2.0554   24.1148 C   0  0  0  0  0  0  0  0  0  0  0  0
    9.7777    3.2116   23.7277 C   0  0  0  0  0  0  0  0  0  0  0  0
   13.8175    1.3567   22.7587 N   0  0  0  0  0  0  0  0  0  0  0  0
   10.4980    4.3047   23.1358 N   0  0  0  0  0  0  0  0  0  0  0  0
   12.8422    3.4750   22.4795 O   0  0  0  0  0  0  0  0  0  0  0  0
   10.9638    5.4949   25.0838 O   0  0  0  0  0  0  0  0  0  0  0  0
   11.3560   -3.4204   23.8574 O   0  0  0  0  0  0  0  0  0  0  0  0
   14.7969    1.5852   22.6351 H   0  0  0  0  0  0  0  0  0  0  0  0
   10.6245    4.3084   22.1241 H   0  0  0  0  0  0  0  0  0  0  0  0
  1  2  2  0  0  0  0
  1  5  1  0  0  0  0
  2  6  1  0  0  0  0
  3  4  1  0  0  0  0
  3  6  2  0  0  0  0
  4  5  2  0  0  0  0
  4  9  1  0  0  0  0
  5 14  1  0  0  0  0
  6 18  1  0  0  0  0
  7  9  1  0  0  0  0
  7 14  1  0  0  0  0
  7 16  2  0  0  0  0
  8 10  1  0  0  0  0
  8 15  1  0  0  0  0
  8 17  2  0  0  0  0
  9 12  1  0  0  0  0
 11 18  1  0  0  0  0
 12 13  1  0  0  0  0
 13 15  1  0  0  0  0
 14 19  1  0  0  0  0
 15 20  1  0  0  0  0
M  END

> <original SMILES>

COc1ccc2c(c1)C(CCNC(C)=O)C(=O)N2

> <ref_mols>

x0104_0

> <ref_pdb>

receptors/protein-0387.pdb

> <Chemgauss4>

-5.25706958770752

> <binding_free_energy>

-5.80798028538463

> <binding_std_error>

3.2068802216930226

$$$$
NIM-UNI-534877e5-1
  -OEChem-05122002103D

 21 23  0     0  0  0  0  0  0999 V2000
   13.3080    0.1995   23.5153 C   0  0  0  0  0  0  0  0  0  0  0  0
    5.6789    0.8633   19.2522 C   0  0  0  0  0  0  0  0  0  0  0  0
   11.9895   -0.0614   23.1425 C   0  0  0  0  0  0  0  0  0  0  0  0
    6.3506    0.1562   20.2432 C   0  0  0  0  0  0  0  0  0  0  0  0
   14.2655   -0.8125   23.4466 C   0  0  0  0  0  0  0  0  0  0  0  0
   12.5859   -2.3464   22.6323 C   0  0  0  0  0  0  0  0  0  0  0  0
    6.2212    0.8667   17.9772 C   0  0  0  0  0  0  0  0  0  0  0  0
    7.9868   -0.4516   18.6277 C   0  0  0  0  0  0  0  0  0  0  0  0
   11.6284   -1.3343   22.7010 C   0  0  0  0  0  0  0  0  0  0  0  0
    7.5274   -0.5165   19.9333 C   0  0  0  0  0  0  0  0  0  0  0  0
   13.9044   -2.0855   23.0051 C   0  0  0  0  0  0  0  0  0  0  0  0
    9.5163   -2.5459   22.9404 C   0  0  0  0  0  0  0  0  0  0  0  0
   10.2358   -1.6091   22.3084 C   0  0  0  0  0  0  0  0  0  0  0  0
    9.5679   -0.8573   21.2033 C   0  0  0  0  0  0  0  0  0  0  0  0
    7.6549   -2.2923   21.6615 C   0  0  0  0  0  0  0  0  0  0  0  0
    6.2780   -2.8004   21.2846 C   0  0  0  0  0  0  0  0  0  0  0  0
    7.3618    0.2252   17.6381 N   0  0  0  0  0  0  0  0  0  0  0  0
    8.2364   -2.9115   22.6430 N   0  0  0  0  0  0  0  0  0  0  0  0
    8.2442   -1.2556   20.9356 N   0  0  0  0  0  0  0  0  0  0  0  0
   10.1669    0.0694   20.6577 O   0  0  0  0  0  0  0  0  0  0  0  0
   15.2025   -3.4562   22.9133 Br  0  0  0  0  0  0  0  0  0  0  0  0
  1  3  2  0  0  0  0
  1  5  1  0  0  0  0
  2  4  2  0  0  0  0
  2  7  1  0  0  0  0
  3  9  1  0  0  0  0
  4 10  1  0  0  0  0
  5 11  2  0  0  0  0
  6  9  2  0  0  0  0
  6 11  1  0  0  0  0
  7 17  2  0  0  0  0
  8 10  2  0  0  0  0
  8 17  1  0  0  0  0
  9 13  1  0  0  0  0
 10 19  1  0  0  0  0
 11 21  1  0  0  0  0
 12 13  2  0  0  0  0
 12 18  1  0  0  0  0
 13 14  1  0  0  0  0
 14 19  1  0  0  0  0
 14 20  2  0  0  0  0
 15 16  1  0  0  0  0
 15 18  2  0  0  0  0
 15 19  1  0  0  0  0
M  END

> <original SMILES>

C=C1NC=C(c2cccc(Br)c2)C(=O)N1c1cccnc1

> <ref_mols>

x0434_0,x0770_0,x0786_0

> <ref_pdb>

receptors/Mpro-x0770-protein.pdb

> <Chemgauss4>

-4.326664

> <binding_free_energy>

-5.788458618039233

> <binding_std_error>

2.340790352603744

$$$$
TRY-UNI-714a760b-18
  -OEChem-05122002103D

 20 21  0     1  0  0  0  0  0999 V2000
   11.6178    0.0964   24.6585 C   0  0  0  0  0  0  0  0  0  0  0  0
   10.4125   -0.5524   24.3904 C   0  0  0  0  0  0  0  0  0  0  0  0
   12.7695   -0.2519   23.9528 C   0  0  0  0  0  0  0  0  0  0  0  0
    5.4234    0.8687   19.3288 C   0  0  0  0  0  0  0  0  0  0  0  0
   11.5106   -1.8980   22.7108 C   0  0  0  0  0  0  0  0  0  0  0  0
    6.0834    0.6341   18.1333 C   0  0  0  0  0  0  0  0  0  0  0  0
    7.7644   -0.5255   19.1856 C   0  0  0  0  0  0  0  0  0  0  0  0
   10.3589   -1.5496   23.4165 C   0  0  0  0  0  0  0  0  0  0  0  0
    5.9905    0.3664   20.4947 C   0  0  0  0  0  0  0  0  0  0  0  0
    7.1833   -0.3451   20.4304 C   0  0  0  0  0  0  0  0  0  0  0  0
   12.7159   -1.2491   22.9790 C   0  0  0  0  0  0  0  0  0  0  0  0
    8.5960   -2.0151   21.6806 C   0  0  0  0  0  0  0  0  0  0  0  0
    5.3005    0.6051   21.7976 C   0  0  0  0  0  0  0  0  0  0  0  0
    9.1476   -3.7515   23.4388 C   0  0  0  0  0  0  0  0  0  0  0  0
    9.0701   -2.2438   23.1312 C   0  0  1  0  0  0  0  0  0  0  0  0
    7.2434   -0.0525   18.0313 N   0  0  0  0  0  0  0  0  0  0  0  0
    7.7994   -0.8763   21.5883 N   0  0  0  0  0  0  0  0  0  0  0  0
    8.9307   -2.7606   20.7644 O   0  0  0  0  0  0  0  0  0  0  0  0
   14.1374   -1.6792   22.1094 Cl  0  0  0  0  0  0  0  0  0  0  0  0
    7.6348   -0.3525   22.4453 H   0  0  0  0  0  0  0  0  0  0  0  0
  1  2  2  0  0  0  0
  1  3  1  0  0  0  0
  2  8  1  0  0  0  0
  3 11  2  0  0  0  0
  4  6  2  0  0  0  0
  4  9  1  0  0  0  0
  5  8  2  0  0  0  0
  5 11  1  0  0  0  0
  6 16  1  0  0  0  0
  7 10  1  0  0  0  0
  7 16  2  0  0  0  0
  8 15  1  0  0  0  0
  9 10  2  0  0  0  0
  9 13  1  0  0  0  0
 10 17  1  0  0  0  0
 11 19  1  0  0  0  0
 12 15  1  0  0  0  0
 12 17  1  0  0  0  0
 12 18  2  0  0  0  0
 14 15  1  0  0  0  0
 17 20  1  0  0  0  0
M  END

> <original SMILES>

Cc1ccncc1NC(=O)C(C)c1cccc(Cl)c1

> <ref_mols>

x0107_0,x0434_0,x0678_0,x0748_0,x0995_0,x1382_0

> <ref_pdb>

receptors/Mpro-x0678-protein.pdb

> <Chemgauss4>

-11.149205

> <binding_free_energy>

-5.737988561993717

> <binding_std_error>

4.515332429252983

$$$$
JOH-MEM-5e386bbd-6
  -OEChem-05122002103D

 20 22  0     0  0  0  0  0  0999 V2000
   11.3255   -3.6171   25.0026 C   0  0  0  0  0  0  0  0  0  0  0  0
   10.0387   -1.1525   24.4414 C   0  0  0  0  0  0  0  0  0  0  0  0
   10.1728   -3.5959   24.1959 C   0  0  0  0  0  0  0  0  0  0  0  0
    9.4096   -4.5669   23.5256 C   0  0  0  0  0  0  0  0  0  0  0  0
    9.5486   -2.3595   23.9294 C   0  0  0  0  0  0  0  0  0  0  0  0
   11.8190   -2.4129   25.5171 C   0  0  0  0  0  0  0  0  0  0  0  0
   11.1852   -1.2027   25.2400 C   0  0  0  0  0  0  0  0  0  0  0  0
    8.3851   -3.9275   22.8953 C   0  0  0  0  0  0  0  0  0  0  0  0
    6.4636   -4.3376   21.4895 C   0  0  0  0  0  0  0  0  0  0  0  0
    9.3589   -6.0303   23.2869 C   0  0  0  0  0  0  0  0  0  0  0  0
    8.0849   -6.1687   22.3723 C   0  0  0  0  0  0  0  0  0  0  0  0
    5.8140   -3.0978   22.0513 C   0  0  0  0  0  0  0  0  0  0  0  0
   14.1919   -2.3085   25.6354 C   0  0  0  0  0  0  0  0  0  0  0  0
    8.4436   -2.5985   23.1208 N   0  0  0  0  0  0  0  0  0  0  0  0
    7.5617   -4.7745   22.1994 N   0  0  0  0  0  0  0  0  0  0  0  0
    6.0070   -4.8717   20.4783 O   0  0  0  0  0  0  0  0  0  0  0  0
   11.6811   -0.0378   25.7505 O   0  0  0  0  0  0  0  0  0  0  0  0
   12.9371   -2.4394   26.2985 O   0  0  0  0  0  0  0  0  0  0  0  0
    7.8061   -1.8940   22.7745 H   0  0  0  0  0  0  0  0  0  0  0  0
   11.1318    0.7091   25.4684 H   0  0  0  0  0  0  0  0  0  0  0  0
  1  3  2  0  0  0  0
  1  6  1  0  0  0  0
  2  5  2  0  0  0  0
  2  7  1  0  0  0  0
  3  4  1  0  0  0  0
  3  5  1  0  0  0  0
  4  8  2  0  0  0  0
  4 10  1  0  0  0  0
  5 14  1  0  0  0  0
  6  7  2  0  0  0  0
  6 18  1  0  0  0  0
  7 17  1  0  0  0  0
  8 14  1  0  0  0  0
  8 15  1  0  0  0  0
  9 12  1  0  0  0  0
  9 15  1  0  0  0  0
  9 16  2  0  0  0  0
 10 11  1  0  0  0  0
 11 15  1  0  0  0  0
 13 18  1  0  0  0  0
 14 19  1  0  0  0  0
 17 20  1  0  0  0  0
M  END

> <original SMILES>

COc1cc2c3c([nH]c2cc1O)N(C(C)=O)CC3

> <ref_mols>

x0104_0

> <ref_pdb>

receptors/protein-0387.pdb

> <Chemgauss4>

-6.77653551101685

> <binding_free_energy>

-5.728015836931008

> <binding_std_error>

2.34121855283872

$$$$
JOH-MSK-ec639444-4
  -OEChem-05122002103D

 19 21  0     1  0  0  0  0  0999 V2000
   10.0954    0.9709   24.7710 C   0  0  0  0  0  0  0  0  0  0  0  0
   10.9084    1.8320   24.0149 C   0  0  0  0  0  0  0  0  0  0  0  0
   10.2229   -0.4142   24.6510 C   0  0  0  0  0  0  0  0  0  0  0  0
   11.8578    1.3188   23.1270 C   0  0  0  0  0  0  0  0  0  0  0  0
   11.9808   -0.0546   23.0258 C   0  0  0  0  0  0  0  0  0  0  0  0
   11.1764   -0.8985   23.7769 C   0  0  0  0  0  0  0  0  0  0  0  0
   12.1426    5.8040   23.9814 C   0  0  0  0  0  0  0  0  0  0  0  0
   12.8436   -0.8622   22.1366 C   0  0  0  0  0  0  0  0  0  0  0  0
   14.2212    2.1368   22.3387 C   0  0  0  0  0  0  0  0  0  0  0  0
   12.6541   -2.2295   22.7952 C   0  0  0  0  0  0  0  0  0  0  0  0
   12.7126    2.2504   22.2998 C   0  0  2  0  0  0  0  0  0  0  0  0
   13.5490    3.3139   22.9805 C   0  0  2  0  0  0  0  0  0  0  0  0
   13.1448    6.8558   26.0472 C   0  0  0  0  0  0  0  0  0  0  0  0
   12.1127    6.9793   24.9410 C   0  0  0  0  0  0  0  0  0  0  0  0
   13.6704    4.6694   22.3746 C   0  0  0  0  0  0  0  0  0  0  0  0
   13.3699    5.6960   23.3343 N   0  0  0  0  0  0  0  0  0  0  0  0
   11.1883    5.0497   23.8131 O   0  0  0  0  0  0  0  0  0  0  0  0
   11.4148   -2.2290   23.5430 O   0  0  0  0  0  0  0  0  0  0  0  0
   14.0932    6.3806   23.5524 H   0  0  0  0  0  0  0  0  0  0  0  0
  1  2  2  0  0  0  0
  1  3  1  0  0  0  0
  2  4  1  0  0  0  0
  3  6  2  0  0  0  0
  4  5  2  0  0  0  0
  4 11  1  0  0  0  0
  5  6  1  0  0  0  0
  5  8  1  0  0  0  0
  6 18  1  0  0  0  0
  7 14  1  0  0  0  0
  7 16  1  0  0  0  0
  7 17  2  0  0  0  0
  8 10  1  0  0  0  0
  9 11  1  0  0  0  0
  9 12  1  0  0  0  0
 10 18  1  0  0  0  0
 11 12  1  0  0  0  0
 12 15  1  0  0  0  0
 13 14  1  0  0  0  0
 15 16  1  0  0  0  0
 16 19  1  0  0  0  0
M  END

> <original SMILES>

CCC(=O)NC[C@@H]1C[C@H]1c1cccc2c1CCO2

> <ref_mols>

x0104_0

> <ref_pdb>

receptors/protein-0387.pdb

> <Chemgauss4>

-4.76919651031494

> <binding_free_energy>

-5.697594868243968

> <binding_std_error>

2.876424417806036

$$$$
ANT-DIA-b7f58f21-3
  -OEChem-05122002103D

 16 16  0     0  0  0  0  0  0999 V2000
   14.1734   -1.1905   22.1614 C   0  0  0  0  0  0  0  0  0  0  0  0
   13.2525   -2.0120   22.8116 C   0  0  0  0  0  0  0  0  0  0  0  0
   14.0406    0.1964   22.2292 C   0  0  0  0  0  0  0  0  0  0  0  0
   12.1986   -1.4466   23.5294 C   0  0  0  0  0  0  0  0  0  0  0  0
   12.9867    0.7618   22.9471 C   0  0  0  0  0  0  0  0  0  0  0  0
   12.0657   -0.0597   23.5972 C   0  0  0  0  0  0  0  0  0  0  0  0
   10.6842    6.5550   23.6362 C   0  0  0  0  0  0  0  0  0  0  0  0
   12.8586    2.2641   23.0092 C   0  0  0  0  0  0  0  0  0  0  0  0
   11.5274    2.7714   22.4601 C   0  0  0  0  0  0  0  0  0  0  0  0
   11.4223    4.2410   22.5002 N   0  0  0  0  0  0  0  0  0  0  0  0
   12.9347    5.3764   24.2660 O   0  0  0  0  0  0  0  0  0  0  0  0
   10.7594    4.3196   24.9788 O   0  0  0  0  0  0  0  0  0  0  0  0
   11.0302    0.4764   24.3019 O   0  0  0  0  0  0  0  0  0  0  0  0
   11.5484    5.0444   24.0013 S   0  0  0  0  0  0  0  0  0  0  0  0
   11.8365    4.7114   21.6849 H   0  0  0  0  0  0  0  0  0  0  0  0
   10.4874   -0.2286   24.6883 H   0  0  0  0  0  0  0  0  0  0  0  0
  1  2  1  0  0  0  0
  1  3  2  0  0  0  0
  2  4  2  0  0  0  0
  3  5  1  0  0  0  0
  4  6  1  0  0  0  0
  5  6  2  0  0  0  0
  5  8  1  0  0  0  0
  6 13  1  0  0  0  0
  7 14  1  0  0  0  0
  8  9  1  0  0  0  0
  9 10  1  0  0  0  0
 10 14  1  0  0  0  0
 11 14  2  0  0  0  0
 12 14  2  0  0  0  0
 10 15  1  0  0  0  0
 13 16  1  0  0  0  0
M  END

> <original SMILES>

CS(=O)(=O)NCCc1ccccc1O

> <ref_mols>

x0072_0,x0305_0,x0387_0

> <ref_pdb>

receptors/protein-0387.pdb

> <Chemgauss4>

-4.78243064880371

> <binding_free_energy>

-5.6507000000000005

> <binding_std_error>

2.3705022996023084

$$$$
ANT-DIA-3c79be55-1
  -OEChem-05122002103D

 23 25  0     0  0  0  0  0  0999 V2000
    8.5635    1.3229   21.0873 C   0  0  0  0  0  0  0  0  0  0  0  0
    6.3008    0.3276   18.3141 C   0  0  0  0  0  0  0  0  0  0  0  0
    6.0577   -1.0116   18.6189 C   0  0  0  0  0  0  0  0  0  0  0  0
   12.5614   -0.6449   22.2924 C   0  0  0  0  0  0  0  0  0  0  0  0
    7.1303    1.0905   19.1360 C   0  0  0  0  0  0  0  0  0  0  0  0
   11.4677   -1.4973   22.4329 C   0  0  0  0  0  0  0  0  0  0  0  0
    6.6440   -1.5880   19.7457 C   0  0  0  0  0  0  0  0  0  0  0  0
   12.7120    0.4019   23.1919 C   0  0  0  0  0  0  0  0  0  0  0  0
    8.9618   -1.1161   25.0625 C   0  0  0  0  0  0  0  0  0  0  0  0
    7.7166    0.5142   20.2628 C   0  0  0  0  0  0  0  0  0  0  0  0
   10.5722   -1.2471   23.4852 C   0  0  0  0  0  0  0  0  0  0  0  0
    9.3779   -1.8440   23.9687 C   0  0  0  0  0  0  0  0  0  0  0  0
    7.4735   -0.8251   20.5677 C   0  0  0  0  0  0  0  0  0  0  0  0
   10.8443   -0.1620   24.3133 C   0  0  0  0  0  0  0  0  0  0  0  0
    7.9005   -2.7560   22.1278 C   0  0  0  0  0  0  0  0  0  0  0  0
    8.6969   -3.0285   23.4087 C   0  0  0  0  0  0  0  0  0  0  0  0
    9.2497    1.9782   21.7555 N   0  0  0  0  0  0  0  0  0  0  0  0
   11.8829    0.6901   24.2219 N   0  0  0  0  0  0  0  0  0  0  0  0
    9.8582   -0.0984   25.2622 N   0  0  0  0  0  0  0  0  0  0  0  0
    8.0535   -1.4385   21.7036 N   0  0  0  0  0  0  0  0  0  0  0  0
    7.2306   -3.6350   21.5951 O   0  0  0  0  0  0  0  0  0  0  0  0
    9.8003    0.5942   25.9959 H   0  0  0  0  0  0  0  0  0  0  0  0
    8.6521   -0.8479   22.2772 H   0  0  0  0  0  0  0  0  0  0  0  0
  1 10  1  0  0  0  0
  1 17  3  0  0  0  0
  2  3  1  0  0  0  0
  2  5  2  0  0  0  0
  3  7  2  0  0  0  0
  4  6  2  0  0  0  0
  4  8  1  0  0  0  0
  5 10  1  0  0  0  0
  6 11  1  0  0  0  0
  7 13  1  0  0  0  0
  8 18  2  0  0  0  0
  9 12  2  0  0  0  0
  9 19  1  0  0  0  0
 10 13  2  0  0  0  0
 11 12  1  0  0  0  0
 11 14  2  0  0  0  0
 12 16  1  0  0  0  0
 13 20  1  0  0  0  0
 14 18  1  0  0  0  0
 14 19  1  0  0  0  0
 15 16  1  0  0  0  0
 15 20  1  0  0  0  0
 15 21  2  0  0  0  0
 19 22  1  0  0  0  0
 20 23  1  0  0  0  0
M  END

> <original SMILES>

N#Cc1ccccc1NC(=O)Cc1c[nH]c2ncccc12

> <ref_mols>

x0072_0,x0305_0,x0387_0,x0434_0,x0678_0,x0830_0,x1249_0

> <ref_pdb>

receptors/Mpro-x1249-protein.pdb

> <Chemgauss4>

-5.492872

> <binding_free_energy>

-5.647680928910873

> <binding_std_error>

3.2024739982312806

$$$$
ALE-HEI-f28a35b5-14
  -OEChem-05122002103D

 14 14  0     0  0  0  0  0  0999 V2000
    5.7734    1.1191   19.2357 C   0  0  0  0  0  0  0  0  0  0  0  0
    6.4866    1.1075   20.4292 C   0  0  0  0  0  0  0  0  0  0  0  0
    6.4418    0.7572   18.0772 C   0  0  0  0  0  0  0  0  0  0  0  0
    8.4039    0.3946   19.2160 C   0  0  0  0  0  0  0  0  0  0  0  0
    7.8275    0.7397   20.4278 C   0  0  0  0  0  0  0  0  0  0  0  0
    9.9443    0.9484   21.7761 C   0  0  0  0  0  0  0  0  0  0  0  0
   10.3500    0.8288   23.2401 C   0  0  0  0  0  0  0  0  0  0  0  0
   11.3923   -0.2563   23.5057 C   0  0  0  0  0  0  0  0  0  0  0  0
   12.6513   -0.0541   22.6763 C   0  0  0  0  0  0  0  0  0  0  0  0
    7.7433    0.3940   18.0365 N   0  0  0  0  0  0  0  0  0  0  0  0
    8.5796    0.7186   21.6265 N   0  0  0  0  0  0  0  0  0  0  0  0
   10.7511    1.2332   20.8973 O   0  0  0  0  0  0  0  0  0  0  0  0
   13.9520   -1.4380   23.1096 Br  0  0  0  0  0  0  0  0  0  0  0  0
    8.0477    0.5120   22.4694 H   0  0  0  0  0  0  0  0  0  0  0  0
  1  2  2  0  0  0  0
  1  3  1  0  0  0  0
  2  5  1  0  0  0  0
  3 10  2  0  0  0  0
  4  5  2  0  0  0  0
  4 10  1  0  0  0  0
  5 11  1  0  0  0  0
  6  7  1  0  0  0  0
  6 11  1  0  0  0  0
  6 12  2  0  0  0  0
  7  8  1  0  0  0  0
  8  9  1  0  0  0  0
  9 13  1  0  0  0  0
 11 14  1  0  0  0  0
M  END

> <original SMILES>

O=C(CCCBr)Nc1cccnc1

> <ref_mols>

x0107_0,x0395_0,x0434_0,x0678_0,x0967_0,x0991_0,x1093_0

> <ref_pdb>

receptors/Mpro-x0395-protein.pdb

> <Chemgauss4>

-4.804179

> <binding_free_energy>

-5.638533614679247

> <binding_std_error>

3.1492606144045157

$$$$
DAR-DIA-43a5904b-8
  -OEChem-05122002103D

 23 25  0     1  0  0  0  0  0999 V2000
   13.1390   -1.3087   21.2596 C   0  0  0  0  0  0  0  0  0  0  0  0
   11.9333   -0.7186   21.6384 C   0  0  0  0  0  0  0  0  0  0  0  0
   14.0553   -1.7094   22.2320 C   0  0  0  0  0  0  0  0  0  0  0  0
   12.5602   -0.9296   23.9622 C   0  0  0  0  0  0  0  0  0  0  0  0
    7.9291   -0.1980   18.8646 C   0  0  0  0  0  0  0  0  0  0  0  0
    6.3531    0.9470   17.8571 C   0  0  0  0  0  0  0  0  0  0  0  0
   11.6438   -0.5290   22.9897 C   0  0  0  0  0  0  0  0  0  0  0  0
   13.7659   -1.5198   23.5833 C   0  0  0  0  0  0  0  0  0  0  0  0
    7.0651   -0.0528   19.9298 C   0  0  0  0  0  0  0  0  0  0  0  0
    9.1318   -0.6802   22.9651 C   0  0  0  0  0  0  0  0  0  0  0  0
    8.4161   -0.0461   22.0278 C   0  0  0  0  0  0  0  0  0  0  0  0
   11.2151    2.2951   22.3670 C   0  0  0  0  0  0  0  0  0  0  0  0
    9.0114    1.2818   21.6767 C   0  0  0  0  0  0  0  0  0  0  0  0
   10.3339    0.1135   23.4006 C   0  0  2  0  0  0  0  0  0  0  0  0
   10.0193    1.5088   22.8100 C   0  0  1  0  0  0  0  0  0  0  0  0
    7.1921   -0.5447   21.3500 C   0  0  0  0  0  0  0  0  0  0  0  0
    7.5223    0.3743   17.6752 N   0  0  0  0  0  0  0  0  0  0  0  0
   11.7721    3.0645   23.3610 N   0  0  0  0  0  0  0  0  0  0  0  0
   11.6511    2.2298   21.2203 O   0  0  0  0  0  0  0  0  0  0  0  0
    5.6850    0.8364   19.4339 S   0  0  0  0  0  0  0  0  0  0  0  0
   14.8973   -2.0132   24.7825 Cl  0  0  0  0  0  0  0  0  0  0  0  0
   11.3518    3.0461   24.2844 H   0  0  0  0  0  0  0  0  0  0  0  0
   12.5867    3.6502   23.2083 H   0  0  0  0  0  0  0  0  0  0  0  0
  1  2  2  0  0  0  0
  1  3  1  0  0  0  0
  2  7  1  0  0  0  0
  3  8  2  0  0  0  0
  4  7  2  0  0  0  0
  4  8  1  0  0  0  0
  5  9  2  0  0  0  0
  5 17  1  0  0  0  0
  6 17  2  0  0  0  0
  6 20  1  0  0  0  0
  7 14  1  0  0  0  0
  8 21  1  0  0  0  0
  9 16  1  0  0  0  0
  9 20  1  0  0  0  0
 10 11  2  0  0  0  0
 10 14  1  0  0  0  0
 11 13  1  0  0  0  0
 11 16  1  0  0  0  0
 12 15  1  0  0  0  0
 12 18  1  0  0  0  0
 12 19  2  0  0  0  0
 13 15  1  0  0  0  0
 14 15  1  0  0  0  0
 18 22  1  0  0  0  0
 18 23  1  0  0  0  0
M  END

> <original SMILES>

NC(=O)[C@H]1CC(Cc2cncs2)=C[C@H]1c1cccc(Cl)c1

> <ref_mols>

x0874_0

> <ref_pdb>

receptors/Mpro-x0874-protein.pdb

> <Chemgauss4>

-9.045493

> <binding_free_energy>

-5.6157066597481915

> <binding_std_error>

5.5458873265022905

$$$$
JON-UIO-066ce08b-5
  -OEChem-05122002103D

 19 20  0     0  0  0  0  0  0999 V2000
   13.5961   -1.8362   22.8768 C   0  0  0  0  0  0  0  0  0  0  0  0
   13.8559   -0.8887   23.8668 C   0  0  0  0  0  0  0  0  0  0  0  0
   12.2794   -2.1467   22.5369 C   0  0  0  0  0  0  0  0  0  0  0  0
   12.7991   -0.2517   24.5171 C   0  0  0  0  0  0  0  0  0  0  0  0
   11.2225   -1.5097   23.1871 C   0  0  0  0  0  0  0  0  0  0  0  0
   11.4823   -0.5622   24.1773 C   0  0  0  0  0  0  0  0  0  0  0  0
    6.1156   -4.9343   26.1873 C   0  0  0  0  0  0  0  0  0  0  0  0
    8.8021   -2.7696   25.1825 C   0  0  0  0  0  0  0  0  0  0  0  0
    8.0386   -4.1276   23.2003 C   0  0  0  0  0  0  0  0  0  0  0  0
    8.3630   -3.9075   26.0993 C   0  0  0  0  0  0  0  0  0  0  0  0
    7.6114   -5.2400   24.1550 C   0  0  0  0  0  0  0  0  0  0  0  0
    9.1699   -3.2868   23.7919 C   0  0  0  0  0  0  0  0  0  0  0  0
    6.2234   -4.9935   27.6903 C   0  0  0  0  0  0  0  0  0  0  0  0
    7.2977   -4.7014   25.4840 N   0  0  0  0  0  0  0  0  0  0  0  0
    5.0135   -5.0929   25.6560 O   0  0  0  0  0  0  0  0  0  0  0  0
    8.7258   -0.8164   23.0452 O   0  0  0  0  0  0  0  0  0  0  0  0
    9.6176   -2.4654   21.3625 O   0  0  0  0  0  0  0  0  0  0  0  0
    9.5772   -1.9417   22.7138 S   0  0  0  0  0  0  0  0  0  0  0  0
   10.2106    0.2548   25.0126 Cl  0  0  0  0  0  0  0  0  0  0  0  0
  1  2  1  0  0  0  0
  1  3  2  0  0  0  0
  2  4  2  0  0  0  0
  3  5  1  0  0  0  0
  4  6  1  0  0  0  0
  5  6  2  0  0  0  0
  5 18  1  0  0  0  0
  6 19  1  0  0  0  0
  7 13  1  0  0  0  0
  7 14  1  0  0  0  0
  7 15  2  0  0  0  0
  8 10  1  0  0  0  0
  8 12  1  0  0  0  0
  9 11  1  0  0  0  0
  9 12  1  0  0  0  0
 10 14  1  0  0  0  0
 11 14  1  0  0  0  0
 12 18  1  0  0  0  0
 16 18  2  0  0  0  0
 17 18  2  0  0  0  0
M  END

> <original SMILES>

CC(=O)N1CCC(S(=O)(=O)c2ccccc2Cl)CC1

> <ref_mols>

x0689_0,x0769_0,x0831_0,x1382_0

> <ref_pdb>

receptors/Mpro-x0769-protein.pdb

> <Chemgauss4>

-3.140234

> <binding_free_energy>

-5.599400980000041

> <binding_std_error>

2.4676636154074627

$$$$
ANN-UNI-26382800-3
  -OEChem-05122002103D

 20 21  0     0  0  0  0  0  0999 V2000
   14.8236   -1.3998   26.8991 C   0  0  0  0  0  0  0  0  0  0  0  0
    6.8932   -6.5097   21.7655 C   0  0  0  0  0  0  0  0  0  0  0  0
   12.9361   -0.5418   25.6017 C   0  0  0  0  0  0  0  0  0  0  0  0
   13.2101   -2.9264   25.8762 C   0  0  0  0  0  0  0  0  0  0  0  0
    7.7787   -5.5959   22.3261 C   0  0  0  0  0  0  0  0  0  0  0  0
   11.7891   -0.7613   24.8389 C   0  0  0  0  0  0  0  0  0  0  0  0
   12.0631   -3.1460   25.1134 C   0  0  0  0  0  0  0  0  0  0  0  0
    5.8289   -6.0138   21.0299 C   0  0  0  0  0  0  0  0  0  0  0  0
    6.4809   -3.8396   21.3842 C   0  0  0  0  0  0  0  0  0  0  0  0
   13.6466   -1.6243   26.1203 C   0  0  0  0  0  0  0  0  0  0  0  0
   11.3526   -2.0634   24.5948 C   0  0  0  0  0  0  0  0  0  0  0  0
    7.5756   -4.2335   22.1367 C   0  0  0  0  0  0  0  0  0  0  0  0
    9.6039   -3.5139   23.4736 C   0  0  0  0  0  0  0  0  0  0  0  0
   15.7793   -1.2173   27.5315 N   0  0  0  0  0  0  0  0  0  0  0  0
    5.5991   -4.6976   20.8241 N   0  0  0  0  0  0  0  0  0  0  0  0
   10.2055   -2.2827   23.8315 N   0  0  0  0  0  0  0  0  0  0  0  0
    8.4593   -3.2798   22.6948 N   0  0  0  0  0  0  0  0  0  0  0  0
   10.0263   -4.6186   23.7998 O   0  0  0  0  0  0  0  0  0  0  0  0
    9.7354   -1.4404   23.4833 H   0  0  0  0  0  0  0  0  0  0  0  0
    8.2321   -2.3071   22.5042 H   0  0  0  0  0  0  0  0  0  0  0  0
  1 10  1  0  0  0  0
  1 14  3  0  0  0  0
  2  5  2  0  0  0  0
  2  8  1  0  0  0  0
  3  6  2  0  0  0  0
  3 10  1  0  0  0  0
  4  7  1  0  0  0  0
  4 10  2  0  0  0  0
  5 12  1  0  0  0  0
  6 11  1  0  0  0  0
  7 11  2  0  0  0  0
  8 15  2  0  0  0  0
  9 12  2  0  0  0  0
  9 15  1  0  0  0  0
 11 16  1  0  0  0  0
 12 17  1  0  0  0  0
 13 16  1  0  0  0  0
 13 17  1  0  0  0  0
 13 18  2  0  0  0  0
 16 19  1  0  0  0  0
 17 20  1  0  0  0  0
M  END

> <original SMILES>

N#Cc1ccc(NC(=O)Nc2cccnc2)cc1

> <ref_mols>

x0104_0,x0305_0,x0434_0,x0678_0,x1093_0,x1249_0

> <ref_pdb>

receptors/Mpro-x1249-protein.pdb

> <Chemgauss4>

-2.72987

> <binding_free_energy>

-5.58715230000001

> <binding_std_error>

2.2976153647768727

$$$$
DAR-DIA-43a5904b-7
  -OEChem-05122002103D

 24 26  0     1  0  0  0  0  0999 V2000
   14.0465   -2.0049   25.0920 C   0  0  0  0  0  0  0  0  0  0  0  0
   13.0614   -2.6183   25.8657 C   0  0  0  0  0  0  0  0  0  0  0  0
   13.6906   -1.0548   24.1346 C   0  0  0  0  0  0  0  0  0  0  0  0
    6.8058   -6.9755   22.6854 C   0  0  0  0  0  0  0  0  0  0  0  0
    7.6831   -6.0063   22.1992 C   0  0  0  0  0  0  0  0  0  0  0  0
   11.7202   -2.2818   25.6822 C   0  0  0  0  0  0  0  0  0  0  0  0
   12.3494   -0.7183   23.9511 C   0  0  0  0  0  0  0  0  0  0  0  0
    5.8782   -6.6441   23.6731 C   0  0  0  0  0  0  0  0  0  0  0  0
    6.7056   -4.3742   23.6884 C   0  0  0  0  0  0  0  0  0  0  0  0
    7.6331   -4.7057   22.7006 C   0  0  0  0  0  0  0  0  0  0  0  0
   11.3642   -1.3318   24.7249 C   0  0  0  0  0  0  0  0  0  0  0  0
    5.8281   -5.3434   24.1746 C   0  0  0  0  0  0  0  0  0  0  0  0
    9.4970   -3.1021   23.2376 C   0  0  0  0  0  0  0  0  0  0  0  0
    9.2381   -1.8174   23.5123 C   0  0  0  0  0  0  0  0  0  0  0  0
    6.5473   -2.4994   21.1195 C   0  0  0  0  0  0  0  0  0  0  0  0
    8.1154   -1.2853   22.6773 C   0  0  0  0  0  0  0  0  0  0  0  0
    8.5877   -3.6533   22.1726 C   0  0  2  0  0  0  0  0  0  0  0  0
    7.9610   -2.3614   21.5957 C   0  0  1  0  0  0  0  0  0  0  0  0
    9.9141   -0.9676   24.5257 C   0  0  0  0  0  0  0  0  0  0  0  0
    6.0293   -1.3463   20.5786 N   0  0  0  0  0  0  0  0  0  0  0  0
    5.9322   -3.5599   21.1991 O   0  0  0  0  0  0  0  0  0  0  0  0
    4.6843   -4.9353   25.3939 Cl  0  0  0  0  0  0  0  0  0  0  0  0
    6.6160   -0.5193   20.5420 H   0  0  0  0  0  0  0  0  0  0  0  0
    5.0837   -1.2892   20.2146 H   0  0  0  0  0  0  0  0  0  0  0  0
  1  2  1  0  0  0  0
  1  3  2  0  0  0  0
  2  6  2  0  0  0  0
  3  7  1  0  0  0  0
  4  5  2  0  0  0  0
  4  8  1  0  0  0  0
  5 10  1  0  0  0  0
  6 11  1  0  0  0  0
  7 11  2  0  0  0  0
  8 12  2  0  0  0  0
  9 10  2  0  0  0  0
  9 12  1  0  0  0  0
 10 17  1  0  0  0  0
 11 19  1  0  0  0  0
 12 22  1  0  0  0  0
 13 14  2  0  0  0  0
 13 17  1  0  0  0  0
 14 16  1  0  0  0  0
 14 19  1  0  0  0  0
 15 18  1  0  0  0  0
 15 20  1  0  0  0  0
 15 21  2  0  0  0  0
 16 18  1  0  0  0  0
 17 18  1  0  0  0  0
 20 23  1  0  0  0  0
 20 24  1  0  0  0  0
M  END

> <original SMILES>

NC(=O)[C@H]1CC(Cc2ccccc2)=C[C@H]1c1cccc(Cl)c1

> <ref_mols>

x0874_0

> <ref_pdb>

receptors/protein-0387.pdb

> <Chemgauss4>

-6.95997047424316

> <binding_free_energy>

-5.5610193599999995

> <binding_std_error>

2.373238221903209

$$$$
WAR-XCH-b6889685-19
  -OEChem-05122002103D

 25 27  0     0  0  0  0  0  0999 V2000
   13.1149    2.3436   22.5929 C   0  0  0  0  0  0  0  0  0  0  0  0
   11.6759    1.6900   24.4202 C   0  0  0  0  0  0  0  0  0  0  0  0
   12.5766    3.6299   22.6290 C   0  0  0  0  0  0  0  0  0  0  0  0
   11.1376    2.9763   24.4564 C   0  0  0  0  0  0  0  0  0  0  0  0
    8.5886   -4.9215   24.4160 C   0  0  0  0  0  0  0  0  0  0  0  0
    7.2910   -5.3304   24.6316 C   0  0  0  0  0  0  0  0  0  0  0  0
    7.4691   -2.8847   24.4397 C   0  0  0  0  0  0  0  0  0  0  0  0
   12.6645    1.3736   23.4885 C   0  0  0  0  0  0  0  0  0  0  0  0
    8.6920   -3.5047   24.3050 C   0  0  0  0  0  0  0  0  0  0  0  0
   11.5880    3.9463   23.5608 C   0  0  0  0  0  0  0  0  0  0  0  0
   11.9990   -1.7876   22.4471 C   0  0  0  0  0  0  0  0  0  0  0  0
   12.3918   -1.6638   24.9453 C   0  0  0  0  0  0  0  0  0  0  0  0
   13.1150   -0.7586   22.2622 C   0  0  0  0  0  0  0  0  0  0  0  0
   13.4969   -0.6323   24.6942 C   0  0  0  0  0  0  0  0  0  0  0  0
   12.2083   -2.5994   23.7375 C   0  0  0  0  0  0  0  0  0  0  0  0
   11.0454   -3.5615   23.9679 C   0  0  0  0  0  0  0  0  0  0  0  0
   13.2009    0.0907   23.4528 N   0  0  0  0  0  0  0  0  0  0  0  0
    9.6056    5.3917   22.5188 N   0  0  0  0  0  0  0  0  0  0  0  0
   10.3857    5.7953   24.9424 O   0  0  0  0  0  0  0  0  0  0  0  0
   11.8827    6.4803   23.0351 O   0  0  0  0  0  0  0  0  0  0  0  0
    9.8544   -2.8063   24.0893 O   0  0  0  0  0  0  0  0  0  0  0  0
    6.2038   -4.0090   24.6992 S   0  0  0  0  0  0  0  0  0  0  0  0
   10.9132    5.5559   23.6063 S   0  0  0  0  0  0  0  0  0  0  0  0
    8.6542    5.3866   22.9063 H   0  0  0  0  0  0  0  0  0  0  0  0
    9.6788    5.8531   21.6039 H   0  0  0  0  0  0  0  0  0  0  0  0
  1  3  2  0  0  0  0
  1  8  1  0  0  0  0
  2  4  1  0  0  0  0
  2  8  2  0  0  0  0
  3 10  1  0  0  0  0
  4 10  2  0  0  0  0
  5  6  2  0  0  0  0
  5  9  1  0  0  0  0
  6 22  1  0  0  0  0
  7  9  2  0  0  0  0
  7 22  1  0  0  0  0
  8 17  1  0  0  0  0
  9 21  1  0  0  0  0
 10 23  1  0  0  0  0
 11 13  1  0  0  0  0
 11 15  1  0  0  0  0
 12 14  1  0  0  0  0
 12 15  1  0  0  0  0
 13 17  1  0  0  0  0
 14 17  1  0  0  0  0
 15 16  1  0  0  0  0
 16 21  1  0  0  0  0
 18 23  1  0  0  0  0
 19 23  2  0  0  0  0
 20 23  2  0  0  0  0
 18 24  1  0  0  0  0
 18 25  1  0  0  0  0
M  END

> <original SMILES>

NS(=O)(=O)c1ccc(N2CCC(COc3ccsc3)CC2)cc1

> <ref_mols>

x0072_0,x0104_0,x0107_0,x0161_0,x0165_0

> <ref_pdb>

receptors/Mpro-x0072-protein.pdb

> <Chemgauss4>

-7.780682

> <binding_free_energy>

-5.539255263101614

> <binding_std_error>

2.2537474584633554

$$$$
NAU-LAT-ec9c7557-2
  -OEChem-05122002103D

 22 24  0     0  0  0  0  0  0999 V2000
   12.4324   -1.3259   23.9635 C   0  0  0  0  0  0  0  0  0  0  0  0
   11.9803   -2.9802   25.6498 C   0  0  0  0  0  0  0  0  0  0  0  0
    9.7153   -1.7531   23.0316 C   0  0  0  0  0  0  0  0  0  0  0  0
    9.9402   -4.0381   23.8672 C   0  0  0  0  0  0  0  0  0  0  0  0
   13.5827   -1.0030   24.6653 C   0  0  0  0  0  0  0  0  0  0  0  0
   13.1509   -2.5834   26.2760 C   0  0  0  0  0  0  0  0  0  0  0  0
   11.6214   -2.3344   24.4718 C   0  0  0  0  0  0  0  0  0  0  0  0
   10.4072   -2.7099   23.7784 C   0  0  0  0  0  0  0  0  0  0  0  0
    8.5679   -2.1738   22.3962 C   0  0  0  0  0  0  0  0  0  0  0  0
    8.7709   -4.4375   23.2110 C   0  0  0  0  0  0  0  0  0  0  0  0
    8.0995   -3.4814   22.4780 C   0  0  0  0  0  0  0  0  0  0  0  0
    7.6239   -1.4473   21.5500 C   0  0  0  0  0  0  0  0  0  0  0  0
    6.5512   -2.4526   21.1396 C   0  0  0  0  0  0  0  0  0  0  0  0
    8.2890   -5.8415   23.3127 C   0  0  0  0  0  0  0  0  0  0  0  0
   13.9642   -1.6079   25.8125 N   0  0  0  0  0  0  0  0  0  0  0  0
    6.9221   -3.6404   21.7434 N   0  0  0  0  0  0  0  0  0  0  0  0
    7.6403   -0.2889   21.2122 O   0  0  0  0  0  0  0  0  0  0  0  0
    5.6118   -2.1676   20.4301 O   0  0  0  0  0  0  0  0  0  0  0  0
    9.0857   -6.6432   24.0823 F   0  0  0  0  0  0  0  0  0  0  0  0
    7.0406   -5.9566   23.8585 F   0  0  0  0  0  0  0  0  0  0  0  0
    8.2131   -6.4637   22.0987 F   0  0  0  0  0  0  0  0  0  0  0  0
    6.4083   -4.5098   21.6635 H   0  0  0  0  0  0  0  0  0  0  0  0
  1  5  2  0  0  0  0
  1  7  1  0  0  0  0
  2  6  1  0  0  0  0
  2  7  2  0  0  0  0
  3  8  1  0  0  0  0
  3  9  2  0  0  0  0
  4  8  2  0  0  0  0
  4 10  1  0  0  0  0
  5 15  1  0  0  0  0
  6 15  2  0  0  0  0
  7  8  1  0  0  0  0
  9 11  1  0  0  0  0
  9 12  1  0  0  0  0
 10 11  2  0  0  0  0
 10 14  1  0  0  0  0
 11 16  1  0  0  0  0
 12 13  1  0  0  0  0
 12 17  2  0  0  0  0
 13 16  1  0  0  0  0
 13 18  2  0  0  0  0
 14 19  1  0  0  0  0
 14 20  1  0  0  0  0
 14 21  1  0  0  0  0
 16 22  1  0  0  0  0
M  END

> <original SMILES>

O=C1Nc2c(cc(-c3ccncc3)cc2C(F)(F)F)C1=O

> <ref_mols>

x1093_0

> <ref_pdb>

receptors/protein-0387.pdb

> <Chemgauss4>

-5.25276327133179

> <binding_free_energy>

-5.502437980078241

> <binding_std_error>

4.737825542978263

$$$$
AUS-ARG-7cfdce8f-9
  -OEChem-05122002103D

 25 28  0     0  0  0  0  0  0999 V2000
   11.1725    0.9869   25.0018 C   0  0  0  0  0  0  0  0  0  0  0  0
   11.5821    1.8643   24.0040 C   0  0  0  0  0  0  0  0  0  0  0  0
    5.1922    1.1437   18.8590 C   0  0  0  0  0  0  0  0  0  0  0  0
   10.0353    0.2092   24.8076 C   0  0  0  0  0  0  0  0  0  0  0  0
    5.8706    1.0375   20.0681 C   0  0  0  0  0  0  0  0  0  0  0  0
   10.8543    1.9620   22.8144 C   0  0  0  0  0  0  0  0  0  0  0  0
    9.0832   -2.9460   23.2203 C   0  0  0  0  0  0  0  0  0  0  0  0
    9.5799   -4.2461   23.1275 C   0  0  0  0  0  0  0  0  0  0  0  0
    8.2373   -4.8947   25.0285 C   0  0  0  0  0  0  0  0  0  0  0  0
    5.8864    0.8457   17.6975 C   0  0  0  0  0  0  0  0  0  0  0  0
    7.8076    0.3661   18.8625 C   0  0  0  0  0  0  0  0  0  0  0  0
    9.3089    0.3132   23.6086 C   0  0  0  0  0  0  0  0  0  0  0  0
    7.2035    0.6419   20.0786 C   0  0  0  0  0  0  0  0  0  0  0  0
    9.7127    1.1956   22.5933 C   0  0  0  0  0  0  0  0  0  0  0  0
    8.1636   -2.6202   24.2172 C   0  0  0  0  0  0  0  0  0  0  0  0
    9.1569   -5.2205   24.0316 C   0  0  0  0  0  0  0  0  0  0  0  0
    7.7406   -3.5946   25.1213 C   0  0  0  0  0  0  0  0  0  0  0  0
    8.1640   -0.4356   23.3513 C   0  0  0  0  0  0  0  0  0  0  0  0
    7.9329    0.5231   21.3141 C   0  0  0  0  0  0  0  0  0  0  0  0
    7.1813    0.4582   17.6680 N   0  0  0  0  0  0  0  0  0  0  0  0
    9.0255    1.3029   21.4426 N   0  0  0  0  0  0  0  0  0  0  0  0
    7.4525   -0.3529   22.2113 N   0  0  0  0  0  0  0  0  0  0  0  0
    7.6918   -1.3247   24.2818 O   0  0  0  0  0  0  0  0  0  0  0  0
    9.6341   -6.4689   23.9421 F   0  0  0  0  0  0  0  0  0  0  0  0
    6.4921   -3.1884   26.4881 Br  0  0  0  0  0  0  0  0  0  0  0  0
  1  2  1  0  0  0  0
  1  4  2  0  0  0  0
  2  6  2  0  0  0  0
  3  5  2  0  0  0  0
  3 10  1  0  0  0  0
  4 12  1  0  0  0  0
  5 13  1  0  0  0  0
  6 14  1  0  0  0  0
  7  8  2  0  0  0  0
  7 15  1  0  0  0  0
  8 16  1  0  0  0  0
  9 16  2  0  0  0  0
  9 17  1  0  0  0  0
 10 20  2  0  0  0  0
 11 13  2  0  0  0  0
 11 20  1  0  0  0  0
 12 14  1  0  0  0  0
 12 18  2  0  0  0  0
 13 19  1  0  0  0  0
 14 21  2  0  0  0  0
 15 17  2  0  0  0  0
 15 23  1  0  0  0  0
 16 24  1  0  0  0  0
 17 25  1  0  0  0  0
 18 22  1  0  0  0  0
 18 23  1  0  0  0  0
 19 21  1  0  0  0  0
 19 22  2  0  0  0  0
M  END

> <original SMILES>

Fc1ccc(Oc2nc(-c3cccnc3)nc3ccccc23)c(Br)c1

> <ref_mols>

x0678_0

> <ref_pdb>

receptors/Mpro-x0678_0.pdb

> <Chemgauss4>

-11.828602

> <binding_free_energy>

-5.485196838477492

> <binding_std_error>

5.407248361284834

$$$$
SCO-VAN-260d9628-5
  -OEChem-05122002103D

 18 19  0     0  0  0  0  0  0999 V2000
    6.5484   -4.8122   21.4647 C   0  0  0  0  0  0  0  0  0  0  0  0
    7.1017   -6.1306   23.4435 C   0  0  0  0  0  0  0  0  0  0  0  0
    7.9099   -6.4086   24.5496 C   0  0  0  0  0  0  0  0  0  0  0  0
    8.5086   -4.2541   22.8142 C   0  0  0  0  0  0  0  0  0  0  0  0
   10.8845   -4.6115   25.5688 C   0  0  0  0  0  0  0  0  0  0  0  0
    7.3945   -5.0705   22.5879 C   0  0  0  0  0  0  0  0  0  0  0  0
    9.3381   -4.5150   23.9230 C   0  0  0  0  0  0  0  0  0  0  0  0
   10.5167   -3.9108   24.4434 C   0  0  0  0  0  0  0  0  0  0  0  0
    9.0202   -5.5841   24.7634 C   0  0  0  0  0  0  0  0  0  0  0  0
   13.2151   -2.1384   25.2484 C   0  0  0  0  0  0  0  0  0  0  0  0
   13.6960   -1.2102   26.3140 C   0  0  0  0  0  0  0  0  0  0  0  0
   11.2256   -2.7419   23.8846 C   0  0  0  0  0  0  0  0  0  0  0  0
    5.8616   -4.6026   20.5531 N   0  0  0  0  0  0  0  0  0  0  0  0
    9.9760   -5.6190   25.7536 N   0  0  0  0  0  0  0  0  0  0  0  0
   11.8926   -1.9522   24.8965 N   0  0  0  0  0  0  0  0  0  0  0  0
   13.9855   -2.9654   24.7748 O   0  0  0  0  0  0  0  0  0  0  0  0
   10.0025   -6.2915   26.5075 H   0  0  0  0  0  0  0  0  0  0  0  0
   11.3636   -1.2270   25.3703 H   0  0  0  0  0  0  0  0  0  0  0  0
  1  6  1  0  0  0  0
  1 13  3  0  0  0  0
  2  3  2  0  0  0  0
  2  6  1  0  0  0  0
  3  9  1  0  0  0  0
  4  6  2  0  0  0  0
  4  7  1  0  0  0  0
  5  8  2  0  0  0  0
  5 14  1  0  0  0  0
  7  8  1  0  0  0  0
  7  9  2  0  0  0  0
  8 12  1  0  0  0  0
  9 14  1  0  0  0  0
 10 11  1  0  0  0  0
 10 15  1  0  0  0  0
 10 16  2  0  0  0  0
 12 15  1  0  0  0  0
 14 17  1  0  0  0  0
 15 18  1  0  0  0  0
M  END

> <original SMILES>

CC(=O)NCc1c[nH]c2ccc(C#N)cc12

> <ref_mols>

x0072_0,x0397_0

> <ref_pdb>

receptors/Mpro-x0072-protein.pdb

> <Chemgauss4>

-6.935113

> <binding_free_energy>

-5.4690925997306366

> <binding_std_error>

2.848185231155331

$$$$
PAT-GYR-359dbb24-3
  -OEChem-05122002103D

 23 24  0     0  0  0  0  0  0999 V2000
    9.9290   -2.1691   24.0142 C   0  0  0  0  0  0  0  0  0  0  0  0
    9.3577   -3.1788   24.3252 C   0  0  0  0  0  0  0  0  0  0  0  0
   10.3546    0.2178   24.3332 C   0  0  0  0  0  0  0  0  0  0  0  0
   11.5260   -0.9816   22.5936 C   0  0  0  0  0  0  0  0  0  0  0  0
   11.0188    1.3901   23.9722 C   0  0  0  0  0  0  0  0  0  0  0  0
   12.1902    0.1907   22.2326 C   0  0  0  0  0  0  0  0  0  0  0  0
   10.6083   -0.9680   23.6439 C   0  0  0  0  0  0  0  0  0  0  0  0
   11.9365    1.3766   22.9219 C   0  0  0  0  0  0  0  0  0  0  0  0
    8.6746   -4.3893   24.6988 C   0  0  0  0  0  0  0  0  0  0  0  0
   11.8928    4.4923   23.9988 C   0  0  0  0  0  0  0  0  0  0  0  0
   10.7403    6.3808   22.8893 C   0  0  0  0  0  0  0  0  0  0  0  0
   10.5440    6.2096   25.3412 C   0  0  0  0  0  0  0  0  0  0  0  0
    9.2691    6.7631   22.8489 C   0  0  0  0  0  0  0  0  0  0  0  0
    9.0845    6.6246   25.1885 C   0  0  0  0  0  0  0  0  0  0  0  0
    6.7158   -5.6722   24.4112 C   0  0  0  0  0  0  0  0  0  0  0  0
   12.6502    2.6387   22.5323 C   0  0  0  0  0  0  0  0  0  0  0  0
   11.0504    5.6126   24.0972 N   0  0  0  0  0  0  0  0  0  0  0  0
   11.8479    3.8144   22.7862 N   0  0  0  0  0  0  0  0  0  0  0  0
    9.1860   -5.1847   25.4727 O   0  0  0  0  0  0  0  0  0  0  0  0
   12.6239    4.1220   24.9233 O   0  0  0  0  0  0  0  0  0  0  0  0
    8.9129    7.4609   24.0437 O   0  0  0  0  0  0  0  0  0  0  0  0
    7.4617   -4.4926   24.0935 O   0  0  0  0  0  0  0  0  0  0  0  0
   11.2339    4.1546   22.0577 H   0  0  0  0  0  0  0  0  0  0  0  0
  1  2  3  0  0  0  0
  1  7  1  0  0  0  0
  2  9  1  0  0  0  0
  3  5  2  0  0  0  0
  3  7  1  0  0  0  0
  4  6  1  0  0  0  0
  4  7  2  0  0  0  0
  5  8  1  0  0  0  0
  6  8  2  0  0  0  0
  8 16  1  0  0  0  0
  9 19  2  0  0  0  0
  9 22  1  0  0  0  0
 10 17  1  0  0  0  0
 10 18  1  0  0  0  0
 10 20  2  0  0  0  0
 11 13  1  0  0  0  0
 11 17  1  0  0  0  0
 12 14  1  0  0  0  0
 12 17  1  0  0  0  0
 13 21  1  0  0  0  0
 14 21  1  0  0  0  0
 15 22  1  0  0  0  0
 16 18  1  0  0  0  0
 18 23  1  0  0  0  0
M  END

> <original SMILES>

COC(=O)C#Cc1ccc(CNC(=O)N2CCOCC2)cc1

> <ref_mols>

x1249_0

> <ref_pdb>

receptors/protein-0387.pdb

> <Chemgauss4>

-5.10954666137695

> <binding_free_energy>

-5.428495136101105

> <binding_std_error>

2.3395674180061192

$$$$
ALV-UNI-7ff1a6f9-48
  -OEChem-05122002103D

 22 25  0     0  0  0  0  0  0999 V2000
    7.1842   -4.9716   26.4614 C   0  0  0  0  0  0  0  0  0  0  0  0
    6.6700   -5.3540   25.2261 C   0  0  0  0  0  0  0  0  0  0  0  0
    8.0800   -3.9053   26.5454 C   0  0  0  0  0  0  0  0  0  0  0  0
    7.0495   -4.6717   24.0699 C   0  0  0  0  0  0  0  0  0  0  0  0
    9.3735   -2.1314   25.4578 C   0  0  0  0  0  0  0  0  0  0  0  0
    9.7531   -1.4491   24.3017 C   0  0  0  0  0  0  0  0  0  0  0  0
    4.9121    1.2644   19.0739 C   0  0  0  0  0  0  0  0  0  0  0  0
    8.3432   -2.8979   22.9823 C   0  0  0  0  0  0  0  0  0  0  0  0
    5.7204    0.9665   17.9813 C   0  0  0  0  0  0  0  0  0  0  0  0
    8.4730   -3.2071   25.3920 C   0  0  0  0  0  0  0  0  0  0  0  0
    7.9501   -3.5960   24.1357 C   0  0  0  0  0  0  0  0  0  0  0  0
    9.2389   -1.8315   23.0663 C   0  0  0  0  0  0  0  0  0  0  0  0
    5.3722    0.9654   20.3566 C   0  0  0  0  0  0  0  0  0  0  0  0
    6.6382    0.3753   20.4620 C   0  0  0  0  0  0  0  0  0  0  0  0
    7.3384    0.1325   19.2884 C   0  0  0  0  0  0  0  0  0  0  0  0
    8.4847   -0.5154   21.0529 C   0  0  0  0  0  0  0  0  0  0  0  0
    4.5183    1.2778   21.5392 C   0  0  0  0  0  0  0  0  0  0  0  0
    9.6457   -1.1006   21.8313 C   0  0  0  0  0  0  0  0  0  0  0  0
    6.9494    0.3972   18.0303 N   0  0  0  0  0  0  0  0  0  0  0  0
    7.3661   -0.0341   21.5527 N   0  0  0  0  0  0  0  0  0  0  0  0
    8.5150   -0.4364   19.6864 N   0  0  0  0  0  0  0  0  0  0  0  0
    9.2661   -0.7414   19.0816 H   0  0  0  0  0  0  0  0  0  0  0  0
  1  2  1  0  0  0  0
  1  3  2  0  0  0  0
  2  4  2  0  0  0  0
  3 10  1  0  0  0  0
  4 11  1  0  0  0  0
  5  6  2  0  0  0  0
  5 10  1  0  0  0  0
  6 12  1  0  0  0  0
  7  9  2  0  0  0  0
  7 13  1  0  0  0  0
  8 11  1  0  0  0  0
  8 12  2  0  0  0  0
  9 19  1  0  0  0  0
 10 11  2  0  0  0  0
 12 18  1  0  0  0  0
 13 14  2  0  0  0  0
 13 17  1  0  0  0  0
 14 15  1  0  0  0  0
 14 20  1  0  0  0  0
 15 19  2  0  0  0  0
 15 21  1  0  0  0  0
 16 18  1  0  0  0  0
 16 20  2  0  0  0  0
 16 21  1  0  0  0  0
 21 22  1  0  0  0  0
M  END

> <original SMILES>

Cc1ccnc2[nH]c(Cc3ccc4ccccc4c3)nc12

> <ref_mols>

x0395_0,x0426_0,x0434_0,x0540_0,x0678_0,x0830_0,x1093_0

> <ref_pdb>

receptors/Mpro-x0426-protein.pdb

> <Chemgauss4>

-1.687032

> <binding_free_energy>

-5.310538880404042

> <binding_std_error>

2.2712791091346465

$$$$
PAU-UNI-6d15a9f5-2
  -OEChem-05122002103D

 18 20  0     1  0  0  0  0  0999 V2000
    6.4807   -0.6377   20.1183 C   0  0  0  0  0  0  0  0  0  0  0  0
    7.4768   -0.7690   21.0442 C   0  0  0  0  0  0  0  0  0  0  0  0
    8.5611   -0.0252   20.5673 C   0  0  0  0  0  0  0  0  0  0  0  0
    9.8053    0.1281   21.2875 C   0  0  0  0  0  0  0  0  0  0  0  0
   14.2523   -2.2313   22.9581 C   0  0  0  0  0  0  0  0  0  0  0  0
   13.2506   -1.5670   23.8690 C   0  0  0  0  0  0  0  0  0  0  0  0
   13.8496   -1.6901   21.6026 C   0  0  0  0  0  0  0  0  0  0  0  0
    8.7872   -1.5597   22.9105 C   0  0  0  0  0  0  0  0  0  0  0  0
   11.9963   -1.5974   23.0128 C   0  0  1  0  0  0  0  0  0  0  0  0
    6.3628    0.5870   17.9335 C   0  0  0  0  0  0  0  0  0  0  0  0
   11.0015   -0.5062   23.3577 C   0  0  0  0  0  0  0  0  0  0  0  0
    8.2894    0.5490   19.3909 N   0  0  0  0  0  0  0  0  0  0  0  0
    7.0211    0.1563   19.1437 N   0  0  0  0  0  0  0  0  0  0  0  0
    7.5180   -1.4315   22.2083 N   0  0  0  0  0  0  0  0  0  0  0  0
    9.8248   -0.5795   22.5044 N   0  0  0  0  0  0  0  0  0  0  0  0
   10.7156    0.8320   20.8604 O   0  0  0  0  0  0  0  0  0  0  0  0
   12.4361   -1.4450   21.6526 O   0  0  0  0  0  0  0  0  0  0  0  0
    6.7305   -1.9617   22.5699 H   0  0  0  0  0  0  0  0  0  0  0  0
  1  2  2  0  0  0  0
  1 13  1  0  0  0  0
  2  3  1  0  0  0  0
  2 14  1  0  0  0  0
  3  4  1  0  0  0  0
  3 12  2  0  0  0  0
  4 15  1  0  0  0  0
  4 16  2  0  0  0  0
  5  6  1  0  0  0  0
  5  7  1  0  0  0  0
  6  9  1  0  0  0  0
  7 17  1  0  0  0  0
  8 14  1  0  0  0  0
  8 15  1  0  0  0  0
  9 11  1  0  0  0  0
  9 17  1  0  0  0  0
 10 13  1  0  0  0  0
 11 15  1  0  0  0  0
 12 13  1  0  0  0  0
 14 18  1  0  0  0  0
M  END

> <original SMILES>

Cn1cc2c(n1)C(=O)N(C[C@@H]1CCCO1)CN2

> <ref_mols>

x1086_0

> <ref_pdb>

receptors/Mpro-x1086_0.pdb

> <Chemgauss4>

-7.325227

> <binding_free_energy>

-5.250245739898999

> <binding_std_error>

1.233928628749817

$$$$
WAR-XCH-b6889685-23
  -OEChem-05122002103D

 24 25  0     0  0  0  0  0  0999 V2000
   10.1202   -2.9794   23.5236 C   0  0  0  0  0  0  0  0  0  0  0  0
    9.2571   -1.2175   24.9334 C   0  0  0  0  0  0  0  0  0  0  0  0
    9.6091   -3.9337   24.4032 C   0  0  0  0  0  0  0  0  0  0  0  0
    8.7459   -2.1717   25.8130 C   0  0  0  0  0  0  0  0  0  0  0  0
    9.9443   -1.6213   23.7887 C   0  0  0  0  0  0  0  0  0  0  0  0
    8.9219   -3.5298   25.5479 C   0  0  0  0  0  0  0  0  0  0  0  0
   12.5032    0.5604   23.4189 C   0  0  0  0  0  0  0  0  0  0  0  0
   10.2557    1.7324   23.3432 C   0  0  0  0  0  0  0  0  0  0  0  0
   11.8935   -0.6044   22.6306 C   0  0  0  0  0  0  0  0  0  0  0  0
    9.7074    0.5415   22.5548 C   0  0  0  0  0  0  0  0  0  0  0  0
   11.7642    1.8671   23.1189 C   0  0  0  0  0  0  0  0  0  0  0  0
   13.1128    4.6058   22.4271 C   0  0  0  0  0  0  0  0  0  0  0  0
   12.1567    5.2815   24.6640 C   0  0  0  0  0  0  0  0  0  0  0  0
   12.0704    4.3140   23.4945 C   0  0  0  0  0  0  0  0  0  0  0  0
   10.4539   -0.6692   22.9118 N   0  0  0  0  0  0  0  0  0  0  0  0
    7.5637   -3.7223   27.8333 N   0  0  0  0  0  0  0  0  0  0  0  0
   12.2921    2.9365   24.0053 N   0  3  0  0  0  0  0  0  0  0  0  0
    7.2344   -5.4669   25.9643 O   0  0  0  0  0  0  0  0  0  0  0  0
    9.3972   -5.4377   27.2563 O   0  0  0  0  0  0  0  0  0  0  0  0
    8.2823   -4.7235   26.6498 S   0  0  0  0  0  0  0  0  0  0  0  0
    6.5379   -3.6823   27.8724 H   0  0  0  0  0  0  0  0  0  0  0  0
    8.0169   -3.6618   28.7532 H   0  0  0  0  0  0  0  0  0  0  0  0
   11.8591    2.8453   24.9335 H   0  0  0  0  0  0  0  0  0  0  0  0
   13.2992    2.7855   24.1478 H   0  0  0  0  0  0  0  0  0  0  0  0
  1  3  2  0  0  0  0
  1  5  1  0  0  0  0
  2  4  1  0  0  0  0
  2  5  2  0  0  0  0
  3  6  1  0  0  0  0
  4  6  2  0  0  0  0
  5 15  1  0  0  0  0
  6 20  1  0  0  0  0
  7  9  1  0  0  0  0
  7 11  1  0  0  0  0
  8 10  1  0  0  0  0
  8 11  1  0  0  0  0
  9 15  1  0  0  0  0
 10 15  1  0  0  0  0
 11 17  1  0  0  0  0
 12 14  1  0  0  0  0
 13 14  1  0  0  0  0
 14 17  1  0  0  0  0
 16 20  1  0  0  0  0
 18 20  2  0  0  0  0
 19 20  2  0  0  0  0
 16 21  1  0  0  0  0
 16 22  1  0  0  0  0
 17 23  1  0  0  0  0
 17 24  1  0  0  0  0
M  CHG  1  17   1
M  END

> <original SMILES>

CC(C)NC1CCN(c2ccc(S(N)(=O)=O)cc2)CC1

> <ref_mols>

x0072_0,x0104_0,x0107_0,x0161_0,x0165_0

> <ref_pdb>

receptors/Mpro-x0165-protein.pdb

> <Chemgauss4>

0.646769

> <binding_free_energy>

-5.069696900000054

> <binding_std_error>

4.644379291682588

$$$$
PAT-GYR-359dbb24-2
  -OEChem-05122002103D

 20 21  0     0  0  0  0  0  0999 V2000
   10.2346   -2.1192   24.3134 C   0  0  0  0  0  0  0  0  0  0  0  0
    9.7401   -3.1652   24.6340 C   0  0  0  0  0  0  0  0  0  0  0  0
   10.3522    0.3176   24.4827 C   0  0  0  0  0  0  0  0  0  0  0  0
   11.8692   -0.8514   23.0097 C   0  0  0  0  0  0  0  0  0  0  0  0
   10.9276    1.5326   24.1110 C   0  0  0  0  0  0  0  0  0  0  0  0
   12.4445    0.3637   22.6380 C   0  0  0  0  0  0  0  0  0  0  0  0
   10.8230   -0.8745   23.9321 C   0  0  0  0  0  0  0  0  0  0  0  0
   11.9738    1.5557   23.1887 C   0  0  0  0  0  0  0  0  0  0  0  0
   11.8268    5.0579   23.6591 C   0  0  0  0  0  0  0  0  0  0  0  0
   10.0642    6.2113   22.3594 C   0  0  0  0  0  0  0  0  0  0  0  0
   10.5011    7.0159   24.6488 C   0  0  0  0  0  0  0  0  0  0  0  0
    8.5793    6.3875   22.6351 C   0  0  0  0  0  0  0  0  0  0  0  0
    8.9934    7.1783   24.8100 C   0  0  0  0  0  0  0  0  0  0  0  0
   12.5920    2.8637   22.7874 C   0  0  0  0  0  0  0  0  0  0  0  0
   10.8118    6.0281   23.6056 N   0  0  0  0  0  0  0  0  0  0  0  0
   11.6402    3.9507   22.8398 N   0  0  0  0  0  0  0  0  0  0  0  0
   12.8196    5.1681   24.3862 O   0  0  0  0  0  0  0  0  0  0  0  0
    8.3775    7.4633   23.5535 O   0  0  0  0  0  0  0  0  0  0  0  0
    8.9580   -4.8205   25.1417 Br  0  0  0  0  0  0  0  0  0  0  0  0
   10.8116    3.9040   22.2613 H   0  0  0  0  0  0  0  0  0  0  0  0
  1  2  3  0  0  0  0
  1  7  1  0  0  0  0
  2 19  1  0  0  0  0
  3  5  2  0  0  0  0
  3  7  1  0  0  0  0
  4  6  1  0  0  0  0
  4  7  2  0  0  0  0
  5  8  1  0  0  0  0
  6  8  2  0  0  0  0
  8 14  1  0  0  0  0
  9 15  1  0  0  0  0
  9 16  1  0  0  0  0
  9 17  2  0  0  0  0
 10 12  1  0  0  0  0
 10 15  1  0  0  0  0
 11 13  1  0  0  0  0
 11 15  1  0  0  0  0
 12 18  1  0  0  0  0
 13 18  1  0  0  0  0
 14 16  1  0  0  0  0
 16 20  1  0  0  0  0
M  END

> <original SMILES>

O=C(NCc1ccc(C#CBr)cc1)N1CCOCC1

> <ref_mols>

x1249_0

> <ref_pdb>

receptors/Mpro-x1249-protein.pdb

> <Chemgauss4>

-3.539143

> <binding_free_energy>

-5.021450999999985

> <binding_std_error>

2.271114270203403

$$$$
KIM-UNI-7d12df64-4
  -OEChem-05122002103D

 22 24  0     1  0  0  0  0  0999 V2000
   12.9595    0.9535   22.9162 C   0  0  0  0  0  0  0  0  0  0  0  0
   12.1371   -0.0376   23.4542 C   0  0  0  0  0  0  0  0  0  0  0  0
   10.6471    1.6588   24.2968 C   0  0  0  0  0  0  0  0  0  0  0  0
   11.4720    2.6619   23.7649 C   0  0  0  0  0  0  0  0  0  0  0  0
   12.6356    2.3121   23.0499 C   0  0  0  0  0  0  0  0  0  0  0  0
   10.9799    0.3149   24.1416 C   0  0  0  0  0  0  0  0  0  0  0  0
    6.0472    5.4195   22.0570 C   0  0  0  0  0  0  0  0  0  0  0  0
   12.3105    5.0287   23.7676 C   0  0  0  0  0  0  0  0  0  0  0  0
   13.1082    4.6779   22.5156 C   0  0  0  0  0  0  0  0  0  0  0  0
    8.3685    6.2394   22.3023 C   0  0  0  0  0  0  0  0  0  0  0  0
    8.0351    3.8863   21.6507 C   0  0  0  0  0  0  0  0  0  0  0  0
    9.3580    5.8222   23.3804 C   0  0  0  0  0  0  0  0  0  0  0  0
    9.0217    3.4334   22.7185 C   0  0  0  0  0  0  0  0  0  0  0  0
   11.0920    4.1139   23.9377 C   0  0  1  0  0  0  0  0  0  0  0  0
    5.1355    4.2572   21.7544 C   0  0  0  0  0  0  0  0  0  0  0  0
   13.4835    3.2774   22.5223 N   0  0  0  0  0  0  0  0  0  0  0  0
    7.4173    5.1651   22.0175 N   0  0  0  0  0  0  0  0  0  0  0  0
   10.0303    4.5341   22.9606 N   0  3  0  0  0  0  0  0  0  0  0  0
    5.5545    6.5189   22.3228 O   0  0  0  0  0  0  0  0  0  0  0  0
    9.9634   -0.9080   24.7984 Cl  0  0  0  0  0  0  0  0  0  0  0  0
   14.4541    3.0314   22.3432 H   0  0  0  0  0  0  0  0  0  0  0  0
   10.5114    4.7128   22.0689 H   0  0  0  0  0  0  0  0  0  0  0  0
  1  2  2  0  0  0  0
  1  5  1  0  0  0  0
  2  6  1  0  0  0  0
  3  4  1  0  0  0  0
  3  6  2  0  0  0  0
  4  5  2  0  0  0  0
  4 14  1  0  0  0  0
  5 16  1  0  0  0  0
  6 20  1  0  0  0  0
  7 15  1  0  0  0  0
  7 17  1  0  0  0  0
  7 19  2  0  0  0  0
  8  9  1  0  0  0  0
  8 14  1  0  0  0  0
  9 16  1  0  0  0  0
 10 12  1  0  0  0  0
 10 17  1  0  0  0  0
 11 13  1  0  0  0  0
 11 17  1  0  0  0  0
 12 18  1  0  0  0  0
 13 18  1  0  0  0  0
 14 18  1  0  0  0  0
 16 21  1  0  0  0  0
 18 22  1  0  0  0  0
M  CHG  1  18   1
M  END

> <original SMILES>

CC(=O)N1CCN(C2CCNc3ccc(Cl)cc32)CC1

> <ref_mols>

x0305_0,x0770_0

> <ref_pdb>

receptors/Mpro-x0305-protein.pdb

> <Chemgauss4>

-3.695227

> <binding_free_energy>

-4.955479655769235

> <binding_std_error>

2.5067223356407573

$$$$
TRY-UNI-1fd04853-6
  -OEChem-05122002103D

 24 26  0     0  0  0  0  0  0999 V2000
   11.7765    1.1049   24.7441 C   0  0  0  0  0  0  0  0  0  0  0  0
   14.1490   -1.7293   24.3027 C   0  0  0  0  0  0  0  0  0  0  0  0
    7.4775   -1.8536   20.7006 C   0  0  0  0  0  0  0  0  0  0  0  0
   13.6094   -0.4434   24.2729 C   0  0  0  0  0  0  0  0  0  0  0  0
    8.1948   -2.7615   21.4775 C   0  0  0  0  0  0  0  0  0  0  0  0
   13.4081   -2.7845   24.8349 C   0  0  0  0  0  0  0  0  0  0  0  0
   11.5878   -1.2678   25.3077 C   0  0  0  0  0  0  0  0  0  0  0  0
    6.1981   -2.1959   20.2838 C   0  0  0  0  0  0  0  0  0  0  0  0
    6.8733   -6.0157   22.4796 C   0  0  0  0  0  0  0  0  0  0  0  0
   12.3288   -0.2127   24.7754 C   0  0  0  0  0  0  0  0  0  0  0  0
    7.5778   -3.9816   21.7976 C   0  0  0  0  0  0  0  0  0  0  0  0
   12.1275   -2.5537   25.3375 C   0  0  0  0  0  0  0  0  0  0  0  0
    7.9371   -5.1410   22.5346 C   0  0  0  0  0  0  0  0  0  0  0  0
    6.2905   -4.1948   21.3132 C   0  0  0  0  0  0  0  0  0  0  0  0
    9.5504   -4.3355   24.3026 C   0  0  0  0  0  0  0  0  0  0  0  0
    9.2150   -5.3772   23.2357 C   0  0  0  0  0  0  0  0  0  0  0  0
   11.3302   -3.6896   25.9104 C   0  0  0  0  0  0  0  0  0  0  0  0
   11.3280    2.1749   24.7185 N   0  0  0  0  0  0  0  0  0  0  0  0
    5.5552   -3.3541   20.5612 N   0  0  0  0  0  0  0  0  0  0  0  0
    5.8806   -5.4318   21.7361 N   0  0  0  0  0  0  0  0  0  0  0  0
   10.7944   -4.5477   24.8798 N   0  0  0  0  0  0  0  0  0  0  0  0
    8.7855   -3.4197   24.5943 O   0  0  0  0  0  0  0  0  0  0  0  0
    4.9840   -5.8498   21.5298 H   0  0  0  0  0  0  0  0  0  0  0  0
   11.3499   -5.3377   24.5651 H   0  0  0  0  0  0  0  0  0  0  0  0
  1 10  1  0  0  0  0
  1 18  3  0  0  0  0
  2  4  2  0  0  0  0
  2  6  1  0  0  0  0
  3  5  2  0  0  0  0
  3  8  1  0  0  0  0
  4 10  1  0  0  0  0
  5 11  1  0  0  0  0
  6 12  2  0  0  0  0
  7 10  2  0  0  0  0
  7 12  1  0  0  0  0
  8 19  2  0  0  0  0
  9 13  2  0  0  0  0
  9 20  1  0  0  0  0
 11 13  1  0  0  0  0
 11 14  2  0  0  0  0
 12 17  1  0  0  0  0
 13 16  1  0  0  0  0
 14 19  1  0  0  0  0
 14 20  1  0  0  0  0
 15 16  1  0  0  0  0
 15 21  1  0  0  0  0
 15 22  2  0  0  0  0
 17 21  1  0  0  0  0
 20 23  1  0  0  0  0
 21 24  1  0  0  0  0
M  END

> <original SMILES>

N#Cc1cccc(CNC(=O)Cc2c[nH]c3ncccc23)c1

> <ref_mols>

x0104_0,x0161_0,x0195_0,x0305_0,x0387_0,x0678_0,x1382_0

> <ref_pdb>

receptors/Mpro-x0387-protein.pdb

> <Chemgauss4>

-3.854483

> <binding_free_energy>

-4.934438742020198

> <binding_std_error>

3.2447487521411906

$$$$
JOH-MEM-5e386bbd-7
  -OEChem-05122002103D

 15 16  0     0  0  0  0  0  0999 V2000
   12.0472    0.5201   24.4956 C   0  0  0  0  0  0  0  0  0  0  0  0
   12.7045    0.2279   23.2971 C   0  0  0  0  0  0  0  0  0  0  0  0
   11.2663   -1.6898   22.9086 C   0  0  0  0  0  0  0  0  0  0  0  0
    9.2771   -1.3036   25.9507 C   0  0  0  0  0  0  0  0  0  0  0  0
   10.5888   -1.4151   24.1131 C   0  0  0  0  0  0  0  0  0  0  0  0
    9.5046   -2.0268   24.8025 C   0  0  0  0  0  0  0  0  0  0  0  0
   10.9941   -0.3187   24.8773 C   0  0  0  0  0  0  0  0  0  0  0  0
   12.3217   -0.8594   22.5142 C   0  0  0  0  0  0  0  0  0  0  0  0
    8.7813   -4.3751   25.3602 C   0  0  0  0  0  0  0  0  0  0  0  0
    8.7511   -3.2217   24.3723 C   0  0  0  0  0  0  0  0  0  0  0  0
   10.1802   -0.2752   25.9868 N   0  0  0  0  0  0  0  0  0  0  0  0
    7.7904   -4.8138   25.9348 O   0  0  0  0  0  0  0  0  0  0  0  0
   12.9812   -1.1186   21.3499 O   0  0  0  0  0  0  0  0  0  0  0  0
   10.2418    0.4159   26.7216 H   0  0  0  0  0  0  0  0  0  0  0  0
   12.6040   -1.9013   20.9189 H   0  0  0  0  0  0  0  0  0  0  0  0
  1  2  2  0  0  0  0
  1  7  1  0  0  0  0
  2  8  1  0  0  0  0
  3  5  1  0  0  0  0
  3  8  2  0  0  0  0
  4  6  2  0  0  0  0
  4 11  1  0  0  0  0
  5  6  1  0  0  0  0
  5  7  2  0  0  0  0
  6 10  1  0  0  0  0
  7 11  1  0  0  0  0
  8 13  1  0  0  0  0
  9 10  1  0  0  0  0
  9 12  2  0  0  0  0
 11 14  1  0  0  0  0
 13 15  1  0  0  0  0
M  END

> <original SMILES>

O=CCc1c[nH]c2ccc(O)cc12

> <ref_mols>

x0104_0

> <ref_pdb>

receptors/Mpro-x0104-protein.pdb

> <Chemgauss4>

-5.49808

> <binding_free_energy>

-4.924014294638694

> <binding_std_error>

3.2441110169557987

$$$$
JOH-UNI-522b0723-1
  -OEChem-05122002103D

 15 16  0     1  0  0  0  0  0999 V2000
    6.7622   -3.6793   21.6798 C   0  0  0  0  0  0  0  0  0  0  0  0
    8.5749   -4.3404   23.1893 C   0  0  0  0  0  0  0  0  0  0  0  0
    9.7832   -4.0086   23.7920 C   0  0  0  0  0  0  0  0  0  0  0  0
    9.7167   -1.9201   22.6561 C   0  0  0  0  0  0  0  0  0  0  0  0
    8.0003   -3.4131   22.3350 C   0  0  0  0  0  0  0  0  0  0  0  0
   10.3716   -2.7773   23.5256 C   0  0  0  0  0  0  0  0  0  0  0  0
   11.9355   -2.9415   25.4417 C   0  0  0  0  0  0  0  0  0  0  0  0
   13.4455   -2.9170   25.6435 C   0  0  0  0  0  0  0  0  0  0  0  0
   13.7567   -1.2677   24.0086 C   0  0  0  0  0  0  0  0  0  0  0  0
   12.2605   -1.1733   23.6903 C   0  0  2  0  0  0  0  0  0  0  0  0
   11.6237    0.0340   24.3878 C   0  0  0  0  0  0  0  0  0  0  0  0
    5.7545   -3.8959   21.1465 N   0  0  0  0  0  0  0  0  0  0  0  0
    8.5420   -2.2073   22.0517 N   0  0  0  0  0  0  0  0  0  0  0  0
   11.5873   -2.4161   24.1162 N   0  0  2  0  0  0  0  0  0  0  0  0
   13.9729   -1.6217   25.3729 O   0  0  0  0  0  0  0  0  0  0  0  0
  1  5  1  0  0  0  0
  1 12  3  0  0  0  0
  2  3  2  0  0  0  0
  2  5  1  0  0  0  0
  3  6  1  0  0  0  0
  4  6  2  0  0  0  0
  4 13  1  0  0  0  0
  5 13  2  0  0  0  0
  6 14  1  0  0  0  0
  7  8  1  0  0  0  0
  7 14  1  0  0  0  0
  8 15  1  0  0  0  0
  9 10  1  0  0  0  0
  9 15  1  0  0  0  0
 10 11  1  0  0  0  0
 10 14  1  0  0  0  0
M  END

> <original SMILES>

CC1COCCN1c1ccc(C#N)nc1

> <ref_mols>

x0434_0,x1077_0

> <ref_pdb>

receptors/Mpro-x1077-protein.pdb

> <Chemgauss4>

-6.372457

> <binding_free_energy>

-4.875031002121602

> <binding_std_error>

2.399832517845623

$$$$
ALE-HEI-f28a35b5-12
  -OEChem-05122002103D

 15 15  0     0  0  0  0  0  0999 V2000
    5.6013    0.9039   18.8447 C   0  0  0  0  0  0  0  0  0  0  0  0
    6.2987    0.6560   17.6734 C   0  0  0  0  0  0  0  0  0  0  0  0
    8.1831    0.0217   18.8243 C   0  0  0  0  0  0  0  0  0  0  0  0
    6.2583    0.6895   20.0512 C   0  0  0  0  0  0  0  0  0  0  0  0
    7.5741    0.2400   20.0495 C   0  0  0  0  0  0  0  0  0  0  0  0
    9.6560    0.1252   21.4619 C   0  0  0  0  0  0  0  0  0  0  0  0
    5.5304    0.9493   21.3292 C   0  0  0  0  0  0  0  0  0  0  0  0
   10.0073   -0.2194   22.9041 C   0  0  0  0  0  0  0  0  0  0  0  0
   10.3211   -1.6980   23.1271 C   0  0  0  0  0  0  0  0  0  0  0  0
   11.4509   -2.1834   22.2315 C   0  0  0  0  0  0  0  0  0  0  0  0
    7.5773    0.2189   17.6319 N   0  0  0  0  0  0  0  0  0  0  0  0
    8.2852    0.0067   21.2506 N   0  0  0  0  0  0  0  0  0  0  0  0
   10.5060    0.4747   20.6496 O   0  0  0  0  0  0  0  0  0  0  0  0
   13.0512   -1.1226   22.5604 Br  0  0  0  0  0  0  0  0  0  0  0  0
    7.7154   -0.2784   22.0445 H   0  0  0  0  0  0  0  0  0  0  0  0
  1  2  2  0  0  0  0
  1  4  1  0  0  0  0
  2 11  1  0  0  0  0
  3  5  1  0  0  0  0
  3 11  2  0  0  0  0
  4  5  2  0  0  0  0
  4  7  1  0  0  0  0
  5 12  1  0  0  0  0
  6  8  1  0  0  0  0
  6 12  1  0  0  0  0
  6 13  2  0  0  0  0
  8  9  1  0  0  0  0
  9 10  1  0  0  0  0
 10 14  1  0  0  0  0
 12 15  1  0  0  0  0
M  END

> <original SMILES>

Cc1ccncc1NC(=O)CCCBr

> <ref_mols>

x0107_0,x0395_0,x0434_0,x0678_0,x0967_0,x0991_0,x1093_0

> <ref_pdb>

receptors/Mpro-x0395-protein.pdb

> <Chemgauss4>

-4.6852

> <binding_free_energy>

-4.852358074840325

> <binding_std_error>

4.633860559087038

$$$$
LIZ-THE-6efed59f-3
  -OEChem-05122002103D

 14 14  0     0  0  0  0  0  0999 V2000
   12.9300    2.6939   22.8819 C   0  0  0  0  0  0  0  0  0  0  0  0
   11.3782    1.5586   24.3449 C   0  0  0  0  0  0  0  0  0  0  0  0
   13.4859    1.4670   22.5195 C   0  0  0  0  0  0  0  0  0  0  0  0
   11.9341    0.3317   23.9825 C   0  0  0  0  0  0  0  0  0  0  0  0
   11.8762    2.7397   23.7947 C   0  0  0  0  0  0  0  0  0  0  0  0
   12.9879    0.2859   23.0697 C   0  0  0  0  0  0  0  0  0  0  0  0
   11.8901    5.1049   23.5471 C   0  0  0  0  0  0  0  0  0  0  0  0
   14.9115   -1.4108   23.7947 N   0  0  0  0  0  0  0  0  0  0  0  0
   12.6865   -2.2882   22.8329 O   0  0  0  0  0  0  0  0  0  0  0  0
   14.3079   -1.1071   21.3087 O   0  0  0  0  0  0  0  0  0  0  0  0
   11.3333    3.9369   24.1481 O   0  0  0  0  0  0  0  0  0  0  0  0
   13.6843   -1.2500   22.6168 S   0  0  0  0  0  0  0  0  0  0  0  0
   14.7810   -2.1122   24.5339 H   0  0  0  0  0  0  0  0  0  0  0  0
   15.8873   -1.3034   23.4919 H   0  0  0  0  0  0  0  0  0  0  0  0
  1  3  2  0  0  0  0
  1  5  1  0  0  0  0
  2  4  1  0  0  0  0
  2  5  2  0  0  0  0
  3  6  1  0  0  0  0
  4  6  2  0  0  0  0
  5 11  1  0  0  0  0
  6 12  1  0  0  0  0
  7 11  1  0  0  0  0
  8 12  1  0  0  0  0
  9 12  2  0  0  0  0
 10 12  2  0  0  0  0
  8 13  1  0  0  0  0
  8 14  1  0  0  0  0
M  END

> <original SMILES>

COc1ccc(S(N)(=O)=O)cc1

> <ref_mols>

x0161_0

> <ref_pdb>

receptors/Mpro-x0161_0.pdb

> <Chemgauss4>

-6.073517

> <binding_free_energy>

-4.850195997979799

> <binding_std_error>

4.2134664388906735

$$$$
TRY-UNI-1fd04853-10
  -OEChem-05122002103D

 24 26  0     0  0  0  0  0  0999 V2000
   11.6203    0.8480   24.5351 C   0  0  0  0  0  0  0  0  0  0  0  0
    7.3841   -2.4546   20.7635 C   0  0  0  0  0  0  0  0  0  0  0  0
    8.1125   -3.2916   21.6069 C   0  0  0  0  0  0  0  0  0  0  0  0
   13.4414   -0.7339   24.1480 C   0  0  0  0  0  0  0  0  0  0  0  0
   11.4590   -1.4684   25.2947 C   0  0  0  0  0  0  0  0  0  0  0  0
    6.1017   -2.8343   20.3909 C   0  0  0  0  0  0  0  0  0  0  0  0
   13.9374   -2.0192   24.2950 C   0  0  0  0  0  0  0  0  0  0  0  0
    6.8125   -6.4523   22.8954 C   0  0  0  0  0  0  0  0  0  0  0  0
   12.1778   -0.4614   24.6602 C   0  0  0  0  0  0  0  0  0  0  0  0
    7.5030   -4.4817   22.0358 C   0  0  0  0  0  0  0  0  0  0  0  0
    7.8738   -5.5735   22.8647 C   0  0  0  0  0  0  0  0  0  0  0  0
   12.0437   -2.7209   25.3902 C   0  0  0  0  0  0  0  0  0  0  0  0
    6.2114   -4.7383   21.5851 C   0  0  0  0  0  0  0  0  0  0  0  0
    9.5027   -4.6169   24.5406 C   0  0  0  0  0  0  0  0  0  0  0  0
    9.1597   -5.7463   23.5696 C   0  0  0  0  0  0  0  0  0  0  0  0
   11.2970   -3.8327   26.0689 C   0  0  0  0  0  0  0  0  0  0  0  0
   11.1675    1.9117   24.4335 N   0  0  0  0  0  0  0  0  0  0  0  0
   13.2687   -3.0234   24.9050 N   0  0  0  0  0  0  0  0  0  0  0  0
    5.4656   -3.9662   20.7723 N   0  0  0  0  0  0  0  0  0  0  0  0
    5.8101   -5.9360   22.1157 N   0  0  0  0  0  0  0  0  0  0  0  0
   10.7533   -4.7764   25.1205 N   0  0  0  0  0  0  0  0  0  0  0  0
    8.7379   -3.6816   24.7618 O   0  0  0  0  0  0  0  0  0  0  0  0
    4.9128   -6.3722   21.9551 H   0  0  0  0  0  0  0  0  0  0  0  0
   11.3082   -5.5889   24.8680 H   0  0  0  0  0  0  0  0  0  0  0  0
  1  9  1  0  0  0  0
  1 17  3  0  0  0  0
  2  3  2  0  0  0  0
  2  6  1  0  0  0  0
  3 10  1  0  0  0  0
  4  7  2  0  0  0  0
  4  9  1  0  0  0  0
  5  9  2  0  0  0  0
  5 12  1  0  0  0  0
  6 19  2  0  0  0  0
  7 18  1  0  0  0  0
  8 11  2  0  0  0  0
  8 20  1  0  0  0  0
 10 11  1  0  0  0  0
 10 13  2  0  0  0  0
 11 15  1  0  0  0  0
 12 16  1  0  0  0  0
 12 18  2  0  0  0  0
 13 19  1  0  0  0  0
 13 20  1  0  0  0  0
 14 15  1  0  0  0  0
 14 21  1  0  0  0  0
 14 22  2  0  0  0  0
 16 21  1  0  0  0  0
 20 23  1  0  0  0  0
 21 24  1  0  0  0  0
M  END

> <original SMILES>

N#Cc1ccnc(CNC(=O)Cc2c[nH]c3ncccc23)c1

> <ref_mols>

x0104_0,x0161_0,x0195_0,x0305_0,x0387_0,x0678_0,x1382_0

> <ref_pdb>

receptors/Mpro-x0678_0.pdb

> <Chemgauss4>

-11.323847

> <binding_free_energy>

-4.8289640933458315

> <binding_std_error>

8.583979806044452

$$$$
RAJ-NOV-842d5654-2
  -OEChem-05122002103D

 22 24  0     1  0  0  0  0  0999 V2000
    6.4700   -5.1399   23.1101 C   0  0  0  0  0  0  0  0  0  0  0  0
   12.8362    0.6542   22.4552 C   0  0  0  0  0  0  0  0  0  0  0  0
   12.9140   -0.6776   22.0483 C   0  0  0  0  0  0  0  0  0  0  0  0
   11.8807    1.0418   23.3947 C   0  0  0  0  0  0  0  0  0  0  0  0
   12.0362   -1.6220   22.5806 C   0  0  0  0  0  0  0  0  0  0  0  0
   11.0029    0.0975   23.9270 C   0  0  0  0  0  0  0  0  0  0  0  0
    6.9026   -3.2816   21.5740 C   0  0  0  0  0  0  0  0  0  0  0  0
    8.7512   -1.8270   22.0748 C   0  0  0  0  0  0  0  0  0  0  0  0
    7.2255   -3.9965   22.7161 C   0  0  0  0  0  0  0  0  0  0  0  0
    7.6849   -2.1775   21.2542 C   0  0  0  0  0  0  0  0  0  0  0  0
   11.0807   -1.2344   23.5200 C   0  0  0  0  0  0  0  0  0  0  0  0
    8.9913   -2.6068   23.1946 C   0  0  0  0  0  0  0  0  0  0  0  0
    6.2014   -1.9014   19.2291 C   0  0  0  0  0  0  0  0  0  0  0  0
    6.9793    0.0936   20.3143 C   0  0  0  0  0  0  0  0  0  0  0  0
    5.4681    0.1259   20.1882 C   0  0  0  0  0  0  0  0  0  0  0  0
    7.3771   -1.3614   20.0195 C   0  0  1  0  0  0  0  0  0  0  0  0
   10.1267   -2.2597   24.0985 C   0  0  0  0  0  0  0  0  0  0  0  0
    5.8550   -6.0704   23.4307 N   0  0  0  0  0  0  0  0  0  0  0  0
    8.2534   -3.6864   23.5376 N   0  0  0  0  0  0  0  0  0  0  0  0
    5.1596   -0.9897   19.3403 N   0  0  0  0  0  0  0  0  0  0  0  0
    6.1816   -2.9674   18.6311 O   0  0  0  0  0  0  0  0  0  0  0  0
    4.2817   -1.0845   18.8333 H   0  0  0  0  0  0  0  0  0  0  0  0
  1  9  1  0  0  0  0
  1 18  3  0  0  0  0
  2  3  1  0  0  0  0
  2  4  2  0  0  0  0
  3  5  2  0  0  0  0
  4  6  1  0  0  0  0
  5 11  1  0  0  0  0
  6 11  2  0  0  0  0
  7  9  1  0  0  0  0
  7 10  2  0  0  0  0
  8 10  1  0  0  0  0
  8 12  2  0  0  0  0
  9 19  2  0  0  0  0
 10 16  1  0  0  0  0
 11 17  1  0  0  0  0
 12 17  1  0  0  0  0
 12 19  1  0  0  0  0
 13 16  1  0  0  0  0
 13 20  1  0  0  0  0
 13 21  2  0  0  0  0
 14 15  1  0  0  0  0
 14 16  1  0  0  0  0
 15 20  1  0  0  0  0
 20 22  1  0  0  0  0
M  END

> <original SMILES>

N#Cc1cc([C@@H]2CCNC2=O)cc(Cc2ccccc2)n1

> <ref_mols>

x0434_0

> <ref_pdb>

receptors/Mpro-x0434_0.pdb

> <Chemgauss4>

-8.105453

> <binding_free_energy>

-4.783998987755105

> <binding_std_error>

4.2134664388906735

$$$$
BEN-VAN-d8fd1356-18
  -OEChem-05122002103D

 22 24  0     0  0  0  0  0  0999 V2000
   12.0101    6.6738   24.6269 C   0  0  0  0  0  0  0  0  0  0  0  0
   11.0444   -0.3542   24.6918 C   0  0  0  0  0  0  0  0  0  0  0  0
    9.8570    5.6510   24.3067 C   0  0  0  0  0  0  0  0  0  0  0  0
    9.3632    1.3958   24.6005 C   0  0  0  0  0  0  0  0  0  0  0  0
   12.5765    5.5103   24.1318 C   0  0  0  0  0  0  0  0  0  0  0  0
   11.9053    0.4440   23.9125 C   0  0  0  0  0  0  0  0  0  0  0  0
   10.6238    6.7375   24.7128 C   0  0  0  0  0  0  0  0  0  0  0  0
   13.2215    0.2733   23.3992 C   0  0  0  0  0  0  0  0  0  0  0  0
   11.4641    1.7027   23.4988 C   0  0  0  0  0  0  0  0  0  0  0  0
   10.1999    2.2053   23.8267 C   0  0  0  0  0  0  0  0  0  0  0  0
    9.7769    0.1355   25.0274 C   0  0  0  0  0  0  0  0  0  0  0  0
   10.5198    4.5333   23.8257 C   0  0  0  0  0  0  0  0  0  0  0  0
   13.5476    1.4104   22.6966 C   0  0  0  0  0  0  0  0  0  0  0  0
    9.9619    7.9657   25.2381 C   0  0  0  0  0  0  0  0  0  0  0  0
   14.1452   -1.8021   22.3381 C   0  0  0  0  0  0  0  0  0  0  0  0
   14.0875   -0.9093   23.5817 C   0  0  0  0  0  0  0  0  0  0  0  0
   11.8645    4.4345   23.7275 N   0  0  0  0  0  0  0  0  0  0  0  0
   12.4814    2.2668   22.7626 N   0  0  0  0  0  0  0  0  0  0  0  0
    9.7800    3.4393   23.4173 O   0  0  0  0  0  0  0  0  0  0  0  0
    8.9544   -0.6169   25.7711 F   0  0  0  0  0  0  0  0  0  0  0  0
   14.6966    1.6463   22.0605 F   0  0  0  0  0  0  0  0  0  0  0  0
   12.4458    3.1803   22.3319 H   0  0  0  0  0  0  0  0  0  0  0  0
  1  5  2  0  0  0  0
  1  7  1  0  0  0  0
  2  6  1  0  0  0  0
  2 11  2  0  0  0  0
  3  7  2  0  0  0  0
  3 12  1  0  0  0  0
  4 10  2  0  0  0  0
  4 11  1  0  0  0  0
  5 17  1  0  0  0  0
  6  8  1  0  0  0  0
  6  9  2  0  0  0  0
  7 14  1  0  0  0  0
  8 13  2  0  0  0  0
  8 16  1  0  0  0  0
  9 10  1  0  0  0  0
  9 18  1  0  0  0  0
 10 19  1  0  0  0  0
 11 20  1  0  0  0  0
 12 17  2  0  0  0  0
 12 19  1  0  0  0  0
 13 18  1  0  0  0  0
 13 21  1  0  0  0  0
 15 16  1  0  0  0  0
 18 22  1  0  0  0  0
M  END

> <original SMILES>

CCc1c(F)[nH]c2c(Oc3cc(C)ccn3)cc(F)cc12

> <ref_mols>

x0104_0,x0107_0,x0946_0,x0995_0

> <ref_pdb>

receptors/Mpro-x0107-protein.pdb

> <Chemgauss4>

-7.605561

> <binding_free_energy>

-4.780475051089127

> <binding_std_error>

2.5131170694614577

$$$$
GIA-UNK-995df016-13
  -OEChem-05122002103D

 18 19  0     0  0  0  0  0  0999 V2000
    8.1165   -4.1658   22.4992 C   0  0  0  0  0  0  0  0  0  0  0  0
   12.1012   -1.8159   24.6579 C   0  0  0  0  0  0  0  0  0  0  0  0
    5.4397   -5.8208   23.2864 C   0  0  0  0  0  0  0  0  0  0  0  0
    6.1540   -6.2287   24.5624 C   0  0  0  0  0  0  0  0  0  0  0  0
    6.5061   -6.0183   22.2180 C   0  0  0  0  0  0  0  0  0  0  0  0
    7.5627   -5.6671   24.3976 C   0  0  0  0  0  0  0  0  0  0  0  0
    9.7433   -1.3769   23.9951 C   0  0  0  0  0  0  0  0  0  0  0  0
   10.3483   -3.4949   25.2644 C   0  0  0  0  0  0  0  0  0  0  0  0
    9.6282   -2.2207   22.7268 C   0  0  0  0  0  0  0  0  0  0  0  0
   10.1957   -4.2766   23.9589 C   0  0  0  0  0  0  0  0  0  0  0  0
    7.8097   -5.5997   22.8909 C   0  0  0  0  0  0  0  0  0  0  0  0
   10.6636   -2.0122   25.0423 C   0  0  0  0  0  0  0  0  0  0  0  0
   14.1375   -0.9332   26.2691 C   0  0  0  0  0  0  0  0  0  0  0  0
    9.2640   -3.5990   23.0523 N   0  0  0  0  0  0  0  0  0  0  0  0
    7.3552   -3.5756   21.7283 O   0  0  0  0  0  0  0  0  0  0  0  0
   12.4460   -1.2696   23.6170 O   0  0  0  0  0  0  0  0  0  0  0  0
   15.0747   -1.2100   27.2146 F   0  0  0  0  0  0  0  0  0  0  0  0
   13.2444   -2.4426   25.8451 S   0  0  0  0  0  0  0  0  0  0  0  0
  1 11  1  0  0  0  0
  1 14  1  0  0  0  0
  1 15  2  0  0  0  0
  2 12  1  0  0  0  0
  2 16  2  0  0  0  0
  2 18  1  0  0  0  0
  3  4  1  0  0  0  0
  3  5  1  0  0  0  0
  4  6  1  0  0  0  0
  5 11  1  0  0  0  0
  6 11  1  0  0  0  0
  7  9  1  0  0  0  0
  7 12  1  0  0  0  0
  8 10  1  0  0  0  0
  8 12  1  0  0  0  0
  9 14  1  0  0  0  0
 10 14  1  0  0  0  0
 13 17  1  0  0  0  0
 13 18  1  0  0  0  0
M  END

> <original SMILES>

O=C(SCF)C1CCN(C(=O)C2CCCC2)CC1

> <ref_mols>

x1334_0

> <ref_pdb>

receptors/protein-0387.pdb

> <Chemgauss4>

-4.65887403488159

> <binding_free_energy>

-4.718276419999995

> <binding_std_error>

0.36023481867199514

$$$$
ALE-HEI-f28a35b5-6
  -OEChem-05122002103D

 18 19  0     0  0  0  0  0  0999 V2000
    5.8182    0.8224   19.1868 C   0  0  0  0  0  0  0  0  0  0  0  0
    6.4583    0.5496   17.9886 C   0  0  0  0  0  0  0  0  0  0  0  0
    8.4945    0.3154   19.0266 C   0  0  0  0  0  0  0  0  0  0  0  0
    6.5853    0.8346   20.3464 C   0  0  0  0  0  0  0  0  0  0  0  0
    7.9498    0.5774   20.2734 C   0  0  0  0  0  0  0  0  0  0  0  0
   10.1227    0.9082   21.5027 C   0  0  0  0  0  0  0  0  0  0  0  0
   14.1018   -0.6669   23.1015 C   0  0  0  0  0  0  0  0  0  0  0  0
   13.2571   -0.6211   21.8322 C   0  0  0  0  0  0  0  0  0  0  0  0
   13.3807   -0.0337   24.2874 C   0  0  0  0  0  0  0  0  0  0  0  0
   11.8780   -1.2414   22.0495 C   0  0  0  0  0  0  0  0  0  0  0  0
   12.0018   -0.6540   24.5056 C   0  0  0  0  0  0  0  0  0  0  0  0
   11.1265   -0.6352   23.2438 C   0  0  0  0  0  0  0  0  0  0  0  0
    5.9211    1.1264   21.6519 C   0  0  0  0  0  0  0  0  0  0  0  0
   10.6137    0.7736   22.9326 C   0  0  0  0  0  0  0  0  0  0  0  0
    7.7814    0.2949   17.8782 N   0  0  0  0  0  0  0  0  0  0  0  0
    8.7727    0.5780   21.4248 N   0  0  0  0  0  0  0  0  0  0  0  0
   10.8577    1.2626   20.5869 O   0  0  0  0  0  0  0  0  0  0  0  0
    8.3110    0.3034   22.2894 H   0  0  0  0  0  0  0  0  0  0  0  0
  1  2  2  0  0  0  0
  1  4  1  0  0  0  0
  2 15  1  0  0  0  0
  3  5  1  0  0  0  0
  3 15  2  0  0  0  0
  4  5  2  0  0  0  0
  4 13  1  0  0  0  0
  5 16  1  0  0  0  0
  6 14  1  0  0  0  0
  6 16  1  0  0  0  0
  6 17  2  0  0  0  0
  7  8  1  0  0  0  0
  7  9  1  0  0  0  0
  8 10  1  0  0  0  0
  9 11  1  0  0  0  0
 10 12  1  0  0  0  0
 11 12  1  0  0  0  0
 12 14  1  0  0  0  0
 16 18  1  0  0  0  0
M  END

> <original SMILES>

Cc1ccncc1NC(=O)CC1CCCCC1

> <ref_mols>

x0107_0,x0395_0,x0434_0,x0678_0,x0967_0,x0991_0,x1093_0

> <ref_pdb>

receptors/Mpro-x0395-protein.pdb

> <Chemgauss4>

-5.637848

> <binding_free_energy>

-4.6801727144897995

> <binding_std_error>

4.217838701639092

$$$$
GIA-UNK-995df016-9
  -OEChem-05122002103D

 17 17  0     1  0  0  0  0  0999 V2000
   11.7652   -1.1995   24.5159 C   0  0  0  0  0  0  0  0  0  0  0  0
    7.9391   -3.8729   22.4488 C   0  0  0  0  0  0  0  0  0  0  0  0
    9.4010   -0.9200   23.7923 C   0  0  0  0  0  0  0  0  0  0  0  0
   10.0858   -2.9233   25.1997 C   0  0  0  0  0  0  0  0  0  0  0  0
    9.3498   -1.8446   22.5774 C   0  0  0  0  0  0  0  0  0  0  0  0
    9.9949   -3.7902   23.9432 C   0  0  0  0  0  0  0  0  0  0  0  0
   10.3323   -1.4431   24.8905 C   0  0  0  0  0  0  0  0  0  0  0  0
    5.4190   -4.6881   23.8733 C   0  0  0  0  0  0  0  0  0  0  0  0
    7.0694   -6.0584   21.7706 C   0  0  0  0  0  0  0  0  0  0  0  0
    6.7919   -5.2861   24.1532 C   0  0  0  0  0  0  0  0  0  0  0  0
   13.9921   -2.2341   25.7376 C   0  0  0  0  0  0  0  0  0  0  0  0
    7.6973   -5.2844   22.9213 C   0  0  2  0  0  0  0  0  0  0  0  0
    9.0475   -3.2168   22.9825 N   0  0  0  0  0  0  0  0  0  0  0  0
   12.1665   -1.2214   23.3586 O   0  0  0  0  0  0  0  0  0  0  0  0
    7.1638   -3.3698   21.6316 O   0  0  0  0  0  0  0  0  0  0  0  0
   13.3355   -3.4204   25.8397 F   0  0  0  0  0  0  0  0  0  0  0  0
   12.8138   -0.8769   25.8964 S   0  0  0  0  0  0  0  0  0  0  0  0
  1  7  1  0  0  0  0
  1 14  2  0  0  0  0
  1 17  1  0  0  0  0
  2 12  1  0  0  0  0
  2 13  1  0  0  0  0
  2 15  2  0  0  0  0
  3  5  1  0  0  0  0
  3  7  1  0  0  0  0
  4  6  1  0  0  0  0
  4  7  1  0  0  0  0
  5 13  1  0  0  0  0
  6 13  1  0  0  0  0
  8 10  1  0  0  0  0
  9 12  1  0  0  0  0
 10 12  1  0  0  0  0
 11 16  1  0  0  0  0
 11 17  1  0  0  0  0
M  END

> <original SMILES>

CCC(C)C(=O)N1CCC(C(=O)SCF)CC1

> <ref_mols>

x1334_0

> <ref_pdb>

receptors/Mpro-x1334-protein.pdb

> <Chemgauss4>

-5.60957

> <binding_free_energy>

-4.621734419999996

> <binding_std_error>

2.3285913804593648

$$$$
JOH-UNI-9dc98897-2
  -OEChem-05122002103D

 19 20  0     1  0  0  0  0  0999 V2000
    6.3810   -3.4489   21.5653 C   0  0  0  0  0  0  0  0  0  0  0  0
    9.6245   -3.8660   23.3163 C   0  0  0  0  0  0  0  0  0  0  0  0
    9.0810   -1.5782   22.9597 C   0  0  0  0  0  0  0  0  0  0  0  0
    7.6218   -3.1931   22.2243 C   0  0  0  0  0  0  0  0  0  0  0  0
    8.4340   -4.2152   22.6885 C   0  0  0  0  0  0  0  0  0  0  0  0
    9.9616   -2.5245   23.4585 C   0  0  0  0  0  0  0  0  0  0  0  0
   12.8435   -2.8514   25.7980 C   0  0  0  0  0  0  0  0  0  0  0  0
   11.3816   -2.5388   25.4775 C   0  0  0  0  0  0  0  0  0  0  0  0
   12.1377   -1.3646   23.3269 C   0  0  0  0  0  0  0  0  0  0  0  0
   13.6921   -1.6089   26.0264 C   0  0  0  0  0  0  0  0  0  0  0  0
   12.8802   -0.3438   24.1807 C   0  0  0  0  0  0  0  0  0  0  0  0
    8.0730   -5.6537   22.5385 C   0  0  0  0  0  0  0  0  0  0  0  0
    5.3727   -3.6568   21.0297 N   0  0  0  0  0  0  0  0  0  0  0  0
    7.9156   -1.8790   22.3440 N   0  0  0  0  0  0  0  0  0  0  0  0
   11.1547   -2.1429   24.0855 N   0  0  3  0  0  0  0  0  0  0  0  0
   14.0056   -0.9290   24.8206 O   0  0  0  0  0  0  0  0  0  0  0  0
    9.0008   -6.5092   23.0619 F   0  0  0  0  0  0  0  0  0  0  0  0
    6.8969   -5.9893   23.1473 F   0  0  0  0  0  0  0  0  0  0  0  0
    7.9282   -6.0261   21.2331 F   0  0  0  0  0  0  0  0  0  0  0  0
  1  4  1  0  0  0  0
  1 13  3  0  0  0  0
  2  5  1  0  0  0  0
  2  6  2  0  0  0  0
  3  6  1  0  0  0  0
  3 14  2  0  0  0  0
  4  5  2  0  0  0  0
  4 14  1  0  0  0  0
  5 12  1  0  0  0  0
  6 15  1  0  0  0  0
  7  8  1  0  0  0  0
  7 10  1  0  0  0  0
  8 15  1  0  0  0  0
  9 11  1  0  0  0  0
  9 15  1  0  0  0  0
 10 16  1  0  0  0  0
 11 16  1  0  0  0  0
 12 17  1  0  0  0  0
 12 18  1  0  0  0  0
 12 19  1  0  0  0  0
M  END

> <original SMILES>

N#Cc1ncc(N2CCCOCC2)cc1C(F)(F)F

> <ref_mols>

x1077_0

> <ref_pdb>

receptors/Mpro-x1077-protein.pdb

> <Chemgauss4>

-6.727108

> <binding_free_energy>

-4.597449300808094

> <binding_std_error>

2.3240605586809293

$$$$
GIA-UNK-995df016-6
  -OEChem-05122002103D

 14 14  0     0  0  0  0  0  0999 V2000
   10.5179   -1.7496   24.4362 C   0  0  0  0  0  0  0  0  0  0  0  0
    6.7300   -4.5538   21.6479 C   0  0  0  0  0  0  0  0  0  0  0  0
    9.3524   -3.9197   24.3061 C   0  0  0  0  0  0  0  0  0  0  0  0
    9.7908   -2.5453   22.1962 C   0  0  0  0  0  0  0  0  0  0  0  0
    8.5949   -4.8171   23.3337 C   0  0  0  0  0  0  0  0  0  0  0  0
    8.2749   -2.6769   22.0822 C   0  0  0  0  0  0  0  0  0  0  0  0
   10.3032   -2.9621   23.5804 C   0  0  0  0  0  0  0  0  0  0  0  0
    6.3352   -5.9754   21.9651 C   0  0  0  0  0  0  0  0  0  0  0  0
   13.1487   -2.4351   24.7976 C   0  0  0  0  0  0  0  0  0  0  0  0
    7.8296   -4.0479   22.3440 N   0  0  0  0  0  0  0  0  0  0  0  0
    9.6561   -1.2944   25.1786 O   0  0  0  0  0  0  0  0  0  0  0  0
    6.0830   -3.9135   20.8158 O   0  0  0  0  0  0  0  0  0  0  0  0
   12.8443   -2.7664   26.0807 F   0  0  0  0  0  0  0  0  0  0  0  0
   12.1256   -1.0437   24.2750 S   0  0  0  0  0  0  0  0  0  0  0  0
  1  7  1  0  0  0  0
  1 11  2  0  0  0  0
  1 14  1  0  0  0  0
  2  8  1  0  0  0  0
  2 10  1  0  0  0  0
  2 12  2  0  0  0  0
  3  5  1  0  0  0  0
  3  7  1  0  0  0  0
  4  6  1  0  0  0  0
  4  7  1  0  0  0  0
  5 10  1  0  0  0  0
  6 10  1  0  0  0  0
  9 13  1  0  0  0  0
  9 14  1  0  0  0  0
M  END

> <original SMILES>

CC(=O)N1CCC(C(=O)SCF)CC1

> <ref_mols>

x1334_0

> <ref_pdb>

receptors/protein-0387.pdb

> <Chemgauss4>

-5.49905109405518

> <binding_free_energy>

-4.588001366666667

> <binding_std_error>

1.7903012885602556

$$$$
ANT-DIA-045cfdc4-2
  -OEChem-05122002103D

 18 19  0     1  0  0  0  0  0999 V2000
   11.7270   -0.3563   24.1656 C   0  0  0  0  0  0  0  0  0  0  0  0
   13.0076   -0.3054   23.6605 C   0  0  0  0  0  0  0  0  0  0  0  0
   11.4807   -1.5457   22.1840 C   0  0  0  0  0  0  0  0  0  0  0  0
   10.8425   -1.0749   23.3104 C   0  0  0  0  0  0  0  0  0  0  0  0
    8.7194    0.2357   21.6957 C   0  0  0  0  0  0  0  0  0  0  0  0
    7.2292   -2.3240   23.2938 C   0  0  0  0  0  0  0  0  0  0  0  0
    8.7140   -2.5623   23.0544 C   0  0  0  0  0  0  0  0  0  0  0  0
    7.0244   -0.8126   23.1755 C   0  0  0  0  0  0  0  0  0  0  0  0
    9.3746   -1.2932   23.6062 C   0  0  2  0  0  0  0  0  0  0  0  0
    8.4230   -0.1878   23.1080 C   0  0  1  0  0  0  0  0  0  0  0  0
    4.8379    1.0247   18.6611 C   0  0  0  0  0  0  0  0  0  0  0  0
    8.2187   -0.2835   19.3162 C   0  0  0  0  0  0  0  0  0  0  0  0
    7.1571    0.6981   18.8545 C   0  0  0  0  0  0  0  0  0  0  0  0
    8.0758   -0.5205   20.7348 N   0  0  0  0  0  0  0  0  0  0  0  0
    9.4747    1.1793   21.4939 O   0  0  0  0  0  0  0  0  0  0  0  0
    5.8685    0.1426   19.0841 O   0  0  0  0  0  0  0  0  0  0  0  0
   13.1396   -1.1216   22.1609 S   0  0  0  0  0  0  0  0  0  0  0  0
    7.4734   -1.2791   21.0399 H   0  0  0  0  0  0  0  0  0  0  0  0
  1  2  2  0  0  0  0
  1  4  1  0  0  0  0
  2 17  1  0  0  0  0
  3  4  2  0  0  0  0
  3 17  1  0  0  0  0
  4  9  1  0  0  0  0
  5 10  1  0  0  0  0
  5 14  1  0  0  0  0
  5 15  2  0  0  0  0
  6  7  1  0  0  0  0
  6  8  1  0  0  0  0
  7  9  1  0  0  0  0
  8 10  1  0  0  0  0
  9 10  1  0  0  0  0
 11 16  1  0  0  0  0
 12 13  1  0  0  0  0
 12 14  1  0  0  0  0
 13 16  1  0  0  0  0
 14 18  1  0  0  0  0
M  END

> <original SMILES>

COCCNC(=O)[C@H]1CCC[C@H]1c1ccsc1

> <ref_mols>

x0874_0

> <ref_pdb>

receptors/Mpro-x0874-protein.pdb

> <Chemgauss4>

-5.258567

> <binding_free_energy>

-4.564108238019799

> <binding_std_error>

2.4095805125920924

$$$$
ANN-UNI-26382800-7
  -OEChem-05122002103D

 23 25  0     1  0  0  0  0  0999 V2000
    9.0020   -4.4885   25.4893 C   0  0  0  0  0  0  0  0  0  0  0  0
    6.8338   -4.7876   24.4925 C   0  0  0  0  0  0  0  0  0  0  0  0
   12.8127    0.4094   23.3157 C   0  0  0  0  0  0  0  0  0  0  0  0
    8.5494   -5.2319   26.5673 C   0  0  0  0  0  0  0  0  0  0  0  0
    6.4782   -5.5178   25.6151 C   0  0  0  0  0  0  0  0  0  0  0  0
   13.9047    0.1175   22.5284 C   0  0  0  0  0  0  0  0  0  0  0  0
   11.9297   -1.2047   21.8954 C   0  0  0  0  0  0  0  0  0  0  0  0
   11.6685   -0.3566   22.9492 C   0  0  0  0  0  0  0  0  0  0  0  0
    8.1217   -4.2666   24.4362 C   0  0  0  0  0  0  0  0  0  0  0  0
    9.5068    1.0544   21.5911 C   0  0  0  0  0  0  0  0  0  0  0  0
    9.8509   -1.5582   24.2972 C   0  0  0  0  0  0  0  0  0  0  0  0
    8.5339   -1.1403   22.2824 C   0  0  0  0  0  0  0  0  0  0  0  0
   10.3192   -0.2483   23.6403 C   0  0  2  0  0  0  0  0  0  0  0  0
    9.1437    0.1681   22.7409 C   0  0  1  0  0  0  0  0  0  0  0  0
    8.5594   -3.4676   23.2441 C   0  0  0  0  0  0  0  0  0  0  0  0
    7.3057   -5.7542   26.6577 N   0  0  0  0  0  0  0  0  0  0  0  0
   10.0799    2.2458   21.9687 N   0  0  0  0  0  0  0  0  0  0  0  0
    8.6266   -1.9998   23.5157 N   0  3  1  0  0  0  0  0  0  0  0  0
    9.3168    0.7206   20.4241 O   0  0  0  0  0  0  0  0  0  0  0  0
   13.5487   -1.0757   21.3529 S   0  0  0  0  0  0  0  0  0  0  0  0
   10.2104    2.4315   22.9576 H   0  0  0  0  0  0  0  0  0  0  0  0
   10.3776    2.9468   21.2980 H   0  0  0  0  0  0  0  0  0  0  0  0
    7.8068   -1.7676   24.1021 H   0  0  0  0  0  0  0  0  0  0  0  0
  1  4  2  0  0  0  0
  1  9  1  0  0  0  0
  2  5  1  0  0  0  0
  2  9  2  0  0  0  0
  3  6  2  0  0  0  0
  3  8  1  0  0  0  0
  4 16  1  0  0  0  0
  5 16  2  0  0  0  0
  6 20  1  0  0  0  0
  7  8  2  0  0  0  0
  7 20  1  0  0  0  0
  8 13  1  0  0  0  0
  9 15  1  0  0  0  0
 10 14  1  0  0  0  0
 10 17  1  0  0  0  0
 10 19  2  0  0  0  0
 11 13  1  0  0  0  0
 11 18  1  0  0  0  0
 12 14  1  0  0  0  0
 12 18  1  0  0  0  0
 13 14  1  0  0  0  0
 15 18  1  0  0  0  0
 17 21  1  0  0  0  0
 17 22  1  0  0  0  0
 18 23  1  0  0  0  0
M  CHG  1  18   1
M  END

> <original SMILES>

NC(=O)[C@H]1CN(Cc2ccncc2)C[C@H]1c1ccsc1

> <ref_mols>

x0104_0,x0305_0,x0434_0,x0678_0,x1093_0,x1249_0

> <ref_pdb>

receptors/protein-0387.pdb

> <Chemgauss4>

-5.78348684310913

> <binding_free_energy>

-4.547553338775504

> <binding_std_error>

2.7200166431385107

$$$$
MAK-UNK-acefcb18-15
  -OEChem-05122002103D

 23 25  0     1  0  0  0  0  0999 V2000
   12.1765    5.9957   23.1745 C   0  0  0  0  0  0  0  0  0  0  0  0
   10.5177    4.9479   24.5843 C   0  0  0  0  0  0  0  0  0  0  0  0
   12.7595    4.7513   22.9355 C   0  0  0  0  0  0  0  0  0  0  0  0
   11.1007    3.7034   24.3453 C   0  0  0  0  0  0  0  0  0  0  0  0
    9.2232   -3.0558   22.2968 C   0  0  0  0  0  0  0  0  0  0  0  0
    8.4361   -3.5601   23.3086 C   0  0  0  0  0  0  0  0  0  0  0  0
   10.2632   -2.1576   24.1714 C   0  0  0  0  0  0  0  0  0  0  0  0
   11.0556    6.0941   23.9989 C   0  0  0  0  0  0  0  0  0  0  0  0
   10.2818   -2.2434   22.7965 C   0  0  0  0  0  0  0  0  0  0  0  0
   12.2216    3.6052   23.5209 C   0  0  0  0  0  0  0  0  0  0  0  0
   13.8823    2.0950   22.5157 C   0  0  0  0  0  0  0  0  0  0  0  0
   12.3991    1.1325   23.7806 C   0  0  0  0  0  0  0  0  0  0  0  0
   10.4324    7.4247   24.2544 C   0  0  0  0  0  0  0  0  0  0  0  0
   11.3031   -1.5568   21.9196 C   0  0  0  0  0  0  0  0  0  0  0  0
   13.2920   -1.2044   23.4826 C   0  0  0  0  0  0  0  0  0  0  0  0
   12.7390   -1.9667   22.2753 C   0  0  2  0  0  0  0  0  0  0  0  0
   14.2299    0.8498   22.4536 N   0  0  0  0  0  0  0  0  0  0  0  0
   12.7997    2.3701   23.2837 N   0  0  0  0  0  0  0  0  0  0  0  0
   13.3159    0.2197   23.2386 N   0  0  0  0  0  0  0  0  0  0  0  0
   11.4580    0.8916   24.5239 O   0  0  0  0  0  0  0  0  0  0  0  0
   13.5835   -1.7394   21.1467 O   0  0  0  0  0  0  0  0  0  0  0  0
    8.9737   -3.0542   24.8537 S   0  0  0  0  0  0  0  0  0  0  0  0
   14.4750   -2.0099   21.4132 H   0  0  0  0  0  0  0  0  0  0  0  0
  1  3  2  0  0  0  0
  1  8  1  0  0  0  0
  2  4  1  0  0  0  0
  2  8  2  0  0  0  0
  3 10  1  0  0  0  0
  4 10  2  0  0  0  0
  5  6  2  0  0  0  0
  5  9  1  0  0  0  0
  6 22  1  0  0  0  0
  7  9  2  0  0  0  0
  7 22  1  0  0  0  0
  8 13  1  0  0  0  0
  9 14  1  0  0  0  0
 10 18  1  0  0  0  0
 11 17  2  0  0  0  0
 11 18  1  0  0  0  0
 12 18  1  0  0  0  0
 12 19  1  0  0  0  0
 12 20  2  0  0  0  0
 14 16  1  0  0  0  0
 15 16  1  0  0  0  0
 15 19  1  0  0  0  0
 16 21  1  0  0  0  0
 17 19  1  0  0  0  0
 21 23  1  0  0  0  0
M  END

> <original SMILES>

Cc1ccc(-n2cnn(CC(O)Cc3ccsc3)c2=O)cc1

> <ref_mols>

x0387_0

> <ref_pdb>

receptors/Mpro-x0387_0.pdb

> <Chemgauss4>

-5.26538

> <binding_free_energy>

-4.535173950000008

> <binding_std_error>

2.306318829187289

$$$$
ANT-DIA-b7f58f21-1
  -OEChem-05122002103D

 14 14  0     0  0  0  0  0  0999 V2000
    5.1738    1.2228   18.9197 C   0  0  0  0  0  0  0  0  0  0  0  0
    5.4881    0.4041   19.9987 C   0  0  0  0  0  0  0  0  0  0  0  0
    5.9454    1.1109   17.7743 C   0  0  0  0  0  0  0  0  0  0  0  0
    7.2593   -0.5242   18.7113 C   0  0  0  0  0  0  0  0  0  0  0  0
    6.5494   -0.4889   19.9007 C   0  0  0  0  0  0  0  0  0  0  0  0
    5.4355   -5.7637   23.2966 C   0  0  0  0  0  0  0  0  0  0  0  0
    6.9152   -1.3912   21.0536 C   0  0  0  0  0  0  0  0  0  0  0  0
    6.1849   -2.7314   21.0158 C   0  0  0  0  0  0  0  0  0  0  0  0
    6.9838    0.2555   17.6418 N   0  0  0  0  0  0  0  0  0  0  0  0
    6.5282   -3.5950   22.1598 N   0  0  0  0  0  0  0  0  0  0  0  0
    7.8244   -5.8332   22.2297 O   0  0  0  0  0  0  0  0  0  0  0  0
    5.8179   -5.5988   20.7213 O   0  0  0  0  0  0  0  0  0  0  0  0
    6.5076   -5.2903   21.9593 S   0  0  0  0  0  0  0  0  0  0  0  0
    7.2598   -3.2080   22.7701 H   0  0  0  0  0  0  0  0  0  0  0  0
  1  2  2  0  0  0  0
  1  3  1  0  0  0  0
  2  5  1  0  0  0  0
  3  9  2  0  0  0  0
  4  5  2  0  0  0  0
  4  9  1  0  0  0  0
  5  7  1  0  0  0  0
  6 13  1  0  0  0  0
  7  8  1  0  0  0  0
  8 10  1  0  0  0  0
 10 13  1  0  0  0  0
 11 13  2  0  0  0  0
 12 13  2  0  0  0  0
 10 14  1  0  0  0  0
M  END

> <original SMILES>

CS(=O)(=O)NCCc1cccnc1

> <ref_mols>

x0072_0,x0305_0,x0387_0

> <ref_pdb>

receptors/Mpro-x0387-protein.pdb

> <Chemgauss4>

-4.852027

> <binding_free_energy>

-4.5157380376309675

> <binding_std_error>

2.2900528469840338

$$$$
ALV-UNI-7ff1a6f9-4
  -OEChem-05122002103D

 23 26  0     0  0  0  0  0  0999 V2000
    8.0757    0.3375   24.2686 C   0  0  0  0  0  0  0  0  0  0  0  0
    9.9290   -0.6537   25.4601 C   0  0  0  0  0  0  0  0  0  0  0  0
    7.2718   -0.7481   24.6158 C   0  0  0  0  0  0  0  0  0  0  0  0
    9.1251   -1.7393   25.8074 C   0  0  0  0  0  0  0  0  0  0  0  0
   13.2218   -0.1732   23.4742 C   0  0  0  0  0  0  0  0  0  0  0  0
   11.2238   -0.5617   22.1930 C   0  0  0  0  0  0  0  0  0  0  0  0
   11.3024    4.8579   24.1366 C   0  0  0  0  0  0  0  0  0  0  0  0
   13.7281   -1.3470   22.9398 C   0  0  0  0  0  0  0  0  0  0  0  0
   11.8196   -1.7181   21.7158 C   0  0  0  0  0  0  0  0  0  0  0  0
   13.2579    4.3324   22.8469 C   0  0  0  0  0  0  0  0  0  0  0  0
    9.4044    0.3847   24.6906 C   0  0  0  0  0  0  0  0  0  0  0  0
   12.4571    5.2798   23.4771 C   0  0  0  0  0  0  0  0  0  0  0  0
   11.0202    3.4860   24.1207 C   0  0  0  0  0  0  0  0  0  0  0  0
   11.9451    0.2199   23.0886 C   0  0  0  0  0  0  0  0  0  0  0  0
    7.7964   -1.7865   25.3853 C   0  0  0  0  0  0  0  0  0  0  0  0
   11.9057    2.6512   23.4531 C   0  0  0  0  0  0  0  0  0  0  0  0
   10.2388    1.5119   24.3308 C   0  0  0  0  0  0  0  0  0  0  0  0
   12.8258    6.7224   23.4493 C   0  0  0  0  0  0  0  0  0  0  0  0
   13.0575   -2.1324   22.0674 N   0  0  0  0  0  0  0  0  0  0  0  0
   13.0290    2.9973   22.8028 N   0  0  0  0  0  0  0  0  0  0  0  0
    9.9868    2.7606   24.6620 N   0  0  0  0  0  0  0  0  0  0  0  0
   11.3897    1.3946   23.5986 N   0  0  0  0  0  0  0  0  0  0  0  0
    7.0242   -2.8287   25.7197 F   0  0  0  0  0  0  0  0  0  0  0  0
  1  3  2  0  0  0  0
  1 11  1  0  0  0  0
  2  4  1  0  0  0  0
  2 11  2  0  0  0  0
  3 15  1  0  0  0  0
  4 15  2  0  0  0  0
  5  8  2  0  0  0  0
  5 14  1  0  0  0  0
  6  9  1  0  0  0  0
  6 14  2  0  0  0  0
  7 12  2  0  0  0  0
  7 13  1  0  0  0  0
  8 19  1  0  0  0  0
  9 19  2  0  0  0  0
 10 12  1  0  0  0  0
 10 20  2  0  0  0  0
 11 17  1  0  0  0  0
 12 18  1  0  0  0  0
 13 16  2  0  0  0  0
 13 21  1  0  0  0  0
 14 22  1  0  0  0  0
 15 23  1  0  0  0  0
 16 20  1  0  0  0  0
 16 22  1  0  0  0  0
 17 21  2  0  0  0  0
 17 22  1  0  0  0  0
M  END

> <original SMILES>

Cc1cnc2c(c1)nc(-c1ccc(F)cc1)n2-c1ccncc1

> <ref_mols>

x0395_0,x0426_0,x0434_0,x0540_0,x0678_0,x0830_0,x1093_0

> <ref_pdb>

receptors/Mpro-x0434_0.pdb

> <Chemgauss4>

-7.619211

> <binding_free_energy>

-4.499827710100988

> <binding_std_error>

4.982815937686146

$$$$
ALV-UNI-7ff1a6f9-42
  -OEChem-05122002103D

 22 25  0     0  0  0  0  0  0999 V2000
   10.2080   -0.5415   25.4931 C   0  0  0  0  0  0  0  0  0  0  0  0
    8.3407    0.5071   24.3747 C   0  0  0  0  0  0  0  0  0  0  0  0
    9.3521   -1.5139   26.0104 C   0  0  0  0  0  0  0  0  0  0  0  0
    7.4848   -0.4653   24.8920 C   0  0  0  0  0  0  0  0  0  0  0  0
   11.4268   -0.8194   21.9714 C   0  0  0  0  0  0  0  0  0  0  0  0
   13.5139   -0.3835   23.0844 C   0  0  0  0  0  0  0  0  0  0  0  0
   11.9925   -1.9864   21.4837 C   0  0  0  0  0  0  0  0  0  0  0  0
   13.9861   -1.5702   22.5470 C   0  0  0  0  0  0  0  0  0  0  0  0
    9.7023    0.4690   24.6753 C   0  0  0  0  0  0  0  0  0  0  0  0
   12.2086   -0.0082   22.7863 C   0  0  0  0  0  0  0  0  0  0  0  0
    7.9906   -1.4758   25.7098 C   0  0  0  0  0  0  0  0  0  0  0  0
   10.5815    1.4680   24.1441 C   0  0  0  0  0  0  0  0  0  0  0  0
   11.6674    1.2186   23.3207 C   0  0  0  0  0  0  0  0  0  0  0  0
   11.4164    3.3543   23.7450 C   0  0  0  0  0  0  0  0  0  0  0  0
   13.2404    2.9781   22.3664 C   0  0  0  0  0  0  0  0  0  0  0  0
   13.2948    4.3191   22.4769 C   0  0  0  0  0  0  0  0  0  0  0  0
   14.2904    5.2276   21.8486 C   0  0  0  0  0  0  0  0  0  0  0  0
   13.2565   -2.3841   21.7514 N   0  0  0  0  0  0  0  0  0  0  0  0
   10.4297    2.8169   24.4070 N   0  0  0  0  0  0  0  0  0  0  0  0
   12.1881    2.4529   23.0784 N   0  0  0  0  0  0  0  0  0  0  0  0
    7.1687   -2.4096   26.2067 F   0  0  0  0  0  0  0  0  0  0  0  0
   11.9927    4.9742   23.5041 S   0  0  0  0  0  0  0  0  0  0  0  0
  1  3  2  0  0  0  0
  1  9  1  0  0  0  0
  2  4  1  0  0  0  0
  2  9  2  0  0  0  0
  3 11  1  0  0  0  0
  4 11  2  0  0  0  0
  5  7  2  0  0  0  0
  5 10  1  0  0  0  0
  6  8  1  0  0  0  0
  6 10  2  0  0  0  0
  7 18  1  0  0  0  0
  8 18  2  0  0  0  0
  9 12  1  0  0  0  0
 10 13  1  0  0  0  0
 11 21  1  0  0  0  0
 12 13  2  0  0  0  0
 12 19  1  0  0  0  0
 13 20  1  0  0  0  0
 14 19  2  0  0  0  0
 14 20  1  0  0  0  0
 14 22  1  0  0  0  0
 15 16  2  0  0  0  0
 15 20  1  0  0  0  0
 16 17  1  0  0  0  0
 16 22  1  0  0  0  0
M  END

> <original SMILES>

Cc1cn2c(-c3ccncc3)c(-c3ccc(F)cc3)nc2s1

> <ref_mols>

x0395_0,x0426_0,x0434_0,x0540_0,x0678_0,x0830_0,x1093_0

> <ref_pdb>

receptors/Mpro-x1093-protein.pdb

> <Chemgauss4>

-7.158023

> <binding_free_energy>

-4.458121942307688

> <binding_std_error>

2.279755344564229

$$$$
ALE-UNK-fca05062-5
  -OEChem-05122002103D

 18 18  0     1  0  0  0  0  0999 V2000
   11.2105   -1.8785   23.6570 C   0  0  0  0  0  0  0  0  0  0  0  0
   12.4650   -1.8455   23.0481 C   0  0  0  0  0  0  0  0  0  0  0  0
   10.6607   -0.7104   24.1852 C   0  0  0  0  0  0  0  0  0  0  0  0
   13.1697   -0.6444   22.9674 C   0  0  0  0  0  0  0  0  0  0  0  0
   11.3653    0.4906   24.1046 C   0  0  0  0  0  0  0  0  0  0  0  0
   12.6198    0.5237   23.4956 C   0  0  0  0  0  0  0  0  0  0  0  0
   13.2785    3.9733   22.6060 C   0  0  0  0  0  0  0  0  0  0  0  0
   14.5111   -0.6296   22.3114 C   0  0  0  0  0  0  0  0  0  0  0  0
   10.7597    1.7302   24.6761 C   0  0  0  0  0  0  0  0  0  0  0  0
    9.5361    6.0153   22.7096 C   0  0  0  0  0  0  0  0  0  0  0  0
   12.9574    6.2429   24.5409 C   0  0  0  0  0  0  0  0  0  0  0  0
   13.0990    2.5072   22.2742 C   0  0  0  0  0  0  0  0  0  0  0  0
   10.5472    6.2998   23.8129 C   0  0  0  0  0  0  0  0  0  0  0  0
   11.9827    5.9419   23.4071 C   0  0  2  0  0  0  0  0  0  0  0  0
   12.0914    4.5526   23.0275 N   0  0  0  0  0  0  0  0  0  0  0  0
   14.3579    4.5498   22.5042 O   0  0  0  0  0  0  0  0  0  0  0  0
   13.3151    1.7073   23.4172 O   0  0  0  0  0  0  0  0  0  0  0  0
   11.2585    3.9723   23.0715 H   0  0  0  0  0  0  0  0  0  0  0  0
  1  2  1  0  0  0  0
  1  3  2  0  0  0  0
  2  4  2  0  0  0  0
  3  5  1  0  0  0  0
  4  6  1  0  0  0  0
  4  8  1  0  0  0  0
  5  6  2  0  0  0  0
  5  9  1  0  0  0  0
  6 17  1  0  0  0  0
  7 12  1  0  0  0  0
  7 15  1  0  0  0  0
  7 16  2  0  0  0  0
 10 13  1  0  0  0  0
 11 14  1  0  0  0  0
 12 17  1  0  0  0  0
 13 14  1  0  0  0  0
 14 15  1  0  0  0  0
 15 18  1  0  0  0  0
M  END

> <original SMILES>

CCC(C)NC(=O)COc1c(C)cccc1C

> <ref_mols>

x0072_0

> <ref_pdb>

receptors/Mpro-x0072_0.pdb

> <Chemgauss4>

-6.854546

> <binding_free_energy>

-4.414732433333331

> <binding_std_error>

4.432960513500769

$$$$
ANT-DIA-3c79be55-3
  -OEChem-05122002103D

 27 29  0     0  0  0  0  0  0999 V2000
   13.4964   -1.5423   22.1046 C   0  0  0  0  0  0  0  0  0  0  0  0
    6.8271   -1.0073   20.5424 C   0  0  0  0  0  0  0  0  0  0  0  0
   13.4252    0.8245   22.6599 C   0  0  0  0  0  0  0  0  0  0  0  0
    7.6845   -1.5716   21.4852 C   0  0  0  0  0  0  0  0  0  0  0  0
   12.7741    1.9324   23.2023 C   0  0  0  0  0  0  0  0  0  0  0  0
   10.8790    0.5434   23.7648 C   0  0  0  0  0  0  0  0  0  0  0  0
    5.8243   -1.7963   19.9949 C   0  0  0  0  0  0  0  0  0  0  0  0
    7.4271   -5.0413   22.5967 C   0  0  0  0  0  0  0  0  0  0  0  0
   12.8032   -0.4240   22.6699 C   0  0  0  0  0  0  0  0  0  0  0  0
    7.4840   -2.9177   21.8311 C   0  0  0  0  0  0  0  0  0  0  0  0
    8.1026   -3.8453   22.7106 C   0  0  0  0  0  0  0  0  0  0  0  0
   11.5011    1.7919   23.7548 C   0  0  0  0  0  0  0  0  0  0  0  0
   11.5301   -0.5645   23.2224 C   0  0  0  0  0  0  0  0  0  0  0  0
    6.4398   -3.5914   21.2043 C   0  0  0  0  0  0  0  0  0  0  0  0
    9.6097   -2.1038   23.7589 C   0  0  0  0  0  0  0  0  0  0  0  0
   10.5069    5.2030   24.9711 C   0  0  0  0  0  0  0  0  0  0  0  0
    9.2595   -3.5864   23.5909 C   0  0  0  0  0  0  0  0  0  0  0  0
   11.4233    4.2193   24.3268 C   0  0  0  0  0  0  0  0  0  0  0  0
   14.0581   -2.4486   21.6464 N   0  0  0  0  0  0  0  0  0  0  0  0
    5.5851   -3.0953   20.2897 N   0  0  0  0  0  0  0  0  0  0  0  0
    6.4211   -4.8760   21.6803 N   0  0  0  0  0  0  0  0  0  0  0  0
   10.8722   -1.8173   23.2457 N   0  0  0  0  0  0  0  0  0  0  0  0
   10.8434    2.9121   24.3037 N   0  0  0  0  0  0  0  0  0  0  0  0
    8.8287   -1.3210   24.2903 O   0  0  0  0  0  0  0  0  0  0  0  0
    5.7665   -5.5919   21.3974 H   0  0  0  0  0  0  0  0  0  0  0  0
   11.3811   -2.6001   22.8402 H   0  0  0  0  0  0  0  0  0  0  0  0
    9.9308    2.7594   24.6898 H   0  0  0  0  0  0  0  0  0  0  0  0
  1  9  1  0  0  0  0
  1 19  3  0  0  0  0
  2  4  2  0  0  0  0
  2  7  1  0  0  0  0
  3  5  2  0  0  0  0
  3  9  1  0  0  0  0
  4 10  1  0  0  0  0
  5 12  1  0  0  0  0
  6 12  2  0  0  0  0
  6 13  1  0  0  0  0
  7 20  2  0  0  0  0
  8 11  2  0  0  0  0
  8 21  1  0  0  0  0
  9 13  2  0  0  0  0
 10 11  1  0  0  0  0
 10 14  2  0  0  0  0
 11 17  1  0  0  0  0
 12 23  1  0  0  0  0
 13 22  1  0  0  0  0
 14 20  1  0  0  0  0
 14 21  1  0  0  0  0
 15 17  1  0  0  0  0
 15 22  1  0  0  0  0
 15 24  2  0  0  0  0
 16 18  1  0  0  0  0
 18 23  1  0  0  0  0
 21 25  1  0  0  0  0
 22 26  1  0  0  0  0
 23 27  1  0  0  0  0
M  END

> <original SMILES>

CCNc1ccc(C#N)c(NC(=O)Cc2c[nH]c3ncccc23)c1

> <ref_mols>

x0072_0,x0305_0,x0387_0,x0434_0,x0678_0,x0830_0,x1249_0

> <ref_pdb>

receptors/Mpro-x0678-protein.pdb

> <Chemgauss4>

-6.859785

> <binding_free_energy>

-4.352120296734711

> <binding_std_error>

3.183958925966327

$$$$
MIH-UNI-6b9ca91a-4
  -OEChem-05122002103D

 23 25  0     1  0  0  0  0  0999 V2000
    5.8623    0.3078   19.0201 C   0  0  0  0  0  0  0  0  0  0  0  0
    6.8676    0.0433   19.9435 C   0  0  0  0  0  0  0  0  0  0  0  0
   13.1732   -0.4843   24.1825 C   0  0  0  0  0  0  0  0  0  0  0  0
    6.2105    0.3625   17.6802 C   0  0  0  0  0  0  0  0  0  0  0  0
    8.4167   -0.0804   18.1432 C   0  0  0  0  0  0  0  0  0  0  0  0
   14.4320   -0.9455   24.4991 C   0  0  0  0  0  0  0  0  0  0  0  0
   13.2686   -2.4396   22.9294 C   0  0  0  0  0  0  0  0  0  0  0  0
   12.4991   -1.3498   23.2732 C   0  0  0  0  0  0  0  0  0  0  0  0
    8.1720   -0.1556   19.5049 C   0  0  0  0  0  0  0  0  0  0  0  0
   11.0082    0.2034   21.9345 C   0  0  0  0  0  0  0  0  0  0  0  0
   10.0450   -1.0845   23.8658 C   0  0  0  0  0  0  0  0  0  0  0  0
   11.0986   -1.0982   22.7461 C   0  0  2  0  0  0  0  0  0  0  0  0
    9.5791    0.4809   21.4646 C   0  0  1  0  0  0  0  0  0  0  0  0
    8.6592   -0.7882   23.2876 C   0  0  1  0  0  0  0  0  0  0  0  0
    7.4663    0.1745   17.2162 N   0  0  0  0  0  0  0  0  0  0  0  0
    9.1930   -0.4207   20.4007 N   0  0  0  0  0  0  0  0  0  0  0  0
    7.6876   -0.8088   24.4198 N   0  3  0  0  0  0  0  0  0  0  0  0
    8.6610    0.4430   22.5618 O   0  0  0  0  0  0  0  0  0  0  0  0
   14.7967   -2.4163   23.7017 S   0  0  0  0  0  0  0  0  0  0  0  0
    9.7011   -1.2916   20.3095 H   0  0  0  0  0  0  0  0  0  0  0  0
    6.8299   -0.3137   24.1651 H   0  0  0  0  0  0  0  0  0  0  0  0
    8.0892   -0.3561   25.2443 H   0  0  0  0  0  0  0  0  0  0  0  0
    7.4443   -1.7711   24.6658 H   0  0  0  0  0  0  0  0  0  0  0  0
  1  2  2  0  0  0  0
  1  4  1  0  0  0  0
  2  9  1  0  0  0  0
  3  6  2  0  0  0  0
  3  8  1  0  0  0  0
  4 15  2  0  0  0  0
  5  9  2  0  0  0  0
  5 15  1  0  0  0  0
  6 19  1  0  0  0  0
  7  8  2  0  0  0  0
  7 19  1  0  0  0  0
  8 12  1  0  0  0  0
  9 16  1  0  0  0  0
 10 12  1  0  0  0  0
 10 13  1  0  0  0  0
 11 12  1  0  0  0  0
 11 14  1  0  0  0  0
 13 16  1  0  0  0  0
 13 18  1  0  0  0  0
 14 17  1  0  0  0  0
 14 18  1  0  0  0  0
 16 20  1  0  0  0  0
 17 21  1  0  0  0  0
 17 22  1  0  0  0  0
 17 23  1  0  0  0  0
M  CHG  1  17   1
M  END

> <original SMILES>

N[C@@H]1C[C@H](c2ccsc2)C[C@@H](Nc2cccnc2)O1

> <ref_mols>

x0072_0,x0107_0,x0161_0,x0305_0,x0387_0,x0434_0,x0874_0

> <ref_pdb>

receptors/protein-0387.pdb

> <Chemgauss4>

-5.77264451980591

> <binding_free_energy>

-4.337976189186328

> <binding_std_error>

6.445024368473439

$$$$
BET-COM-8a5969bb-2
  -OEChem-05122002103D

 14 13  0     1  0  0  0  0  0999 V2000
    9.3191   -2.2518   21.7167 C   0  0  0  0  0  0  0  0  0  0  0  0
   11.8981   -2.7323   24.2836 C   0  0  0  0  0  0  0  0  0  0  0  0
    9.1438   -2.6466   22.9891 C   0  0  0  0  0  0  0  0  0  0  0  0
   12.2751   -1.5870   24.8833 C   0  0  0  0  0  0  0  0  0  0  0  0
    7.1807   -5.1269   22.1739 C   0  0  0  0  0  0  0  0  0  0  0  0
    8.2987   -1.8315   23.9291 C   0  0  0  0  0  0  0  0  0  0  0  0
   13.4041   -0.6996   24.4424 C   0  0  0  0  0  0  0  0  0  0  0  0
   11.5480   -1.0968   26.1080 C   0  0  0  0  0  0  0  0  0  0  0  0
    6.3664   -6.2086   21.5312 C   0  0  0  0  0  0  0  0  0  0  0  0
   10.7821   -3.6669   24.6690 C   0  0  0  0  0  0  0  0  0  0  0  0
    8.7514   -4.9736   23.9326 C   0  0  0  0  0  0  0  0  0  0  0  0
    9.7957   -3.9277   23.5075 C   0  0  1  0  0  0  0  0  0  0  0  0
    6.8904   -3.9387   22.1395 O   0  0  0  0  0  0  0  0  0  0  0  0
    8.2736   -5.6714   22.7889 O   0  0  0  0  0  0  0  0  0  0  0  0
  1  3  2  0  0  0  0
  2  4  2  0  0  0  0
  2 10  1  0  0  0  0
  3  6  1  0  0  0  0
  3 12  1  0  0  0  0
  4  7  1  0  0  0  0
  4  8  1  0  0  0  0
  5  9  1  0  0  0  0
  5 13  2  0  0  0  0
  5 14  1  0  0  0  0
 10 12  1  0  0  0  0
 11 12  1  0  0  0  0
 11 14  1  0  0  0  0
M  END

> <original SMILES>

C=C(C)C(CC=C(C)C)COC(C)=O

> <ref_mols>

x0072_0

> <ref_pdb>

receptors/Mpro-x0072_0.pdb

> <Chemgauss4>

-6.531806

> <binding_free_energy>

-4.318645227319587

> <binding_std_error>

2.367875229187281

$$$$
ANT-DIA-b7f58f21-4
  -OEChem-05122002103D

 13 13  0     0  0  0  0  0  0999 V2000
   13.9257   -2.0488   23.7773 C   0  0  0  0  0  0  0  0  0  0  0  0
   13.5900   -1.2189   24.8470 C   0  0  0  0  0  0  0  0  0  0  0  0
   13.8557   -1.5652   22.4708 C   0  0  0  0  0  0  0  0  0  0  0  0
   13.1843    0.0945   24.6102 C   0  0  0  0  0  0  0  0  0  0  0  0
   13.4500   -0.2519   22.2340 C   0  0  0  0  0  0  0  0  0  0  0  0
   13.1142    0.5780   23.3037 C   0  0  0  0  0  0  0  0  0  0  0  0
   10.4484    4.3957   23.5914 C   0  0  0  0  0  0  0  0  0  0  0  0
   10.0794    5.7524   23.0898 C   0  0  0  0  0  0  0  0  0  0  0  0
   12.6802    1.9821   23.0497 C   0  0  0  0  0  0  0  0  0  0  0  0
   11.1658    2.1306   22.8586 C   0  0  0  0  0  0  0  0  0  0  0  0
   10.7788    3.4907   22.5955 N   0  0  0  0  0  0  0  0  0  0  0  0
   10.4391    4.1740   24.7966 O   0  0  0  0  0  0  0  0  0  0  0  0
   10.7459    3.8049   21.6269 H   0  0  0  0  0  0  0  0  0  0  0  0
  1  2  1  0  0  0  0
  1  3  2  0  0  0  0
  2  4  2  0  0  0  0
  3  5  1  0  0  0  0
  4  6  1  0  0  0  0
  5  6  2  0  0  0  0
  6  9  1  0  0  0  0
  7  8  1  0  0  0  0
  7 11  1  0  0  0  0
  7 12  2  0  0  0  0
  9 10  1  0  0  0  0
 10 11  1  0  0  0  0
 11 13  1  0  0  0  0
M  END

> <original SMILES>

CC(=O)NCCc1ccccc1

> <ref_mols>

x0072_0,x0305_0,x0387_0

> <ref_pdb>

receptors/protein-0387.pdb

> <Chemgauss4>

-4.91220235824585

> <binding_free_energy>

-4.278186221989122

> <binding_std_error>

5.915663866517959

$$$$
DAR-DIA-842b4336-20
  -OEChem-05122002103D

 22 24  0     0  0  0  0  0  0999 V2000
    6.1839    0.9845   17.5897 C   0  0  0  0  0  0  0  0  0  0  0  0
   13.2231   -0.1838   22.2314 C   0  0  0  0  0  0  0  0  0  0  0  0
   12.6624   -1.4497   22.0721 C   0  0  0  0  0  0  0  0  0  0  0  0
   10.4093   -2.7133   22.4876 C   0  0  0  0  0  0  0  0  0  0  0  0
   12.4436    0.8281   22.7755 C   0  0  0  0  0  0  0  0  0  0  0  0
    5.1727   -1.1900   18.4821 C   0  0  0  0  0  0  0  0  0  0  0  0
    6.0320   -0.1198   18.4526 C   0  0  0  0  0  0  0  0  0  0  0  0
   11.3294   -1.6318   22.4742 C   0  0  0  0  0  0  0  0  0  0  0  0
    9.2259   -2.2468   23.0183 C   0  0  0  0  0  0  0  0  0  0  0  0
   10.6642   -0.5301   23.0042 C   0  0  0  0  0  0  0  0  0  0  0  0
    6.4696   -1.3770   20.1271 C   0  0  0  0  0  0  0  0  0  0  0  0
    6.9587   -2.8791   22.0892 C   0  0  0  0  0  0  0  0  0  0  0  0
    7.9442   -2.9350   23.2624 C   0  0  0  0  0  0  0  0  0  0  0  0
    6.3088    1.8937   16.8793 N   0  0  0  0  0  0  0  0  0  0  0  0
   11.1574    0.7105   23.1794 N   0  0  0  0  0  0  0  0  0  0  0  0
    5.4582   -1.9922   19.5572 N   0  0  0  0  0  0  0  0  0  0  0  0
    9.3917   -0.9216   23.3276 N   0  0  0  0  0  0  0  0  0  0  0  0
    7.1791   -1.7599   21.2903 N   0  0  0  0  0  0  0  0  0  0  0  0
    6.1048   -3.7462   21.9338 O   0  0  0  0  0  0  0  0  0  0  0  0
    6.8771   -0.2315   19.5151 O   0  0  0  0  0  0  0  0  0  0  0  0
    8.6860   -0.3219   23.7326 H   0  0  0  0  0  0  0  0  0  0  0  0
    7.9390   -1.1459   21.5761 H   0  0  0  0  0  0  0  0  0  0  0  0
  1  7  1  0  0  0  0
  1 14  3  0  0  0  0
  2  3  2  0  0  0  0
  2  5  1  0  0  0  0
  3  8  1  0  0  0  0
  4  8  1  0  0  0  0
  4  9  2  0  0  0  0
  5 15  2  0  0  0  0
  6  7  2  0  0  0  0
  6 16  1  0  0  0  0
  7 20  1  0  0  0  0
  8 10  2  0  0  0  0
  9 13  1  0  0  0  0
  9 17  1  0  0  0  0
 10 15  1  0  0  0  0
 10 17  1  0  0  0  0
 11 16  2  0  0  0  0
 11 18  1  0  0  0  0
 11 20  1  0  0  0  0
 12 13  1  0  0  0  0
 12 18  1  0  0  0  0
 12 19  2  0  0  0  0
 17 21  1  0  0  0  0
 18 22  1  0  0  0  0
M  END

> <original SMILES>

N#Cc1cnc(NC(=O)Cc2cc3cccnc3[nH]2)o1

> <ref_mols>

x0434_0,x0678_0,x1093_0

> <ref_pdb>

receptors/Mpro-x0434-protein.pdb

> <Chemgauss4>

-5.165152

> <binding_free_energy>

-4.258651075051574

> <binding_std_error>

3.1060674417970247

$$$$
DUN-NEW-f8ce3686-12
  -OEChem-05122002103D

 19 20  0     0  0  0  0  0  0999 V2000
    6.4581   -4.0941   20.8026 C   0  0  0  0  0  0  0  0  0  0  0  0
    7.7767   -5.8101   21.9324 C   0  0  0  0  0  0  0  0  0  0  0  0
    8.7418   -6.2053   22.8632 C   0  0  0  0  0  0  0  0  0  0  0  0
    8.0800   -3.4743   22.5231 C   0  0  0  0  0  0  0  0  0  0  0  0
   10.6489   -4.0476   25.0594 C   0  0  0  0  0  0  0  0  0  0  0  0
    7.4494   -4.4662   21.7633 C   0  0  0  0  0  0  0  0  0  0  0  0
    9.0562   -3.8487   23.4678 C   0  0  0  0  0  0  0  0  0  0  0  0
    9.8748   -3.1318   24.3848 C   0  0  0  0  0  0  0  0  0  0  0  0
    9.3639   -5.2028   23.6157 C   0  0  0  0  0  0  0  0  0  0  0  0
   12.9898   -0.9185   25.5753 C   0  0  0  0  0  0  0  0  0  0  0  0
   14.2723   -1.5902   25.9392 C   0  0  0  0  0  0  0  0  0  0  0  0
    9.8973   -1.6687   24.5851 C   0  0  0  0  0  0  0  0  0  0  0  0
   11.1104   -0.9667   23.9481 C   0  0  0  0  0  0  0  0  0  0  0  0
    5.6535   -3.7920   20.0228 N   0  0  0  0  0  0  0  0  0  0  0  0
   10.3338   -5.2939   24.5885 N   0  0  0  0  0  0  0  0  0  0  0  0
   12.3572   -1.4605   24.4680 N   0  0  0  0  0  0  0  0  0  0  0  0
   12.5910    0.0262   26.2462 O   0  0  0  0  0  0  0  0  0  0  0  0
   10.7523   -6.1565   24.9081 H   0  0  0  0  0  0  0  0  0  0  0  0
   12.7981   -2.2496   23.9979 H   0  0  0  0  0  0  0  0  0  0  0  0
  1  6  1  0  0  0  0
  1 14  3  0  0  0  0
  2  3  2  0  0  0  0
  2  6  1  0  0  0  0
  3  9  1  0  0  0  0
  4  6  2  0  0  0  0
  4  7  1  0  0  0  0
  5  8  2  0  0  0  0
  5 15  1  0  0  0  0
  7  8  1  0  0  0  0
  7  9  2  0  0  0  0
  8 12  1  0  0  0  0
  9 15  1  0  0  0  0
 10 11  1  0  0  0  0
 10 16  1  0  0  0  0
 10 17  2  0  0  0  0
 12 13  1  0  0  0  0
 13 16  1  0  0  0  0
 15 18  1  0  0  0  0
 16 19  1  0  0  0  0
M  END

> <original SMILES>

CC(=O)NCCc1c[nH]c2ccc(C#N)cc12

> <ref_mols>

x0072_0,x1458_0

> <ref_pdb>

receptors/protein-0387.pdb

> <Chemgauss4>

-5.37841176986694

> <binding_free_energy>

-4.2510171154084375

> <binding_std_error>

4.564662517114905

$$$$
JOH-MSK-ec639444-3
  -OEChem-05122002103D

 19 20  0     0  0  0  0  0  0999 V2000
   14.2185   -0.6653   21.9340 C   0  0  0  0  0  0  0  0  0  0  0  0
   13.1157   -1.5075   22.0792 C   0  0  0  0  0  0  0  0  0  0  0  0
   10.8766   -1.9341   22.9775 C   0  0  0  0  0  0  0  0  0  0  0  0
   14.2166    0.5937   22.5272 C   0  0  0  0  0  0  0  0  0  0  0  0
    9.7720   -1.5126   23.7181 C   0  0  0  0  0  0  0  0  0  0  0  0
   10.8729    0.5887   24.1662 C   0  0  0  0  0  0  0  0  0  0  0  0
   11.9952   -1.0995   22.8211 C   0  0  0  0  0  0  0  0  0  0  0  0
   11.9933    0.1807   23.4243 C   0  0  0  0  0  0  0  0  0  0  0  0
   13.1120    1.0153   23.2678 C   0  0  0  0  0  0  0  0  0  0  0  0
    9.7701   -0.2536   24.3113 C   0  0  0  0  0  0  0  0  0  0  0  0
   11.9498    5.4755   24.0143 C   0  0  0  0  0  0  0  0  0  0  0  0
   12.2722    6.8150   24.5888 C   0  0  0  0  0  0  0  0  0  0  0  0
    8.7549    1.4574   25.6143 C   0  0  0  0  0  0  0  0  0  0  0  0
   13.1759    2.3811   23.8784 C   0  0  0  0  0  0  0  0  0  0  0  0
   12.9505    3.5091   22.8677 C   0  0  0  0  0  0  0  0  0  0  0  0
   13.0382    4.8118   23.4712 N   0  0  0  0  0  0  0  0  0  0  0  0
   10.7972    5.0616   24.0564 O   0  0  0  0  0  0  0  0  0  0  0  0
    8.6912    0.1559   25.0333 O   0  0  0  0  0  0  0  0  0  0  0  0
   13.9476    5.2702   23.5009 H   0  0  0  0  0  0  0  0  0  0  0  0
  1  2  2  0  0  0  0
  1  4  1  0  0  0  0
  2  7  1  0  0  0  0
  3  5  2  0  0  0  0
  3  7  1  0  0  0  0
  4  9  2  0  0  0  0
  5 10  1  0  0  0  0
  6  8  1  0  0  0  0
  6 10  2  0  0  0  0
  7  8  2  0  0  0  0
  8  9  1  0  0  0  0
  9 14  1  0  0  0  0
 10 18  1  0  0  0  0
 11 12  1  0  0  0  0
 11 16  1  0  0  0  0
 11 17  2  0  0  0  0
 13 18  1  0  0  0  0
 14 15  1  0  0  0  0
 15 16  1  0  0  0  0
 16 19  1  0  0  0  0
M  END

> <original SMILES>

COc1ccc2cccc(CCNC(C)=O)c2c1

> <ref_mols>

x0104_0

> <ref_pdb>

receptors/Mpro-x0104_0.pdb

> <Chemgauss4>

-7.377326

> <binding_free_energy>

-4.2470196787149845

> <binding_std_error>

4.348605673771911

$$$$
CHR-SOS-7098f804-21
  -OEChem-05122002103D

 18 19  0     0  0  0  0  0  0999 V2000
   11.3191    0.4181   24.5418 C   0  0  0  0  0  0  0  0  0  0  0  0
   10.6445    0.5342   23.3266 C   0  0  0  0  0  0  0  0  0  0  0  0
   12.4412   -0.4046   24.6409 C   0  0  0  0  0  0  0  0  0  0  0  0
    5.8560    0.8801   19.1972 C   0  0  0  0  0  0  0  0  0  0  0  0
   12.2139   -0.9953   22.3092 C   0  0  0  0  0  0  0  0  0  0  0  0
    6.3430    0.6809   17.9155 C   0  0  0  0  0  0  0  0  0  0  0  0
    8.4605    0.2429   18.6918 C   0  0  0  0  0  0  0  0  0  0  0  0
   11.0918   -0.1725   22.2103 C   0  0  0  0  0  0  0  0  0  0  0  0
    8.0727    0.4218   20.0099 C   0  0  0  0  0  0  0  0  0  0  0  0
   12.8886   -1.1113   23.5246 C   0  0  0  0  0  0  0  0  0  0  0  0
    6.7438    0.7462   20.2589 C   0  0  0  0  0  0  0  0  0  0  0  0
   10.3875   -0.0514   20.9439 C   0  0  0  0  0  0  0  0  0  0  0  0
    7.6270    0.3647   17.6344 N   0  0  0  0  0  0  0  0  0  0  0  0
    9.0255    0.2712   21.0489 N   0  0  0  0  0  0  0  0  0  0  0  0
   10.9541   -0.2558   19.8612 O   0  0  0  0  0  0  0  0  0  0  0  0
   14.2735   -2.1259   23.6473 Cl  0  0  0  0  0  0  0  0  0  0  0  0
    6.1588    0.9896   21.8644 Cl  0  0  0  0  0  0  0  0  0  0  0  0
    8.6768    0.4157   21.9932 H   0  0  0  0  0  0  0  0  0  0  0  0
  1  2  2  0  0  0  0
  1  3  1  0  0  0  0
  2  8  1  0  0  0  0
  3 10  2  0  0  0  0
  4  6  2  0  0  0  0
  4 11  1  0  0  0  0
  5  8  2  0  0  0  0
  5 10  1  0  0  0  0
  6 13  1  0  0  0  0
  7  9  1  0  0  0  0
  7 13  2  0  0  0  0
  8 12  1  0  0  0  0
  9 11  2  0  0  0  0
  9 14  1  0  0  0  0
 10 16  1  0  0  0  0
 11 17  1  0  0  0  0
 12 14  1  0  0  0  0
 12 15  2  0  0  0  0
 14 18  1  0  0  0  0
M  END

> <original SMILES>

O=C(Nc1cnccc1Cl)c1cccc(Cl)c1

> <ref_mols>

x0107_0,x0161_0,x0195_0,x0678_0,x0946_0

> <ref_pdb>

receptors/Mpro-x0161-protein.pdb

> <Chemgauss4>

-7.17017

> <binding_free_energy>

-4.223217563917558

> <binding_std_error>

4.009377649003869

$$$$
ALV-UNI-7ff1a6f9-17
  -OEChem-05122002103D

 23 26  0     0  0  0  0  0  0999 V2000
    9.8947   -1.4535   22.5159 C   0  0  0  0  0  0  0  0  0  0  0  0
    9.8875   -1.1692   24.9151 C   0  0  0  0  0  0  0  0  0  0  0  0
    9.2311   -2.6721   22.6583 C   0  0  0  0  0  0  0  0  0  0  0  0
    9.2239   -2.3878   25.0575 C   0  0  0  0  0  0  0  0  0  0  0  0
   13.1103   -0.6634   21.0439 C   0  0  0  0  0  0  0  0  0  0  0  0
   14.1670   -1.5934   21.0605 C   0  0  0  0  0  0  0  0  0  0  0  0
   10.2229   -0.7020   23.6443 C   0  0  0  0  0  0  0  0  0  0  0  0
    8.8957   -3.1392   23.9291 C   0  0  0  0  0  0  0  0  0  0  0  0
   10.9046    0.5494   23.4980 C   0  0  0  0  0  0  0  0  0  0  0  0
   13.0237   -0.2188   22.3405 C   0  0  0  0  0  0  0  0  0  0  0  0
   12.1386    0.7278   22.9183 C   0  0  0  0  0  0  0  0  0  0  0  0
   11.2847    2.6489   23.6276 C   0  0  0  0  0  0  0  0  0  0  0  0
   11.3137    4.0609   23.8261 C   0  0  0  0  0  0  0  0  0  0  0  0
   13.5114    4.1294   22.7570 C   0  0  0  0  0  0  0  0  0  0  0  0
   13.4889    2.8002   22.5677 C   0  0  0  0  0  0  0  0  0  0  0  0
   12.3784    4.7825   23.4119 C   0  0  0  0  0  0  0  0  0  0  0  0
   12.4696    6.2669   23.5910 C   0  0  0  0  0  0  0  0  0  0  0  0
   14.3116   -0.7629   24.4337 C   0  0  0  0  0  0  0  0  0  0  0  0
   14.7128   -1.7320   22.2717 N   0  0  0  0  0  0  0  0  0  0  0  0
   10.3815    1.7401   23.9345 N   0  0  0  0  0  0  0  0  0  0  0  0
   12.3850    2.0742   23.0005 N   0  0  0  0  0  0  0  0  0  0  0  0
   13.9962   -0.8833   23.0282 N   0  0  0  0  0  0  0  0  0  0  0  0
    8.2585   -4.3095   24.0658 F   0  0  0  0  0  0  0  0  0  0  0  0
  1  3  2  0  0  0  0
  1  7  1  0  0  0  0
  2  4  1  0  0  0  0
  2  7  2  0  0  0  0
  3  8  1  0  0  0  0
  4  8  2  0  0  0  0
  5  6  1  0  0  0  0
  5 10  2  0  0  0  0
  6 19  2  0  0  0  0
  7  9  1  0  0  0  0
  8 23  1  0  0  0  0
  9 11  2  0  0  0  0
  9 20  1  0  0  0  0
 10 11  1  0  0  0  0
 10 22  1  0  0  0  0
 11 21  1  0  0  0  0
 12 13  1  0  0  0  0
 12 20  2  0  0  0  0
 12 21  1  0  0  0  0
 13 16  2  0  0  0  0
 14 15  2  0  0  0  0
 14 16  1  0  0  0  0
 15 21  1  0  0  0  0
 16 17  1  0  0  0  0
 18 22  1  0  0  0  0
 19 22  1  0  0  0  0
M  END

> <original SMILES>

Cc1ccn2c(-c3ccnn3C)c(-c3ccc(F)cc3)nc2c1

> <ref_mols>

x0395_0,x0426_0,x0434_0,x0540_0,x0678_0,x0830_0,x1093_0

> <ref_pdb>

receptors/Mpro-x0395-protein.pdb

> <Chemgauss4>

-4.936292

> <binding_free_energy>

-4.209130764242428

> <binding_std_error>

2.339445150845166

$$$$
ADA-UNI-f8e79267-11
  -OEChem-05122002103D

 24 25  0     1  0  0  0  0  0999 V2000
   10.5153   -2.6240   22.8479 C   0  0  0  0  0  0  0  0  0  0  0  0
    4.9056    1.0010   19.1918 C   0  0  0  0  0  0  0  0  0  0  0  0
   10.1062   -1.2905   22.8557 C   0  0  0  0  0  0  0  0  0  0  0  0
    5.6765    0.9423   20.3475 C   0  0  0  0  0  0  0  0  0  0  0  0
    9.8905   -3.5501   23.6832 C   0  0  0  0  0  0  0  0  0  0  0  0
    8.4478   -1.8091   24.5344 C   0  0  0  0  0  0  0  0  0  0  0  0
    5.5092    0.6620   17.9916 C   0  0  0  0  0  0  0  0  0  0  0  0
    7.5181    0.2328   19.0203 C   0  0  0  0  0  0  0  0  0  0  0  0
    9.0725   -0.8830   23.6990 C   0  0  0  0  0  0  0  0  0  0  0  0
    7.0087    0.5519   20.2687 C   0  0  0  0  0  0  0  0  0  0  0  0
    8.8568   -3.1426   24.5264 C   0  0  0  0  0  0  0  0  0  0  0  0
    7.4506    0.7704   22.7395 C   0  0  0  0  0  0  0  0  0  0  0  0
   10.5897    5.2676   23.8246 C   0  0  0  0  0  0  0  0  0  0  0  0
    9.7806    1.5451   23.3749 C   0  0  0  0  0  0  0  0  0  0  0  0
    9.5399    3.0020   23.7650 C   0  0  0  0  0  0  0  0  0  0  0  0
    8.6283    0.5700   23.7079 C   0  0  2  0  0  0  0  0  0  0  0  0
    6.8002    0.2781   17.8756 N   0  0  0  0  0  0  0  0  0  0  0  0
    7.8183    0.4828   21.4271 N   0  0  0  0  0  0  0  0  0  0  0  0
   10.7048    3.8432   23.4053 N   0  3  0  0  0  0  0  0  0  0  0  0
    6.3513    1.1506   23.1326 O   0  0  0  0  0  0  0  0  0  0  0  0
    8.0872   -4.2854   25.5577 Cl  0  0  0  0  0  0  0  0  0  0  0  0
    8.7821    0.1884   21.2847 H   0  0  0  0  0  0  0  0  0  0  0  0
   10.8515    3.8072   22.3853 H   0  0  0  0  0  0  0  0  0  0  0  0
   11.5589    3.4419   23.8210 H   0  0  0  0  0  0  0  0  0  0  0  0
  1  3  2  0  0  0  0
  1  5  1  0  0  0  0
  2  4  2  0  0  0  0
  2  7  1  0  0  0  0
  3  9  1  0  0  0  0
  4 10  1  0  0  0  0
  5 11  2  0  0  0  0
  6  9  2  0  0  0  0
  6 11  1  0  0  0  0
  7 17  2  0  0  0  0
  8 10  2  0  0  0  0
  8 17  1  0  0  0  0
  9 16  1  0  0  0  0
 10 18  1  0  0  0  0
 11 21  1  0  0  0  0
 12 16  1  0  0  0  0
 12 18  1  0  0  0  0
 12 20  2  0  0  0  0
 13 19  1  0  0  0  0
 14 15  1  0  0  0  0
 14 16  1  0  0  0  0
 15 19  1  0  0  0  0
 18 22  1  0  0  0  0
 19 23  1  0  0  0  0
 19 24  1  0  0  0  0
M  CHG  1  19   1
M  END

> <original SMILES>

CNCCC(C(=O)Nc1cccnc1)c1cccc(Cl)c1

> <ref_mols>

x0072_0,x0387_0,x0678_0

> <ref_pdb>

receptors/protein-0387.pdb

> <Chemgauss4>

-5.25646352767944

> <binding_free_energy>

-4.206822521568668

> <binding_std_error>

3.3467530746231353

$$$$
CHR-SOS-7098f804-8
  -OEChem-05122002103D

 17 18  0     0  0  0  0  0  0999 V2000
   13.9608   -1.3976   25.7418 C   0  0  0  0  0  0  0  0  0  0  0  0
   13.5425   -2.6818   26.0902 C   0  0  0  0  0  0  0  0  0  0  0  0
   13.2615   -0.6744   24.7754 C   0  0  0  0  0  0  0  0  0  0  0  0
    7.4684   -6.2824   22.1366 C   0  0  0  0  0  0  0  0  0  0  0  0
    8.5691   -5.9874   22.9409 C   0  0  0  0  0  0  0  0  0  0  0  0
   12.4249   -3.2429   25.4722 C   0  0  0  0  0  0  0  0  0  0  0  0
   12.1440   -1.2356   24.1574 C   0  0  0  0  0  0  0  0  0  0  0  0
    6.6696   -5.2513   21.6421 C   0  0  0  0  0  0  0  0  0  0  0  0
    8.0724   -3.6302   22.7563 C   0  0  0  0  0  0  0  0  0  0  0  0
    8.8711   -4.6614   23.2507 C   0  0  0  0  0  0  0  0  0  0  0  0
   11.7257   -2.5198   24.5058 C   0  0  0  0  0  0  0  0  0  0  0  0
    6.9716   -3.9252   21.9519 C   0  0  0  0  0  0  0  0  0  0  0  0
   10.0185   -4.3548   24.0898 C   0  0  0  0  0  0  0  0  0  0  0  0
   10.5898   -3.0903   23.8779 N   0  0  0  0  0  0  0  0  0  0  0  0
   10.4685   -5.1742   24.9028 O   0  0  0  0  0  0  0  0  0  0  0  0
    5.9859   -2.6534   21.3410 Cl  0  0  0  0  0  0  0  0  0  0  0  0
   10.1288   -2.5075   23.1836 H   0  0  0  0  0  0  0  0  0  0  0  0
  1  2  1  0  0  0  0
  1  3  2  0  0  0  0
  2  6  2  0  0  0  0
  3  7  1  0  0  0  0
  4  5  2  0  0  0  0
  4  8  1  0  0  0  0
  5 10  1  0  0  0  0
  6 11  1  0  0  0  0
  7 11  2  0  0  0  0
  8 12  2  0  0  0  0
  9 10  2  0  0  0  0
  9 12  1  0  0  0  0
 10 13  1  0  0  0  0
 11 14  1  0  0  0  0
 12 16  1  0  0  0  0
 13 14  1  0  0  0  0
 13 15  2  0  0  0  0
 14 17  1  0  0  0  0
M  END

> <original SMILES>

O=C(Nc1ccccc1)c1cccc(Cl)c1

> <ref_mols>

x0107_0,x0161_0,x0195_0,x0678_0,x0946_0

> <ref_pdb>

receptors/Mpro-x0946-protein.pdb

> <Chemgauss4>

-6.832388

> <binding_free_energy>

-4.1161617141304205

> <binding_std_error>

9.358571715371626

$$$$
JOH-UNI-abdb2f0c-3
  -OEChem-05122002103D

 17 18  0     1  0  0  0  0  0999 V2000
   10.2574   -4.6099   24.6510 C   0  0  0  0  0  0  0  0  0  0  0  0
   11.3750   -3.9993   25.2091 C   0  0  0  0  0  0  0  0  0  0  0  0
    9.8666   -2.6285   23.3950 C   0  0  0  0  0  0  0  0  0  0  0  0
    9.4835   -3.9182   23.7259 C   0  0  0  0  0  0  0  0  0  0  0  0
   11.6736   -2.7060   24.8116 C   0  0  0  0  0  0  0  0  0  0  0  0
   12.8294   -2.0199   25.3626 C   0  0  0  0  0  0  0  0  0  0  0  0
    7.3378   -6.7080   22.5017 C   0  0  0  0  0  0  0  0  0  0  0  0
    8.5131   -5.7390   22.3707 C   0  0  0  0  0  0  0  0  0  0  0  0
    7.0440   -3.8763   23.3444 C   0  0  0  0  0  0  0  0  0  0  0  0
    6.1443   -6.3325   21.6354 C   0  0  0  0  0  0  0  0  0  0  0  0
    6.1298   -4.0046   22.1319 C   0  0  0  0  0  0  0  0  0  0  0  0
   13.7169   -2.7371   26.3872 C   0  0  0  0  0  0  0  0  0  0  0  0
   10.9455   -2.0023   23.9159 N   0  0  0  0  0  0  0  0  0  0  0  0
    8.3518   -4.5079   23.1481 N   0  0  3  0  0  0  0  0  0  0  0  0
   13.1035   -0.8545   25.0073 O   0  0  0  0  0  0  0  0  0  0  0  0
    5.4141   -5.2316   22.1543 O   0  0  0  0  0  0  0  0  0  0  0  0
   15.0464   -1.7003   26.9444 Cl  0  0  0  0  0  0  0  0  0  0  0  0
  1  2  2  0  0  0  0
  1  4  1  0  0  0  0
  2  5  1  0  0  0  0
  3  4  2  0  0  0  0
  3 13  1  0  0  0  0
  4 14  1  0  0  0  0
  5  6  1  0  0  0  0
  5 13  2  0  0  0  0
  6 12  1  0  0  0  0
  6 15  2  0  0  0  0
  7  8  1  0  0  0  0
  7 10  1  0  0  0  0
  8 14  1  0  0  0  0
  9 11  1  0  0  0  0
  9 14  1  0  0  0  0
 10 16  1  0  0  0  0
 11 16  1  0  0  0  0
 12 17  1  0  0  0  0
M  END

> <original SMILES>

O=C(CCl)c1ccc(N2CCCOCC2)cn1

> <ref_mols>

x0434_0,x1077_0

> <ref_pdb>

receptors/Mpro-x1077-protein.pdb

> <Chemgauss4>

-7.072368

> <binding_free_energy>

-4.090898659931085

> <binding_std_error>

2.378439957210224

$$$$
WAR-XCH-b72a1bbc-38
  -OEChem-05122002103D

 27 29  0     0  0  0  0  0  0999 V2000
   11.0152    1.9514   23.0975 C   0  0  0  0  0  0  0  0  0  0  0  0
   13.2649    2.7616   23.4437 C   0  0  0  0  0  0  0  0  0  0  0  0
   10.5119    3.2126   23.4163 C   0  0  0  0  0  0  0  0  0  0  0  0
   12.7616    4.0228   23.7624 C   0  0  0  0  0  0  0  0  0  0  0  0
    7.1321   -4.5217   25.1163 C   0  0  0  0  0  0  0  0  0  0  0  0
    7.3140   -5.5635   26.0114 C   0  0  0  0  0  0  0  0  0  0  0  0
    9.4850   -5.8862   25.3324 C   0  0  0  0  0  0  0  0  0  0  0  0
    8.2022   -4.1692   24.3016 C   0  0  0  0  0  0  0  0  0  0  0  0
   12.3917    1.7258   23.1112 C   0  0  0  0  0  0  0  0  0  0  0  0
    9.4047   -4.8596   24.4053 C   0  0  0  0  0  0  0  0  0  0  0  0
   11.3851    4.2483   23.7487 C   0  0  0  0  0  0  0  0  0  0  0  0
   11.4535   -1.5037   22.6531 C   0  0  0  0  0  0  0  0  0  0  0  0
   13.1677   -1.2561   24.4999 C   0  0  0  0  0  0  0  0  0  0  0  0
   12.2094   -0.4339   21.8642 C   0  0  0  0  0  0  0  0  0  0  0  0
   13.8775   -0.1871   23.6623 C   0  0  0  0  0  0  0  0  0  0  0  0
   12.3981   -2.2496   23.6120 C   0  0  0  0  0  0  0  0  0  0  0  0
    8.0128   -3.0483   23.3311 C   0  0  0  0  0  0  0  0  0  0  0  0
   11.6246   -3.2529   24.4642 C   0  0  0  0  0  0  0  0  0  0  0  0
    8.4670   -6.2574   26.1409 N   0  0  0  0  0  0  0  0  0  0  0  0
   12.8941    0.4683   22.7934 N   0  0  0  0  0  0  0  0  0  0  0  0
   10.7268    6.5657   22.6080 N   0  0  0  0  0  0  0  0  0  0  0  0
    9.3873    5.6704   24.6204 O   0  0  0  0  0  0  0  0  0  0  0  0
   11.7328    6.5175   24.9792 O   0  0  0  0  0  0  0  0  0  0  0  0
   10.8132   -4.4787   23.4081 S   0  0  0  0  0  0  0  0  0  0  0  0
   10.7560    5.8271   24.1485 S   0  0  0  0  0  0  0  0  0  0  0  0
    9.8126    6.7256   22.1674 H   0  0  0  0  0  0  0  0  0  0  0  0
   11.4159    7.3023   22.4134 H   0  0  0  0  0  0  0  0  0  0  0  0
  1  3  2  0  0  0  0
  1  9  1  0  0  0  0
  2  4  1  0  0  0  0
  2  9  2  0  0  0  0
  3 11  1  0  0  0  0
  4 11  2  0  0  0  0
  5  6  2  0  0  0  0
  5  8  1  0  0  0  0
  6 19  1  0  0  0  0
  7 10  1  0  0  0  0
  7 19  2  0  0  0  0
  8 10  2  0  0  0  0
  8 17  1  0  0  0  0
  9 20  1  0  0  0  0
 10 24  1  0  0  0  0
 11 25  1  0  0  0  0
 12 14  1  0  0  0  0
 12 16  1  0  0  0  0
 13 15  1  0  0  0  0
 13 16  1  0  0  0  0
 14 20  1  0  0  0  0
 15 20  1  0  0  0  0
 16 18  1  0  0  0  0
 18 24  1  0  0  0  0
 21 25  1  0  0  0  0
 22 25  2  0  0  0  0
 23 25  2  0  0  0  0
 21 26  1  0  0  0  0
 21 27  1  0  0  0  0
M  END

> <original SMILES>

Cc1ccncc1SCC1CCN(c2ccc(S(N)(=O)=O)cc2)CC1

> <ref_mols>

x0072_0,x0104_0,x0107_0,x0161_0,x0165_0

> <ref_pdb>

receptors/Mpro-x0165-protein.pdb

> <Chemgauss4>

0.055301

> <binding_free_energy>

-4.087664385651497

> <binding_std_error>

2.457160449919285

$$$$
MAK-UNK-6435e6c2-2
  -OEChem-05122002103D

 16 17  0     0  0  0  0  0  0999 V2000
    5.2558    0.9467   19.2083 C   0  0  0  0  0  0  0  0  0  0  0  0
    5.7465    0.1663   20.2947 C   0  0  0  0  0  0  0  0  0  0  0  0
    6.0945    0.8989   18.1165 C   0  0  0  0  0  0  0  0  0  0  0  0
    6.9416   -0.4485   19.9918 C   0  0  0  0  0  0  0  0  0  0  0  0
   11.9488    1.0966   23.5563 C   0  0  0  0  0  0  0  0  0  0  0  0
   11.2482   -0.9796   22.4075 C   0  0  0  0  0  0  0  0  0  0  0  0
   10.5958    1.1747   21.4042 C   0  0  0  0  0  0  0  0  0  0  0  0
    9.8226   -1.4954   22.2773 C   0  0  0  0  0  0  0  0  0  0  0  0
    9.1597    0.6903   21.2571 C   0  0  0  0  0  0  0  0  0  0  0  0
   12.5319    2.4590   23.2775 C   0  0  0  0  0  0  0  0  0  0  0  0
    7.7742   -1.3482   20.8568 C   0  0  0  0  0  0  0  0  0  0  0  0
   11.2724    0.4799   22.5047 N   0  0  0  0  0  0  0  0  0  0  0  0
    9.1573   -0.8141   21.1023 N   0  3  0  0  0  0  0  0  0  0  0  0
   12.0890    0.5984   24.6762 O   0  0  0  0  0  0  0  0  0  0  0  0
    7.4671   -0.0839   18.4033 S   0  0  0  0  0  0  0  0  0  0  0  0
    9.7104   -1.0373   20.2633 H   0  0  0  0  0  0  0  0  0  0  0  0
  1  2  1  0  0  0  0
  1  3  2  0  0  0  0
  2  4  2  0  0  0  0
  3 15  1  0  0  0  0
  4 11  1  0  0  0  0
  4 15  1  0  0  0  0
  5 10  1  0  0  0  0
  5 12  1  0  0  0  0
  5 14  2  0  0  0  0
  6  8  1  0  0  0  0
  6 12  1  0  0  0  0
  7  9  1  0  0  0  0
  7 12  1  0  0  0  0
  8 13  1  0  0  0  0
  9 13  1  0  0  0  0
 11 13  1  0  0  0  0
 13 16  1  0  0  0  0
M  CHG  1  13   1
M  END

> <original SMILES>

CC(=O)N1CCN(Cc2cccs2)CC1

> <ref_mols>

x0689_0

> <ref_pdb>

receptors/Mpro-x0689-protein.pdb

> <Chemgauss4>

-1.535216

> <binding_free_energy>

-4.049137579230788

> <binding_std_error>

2.327368177077472

$$$$
ANT-DIA-3c79be55-2
  -OEChem-05122002103D

 19 20  0     0  0  0  0  0  0999 V2000
   11.2554    0.2332   23.0296 C   0  0  0  0  0  0  0  0  0  0  0  0
   13.8971   -1.5241   24.9622 C   0  0  0  0  0  0  0  0  0  0  0  0
   13.1976   -2.6268   25.4525 C   0  0  0  0  0  0  0  0  0  0  0  0
    7.1908   -6.3702   22.4102 C   0  0  0  0  0  0  0  0  0  0  0  0
   13.2462   -0.5847   24.1624 C   0  0  0  0  0  0  0  0  0  0  0  0
    7.6234   -5.3407   23.2386 C   0  0  0  0  0  0  0  0  0  0  0  0
   11.8474   -2.7902   25.1430 C   0  0  0  0  0  0  0  0  0  0  0  0
    6.2904   -6.0583   21.4043 C   0  0  0  0  0  0  0  0  0  0  0  0
    6.2506   -3.8410   22.0046 C   0  0  0  0  0  0  0  0  0  0  0  0
   11.8960   -0.7480   23.8529 C   0  0  0  0  0  0  0  0  0  0  0  0
    7.1491   -4.0490   23.0387 C   0  0  0  0  0  0  0  0  0  0  0  0
   11.1965   -1.8508   24.3432 C   0  0  0  0  0  0  0  0  0  0  0  0
    9.0072   -3.0905   24.4642 C   0  0  0  0  0  0  0  0  0  0  0  0
    7.5990   -2.9123   23.9186 C   0  0  0  0  0  0  0  0  0  0  0  0
   10.7363    1.0283   22.3624 N   0  0  0  0  0  0  0  0  0  0  0  0
    5.8074   -4.8158   21.1794 N   0  0  0  0  0  0  0  0  0  0  0  0
    9.8423   -2.0422   24.0504 N   0  0  0  0  0  0  0  0  0  0  0  0
    9.3215   -4.0448   25.1683 O   0  0  0  0  0  0  0  0  0  0  0  0
    9.4056   -1.3273   23.4596 H   0  0  0  0  0  0  0  0  0  0  0  0
  1 10  1  0  0  0  0
  1 15  3  0  0  0  0
  2  3  1  0  0  0  0
  2  5  2  0  0  0  0
  3  7  2  0  0  0  0
  4  6  2  0  0  0  0
  4  8  1  0  0  0  0
  5 10  1  0  0  0  0
  6 11  1  0  0  0  0
  7 12  1  0  0  0  0
  8 16  2  0  0  0  0
  9 11  2  0  0  0  0
  9 16  1  0  0  0  0
 10 12  2  0  0  0  0
 11 14  1  0  0  0  0
 12 17  1  0  0  0  0
 13 14  1  0  0  0  0
 13 17  1  0  0  0  0
 13 18  2  0  0  0  0
 17 19  1  0  0  0  0
M  END

> <original SMILES>

N#Cc1ccccc1NC(=O)Cc1cccnc1

> <ref_mols>

x0072_0,x0305_0,x0387_0,x0434_0,x0678_0,x0830_0,x1249_0

> <ref_pdb>

receptors/Mpro-x0072-protein.pdb

> <Chemgauss4>

-7.808634

> <binding_free_energy>

-4.044661239999993

> <binding_std_error>

2.726336618933081

$$$$
ALE-HEI-f28a35b5-4
  -OEChem-05122002103D

 18 19  0     0  0  0  0  0  0999 V2000
   13.8831   -0.9374   23.0785 C   0  0  0  0  0  0  0  0  0  0  0  0
   13.0624   -0.8921   21.9571 C   0  0  0  0  0  0  0  0  0  0  0  0
   13.3526   -0.5176   24.2878 C   0  0  0  0  0  0  0  0  0  0  0  0
   11.3196   -0.0378   23.3314 C   0  0  0  0  0  0  0  0  0  0  0  0
   11.7548   -0.4348   22.0774 C   0  0  0  0  0  0  0  0  0  0  0  0
    5.5546    0.9985   18.9491 C   0  0  0  0  0  0  0  0  0  0  0  0
    7.7955    0.2769   19.1050 C   0  0  0  0  0  0  0  0  0  0  0  0
    9.5612    0.0559   20.9086 C   0  0  0  0  0  0  0  0  0  0  0  0
    4.1888    1.5040   19.1921 C   0  0  0  0  0  0  0  0  0  0  0  0
   12.0875   -0.0674   24.4437 N   0  0  0  0  0  0  0  0  0  0  0  0
    6.0225    0.6051   17.7837 N   0  0  0  0  0  0  0  0  0  0  0  0
    7.3367    0.1809   17.8753 N   0  0  0  0  0  0  0  0  0  0  0  0
   10.9095   -0.3778   20.9719 N   0  0  0  0  0  0  0  0  0  0  0  0
    9.0826   -0.0510   19.5929 N   0  0  0  0  0  0  0  0  0  0  0  0
    8.9142    0.4636   21.8680 O   0  0  0  0  0  0  0  0  0  0  0  0
    6.6708    0.8877   20.2466 S   0  0  0  0  0  0  0  0  0  0  0  0
   11.3175   -0.6920   20.0838 H   0  0  0  0  0  0  0  0  0  0  0  0
    9.7363   -0.4078   18.9005 H   0  0  0  0  0  0  0  0  0  0  0  0
  1  2  2  0  0  0  0
  1  3  1  0  0  0  0
  2  5  1  0  0  0  0
  3 10  2  0  0  0  0
  4  5  2  0  0  0  0
  4 10  1  0  0  0  0
  5 13  1  0  0  0  0
  6  9  1  0  0  0  0
  6 11  2  0  0  0  0
  6 16  1  0  0  0  0
  7 12  2  0  0  0  0
  7 14  1  0  0  0  0
  7 16  1  0  0  0  0
  8 13  1  0  0  0  0
  8 14  1  0  0  0  0
  8 15  2  0  0  0  0
 11 12  1  0  0  0  0
 13 17  1  0  0  0  0
 14 18  1  0  0  0  0
M  END

> <original SMILES>

Cc1nnc(NC(=O)Nc2cccnc2)s1

> <ref_mols>

x0107_0,x0395_0,x0434_0,x0678_0,x0967_0,x0991_0,x1093_0

> <ref_pdb>

receptors/Mpro-x1093-protein.pdb

> <Chemgauss4>

-6.06445

> <binding_free_energy>

-4.0428537199999965

> <binding_std_error>

2.9962066371535094

$$$$
ALV-UNI-7ff1a6f9-8
  -OEChem-05122002103D

 23 26  0     0  0  0  0  0  0999 V2000
    7.4572   -0.8582   21.1786 C   0  0  0  0  0  0  0  0  0  0  0  0
    8.0095   -1.5714   22.2367 C   0  0  0  0  0  0  0  0  0  0  0  0
    8.3182   -5.2702   22.1383 C   0  0  0  0  0  0  0  0  0  0  0  0
    7.4135   -5.0362   24.3662 C   0  0  0  0  0  0  0  0  0  0  0  0
    7.2167   -6.0435   21.7722 C   0  0  0  0  0  0  0  0  0  0  0  0
    6.3119   -5.8095   24.0001 C   0  0  0  0  0  0  0  0  0  0  0  0
    8.2471   -0.6396   20.0614 C   0  0  0  0  0  0  0  0  0  0  0  0
   10.0229   -1.7665   20.9861 C   0  0  0  0  0  0  0  0  0  0  0  0
    8.4167   -4.7665   23.4354 C   0  0  0  0  0  0  0  0  0  0  0  0
    9.3163   -2.0376   22.1467 C   0  0  0  0  0  0  0  0  0  0  0  0
    6.2135   -6.3132   22.7030 C   0  0  0  0  0  0  0  0  0  0  0  0
    9.5479   -3.9726   23.8113 C   0  0  0  0  0  0  0  0  0  0  0  0
    9.9191   -2.7828   23.2309 C   0  0  0  0  0  0  0  0  0  0  0  0
   11.3053   -3.3616   24.8637 C   0  0  0  0  0  0  0  0  0  0  0  0
   12.4452   -3.1651   25.6978 C   0  0  0  0  0  0  0  0  0  0  0  0
   12.9065   -1.0765   24.5137 C   0  0  0  0  0  0  0  0  0  0  0  0
   11.8341   -1.2567   23.7258 C   0  0  0  0  0  0  0  0  0  0  0  0
   13.2219   -2.0709   25.5387 C   0  0  0  0  0  0  0  0  0  0  0  0
   14.4323   -1.8087   26.3811 C   0  0  0  0  0  0  0  0  0  0  0  0
    9.5203   -1.0769   19.9375 N   0  0  0  0  0  0  0  0  0  0  0  0
   10.4081   -4.3255   24.8200 N   0  0  0  0  0  0  0  0  0  0  0  0
   11.0467   -2.3887   23.9041 N   0  0  0  0  0  0  0  0  0  0  0  0
    5.1556   -7.0559   22.3514 F   0  0  0  0  0  0  0  0  0  0  0  0
  1  2  2  0  0  0  0
  1  7  1  0  0  0  0
  2 10  1  0  0  0  0
  3  5  2  0  0  0  0
  3  9  1  0  0  0  0
  4  6  1  0  0  0  0
  4  9  2  0  0  0  0
  5 11  1  0  0  0  0
  6 11  2  0  0  0  0
  7 20  2  0  0  0  0
  8 10  2  0  0  0  0
  8 20  1  0  0  0  0
  9 12  1  0  0  0  0
 10 13  1  0  0  0  0
 11 23  1  0  0  0  0
 12 13  2  0  0  0  0
 12 21  1  0  0  0  0
 13 22  1  0  0  0  0
 14 15  1  0  0  0  0
 14 21  2  0  0  0  0
 14 22  1  0  0  0  0
 15 18  2  0  0  0  0
 16 17  2  0  0  0  0
 16 18  1  0  0  0  0
 17 22  1  0  0  0  0
 18 19  1  0  0  0  0
M  END

> <original SMILES>

Cc1ccn2c(-c3cccnc3)c(-c3ccc(F)cc3)nc2c1

> <ref_mols>

x0395_0,x0426_0,x0434_0,x0540_0,x0678_0,x0830_0,x1093_0

> <ref_pdb>

receptors/Mpro-x0426-protein.pdb

> <Chemgauss4>

-3.405135

> <binding_free_energy>

-3.987101157171722

> <binding_std_error>

2.2885028279434243

$$$$
PAU-UNI-6d15a9f5-1
  -OEChem-05122002103D

 25 27  0     1  0  0  0  0  0999 V2000
    8.2518   -0.9090   23.5013 C   0  0  0  0  0  0  0  0  0  0  0  0
    8.5300   -0.4652   22.2086 C   0  0  0  0  0  0  0  0  0  0  0  0
    9.2480   -1.5298   24.2551 C   0  0  0  0  0  0  0  0  0  0  0  0
    9.8041   -0.6424   21.6694 C   0  0  0  0  0  0  0  0  0  0  0  0
   10.5221   -1.7069   23.7159 C   0  0  0  0  0  0  0  0  0  0  0  0
   14.7233    1.3604   22.0280 C   0  0  0  0  0  0  0  0  0  0  0  0
   10.8003   -1.2632   22.4231 C   0  0  0  0  0  0  0  0  0  0  0  0
   13.6879    1.0962   22.8909 C   0  0  0  0  0  0  0  0  0  0  0  0
   12.8977    2.2608   22.8595 C   0  0  0  0  0  0  0  0  0  0  0  0
   11.6427    2.5297   23.6078 C   0  0  0  0  0  0  0  0  0  0  0  0
    8.6588    6.9544   25.2718 C   0  0  0  0  0  0  0  0  0  0  0  0
    8.3885    5.4799   25.1071 C   0  0  0  0  0  0  0  0  0  0  0  0
    9.3927    7.2832   23.9889 C   0  0  0  0  0  0  0  0  0  0  0  0
    9.6663    5.0116   24.4326 C   0  0  1  0  0  0  0  0  0  0  0  0
   15.3232    3.3364   20.6083 C   0  0  0  0  0  0  0  0  0  0  0  0
   12.1780   -1.4553   21.8407 C   0  0  0  0  0  0  0  0  0  0  0  0
   13.4671   -0.1351   23.6680 C   0  0  0  0  0  0  0  0  0  0  0  0
    9.4864    3.7571   23.6000 C   0  0  0  0  0  0  0  0  0  0  0  0
   13.3298   -1.4522   22.8581 C   0  0  0  0  0  0  0  0  0  0  0  0
   13.3890    3.1955   22.0416 N   0  0  0  0  0  0  0  0  0  0  0  0
   14.4992    2.6184   21.5511 N   0  0  0  0  0  0  0  0  0  0  0  0
   10.7253    3.3845   22.9959 N   0  0  0  0  0  0  0  0  0  0  0  0
   11.4812    2.0175   24.7124 O   0  0  0  0  0  0  0  0  0  0  0  0
   10.0972    6.0967   23.5937 O   0  0  0  0  0  0  0  0  0  0  0  0
   10.9709    3.8158   22.1015 H   0  0  0  0  0  0  0  0  0  0  0  0
  1  2  1  0  0  0  0
  1  3  2  0  0  0  0
  2  4  2  0  0  0  0
  3  5  1  0  0  0  0
  4  7  1  0  0  0  0
  5  7  2  0  0  0  0
  6  8  2  0  0  0  0
  6 21  1  0  0  0  0
  7 16  1  0  0  0  0
  8  9  1  0  0  0  0
  8 17  1  0  0  0  0
  9 10  1  0  0  0  0
  9 20  2  0  0  0  0
 10 22  1  0  0  0  0
 10 23  2  0  0  0  0
 11 12  1  0  0  0  0
 11 13  1  0  0  0  0
 12 14  1  0  0  0  0
 13 24  1  0  0  0  0
 14 18  1  0  0  0  0
 14 24  1  0  0  0  0
 15 21  1  0  0  0  0
 16 19  1  0  0  0  0
 17 19  1  0  0  0  0
 18 22  1  0  0  0  0
 20 21  1  0  0  0  0
 22 25  1  0  0  0  0
M  END

> <original SMILES>

Cn1cc(CCCc2ccccc2)c(C(=O)NC[C@@H]2CCCO2)n1

> <ref_mols>

x1086_0

> <ref_pdb>

receptors/Mpro-x1086_0.pdb

> <Chemgauss4>

-4.765564

> <binding_free_energy>

-3.95575506666664

> <binding_std_error>

8.144346522837917

$$$$
JOH-MSK-1fa17de7-1
  -OEChem-05122002103D

 18 19  0     0  0  0  0  0  0999 V2000
   13.4474   -2.3525   25.7755 C   0  0  0  0  0  0  0  0  0  0  0  0
   11.8141   -1.3957   24.2337 C   0  0  0  0  0  0  0  0  0  0  0  0
   10.6587   -1.4890   23.4525 C   0  0  0  0  0  0  0  0  0  0  0  0
   11.5639   -3.6925   24.9815 C   0  0  0  0  0  0  0  0  0  0  0  0
    9.4645   -4.8591   23.9639 C   0  0  0  0  0  0  0  0  0  0  0  0
   12.2616   -2.4791   24.9871 C   0  0  0  0  0  0  0  0  0  0  0  0
   10.3963   -3.8103   24.2016 C   0  0  0  0  0  0  0  0  0  0  0  0
    9.9715   -2.7080   23.4566 C   0  0  0  0  0  0  0  0  0  0  0  0
    8.5097   -4.3822   23.0956 C   0  0  0  0  0  0  0  0  0  0  0  0
   14.4100   -2.2499   26.4156 N   0  0  0  0  0  0  0  0  0  0  0  0
    8.8241   -3.0840   22.7952 N   0  0  0  0  0  0  0  0  0  0  0  0
    6.4801   -3.8604   21.4484 N   0  0  0  0  0  0  0  0  0  0  0  0
    7.5376   -6.2104   21.5189 O   0  0  0  0  0  0  0  0  0  0  0  0
    6.1515   -5.4231   23.4700 O   0  0  0  0  0  0  0  0  0  0  0  0
    7.0806   -5.1470   22.3919 S   0  0  0  0  0  0  0  0  0  0  0  0
    8.2933   -2.4857   22.1772 H   0  0  0  0  0  0  0  0  0  0  0  0
    6.5625   -3.9370   20.4272 H   0  0  0  0  0  0  0  0  0  0  0  0
    5.6174   -3.3992   21.7618 H   0  0  0  0  0  0  0  0  0  0  0  0
  1  6  1  0  0  0  0
  1 10  3  0  0  0  0
  2  3  2  0  0  0  0
  2  6  1  0  0  0  0
  3  8  1  0  0  0  0
  4  6  2  0  0  0  0
  4  7  1  0  0  0  0
  5  7  1  0  0  0  0
  5  9  2  0  0  0  0
  7  8  2  0  0  0  0
  8 11  1  0  0  0  0
  9 11  1  0  0  0  0
  9 15  1  0  0  0  0
 12 15  1  0  0  0  0
 13 15  2  0  0  0  0
 14 15  2  0  0  0  0
 11 16  1  0  0  0  0
 12 17  1  0  0  0  0
 12 18  1  0  0  0  0
M  END

> <original SMILES>

N#Cc1ccc2[nH]c(S(N)(=O)=O)cc2c1

> <ref_mols>

x0104_0,x0305_0,x0946_0

> <ref_pdb>

receptors/Mpro-x0104-protein.pdb

> <Chemgauss4>

-5.649023

> <binding_free_energy>

-3.9536709799999983

> <binding_std_error>

2.366223067974761

$$$$
MAK-UNK-acefcb18-3
  -OEChem-05122002103D

 17 18  0     0  0  0  0  0  0999 V2000
    6.5445    0.1618   17.9605 C   0  0  0  0  0  0  0  0  0  0  0  0
    4.7919    1.2728   19.1978 C   0  0  0  0  0  0  0  0  0  0  0  0
    7.2612   -0.0241   19.1425 C   0  0  0  0  0  0  0  0  0  0  0  0
    5.5086    1.0868   20.3799 C   0  0  0  0  0  0  0  0  0  0  0  0
   13.0735   -1.4503   22.9277 C   0  0  0  0  0  0  0  0  0  0  0  0
   13.7889   -0.2833   23.0819 C   0  0  0  0  0  0  0  0  0  0  0  0
   11.3612    0.1115   23.1045 C   0  0  0  0  0  0  0  0  0  0  0  0
    5.3098    0.8103   17.9881 C   0  0  0  0  0  0  0  0  0  0  0  0
   11.6672   -1.2218   22.9406 C   0  0  0  0  0  0  0  0  0  0  0  0
    6.7433    0.4384   20.3523 C   0  0  0  0  0  0  0  0  0  0  0  0
    9.3702   -2.0081   23.5397 C   0  0  0  0  0  0  0  0  0  0  0  0
    8.3203   -1.3740   22.9969 C   0  0  0  0  0  0  0  0  0  0  0  0
    4.5431    1.0086   16.7245 C   0  0  0  0  0  0  0  0  0  0  0  0
   10.6364   -2.3128   22.7932 C   0  0  0  0  0  0  0  0  0  0  0  0
    8.2818   -0.8932   21.5833 C   0  0  0  0  0  0  0  0  0  0  0  0
    7.4473    0.2544   21.5141 O   0  0  0  0  0  0  0  0  0  0  0  0
   12.7661    1.0809   23.2415 S   0  0  0  0  0  0  0  0  0  0  0  0
  1  3  2  0  0  0  0
  1  8  1  0  0  0  0
  2  4  1  0  0  0  0
  2  8  2  0  0  0  0
  3 10  1  0  0  0  0
  4 10  2  0  0  0  0
  5  6  2  0  0  0  0
  5  9  1  0  0  0  0
  6 17  1  0  0  0  0
  7  9  2  0  0  0  0
  7 17  1  0  0  0  0
  8 13  1  0  0  0  0
  9 14  1  0  0  0  0
 10 16  1  0  0  0  0
 11 12  2  0  0  0  0
 11 14  1  0  0  0  0
 12 15  1  0  0  0  0
 15 16  1  0  0  0  0
M  END

> <original SMILES>

Cc1ccc(OC/C=C\Cc2ccsc2)cc1

> <ref_mols>

x0387_0

> <ref_pdb>

receptors/Mpro-x0387_0.pdb

> <Chemgauss4>

-5.320202

> <binding_free_energy>

-3.9089955440630804

> <binding_std_error>

0.10963317337990157

$$$$
CHR-SOS-7098f804-12
  -OEChem-05122002103D

 17 18  0     0  0  0  0  0  0999 V2000
   13.1452   -0.4387   24.2904 C   0  0  0  0  0  0  0  0  0  0  0  0
    6.4766    0.4467   19.7640 C   0  0  0  0  0  0  0  0  0  0  0  0
   11.8572   -0.1758   23.8242 C   0  0  0  0  0  0  0  0  0  0  0  0
    7.5976    0.1880   20.5448 C   0  0  0  0  0  0  0  0  0  0  0  0
   14.0265   -1.1937   23.5164 C   0  0  0  0  0  0  0  0  0  0  0  0
   12.3315   -1.4230   21.8101 C   0  0  0  0  0  0  0  0  0  0  0  0
    6.6179    0.3890   18.3869 C   0  0  0  0  0  0  0  0  0  0  0  0
    8.8456   -0.1490   18.5485 C   0  0  0  0  0  0  0  0  0  0  0  0
   11.4503   -0.6679   22.5841 C   0  0  0  0  0  0  0  0  0  0  0  0
    8.8087   -0.1163   19.9332 C   0  0  0  0  0  0  0  0  0  0  0  0
   13.6196   -1.6859   22.2763 C   0  0  0  0  0  0  0  0  0  0  0  0
   10.1070   -0.3939   22.0992 C   0  0  0  0  0  0  0  0  0  0  0  0
    7.7777    0.0968   17.7568 N   0  0  0  0  0  0  0  0  0  0  0  0
    9.9690   -0.3845   20.7025 N   0  0  0  0  0  0  0  0  0  0  0  0
    9.1709   -0.1535   22.8745 O   0  0  0  0  0  0  0  0  0  0  0  0
   14.7077   -2.6171   21.3215 Cl  0  0  0  0  0  0  0  0  0  0  0  0
   10.8109   -0.5978   20.1734 H   0  0  0  0  0  0  0  0  0  0  0  0
  1  3  2  0  0  0  0
  1  5  1  0  0  0  0
  2  4  2  0  0  0  0
  2  7  1  0  0  0  0
  3  9  1  0  0  0  0
  4 10  1  0  0  0  0
  5 11  2  0  0  0  0
  6  9  2  0  0  0  0
  6 11  1  0  0  0  0
  7 13  2  0  0  0  0
  8 10  2  0  0  0  0
  8 13  1  0  0  0  0
  9 12  1  0  0  0  0
 10 14  1  0  0  0  0
 11 16  1  0  0  0  0
 12 14  1  0  0  0  0
 12 15  2  0  0  0  0
 14 17  1  0  0  0  0
M  END

> <original SMILES>

O=C(Nc1cccnc1)c1cccc(Cl)c1

> <ref_mols>

x0107_0,x0161_0,x0195_0,x0678_0,x0946_0

> <ref_pdb>

receptors/Mpro-x0161_0.pdb

> <Chemgauss4>

-9.620449

> <binding_free_energy>

-3.824247448267286

> <binding_std_error>

3.078500003910887

$$$$
DAR-DIA-fc970077-7
  -OEChem-05122002103D

 19 21  0     1  0  0  0  0  0999 V2000
   14.0245   -1.1789   22.6180 C   0  0  0  0  0  0  0  0  0  0  0  0
   13.7099   -0.4757   23.7808 C   0  0  0  0  0  0  0  0  0  0  0  0
   13.0561   -1.3641   21.6313 C   0  0  0  0  0  0  0  0  0  0  0  0
    5.4915    0.8127   18.9577 C   0  0  0  0  0  0  0  0  0  0  0  0
   12.4269    0.0423   23.9570 C   0  0  0  0  0  0  0  0  0  0  0  0
   11.7730   -0.8461   21.8075 C   0  0  0  0  0  0  0  0  0  0  0  0
    6.0691    0.8289   20.2224 C   0  0  0  0  0  0  0  0  0  0  0  0
    6.2913    0.4558   17.8840 C   0  0  0  0  0  0  0  0  0  0  0  0
    8.1236    0.1496   19.2356 C   0  0  0  0  0  0  0  0  0  0  0  0
   11.4584   -0.1429   22.9703 C   0  0  0  0  0  0  0  0  0  0  0  0
    7.4098    0.4923   20.3726 C   0  0  0  0  0  0  0  0  0  0  0  0
    9.4115    0.7831   21.8220 C   0  0  0  0  0  0  0  0  0  0  0  0
    7.8534    0.0888   24.1884 C   0  0  0  0  0  0  0  0  0  0  0  0
    9.2204   -0.5288   24.0090 C   0  0  0  0  0  0  0  0  0  0  0  0
    7.1651    0.2509   22.8424 C   0  0  0  0  0  0  0  0  0  0  0  0
   10.0595    0.4213   23.1619 C   0  0  1  0  0  0  0  0  0  0  0  0
    7.5971    0.1226   17.9907 N   0  0  0  0  0  0  0  0  0  0  0  0
    8.0421    0.5000   21.6811 N   0  0  0  0  0  0  0  0  0  0  0  0
   10.1065    1.3350   20.9624 O   0  0  0  0  0  0  0  0  0  0  0  0
  1  2  1  0  0  0  0
  1  3  2  0  0  0  0
  2  5  2  0  0  0  0
  3  6  1  0  0  0  0
  4  7  2  0  0  0  0
  4  8  1  0  0  0  0
  5 10  1  0  0  0  0
  6 10  2  0  0  0  0
  7 11  1  0  0  0  0
  8 17  2  0  0  0  0
  9 11  2  0  0  0  0
  9 17  1  0  0  0  0
 10 16  1  0  0  0  0
 11 18  1  0  0  0  0
 12 16  1  0  0  0  0
 12 18  1  0  0  0  0
 12 19  2  0  0  0  0
 13 14  1  0  0  0  0
 13 15  1  0  0  0  0
 14 16  1  0  0  0  0
 15 18  1  0  0  0  0
M  END

> <original SMILES>

O=C1C(c2ccccc2)CCCN1c1cccnc1

> <ref_mols>

x0434_0

> <ref_pdb>

receptors/protein-0387.pdb

> <Chemgauss4>

-5.2729320526123

> <binding_free_energy>

-3.756596723572649

> <binding_std_error>

7.178090949397492

$$$$
JON-UIO-066ce08b-1
  -OEChem-05122002103D

 19 20  0     1  0  0  0  0  0999 V2000
    4.8283    1.2911   19.8781 C   0  0  0  0  0  0  0  0  0  0  0  0
    4.8220    1.9116   18.6338 C   0  0  0  0  0  0  0  0  0  0  0  0
    5.6573    0.1969   20.0989 C   0  0  0  0  0  0  0  0  0  0  0  0
    5.6567    1.4034   17.6515 C   0  0  0  0  0  0  0  0  0  0  0  0
    6.4544   -0.2347   19.0510 C   0  0  0  0  0  0  0  0  0  0  0  0
    6.5362   -4.9619   24.5859 C   0  0  0  0  0  0  0  0  0  0  0  0
    6.5499   -2.6431   19.5731 C   0  0  0  0  0  0  0  0  0  0  0  0
    5.7547   -5.0191   22.1650 C   0  0  0  0  0  0  0  0  0  0  0  0
    6.4725   -2.9029   23.2133 C   0  0  0  0  0  0  0  0  0  0  0  0
    6.6157   -4.7027   20.9451 C   0  0  0  0  0  0  0  0  0  0  0  0
    7.3335   -2.5867   21.9933 C   0  0  0  0  0  0  0  0  0  0  0  0
    6.2415   -6.4379   24.6747 C   0  0  0  0  0  0  0  0  0  0  0  0
    7.3615   -1.4132   19.2537 C   0  0  2  0  0  0  0  0  0  0  0  0
    6.4756    0.3425   17.8286 N   0  0  0  0  0  0  0  0  0  0  0  0
    6.2831   -4.3482   23.3603 N   0  0  0  0  0  0  0  0  0  0  0  0
    6.8045   -3.2572   20.7982 N   0  0  0  0  0  0  0  0  0  0  0  0
    6.9807   -4.3746   25.5755 O   0  0  0  0  0  0  0  0  0  0  0  0
    5.7139   -3.0430   18.7588 O   0  0  0  0  0  0  0  0  0  0  0  0
    8.2814   -1.2202   20.2361 F   0  0  0  0  0  0  0  0  0  0  0  0
  1  2  1  0  0  0  0
  1  3  2  0  0  0  0
  2  4  2  0  0  0  0
  3  5  1  0  0  0  0
  4 14  1  0  0  0  0
  5 13  1  0  0  0  0
  5 14  2  0  0  0  0
  6 12  1  0  0  0  0
  6 15  1  0  0  0  0
  6 17  2  0  0  0  0
  7 13  1  0  0  0  0
  7 16  1  0  0  0  0
  7 18  2  0  0  0  0
  8 10  1  0  0  0  0
  8 15  1  0  0  0  0
  9 11  1  0  0  0  0
  9 15  1  0  0  0  0
 10 16  1  0  0  0  0
 11 16  1  0  0  0  0
 13 19  1  0  0  0  0
M  END

> <original SMILES>

CC(=O)N1CCN(C(=O)C(F)c2ccccn2)CC1

> <ref_mols>

x0689_0,x0769_0,x0831_0,x1382_0

> <ref_pdb>

receptors/Mpro-x0769-protein.pdb

> <Chemgauss4>

-2.110458

> <binding_free_energy>

-3.738146852244901

> <binding_std_error>

2.321641336550292

$$$$
WAR-XCH-b6889685-1
  -OEChem-05122002103D

 27 29  0     1  0  0  0  0  0999 V2000
   10.5806    1.9955   24.2268 C   0  0  0  0  0  0  0  0  0  0  0  0
   12.7648    2.2327   23.2218 C   0  0  0  0  0  0  0  0  0  0  0  0
   10.4589    3.3836   24.2902 C   0  0  0  0  0  0  0  0  0  0  0  0
   12.6431    3.6208   23.2851 C   0  0  0  0  0  0  0  0  0  0  0  0
    8.6360   -5.4700   23.8798 C   0  0  0  0  0  0  0  0  0  0  0  0
    7.2469   -5.1594   23.9432 C   0  0  0  0  0  0  0  0  0  0  0  0
   11.7335    1.4200   23.6927 C   0  0  0  0  0  0  0  0  0  0  0  0
   11.4902    4.1962   23.8193 C   0  0  0  0  0  0  0  0  0  0  0  0
    9.3987   -4.5806   24.6043 C   0  0  0  0  0  0  0  0  0  0  0  0
    7.0007   -4.0445   24.7141 C   0  0  0  0  0  0  0  0  0  0  0  0
   10.9192   -2.1143   22.8432 C   0  0  0  0  0  0  0  0  0  0  0  0
   13.2686   -1.9914   23.6956 C   0  0  0  0  0  0  0  0  0  0  0  0
   10.6215   -0.7550   23.4755 C   0  0  0  0  0  0  0  0  0  0  0  0
   12.9677   -0.6305   24.3245 C   0  0  0  0  0  0  0  0  0  0  0  0
   12.0282   -2.8827   23.5714 C   0  0  0  0  0  0  0  0  0  0  0  0
   11.4986   -5.9004   24.6973 C   0  0  0  0  0  0  0  0  0  0  0  0
   11.5642   -3.4124   24.9297 C   0  0  0  0  0  0  0  0  0  0  0  0
   11.8562    0.0264   23.6289 N   0  0  0  0  0  0  0  0  0  0  0  0
   10.6086    6.2665   22.3903 N   0  0  0  0  0  0  0  0  0  0  0  0
   10.8032   -4.6027   24.7491 N   0  0  3  0  0  0  0  0  0  0  0  0
   10.3982    6.2652   24.9596 O   0  0  0  0  0  0  0  0  0  0  0  0
   12.6747    6.5143   23.9092 O   0  0  0  0  0  0  0  0  0  0  0  0
    8.4408   -3.3772   25.3570 S   0  0  0  0  0  0  0  0  0  0  0  0
   11.3391    5.9338   23.8987 S   0  0  0  0  0  0  0  0  0  0  0  0
    5.2747   -3.3200   25.0360 Br  0  0  0  0  0  0  0  0  0  0  0  0
    9.6229    6.5559   22.3856 H   0  0  0  0  0  0  0  0  0  0  0  0
   11.1792    6.7241   21.6690 H   0  0  0  0  0  0  0  0  0  0  0  0
  1  3  2  0  0  0  0
  1  7  1  0  0  0  0
  2  4  1  0  0  0  0
  2  7  2  0  0  0  0
  3  8  1  0  0  0  0
  4  8  2  0  0  0  0
  5  6  1  0  0  0  0
  5  9  2  0  0  0  0
  6 10  2  0  0  0  0
  7 18  1  0  0  0  0
  8 24  1  0  0  0  0
  9 20  1  0  0  0  0
  9 23  1  0  0  0  0
 10 23  1  0  0  0  0
 10 25  1  0  0  0  0
 11 13  1  0  0  0  0
 11 15  1  0  0  0  0
 12 14  1  0  0  0  0
 12 15  1  0  0  0  0
 13 18  1  0  0  0  0
 14 18  1  0  0  0  0
 15 17  1  0  0  0  0
 16 20  1  0  0  0  0
 17 20  1  0  0  0  0
 19 24  1  0  0  0  0
 21 24  2  0  0  0  0
 22 24  2  0  0  0  0
 19 26  1  0  0  0  0
 19 27  1  0  0  0  0
M  END

> <original SMILES>

CN(CC1CCN(c2ccc(S(N)(=O)=O)cc2)CC1)c1ccc(Br)s1

> <ref_mols>

x0072_0,x0104_0,x0107_0,x0161_0,x0165_0

> <ref_pdb>

receptors/Mpro-x0165-protein.pdb

> <Chemgauss4>

-0.628499

> <binding_free_energy>

-3.6881679399999925

> <binding_std_error>

2.3819579670772133

$$$$
WAR-XCH-b72a1bbc-2
  -OEChem-05122002103D

 18 19  0     0  0  0  0  0  0999 V2000
    9.9831   -4.0761   24.1894 C   0  0  0  0  0  0  0  0  0  0  0  0
   10.0382   -2.0810   22.8279 C   0  0  0  0  0  0  0  0  0  0  0  0
   11.1552   -3.6723   24.8287 C   0  0  0  0  0  0  0  0  0  0  0  0
   11.2103   -1.6772   23.4672 C   0  0  0  0  0  0  0  0  0  0  0  0
    7.9229   -5.0516   22.3795 C   0  0  0  0  0  0  0  0  0  0  0  0
    7.3201   -2.7491   22.0339 C   0  0  0  0  0  0  0  0  0  0  0  0
    6.7450   -5.4000   21.7386 C   0  0  0  0  0  0  0  0  0  0  0  0
    6.1693   -3.2006   21.4082 C   0  0  0  0  0  0  0  0  0  0  0  0
    9.4246   -3.2805   23.1890 C   0  0  0  0  0  0  0  0  0  0  0  0
    8.2086   -3.6987   22.5260 C   0  0  0  0  0  0  0  0  0  0  0  0
   11.7688   -2.4728   24.4676 C   0  0  0  0  0  0  0  0  0  0  0  0
    5.8576   -4.5062   21.2474 N   0  0  0  0  0  0  0  0  0  0  0  0
   14.4183   -2.6846   24.2670 N   0  0  0  0  0  0  0  0  0  0  0  0
   13.3423   -0.5187   25.1596 O   0  0  0  0  0  0  0  0  0  0  0  0
   13.2873   -2.5989   26.5801 O   0  0  0  0  0  0  0  0  0  0  0  0
   13.2352   -1.9668   25.2692 S   0  0  0  0  0  0  0  0  0  0  0  0
   14.9787   -2.0684   23.6657 H   0  0  0  0  0  0  0  0  0  0  0  0
   14.9387   -3.4897   24.6362 H   0  0  0  0  0  0  0  0  0  0  0  0
  1  3  2  0  0  0  0
  1  9  1  0  0  0  0
  2  4  1  0  0  0  0
  2  9  2  0  0  0  0
  3 11  1  0  0  0  0
  4 11  2  0  0  0  0
  5  7  2  0  0  0  0
  5 10  1  0  0  0  0
  6  8  1  0  0  0  0
  6 10  2  0  0  0  0
  7 12  1  0  0  0  0
  8 12  2  0  0  0  0
  9 10  1  0  0  0  0
 11 16  1  0  0  0  0
 13 16  1  0  0  0  0
 14 16  2  0  0  0  0
 15 16  2  0  0  0  0
 13 17  1  0  0  0  0
 13 18  1  0  0  0  0
M  END

> <original SMILES>

NS(=O)(=O)c1ccc(-c2ccncc2)cc1

> <ref_mols>

x0072_0,x0104_0,x0107_0,x0161_0,x0165_0

> <ref_pdb>

receptors/Mpro-x0104-protein.pdb

> <Chemgauss4>

-6.509677

> <binding_free_energy>

-3.6635699364957404

> <binding_std_error>

2.3680147519180603

$$$$
SCO-VAN-260d9628-2
  -OEChem-05122002103D

 23 24  0     1  0  0  0  0  0999 V2000
   12.3100   -0.3622   23.6745 C   0  0  0  0  0  0  0  0  0  0  0  0
   11.4545   -0.3473   24.7761 C   0  0  0  0  0  0  0  0  0  0  0  0
   12.0129   -1.1628   22.5715 C   0  0  0  0  0  0  0  0  0  0  0  0
   10.3021   -1.1331   24.7749 C   0  0  0  0  0  0  0  0  0  0  0  0
   10.8604   -1.9486   22.5703 C   0  0  0  0  0  0  0  0  0  0  0  0
   10.0050   -1.9338   23.6720 C   0  0  0  0  0  0  0  0  0  0  0  0
    6.7334   -2.4867   22.1468 C   0  0  0  0  0  0  0  0  0  0  0  0
    8.2242   -4.5252   22.0182 C   0  0  0  0  0  0  0  0  0  0  0  0
    8.1297   -5.1265   23.4098 C   0  0  0  0  0  0  0  0  0  0  0  0
    8.7478   -2.7916   23.6701 C   0  0  1  0  0  0  0  0  0  0  0  0
    8.1678   -3.0110   22.2465 C   0  0  2  0  0  0  0  0  0  0  0  0
    8.9966   -4.1995   24.2534 C   0  0  1  0  0  0  0  0  0  0  0  0
    6.2740   -4.7271   28.1989 C   0  0  0  0  0  0  0  0  0  0  0  0
    8.5984   -4.2712   25.6948 C   0  0  0  0  0  0  0  0  0  0  0  0
    6.6238   -1.1305   22.3439 N   0  0  0  0  0  0  0  0  0  0  0  0
    7.2386   -3.8743   25.8383 N   0  0  0  0  0  0  0  0  0  0  0  0
    5.7843   -3.2254   21.8958 O   0  0  0  0  0  0  0  0  0  0  0  0
    6.4755   -6.3337   26.1426 O   0  0  0  0  0  0  0  0  0  0  0  0
    4.7235   -4.5210   26.1111 O   0  0  0  0  0  0  0  0  0  0  0  0
    6.0559   -4.9810   26.4525 S   0  0  0  0  0  0  0  0  0  0  0  0
    7.4655   -0.5963   22.5333 H   0  0  0  0  0  0  0  0  0  0  0  0
    5.7349   -0.6422   22.3075 H   0  0  0  0  0  0  0  0  0  0  0  0
    7.0699   -2.8781   26.1226 H   0  0  0  0  0  0  0  0  0  0  0  0
  1  2  1  0  0  0  0
  1  3  2  0  0  0  0
  2  4  2  0  0  0  0
  3  5  1  0  0  0  0
  4  6  1  0  0  0  0
  5  6  2  0  0  0  0
  6 10  1  0  0  0  0
  7 11  1  0  0  0  0
  7 15  1  0  0  0  0
  7 17  2  0  0  0  0
  8  9  1  0  0  0  0
  8 11  1  0  0  0  0
  9 12  1  0  0  0  0
 10 11  1  0  0  0  0
 10 12  1  0  0  0  0
 12 14  1  0  0  0  0
 13 20  1  0  0  0  0
 14 16  1  0  0  0  0
 16 20  1  0  0  0  0
 18 20  2  0  0  0  0
 19 20  2  0  0  0  0
 15 21  1  0  0  0  0
 15 22  1  0  0  0  0
 16 23  1  0  0  0  0
M  END

> <original SMILES>

CS(=O)(=O)NCC1CCC(C(N)=O)C1c1ccccc1

> <ref_mols>

x0072_0,x0397_0

> <ref_pdb>

receptors/Mpro-x0072-protein.pdb

> <Chemgauss4>

-6.777569

> <binding_free_energy>

-3.631665208990235

> <binding_std_error>

2.436909809144713

$$$$
MAK-UNK-9955b1f3-17
  -OEChem-05122002103D

 14 14  0     0  0  0  0  0  0999 V2000
    6.9615   -4.2139   22.0057 C   0  0  0  0  0  0  0  0  0  0  0  0
    8.5872   -5.1566   23.5772 C   0  0  0  0  0  0  0  0  0  0  0  0
    9.7640   -4.9832   24.2970 C   0  0  0  0  0  0  0  0  0  0  0  0
    9.9533   -2.8043   23.3628 C   0  0  0  0  0  0  0  0  0  0  0  0
    8.1583   -4.1119   22.7743 C   0  0  0  0  0  0  0  0  0  0  0  0
   10.4662   -3.7876   24.1933 C   0  0  0  0  0  0  0  0  0  0  0  0
   11.9493   -2.1121   25.3068 C   0  0  0  0  0  0  0  0  0  0  0  0
   12.7303   -0.1968   23.9225 C   0  0  0  0  0  0  0  0  0  0  0  0
   11.7434   -3.5696   24.9605 C   0  0  0  0  0  0  0  0  0  0  0  0
   13.1577   -1.3857   24.7628 C   0  0  0  0  0  0  0  0  0  0  0  0
    5.9876   -4.2969   21.3801 N   0  0  0  0  0  0  0  0  0  0  0  0
    8.8134   -2.9361   22.6480 N   0  0  0  0  0  0  0  0  0  0  0  0
   11.1133   -1.4753   26.0623 N   0  0  0  0  0  0  0  0  0  0  0  0
   11.4118   -0.5026   26.1884 H   0  0  0  0  0  0  0  0  0  0  0  0
  1  5  1  0  0  0  0
  1 11  3  0  0  0  0
  2  3  2  0  0  0  0
  2  5  1  0  0  0  0
  3  6  1  0  0  0  0
  4  6  2  0  0  0  0
  4 12  1  0  0  0  0
  5 12  2  0  0  0  0
  6  9  1  0  0  0  0
  7  9  1  0  0  0  0
  7 10  1  0  0  0  0
  7 13  2  0  0  0  0
  8 10  1  0  0  0  0
 13 14  1  0  0  0  0
M  END

> <original SMILES>

C/C=C(\N)Cc1ccc(C#N)nc1

> <ref_mols>

x0991_0,x1077_0,x1249_0

> <ref_pdb>

receptors/Mpro-x1077_0.pdb

> <Chemgauss4>

-7.097444

> <binding_free_energy>

-3.6287609739709836

> <binding_std_error>

5.5679273537697505

$$$$
GIA-UNK-995df016-17
  -OEChem-05122002103D

 19 20  0     0  0  0  0  0  0999 V2000
   10.4174    6.2997   24.9031 C   0  0  0  0  0  0  0  0  0  0  0  0
   11.4603    5.3418   24.8602 C   0  0  0  0  0  0  0  0  0  0  0  0
    9.9265    6.4309   23.6229 C   0  0  0  0  0  0  0  0  0  0  0  0
   11.5752    4.9170   23.5549 C   0  0  0  0  0  0  0  0  0  0  0  0
   12.5033    3.9393   22.9991 C   0  0  0  0  0  0  0  0  0  0  0  0
   10.9401   -0.9203   23.1581 C   0  0  0  0  0  0  0  0  0  0  0  0
   10.9001    1.1375   24.5643 C   0  0  0  0  0  0  0  0  0  0  0  0
   13.0448    0.3704   23.4281 C   0  0  0  0  0  0  0  0  0  0  0  0
   10.7735    2.2281   23.5002 C   0  0  0  0  0  0  0  0  0  0  0  0
   12.8395    1.4765   22.3943 C   0  0  0  0  0  0  0  0  0  0  0  0
   11.7449   -0.0527   24.1120 C   0  0  0  0  0  0  0  0  0  0  0  0
    8.6006   -2.3096   22.8141 C   0  0  0  0  0  0  0  0  0  0  0  0
   10.6380    5.5860   22.8117 N   0  0  0  0  0  0  0  0  0  0  0  0
   12.0888    2.5951   22.9766 N   0  0  0  0  0  0  0  0  0  0  0  0
   13.6005    4.3014   22.5708 O   0  0  0  0  0  0  0  0  0  0  0  0
   10.9581   -0.7710   21.9423 O   0  0  0  0  0  0  0  0  0  0  0  0
    7.9527   -1.1174   22.7250 F   0  0  0  0  0  0  0  0  0  0  0  0
    9.9819   -2.1610   23.9654 S   0  0  0  0  0  0  0  0  0  0  0  0
   10.4919    5.4753   21.8176 H   0  0  0  0  0  0  0  0  0  0  0  0
  1  2  1  0  0  0  0
  1  3  2  0  0  0  0
  2  4  2  0  0  0  0
  3 13  1  0  0  0  0
  4  5  1  0  0  0  0
  4 13  1  0  0  0  0
  5 14  1  0  0  0  0
  5 15  2  0  0  0  0
  6 11  1  0  0  0  0
  6 16  2  0  0  0  0
  6 18  1  0  0  0  0
  7  9  1  0  0  0  0
  7 11  1  0  0  0  0
  8 10  1  0  0  0  0
  8 11  1  0  0  0  0
  9 14  1  0  0  0  0
 10 14  1  0  0  0  0
 12 17  1  0  0  0  0
 12 18  1  0  0  0  0
 13 19  1  0  0  0  0
M  END

> <original SMILES>

O=C(SCF)C1CCN(C(=O)c2ccc[nH]2)CC1

> <ref_mols>

x1334_0

> <ref_pdb>

receptors/protein-0387.pdb

> <Chemgauss4>

-5.95411777496338

> <binding_free_energy>

-3.6083759054325952

> <binding_std_error>

1.56787048011157

$$$$
RAJ-NOV-842d5654-3
  -OEChem-05122002103D

 22 24  0     1  0  0  0  0  0999 V2000
    6.5248   -2.3504   24.1953 C   0  0  0  0  0  0  0  0  0  0  0  0
   12.9353    1.2593   23.8335 C   0  0  0  0  0  0  0  0  0  0  0  0
   11.6932    0.9483   24.3868 C   0  0  0  0  0  0  0  0  0  0  0  0
   13.4935    0.4288   22.8616 C   0  0  0  0  0  0  0  0  0  0  0  0
   11.0094   -0.1932   23.9684 C   0  0  0  0  0  0  0  0  0  0  0  0
   12.8097   -0.7126   22.4432 C   0  0  0  0  0  0  0  0  0  0  0  0
    6.8785   -1.7868   21.8373 C   0  0  0  0  0  0  0  0  0  0  0  0
    9.1460   -1.6950   21.0408 C   0  0  0  0  0  0  0  0  0  0  0  0
    7.3866   -2.1156   23.0837 C   0  0  0  0  0  0  0  0  0  0  0  0
    7.7816   -1.5741   20.8018 C   0  0  0  0  0  0  0  0  0  0  0  0
   11.5676   -1.0237   22.9965 C   0  0  0  0  0  0  0  0  0  0  0  0
    9.5526   -2.0278   22.3229 C   0  0  0  0  0  0  0  0  0  0  0  0
    5.9205   -1.7880   19.0865 C   0  0  0  0  0  0  0  0  0  0  0  0
    7.0838    0.2968   19.2163 C   0  0  0  0  0  0  0  0  0  0  0  0
    6.0103    0.3734   18.1484 C   0  0  0  0  0  0  0  0  0  0  0  0
    7.2833   -1.2121   19.4258 C   0  0  1  0  0  0  0  0  0  0  0  0
    5.8233   -2.5415   25.0999 N   0  0  0  0  0  0  0  0  0  0  0  0
    8.7051   -2.2421   23.3542 N   0  0  0  0  0  0  0  0  0  0  0  0
    5.2394   -0.8206   18.3542 N   0  0  0  0  0  0  0  0  0  0  0  0
    5.5190   -2.9055   19.3743 O   0  0  0  0  0  0  0  0  0  0  0  0
   10.8920   -2.1544   22.5833 O   0  0  0  0  0  0  0  0  0  0  0  0
    4.3114   -0.9654   17.9694 H   0  0  0  0  0  0  0  0  0  0  0  0
  1  9  1  0  0  0  0
  1 17  3  0  0  0  0
  2  3  1  0  0  0  0
  2  4  2  0  0  0  0
  3  5  2  0  0  0  0
  4  6  1  0  0  0  0
  5 11  1  0  0  0  0
  6 11  2  0  0  0  0
  7  9  1  0  0  0  0
  7 10  2  0  0  0  0
  8 10  1  0  0  0  0
  8 12  2  0  0  0  0
  9 18  2  0  0  0  0
 10 16  1  0  0  0  0
 11 21  1  0  0  0  0
 12 18  1  0  0  0  0
 12 21  1  0  0  0  0
 13 16  1  0  0  0  0
 13 19  1  0  0  0  0
 13 20  2  0  0  0  0
 14 15  1  0  0  0  0
 14 16  1  0  0  0  0
 15 19  1  0  0  0  0
 19 22  1  0  0  0  0
M  END

> <original SMILES>

N#Cc1cc([C@@H]2CCNC2=O)cc(Oc2ccccc2)n1

> <ref_mols>

x0434_0

> <ref_pdb>

receptors/Mpro-x0434-protein.pdb

> <Chemgauss4>

-6.830736

> <binding_free_energy>

-3.5803960084615625

> <binding_std_error>

2.3304382817597715

$$$$
TRY-UNI-1fd04853-7
  -OEChem-05122002103D

 23 25  0     0  0  0  0  0  0999 V2000
    5.7179    1.0113   18.7480 C   0  0  0  0  0  0  0  0  0  0  0  0
    6.2970    1.0661   20.0145 C   0  0  0  0  0  0  0  0  0  0  0  0
   12.6030   -2.1929   23.7758 C   0  0  0  0  0  0  0  0  0  0  0  0
   13.1490    0.1499   23.5520 C   0  0  0  0  0  0  0  0  0  0  0  0
   13.7317   -2.5275   23.0277 C   0  0  0  0  0  0  0  0  0  0  0  0
   14.2778   -0.1847   22.8039 C   0  0  0  0  0  0  0  0  0  0  0  0
    6.4680    0.5119   17.6918 C   0  0  0  0  0  0  0  0  0  0  0  0
    9.7081   -0.0437   20.7019 C   0  0  0  0  0  0  0  0  0  0  0  0
    7.6177    0.6092   20.1520 C   0  0  0  0  0  0  0  0  0  0  0  0
   12.3116   -0.8542   24.0380 C   0  0  0  0  0  0  0  0  0  0  0  0
    8.5482    0.4924   21.2182 C   0  0  0  0  0  0  0  0  0  0  0  0
   14.5691   -1.5234   22.5418 C   0  0  0  0  0  0  0  0  0  0  0  0
    8.2531    0.1337   19.0086 C   0  0  0  0  0  0  0  0  0  0  0  0
    9.5959    0.9327   23.4734 C   0  0  0  0  0  0  0  0  0  0  0  0
    8.3245    0.8735   22.6272 C   0  0  0  0  0  0  0  0  0  0  0  0
   11.0977   -0.4938   24.8446 C   0  0  0  0  0  0  0  0  0  0  0  0
    7.7412    0.0592   17.7654 N   0  0  0  0  0  0  0  0  0  0  0  0
    9.5181   -0.2569   19.3611 N   0  0  0  0  0  0  0  0  0  0  0  0
    9.9334   -0.3008   24.0121 N   0  0  0  0  0  0  0  0  0  0  0  0
   10.2309    1.9711   23.6388 O   0  0  0  0  0  0  0  0  0  0  0  0
   15.9615   -1.9363   21.6191 Cl  0  0  0  0  0  0  0  0  0  0  0  0
   10.2058   -0.6418   18.7286 H   0  0  0  0  0  0  0  0  0  0  0  0
    9.3382   -1.0995   23.8131 H   0  0  0  0  0  0  0  0  0  0  0  0
  1  2  2  0  0  0  0
  1  7  1  0  0  0  0
  2  9  1  0  0  0  0
  3  5  2  0  0  0  0
  3 10  1  0  0  0  0
  4  6  1  0  0  0  0
  4 10  2  0  0  0  0
  5 12  1  0  0  0  0
  6 12  2  0  0  0  0
  7 17  2  0  0  0  0
  8 11  2  0  0  0  0
  8 18  1  0  0  0  0
  9 11  1  0  0  0  0
  9 13  2  0  0  0  0
 10 16  1  0  0  0  0
 11 15  1  0  0  0  0
 12 21  1  0  0  0  0
 13 17  1  0  0  0  0
 13 18  1  0  0  0  0
 14 15  1  0  0  0  0
 14 19  1  0  0  0  0
 14 20  2  0  0  0  0
 16 19  1  0  0  0  0
 18 22  1  0  0  0  0
 19 23  1  0  0  0  0
M  END

> <original SMILES>

O=C(Cc1c[nH]c2ncccc12)NCc1ccc(Cl)cc1

> <ref_mols>

x0104_0,x0161_0,x0195_0,x0305_0,x0387_0,x0678_0,x1382_0

> <ref_pdb>

receptors/Mpro-x0387-protein.pdb

> <Chemgauss4>

-4.613633

> <binding_free_energy>

-3.568150125914137

> <binding_std_error>

4.576792136230621

$$$$
DAR-DIA-fc970077-4
  -OEChem-05122002103D

 19 21  0     1  0  0  0  0  0999 V2000
   15.0689   -1.9436   24.8270 C   0  0  0  0  0  0  0  0  0  0  0  0
   14.3004   -2.9211   24.1949 C   0  0  0  0  0  0  0  0  0  0  0  0
   14.7188   -0.5983   24.7114 C   0  0  0  0  0  0  0  0  0  0  0  0
    6.2075    1.3725   19.3806 C   0  0  0  0  0  0  0  0  0  0  0  0
    7.1268    1.1170   20.3920 C   0  0  0  0  0  0  0  0  0  0  0  0
   13.1819   -2.5533   23.4471 C   0  0  0  0  0  0  0  0  0  0  0  0
   13.6002   -0.2306   23.9636 C   0  0  0  0  0  0  0  0  0  0  0  0
    6.5110    0.9327   18.1022 C   0  0  0  0  0  0  0  0  0  0  0  0
    8.5143    0.0411   18.7879 C   0  0  0  0  0  0  0  0  0  0  0  0
    8.3048    0.4393   20.0984 C   0  0  0  0  0  0  0  0  0  0  0  0
   12.8317   -1.2080   23.3315 C   0  0  0  0  0  0  0  0  0  0  0  0
   10.5678   -1.6909   22.4400 C   0  0  0  0  0  0  0  0  0  0  0  0
    9.5535   -1.3505   21.3621 C   0  0  0  0  0  0  0  0  0  0  0  0
   10.6763    0.7942   20.8961 C   0  0  0  0  0  0  0  0  0  0  0  0
   11.6073    0.5659   22.0778 C   0  0  0  0  0  0  0  0  0  0  0  0
    9.3270    0.1448   21.1792 C   0  0  1  0  0  0  0  0  0  0  0  0
    7.6448    0.2713   17.7786 N   0  0  0  0  0  0  0  0  0  0  0  0
   11.6708   -0.8266   22.5555 N   0  0  0  0  0  0  0  0  0  0  0  0
   10.3933   -2.7216   23.0959 O   0  0  0  0  0  0  0  0  0  0  0  0
  1  2  1  0  0  0  0
  1  3  2  0  0  0  0
  2  6  2  0  0  0  0
  3  7  1  0  0  0  0
  4  5  2  0  0  0  0
  4  8  1  0  0  0  0
  5 10  1  0  0  0  0
  6 11  1  0  0  0  0
  7 11  2  0  0  0  0
  8 17  2  0  0  0  0
  9 10  2  0  0  0  0
  9 17  1  0  0  0  0
 10 16  1  0  0  0  0
 11 18  1  0  0  0  0
 12 13  1  0  0  0  0
 12 18  1  0  0  0  0
 12 19  2  0  0  0  0
 13 16  1  0  0  0  0
 14 15  1  0  0  0  0
 14 16  1  0  0  0  0
 15 18  1  0  0  0  0
M  END

> <original SMILES>

O=C1CC(c2cccnc2)CCN1c1ccccc1

> <ref_mols>

x0434_0

> <ref_pdb>

receptors/protein-0387.pdb

> <Chemgauss4>

-5.78253269195557

> <binding_free_energy>

-3.551523490000001

> <binding_std_error>

2.3188567425109947

$$$$
MAK-UNK-acefcb18-12
  -OEChem-05122002103D

 12 13  0     0  0  0  0  0  0999 V2000
   11.3592   -1.2512   25.3167 C   0  0  0  0  0  0  0  0  0  0  0  0
   12.5083   -0.7596   25.8959 C   0  0  0  0  0  0  0  0  0  0  0  0
   12.7365   -3.1223   25.2517 C   0  0  0  0  0  0  0  0  0  0  0  0
   11.4912   -2.6200   24.9436 C   0  0  0  0  0  0  0  0  0  0  0  0
    9.3391   -5.5235   23.9843 C   0  0  0  0  0  0  0  0  0  0  0  0
    8.9046   -3.5950   22.4512 C   0  0  0  0  0  0  0  0  0  0  0  0
    9.9667   -4.5703   25.0012 C   0  0  0  0  0  0  0  0  0  0  0  0
    9.5280   -2.6473   23.4746 C   0  0  0  0  0  0  0  0  0  0  0  0
    8.2813   -4.8200   23.1284 C   0  0  0  0  0  0  0  0  0  0  0  0
    7.6964   -5.7758   22.0915 C   0  0  0  0  0  0  0  0  0  0  0  0
   10.4769   -3.3680   24.3341 N   0  0  0  0  0  0  0  0  0  0  0  0
   13.7397   -1.9460   25.9879 S   0  0  0  0  0  0  0  0  0  0  0  0
  1  2  2  0  0  0  0
  1  4  1  0  0  0  0
  2 12  1  0  0  0  0
  3  4  2  0  0  0  0
  3 12  1  0  0  0  0
  4 11  1  0  0  0  0
  5  7  1  0  0  0  0
  5  9  1  0  0  0  0
  6  8  1  0  0  0  0
  6  9  1  0  0  0  0
  7 11  1  0  0  0  0
  8 11  1  0  0  0  0
  9 10  1  0  0  0  0
M  END

> <original SMILES>

CC1CCN(c2ccsc2)CC1

> <ref_mols>

x0387_0

> <ref_pdb>

receptors/Mpro-x0387_0.pdb

> <Chemgauss4>

-5.432204

> <binding_free_energy>

-3.5398488642857195

> <binding_std_error>

2.2227114291872803

$$$$
ALV-UNI-7ff1a6f9-35
  -OEChem-05122002103D

 26 29  0     0  0  0  0  0  0999 V2000
    9.6159   -1.4279   25.1200 C   0  0  0  0  0  0  0  0  0  0  0  0
    8.1143   -0.8853   23.3067 C   0  0  0  0  0  0  0  0  0  0  0  0
    8.9420   -2.6331   25.3174 C   0  0  0  0  0  0  0  0  0  0  0  0
    7.4404   -2.0906   23.5041 C   0  0  0  0  0  0  0  0  0  0  0  0
   12.2315   -1.0496   22.3750 C   0  0  0  0  0  0  0  0  0  0  0  0
   13.4465   -0.1180   24.1391 C   0  0  0  0  0  0  0  0  0  0  0  0
    9.2020   -0.5540   24.1147 C   0  0  0  0  0  0  0  0  0  0  0  0
   12.3027   -0.0935   23.3675 C   0  0  0  0  0  0  0  0  0  0  0  0
   11.2561    0.8622   23.5847 C   0  0  0  0  0  0  0  0  0  0  0  0
    7.8543   -2.9645   24.5095 C   0  0  0  0  0  0  0  0  0  0  0  0
    9.8982    0.6916   23.9109 C   0  0  0  0  0  0  0  0  0  0  0  0
   11.4179    2.2237   23.5035 C   0  0  0  0  0  0  0  0  0  0  0  0
   14.2621   -1.8846   22.9639 C   0  0  0  0  0  0  0  0  0  0  0  0
   12.4856    3.1001   23.2232 C   0  0  0  0  0  0  0  0  0  0  0  0
   12.2671    4.4206   23.2330 C   0  0  0  0  0  0  0  0  0  0  0  0
   10.8823    4.8848   23.5458 C   0  0  0  0  0  0  0  0  0  0  0  0
   10.6616    6.3750   23.5507 C   0  0  0  0  0  0  0  0  0  0  0  0
   13.1964   -1.9640   22.1444 N   0  0  0  0  0  0  0  0  0  0  0  0
   14.4499   -1.0030   23.9644 N   0  0  0  0  0  0  0  0  0  0  0  0
    9.2416    1.8485   24.0292 N   0  0  0  0  0  0  0  0  0  0  0  0
    9.8750    4.1046   23.8087 N   0  0  0  0  0  0  0  0  0  0  0  0
   10.1862    2.7802   23.7770 N   0  0  0  0  0  0  0  0  0  0  0  0
   15.2921   -2.8270   22.7525 N   0  0  0  0  0  0  0  0  0  0  0  0
    7.2073   -4.1219   24.6991 F   0  0  0  0  0  0  0  0  0  0  0  0
   15.1722   -3.5295   22.0522 H   0  0  0  0  0  0  0  0  0  0  0  0
   16.0789   -2.8333   23.3683 H   0  0  0  0  0  0  0  0  0  0  0  0
  1  3  2  0  0  0  0
  1  7  1  0  0  0  0
  2  4  1  0  0  0  0
  2  7  2  0  0  0  0
  3 10  1  0  0  0  0
  4 10  2  0  0  0  0
  5  8  1  0  0  0  0
  5 18  2  0  0  0  0
  6  8  2  0  0  0  0
  6 19  1  0  0  0  0
  7 11  1  0  0  0  0
  8  9  1  0  0  0  0
  9 11  1  0  0  0  0
  9 12  2  0  0  0  0
 10 24  1  0  0  0  0
 11 20  2  0  0  0  0
 12 14  1  0  0  0  0
 12 22  1  0  0  0  0
 13 18  1  0  0  0  0
 13 19  2  0  0  0  0
 13 23  1  0  0  0  0
 14 15  2  0  0  0  0
 15 16  1  0  0  0  0
 16 17  1  0  0  0  0
 16 21  2  0  0  0  0
 20 22  1  0  0  0  0
 21 22  1  0  0  0  0
 23 25  1  0  0  0  0
 23 26  1  0  0  0  0
M  END

> <original SMILES>

Cc1ccc2c(-c3cnc(N)nc3)c(-c3ccc(F)cc3)nn2n1

> <ref_mols>

x0395_0,x0426_0,x0434_0,x0540_0,x0678_0,x0830_0,x1093_0

> <ref_pdb>

receptors/Mpro-x0434-protein.pdb

> <Chemgauss4>

-6.112644

> <binding_free_energy>

-3.535500401045752

> <binding_std_error>

2.5850365841706786

$$$$
ALV-UNI-7ff1a6f9-30
  -OEChem-05122002103D

 27 31  0     0  0  0  0  0  0999 V2000
   10.9672   -0.2259   22.2367 C   0  0  0  0  0  0  0  0  0  0  0  0
    8.8067   -0.5105   25.3396 C   0  0  0  0  0  0  0  0  0  0  0  0
    7.1759    0.3848   23.7981 C   0  0  0  0  0  0  0  0  0  0  0  0
   11.7159   -1.3052   21.7182 C   0  0  0  0  0  0  0  0  0  0  0  0
    7.9971   -1.6270   25.5478 C   0  0  0  0  0  0  0  0  0  0  0  0
    6.3662   -0.7318   24.0063 C   0  0  0  0  0  0  0  0  0  0  0  0
   12.6339    0.4287   23.9901 C   0  0  0  0  0  0  0  0  0  0  0  0
   14.5716   -1.0689   23.8813 C   0  0  0  0  0  0  0  0  0  0  0  0
   13.3459   -0.6389   23.4581 C   0  0  0  0  0  0  0  0  0  0  0  0
    8.3961    0.4955   24.4648 C   0  0  0  0  0  0  0  0  0  0  0  0
   11.4066    0.5993   23.3196 C   0  0  0  0  0  0  0  0  0  0  0  0
   10.5468    1.6641   23.7472 C   0  0  0  0  0  0  0  0  0  0  0  0
   12.9479   -1.4993   22.3697 C   0  0  0  0  0  0  0  0  0  0  0  0
    6.7768   -1.7377   24.8811 C   0  0  0  0  0  0  0  0  0  0  0  0
    9.2328    1.6494   24.2498 C   0  0  0  0  0  0  0  0  0  0  0  0
   10.8920    2.9934   23.7368 C   0  0  0  0  0  0  0  0  0  0  0  0
   12.0296    3.7398   23.3687 C   0  0  0  0  0  0  0  0  0  0  0  0
   12.0078    5.0718   23.4991 C   0  0  0  0  0  0  0  0  0  0  0  0
   10.7576    5.6884   24.0356 C   0  0  0  0  0  0  0  0  0  0  0  0
   10.7576    7.1886   24.1732 C   0  0  0  0  0  0  0  0  0  0  0  0
   13.9121   -2.4121   22.1561 N   0  0  0  0  0  0  0  0  0  0  0  0
    8.7718    2.8691   24.5383 N   0  0  0  0  0  0  0  0  0  0  0  0
    9.6910    5.0305   24.3846 N   0  0  0  0  0  0  0  0  0  0  0  0
   14.8598   -2.1277   23.0704 N   0  0  0  0  0  0  0  0  0  0  0  0
    9.8003    3.6841   24.2191 N   0  0  0  0  0  0  0  0  0  0  0  0
    5.9993   -2.8100   25.0811 F   0  0  0  0  0  0  0  0  0  0  0  0
   15.6910   -2.7049   23.0863 H   0  0  0  0  0  0  0  0  0  0  0  0
  1  4  2  0  0  0  0
  1 11  1  0  0  0  0
  2  5  2  0  0  0  0
  2 10  1  0  0  0  0
  3  6  1  0  0  0  0
  3 10  2  0  0  0  0
  4 13  1  0  0  0  0
  5 14  1  0  0  0  0
  6 14  2  0  0  0  0
  7  9  1  0  0  0  0
  7 11  2  0  0  0  0
  8  9  2  0  0  0  0
  8 24  1  0  0  0  0
  9 13  1  0  0  0  0
 10 15  1  0  0  0  0
 11 12  1  0  0  0  0
 12 15  1  0  0  0  0
 12 16  2  0  0  0  0
 13 21  2  0  0  0  0
 14 26  1  0  0  0  0
 15 22  2  0  0  0  0
 16 17  1  0  0  0  0
 16 25  1  0  0  0  0
 17 18  2  0  0  0  0
 18 19  1  0  0  0  0
 19 20  1  0  0  0  0
 19 23  2  0  0  0  0
 21 24  1  0  0  0  0
 22 25  1  0  0  0  0
 23 25  1  0  0  0  0
 24 27  1  0  0  0  0
M  END

> <original SMILES>

Cc1ccc2c(-c3ccc4[nH]ncc4c3)c(-c3ccc(F)cc3)nn2n1

> <ref_mols>

x0395_0,x0426_0,x0434_0,x0540_0,x0678_0,x0830_0,x1093_0

> <ref_pdb>

receptors/Mpro-x0540-protein.pdb

> <Chemgauss4>

-2.84996

> <binding_free_energy>

-3.508951047447969

> <binding_std_error>

2.2921322113120595

$$$$
MAK-UNK-acefcb18-10
  -OEChem-05122002103D

 12 13  0     0  0  0  0  0  0999 V2000
   12.1332   -3.1378   25.3119 C   0  0  0  0  0  0  0  0  0  0  0  0
   13.2774   -2.3851   25.4594 C   0  0  0  0  0  0  0  0  0  0  0  0
   11.6884   -1.3530   23.8910 C   0  0  0  0  0  0  0  0  0  0  0  0
   11.2127   -2.5401   24.4033 C   0  0  0  0  0  0  0  0  0  0  0  0
    9.9294   -4.6605   24.1811 C   0  0  0  0  0  0  0  0  0  0  0  0
    9.4670   -2.7058   22.6373 C   0  0  0  0  0  0  0  0  0  0  0  0
    8.5902   -5.2836   23.7883 C   0  0  0  0  0  0  0  0  0  0  0  0
    8.1289   -3.3335   22.2481 C   0  0  0  0  0  0  0  0  0  0  0  0
    9.8963   -3.1284   24.0522 C   0  0  0  0  0  0  0  0  0  0  0  0
    8.1605   -4.8620   22.3771 C   0  0  0  0  0  0  0  0  0  0  0  0
    6.7985   -5.4597   22.0283 C   0  0  0  0  0  0  0  0  0  0  0  0
   13.2389   -0.9638   24.5049 S   0  0  0  0  0  0  0  0  0  0  0  0
  1  2  2  0  0  0  0
  1  4  1  0  0  0  0
  2 12  1  0  0  0  0
  3  4  2  0  0  0  0
  3 12  1  0  0  0  0
  4  9  1  0  0  0  0
  5  7  1  0  0  0  0
  5  9  1  0  0  0  0
  6  8  1  0  0  0  0
  6  9  1  0  0  0  0
  7 10  1  0  0  0  0
  8 10  1  0  0  0  0
 10 11  1  0  0  0  0
M  END

> <original SMILES>

CC1CCC(c2ccsc2)CC1

> <ref_mols>

x0387_0

> <ref_pdb>

receptors/Mpro-x0387_0.pdb

> <Chemgauss4>

-5.487429

> <binding_free_energy>

-3.500634662626263

> <binding_std_error>

3.431498596496109

$$$$
JOH-UNI-9dc98897-6
  -OEChem-05122002103D

 16 17  0     1  0  0  0  0  0999 V2000
    6.5655   -3.6583   21.4177 C   0  0  0  0  0  0  0  0  0  0  0  0
    9.5120   -3.7637   23.6784 C   0  0  0  0  0  0  0  0  0  0  0  0
    9.1369   -1.5967   22.7729 C   0  0  0  0  0  0  0  0  0  0  0  0
    7.7167   -3.3051   22.1874 C   0  0  0  0  0  0  0  0  0  0  0  0
    9.8915   -2.4295   23.5832 C   0  0  0  0  0  0  0  0  0  0  0  0
    8.4049   -4.2179   22.9702 C   0  0  0  0  0  0  0  0  0  0  0  0
   12.6026   -3.4593   25.3746 C   0  0  0  0  0  0  0  0  0  0  0  0
   11.4003   -2.5351   25.5608 C   0  0  0  0  0  0  0  0  0  0  0  0
   11.7305   -0.7817   23.7622 C   0  0  0  0  0  0  0  0  0  0  0  0
   13.9220   -2.7186   25.1780 C   0  0  0  0  0  0  0  0  0  0  0  0
   13.1504   -0.6446   24.3023 C   0  0  0  0  0  0  0  0  0  0  0  0
    5.6307   -3.9451   20.7927 N   0  0  0  0  0  0  0  0  0  0  0  0
    8.0554   -2.0015   22.0700 N   0  0  0  0  0  0  0  0  0  0  0  0
   11.0016   -1.9435   24.2824 N   0  0  3  0  0  0  0  0  0  0  0  0
   13.9065   -1.8288   24.0660 O   0  0  0  0  0  0  0  0  0  0  0  0
    7.9450   -5.8732   23.0971 Cl  0  0  0  0  0  0  0  0  0  0  0  0
  1  4  1  0  0  0  0
  1 12  3  0  0  0  0
  2  5  2  0  0  0  0
  2  6  1  0  0  0  0
  3  5  1  0  0  0  0
  3 13  2  0  0  0  0
  4  6  2  0  0  0  0
  4 13  1  0  0  0  0
  5 14  1  0  0  0  0
  6 16  1  0  0  0  0
  7  8  1  0  0  0  0
  7 10  1  0  0  0  0
  8 14  1  0  0  0  0
  9 11  1  0  0  0  0
  9 14  1  0  0  0  0
 10 15  1  0  0  0  0
 11 15  1  0  0  0  0
M  END

> <original SMILES>

N#Cc1ncc(N2CCCOCC2)cc1Cl

> <ref_mols>

x1077_0

> <ref_pdb>

receptors/Mpro-x1077-protein.pdb

> <Chemgauss4>

-6.736885

> <binding_free_energy>

-3.4616393462778703

> <binding_std_error>

1.716144201704013

$$$$
ALV-UNI-7ff1a6f9-18
  -OEChem-05122002103D

 23 26  0     0  0  0  0  0  0999 V2000
    8.8623   -4.8388   22.3784 C   0  0  0  0  0  0  0  0  0  0  0  0
    7.4425   -3.5715   23.8668 C   0  0  0  0  0  0  0  0  0  0  0  0
    7.7496   -5.5404   21.9144 C   0  0  0  0  0  0  0  0  0  0  0  0
    6.3298   -4.2731   23.4028 C   0  0  0  0  0  0  0  0  0  0  0  0
   10.2895   -0.0055   21.5843 C   0  0  0  0  0  0  0  0  0  0  0  0
    8.7222   -1.5356   21.3914 C   0  0  0  0  0  0  0  0  0  0  0  0
    8.7087   -3.8543   23.3546 C   0  0  0  0  0  0  0  0  0  0  0  0
    9.8161   -1.2033   22.1526 C   0  0  0  0  0  0  0  0  0  0  0  0
    6.4834   -5.2576   22.4265 C   0  0  0  0  0  0  0  0  0  0  0  0
    9.8513   -3.1340   23.8313 C   0  0  0  0  0  0  0  0  0  0  0  0
   10.3412   -1.9634   23.3018 C   0  0  0  0  0  0  0  0  0  0  0  0
   11.5493   -2.6441   25.0339 C   0  0  0  0  0  0  0  0  0  0  0  0
   12.6260   -2.5275   25.9618 C   0  0  0  0  0  0  0  0  0  0  0  0
   13.3103   -0.4592   24.8521 C   0  0  0  0  0  0  0  0  0  0  0  0
   12.2980   -0.5643   23.9761 C   0  0  0  0  0  0  0  0  0  0  0  0
   13.4783   -1.4819   25.8840 C   0  0  0  0  0  0  0  0  0  0  0  0
   14.6281   -1.3026   26.8273 C   0  0  0  0  0  0  0  0  0  0  0  0
    7.6072   -0.4677   19.4171 C   0  0  0  0  0  0  0  0  0  0  0  0
    9.5565    0.3959   20.5423 N   0  0  0  0  0  0  0  0  0  0  0  0
   10.6018   -3.5501   24.9016 N   0  0  0  0  0  0  0  0  0  0  0  0
    8.6114   -0.5550   20.4498 N   0  0  0  0  0  0  0  0  0  0  0  0
   11.4310   -1.6471   24.0715 N   0  0  0  0  0  0  0  0  0  0  0  0
    5.4149   -5.9314   21.9809 F   0  0  0  0  0  0  0  0  0  0  0  0
  1  3  2  0  0  0  0
  1  7  1  0  0  0  0
  2  4  1  0  0  0  0
  2  7  2  0  0  0  0
  3  9  1  0  0  0  0
  4  9  2  0  0  0  0
  5  8  1  0  0  0  0
  5 19  2  0  0  0  0
  6  8  2  0  0  0  0
  6 21  1  0  0  0  0
  7 10  1  0  0  0  0
  8 11  1  0  0  0  0
  9 23  1  0  0  0  0
 10 11  2  0  0  0  0
 10 20  1  0  0  0  0
 11 22  1  0  0  0  0
 12 13  1  0  0  0  0
 12 20  2  0  0  0  0
 12 22  1  0  0  0  0
 13 16  2  0  0  0  0
 14 15  2  0  0  0  0
 14 16  1  0  0  0  0
 15 22  1  0  0  0  0
 16 17  1  0  0  0  0
 18 21  1  0  0  0  0
 19 21  1  0  0  0  0
M  END

> <original SMILES>

Cc1ccn2c(-c3cnn(C)c3)c(-c3ccc(F)cc3)nc2c1

> <ref_mols>

x0395_0,x0426_0,x0434_0,x0540_0,x0678_0,x0830_0,x1093_0

> <ref_pdb>

receptors/Mpro-x0395-protein.pdb

> <Chemgauss4>

-5.168711

> <binding_free_energy>

-3.455537165236983

> <binding_std_error>

3.094248809491386

$$$$
WAR-XCH-b72a1bbc-14
  -OEChem-05122002103D

 21 22  0     0  0  0  0  0  0999 V2000
    9.4549   -4.6308   23.4009 C   0  0  0  0  0  0  0  0  0  0  0  0
    8.7233   -2.3998   22.8314 C   0  0  0  0  0  0  0  0  0  0  0  0
    8.2964   -5.1567   22.8293 C   0  0  0  0  0  0  0  0  0  0  0  0
    7.5648   -2.9257   22.2597 C   0  0  0  0  0  0  0  0  0  0  0  0
    9.6684   -3.2523   23.4021 C   0  0  0  0  0  0  0  0  0  0  0  0
    7.3513   -4.3042   22.2586 C   0  0  0  0  0  0  0  0  0  0  0  0
   12.5525   -2.8963   25.7327 C   0  0  0  0  0  0  0  0  0  0  0  0
   12.8895   -1.3854   23.7669 C   0  0  0  0  0  0  0  0  0  0  0  0
   11.0631   -2.9897   25.4022 C   0  0  0  0  0  0  0  0  0  0  0  0
   11.3995   -1.4834   23.4378 C   0  0  0  0  0  0  0  0  0  0  0  0
   13.1898   -1.5860   25.2561 C   0  0  0  0  0  0  0  0  0  0  0  0
   12.7420   -0.3892   26.0977 C   0  0  0  0  0  0  0  0  0  0  0  0
   10.8314   -2.7238   23.9760 N   0  0  0  0  0  0  0  0  0  0  0  0
    4.8465   -4.9632   22.8881 N   0  0  0  0  0  0  0  0  0  0  0  0
    5.4033   -4.0118   20.5578 O   0  0  0  0  0  0  0  0  0  0  0  0
    6.1612   -6.3398   21.1523 O   0  0  0  0  0  0  0  0  0  0  0  0
   11.3362   -0.2644   25.9894 O   0  0  0  0  0  0  0  0  0  0  0  0
    5.9006   -4.9614   21.5434 S   0  0  0  0  0  0  0  0  0  0  0  0
    4.0808   -4.2784   22.9011 H   0  0  0  0  0  0  0  0  0  0  0  0
    4.6010   -5.8684   23.3070 H   0  0  0  0  0  0  0  0  0  0  0  0
   11.0745    0.5001   26.5306 H   0  0  0  0  0  0  0  0  0  0  0  0
  1  3  2  0  0  0  0
  1  5  1  0  0  0  0
  2  4  1  0  0  0  0
  2  5  2  0  0  0  0
  3  6  1  0  0  0  0
  4  6  2  0  0  0  0
  5 13  1  0  0  0  0
  6 18  1  0  0  0  0
  7  9  1  0  0  0  0
  7 11  1  0  0  0  0
  8 10  1  0  0  0  0
  8 11  1  0  0  0  0
  9 13  1  0  0  0  0
 10 13  1  0  0  0  0
 11 12  1  0  0  0  0
 12 17  1  0  0  0  0
 14 18  1  0  0  0  0
 15 18  2  0  0  0  0
 16 18  2  0  0  0  0
 14 19  1  0  0  0  0
 14 20  1  0  0  0  0
 17 21  1  0  0  0  0
M  END

> <original SMILES>

NS(=O)(=O)c1ccc(N2CCC(CO)CC2)cc1

> <ref_mols>

x0072_0,x0104_0,x0107_0,x0161_0,x0165_0

> <ref_pdb>

receptors/Mpro-x0104-protein.pdb

> <Chemgauss4>

-6.094195

> <binding_free_energy>

-3.437230860000003

> <binding_std_error>

2.385626886692926

$$$$
JOH-UNI-9dc98897-3
  -OEChem-05122002103D

 16 17  0     1  0  0  0  0  0999 V2000
    6.5018   -4.0050   21.2262 C   0  0  0  0  0  0  0  0  0  0  0  0
    8.2744   -4.4578   22.8554 C   0  0  0  0  0  0  0  0  0  0  0  0
    9.0223   -1.8502   22.5616 C   0  0  0  0  0  0  0  0  0  0  0  0
    7.6190   -3.5819   22.0051 C   0  0  0  0  0  0  0  0  0  0  0  0
    9.7434   -2.6448   23.4381 C   0  0  0  0  0  0  0  0  0  0  0  0
    9.3559   -3.9724   23.5821 C   0  0  0  0  0  0  0  0  0  0  0  0
   12.3816   -3.5863   25.3806 C   0  0  0  0  0  0  0  0  0  0  0  0
   11.1747   -2.6542   25.4751 C   0  0  0  0  0  0  0  0  0  0  0  0
   11.5772   -0.9902   23.6075 C   0  0  0  0  0  0  0  0  0  0  0  0
   13.7089   -2.8560   25.1992 C   0  0  0  0  0  0  0  0  0  0  0  0
   12.9755   -0.8271   24.1946 C   0  0  0  0  0  0  0  0  0  0  0  0
    5.5927   -4.3492   20.5923 N   0  0  0  0  0  0  0  0  0  0  0  0
    7.9663   -2.2861   21.8388 N   0  0  0  0  0  0  0  0  0  0  0  0
   10.8266   -2.1254   24.1551 N   0  0  3  0  0  0  0  0  0  0  0  0
   13.7380   -2.0213   24.0455 O   0  0  0  0  0  0  0  0  0  0  0  0
   10.0156   -4.7892   24.4153 F   0  0  0  0  0  0  0  0  0  0  0  0
  1  4  1  0  0  0  0
  1 12  3  0  0  0  0
  2  4  1  0  0  0  0
  2  6  2  0  0  0  0
  3  5  2  0  0  0  0
  3 13  1  0  0  0  0
  4 13  2  0  0  0  0
  5  6  1  0  0  0  0
  5 14  1  0  0  0  0
  6 16  1  0  0  0  0
  7  8  1  0  0  0  0
  7 10  1  0  0  0  0
  8 14  1  0  0  0  0
  9 11  1  0  0  0  0
  9 14  1  0  0  0  0
 10 15  1  0  0  0  0
 11 15  1  0  0  0  0
M  END

> <original SMILES>

N#Cc1cc(F)c(N2CCCOCC2)cn1

> <ref_mols>

x1077_0

> <ref_pdb>

receptors/Mpro-x1077-protein.pdb

> <Chemgauss4>

-6.503911

> <binding_free_energy>

-3.417529923076941

> <binding_std_error>

2.3504754974553785

$$$$
GIA-UNK-995df016-11
  -OEChem-05122002103D

 18 19  0     0  0  0  0  0  0999 V2000
   14.1255   -1.7825   22.4317 C   0  0  0  0  0  0  0  0  0  0  0  0
   12.8900   -1.0954   22.5004 C   0  0  0  0  0  0  0  0  0  0  0  0
   14.5342   -1.9644   23.7324 C   0  0  0  0  0  0  0  0  0  0  0  0
   12.6317   -0.9066   23.8382 C   0  0  0  0  0  0  0  0  0  0  0  0
   11.5183   -0.2651   24.5274 C   0  0  0  0  0  0  0  0  0  0  0  0
    8.0048    0.8370   20.5154 C   0  0  0  0  0  0  0  0  0  0  0  0
    8.8209    1.3493   22.7792 C   0  0  0  0  0  0  0  0  0  0  0  0
    9.2859   -0.8884   21.7125 C   0  0  0  0  0  0  0  0  0  0  0  0
    9.3045    0.7856   24.1142 C   0  0  0  0  0  0  0  0  0  0  0  0
    9.7498   -1.4068   23.0715 C   0  0  0  0  0  0  0  0  0  0  0  0
    8.2717    0.2407   21.8838 C   0  0  0  0  0  0  0  0  0  0  0  0
    6.5222    0.6184   18.2185 C   0  0  0  0  0  0  0  0  0  0  0  0
   10.2605   -0.3032   23.8981 N   0  0  0  0  0  0  0  0  0  0  0  0
   11.6978    0.2839   25.6160 O   0  0  0  0  0  0  0  0  0  0  0  0
    8.8797    1.3487   19.8272 O   0  0  0  0  0  0  0  0  0  0  0  0
   13.6292   -1.4335   24.5959 O   0  0  0  0  0  0  0  0  0  0  0  0
    7.2826   -0.4657   17.9092 F   0  0  0  0  0  0  0  0  0  0  0  0
    6.3199    0.7223   20.0084 S   0  0  0  0  0  0  0  0  0  0  0  0
  1  2  1  0  0  0  0
  1  3  2  0  0  0  0
  2  4  2  0  0  0  0
  3 16  1  0  0  0  0
  4  5  1  0  0  0  0
  4 16  1  0  0  0  0
  5 13  1  0  0  0  0
  5 14  2  0  0  0  0
  6 11  1  0  0  0  0
  6 15  2  0  0  0  0
  6 18  1  0  0  0  0
  7  9  1  0  0  0  0
  7 11  1  0  0  0  0
  8 10  1  0  0  0  0
  8 11  1  0  0  0  0
  9 13  1  0  0  0  0
 10 13  1  0  0  0  0
 12 17  1  0  0  0  0
 12 18  1  0  0  0  0
M  END

> <original SMILES>

O=C(SCF)C1CCN(C(=O)c2ccco2)CC1

> <ref_mols>

x1334_0

> <ref_pdb>

receptors/Mpro-x1334_0.pdb

> <Chemgauss4>

-6.405756

> <binding_free_energy>

-3.390255661421918

> <binding_std_error>

6.545550541521563

$$$$
ALV-UNI-7ff1a6f9-9
  -OEChem-05122002103D

 27 31  0     0  0  0  0  0  0999 V2000
    6.5105   -2.0290   22.1077 C   0  0  0  0  0  0  0  0  0  0  0  0
    7.9285   -1.1614   20.3545 C   0  0  0  0  0  0  0  0  0  0  0  0
    5.3828   -1.7343   21.3415 C   0  0  0  0  0  0  0  0  0  0  0  0
    6.8008   -0.8667   19.5883 C   0  0  0  0  0  0  0  0  0  0  0  0
    7.6351   -4.2022   25.0264 C   0  0  0  0  0  0  0  0  0  0  0  0
    7.7380   -5.1647   21.3596 C   0  0  0  0  0  0  0  0  0  0  0  0
    6.7081   -5.1926   25.3222 C   0  0  0  0  0  0  0  0  0  0  0  0
    6.9275   -6.2162   20.9896 C   0  0  0  0  0  0  0  0  0  0  0  0
    7.5624   -4.9575   22.7534 C   0  0  0  0  0  0  0  0  0  0  0  0
    7.7834   -1.7425   21.6142 C   0  0  0  0  0  0  0  0  0  0  0  0
    8.0807   -4.0721   23.7123 C   0  0  0  0  0  0  0  0  0  0  0  0
    5.5280   -1.1531   20.0818 C   0  0  0  0  0  0  0  0  0  0  0  0
    8.9413   -2.0450   22.4010 C   0  0  0  0  0  0  0  0  0  0  0  0
    9.0447   -3.0698   23.3118 C   0  0  0  0  0  0  0  0  0  0  0  0
    6.6385   -5.9032   23.1883 C   0  0  0  0  0  0  0  0  0  0  0  0
   10.9230   -1.8953   23.1883 C   0  0  0  0  0  0  0  0  0  0  0  0
   12.2679   -1.5991   23.5586 C   0  0  0  0  0  0  0  0  0  0  0  0
   12.2142   -3.4803   25.1192 C   0  0  0  0  0  0  0  0  0  0  0  0
   10.9478   -3.7635   24.7740 C   0  0  0  0  0  0  0  0  0  0  0  0
   12.8984   -2.3539   24.4853 C   0  0  0  0  0  0  0  0  0  0  0  0
   14.3085   -2.0929   24.9178 C   0  0  0  0  0  0  0  0  0  0  0  0
    6.1756   -6.0713   24.4414 N   0  0  0  0  0  0  0  0  0  0  0  0
   10.1051   -1.3224   22.3287 N   0  0  0  0  0  0  0  0  0  0  0  0
    6.2651   -6.6561   22.1062 N   0  0  0  0  0  0  0  0  0  0  0  0
   10.3152   -2.9758   23.8187 N   0  0  0  0  0  0  0  0  0  0  0  0
    4.4450   -0.8701   19.3461 F   0  0  0  0  0  0  0  0  0  0  0  0
    5.6030   -7.4190   22.1289 H   0  0  0  0  0  0  0  0  0  0  0  0
  1  3  2  0  0  0  0
  1 10  1  0  0  0  0
  2  4  1  0  0  0  0
  2 10  2  0  0  0  0
  3 12  1  0  0  0  0
  4 12  2  0  0  0  0
  5  7  2  0  0  0  0
  5 11  1  0  0  0  0
  6  8  2  0  0  0  0
  6  9  1  0  0  0  0
  7 22  1  0  0  0  0
  8 24  1  0  0  0  0
  9 11  2  0  0  0  0
  9 15  1  0  0  0  0
 10 13  1  0  0  0  0
 11 14  1  0  0  0  0
 12 26  1  0  0  0  0
 13 14  2  0  0  0  0
 13 23  1  0  0  0  0
 14 25  1  0  0  0  0
 15 22  2  0  0  0  0
 15 24  1  0  0  0  0
 16 17  1  0  0  0  0
 16 23  2  0  0  0  0
 16 25  1  0  0  0  0
 17 20  2  0  0  0  0
 18 19  2  0  0  0  0
 18 20  1  0  0  0  0
 19 25  1  0  0  0  0
 20 21  1  0  0  0  0
 24 27  1  0  0  0  0
M  END

> <original SMILES>

Cc1ccn2c(-c3ccnc4[nH]ccc34)c(-c3ccc(F)cc3)nc2c1

> <ref_mols>

x0395_0,x0426_0,x0434_0,x0540_0,x0678_0,x0830_0,x1093_0

> <ref_pdb>

receptors/Mpro-x0434-protein.pdb

> <Chemgauss4>

-7.642018

> <binding_free_energy>

-3.3794490335844625

> <binding_std_error>

2.373600990238399

$$$$
JOH-MSK-a63bdd1d-4
  -OEChem-05122002103D

 19 20  0     0  0  0  0  0  0999 V2000
   11.4498   -1.1368   23.4760 C   0  0  0  0  0  0  0  0  0  0  0  0
   12.4260   -2.0541   23.0767 C   0  0  0  0  0  0  0  0  0  0  0  0
   13.8727   -0.2647   22.3006 C   0  0  0  0  0  0  0  0  0  0  0  0
   11.6149    2.4696   23.1875 C   0  0  0  0  0  0  0  0  0  0  0  0
   12.9032    0.6787   22.6951 C   0  0  0  0  0  0  0  0  0  0  0  0
   12.8250    2.0988   22.6481 C   0  0  0  0  0  0  0  0  0  0  0  0
   11.7166    0.2218   23.2725 C   0  0  0  0  0  0  0  0  0  0  0  0
   13.6195   -1.6270   22.4979 C   0  0  0  0  0  0  0  0  0  0  0  0
   12.1863    5.9700   23.6946 C   0  0  0  0  0  0  0  0  0  0  0  0
   10.8613    6.5845   23.3862 C   0  0  0  0  0  0  0  0  0  0  0  0
   13.8518    3.0189   22.1192 C   0  0  0  0  0  0  0  0  0  0  0  0
   13.8949    4.3854   22.8272 C   0  0  0  0  0  0  0  0  0  0  0  0
   10.9535    1.3306   23.5615 N   0  0  0  0  0  0  0  0  0  0  0  0
   12.6424    5.0860   22.7300 N   0  0  0  0  0  0  0  0  0  0  0  0
   12.7649    6.2706   24.7321 O   0  0  0  0  0  0  0  0  0  0  0  0
   14.5530   -2.5453   22.1195 O   0  0  0  0  0  0  0  0  0  0  0  0
   10.0374    1.3063   23.9875 H   0  0  0  0  0  0  0  0  0  0  0  0
   12.0606    4.9238   21.9095 H   0  0  0  0  0  0  0  0  0  0  0  0
   15.3240   -2.0996   21.7355 H   0  0  0  0  0  0  0  0  0  0  0  0
  1  2  2  0  0  0  0
  1  7  1  0  0  0  0
  2  8  1  0  0  0  0
  3  5  1  0  0  0  0
  3  8  2  0  0  0  0
  4  6  2  0  0  0  0
  4 13  1  0  0  0  0
  5  6  1  0  0  0  0
  5  7  2  0  0  0  0
  6 11  1  0  0  0  0
  7 13  1  0  0  0  0
  8 16  1  0  0  0  0
  9 10  1  0  0  0  0
  9 14  1  0  0  0  0
  9 15  2  0  0  0  0
 11 12  1  0  0  0  0
 12 14  1  0  0  0  0
 13 17  1  0  0  0  0
 14 18  1  0  0  0  0
 16 19  1  0  0  0  0
M  END

> <original SMILES>

CC(=O)NCCc1c[nH]c2ccc(O)cc12

> <ref_mols>

x0104_0

> <ref_pdb>

receptors/Mpro-x0104_0.pdb

> <Chemgauss4>

-9.028422

> <binding_free_energy>

-3.2043662889713502

> <binding_std_error>

5.817269687058579

$$$$
STE-UNK-dfade101-2
  -OEChem-05122002103D

 15 16  0     0  0  0  0  0  0999 V2000
    5.0687    0.2581   19.8062 C   0  0  0  0  0  0  0  0  0  0  0  0
    8.5452   -1.2081   23.4457 C   0  0  0  0  0  0  0  0  0  0  0  0
    5.4836   -0.0763   18.5272 C   0  0  0  0  0  0  0  0  0  0  0  0
    7.6984   -0.0245   19.1355 C   0  0  0  0  0  0  0  0  0  0  0  0
    6.0450    0.4546   20.7765 C   0  0  0  0  0  0  0  0  0  0  0  0
    7.3874    0.3126   20.4429 C   0  0  0  0  0  0  0  0  0  0  0  0
    9.2155   -2.4416   23.5505 C   0  0  0  0  0  0  0  0  0  0  0  0
    8.8613   -0.7512   22.1896 C   0  0  0  0  0  0  0  0  0  0  0  0
    5.6305    0.8148   22.1646 C   0  0  0  0  0  0  0  0  0  0  0  0
    9.2200   -3.3653   24.6976 C   0  0  0  0  0  0  0  0  0  0  0  0
    8.4729    0.5104   21.4435 C   0  0  0  0  0  0  0  0  0  0  0  0
    6.7779   -0.2232   18.1655 N   0  0  0  0  0  0  0  0  0  0  0  0
    9.9053   -2.7488   22.4488 N   0  0  0  0  0  0  0  0  0  0  0  0
    9.6700   -1.7019   21.6397 N   0  0  0  0  0  0  0  0  0  0  0  0
   10.0961   -1.7021   20.7212 H   0  0  0  0  0  0  0  0  0  0  0  0
  1  3  2  0  0  0  0
  1  5  1  0  0  0  0
  2  7  1  0  0  0  0
  2  8  2  0  0  0  0
  3 12  1  0  0  0  0
  4  6  1  0  0  0  0
  4 12  2  0  0  0  0
  5  6  2  0  0  0  0
  5  9  1  0  0  0  0
  6 11  1  0  0  0  0
  7 10  1  0  0  0  0
  7 13  2  0  0  0  0
  8 11  1  0  0  0  0
  8 14  1  0  0  0  0
 13 14  1  0  0  0  0
 14 15  1  0  0  0  0
M  END

> <original SMILES>

Cc1cc(Cc2cnccc2C)n[nH]1

> <ref_mols>

x0107_0

> <ref_pdb>

receptors/Mpro-x0107_0.pdb

> <Chemgauss4>

-9.555629

> <binding_free_energy>

-3.149887912368108

> <binding_std_error>

1.2586009166683303

$$$$
WAR-XCH-b72a1bbc-1
  -OEChem-05122002103D

 18 19  0     0  0  0  0  0  0999 V2000
    9.5974   -2.8608   22.8104 C   0  0  0  0  0  0  0  0  0  0  0  0
    9.7345   -4.4669   24.6101 C   0  0  0  0  0  0  0  0  0  0  0  0
    8.5100   -3.5521   22.2762 C   0  0  0  0  0  0  0  0  0  0  0  0
    8.6471   -5.1582   24.0760 C   0  0  0  0  0  0  0  0  0  0  0  0
   10.2097   -3.3182   23.9773 C   0  0  0  0  0  0  0  0  0  0  0  0
    8.0349   -4.7008   22.9090 C   0  0  0  0  0  0  0  0  0  0  0  0
   11.4229   -1.1808   24.3288 C   0  0  0  0  0  0  0  0  0  0  0  0
   12.3308   -3.3357   25.2673 C   0  0  0  0  0  0  0  0  0  0  0  0
   12.0783   -0.5164   25.5337 C   0  0  0  0  0  0  0  0  0  0  0  0
   13.7049   -2.7079   25.0653 C   0  0  0  0  0  0  0  0  0  0  0  0
   11.2865   -2.6340   24.5067 N   0  0  0  0  0  0  0  0  0  0  0  0
    6.3249   -4.6144   20.8661 N   0  0  0  0  0  0  0  0  0  0  0  0
    7.1348   -6.8765   21.8003 O   0  0  0  0  0  0  0  0  0  0  0  0
    5.5599   -5.4685   23.1731 O   0  0  0  0  0  0  0  0  0  0  0  0
   13.8072   -1.0292   25.7522 S   0  0  0  0  0  0  0  0  0  0  0  0
    6.6743   -5.5672   22.2408 S   0  0  0  0  0  0  0  0  0  0  0  0
    6.5475   -5.0028   19.9414 H   0  0  0  0  0  0  0  0  0  0  0  0
    5.4731   -4.0405   20.8813 H   0  0  0  0  0  0  0  0  0  0  0  0
  1  3  2  0  0  0  0
  1  5  1  0  0  0  0
  2  4  1  0  0  0  0
  2  5  2  0  0  0  0
  3  6  1  0  0  0  0
  4  6  2  0  0  0  0
  5 11  1  0  0  0  0
  6 16  1  0  0  0  0
  7  9  1  0  0  0  0
  7 11  1  0  0  0  0
  8 10  1  0  0  0  0
  8 11  1  0  0  0  0
  9 15  1  0  0  0  0
 10 15  1  0  0  0  0
 12 16  1  0  0  0  0
 13 16  2  0  0  0  0
 14 16  2  0  0  0  0
 12 17  1  0  0  0  0
 12 18  1  0  0  0  0
M  END

> <original SMILES>

NS(=O)(=O)c1ccc(N2CCSCC2)cc1

> <ref_mols>

x0072_0,x0104_0,x0107_0,x0161_0,x0165_0

> <ref_pdb>

receptors/Mpro-x0107-protein.pdb

> <Chemgauss4>

-4.054369

> <binding_free_energy>

-3.122612103733804

> <binding_std_error>

2.882855748335687

$$$$
GIA-UNK-995df016-5
  -OEChem-05122002103D

 19 20  0     0  0  0  0  0  0999 V2000
   13.2509    3.6700   22.7910 C   0  0  0  0  0  0  0  0  0  0  0  0
   12.3800   -1.3540   22.5449 C   0  0  0  0  0  0  0  0  0  0  0  0
   10.9719    7.1904   23.8247 C   0  0  0  0  0  0  0  0  0  0  0  0
   11.9724    6.6572   24.8458 C   0  0  0  0  0  0  0  0  0  0  0  0
   10.2531    6.0572   23.0989 C   0  0  0  0  0  0  0  0  0  0  0  0
   12.9624    5.6850   24.2096 C   0  0  0  0  0  0  0  0  0  0  0  0
   11.2389    5.0834   22.4588 C   0  0  0  0  0  0  0  0  0  0  0  0
   14.2328    0.2540   22.9610 C   0  0  0  0  0  0  0  0  0  0  0  0
   11.9887    0.5518   24.1180 C   0  0  0  0  0  0  0  0  0  0  0  0
   13.8521    1.3969   22.0216 C   0  0  0  0  0  0  0  0  0  0  0  0
   11.6855    1.6992   23.1534 C   0  0  0  0  0  0  0  0  0  0  0  0
   12.2468    4.5473   23.4779 C   0  0  0  0  0  0  0  0  0  0  0  0
   13.0093   -0.4460   23.5611 C   0  0  0  0  0  0  0  0  0  0  0  0
    9.7012   -1.6922   22.0641 C   0  0  0  0  0  0  0  0  0  0  0  0
   12.9252    2.3192   22.6760 N   0  0  0  0  0  0  0  0  0  0  0  0
   14.2978    4.1682   22.3690 O   0  0  0  0  0  0  0  0  0  0  0  0
   12.7847   -1.4495   21.3925 O   0  0  0  0  0  0  0  0  0  0  0  0
    9.5470   -0.3488   22.2073 F   0  0  0  0  0  0  0  0  0  0  0  0
   11.0076   -2.2702   23.1663 S   0  0  0  0  0  0  0  0  0  0  0  0
  1 12  1  0  0  0  0
  1 15  1  0  0  0  0
  1 16  2  0  0  0  0
  2 13  1  0  0  0  0
  2 17  2  0  0  0  0
  2 19  1  0  0  0  0
  3  4  1  0  0  0  0
  3  5  1  0  0  0  0
  4  6  1  0  0  0  0
  5  7  1  0  0  0  0
  6 12  1  0  0  0  0
  7 12  1  0  0  0  0
  8 10  1  0  0  0  0
  8 13  1  0  0  0  0
  9 11  1  0  0  0  0
  9 13  1  0  0  0  0
 10 15  1  0  0  0  0
 11 15  1  0  0  0  0
 14 18  1  0  0  0  0
 14 19  1  0  0  0  0
M  END

> <original SMILES>

O=C(SCF)C1CCN(C(=O)C2CCCCC2)CC1

> <ref_mols>

x1334_0

> <ref_pdb>

receptors/Mpro-x1334_0.pdb

> <Chemgauss4>

-6.095376

> <binding_free_energy>

-3.1133155200077454

> <binding_std_error>

2.2191940872798126

$$$$
CAS-DEP-751a2458-1
  -OEChem-05122002103D

 21 23  0     0  0  0  0  0  0999 V2000
   13.8813   -1.8714   26.2785 C   0  0  0  0  0  0  0  0  0  0  0  0
    8.8032   -5.3343   23.9184 C   0  0  0  0  0  0  0  0  0  0  0  0
   13.2593   -0.6486   26.0160 C   0  0  0  0  0  0  0  0  0  0  0  0
   13.3045   -3.0803   25.8757 C   0  0  0  0  0  0  0  0  0  0  0  0
    7.7728   -6.0507   23.3096 C   0  0  0  0  0  0  0  0  0  0  0  0
    7.3593   -4.1921   21.8224 C   0  0  0  0  0  0  0  0  0  0  0  0
    9.1117   -4.0468   23.4793 C   0  0  0  0  0  0  0  0  0  0  0  0
   12.0346   -0.5928   25.3388 C   0  0  0  0  0  0  0  0  0  0  0  0
   11.4409   -1.7978   24.9266 C   0  0  0  0  0  0  0  0  0  0  0  0
   12.0848   -3.0006   25.2028 C   0  0  0  0  0  0  0  0  0  0  0  0
    7.0508   -5.4796   22.2616 C   0  0  0  0  0  0  0  0  0  0  0  0
    8.3898   -3.4757   22.4313 C   0  0  0  0  0  0  0  0  0  0  0  0
   10.1811   -3.3229   24.1226 C   0  0  0  0  0  0  0  0  0  0  0  0
   11.4084    0.7391   25.0830 C   0  0  0  0  0  0  0  0  0  0  0  0
   10.2601   -2.0178   24.2553 N   0  0  0  0  0  0  0  0  0  0  0  0
   11.2566   -3.9590   24.6773 N   0  0  0  0  0  0  0  0  0  0  0  0
    6.0454   -6.1788   21.6677 O   0  0  0  0  0  0  0  0  0  0  0  0
    8.6698   -2.2190   21.9817 O   0  0  0  0  0  0  0  0  0  0  0  0
   11.4167   -4.9577   24.6994 H   0  0  0  0  0  0  0  0  0  0  0  0
    5.6410   -5.6513   20.9605 H   0  0  0  0  0  0  0  0  0  0  0  0
    8.0739   -1.9845   21.2538 H   0  0  0  0  0  0  0  0  0  0  0  0
  1  3  2  0  0  0  0
  1  4  1  0  0  0  0
  2  5  2  0  0  0  0
  2  7  1  0  0  0  0
  3  8  1  0  0  0  0
  4 10  2  0  0  0  0
  5 11  1  0  0  0  0
  6 11  2  0  0  0  0
  6 12  1  0  0  0  0
  7 12  2  0  0  0  0
  7 13  1  0  0  0  0
  8  9  2  0  0  0  0
  8 14  1  0  0  0  0
  9 10  1  0  0  0  0
  9 15  1  0  0  0  0
 10 16  1  0  0  0  0
 11 17  1  0  0  0  0
 12 18  1  0  0  0  0
 13 15  2  0  0  0  0
 13 16  1  0  0  0  0
 16 19  1  0  0  0  0
 17 20  1  0  0  0  0
 18 21  1  0  0  0  0
M  END

> <original SMILES>

Cc1cccc2nc(-c3ccc(O)cc3O)[nH]c12

> <ref_mols>

x0104_0

> <ref_pdb>

receptors/Mpro-x0104_0.pdb

> <Chemgauss4>

-7.900784

> <binding_free_energy>

-3.0738228026935843

> <binding_std_error>

2.857066141082978

$$$$
JOH-UNI-522b0723-2
  -OEChem-05122002103D

 16 17  0     1  0  0  0  0  0999 V2000
    6.7362   -4.1175   21.7569 C   0  0  0  0  0  0  0  0  0  0  0  0
    8.5351   -4.6922   23.3175 C   0  0  0  0  0  0  0  0  0  0  0  0
    9.7173   -4.3097   23.9416 C   0  0  0  0  0  0  0  0  0  0  0  0
    9.6061   -2.2428   22.7702 C   0  0  0  0  0  0  0  0  0  0  0  0
    7.9492   -3.7987   22.4353 C   0  0  0  0  0  0  0  0  0  0  0  0
   10.2695   -3.0633   23.6682 C   0  0  0  0  0  0  0  0  0  0  0  0
   11.7956   -3.1420   25.6205 C   0  0  0  0  0  0  0  0  0  0  0  0
   13.3032   -3.0961   25.8357 C   0  0  0  0  0  0  0  0  0  0  0  0
   12.1020   -1.3917   23.8489 C   0  0  2  0  0  0  0  0  0  0  0  0
   13.6133   -1.4875   24.1486 C   0  0  1  0  0  0  0  0  0  0  0  0
   11.4160   -0.2069   24.5440 C   0  0  0  0  0  0  0  0  0  0  0  0
   14.3747   -0.2010   23.8497 C   0  0  0  0  0  0  0  0  0  0  0  0
    5.7489   -4.3769   21.2049 N   0  0  0  0  0  0  0  0  0  0  0  0
    8.4560   -2.5796   22.1445 N   0  0  0  0  0  0  0  0  0  0  0  0
   11.4576   -2.6516   24.2795 N   0  0  2  0  0  0  0  0  0  0  0  0
   13.8279   -1.8080   25.5264 O   0  0  0  0  0  0  0  0  0  0  0  0
  1  5  1  0  0  0  0
  1 13  3  0  0  0  0
  2  3  2  0  0  0  0
  2  5  1  0  0  0  0
  3  6  1  0  0  0  0
  4  6  2  0  0  0  0
  4 14  1  0  0  0  0
  5 14  2  0  0  0  0
  6 15  1  0  0  0  0
  7  8  1  0  0  0  0
  7 15  1  0  0  0  0
  8 16  1  0  0  0  0
  9 10  1  0  0  0  0
  9 11  1  0  0  0  0
  9 15  1  0  0  0  0
 10 12  1  0  0  0  0
 10 16  1  0  0  0  0
M  END

> <original SMILES>

CC1OCCN(c2ccc(C#N)nc2)C1C

> <ref_mols>

x0434_0,x1077_0

> <ref_pdb>

receptors/Mpro-x1077_0.pdb

> <Chemgauss4>

-6.047543

> <binding_free_energy>

-3.0448159615384895

> <binding_std_error>

4.2134664388906735

$$$$
DAR-DIA-fc970077-1
  -OEChem-05122002103D

 18 20  0     0  0  0  0  0  0999 V2000
   14.2103   -1.0735   24.0765 C   0  0  0  0  0  0  0  0  0  0  0  0
   13.5908   -1.9864   23.2230 C   0  0  0  0  0  0  0  0  0  0  0  0
   13.5334    0.0792   24.4749 C   0  0  0  0  0  0  0  0  0  0  0  0
    5.6478    0.6097   19.1221 C   0  0  0  0  0  0  0  0  0  0  0  0
   12.2943   -1.7465   22.7678 C   0  0  0  0  0  0  0  0  0  0  0  0
   12.2369    0.3190   24.0197 C   0  0  0  0  0  0  0  0  0  0  0  0
    6.3936    0.4210   20.2804 C   0  0  0  0  0  0  0  0  0  0  0  0
    6.3146    0.5721   17.9081 C   0  0  0  0  0  0  0  0  0  0  0  0
    8.3360    0.1839   18.9286 C   0  0  0  0  0  0  0  0  0  0  0  0
   11.6173   -0.5938   23.1662 C   0  0  0  0  0  0  0  0  0  0  0  0
    7.7640    0.2035   20.1905 C   0  0  0  0  0  0  0  0  0  0  0  0
    9.9432   -0.2177   21.3450 C   0  0  0  0  0  0  0  0  0  0  0  0
    9.1795   -0.2234   23.5879 C   0  0  0  0  0  0  0  0  0  0  0  0
    7.9977    0.0291   22.6748 C   0  0  0  0  0  0  0  0  0  0  0  0
    7.6442    0.3633   17.7810 N   0  0  0  0  0  0  0  0  0  0  0  0
   10.3204   -0.3542   22.7108 N   0  0  0  0  0  0  0  0  0  0  0  0
    8.5349    0.0121   21.3299 N   0  0  0  0  0  0  0  0  0  0  0  0
   10.6826   -0.2840   20.3697 O   0  0  0  0  0  0  0  0  0  0  0  0
  1  2  1  0  0  0  0
  1  3  2  0  0  0  0
  2  5  2  0  0  0  0
  3  6  1  0  0  0  0
  4  7  2  0  0  0  0
  4  8  1  0  0  0  0
  5 10  1  0  0  0  0
  6 10  2  0  0  0  0
  7 11  1  0  0  0  0
  8 15  2  0  0  0  0
  9 11  2  0  0  0  0
  9 15  1  0  0  0  0
 10 16  1  0  0  0  0
 11 17  1  0  0  0  0
 12 16  1  0  0  0  0
 12 17  1  0  0  0  0
 12 18  2  0  0  0  0
 13 14  1  0  0  0  0
 13 16  1  0  0  0  0
 14 17  1  0  0  0  0
M  END

> <original SMILES>

O=C1N(c2ccccc2)CCN1c1cccnc1

> <ref_mols>

x0434_0

> <ref_pdb>

receptors/protein-0387.pdb

> <Chemgauss4>

-4.62701082229614

> <binding_free_energy>

-3.026003239348782

> <binding_std_error>

1.5115572883704491

$$$$
GIA-UNK-5ec6c2b8-2
  -OEChem-05122002103D

 17 18  0     0  0  0  0  0  0999 V2000
   10.4028   -3.9990   24.9191 C   0  0  0  0  0  0  0  0  0  0  0  0
    6.2793   -4.4165   21.3401 C   0  0  0  0  0  0  0  0  0  0  0  0
   13.2492   -1.0246   26.2255 C   0  0  0  0  0  0  0  0  0  0  0  0
   11.9939   -0.5480   25.5009 C   0  0  0  0  0  0  0  0  0  0  0  0
   13.7882   -2.3182   25.6222 C   0  0  0  0  0  0  0  0  0  0  0  0
   10.9217   -1.6335   25.4585 C   0  0  0  0  0  0  0  0  0  0  0  0
   12.7202   -3.4078   25.5799 C   0  0  0  0  0  0  0  0  0  0  0  0
    8.2661   -3.0789   21.9303 C   0  0  0  0  0  0  0  0  0  0  0  0
    8.1926   -5.5882   22.4105 C   0  0  0  0  0  0  0  0  0  0  0  0
    9.5951   -3.1696   22.6721 C   0  0  0  0  0  0  0  0  0  0  0  0
    8.4747   -5.0851   23.8231 C   0  0  0  0  0  0  0  0  0  0  0  0
   11.4575   -2.9344   24.8565 C   0  0  0  0  0  0  0  0  0  0  0  0
    7.7731   -4.4538   21.4675 C   0  0  0  0  0  0  0  0  0  0  0  0
    9.5262   -4.0648   23.8343 N   0  0  0  0  0  0  0  0  0  0  0  0
   10.3506   -4.7475   25.8979 O   0  0  0  0  0  0  0  0  0  0  0  0
    5.6831   -4.5868   20.2847 O   0  0  0  0  0  0  0  0  0  0  0  0
    5.2468   -4.1075   22.7854 S   0  5  0  0  0  0  0  0  0  0  0  0
  1 12  1  0  0  0  0
  1 14  1  0  0  0  0
  1 15  2  0  0  0  0
  2 13  1  0  0  0  0
  2 16  2  0  0  0  0
  2 17  1  0  0  0  0
  3  4  1  0  0  0  0
  3  5  1  0  0  0  0
  4  6  1  0  0  0  0
  5  7  1  0  0  0  0
  6 12  1  0  0  0  0
  7 12  1  0  0  0  0
  8 10  1  0  0  0  0
  8 13  1  0  0  0  0
  9 11  1  0  0  0  0
  9 13  1  0  0  0  0
 10 14  1  0  0  0  0
 11 14  1  0  0  0  0
M  CHG  1  17  -1
M  END

> <original SMILES>

O=C(S)C1CCN(C(=O)C2CCCCC2)CC1

> <ref_mols>

x1380_0,x1386_0

> <ref_pdb>

receptors/protein-0387.pdb

> <Chemgauss4>

-5.12373733520508

> <binding_free_energy>

-2.996402564265736

> <binding_std_error>

6.69946826698059

$$$$
GAB-REV-70cc3ca5-9
  -OEChem-05122002103D

 22 24  0     0  0  0  0  0  0999 V2000
    8.0736   -4.9345   25.6856 C   0  0  0  0  0  0  0  0  0  0  0  0
    6.9761   -4.1203   25.9746 C   0  0  0  0  0  0  0  0  0  0  0  0
    9.1717   -4.4385   24.9717 C   0  0  0  0  0  0  0  0  0  0  0  0
    6.9350   -2.7842   25.5625 C   0  0  0  0  0  0  0  0  0  0  0  0
    5.1937    0.5309   19.5213 C   0  0  0  0  0  0  0  0  0  0  0  0
    5.7806    0.3913   18.2740 C   0  0  0  0  0  0  0  0  0  0  0  0
    7.8514    0.0080   19.1923 C   0  0  0  0  0  0  0  0  0  0  0  0
    6.0062    0.3963   20.6416 C   0  0  0  0  0  0  0  0  0  0  0  0
    9.1472   -3.0985   24.5496 C   0  0  0  0  0  0  0  0  0  0  0  0
    8.0395   -2.3118   24.8529 C   0  0  0  0  0  0  0  0  0  0  0  0
    7.3615    0.1298   20.4826 C   0  0  0  0  0  0  0  0  0  0  0  0
    9.5615   -1.1759   23.7180 C   0  0  0  0  0  0  0  0  0  0  0  0
    9.5880    0.2831   21.6508 C   0  0  0  0  0  0  0  0  0  0  0  0
    5.3998    0.5425   21.9987 C   0  0  0  0  0  0  0  0  0  0  0  0
   10.1696   -0.0175   23.0374 C   0  0  0  0  0  0  0  0  0  0  0  0
    7.0932    0.1324   18.0799 N   0  0  0  0  0  0  0  0  0  0  0  0
   10.0822   -2.3759   23.8447 N   0  0  0  0  0  0  0  0  0  0  0  0
    8.3318   -1.0874   24.3089 N   0  0  0  0  0  0  0  0  0  0  0  0
    8.2292   -0.0162   21.5911 N   0  0  0  0  0  0  0  0  0  0  0  0
   10.2905    0.7299   20.7497 O   0  0  0  0  0  0  0  0  0  0  0  0
    7.7413   -0.2668   24.3415 H   0  0  0  0  0  0  0  0  0  0  0  0
    7.8115   -0.3826   22.4440 H   0  0  0  0  0  0  0  0  0  0  0  0
  1  2  1  0  0  0  0
  1  3  2  0  0  0  0
  2  4  2  0  0  0  0
  3  9  1  0  0  0  0
  4 10  1  0  0  0  0
  5  6  2  0  0  0  0
  5  8  1  0  0  0  0
  6 16  1  0  0  0  0
  7 11  1  0  0  0  0
  7 16  2  0  0  0  0
  8 11  2  0  0  0  0
  8 14  1  0  0  0  0
  9 10  2  0  0  0  0
  9 17  1  0  0  0  0
 10 18  1  0  0  0  0
 11 19  1  0  0  0  0
 12 15  1  0  0  0  0
 12 17  2  0  0  0  0
 12 18  1  0  0  0  0
 13 15  1  0  0  0  0
 13 19  1  0  0  0  0
 13 20  2  0  0  0  0
 18 21  1  0  0  0  0
 19 22  1  0  0  0  0
M  END

> <original SMILES>

Cc1ccncc1NC(=O)Cc1nc2ccccc2[nH]1

> <ref_mols>

x0107_0

> <ref_pdb>

receptors/Mpro-x0107-protein.pdb

> <Chemgauss4>

-10.034979

> <binding_free_energy>

-2.9653899000000052

> <binding_std_error>

2.391722514984902

$$$$
ALV-UNI-7ff1a6f9-13
  -OEChem-05122002103D

 26 29  0     0  0  0  0  0  0999 V2000
    8.2985   -5.1824   21.9932 C   0  0  0  0  0  0  0  0  0  0  0  0
    7.3434   -4.7934   24.1780 C   0  0  0  0  0  0  0  0  0  0  0  0
    7.1968   -5.9664   21.6511 C   0  0  0  0  0  0  0  0  0  0  0  0
    6.2416   -5.5775   23.8359 C   0  0  0  0  0  0  0  0  0  0  0  0
   10.0933   -1.7898   20.6634 C   0  0  0  0  0  0  0  0  0  0  0  0
    8.0302   -1.4894   21.8625 C   0  0  0  0  0  0  0  0  0  0  0  0
    9.5048   -1.1338   19.5943 C   0  0  0  0  0  0  0  0  0  0  0  0
    8.3719   -4.5959   23.2567 C   0  0  0  0  0  0  0  0  0  0  0  0
    9.3353   -1.9669   21.8155 C   0  0  0  0  0  0  0  0  0  0  0  0
    6.1683   -6.1640   22.5724 C   0  0  0  0  0  0  0  0  0  0  0  0
    9.5033   -3.7910   23.6080 C   0  0  0  0  0  0  0  0  0  0  0  0
    9.9027   -2.6457   22.9606 C   0  0  0  0  0  0  0  0  0  0  0  0
    7.5341   -0.8467   20.7398 C   0  0  0  0  0  0  0  0  0  0  0  0
   11.2421   -3.1309   24.6615 C   0  0  0  0  0  0  0  0  0  0  0  0
   12.3640   -2.8923   25.5090 C   0  0  0  0  0  0  0  0  0  0  0  0
   12.8789   -0.8906   24.2030 C   0  0  0  0  0  0  0  0  0  0  0  0
   11.8237   -1.1108   23.4022 C   0  0  0  0  0  0  0  0  0  0  0  0
   13.1575   -1.8190   25.2982 C   0  0  0  0  0  0  0  0  0  0  0  0
   14.3504   -1.5150   26.1514 C   0  0  0  0  0  0  0  0  0  0  0  0
    8.2402   -0.6559   19.6028 N   0  0  0  0  0  0  0  0  0  0  0  0
   10.3347   -4.0861   24.6586 N   0  0  0  0  0  0  0  0  0  0  0  0
   11.0185   -2.2203   23.6344 N   0  0  0  0  0  0  0  0  0  0  0  0
    6.2027   -0.3654   20.8024 N   0  0  0  0  0  0  0  0  0  0  0  0
    5.1104   -6.9169   22.2438 F   0  0  0  0  0  0  0  0  0  0  0  0
    5.6639   -0.5459   21.6212 H   0  0  0  0  0  0  0  0  0  0  0  0
    5.8060    0.0586   19.9923 H   0  0  0  0  0  0  0  0  0  0  0  0
  1  3  2  0  0  0  0
  1  8  1  0  0  0  0
  2  4  1  0  0  0  0
  2  8  2  0  0  0  0
  3 10  1  0  0  0  0
  4 10  2  0  0  0  0
  5  7  2  0  0  0  0
  5  9  1  0  0  0  0
  6  9  2  0  0  0  0
  6 13  1  0  0  0  0
  7 20  1  0  0  0  0
  8 11  1  0  0  0  0
  9 12  1  0  0  0  0
 10 24  1  0  0  0  0
 11 12  2  0  0  0  0
 11 21  1  0  0  0  0
 12 22  1  0  0  0  0
 13 20  2  0  0  0  0
 13 23  1  0  0  0  0
 14 15  1  0  0  0  0
 14 21  2  0  0  0  0
 14 22  1  0  0  0  0
 15 18  2  0  0  0  0
 16 17  2  0  0  0  0
 16 18  1  0  0  0  0
 17 22  1  0  0  0  0
 18 19  1  0  0  0  0
 23 25  1  0  0  0  0
 23 26  1  0  0  0  0
M  END

> <original SMILES>

Cc1ccn2c(-c3ccnc(N)c3)c(-c3ccc(F)cc3)nc2c1

> <ref_mols>

x0395_0,x0426_0,x0434_0,x0540_0,x0678_0,x0830_0,x1093_0

> <ref_pdb>

receptors/Mpro-x1093_0.pdb

> <Chemgauss4>

-8.740091

> <binding_free_energy>

-2.9539012591836524

> <binding_std_error>

6.1080366838823

$$$$
MAK-UNK-6435e6c2-9
  -OEChem-05122002103D

 17 18  0     1  0  0  0  0  0999 V2000
   13.2899   -1.9410   22.4277 C   0  0  0  0  0  0  0  0  0  0  0  0
   12.0145   -1.7453   22.9575 C   0  0  0  0  0  0  0  0  0  0  0  0
   14.2465   -0.9301   22.5209 C   0  0  0  0  0  0  0  0  0  0  0  0
   11.6957   -0.5387   23.5804 C   0  0  0  0  0  0  0  0  0  0  0  0
   13.9277    0.2766   23.1438 C   0  0  0  0  0  0  0  0  0  0  0  0
   12.6523    0.4723   23.6735 C   0  0  0  0  0  0  0  0  0  0  0  0
   13.7583    3.3389   21.9978 C   0  0  0  0  0  0  0  0  0  0  0  0
   13.7551    4.7605   22.5429 C   0  0  0  0  0  0  0  0  0  0  0  0
   12.3682    2.7214   22.0126 C   0  0  0  0  0  0  0  0  0  0  0  0
   13.1214    4.8220   23.9315 C   0  0  2  0  0  0  0  0  0  0  0  0
   11.7169    4.2027   23.9806 C   0  0  1  0  0  0  0  0  0  0  0  0
   10.6326    5.0178   23.2707 C   0  0  0  0  0  0  0  0  0  0  0  0
   12.3099    1.7705   24.3432 C   0  0  0  0  0  0  0  0  0  0  0  0
   11.7489    2.7969   23.3908 N   0  3  2  0  0  0  0  0  0  0  0  0
   13.0902    6.1732   24.3832 O   0  0  0  0  0  0  0  0  0  0  0  0
   10.7292    2.5231   23.2691 H   0  0  0  0  0  0  0  0  0  0  0  0
   14.0108    6.4749   24.4095 H   0  0  0  0  0  0  0  0  0  0  0  0
  1  2  1  0  0  0  0
  1  3  2  0  0  0  0
  2  4  2  0  0  0  0
  3  5  1  0  0  0  0
  4  6  1  0  0  0  0
  5  6  2  0  0  0  0
  6 13  1  0  0  0  0
  7  8  1  0  0  0  0
  7  9  1  0  0  0  0
  8 10  1  0  0  0  0
  9 14  1  0  0  0  0
 10 11  1  0  0  0  0
 10 15  1  0  0  0  0
 11 12  1  0  0  0  0
 11 14  1  0  0  0  0
 13 14  1  0  0  0  0
 14 16  1  0  0  0  0
 15 17  1  0  0  0  0
M  CHG  1  14   1
M  END

> <original SMILES>

CC1C(O)CCCN1Cc1ccccc1

> <ref_mols>

x0689_0

> <ref_pdb>

receptors/Mpro-x0689_0.pdb

> <Chemgauss4>

-2.075905

> <binding_free_energy>

-2.9334527499999865

> <binding_std_error>

3.3826362764277573

$$$$
SUN-DEP-1496052a-2
  -OEChem-05122002103D

 12 12  0     1  0  0  0  0  0999 V2000
   11.3658    2.1019   24.0682 C   0  0  0  0  0  0  0  0  0  0  0  0
   12.0728    3.0517   23.4325 C   0  0  0  0  0  0  0  0  0  0  0  0
   11.6555    0.6302   23.9669 C   0  0  0  0  0  0  0  0  0  0  0  0
   13.2633    2.7177   22.5705 C   0  0  0  0  0  0  0  0  0  0  0  0
   13.7732    1.2833   22.7556 C   0  0  0  0  0  0  0  0  0  0  0  0
   12.6234    0.2698   22.8260 C   0  0  1  0  0  0  0  0  0  0  0  0
   11.7198    4.5061   23.5367 C   0  0  0  0  0  0  0  0  0  0  0  0
   12.0022   -2.1540   23.0333 C   0  0  0  0  0  0  0  0  0  0  0  0
   14.1412   -1.4992   21.8932 C   0  0  0  0  0  0  0  0  0  0  0  0
   13.1543   -1.1534   23.0048 C   0  0  0  0  0  0  0  0  0  0  0  0
   11.8898    0.3047   21.5969 O   0  0  0  0  0  0  0  0  0  0  0  0
   11.1818   -0.3491   21.6869 H   0  0  0  0  0  0  0  0  0  0  0  0
  1  2  2  0  0  0  0
  1  3  1  0  0  0  0
  2  4  1  0  0  0  0
  2  7  1  0  0  0  0
  3  6  1  0  0  0  0
  4  5  1  0  0  0  0
  5  6  1  0  0  0  0
  6 10  1  0  0  0  0
  6 11  1  0  0  0  0
  8 10  1  0  0  0  0
  9 10  1  0  0  0  0
 11 12  1  0  0  0  0
M  END

> <original SMILES>

CC1=CCC(O)(C(C)C)CC1

> <ref_mols>

x0072_0,x0104_0,x0107_0

> <ref_pdb>

receptors/Mpro-x0104-protein.pdb

> <Chemgauss4>

-6.482574

> <binding_free_energy>

-2.888577038736292

> <binding_std_error>

3.2987310487781554

$$$$
WAR-XCH-b72a1bbc-7
  -OEChem-05122002103D

 23 25  0     0  0  0  0  0  0999 V2000
    6.1942   -3.3382   22.0946 C   0  0  0  0  0  0  0  0  0  0  0  0
   11.5062    1.5840   23.5413 C   0  0  0  0  0  0  0  0  0  0  0  0
   13.6131    0.6233   22.8521 C   0  0  0  0  0  0  0  0  0  0  0  0
   11.9415    2.8406   23.1205 C   0  0  0  0  0  0  0  0  0  0  0  0
   14.0484    1.8799   22.4313 C   0  0  0  0  0  0  0  0  0  0  0  0
    7.3169   -3.7082   22.8729 C   0  0  0  0  0  0  0  0  0  0  0  0
    6.4645   -2.0803   21.6080 C   0  0  0  0  0  0  0  0  0  0  0  0
   12.3420    0.4753   23.4072 C   0  0  0  0  0  0  0  0  0  0  0  0
   13.2125    2.9886   22.5655 C   0  0  0  0  0  0  0  0  0  0  0  0
    8.1934   -2.6502   22.8063 C   0  0  0  0  0  0  0  0  0  0  0  0
    9.5600   -1.1979   24.3739 C   0  0  0  0  0  0  0  0  0  0  0  0
   10.6469   -2.2274   22.3194 C   0  0  0  0  0  0  0  0  0  0  0  0
   10.9619   -0.9461   24.9329 C   0  0  0  0  0  0  0  0  0  0  0  0
   12.0190   -1.9432   22.9416 C   0  0  0  0  0  0  0  0  0  0  0  0
    9.5644   -2.3994   23.4055 C   0  0  0  0  0  0  0  0  0  0  0  0
   11.9083   -0.7783   23.8268 N   0  0  0  0  0  0  0  0  0  0  0  0
   12.3980    5.5223   22.4195 N   0  0  0  0  0  0  0  0  0  0  0  0
   14.8722    4.9677   22.8847 O   0  0  0  0  0  0  0  0  0  0  0  0
   13.9214    4.5339   20.5922 O   0  0  0  0  0  0  0  0  0  0  0  0
    7.6813   -1.6538   22.0372 O   0  0  0  0  0  0  0  0  0  0  0  0
   13.7585    4.5612   22.0391 S   0  0  0  0  0  0  0  0  0  0  0  0
   12.4745    6.1745   23.2096 H   0  0  0  0  0  0  0  0  0  0  0  0
   11.8253    5.8757   21.6434 H   0  0  0  0  0  0  0  0  0  0  0  0
  1  6  1  0  0  0  0
  1  7  2  0  0  0  0
  2  4  2  0  0  0  0
  2  8  1  0  0  0  0
  3  5  1  0  0  0  0
  3  8  2  0  0  0  0
  4  9  1  0  0  0  0
  5  9  2  0  0  0  0
  6 10  2  0  0  0  0
  7 20  1  0  0  0  0
  8 16  1  0  0  0  0
  9 21  1  0  0  0  0
 10 15  1  0  0  0  0
 10 20  1  0  0  0  0
 11 13  1  0  0  0  0
 11 15  1  0  0  0  0
 12 14  1  0  0  0  0
 12 15  1  0  0  0  0
 13 16  1  0  0  0  0
 14 16  1  0  0  0  0
 17 21  1  0  0  0  0
 18 21  2  0  0  0  0
 19 21  2  0  0  0  0
 17 22  1  0  0  0  0
 17 23  1  0  0  0  0
M  END

> <original SMILES>

NS(=O)(=O)c1ccc(N2CCC(c3ccco3)CC2)cc1

> <ref_mols>

x0072_0,x0104_0,x0107_0,x0161_0,x0165_0

> <ref_pdb>

receptors/Mpro-x0072-protein.pdb

> <Chemgauss4>

-8.560461

> <binding_free_energy>

-2.883341385306119

> <binding_std_error>

2.476227305413746

$$$$
ALV-UNI-7ff1a6f9-38
  -OEChem-05122002103D

 23 26  0     0  0  0  0  0  0999 V2000
   11.8476   -0.2978   22.9013 C   0  0  0  0  0  0  0  0  0  0  0  0
   10.8012   -1.0472   22.3753 C   0  0  0  0  0  0  0  0  0  0  0  0
    9.6335   -4.3929   24.3771 C   0  0  0  0  0  0  0  0  0  0  0  0
    7.4273   -4.0547   25.3020 C   0  0  0  0  0  0  0  0  0  0  0  0
   10.0101   -5.0846   25.5284 C   0  0  0  0  0  0  0  0  0  0  0  0
    7.8038   -4.7465   26.4532 C   0  0  0  0  0  0  0  0  0  0  0  0
   11.6936    0.2272   24.1743 C   0  0  0  0  0  0  0  0  0  0  0  0
    9.5934   -0.6787   24.3907 C   0  0  0  0  0  0  0  0  0  0  0  0
    8.3421   -3.8779   24.2640 C   0  0  0  0  0  0  0  0  0  0  0  0
    9.6489   -1.2459   23.1278 C   0  0  0  0  0  0  0  0  0  0  0  0
    9.0953   -5.2615   26.5664 C   0  0  0  0  0  0  0  0  0  0  0  0
    7.9557   -3.1676   23.0822 C   0  0  0  0  0  0  0  0  0  0  0  0
    8.5432   -2.0207   22.6083 C   0  0  0  0  0  0  0  0  0  0  0  0
    6.8708   -2.6784   21.2946 C   0  0  0  0  0  0  0  0  0  0  0  0
    7.2192   -0.5424   19.5288 C   0  0  0  0  0  0  0  0  0  0  0  0
    8.0214   -0.6526   20.5927 C   0  0  0  0  0  0  0  0  0  0  0  0
    6.1863   -1.6185   19.4007 C   0  0  0  0  0  0  0  0  0  0  0  0
    5.2698   -1.5174   18.2087 C   0  0  0  0  0  0  0  0  0  0  0  0
   10.5895    0.0554   24.9353 N   0  0  0  0  0  0  0  0  0  0  0  0
    6.9271   -3.5678   22.2698 N   0  0  0  0  0  0  0  0  0  0  0  0
    6.0241   -2.6147   20.2247 N   0  0  0  0  0  0  0  0  0  0  0  0
    7.8507   -1.7095   21.4686 N   0  0  0  0  0  0  0  0  0  0  0  0
    9.4570   -5.9258   27.6719 F   0  0  0  0  0  0  0  0  0  0  0  0
  1  2  2  0  0  0  0
  1  7  1  0  0  0  0
  2 10  1  0  0  0  0
  3  5  2  0  0  0  0
  3  9  1  0  0  0  0
  4  6  1  0  0  0  0
  4  9  2  0  0  0  0
  5 11  1  0  0  0  0
  6 11  2  0  0  0  0
  7 19  2  0  0  0  0
  8 10  2  0  0  0  0
  8 19  1  0  0  0  0
  9 12  1  0  0  0  0
 10 13  1  0  0  0  0
 11 23  1  0  0  0  0
 12 13  2  0  0  0  0
 12 20  1  0  0  0  0
 13 22  1  0  0  0  0
 14 20  2  0  0  0  0
 14 21  1  0  0  0  0
 14 22  1  0  0  0  0
 15 16  2  0  0  0  0
 15 17  1  0  0  0  0
 16 22  1  0  0  0  0
 17 18  1  0  0  0  0
 17 21  2  0  0  0  0
M  END

> <original SMILES>

Cc1ccn2c(-c3cccnc3)c(-c3ccc(F)cc3)nc2n1

> <ref_mols>

x0395_0,x0426_0,x0434_0,x0540_0,x0678_0,x0830_0,x1093_0

> <ref_pdb>

receptors/Mpro-x1093-protein.pdb

> <Chemgauss4>

-7.585648

> <binding_free_energy>

-2.8554947485028563

> <binding_std_error>

2.4737814406529783

$$$$
MIC-SGC-657978c3-8
  -OEChem-05122002103D

 22 24  0     0  0  0  0  0  0999 V2000
   13.8074   -1.1155   23.4627 C   0  0  0  0  0  0  0  0  0  0  0  0
   13.0710   -1.8911   22.5672 C   0  0  0  0  0  0  0  0  0  0  0  0
   13.4676    0.2213   23.6707 C   0  0  0  0  0  0  0  0  0  0  0  0
    6.0546    0.0678   19.5833 C   0  0  0  0  0  0  0  0  0  0  0  0
   11.9950   -1.3299   21.8796 C   0  0  0  0  0  0  0  0  0  0  0  0
   12.3915    0.7825   22.9831 C   0  0  0  0  0  0  0  0  0  0  0  0
    6.9268    0.0664   20.6661 C   0  0  0  0  0  0  0  0  0  0  0  0
    6.6007    0.0248   18.3106 C   0  0  0  0  0  0  0  0  0  0  0  0
    8.7447   -0.0186   19.1350 C   0  0  0  0  0  0  0  0  0  0  0  0
   11.6552    0.0069   22.0876 C   0  0  0  0  0  0  0  0  0  0  0  0
    8.2991    0.0226   20.4463 C   0  0  0  0  0  0  0  0  0  0  0  0
   10.5093    0.6045   21.3554 C   0  0  0  0  0  0  0  0  0  0  0  0
    8.8182   -0.5707   22.7857 C   0  0  0  0  0  0  0  0  0  0  0  0
    7.6726   -0.8079   25.6170 C   0  0  0  0  0  0  0  0  0  0  0  0
    8.8071   -1.7883   25.5970 C   0  0  0  0  0  0  0  0  0  0  0  0
    9.0559   -0.3466   25.2479 C   0  0  0  0  0  0  0  0  0  0  0  0
    7.9280   -0.0185   18.0576 N   0  0  0  0  0  0  0  0  0  0  0  0
    9.3748    0.0502   23.9064 N   0  0  0  0  0  0  0  0  0  0  0  0
    9.2336    0.0202   21.5542 N   0  0  0  0  0  0  0  0  0  0  0  0
   10.7422    1.5355   20.5850 O   0  0  0  0  0  0  0  0  0  0  0  0
    8.0143   -1.5027   22.8677 O   0  0  0  0  0  0  0  0  0  0  0  0
   10.0807    0.7697   23.7833 H   0  0  0  0  0  0  0  0  0  0  0  0
  1  2  1  0  0  0  0
  1  3  2  0  0  0  0
  2  5  2  0  0  0  0
  3  6  1  0  0  0  0
  4  7  2  0  0  0  0
  4  8  1  0  0  0  0
  5 10  1  0  0  0  0
  6 10  2  0  0  0  0
  7 11  1  0  0  0  0
  8 17  2  0  0  0  0
  9 11  2  0  0  0  0
  9 17  1  0  0  0  0
 10 12  1  0  0  0  0
 11 19  1  0  0  0  0
 12 19  1  0  0  0  0
 12 20  2  0  0  0  0
 13 18  1  0  0  0  0
 13 19  1  0  0  0  0
 13 21  2  0  0  0  0
 14 15  1  0  0  0  0
 14 16  1  0  0  0  0
 15 16  1  0  0  0  0
 16 18  1  0  0  0  0
 18 22  1  0  0  0  0
M  END

> <original SMILES>

O=C(NC1CC1)N(C(=O)c1ccccc1)c1cccnc1

> <ref_mols>

x0107_0,x0397_0,x0434_0,x1093_0

> <ref_pdb>

receptors/Mpro-x0107-protein.pdb

> <Chemgauss4>

-9.466885

> <binding_free_energy>

-2.711073039999997

> <binding_std_error>

2.301650099612635

$$$$
GER-UNI-cad0fe83-1
  -OEChem-05122002103D

 22 25  0     1  0  0  0  0  0999 V2000
    6.1452   -5.1819   21.3872 C   0  0  0  0  0  0  0  0  0  0  0  0
    6.1358   -3.9417   22.0253 C   0  0  0  0  0  0  0  0  0  0  0  0
    7.2304   -6.0428   21.5520 C   0  0  0  0  0  0  0  0  0  0  0  0
    7.2115   -3.5621   22.8280 C   0  0  0  0  0  0  0  0  0  0  0  0
    8.3061   -5.6632   22.3547 C   0  0  0  0  0  0  0  0  0  0  0  0
    8.0342   -1.7556   26.6557 C   0  0  0  0  0  0  0  0  0  0  0  0
    8.5743   -0.5222   26.2924 C   0  0  0  0  0  0  0  0  0  0  0  0
    9.7595   -1.5791   24.4810 C   0  0  0  0  0  0  0  0  0  0  0  0
    8.2967   -4.4229   22.9927 C   0  0  0  0  0  0  0  0  0  0  0  0
    9.2200   -2.8363   24.8205 C   0  0  0  0  0  0  0  0  0  0  0  0
    8.3703   -2.9173   25.9409 C   0  0  0  0  0  0  0  0  0  0  0  0
    9.4444   -0.4349   25.2129 C   0  0  0  0  0  0  0  0  0  0  0  0
    8.3986   -5.4132   26.1663 C   0  0  0  0  0  0  0  0  0  0  0  0
    6.7764   -4.3890   27.1889 C   0  0  0  0  0  0  0  0  0  0  0  0
    9.6173   -5.7604   25.5035 C   0  0  0  0  0  0  0  0  0  0  0  0
    9.4827   -4.0052   23.8770 C   0  0  1  0  0  0  0  0  0  0  0  0
    5.7569   -3.3992   27.5968 C   0  0  0  0  0  0  0  0  0  0  0  0
    7.6879   -6.3145   26.8134 N   0  0  0  0  0  0  0  0  0  0  0  0
    6.6532   -5.6707   27.4415 N   0  0  0  0  0  0  0  0  0  0  0  0
   10.1700   -5.1354   24.5261 N   0  0  0  0  0  0  0  0  0  0  0  0
    7.8587   -4.1615   26.3760 N   0  0  0  0  0  0  0  0  0  0  0  0
   10.1173    1.0854   24.7690 Cl  0  0  0  0  0  0  0  0  0  0  0  0
  1  2  1  0  0  0  0
  1  3  2  0  0  0  0
  2  4  2  0  0  0  0
  3  5  1  0  0  0  0
  4  9  1  0  0  0  0
  5  9  2  0  0  0  0
  6  7  2  0  0  0  0
  6 11  1  0  0  0  0
  7 12  1  0  0  0  0
  8 10  1  0  0  0  0
  8 12  2  0  0  0  0
  9 16  1  0  0  0  0
 10 11  2  0  0  0  0
 10 16  1  0  0  0  0
 11 21  1  0  0  0  0
 12 22  1  0  0  0  0
 13 15  1  0  0  0  0
 13 18  2  0  0  0  0
 13 21  1  0  0  0  0
 14 17  1  0  0  0  0
 14 19  2  0  0  0  0
 14 21  1  0  0  0  0
 15 20  2  0  0  0  0
 16 20  1  0  0  0  0
 18 19  1  0  0  0  0
M  END

> <original SMILES>

Cc1nnc2n1-c1ccc(Cl)cc1C(c1ccccc1)=NC2

> <ref_mols>

x0072_0

> <ref_pdb>

receptors/Mpro-x0072-protein.pdb

> <Chemgauss4>

-7.59986

> <binding_free_energy>

-2.708988851530613

> <binding_std_error>

2.3058547147790627

$$$$
DAR-DIA-23aa0b97-1
  -OEChem-05122002103D

 23 25  0     0  0  0  0  0  0999 V2000
    6.0614   -2.9882   19.5855 C   0  0  0  0  0  0  0  0  0  0  0  0
    6.9145   -3.7532   23.1271 C   0  0  0  0  0  0  0  0  0  0  0  0
    9.2109    1.5922   25.6047 C   0  0  0  0  0  0  0  0  0  0  0  0
    6.2185   -3.6997   21.9196 C   0  0  0  0  0  0  0  0  0  0  0  0
    9.9240    0.6151   24.9125 C   0  0  0  0  0  0  0  0  0  0  0  0
    8.1669   -3.1489   23.2377 C   0  0  0  0  0  0  0  0  0  0  0  0
    8.0272   -2.4378   20.9330 C   0  0  0  0  0  0  0  0  0  0  0  0
    9.6824    2.8981   25.5915 C   0  0  0  0  0  0  0  0  0  0  0  0
   12.9886    1.3179   23.0539 C   0  0  0  0  0  0  0  0  0  0  0  0
    6.7748   -3.0421   20.8225 C   0  0  0  0  0  0  0  0  0  0  0  0
   11.0889    1.0099   24.2351 C   0  0  0  0  0  0  0  0  0  0  0  0
   12.0723    0.3636   23.4402 C   0  0  0  0  0  0  0  0  0  0  0  0
    8.7232   -2.4912   22.1406 C   0  0  0  0  0  0  0  0  0  0  0  0
   11.4466    2.3531   24.3054 C   0  0  0  0  0  0  0  0  0  0  0  0
   10.8183   -1.8333   23.3746 C   0  0  0  0  0  0  0  0  0  0  0  0
   12.1153   -1.0694   23.0864 C   0  0  0  0  0  0  0  0  0  0  0  0
    5.4820   -2.9444   18.5810 N   0  0  0  0  0  0  0  0  0  0  0  0
   10.7957    3.3347   24.9579 N   0  0  0  0  0  0  0  0  0  0  0  0
   12.5996    2.5205   23.5845 N   0  0  0  0  0  0  0  0  0  0  0  0
    9.9932   -1.8771   22.2536 N   0  0  0  0  0  0  0  0  0  0  0  0
   10.5973   -2.3195   24.4791 O   0  0  0  0  0  0  0  0  0  0  0  0
   13.0886    3.3966   23.4640 H   0  0  0  0  0  0  0  0  0  0  0  0
   10.3445   -1.4135   21.4182 H   0  0  0  0  0  0  0  0  0  0  0  0
  1 10  1  0  0  0  0
  1 17  3  0  0  0  0
  2  4  2  0  0  0  0
  2  6  1  0  0  0  0
  3  5  2  0  0  0  0
  3  8  1  0  0  0  0
  4 10  1  0  0  0  0
  5 11  1  0  0  0  0
  6 13  2  0  0  0  0
  7 10  2  0  0  0  0
  7 13  1  0  0  0  0
  8 18  2  0  0  0  0
  9 12  2  0  0  0  0
  9 19  1  0  0  0  0
 11 12  1  0  0  0  0
 11 14  2  0  0  0  0
 12 16  1  0  0  0  0
 13 20  1  0  0  0  0
 14 18  1  0  0  0  0
 14 19  1  0  0  0  0
 15 16  1  0  0  0  0
 15 20  1  0  0  0  0
 15 21  2  0  0  0  0
 19 22  1  0  0  0  0
 20 23  1  0  0  0  0
M  END

> <original SMILES>

N#Cc1cccc(NC(=O)Cc2c[nH]c3ncccc23)c1

> <ref_mols>

x0104_0,x0305_0,x0434_0,x0678_0,x0995_0,x1093_0,x1249_0

> <ref_pdb>

receptors/Mpro-x1249-protein.pdb

> <Chemgauss4>

-5.25837

> <binding_free_energy>

-2.6813425005103895

> <binding_std_error>

2.058070326240292

$$$$
VIT-UNK-b910b07f-1
  -OEChem-05122002103D

 24 25  0     1  0  0  0  0  0999 V2000
   12.9126   -3.1436   25.4108 C   0  0  0  0  0  0  0  0  0  0  0  0
   10.9886   -1.7073   25.1426 C   0  0  0  0  0  0  0  0  0  0  0  0
   13.1551   -0.7486   25.6159 C   0  0  0  0  0  0  0  0  0  0  0  0
   11.5491   -2.9844   25.1637 C   0  0  0  0  0  0  0  0  0  0  0  0
   13.7156   -2.0257   25.6370 C   0  0  0  0  0  0  0  0  0  0  0  0
   11.7916   -0.5894   25.3687 C   0  0  0  0  0  0  0  0  0  0  0  0
    8.3305   -5.8445   22.6196 C   0  0  0  0  0  0  0  0  0  0  0  0
    8.3515   -3.3580   22.3057 C   0  0  0  0  0  0  0  0  0  0  0  0
    7.4671   -4.6047   22.3598 C   0  0  1  0  0  0  0  0  0  0  0  0
    9.2366   -5.6290   23.8255 C   0  0  1  0  0  0  0  0  0  0  0  0
   10.0028   -4.3121   23.7242 C   0  0  2  0  0  0  0  0  0  0  0  0
    5.7540   -5.9931   21.1570 C   0  0  0  0  0  0  0  0  0  0  0  0
    7.5651   -4.8379   19.8557 C   0  0  0  0  0  0  0  0  0  0  0  0
    6.6524   -4.7593   21.0800 C   0  0  0  0  0  0  0  0  0  0  0  0
   10.7514   -4.0947   24.9408 N   0  0  0  0  0  0  0  0  0  0  0  0
    9.1019   -3.2231   23.5123 O   0  0  0  0  0  0  0  0  0  0  0  0
   15.0460   -2.1809   25.8788 O   0  0  0  0  0  0  0  0  0  0  0  0
   11.2447    0.6567   25.3491 O   0  0  0  0  0  0  0  0  0  0  0  0
    5.8025   -3.6192   20.9382 O   0  0  0  0  0  0  0  0  0  0  0  0
    8.4500   -5.5931   24.9399 F   0  0  0  0  0  0  0  0  0  0  0  0
   10.6870   -4.7942   25.6711 H   0  0  0  0  0  0  0  0  0  0  0  0
   15.2835   -3.1217   25.8616 H   0  0  0  0  0  0  0  0  0  0  0  0
   10.2930    0.6036   25.1663 H   0  0  0  0  0  0  0  0  0  0  0  0
    5.3032   -3.7520   20.1189 H   0  0  0  0  0  0  0  0  0  0  0  0
  1  4  1  0  0  0  0
  1  5  2  0  0  0  0
  2  4  2  0  0  0  0
  2  6  1  0  0  0  0
  3  5  1  0  0  0  0
  3  6  2  0  0  0  0
  4 15  1  0  0  0  0
  5 17  1  0  0  0  0
  6 18  1  0  0  0  0
  7  9  1  0  0  0  0
  7 10  1  0  0  0  0
  8  9  1  0  0  0  0
  8 16  1  0  0  0  0
  9 14  1  0  0  0  0
 10 11  1  0  0  0  0
 10 20  1  0  0  0  0
 11 15  1  0  0  0  0
 11 16  1  0  0  0  0
 12 14  1  0  0  0  0
 13 14  1  0  0  0  0
 14 19  1  0  0  0  0
 15 21  1  0  0  0  0
 17 22  1  0  0  0  0
 18 23  1  0  0  0  0
 19 24  1  0  0  0  0
M  END

> <original SMILES>

CC(C)(O)C1COC(Nc2cc(O)cc(O)c2)C(F)C1

> <ref_mols>

x1386_0,x1425_0

> <ref_pdb>

receptors/Mpro-x1425-protein.pdb

> <Chemgauss4>

-1.752773

> <binding_free_energy>

-2.654173938530903

> <binding_std_error>

6.375154950075066

$$$$
DAR-DIA-23aa0b97-11
  -OEChem-05122002103D

 24 26  0     0  0  0  0  0  0999 V2000
   12.1652    0.6194   24.7361 C   0  0  0  0  0  0  0  0  0  0  0  0
   14.0188   -2.2344   26.2448 C   0  0  0  0  0  0  0  0  0  0  0  0
    7.0698   -3.8644   20.2896 C   0  0  0  0  0  0  0  0  0  0  0  0
   13.6772   -0.9370   25.8630 C   0  0  0  0  0  0  0  0  0  0  0  0
    7.9584   -4.1297   21.3300 C   0  0  0  0  0  0  0  0  0  0  0  0
   13.1979   -3.3048   25.8898 C   0  0  0  0  0  0  0  0  0  0  0  0
   11.6938   -1.7804   24.7714 C   0  0  0  0  0  0  0  0  0  0  0  0
    5.9817   -4.7077   20.1093 C   0  0  0  0  0  0  0  0  0  0  0  0
    7.5690   -6.9476   23.6209 C   0  0  0  0  0  0  0  0  0  0  0  0
   12.5147   -0.7100   25.1264 C   0  0  0  0  0  0  0  0  0  0  0  0
    7.7009   -5.2445   22.1440 C   0  0  0  0  0  0  0  0  0  0  0  0
   12.0353   -3.0778   25.1532 C   0  0  0  0  0  0  0  0  0  0  0  0
    8.3243   -5.8504   23.2668 C   0  0  0  0  0  0  0  0  0  0  0  0
    6.5727   -6.0050   21.8504 C   0  0  0  0  0  0  0  0  0  0  0  0
   10.0061   -4.1294   24.0599 C   0  0  0  0  0  0  0  0  0  0  0  0
   11.8814    1.6991   24.4191 N   0  0  0  0  0  0  0  0  0  0  0  0
    5.6846   -5.7934   20.8607 N   0  0  0  0  0  0  0  0  0  0  0  0
    6.5096   -7.0319   22.7551 N   0  0  0  0  0  0  0  0  0  0  0  0
   11.2036   -4.1641   24.7922 N   0  0  0  0  0  0  0  0  0  0  0  0
    9.4718   -5.4453   23.9102 N   0  0  0  0  0  0  0  0  0  0  0  0
    9.4810   -3.1178   23.6061 O   0  0  0  0  0  0  0  0  0  0  0  0
    5.7914   -7.7424   22.7793 H   0  0  0  0  0  0  0  0  0  0  0  0
   11.5109   -5.0828   25.1012 H   0  0  0  0  0  0  0  0  0  0  0  0
   10.0499   -6.1755   24.3595 H   0  0  0  0  0  0  0  0  0  0  0  0
  1 10  1  0  0  0  0
  1 16  3  0  0  0  0
  2  4  2  0  0  0  0
  2  6  1  0  0  0  0
  3  5  2  0  0  0  0
  3  8  1  0  0  0  0
  4 10  1  0  0  0  0
  5 11  1  0  0  0  0
  6 12  2  0  0  0  0
  7 10  2  0  0  0  0
  7 12  1  0  0  0  0
  8 17  2  0  0  0  0
  9 13  2  0  0  0  0
  9 18  1  0  0  0  0
 11 13  1  0  0  0  0
 11 14  2  0  0  0  0
 12 19  1  0  0  0  0
 13 20  1  0  0  0  0
 14 17  1  0  0  0  0
 14 18  1  0  0  0  0
 15 19  1  0  0  0  0
 15 20  1  0  0  0  0
 15 21  2  0  0  0  0
 18 22  1  0  0  0  0
 19 23  1  0  0  0  0
 20 24  1  0  0  0  0
M  END

> <original SMILES>

N#Cc1cccc(NC(=O)Nc2c[nH]c3ncccc23)c1

> <ref_mols>

x0104_0,x0305_0,x0434_0,x0678_0,x0995_0,x1093_0,x1249_0

> <ref_pdb>

receptors/Mpro-x1249-protein.pdb

> <Chemgauss4>

-3.267172

> <binding_free_energy>

-2.6412587999999886

> <binding_std_error>

2.4310236639450387

$$$$
DAR-DIA-23aa0b97-3
  -OEChem-05122002103D

 22 23  0     0  0  0  0  0  0999 V2000
    1.3800   -5.9338   22.5645 C   0  0  0  0  0  0  0  0  0  0  0  0
    3.5787   -7.5390   25.1031 C   0  0  0  0  0  0  0  0  0  0  0  0
    2.4347   -7.0951   24.4400 C   0  0  0  0  0  0  0  0  0  0  0  0
    4.8404   -7.2755   24.5699 C   0  0  0  0  0  0  0  0  0  0  0  0
    3.8141   -6.1243   22.7103 C   0  0  0  0  0  0  0  0  0  0  0  0
    9.2443   -5.5535   23.6673 C   0  0  0  0  0  0  0  0  0  0  0  0
    8.9992   -3.4833   22.5225 C   0  0  0  0  0  0  0  0  0  0  0  0
   10.0894   -3.5109   24.5446 C   0  0  0  0  0  0  0  0  0  0  0  0
    2.5524   -6.3878   23.2435 C   0  0  0  0  0  0  0  0  0  0  0  0
    8.7743   -4.8498   22.5641 C   0  0  0  0  0  0  0  0  0  0  0  0
    4.9582   -6.5682   23.3735 C   0  0  0  0  0  0  0  0  0  0  0  0
    9.9154   -4.8787   24.6810 C   0  0  0  0  0  0  0  0  0  0  0  0
    6.5378   -5.6134   21.6594 C   0  0  0  0  0  0  0  0  0  0  0  0
    8.0426   -5.5512   21.4498 C   0  0  0  0  0  0  0  0  0  0  0  0
    0.4277   -5.5651   22.0130 N   0  0  0  0  0  0  0  0  0  0  0  0
    9.6470   -2.7932   23.4878 N   0  0  0  0  0  0  0  0  0  0  0  0
   10.4018   -5.5634   25.8067 N   0  0  0  0  0  0  0  0  0  0  0  0
    6.2203   -6.3037   22.8412 N   0  0  0  0  0  0  0  0  0  0  0  0
    5.7445   -5.1121   20.8692 O   0  0  0  0  0  0  0  0  0  0  0  0
   10.2220   -6.5453   25.9032 H   0  0  0  0  0  0  0  0  0  0  0  0
   10.8408   -5.0478   26.5464 H   0  0  0  0  0  0  0  0  0  0  0  0
    7.0180   -6.6584   23.3814 H   0  0  0  0  0  0  0  0  0  0  0  0
  1  9  1  0  0  0  0
  1 15  3  0  0  0  0
  2  3  2  0  0  0  0
  2  4  1  0  0  0  0
  3  9  1  0  0  0  0
  4 11  2  0  0  0  0
  5  9  2  0  0  0  0
  5 11  1  0  0  0  0
  6 10  2  0  0  0  0
  6 12  1  0  0  0  0
  7 10  1  0  0  0  0
  7 16  2  0  0  0  0
  8 12  2  0  0  0  0
  8 16  1  0  0  0  0
 10 14  1  0  0  0  0
 11 18  1  0  0  0  0
 12 17  1  0  0  0  0
 13 14  1  0  0  0  0
 13 18  1  0  0  0  0
 13 19  2  0  0  0  0
 17 20  1  0  0  0  0
 17 21  1  0  0  0  0
 18 22  1  0  0  0  0
M  END

> <original SMILES>

N#Cc1cccc(NC(=O)Cc2cncc(N)c2)c1

> <ref_mols>

x0104_0,x0305_0,x0434_0,x0678_0,x0995_0,x1093_0,x1249_0

> <ref_pdb>

receptors/Mpro-x1249-protein.pdb

> <Chemgauss4>

-4.248078

> <binding_free_energy>

-2.626103475510206

> <binding_std_error>

2.7161774732180546

$$$$
ALV-UNI-7ff1a6f9-41
  -OEChem-05122002103D

 23 26  0     0  0  0  0  0  0999 V2000
    8.5560   -5.3979   22.1687 C   0  0  0  0  0  0  0  0  0  0  0  0
    7.3189   -4.2388   23.8901 C   0  0  0  0  0  0  0  0  0  0  0  0
    7.3912   -6.0564   21.7749 C   0  0  0  0  0  0  0  0  0  0  0  0
    6.1540   -4.8973   23.4963 C   0  0  0  0  0  0  0  0  0  0  0  0
    9.9659   -0.5244   21.5960 C   0  0  0  0  0  0  0  0  0  0  0  0
    8.3623   -2.0220   21.4527 C   0  0  0  0  0  0  0  0  0  0  0  0
    8.5199   -4.4891   23.2263 C   0  0  0  0  0  0  0  0  0  0  0  0
    9.5350   -1.7589   22.1176 C   0  0  0  0  0  0  0  0  0  0  0  0
    6.1902   -5.8062   22.4387 C   0  0  0  0  0  0  0  0  0  0  0  0
    9.7162   -3.8130   23.6308 C   0  0  0  0  0  0  0  0  0  0  0  0
   10.1648   -2.6104   23.1434 C   0  0  0  0  0  0  0  0  0  0  0  0
   11.5459   -3.4266   24.6866 C   0  0  0  0  0  0  0  0  0  0  0  0
   13.2953   -1.2587   24.4829 C   0  0  0  0  0  0  0  0  0  0  0  0
   12.1992   -1.2923   23.7180 C   0  0  0  0  0  0  0  0  0  0  0  0
   13.4657   -2.4321   25.3967 C   0  0  0  0  0  0  0  0  0  0  0  0
   14.6943   -2.4181   26.2701 C   0  0  0  0  0  0  0  0  0  0  0  0
    7.0647   -0.7947   19.6946 C   0  0  0  0  0  0  0  0  0  0  0  0
    9.1347   -0.0371   20.6709 N   0  0  0  0  0  0  0  0  0  0  0  0
   10.5700   -4.3107   24.5803 N   0  0  0  0  0  0  0  0  0  0  0  0
   12.6494   -3.4433   25.4914 N   0  0  0  0  0  0  0  0  0  0  0  0
    8.1698   -0.9703   20.6060 N   0  0  0  0  0  0  0  0  0  0  0  0
   11.3315   -2.3649   23.8171 N   0  0  0  0  0  0  0  0  0  0  0  0
    5.0716   -6.4386   22.0604 F   0  0  0  0  0  0  0  0  0  0  0  0
  1  3  2  0  0  0  0
  1  7  1  0  0  0  0
  2  4  1  0  0  0  0
  2  7  2  0  0  0  0
  3  9  1  0  0  0  0
  4  9  2  0  0  0  0
  5  8  1  0  0  0  0
  5 18  2  0  0  0  0
  6  8  2  0  0  0  0
  6 21  1  0  0  0  0
  7 10  1  0  0  0  0
  8 11  1  0  0  0  0
  9 23  1  0  0  0  0
 10 11  2  0  0  0  0
 10 19  1  0  0  0  0
 11 22  1  0  0  0  0
 12 19  2  0  0  0  0
 12 20  1  0  0  0  0
 12 22  1  0  0  0  0
 13 14  2  0  0  0  0
 13 15  1  0  0  0  0
 14 22  1  0  0  0  0
 15 16  1  0  0  0  0
 15 20  2  0  0  0  0
 17 21  1  0  0  0  0
 18 21  1  0  0  0  0
M  END

> <original SMILES>

Cc1ccn2c(-c3cnn(C)c3)c(-c3ccc(F)cc3)nc2n1

> <ref_mols>

x0395_0,x0426_0,x0434_0,x0540_0,x0678_0,x0830_0,x1093_0

> <ref_pdb>

receptors/Mpro-x0426-protein.pdb

> <Chemgauss4>

-4.427262

> <binding_free_energy>

-2.582024259999997

> <binding_std_error>

2.631147088257219

$$$$
ANT-OPE-997bdc93-1
  -OEChem-05122002103D

 19 21  0     1  0  0  0  0  0999 V2000
   11.4210   -2.1049   23.7522 C   0  0  0  0  0  0  0  0  0  0  0  0
   12.6065   -1.9012   23.0444 C   0  0  0  0  0  0  0  0  0  0  0  0
   10.6477   -1.0003   24.0990 C   0  0  0  0  0  0  0  0  0  0  0  0
   12.9930   -0.5980   22.7357 C   0  0  0  0  0  0  0  0  0  0  0  0
   11.0353    0.3094   23.7730 C   0  0  0  0  0  0  0  0  0  0  0  0
   12.2226    0.5178   23.1061 C   0  0  0  0  0  0  0  0  0  0  0  0
   11.9776    5.7121   24.6298 C   0  0  0  0  0  0  0  0  0  0  0  0
    9.3615   -1.0002   24.8658 C   0  0  0  0  0  0  0  0  0  0  0  0
   14.2030   -0.1811   21.9585 C   0  0  0  0  0  0  0  0  0  0  0  0
   10.0296    1.2950   24.2733 C   0  0  0  0  0  0  0  0  0  0  0  0
    8.8136    0.3912   24.5238 C   0  0  0  0  0  0  0  0  0  0  0  0
   14.3062    1.2974   22.3498 C   0  0  0  0  0  0  0  0  0  0  0  0
   12.8645    1.7848   22.6159 C   0  0  2  0  0  0  0  0  0  0  0  0
   12.2031    6.9004   25.5046 C   0  0  0  0  0  0  0  0  0  0  0  0
   12.8489    2.9602   23.5820 C   0  0  0  0  0  0  0  0  0  0  0  0
   13.0389    4.2989   22.8807 C   0  0  0  0  0  0  0  0  0  0  0  0
   13.0446    5.4030   23.8001 N   0  0  0  0  0  0  0  0  0  0  0  0
   10.9137    5.1074   24.6944 O   0  0  0  0  0  0  0  0  0  0  0  0
   13.8771    5.9900   23.8447 H   0  0  0  0  0  0  0  0  0  0  0  0
  1  2  2  0  0  0  0
  1  3  1  0  0  0  0
  2  4  1  0  0  0  0
  3  5  2  0  0  0  0
  3  8  1  0  0  0  0
  4  6  2  0  0  0  0
  4  9  1  0  0  0  0
  5  6  1  0  0  0  0
  5 10  1  0  0  0  0
  6 13  1  0  0  0  0
  7 14  1  0  0  0  0
  7 17  1  0  0  0  0
  7 18  2  0  0  0  0
  8 11  1  0  0  0  0
  9 12  1  0  0  0  0
 10 11  1  0  0  0  0
 12 13  1  0  0  0  0
 13 15  1  0  0  0  0
 15 16  1  0  0  0  0
 16 17  1  0  0  0  0
 17 19  1  0  0  0  0
M  END

> <original SMILES>

CC(=O)NCCC1CCc2ccc3c(c21)CCC3

> <ref_mols>

x0104_0

> <ref_pdb>

receptors/Mpro-x0104_0.pdb

> <Chemgauss4>

-8.87511

> <binding_free_energy>

-2.5561338218181824

> <binding_std_error>

3.204879883213308

$$$$
DOU-UNK-b5326f8f-9
  -OEChem-05122002103D

 30 33  0     1  0  0  0  0  0999 V2000
    6.1474   -5.8675   21.1868 C   0  0  0  0  0  0  0  0  0  0  0  0
   12.6304   -0.2076   25.9114 C   0  0  0  0  0  0  0  0  0  0  0  0
    6.6704   -6.1066   22.4575 C   0  0  0  0  0  0  0  0  0  0  0  0
    6.2096   -4.5872   20.6365 C   0  0  0  0  0  0  0  0  0  0  0  0
   12.4953   -1.6213   26.0264 C   0  0  0  0  0  0  0  0  0  0  0  0
    7.3177   -3.7851   22.6279 C   0  0  0  0  0  0  0  0  0  0  0  0
   11.8837    0.3006   24.8713 C   0  0  0  0  0  0  0  0  0  0  0  0
    7.2556   -5.0654   23.1781 C   0  0  0  0  0  0  0  0  0  0  0  0
    6.7947   -3.5460   21.3571 C   0  0  0  0  0  0  0  0  0  0  0  0
   11.6503   -2.1398   25.0699 C   0  0  0  0  0  0  0  0  0  0  0  0
    5.9459   -1.6681   19.8844 C   0  0  0  0  0  0  0  0  0  0  0  0
    5.8608   -5.0972   26.0487 C   0  0  0  0  0  0  0  0  0  0  0  0
    6.4865   -0.3101   19.4979 C   0  0  0  0  0  0  0  0  0  0  0  0
    7.4474    0.0178   20.6231 C   0  0  0  0  0  0  0  0  0  0  0  0
    7.9693   -1.3395   21.0459 C   0  0  0  0  0  0  0  0  0  0  0  0
    7.6470   -3.3125   26.0952 C   0  0  0  0  0  0  0  0  0  0  0  0
    9.1620   -3.2702   26.1785 C   0  0  0  0  0  0  0  0  0  0  0  0
    9.3529   -5.1768   24.6145 C   0  0  0  0  0  0  0  0  0  0  0  0
    7.8275   -5.3275   24.5679 C   0  0  1  0  0  0  0  0  0  0  0  0
    5.3914   -4.6956   27.4253 C   0  0  0  0  0  0  0  0  0  0  0  0
   11.2457   -3.5781   24.8541 C   0  0  2  0  0  0  0  0  0  0  0  0
    6.8587   -2.2372   20.7938 N   0  0  0  0  0  0  0  0  0  0  0  0
    7.1077   -4.6003   25.6362 N   0  0  0  0  0  0  0  0  0  0  0  0
    9.7521   -3.7546   24.8873 N   0  3  2  0  0  0  0  0  0  0  0  0
    4.9250   -2.1322   19.3980 O   0  0  0  0  0  0  0  0  0  0  0  0
    5.1451   -5.8287   25.3590 O   0  0  0  0  0  0  0  0  0  0  0  0
   11.9630   -4.3946   25.7782 O   0  0  0  0  0  0  0  0  0  0  0  0
   11.0243   -0.9244   24.0388 S   0  0  0  0  0  0  0  0  0  0  0  0
    9.3702   -3.1741   24.1373 H   0  0  0  0  0  0  0  0  0  0  0  0
   12.9106   -4.2689   25.5998 H   0  0  0  0  0  0  0  0  0  0  0  0
  1  3  2  0  0  0  0
  1  4  1  0  0  0  0
  2  5  1  0  0  0  0
  2  7  2  0  0  0  0
  3  8  1  0  0  0  0
  4  9  2  0  0  0  0
  5 10  2  0  0  0  0
  6  8  2  0  0  0  0
  6  9  1  0  0  0  0
  7 28  1  0  0  0  0
  8 19  1  0  0  0  0
  9 22  1  0  0  0  0
 10 21  1  0  0  0  0
 10 28  1  0  0  0  0
 11 13  1  0  0  0  0
 11 22  1  0  0  0  0
 11 25  2  0  0  0  0
 12 20  1  0  0  0  0
 12 23  1  0  0  0  0
 12 26  2  0  0  0  0
 13 14  1  0  0  0  0
 14 15  1  0  0  0  0
 15 22  1  0  0  0  0
 16 17  1  0  0  0  0
 16 23  1  0  0  0  0
 17 24  1  0  0  0  0
 18 19  1  0  0  0  0
 18 24  1  0  0  0  0
 19 23  1  0  0  0  0
 21 24  1  0  0  0  0
 21 27  1  0  0  0  0
 24 29  1  0  0  0  0
 27 30  1  0  0  0  0
M  CHG  1  24   1
M  END

> <original SMILES>

CC(=O)N1CCN(C(O)c2cccs2)CC1c1cccc(N2CCCC2=O)c1

> <ref_mols>

x0104_0,x0107_0,x0387_0,x0397_0,x0708_0,x0770_0,x1093_0,x1392_0

> <ref_pdb>

receptors/Mpro-x0770-protein.pdb

> <Chemgauss4>

-5.983294

> <binding_free_energy>

-2.5225933250886072

> <binding_std_error>

2.6697951891617557

$$$$
NAU-LAT-ec9c7557-5
  -OEChem-05122002103D

 25 28  0     1  0  0  0  0  0999 V2000
    8.7441   -5.3906   26.2219 C   0  0  0  0  0  0  0  0  0  0  0  0
    9.9780   -5.0167   25.6897 C   0  0  0  0  0  0  0  0  0  0  0  0
    7.6412   -4.5476   26.0851 C   0  0  0  0  0  0  0  0  0  0  0  0
   12.5393   -1.4288   22.2786 C   0  0  0  0  0  0  0  0  0  0  0  0
    6.7715    0.0882   21.6752 C   0  0  0  0  0  0  0  0  0  0  0  0
   13.0842   -0.3442   22.9867 C   0  0  0  0  0  0  0  0  0  0  0  0
    6.2623   -1.0025   20.9705 C   0  0  0  0  0  0  0  0  0  0  0  0
   10.1091   -3.7996   25.0209 C   0  0  0  0  0  0  0  0  0  0  0  0
    7.7723   -3.3306   25.4163 C   0  0  0  0  0  0  0  0  0  0  0  0
   11.2638   -1.9154   22.5828 C   0  0  0  0  0  0  0  0  0  0  0  0
    7.7012   -0.1132   22.6954 C   0  0  0  0  0  0  0  0  0  0  0  0
   12.3626    0.2719   24.0093 C   0  0  0  0  0  0  0  0  0  0  0  0
    6.6825   -2.2946   21.2861 C   0  0  0  0  0  0  0  0  0  0  0  0
    9.0062   -2.9566   24.8841 C   0  0  0  0  0  0  0  0  0  0  0  0
   10.5488   -1.3052   23.6037 C   0  0  0  0  0  0  0  0  0  0  0  0
    8.1214   -1.4052   23.0111 C   0  0  0  0  0  0  0  0  0  0  0  0
   11.1055   -0.2275   24.2904 C   0  0  0  0  0  0  0  0  0  0  0  0
    7.6121   -2.4960   22.3064 C   0  0  0  0  0  0  0  0  0  0  0  0
    9.0313   -0.4943   25.2531 C   0  0  0  0  0  0  0  0  0  0  0  0
    9.1507   -1.6086   24.1438 C   0  0  1  0  0  0  0  0  0  0  0  0
   10.2204    0.2382   25.2511 N   0  0  0  0  0  0  0  0  0  0  0  0
    8.0695   -0.3069   25.9857 O   0  0  0  0  0  0  0  0  0  0  0  0
    8.0114   -3.7645   22.6027 O   0  0  0  0  0  0  0  0  0  0  0  0
   10.4126    1.0136   25.8743 H   0  0  0  0  0  0  0  0  0  0  0  0
    7.5637   -4.4005   22.0231 H   0  0  0  0  0  0  0  0  0  0  0  0
  1  2  1  0  0  0  0
  1  3  2  0  0  0  0
  2  8  2  0  0  0  0
  3  9  1  0  0  0  0
  4  6  1  0  0  0  0
  4 10  2  0  0  0  0
  5  7  1  0  0  0  0
  5 11  2  0  0  0  0
  6 12  2  0  0  0  0
  7 13  2  0  0  0  0
  8 14  1  0  0  0  0
  9 14  2  0  0  0  0
 10 15  1  0  0  0  0
 11 16  1  0  0  0  0
 12 17  1  0  0  0  0
 13 18  1  0  0  0  0
 14 20  1  0  0  0  0
 15 17  2  0  0  0  0
 15 20  1  0  0  0  0
 16 18  2  0  0  0  0
 16 20  1  0  0  0  0
 17 21  1  0  0  0  0
 18 23  1  0  0  0  0
 19 20  1  0  0  0  0
 19 21  1  0  0  0  0
 19 22  2  0  0  0  0
 21 24  1  0  0  0  0
 23 25  1  0  0  0  0
M  END

> <original SMILES>

O=C1Nc2ccccc2C1(c1ccccc1)c1ccccc1O

> <ref_mols>

x1093_0

> <ref_pdb>

receptors/Mpro-x1093_0.pdb

> <Chemgauss4>

-6.712683

> <binding_free_energy>

-2.495748876530616

> <binding_std_error>

0.1422055162013832

$$$$
DAR-DIA-fc970077-6
  -OEChem-05122002103D

 19 21  0     0  0  0  0  0  0999 V2000
   14.4245   -0.7964   23.0785 C   0  0  0  0  0  0  0  0  0  0  0  0
   13.6815    0.3799   23.1774 C   0  0  0  0  0  0  0  0  0  0  0  0
   13.7924   -1.9949   22.7471 C   0  0  0  0  0  0  0  0  0  0  0  0
    5.6023    1.0468   18.8809 C   0  0  0  0  0  0  0  0  0  0  0  0
   12.3063    0.3577   22.9451 C   0  0  0  0  0  0  0  0  0  0  0  0
   12.4172   -2.0171   22.5148 C   0  0  0  0  0  0  0  0  0  0  0  0
    6.2433    0.6884   20.0615 C   0  0  0  0  0  0  0  0  0  0  0  0
    6.2982    0.8932   17.6926 C   0  0  0  0  0  0  0  0  0  0  0  0
    8.1513    0.0788   18.7793 C   0  0  0  0  0  0  0  0  0  0  0  0
   11.6741   -0.8407   22.6138 C   0  0  0  0  0  0  0  0  0  0  0  0
    7.5424    0.1944   20.0185 C   0  0  0  0  0  0  0  0  0  0  0  0
    9.6589   -0.0871   21.3394 C   0  0  0  0  0  0  0  0  0  0  0  0
    8.1783   -1.1012   23.5781 C   0  0  0  0  0  0  0  0  0  0  0  0
    9.4401   -1.8041   23.1453 C   0  0  0  0  0  0  0  0  0  0  0  0
    7.4043   -0.6850   22.3466 C   0  0  0  0  0  0  0  0  0  0  0  0
    7.5607    0.4167   17.6111 N   0  0  0  0  0  0  0  0  0  0  0  0
   10.2521   -0.8634   22.3735 N   0  0  0  0  0  0  0  0  0  0  0  0
    8.2403   -0.1891   21.2371 N   0  0  0  0  0  0  0  0  0  0  0  0
   10.3290    0.6082   20.5691 O   0  0  0  0  0  0  0  0  0  0  0  0
  1  2  1  0  0  0  0
  1  3  2  0  0  0  0
  2  5  2  0  0  0  0
  3  6  1  0  0  0  0
  4  7  2  0  0  0  0
  4  8  1  0  0  0  0
  5 10  1  0  0  0  0
  6 10  2  0  0  0  0
  7 11  1  0  0  0  0
  8 16  2  0  0  0  0
  9 11  2  0  0  0  0
  9 16  1  0  0  0  0
 10 17  1  0  0  0  0
 11 18  1  0  0  0  0
 12 17  1  0  0  0  0
 12 18  1  0  0  0  0
 12 19  2  0  0  0  0
 13 14  1  0  0  0  0
 13 15  1  0  0  0  0
 14 17  1  0  0  0  0
 15 18  1  0  0  0  0
M  END

> <original SMILES>

O=C1N(c2ccccc2)CCCN1c1cccnc1

> <ref_mols>

x0434_0

> <ref_pdb>

receptors/protein-0387.pdb

> <Chemgauss4>

-4.93463373184204

> <binding_free_energy>

-2.4710719674825725

> <binding_std_error>

2.316514334875348

$$$$
DAR-DIA-fc970077-8
  -OEChem-05122002103D

 19 21  0     1  0  0  0  0  0999 V2000
   14.2873   -0.7801   23.5251 C   0  0  0  0  0  0  0  0  0  0  0  0
   14.0691   -1.7821   22.5796 C   0  0  0  0  0  0  0  0  0  0  0  0
   13.2033   -0.1532   24.1397 C   0  0  0  0  0  0  0  0  0  0  0  0
    5.9274    1.2294   19.4014 C   0  0  0  0  0  0  0  0  0  0  0  0
   12.7670   -2.1572   22.2486 C   0  0  0  0  0  0  0  0  0  0  0  0
   11.9012   -0.5282   23.8087 C   0  0  0  0  0  0  0  0  0  0  0  0
    6.5601    0.6267   20.4829 C   0  0  0  0  0  0  0  0  0  0  0  0
    6.4405    0.9938   18.1361 C   0  0  0  0  0  0  0  0  0  0  0  0
    8.1059   -0.3544   18.9650 C   0  0  0  0  0  0  0  0  0  0  0  0
   11.6831   -1.5302   22.8632 C   0  0  0  0  0  0  0  0  0  0  0  0
    7.6710   -0.1818   20.2691 C   0  0  0  0  0  0  0  0  0  0  0  0
    9.7283   -1.0989   21.3293 C   0  0  0  0  0  0  0  0  0  0  0  0
    7.6001   -1.0155   22.6186 C   0  0  0  0  0  0  0  0  0  0  0  0
    8.1451   -2.1602   23.4442 C   0  0  0  0  0  0  0  0  0  0  0  0
   10.2679   -1.9370   22.5038 C   0  0  2  0  0  0  0  0  0  0  0  0
    7.5173    0.2146   17.8891 N   0  0  0  0  0  0  0  0  0  0  0  0
    8.3497   -0.8212   21.3718 N   0  0  0  0  0  0  0  0  0  0  0  0
   10.4991   -0.7509   20.4315 O   0  0  0  0  0  0  0  0  0  0  0  0
    9.5149   -1.9054   23.6999 O   0  0  0  0  0  0  0  0  0  0  0  0
  1  2  1  0  0  0  0
  1  3  2  0  0  0  0
  2  5  2  0  0  0  0
  3  6  1  0  0  0  0
  4  7  2  0  0  0  0
  4  8  1  0  0  0  0
  5 10  1  0  0  0  0
  6 10  2  0  0  0  0
  7 11  1  0  0  0  0
  8 16  2  0  0  0  0
  9 11  2  0  0  0  0
  9 16  1  0  0  0  0
 10 15  1  0  0  0  0
 11 17  1  0  0  0  0
 12 15  1  0  0  0  0
 12 17  1  0  0  0  0
 12 18  2  0  0  0  0
 13 14  1  0  0  0  0
 13 17  1  0  0  0  0
 14 19  1  0  0  0  0
 15 19  1  0  0  0  0
M  END

> <original SMILES>

O=C1C(c2ccccc2)OCCN1c1cccnc1

> <ref_mols>

x0434_0

> <ref_pdb>

receptors/protein-0387.pdb

> <Chemgauss4>

-5.58173084259033

> <binding_free_energy>

-2.4591372369701787

> <binding_std_error>

6.100166398112562

$$$$
JOH-MSK-a63bdd1d-10
  -OEChem-05122002103D

 16 17  0     0  0  0  0  0  0999 V2000
   14.6996   -0.7161   22.5456 C   0  0  0  0  0  0  0  0  0  0  0  0
   14.1285   -1.9675   22.7679 C   0  0  0  0  0  0  0  0  0  0  0  0
   13.9210    0.4459   22.5965 C   0  0  0  0  0  0  0  0  0  0  0  0
   12.7652   -2.0983   23.0474 C   0  0  0  0  0  0  0  0  0  0  0  0
   10.3345    0.5755   23.2897 C   0  0  0  0  0  0  0  0  0  0  0  0
   12.5442    0.3389   22.8766 C   0  0  0  0  0  0  0  0  0  0  0  0
   11.4823    1.2777   23.0027 C   0  0  0  0  0  0  0  0  0  0  0  0
   11.9992   -0.9282   23.0951 C   0  0  0  0  0  0  0  0  0  0  0  0
   12.6021    5.4209   23.3626 C   0  0  0  0  0  0  0  0  0  0  0  0
   14.0847    5.2503   21.3692 C   0  0  0  0  0  0  0  0  0  0  0  0
   11.5818    2.7438   22.8530 C   0  0  0  0  0  0  0  0  0  0  0  0
   12.8833    3.2349   22.2033 C   0  0  0  0  0  0  0  0  0  0  0  0
   10.6564   -0.7541   23.3437 N   0  0  0  0  0  0  0  0  0  0  0  0
   12.8533    4.7110   22.0549 N   0  3  0  0  0  0  0  0  0  0  0  0
   10.0032   -1.5006   23.5377 H   0  0  0  0  0  0  0  0  0  0  0  0
   12.0559    4.9511   21.4413 H   0  0  0  0  0  0  0  0  0  0  0  0
  1  2  1  0  0  0  0
  1  3  2  0  0  0  0
  2  4  2  0  0  0  0
  3  6  1  0  0  0  0
  4  8  1  0  0  0  0
  5  7  2  0  0  0  0
  5 13  1  0  0  0  0
  6  7  1  0  0  0  0
  6  8  2  0  0  0  0
  7 11  1  0  0  0  0
  8 13  1  0  0  0  0
  9 14  1  0  0  0  0
 10 14  1  0  0  0  0
 11 12  1  0  0  0  0
 12 14  1  0  0  0  0
 13 15  1  0  0  0  0
 14 16  1  0  0  0  0
M  CHG  1  14   1
M  END

> <original SMILES>

CN(C)CCc1c[nH]c2ccccc12

> <ref_mols>

x0104_0

> <ref_pdb>

receptors/protein-0387.pdb

> <Chemgauss4>

-5.55167675018311

> <binding_free_energy>

-2.4405423552154

> <binding_std_error>

2.5908839586386336

$$$$
KIM-UNI-60f168f5-2
  -OEChem-05122002103D

 16 17  0     0  0  0  0  0  0999 V2000
    5.2183    1.0159   19.3875 C   0  0  0  0  0  0  0  0  0  0  0  0
    5.7789    0.8788   18.1279 C   0  0  0  0  0  0  0  0  0  0  0  0
    7.6587   -0.1332   18.9766 C   0  0  0  0  0  0  0  0  0  0  0  0
    5.9419    0.5435   20.4768 C   0  0  0  0  0  0  0  0  0  0  0  0
    7.1863   -0.0434   20.2760 C   0  0  0  0  0  0  0  0  0  0  0  0
    9.2652    0.0054   21.5919 C   0  0  0  0  0  0  0  0  0  0  0  0
    7.4248   -1.5934   22.1773 C   0  0  0  0  0  0  0  0  0  0  0  0
   10.1035   -0.7542   22.5930 C   0  0  0  0  0  0  0  0  0  0  0  0
    9.2505   -1.0917   23.7884 C   0  0  0  0  0  0  0  0  0  0  0  0
    5.3616    0.6789   21.8464 C   0  0  0  0  0  0  0  0  0  0  0  0
    6.9848    0.3144   17.8935 N   0  0  0  0  0  0  0  0  0  0  0  0
    8.1132   -1.8606   23.3529 N   0  0  0  0  0  0  0  0  0  0  0  0
    7.9784   -0.5510   21.3766 N   0  0  0  0  0  0  0  0  0  0  0  0
    9.7231    1.0161   21.0579 O   0  0  0  0  0  0  0  0  0  0  0  0
    6.4434   -2.2765   21.8713 O   0  0  0  0  0  0  0  0  0  0  0  0
    7.8006   -2.6337   23.9323 H   0  0  0  0  0  0  0  0  0  0  0  0
  1  2  2  0  0  0  0
  1  4  1  0  0  0  0
  2 11  1  0  0  0  0
  3  5  1  0  0  0  0
  3 11  2  0  0  0  0
  4  5  2  0  0  0  0
  4 10  1  0  0  0  0
  5 13  1  0  0  0  0
  6  8  1  0  0  0  0
  6 13  1  0  0  0  0
  6 14  2  0  0  0  0
  7 12  1  0  0  0  0
  7 13  1  0  0  0  0
  7 15  2  0  0  0  0
  8  9  1  0  0  0  0
  9 12  1  0  0  0  0
 12 16  1  0  0  0  0
M  END

> <original SMILES>

Cc1ccncc1N1C(=O)CCNC1=O

> <ref_mols>

x0107_0,x0991_0

> <ref_pdb>

receptors/protein-0387.pdb

> <Chemgauss4>

-5.225182056427

> <binding_free_energy>

-2.4373978410101067

> <binding_std_error>

1.9191208203026182

$$$$
STE-UNK-dfade101-1
  -OEChem-05122002103D

 15 16  0     0  0  0  0  0  0999 V2000
    7.6855   -4.6988   22.2203 C   0  0  0  0  0  0  0  0  0  0  0  0
   12.6166   -0.1531   22.8937 C   0  0  0  0  0  0  0  0  0  0  0  0
   11.7534   -1.2304   22.7275 C   0  0  0  0  0  0  0  0  0  0  0  0
   12.4170    0.6754   23.9861 C   0  0  0  0  0  0  0  0  0  0  0  0
   10.6163   -0.5571   24.7048 C   0  0  0  0  0  0  0  0  0  0  0  0
    7.0584   -2.6060   21.0237 C   0  0  0  0  0  0  0  0  0  0  0  0
    7.8158   -3.3158   21.9231 C   0  0  0  0  0  0  0  0  0  0  0  0
   10.7313   -1.4433   23.6459 C   0  0  0  0  0  0  0  0  0  0  0  0
    8.7132   -2.3688   22.4521 C   0  0  0  0  0  0  0  0  0  0  0  0
    9.7923   -2.5869   23.4959 C   0  0  0  0  0  0  0  0  0  0  0  0
    7.5788   -5.8286   22.4631 N   0  0  0  0  0  0  0  0  0  0  0  0
   11.4355    0.5005   24.8993 N   0  0  0  0  0  0  0  0  0  0  0  0
    8.5430   -1.1504   21.9319 N   0  0  0  0  0  0  0  0  0  0  0  0
    7.5300   -1.3270   21.0666 N   0  0  0  0  0  0  0  0  0  0  0  0
    7.2084   -0.5278   20.5349 H   0  0  0  0  0  0  0  0  0  0  0  0
  1  7  1  0  0  0  0
  1 11  3  0  0  0  0
  2  3  2  0  0  0  0
  2  4  1  0  0  0  0
  3  8  1  0  0  0  0
  4 12  2  0  0  0  0
  5  8  2  0  0  0  0
  5 12  1  0  0  0  0
  6  7  2  0  0  0  0
  6 14  1  0  0  0  0
  7  9  1  0  0  0  0
  8 10  1  0  0  0  0
  9 10  1  0  0  0  0
  9 13  2  0  0  0  0
 13 14  1  0  0  0  0
 14 15  1  0  0  0  0
M  END

> <original SMILES>

N#Cc1c[nH]nc1Cc1cccnc1

> <ref_mols>

x0107_0

> <ref_pdb>

receptors/Mpro-x0107_0.pdb

> <Chemgauss4>

-8.723722

> <binding_free_energy>

-2.390636993265998

> <binding_std_error>

4.8950892762781395

$$$$
GIA-UNK-5ec6c2b8-5
  -OEChem-05122002103D

 18 19  0     0  0  0  0  0  0999 V2000
   14.2958   -1.4463   24.2971 C   0  0  0  0  0  0  0  0  0  0  0  0
   13.3631   -0.4606   24.6196 C   0  0  0  0  0  0  0  0  0  0  0  0
   14.2673   -2.0487   23.0393 C   0  0  0  0  0  0  0  0  0  0  0  0
   12.4019   -0.0772   23.6843 C   0  0  0  0  0  0  0  0  0  0  0  0
   13.3061   -1.6653   22.1040 C   0  0  0  0  0  0  0  0  0  0  0  0
   12.3734   -0.6796   22.4265 C   0  0  0  0  0  0  0  0  0  0  0  0
    6.2278    1.0685   18.5527 C   0  0  0  0  0  0  0  0  0  0  0  0
   10.0809   -1.0929   21.5288 C   0  0  0  0  0  0  0  0  0  0  0  0
    6.7159   -0.8624   20.0390 C   0  0  0  0  0  0  0  0  0  0  0  0
    7.4357    1.5006   20.6948 C   0  0  0  0  0  0  0  0  0  0  0  0
    7.6340   -1.2039   21.2067 C   0  0  0  0  0  0  0  0  0  0  0  0
    8.8368    0.9011   20.6015 C   0  0  0  0  0  0  0  0  0  0  0  0
    6.3878    0.6358   19.9826 C   0  0  0  0  0  0  0  0  0  0  0  0
   11.3400   -0.2680   21.4205 C   0  0  0  0  0  0  0  0  0  0  0  0
    8.8986   -0.4697   21.1248 N   0  0  0  0  0  0  0  0  0  0  0  0
    6.8566    0.5828   17.6215 O   0  0  0  0  0  0  0  0  0  0  0  0
   10.1437   -2.2461   21.9612 O   0  0  0  0  0  0  0  0  0  0  0  0
    5.0607    2.3721   18.1181 S   0  5  0  0  0  0  0  0  0  0  0  0
  1  2  1  0  0  0  0
  1  3  2  0  0  0  0
  2  4  2  0  0  0  0
  3  5  1  0  0  0  0
  4  6  1  0  0  0  0
  5  6  2  0  0  0  0
  6 14  1  0  0  0  0
  7 13  1  0  0  0  0
  7 16  2  0  0  0  0
  7 18  1  0  0  0  0
  8 14  1  0  0  0  0
  8 15  1  0  0  0  0
  8 17  2  0  0  0  0
  9 11  1  0  0  0  0
  9 13  1  0  0  0  0
 10 12  1  0  0  0  0
 10 13  1  0  0  0  0
 11 15  1  0  0  0  0
 12 15  1  0  0  0  0
M  CHG  1  18  -1
M  END

> <original SMILES>

O=C(S)C1CCN(C(=O)Cc2ccccc2)CC1

> <ref_mols>

x1380_0,x1386_0

> <ref_pdb>

receptors/protein-0387.pdb

> <Chemgauss4>

-4.99714326858521

> <binding_free_energy>

-2.3497647373815127

> <binding_std_error>

7.095963931880008

$$$$
DAV-AUT-7eb4e0c3-2
  -OEChem-05122002103D

 21 23  0     1  0  0  0  0  0999 V2000
   11.6497    1.5950   24.4855 C   0  0  0  0  0  0  0  0  0  0  0  0
   10.9662    2.8091   24.5831 C   0  0  0  0  0  0  0  0  0  0  0  0
   13.1022    2.4727   22.7235 C   0  0  0  0  0  0  0  0  0  0  0  0
   12.4183    3.6662   22.8312 C   0  0  0  0  0  0  0  0  0  0  0  0
   12.7067    1.4284   23.5663 C   0  0  0  0  0  0  0  0  0  0  0  0
   11.3801    3.8209   23.7466 C   0  0  0  0  0  0  0  0  0  0  0  0
   12.6120    4.9236   22.0779 C   0  0  0  0  0  0  0  0  0  0  0  0
   12.2441   -2.8150   23.8939 C   0  0  0  0  0  0  0  0  0  0  0  0
   13.7373   -2.8501   24.1686 C   0  0  0  0  0  0  0  0  0  0  0  0
   12.7620   -0.8307   22.4536 C   0  0  0  0  0  0  0  0  0  0  0  0
   14.2434   -1.6434   24.9515 C   0  0  0  0  0  0  0  0  0  0  0  0
   13.4236    0.0937   23.4905 C   0  0  2  0  0  0  0  0  0  0  0  0
   10.4179   -1.6481   22.6923 C   0  0  0  0  0  0  0  0  0  0  0  0
   11.1746    6.2200   25.1410 C   0  0  0  0  0  0  0  0  0  0  0  0
   11.6809    5.9239   22.4964 N   0  0  0  0  0  0  0  0  0  0  0  0
   11.8225   -1.7859   23.0465 N   0  0  0  0  0  0  0  0  0  0  0  0
   13.4740    5.0330   21.2190 O   0  0  0  0  0  0  0  0  0  0  0  0
   11.5015   -3.6578   24.3992 O   0  0  0  0  0  0  0  0  0  0  0  0
    9.2730    5.3109   23.5613 O   0  0  0  0  0  0  0  0  0  0  0  0
   13.4553   -0.4695   24.8035 O   0  0  0  0  0  0  0  0  0  0  0  0
   10.7143    5.4354   23.6219 S   0  0  1  0  0  0  0  0  0  0  0  0
  1  2  2  0  0  0  0
  1  5  1  0  0  0  0
  2  6  1  0  0  0  0
  3  4  1  0  0  0  0
  3  5  2  0  0  0  0
  4  6  2  0  0  0  0
  4  7  1  0  0  0  0
  5 12  1  0  0  0  0
  6 21  1  0  0  0  0
  7 15  1  0  0  0  0
  7 17  2  0  0  0  0
  8  9  1  0  0  0  0
  8 16  1  0  0  0  0
  8 18  2  0  0  0  0
  9 11  1  0  0  0  0
 10 12  1  0  0  0  0
 10 16  1  0  0  0  0
 11 20  1  0  0  0  0
 12 20  1  0  0  0  0
 13 16  1  0  0  0  0
 14 21  1  0  0  0  0
 15 21  2  0  0  0  0
 19 21  2  0  0  0  0
M  END

> <original SMILES>

CN1C[C@@H](c2ccc3c(c2)C(=O)N=[S@]3(C)=O)OCCC1=O

> <ref_mols>

x0161_0,x0305_0

> <ref_pdb>

receptors/Mpro-x0161_0.pdb

> <Chemgauss4>

-9.5307

> <binding_free_energy>

-2.3207555338461523

> <binding_std_error>

2.8389357655471508

$$$$
DAR-DIA-eace69ff-35
  -OEChem-05122002103D

 17 18  0     0  0  0  0  0  0999 V2000
   12.0454    0.0920   24.6651 C   0  0  0  0  0  0  0  0  0  0  0  0
   12.5327   -0.4126   23.4560 C   0  0  0  0  0  0  0  0  0  0  0  0
   10.6536   -1.9394   23.2692 C   0  0  0  0  0  0  0  0  0  0  0  0
    9.0206   -0.9245   26.3778 C   0  0  0  0  0  0  0  0  0  0  0  0
   10.1429   -1.4464   24.4864 C   0  0  0  0  0  0  0  0  0  0  0  0
    8.9914   -1.7392   25.2696 C   0  0  0  0  0  0  0  0  0  0  0  0
   10.8492   -0.4441   25.1549 C   0  0  0  0  0  0  0  0  0  0  0  0
   11.8492   -1.4126   22.7672 C   0  0  0  0  0  0  0  0  0  0  0  0
    6.2790   -1.0394   24.2186 C   0  0  0  0  0  0  0  0  0  0  0  0
    7.6904   -2.2142   22.5368 C   0  0  0  0  0  0  0  0  0  0  0  0
   13.5691   -1.3091   21.1280 C   0  0  0  0  0  0  0  0  0  0  0  0
    7.9463   -2.7350   24.9583 C   0  0  0  0  0  0  0  0  0  0  0  0
   10.1446   -0.1467   26.2996 N   0  0  0  0  0  0  0  0  0  0  0  0
    7.0083   -2.3100   23.8747 N   0  3  0  0  0  0  0  0  0  0  0  0
   12.3488   -1.8841   21.5899 O   0  0  0  0  0  0  0  0  0  0  0  0
   10.4188    0.5453   26.9832 H   0  0  0  0  0  0  0  0  0  0  0  0
    6.2909   -3.0453   23.7863 H   0  0  0  0  0  0  0  0  0  0  0  0
  1  2  2  0  0  0  0
  1  7  1  0  0  0  0
  2  8  1  0  0  0  0
  3  5  1  0  0  0  0
  3  8  2  0  0  0  0
  4  6  2  0  0  0  0
  4 13  1  0  0  0  0
  5  6  1  0  0  0  0
  5  7  2  0  0  0  0
  6 12  1  0  0  0  0
  7 13  1  0  0  0  0
  8 15  1  0  0  0  0
  9 14  1  0  0  0  0
 10 14  1  0  0  0  0
 11 15  1  0  0  0  0
 12 14  1  0  0  0  0
 13 16  1  0  0  0  0
 14 17  1  0  0  0  0
M  CHG  1  14   1
M  END

> <original SMILES>

COc1ccc2[nH]cc(CN(C)C)c2c1

> <ref_mols>

x0104_0

> <ref_pdb>

receptors/Mpro-x0104-protein.pdb

> <Chemgauss4>

-5.658311

> <binding_free_energy>

-2.3122004875420927

> <binding_std_error>

5.393570079633983

$$$$
DAR-DIA-fc970077-3
  -OEChem-05122002103D

 18 20  0     0  0  0  0  0  0999 V2000
   14.6059   -1.0162   23.6676 C   0  0  0  0  0  0  0  0  0  0  0  0
   13.8903   -2.2135   23.6646 C   0  0  0  0  0  0  0  0  0  0  0  0
   14.0215    0.1469   23.1661 C   0  0  0  0  0  0  0  0  0  0  0  0
    5.8675    1.0198   19.5144 C   0  0  0  0  0  0  0  0  0  0  0  0
   12.5904   -2.2478   23.1599 C   0  0  0  0  0  0  0  0  0  0  0  0
   12.7216    0.1126   22.6615 C   0  0  0  0  0  0  0  0  0  0  0  0
    6.7515    0.4862   20.4455 C   0  0  0  0  0  0  0  0  0  0  0  0
    6.2057    0.9307   18.1737 C   0  0  0  0  0  0  0  0  0  0  0  0
    8.1760   -0.1504   18.6505 C   0  0  0  0  0  0  0  0  0  0  0  0
   12.0060   -1.0847   22.6583 C   0  0  0  0  0  0  0  0  0  0  0  0
    7.9302   -0.1118   20.0136 C   0  0  0  0  0  0  0  0  0  0  0  0
    9.6702   -1.9429   22.5339 C   0  0  0  0  0  0  0  0  0  0  0  0
    8.5788   -1.6722   21.8165 C   0  0  0  0  0  0  0  0  0  0  0  0
   10.2175   -0.2514   21.1000 C   0  0  0  0  0  0  0  0  0  0  0  0
    7.3412    0.3573   17.7161 N   0  0  0  0  0  0  0  0  0  0  0  0
   10.7057   -1.1192   22.1537 N   0  0  0  0  0  0  0  0  0  0  0  0
    8.8325   -0.6532   20.9202 N   0  0  0  0  0  0  0  0  0  0  0  0
   10.8293    0.6202   20.4982 O   0  0  0  0  0  0  0  0  0  0  0  0
  1  2  1  0  0  0  0
  1  3  2  0  0  0  0
  2  5  2  0  0  0  0
  3  6  1  0  0  0  0
  4  7  2  0  0  0  0
  4  8  1  0  0  0  0
  5 10  1  0  0  0  0
  6 10  2  0  0  0  0
  7 11  1  0  0  0  0
  8 15  2  0  0  0  0
  9 11  2  0  0  0  0
  9 15  1  0  0  0  0
 10 16  1  0  0  0  0
 11 17  1  0  0  0  0
 12 13  2  0  0  0  0
 12 16  1  0  0  0  0
 13 17  1  0  0  0  0
 14 16  1  0  0  0  0
 14 17  1  0  0  0  0
 14 18  2  0  0  0  0
M  END

> <original SMILES>

O=c1n(-c2ccccc2)ccn1-c1cccnc1

> <ref_mols>

x0434_0

> <ref_pdb>

receptors/protein-0387.pdb

> <Chemgauss4>

-5.133376121521

> <binding_free_energy>

-2.2798631557264883

> <binding_std_error>

4.250913877800575

$$$$
MAK-UNK-6435e6c2-3
  -OEChem-05122002103D

 16 17  0     0  0  0  0  0  0999 V2000
   12.4193   -1.7103   22.2275 C   0  0  0  0  0  0  0  0  0  0  0  0
   13.3001   -0.6777   22.4630 C   0  0  0  0  0  0  0  0  0  0  0  0
   11.1739   -0.3695   23.6604 C   0  0  0  0  0  0  0  0  0  0  0  0
   11.1875   -1.5318   22.9210 C   0  0  0  0  0  0  0  0  0  0  0  0
    6.0687   -1.2672   19.1935 C   0  0  0  0  0  0  0  0  0  0  0  0
    6.5055   -2.2427   21.4248 C   0  0  0  0  0  0  0  0  0  0  0  0
    7.7699   -0.2300   20.7741 C   0  0  0  0  0  0  0  0  0  0  0  0
    7.7885   -2.9308   21.8675 C   0  0  0  0  0  0  0  0  0  0  0  0
    9.0727   -0.8875   21.2090 C   0  0  0  0  0  0  0  0  0  0  0  0
    5.8483    0.0581   18.5089 C   0  0  0  0  0  0  0  0  0  0  0  0
   10.0416   -2.4978   22.8533 C   0  0  0  0  0  0  0  0  0  0  0  0
    6.7753   -1.2393   20.3950 N   0  0  0  0  0  0  0  0  0  0  0  0
    8.7826   -1.8811   22.3117 N   0  3  0  0  0  0  0  0  0  0  0  0
    5.6278   -2.2953   18.6733 O   0  0  0  0  0  0  0  0  0  0  0  0
   12.6416    0.5007   23.5166 S   0  0  0  0  0  0  0  0  0  0  0  0
    8.3539   -1.3603   23.0892 H   0  0  0  0  0  0  0  0  0  0  0  0
  1  2  2  0  0  0  0
  1  4  1  0  0  0  0
  2 15  1  0  0  0  0
  3  4  2  0  0  0  0
  3 15  1  0  0  0  0
  4 11  1  0  0  0  0
  5 10  1  0  0  0  0
  5 12  1  0  0  0  0
  5 14  2  0  0  0  0
  6  8  1  0  0  0  0
  6 12  1  0  0  0  0
  7  9  1  0  0  0  0
  7 12  1  0  0  0  0
  8 13  1  0  0  0  0
  9 13  1  0  0  0  0
 11 13  1  0  0  0  0
 13 16  1  0  0  0  0
M  CHG  1  13   1
M  END

> <original SMILES>

CC(=O)N1CCN(Cc2ccsc2)CC1

> <ref_mols>

x0689_0

> <ref_pdb>

receptors/Mpro-x0689_0.pdb

> <Chemgauss4>

-1.966782

> <binding_free_energy>

-2.249907049999962

> <binding_std_error>

2.323519829187273

$$$$
DAR-DIA-842b4336-16
  -OEChem-05122002103D

 17 18  0     0  0  0  0  0  0999 V2000
    5.6607    1.0211   18.9004 C   0  0  0  0  0  0  0  0  0  0  0  0
    6.2679    0.8679   20.1418 C   0  0  0  0  0  0  0  0  0  0  0  0
    6.4404    0.8374   17.7699 C   0  0  0  0  0  0  0  0  0  0  0  0
    8.3094    0.3778   19.0245 C   0  0  0  0  0  0  0  0  0  0  0  0
   13.2266   -0.4742   24.2557 C   0  0  0  0  0  0  0  0  0  0  0  0
    7.6173    0.5402   20.2138 C   0  0  0  0  0  0  0  0  0  0  0  0
   13.1712   -1.0083   22.9922 C   0  0  0  0  0  0  0  0  0  0  0  0
   11.3028   -0.0957   23.4947 C   0  0  0  0  0  0  0  0  0  0  0  0
    9.6009    0.6199   21.7642 C   0  0  0  0  0  0  0  0  0  0  0  0
   14.1126   -1.7345   22.1342 C   0  0  0  0  0  0  0  0  0  0  0  0
    9.8785    0.3155   23.2279 C   0  0  0  0  0  0  0  0  0  0  0  0
    7.7538    0.5185   17.8000 N   0  0  0  0  0  0  0  0  0  0  0  0
   12.0265    0.1095   24.5719 N   0  0  0  0  0  0  0  0  0  0  0  0
    8.2528    0.3804   21.4427 N   0  0  0  0  0  0  0  0  0  0  0  0
   10.4741    1.0192   21.0006 O   0  0  0  0  0  0  0  0  0  0  0  0
   11.9280   -0.7684   22.4899 O   0  0  0  0  0  0  0  0  0  0  0  0
    7.6611    0.0446   22.2130 H   0  0  0  0  0  0  0  0  0  0  0  0
  1  2  2  0  0  0  0
  1  3  1  0  0  0  0
  2  6  1  0  0  0  0
  3 12  2  0  0  0  0
  4  6  2  0  0  0  0
  4 12  1  0  0  0  0
  5  7  2  0  0  0  0
  5 13  1  0  0  0  0
  6 14  1  0  0  0  0
  7 10  1  0  0  0  0
  7 16  1  0  0  0  0
  8 11  1  0  0  0  0
  8 13  2  0  0  0  0
  8 16  1  0  0  0  0
  9 11  1  0  0  0  0
  9 14  1  0  0  0  0
  9 15  2  0  0  0  0
 14 17  1  0  0  0  0
M  END

> <original SMILES>

Cc1cnc(CC(=O)Nc2cccnc2)o1

> <ref_mols>

x0434_0,x0678_0,x1093_0

> <ref_pdb>

receptors/Mpro-x0678-protein.pdb

> <Chemgauss4>

-10.643672

> <binding_free_energy>

-2.2414432199999936

> <binding_std_error>

3.268592584206379

$$$$
JOH-MSK-a63bdd1d-8
  -OEChem-05122002103D

 18 20  0     0  0  0  0  0  0999 V2000
   11.7297   -0.5875   23.5773 C   0  0  0  0  0  0  0  0  0  0  0  0
   12.6554   -1.4998   23.0633 C   0  0  0  0  0  0  0  0  0  0  0  0
   13.9848    0.2959   22.1130 C   0  0  0  0  0  0  0  0  0  0  0  0
   13.0667    1.2365   22.6218 C   0  0  0  0  0  0  0  0  0  0  0  0
   12.9714    2.6551   22.5848 C   0  0  0  0  0  0  0  0  0  0  0  0
   11.9586    0.7729   23.3414 C   0  0  0  0  0  0  0  0  0  0  0  0
   13.7661   -1.0671   22.3421 C   0  0  0  0  0  0  0  0  0  0  0  0
   11.8255    3.0080   23.2650 C   0  0  0  0  0  0  0  0  0  0  0  0
   13.8521    3.6785   21.9501 C   0  0  0  0  0  0  0  0  0  0  0  0
   11.3499    4.3914   23.4834 C   0  0  0  0  0  0  0  0  0  0  0  0
   13.6061    5.0744   22.5455 C   0  0  0  0  0  0  0  0  0  0  0  0
   15.7670   -1.4745   21.1230 C   0  0  0  0  0  0  0  0  0  0  0  0
   11.2208    1.8748   23.7222 N   0  0  0  0  0  0  0  0  0  0  0  0
   12.1233    5.3555   22.6080 N   0  3  0  0  0  0  0  0  0  0  0  0
   14.6512   -1.9807   21.8523 O   0  0  0  0  0  0  0  0  0  0  0  0
   10.3647    1.8414   24.2588 H   0  0  0  0  0  0  0  0  0  0  0  0
   11.7400    5.3259   21.6528 H   0  0  0  0  0  0  0  0  0  0  0  0
   11.9674    6.3164   22.9420 H   0  0  0  0  0  0  0  0  0  0  0  0
  1  2  2  0  0  0  0
  1  6  1  0  0  0  0
  2  7  1  0  0  0  0
  3  4  1  0  0  0  0
  3  7  2  0  0  0  0
  4  5  1  0  0  0  0
  4  6  2  0  0  0  0
  5  8  2  0  0  0  0
  5  9  1  0  0  0  0
  6 13  1  0  0  0  0
  7 15  1  0  0  0  0
  8 10  1  0  0  0  0
  8 13  1  0  0  0  0
  9 11  1  0  0  0  0
 10 14  1  0  0  0  0
 11 14  1  0  0  0  0
 12 15  1  0  0  0  0
 13 16  1  0  0  0  0
 14 17  1  0  0  0  0
 14 18  1  0  0  0  0
M  CHG  1  14   1
M  END

> <original SMILES>

COc1ccc2[nH]c3c(c2c1)CCNC3

> <ref_mols>

x0104_0

> <ref_pdb>

receptors/protein-0387.pdb

> <Chemgauss4>

-5.08693265914917

> <binding_free_energy>

-2.196714780267989

> <binding_std_error>

1.209563726609551

$$$$
AGN-NEW-891393a6-10
  -OEChem-05122002103D

 23 25  0     0  0  0  0  0  0999 V2000
   10.6520   -1.8037   22.8053 C   0  0  0  0  0  0  0  0  0  0  0  0
    4.7534    1.3057   19.2235 C   0  0  0  0  0  0  0  0  0  0  0  0
    9.9339   -2.7352   23.5551 C   0  0  0  0  0  0  0  0  0  0  0  0
    5.5720    1.3366   20.3469 C   0  0  0  0  0  0  0  0  0  0  0  0
   10.3108   -0.4522   22.8599 C   0  0  0  0  0  0  0  0  0  0  0  0
    6.7512   -5.0767   26.5816 C   0  0  0  0  0  0  0  0  0  0  0  0
    8.5332   -0.9639   24.4140 C   0  0  0  0  0  0  0  0  0  0  0  0
    5.3138    0.8977   18.0238 C   0  0  0  0  0  0  0  0  0  0  0  0
    8.0848   -5.2510   26.2727 C   0  0  0  0  0  0  0  0  0  0  0  0
    6.1730   -3.9201   26.0999 C   0  0  0  0  0  0  0  0  0  0  0  0
    7.3710    0.5710   18.9929 C   0  0  0  0  0  0  0  0  0  0  0  0
    8.8745   -2.3153   24.3594 C   0  0  0  0  0  0  0  0  0  0  0  0
    6.9071    0.9639   20.2379 C   0  0  0  0  0  0  0  0  0  0  0  0
    9.2514   -0.0324   23.6643 C   0  0  0  0  0  0  0  0  0  0  0  0
    8.1309   -3.2823   25.1373 C   0  0  0  0  0  0  0  0  0  0  0  0
    7.8002    0.9864   21.4094 C   0  0  0  0  0  0  0  0  0  0  0  0
    7.6668    1.8116   22.4551 C   0  0  0  0  0  0  0  0  0  0  0  0
    6.6061    0.5282   17.8790 N   0  0  0  0  0  0  0  0  0  0  0  0
    8.8080   -4.3707   25.5500 N   0  0  0  0  0  0  0  0  0  0  0  0
    6.8357   -2.9976   25.3719 N   0  0  0  0  0  0  0  0  0  0  0  0
    8.1526    1.9161   25.0012 O   0  0  0  0  0  0  0  0  0  0  0  0
   10.0155    2.4313   23.3938 O   0  0  0  0  0  0  0  0  0  0  0  0
    8.8264    1.6598   23.7339 S   0  0  0  0  0  0  0  0  0  0  0  0
  1  3  1  0  0  0  0
  1  5  2  0  0  0  0
  2  4  2  0  0  0  0
  2  8  1  0  0  0  0
  3 12  2  0  0  0  0
  4 13  1  0  0  0  0
  5 14  1  0  0  0  0
  6  9  1  0  0  0  0
  6 10  2  0  0  0  0
  7 12  1  0  0  0  0
  7 14  2  0  0  0  0
  8 18  2  0  0  0  0
  9 19  2  0  0  0  0
 10 20  1  0  0  0  0
 11 13  2  0  0  0  0
 11 18  1  0  0  0  0
 12 15  1  0  0  0  0
 13 16  1  0  0  0  0
 14 23  1  0  0  0  0
 15 19  1  0  0  0  0
 15 20  2  0  0  0  0
 16 17  2  0  0  0  0
 17 23  1  0  0  0  0
 21 23  2  0  0  0  0
 22 23  2  0  0  0  0
M  END

> <original SMILES>

O=S(=O)(/C=C/c1cccnc1)c1cccc(-c2ncccn2)c1

> <ref_mols>

x0434_0

> <ref_pdb>

receptors/protein-0387.pdb

> <Chemgauss4>

-4.76411437988281

> <binding_free_energy>

-2.183866752653061

> <binding_std_error>

2.468993524537233

$$$$
DAR-DIA-fc970077-12
  -OEChem-05122002103D

 19 21  0     0  0  0  0  0  0999 V2000
   14.1370   -1.1815   23.6687 C   0  0  0  0  0  0  0  0  0  0  0  0
   13.2044   -0.6811   24.5772 C   0  0  0  0  0  0  0  0  0  0  0  0
   13.7091   -1.7199   22.4552 C   0  0  0  0  0  0  0  0  0  0  0  0
    5.6580    1.1529   19.0588 C   0  0  0  0  0  0  0  0  0  0  0  0
   11.8438   -0.7192   24.2722 C   0  0  0  0  0  0  0  0  0  0  0  0
   12.3485   -1.7581   22.1502 C   0  0  0  0  0  0  0  0  0  0  0  0
    6.2214    0.6420   20.2228 C   0  0  0  0  0  0  0  0  0  0  0  0
    6.3567    0.9883   17.8737 C   0  0  0  0  0  0  0  0  0  0  0  0
    8.0674   -0.1214   18.9321 C   0  0  0  0  0  0  0  0  0  0  0  0
   11.4158   -1.2577   23.0587 C   0  0  0  0  0  0  0  0  0  0  0  0
    7.4490   -0.0087   20.1669 C   0  0  0  0  0  0  0  0  0  0  0  0
    9.1415   -1.9785   23.5347 C   0  0  0  0  0  0  0  0  0  0  0  0
    9.9771   -1.2983   22.7357 C   0  0  0  0  0  0  0  0  0  0  0  0
    9.4569   -0.6343   21.4885 C   0  0  0  0  0  0  0  0  0  0  0  0
    7.6747   -2.0519   23.2980 C   0  0  0  0  0  0  0  0  0  0  0  0
    7.1925   -0.8496   22.5032 C   0  0  0  0  0  0  0  0  0  0  0  0
    7.5511    0.3621   17.7800 N   0  0  0  0  0  0  0  0  0  0  0  0
    8.0594   -0.5494   21.3576 N   0  0  0  0  0  0  0  0  0  0  0  0
   10.2784   -0.1934   20.6829 O   0  0  0  0  0  0  0  0  0  0  0  0
  1  2  1  0  0  0  0
  1  3  2  0  0  0  0
  2  5  2  0  0  0  0
  3  6  1  0  0  0  0
  4  7  2  0  0  0  0
  4  8  1  0  0  0  0
  5 10  1  0  0  0  0
  6 10  2  0  0  0  0
  7 11  1  0  0  0  0
  8 17  2  0  0  0  0
  9 11  2  0  0  0  0
  9 17  1  0  0  0  0
 10 13  1  0  0  0  0
 11 18  1  0  0  0  0
 12 13  2  0  0  0  0
 12 15  1  0  0  0  0
 13 14  1  0  0  0  0
 14 18  1  0  0  0  0
 14 19  2  0  0  0  0
 15 16  1  0  0  0  0
 16 18  1  0  0  0  0
M  END

> <original SMILES>

O=C1C(c2ccccc2)C=CCN1c1cccnc1

> <ref_mols>

x0434_0

> <ref_pdb>

receptors/Mpro-x0434-protein.pdb

> <Chemgauss4>

-7.321635

> <binding_free_energy>

-2.1812878439394012

> <binding_std_error>

9.80606549846971

$$$$
ANN-UNI-26382800-1
  -OEChem-05122002103D

 18 19  0     0  0  0  0  0  0999 V2000
   10.3345   -4.6691   24.4267 C   0  0  0  0  0  0  0  0  0  0  0  0
   11.3957   -3.9834   25.0072 C   0  0  0  0  0  0  0  0  0  0  0  0
    9.6536   -2.6371   23.3952 C   0  0  0  0  0  0  0  0  0  0  0  0
    9.4423   -3.9905   23.6040 C   0  0  0  0  0  0  0  0  0  0  0  0
   11.5196   -2.6304   24.7354 C   0  0  0  0  0  0  0  0  0  0  0  0
    6.9560   -6.6410   22.5332 C   0  0  0  0  0  0  0  0  0  0  0  0
    6.1094   -5.9531   21.7575 C   0  0  0  0  0  0  0  0  0  0  0  0
    8.0850   -6.0014   23.1636 C   0  0  0  0  0  0  0  0  0  0  0  0
    8.3071   -4.6891   22.9736 C   0  0  0  0  0  0  0  0  0  0  0  0
    6.3380   -4.4971   21.5380 C   0  0  0  0  0  0  0  0  0  0  0  0
   14.5787   -1.6332   26.6773 C   0  0  0  0  0  0  0  0  0  0  0  0
   13.5497   -2.5935   26.1856 C   0  0  0  0  0  0  0  0  0  0  0  0
   10.6729   -1.9371   23.9416 N   0  0  0  0  0  0  0  0  0  0  0  0
    7.4443   -3.9600   22.1771 N   0  0  0  0  0  0  0  0  0  0  0  0
   12.6061   -1.9455   25.3341 N   0  0  0  0  0  0  0  0  0  0  0  0
    5.5724   -3.8499   20.8281 O   0  0  0  0  0  0  0  0  0  0  0  0
    7.6327   -2.9691   22.0525 H   0  0  0  0  0  0  0  0  0  0  0  0
   12.6859   -0.9697   25.1328 H   0  0  0  0  0  0  0  0  0  0  0  0
  1  2  2  0  0  0  0
  1  4  1  0  0  0  0
  2  5  1  0  0  0  0
  3  4  2  0  0  0  0
  3 13  1  0  0  0  0
  4  9  1  0  0  0  0
  5 13  2  0  0  0  0
  5 15  1  0  0  0  0
  6  7  2  0  0  0  0
  6  8  1  0  0  0  0
  7 10  1  0  0  0  0
  8  9  2  0  0  0  0
  9 14  1  0  0  0  0
 10 14  1  0  0  0  0
 10 16  2  0  0  0  0
 11 12  1  0  0  0  0
 12 15  1  0  0  0  0
 14 17  1  0  0  0  0
 15 18  1  0  0  0  0
M  END

> <original SMILES>

CCNc1ccc(-c2cccc(=O)[nH]2)cn1

> <ref_mols>

x0104_0,x0305_0,x0434_0,x0678_0,x1093_0,x1249_0

> <ref_pdb>

receptors/Mpro-x1093-protein.pdb

> <Chemgauss4>

-5.982128

> <binding_free_energy>

-2.161727741194227

> <binding_std_error>

2.3368467323228495

$$$$
CHR-SOS-7098f804-9
  -OEChem-05122002103D

 16 17  0     0  0  0  0  0  0999 V2000
   13.2620   -0.9261   26.0126 C   0  0  0  0  0  0  0  0  0  0  0  0
    6.6245   -5.7891   21.8768 C   0  0  0  0  0  0  0  0  0  0  0  0
   13.7232   -2.2382   25.9070 C   0  0  0  0  0  0  0  0  0  0  0  0
   11.9537   -0.6147   25.6423 C   0  0  0  0  0  0  0  0  0  0  0  0
    7.5484   -6.4127   22.7153 C   0  0  0  0  0  0  0  0  0  0  0  0
    6.7108   -4.4168   21.6421 C   0  0  0  0  0  0  0  0  0  0  0  0
   12.8762   -3.2390   25.4309 C   0  0  0  0  0  0  0  0  0  0  0  0
   11.1067   -1.6155   25.1662 C   0  0  0  0  0  0  0  0  0  0  0  0
    8.5586   -5.6640   23.3191 C   0  0  0  0  0  0  0  0  0  0  0  0
    7.7209   -3.6681   22.2459 C   0  0  0  0  0  0  0  0  0  0  0  0
   11.5679   -2.9277   25.0605 C   0  0  0  0  0  0  0  0  0  0  0  0
    8.6449   -4.2917   23.0844 C   0  0  0  0  0  0  0  0  0  0  0  0
   10.6849   -3.9711   24.5641 C   0  0  0  0  0  0  0  0  0  0  0  0
    9.6718   -3.5310   23.6982 N   0  0  0  0  0  0  0  0  0  0  0  0
   10.8094   -5.1521   24.9171 O   0  0  0  0  0  0  0  0  0  0  0  0
    9.6748   -2.5370   23.4829 H   0  0  0  0  0  0  0  0  0  0  0  0
  1  3  1  0  0  0  0
  1  4  2  0  0  0  0
  2  5  1  0  0  0  0
  2  6  2  0  0  0  0
  3  7  2  0  0  0  0
  4  8  1  0  0  0  0
  5  9  2  0  0  0  0
  6 10  1  0  0  0  0
  7 11  1  0  0  0  0
  8 11  2  0  0  0  0
  9 12  1  0  0  0  0
 10 12  2  0  0  0  0
 11 13  1  0  0  0  0
 12 14  1  0  0  0  0
 13 14  1  0  0  0  0
 13 15  2  0  0  0  0
 14 16  1  0  0  0  0
M  END

> <original SMILES>

O=C(Nc1ccccc1)c1ccccc1

> <ref_mols>

x0107_0,x0161_0,x0195_0,x0678_0,x0946_0

> <ref_pdb>

receptors/Mpro-x0946-protein.pdb

> <Chemgauss4>

-6.633832

> <binding_free_energy>

-2.159120886666667

> <binding_std_error>

6.001703968849629

$$$$
WAR-XCH-eb7b662f-2
  -OEChem-05122002103D

 21 22  0     0  0  0  0  0  0999 V2000
    5.9587   -4.7623   20.8709 C   0  0  0  0  0  0  0  0  0  0  0  0
   14.5318   -2.8827   26.5033 C   0  0  0  0  0  0  0  0  0  0  0  0
   13.3516   -3.0977   25.8004 C   0  0  0  0  0  0  0  0  0  0  0  0
    7.6946   -3.9109   22.3682 C   0  0  0  0  0  0  0  0  0  0  0  0
    6.0641   -5.4847   23.2055 C   0  0  0  0  0  0  0  0  0  0  0  0
    7.7859   -4.6342   24.6715 C   0  0  0  0  0  0  0  0  0  0  0  0
   14.9277   -1.5728   26.7209 C   0  0  0  0  0  0  0  0  0  0  0  0
   13.0952   -0.7407   25.6127 C   0  0  0  0  0  0  0  0  0  0  0  0
    6.5773   -4.7190   22.1586 C   0  0  0  0  0  0  0  0  0  0  0  0
   12.6136   -2.0116   25.3430 C   0  0  0  0  0  0  0  0  0  0  0  0
    8.2990   -3.8685   23.6246 C   0  0  0  0  0  0  0  0  0  0  0  0
    6.6684   -5.4423   24.4620 C   0  0  0  0  0  0  0  0  0  0  0  0
   10.4918   -3.2559   24.7362 C   0  0  0  0  0  0  0  0  0  0  0  0
    5.4566   -4.7975   19.8252 N   0  0  0  0  0  0  0  0  0  0  0  0
   14.2373   -0.4924   26.2921 N   0  0  0  0  0  0  0  0  0  0  0  0
   11.4090   -2.1987   24.6248 N   0  0  0  0  0  0  0  0  0  0  0  0
    9.4169   -3.0607   23.8348 N   0  0  0  0  0  0  0  0  0  0  0  0
   10.5989   -4.2108   25.4991 O   0  0  0  0  0  0  0  0  0  0  0  0
    6.0356   -6.3876   25.7538 Cl  0  0  0  0  0  0  0  0  0  0  0  0
   11.1792   -1.4789   23.9443 H   0  0  0  0  0  0  0  0  0  0  0  0
    9.4806   -2.2094   23.2664 H   0  0  0  0  0  0  0  0  0  0  0  0
  1  9  1  0  0  0  0
  1 14  3  0  0  0  0
  2  3  2  0  0  0  0
  2  7  1  0  0  0  0
  3 10  1  0  0  0  0
  4  9  2  0  0  0  0
  4 11  1  0  0  0  0
  5  9  1  0  0  0  0
  5 12  2  0  0  0  0
  6 11  2  0  0  0  0
  6 12  1  0  0  0  0
  7 15  2  0  0  0  0
  8 10  2  0  0  0  0
  8 15  1  0  0  0  0
 10 16  1  0  0  0  0
 11 17  1  0  0  0  0
 12 19  1  0  0  0  0
 13 16  1  0  0  0  0
 13 17  1  0  0  0  0
 13 18  2  0  0  0  0
 16 20  1  0  0  0  0
 17 21  1  0  0  0  0
M  END

> <original SMILES>

N#Cc1cc(Cl)cc(NC(=O)Nc2cccnc2)c1

> <ref_mols>

x0305_0,x0434_0

> <ref_pdb>

receptors/protein-0387.pdb

> <Chemgauss4>

-4.55587100982666

> <binding_free_energy>

-2.1510210808446555

> <binding_std_error>

2.31808443478457

$$$$
BEN-VAN-d2b455e2-17
  -OEChem-05122002103D

 25 27  0     1  0  0  0  0  0999 V2000
   10.4088   -2.5696   24.4739 C   0  0  0  0  0  0  0  0  0  0  0  0
    8.4229   -1.1254   19.3058 C   0  0  0  0  0  0  0  0  0  0  0  0
    9.3042   -3.3284   24.7925 C   0  0  0  0  0  0  0  0  0  0  0  0
   10.2101   -1.8069   23.2869 C   0  0  0  0  0  0  0  0  0  0  0  0
    7.2662   -0.3742   19.3515 C   0  0  0  0  0  0  0  0  0  0  0  0
    8.9610   -2.0122   22.7433 C   0  0  0  0  0  0  0  0  0  0  0  0
    6.7128   -0.2059   20.6043 C   0  0  0  0  0  0  0  0  0  0  0  0
    8.3683   -1.4385   21.5566 C   0  0  0  0  0  0  0  0  0  0  0  0
   10.7154    1.4979   22.2013 C   0  0  0  0  0  0  0  0  0  0  0  0
   13.5187   -0.0922   22.9149 C   0  0  0  0  0  0  0  0  0  0  0  0
   12.6955   -1.3680   22.9703 C   0  0  0  0  0  0  0  0  0  0  0  0
   12.6476    0.9123   23.6555 C   0  0  0  0  0  0  0  0  0  0  0  0
   11.2607   -0.8853   22.7073 C   0  0  2  0  0  0  0  0  0  0  0  0
   11.2103    0.5582   23.2610 C   0  0  2  0  0  0  0  0  0  0  0  0
    5.9361    1.3976   18.2038 C   0  0  0  0  0  0  0  0  0  0  0  0
   10.2679    3.8959   21.7198 C   0  0  0  0  0  0  0  0  0  0  0  0
    9.0035   -1.6745   20.3928 N   0  0  0  0  0  0  0  0  0  0  0  0
    7.2392   -0.7260   21.7325 N   0  0  0  0  0  0  0  0  0  0  0  0
    6.6957    0.1781   18.2004 N   0  0  0  0  0  0  0  0  0  0  0  0
   10.7051    2.8249   22.5863 N   0  0  0  0  0  0  0  0  0  0  0  0
   10.3694    1.0531   21.1131 O   0  0  0  0  0  0  0  0  0  0  0  0
    5.5855    0.5129   20.7303 F   0  0  0  0  0  0  0  0  0  0  0  0
    8.0341   -3.1201   23.6629 S   0  0  0  0  0  0  0  0  0  0  0  0
    6.8301   -0.3141   17.3310 H   0  0  0  0  0  0  0  0  0  0  0  0
   11.0198    3.0590   23.5231 H   0  0  0  0  0  0  0  0  0  0  0  0
  1  3  2  0  0  0  0
  1  4  1  0  0  0  0
  2  5  1  0  0  0  0
  2 17  2  0  0  0  0
  3 23  1  0  0  0  0
  4  6  2  0  0  0  0
  4 13  1  0  0  0  0
  5  7  2  0  0  0  0
  5 19  1  0  0  0  0
  6  8  1  0  0  0  0
  6 23  1  0  0  0  0
  7 18  1  0  0  0  0
  7 22  1  0  0  0  0
  8 17  1  0  0  0  0
  8 18  2  0  0  0  0
  9 14  1  0  0  0  0
  9 20  1  0  0  0  0
  9 21  2  0  0  0  0
 10 11  1  0  0  0  0
 10 12  1  0  0  0  0
 11 13  1  0  0  0  0
 12 14  1  0  0  0  0
 13 14  1  0  0  0  0
 15 19  1  0  0  0  0
 16 20  1  0  0  0  0
 19 24  1  0  0  0  0
 20 25  1  0  0  0  0
M  END

> <original SMILES>

CNC(=O)[C@@H]1CCC[C@H]1c1ccsc1-c1ncc(NC)c(F)n1

> <ref_mols>

x0305_0,x0874_0,x0995_0

> <ref_pdb>

receptors/Mpro-x0305-protein.pdb

> <Chemgauss4>

-3.60112

> <binding_free_energy>

-2.1256029199999773

> <binding_std_error>

2.99658082530488

$$$$
ALV-UNI-7ff1a6f9-37
  -OEChem-05122002103D

 23 26  0     0  0  0  0  0  0999 V2000
   11.7069    0.7811   22.4483 C   0  0  0  0  0  0  0  0  0  0  0  0
   11.8801   -1.4185   21.4641 C   0  0  0  0  0  0  0  0  0  0  0  0
   12.9217    0.5832   23.1045 C   0  0  0  0  0  0  0  0  0  0  0  0
   13.0950   -1.6165   22.1203 C   0  0  0  0  0  0  0  0  0  0  0  0
    8.6079   -0.7191   23.8257 C   0  0  0  0  0  0  0  0  0  0  0  0
    7.8371    1.5275   23.4475 C   0  0  0  0  0  0  0  0  0  0  0  0
    8.2620   -0.5561   25.1574 C   0  0  0  0  0  0  0  0  0  0  0  0
    7.5255    1.5899   24.7962 C   0  0  0  0  0  0  0  0  0  0  0  0
   11.1860   -0.2198   21.6281 C   0  0  0  0  0  0  0  0  0  0  0  0
    8.3882    0.3473   22.9609 C   0  0  0  0  0  0  0  0  0  0  0  0
   13.6158   -0.6155   22.9405 C   0  0  0  0  0  0  0  0  0  0  0  0
    9.9388   -0.0167   20.9546 C   0  0  0  0  0  0  0  0  0  0  0  0
    8.7315    0.2293   21.5605 C   0  0  0  0  0  0  0  0  0  0  0  0
    8.5323    0.1814   19.3440 C   0  0  0  0  0  0  0  0  0  0  0  0
    5.7872    0.6902   19.4299 C   0  0  0  0  0  0  0  0  0  0  0  0
    6.4759    0.6074   20.5729 C   0  0  0  0  0  0  0  0  0  0  0  0
    6.5978    0.4937   18.1868 C   0  0  0  0  0  0  0  0  0  0  0  0
    5.8446    0.5833   16.8845 C   0  0  0  0  0  0  0  0  0  0  0  0
    7.7246    0.5750   25.6668 N   0  0  0  0  0  0  0  0  0  0  0  0
    9.8103   -0.0450   19.5906 N   0  0  0  0  0  0  0  0  0  0  0  0
    7.8784    0.2563   18.1471 N   0  0  0  0  0  0  0  0  0  0  0  0
    7.8354    0.3554   20.5329 N   0  0  0  0  0  0  0  0  0  0  0  0
   14.7824   -0.8055   23.5707 F   0  0  0  0  0  0  0  0  0  0  0  0
  1  3  2  0  0  0  0
  1  9  1  0  0  0  0
  2  4  1  0  0  0  0
  2  9  2  0  0  0  0
  3 11  1  0  0  0  0
  4 11  2  0  0  0  0
  5  7  2  0  0  0  0
  5 10  1  0  0  0  0
  6  8  1  0  0  0  0
  6 10  2  0  0  0  0
  7 19  1  0  0  0  0
  8 19  2  0  0  0  0
  9 12  1  0  0  0  0
 10 13  1  0  0  0  0
 11 23  1  0  0  0  0
 12 13  2  0  0  0  0
 12 20  1  0  0  0  0
 13 22  1  0  0  0  0
 14 20  2  0  0  0  0
 14 21  1  0  0  0  0
 14 22  1  0  0  0  0
 15 16  2  0  0  0  0
 15 17  1  0  0  0  0
 16 22  1  0  0  0  0
 17 18  1  0  0  0  0
 17 21  2  0  0  0  0
M  END

> <original SMILES>

Cc1ccn2c(-c3ccncc3)c(-c3ccc(F)cc3)nc2n1

> <ref_mols>

x0395_0,x0426_0,x0434_0,x0540_0,x0678_0,x0830_0,x1093_0

> <ref_pdb>

receptors/Mpro-x0426-protein.pdb

> <Chemgauss4>

-6.495035

> <binding_free_energy>

-2.116916420000001

> <binding_std_error>

2.3417646476217593

$$$$
DOU-UNK-b5326f8f-13
  -OEChem-05122002103D

 21 25  0     1  0  0  0  0  0999 V2000
   13.8998    1.7560   22.3121 C   0  0  0  0  0  0  0  0  0  0  0  0
   13.4578    6.3127   22.6919 C   0  0  0  0  0  0  0  0  0  0  0  0
   13.2239    0.5209   22.5555 C   0  0  0  0  0  0  0  0  0  0  0  0
   13.1419    2.8459   22.6795 C   0  0  0  0  0  0  0  0  0  0  0  0
   11.9629    0.7308   23.0826 C   0  0  0  0  0  0  0  0  0  0  0  0
   13.5033    4.2145   22.5834 C   0  0  0  0  0  0  0  0  0  0  0  0
    9.4717   -1.5313   22.3391 C   0  0  0  0  0  0  0  0  0  0  0  0
    8.5121   -2.4792   24.8307 C   0  0  0  0  0  0  0  0  0  0  0  0
    8.2932   -3.7677   24.0881 C   0  0  0  0  0  0  0  0  0  0  0  0
   12.6070   -1.8642   22.1445 C   0  0  0  0  0  0  0  0  0  0  0  0
   13.7536   -0.8513   22.2902 C   0  0  2  0  0  0  0  0  0  0  0  0
   10.9776   -0.3383   23.4402 C   0  0  2  0  0  0  0  0  0  0  0  0
   10.3188   -2.5921   22.9706 C   0  0  2  0  0  0  0  0  0  0  0  0
    9.6695   -3.1808   24.1854 C   0  0  0  0  0  0  0  0  0  0  0  0
   11.5618   -1.7606   23.2850 C   0  0  1  0  0  0  0  0  0  0  0  0
   14.6274    6.0043   22.1823 N   0  0  0  0  0  0  0  0  0  0  0  0
   14.6573    4.6240   22.1108 N   0  0  0  0  0  0  0  0  0  0  0  0
    9.8011   -0.2956   22.5394 N   0  0  0  0  0  0  0  0  0  0  0  0
   12.6841    5.2289   22.9742 O   0  0  0  0  0  0  0  0  0  0  0  0
   11.6194    2.3865   23.3100 S   0  0  0  0  0  0  0  0  0  0  0  0
   14.8300   -1.3048   23.6443 Cl  0  0  0  0  0  0  0  0  0  0  0  0
  1  3  1  0  0  0  0
  1  4  2  0  0  0  0
  2 16  2  0  0  0  0
  2 19  1  0  0  0  0
  3  5  2  0  0  0  0
  3 11  1  0  0  0  0
  4  6  1  0  0  0  0
  4 20  1  0  0  0  0
  5 12  1  0  0  0  0
  5 20  1  0  0  0  0
  6 17  2  0  0  0  0
  6 19  1  0  0  0  0
  7 13  1  0  0  0  0
  7 18  2  0  0  0  0
  8  9  1  0  0  0  0
  8 14  1  0  0  0  0
  9 14  1  0  0  0  0
 10 11  1  0  0  0  0
 10 15  1  0  0  0  0
 11 21  1  0  0  0  0
 12 15  1  0  0  0  0
 12 18  1  0  0  0  0
 13 14  1  0  0  0  0
 13 15  1  0  0  0  0
 16 17  1  0  0  0  0
M  END

> <original SMILES>

ClC1CC2C(C3CC3)=CNC2c2sc(-c3nnco3)cc21

> <ref_mols>

x0104_0,x0107_0,x0387_0,x0397_0,x0708_0,x0770_0,x1093_0,x1392_0

> <ref_pdb>

receptors/Mpro-x0770-protein.pdb

> <Chemgauss4>

-6.253192

> <binding_free_energy>

-2.0883575878994023

> <binding_std_error>

1.2751197412862674

$$$$
CAS-DEP-751a2458-3
  -OEChem-05122002103D

 19 20  0     0  0  0  0  0  0999 V2000
   13.8282   -2.1106   26.5725 C   0  0  0  0  0  0  0  0  0  0  0  0
   12.9180   -3.1126   26.2360 C   0  0  0  0  0  0  0  0  0  0  0  0
   13.7974   -0.8870   25.9035 C   0  0  0  0  0  0  0  0  0  0  0  0
    7.6401   -4.7003   22.0758 C   0  0  0  0  0  0  0  0  0  0  0  0
   11.9465   -1.6676   24.5612 C   0  0  0  0  0  0  0  0  0  0  0  0
    6.6364   -5.4721   21.5333 C   0  0  0  0  0  0  0  0  0  0  0  0
    7.6362   -6.6947   23.1209 C   0  0  0  0  0  0  0  0  0  0  0  0
   11.9772   -2.8911   25.2303 C   0  0  0  0  0  0  0  0  0  0  0  0
    8.2725   -5.4737   23.0803 C   0  0  0  0  0  0  0  0  0  0  0  0
   12.8566   -0.6655   24.8978 C   0  0  0  0  0  0  0  0  0  0  0  0
   10.0446   -3.8662   23.9138 C   0  0  0  0  0  0  0  0  0  0  0  0
    6.6436   -6.6825   22.1761 N   0  0  0  0  0  0  0  0  0  0  0  0
   11.0664   -3.8932   24.8941 N   0  0  0  0  0  0  0  0  0  0  0  0
    9.3567   -5.0902   23.9046 N   0  0  0  0  0  0  0  0  0  0  0  0
    9.8021   -2.9105   23.1837 O   0  0  0  0  0  0  0  0  0  0  0  0
   12.8277    0.5098   24.2558 F   0  0  0  0  0  0  0  0  0  0  0  0
    6.0137   -7.4488   21.9826 H   0  0  0  0  0  0  0  0  0  0  0  0
   11.1477   -4.7651   25.4278 H   0  0  0  0  0  0  0  0  0  0  0  0
    9.6710   -5.7917   24.5703 H   0  0  0  0  0  0  0  0  0  0  0  0
  1  2  2  0  0  0  0
  1  3  1  0  0  0  0
  2  8  1  0  0  0  0
  3 10  2  0  0  0  0
  4  6  2  0  0  0  0
  4  9  1  0  0  0  0
  5  8  2  0  0  0  0
  5 10  1  0  0  0  0
  6 12  1  0  0  0  0
  7  9  2  0  0  0  0
  7 12  1  0  0  0  0
  8 13  1  0  0  0  0
  9 14  1  0  0  0  0
 10 16  1  0  0  0  0
 11 13  1  0  0  0  0
 11 14  1  0  0  0  0
 11 15  2  0  0  0  0
 12 17  1  0  0  0  0
 13 18  1  0  0  0  0
 14 19  1  0  0  0  0
M  END

> <original SMILES>

O=C(Nc1cc[nH]c1)Nc1cccc(F)c1

> <ref_mols>

x0104_0

> <ref_pdb>

receptors/Mpro-x0104_0.pdb

> <Chemgauss4>

-7.519137

> <binding_free_energy>

-2.065192001010047

> <binding_std_error>

4.2134664388906735

$$$$
PET-SGC-708ec5d8-1
  -OEChem-05122002103D

 20 21  0     0  0  0  0  0  0999 V2000
   13.7296   -1.0181   21.1668 C   0  0  0  0  0  0  0  0  0  0  0  0
   13.1631    0.4180   23.0575 C   0  0  0  0  0  0  0  0  0  0  0  0
   12.3564    0.7542   24.1484 C   0  0  0  0  0  0  0  0  0  0  0  0
   11.7897   -1.5235   22.5661 C   0  0  0  0  0  0  0  0  0  0  0  0
    9.4244   -1.0275   25.3084 C   0  0  0  0  0  0  0  0  0  0  0  0
   12.8860   -0.7027   22.2772 C   0  0  0  0  0  0  0  0  0  0  0  0
   10.9622   -1.2046   23.6611 C   0  0  0  0  0  0  0  0  0  0  0  0
    9.7990   -1.7951   24.2298 C   0  0  0  0  0  0  0  0  0  0  0  0
   11.2640   -0.0755   24.4254 C   0  0  0  0  0  0  0  0  0  0  0  0
    7.2544   -2.0484   20.6601 C   0  0  0  0  0  0  0  0  0  0  0  0
    7.6701   -1.1369   19.5534 C   0  0  0  0  0  0  0  0  0  0  0  0
    8.8238    1.3431   26.8539 C   0  0  0  0  0  0  0  0  0  0  0  0
    9.1104   -3.0130   23.7567 C   0  0  0  0  0  0  0  0  0  0  0  0
   10.2513    1.0319   26.4384 C   0  0  0  0  0  0  0  0  0  0  0  0
    7.8075   -2.7374   22.9843 C   0  0  0  0  0  0  0  0  0  0  0  0
   14.4144   -1.2742   20.2654 N   0  0  0  0  0  0  0  0  0  0  0  0
   10.3139    0.0075   25.4182 N   0  0  0  0  0  0  0  0  0  0  0  0
    8.0347   -1.9517   21.8011 N   0  0  0  0  0  0  0  0  0  0  0  0
    6.2929   -2.7915   20.5018 O   0  0  0  0  0  0  0  0  0  0  0  0
    8.8092   -1.2898   21.8020 H   0  0  0  0  0  0  0  0  0  0  0  0
  1  6  1  0  0  0  0
  1 16  3  0  0  0  0
  2  3  2  0  0  0  0
  2  6  1  0  0  0  0
  3  9  1  0  0  0  0
  4  6  2  0  0  0  0
  4  7  1  0  0  0  0
  5  8  2  0  0  0  0
  5 17  1  0  0  0  0
  7  8  1  0  0  0  0
  7  9  2  0  0  0  0
  8 13  1  0  0  0  0
  9 17  1  0  0  0  0
 10 11  1  0  0  0  0
 10 18  1  0  0  0  0
 10 19  2  0  0  0  0
 12 14  1  0  0  0  0
 13 15  1  0  0  0  0
 14 17  1  0  0  0  0
 15 18  1  0  0  0  0
 18 20  1  0  0  0  0
M  END

> <original SMILES>

CCn1cc(CCNC(C)=O)c2cc(C#N)ccc21

> <ref_mols>

x0104_0,x0305_0

> <ref_pdb>

receptors/Mpro-x0104_0.pdb

> <Chemgauss4>

-9.379772

> <binding_free_energy>

-2.047870717692298

> <binding_std_error>

2.336779756551071

$$$$
DAR-DIA-842b4336-21
  -OEChem-05122002103D

 21 23  0     0  0  0  0  0  0999 V2000
    4.8338    0.9925   18.7216 C   0  0  0  0  0  0  0  0  0  0  0  0
    5.2886    0.9587   20.0385 C   0  0  0  0  0  0  0  0  0  0  0  0
    7.4322    0.3413   21.4060 C   0  0  0  0  0  0  0  0  0  0  0  0
    5.6952    0.5963   17.7072 C   0  0  0  0  0  0  0  0  0  0  0  0
    9.1997   -5.3257   24.8159 C   0  0  0  0  0  0  0  0  0  0  0  0
    6.6036    0.5221   20.2671 C   0  0  0  0  0  0  0  0  0  0  0  0
    8.6514   -0.1255   20.9641 C   0  0  0  0  0  0  0  0  0  0  0  0
    8.5186   -4.5657   25.7341 C   0  0  0  0  0  0  0  0  0  0  0  0
    7.3583    0.1541   19.1571 C   0  0  0  0  0  0  0  0  0  0  0  0
    9.1663   -3.3491   24.0981 C   0  0  0  0  0  0  0  0  0  0  0  0
    9.9437   -1.9452   22.1565 C   0  0  0  0  0  0  0  0  0  0  0  0
    7.8609   -4.8370   27.0160 C   0  0  0  0  0  0  0  0  0  0  0  0
    9.8732   -0.4798   21.7108 C   0  0  0  0  0  0  0  0  0  0  0  0
    6.9688    0.1680   17.8683 N   0  0  0  0  0  0  0  0  0  0  0  0
    9.6120   -4.5406   23.7697 N   0  0  0  0  0  0  0  0  0  0  0  0
    8.5955   -0.2348   19.5988 N   0  0  0  0  0  0  0  0  0  0  0  0
    9.3030   -2.1386   23.3778 N   0  0  0  0  0  0  0  0  0  0  0  0
   10.5118   -2.7913   21.4735 O   0  0  0  0  0  0  0  0  0  0  0  0
    8.4913   -3.2824   25.2782 O   0  0  0  0  0  0  0  0  0  0  0  0
    9.3491   -0.5535   19.0054 H   0  0  0  0  0  0  0  0  0  0  0  0
    8.8844   -1.3133   23.8018 H   0  0  0  0  0  0  0  0  0  0  0  0
  1  2  2  0  0  0  0
  1  4  1  0  0  0  0
  2  6  1  0  0  0  0
  3  6  1  0  0  0  0
  3  7  2  0  0  0  0
  4 14  2  0  0  0  0
  5  8  2  0  0  0  0
  5 15  1  0  0  0  0
  6  9  2  0  0  0  0
  7 13  1  0  0  0  0
  7 16  1  0  0  0  0
  8 12  1  0  0  0  0
  8 19  1  0  0  0  0
  9 14  1  0  0  0  0
  9 16  1  0  0  0  0
 10 15  2  0  0  0  0
 10 17  1  0  0  0  0
 10 19  1  0  0  0  0
 11 13  1  0  0  0  0
 11 17  1  0  0  0  0
 11 18  2  0  0  0  0
 16 20  1  0  0  0  0
 17 21  1  0  0  0  0
M  END

> <original SMILES>

Cc1cnc(NC(=O)Cc2cc3cccnc3[nH]2)o1

> <ref_mols>

x0434_0,x0678_0,x1093_0

> <ref_pdb>

receptors/Mpro-x0678-protein.pdb

> <Chemgauss4>

-10.188992

> <binding_free_energy>

-2.0203611222442532

> <binding_std_error>

2.887170541851118

$$$$
ALV-UNI-7ff1a6f9-25
  -OEChem-05122002103D

 23 26  0     0  0  0  0  0  0999 V2000
   10.3789   -0.8217   25.0287 C   0  0  0  0  0  0  0  0  0  0  0  0
    8.5132   -0.2177   23.6174 C   0  0  0  0  0  0  0  0  0  0  0  0
    9.8870   -2.1235   25.1219 C   0  0  0  0  0  0  0  0  0  0  0  0
    8.0213   -1.5197   23.7106 C   0  0  0  0  0  0  0  0  0  0  0  0
   13.8620    1.2884   23.1576 C   0  0  0  0  0  0  0  0  0  0  0  0
   12.3601   -0.1662   22.4771 C   0  0  0  0  0  0  0  0  0  0  0  0
    9.6920    0.1313   24.2765 C   0  0  0  0  0  0  0  0  0  0  0  0
   12.4770    1.0383   23.1266 C   0  0  0  0  0  0  0  0  0  0  0  0
   11.4396    1.8860   23.6692 C   0  0  0  0  0  0  0  0  0  0  0  0
    8.7082   -2.4726   24.4628 C   0  0  0  0  0  0  0  0  0  0  0  0
   10.2004    1.4774   24.1804 C   0  0  0  0  0  0  0  0  0  0  0  0
   11.4409    3.2559   23.8007 C   0  0  0  0  0  0  0  0  0  0  0  0
    9.8964    4.9238   24.6475 C   0  0  0  0  0  0  0  0  0  0  0  0
   12.0362    5.4328   23.7466 C   0  0  0  0  0  0  0  0  0  0  0  0
   10.7610    5.9052   24.3581 C   0  0  0  0  0  0  0  0  0  0  0  0
   10.5565    7.3597   24.5881 C   0  0  0  0  0  0  0  0  0  0  0  0
   14.0218   -1.7566   21.4815 C   0  0  0  0  0  0  0  0  0  0  0  0
   14.5740    0.3205   22.5743 N   0  0  0  0  0  0  0  0  0  0  0  0
    9.4553    2.4952   24.6096 N   0  0  0  0  0  0  0  0  0  0  0  0
   12.3657    4.2049   23.4815 N   0  0  0  0  0  0  0  0  0  0  0  0
   13.6326   -0.5496   22.1708 N   0  0  0  0  0  0  0  0  0  0  0  0
   10.2171    3.5962   24.3772 N   0  0  0  0  0  0  0  0  0  0  0  0
    8.2359   -3.7228   24.5524 F   0  0  0  0  0  0  0  0  0  0  0  0
  1  3  2  0  0  0  0
  1  7  1  0  0  0  0
  2  4  1  0  0  0  0
  2  7  2  0  0  0  0
  3 10  1  0  0  0  0
  4 10  2  0  0  0  0
  5  8  1  0  0  0  0
  5 18  2  0  0  0  0
  6  8  2  0  0  0  0
  6 21  1  0  0  0  0
  7 11  1  0  0  0  0
  8  9  1  0  0  0  0
  9 11  1  0  0  0  0
  9 12  2  0  0  0  0
 10 23  1  0  0  0  0
 11 19  2  0  0  0  0
 12 20  1  0  0  0  0
 12 22  1  0  0  0  0
 13 15  2  0  0  0  0
 13 22  1  0  0  0  0
 14 15  1  0  0  0  0
 14 20  2  0  0  0  0
 15 16  1  0  0  0  0
 17 21  1  0  0  0  0
 18 21  1  0  0  0  0
 19 22  1  0  0  0  0
M  END

> <original SMILES>

Cc1cnc2c(-c3cnn(C)c3)c(-c3ccc(F)cc3)nn2c1

> <ref_mols>

x0395_0,x0426_0,x0434_0,x0540_0,x0678_0,x0830_0,x1093_0

> <ref_pdb>

receptors/Mpro-x0434_0.pdb

> <Chemgauss4>

-8.632174

> <binding_free_energy>

-1.9639625252525263

> <binding_std_error>

2.232803117279146

$$$$
DAR-DIA-fc970077-5
  -OEChem-05122002103D

 19 21  0     1  0  0  0  0  0999 V2000
   14.4704   -1.2441   23.7541 C   0  0  0  0  0  0  0  0  0  0  0  0
   13.9532   -1.9063   22.6408 C   0  0  0  0  0  0  0  0  0  0  0  0
   13.6521   -0.4022   24.5073 C   0  0  0  0  0  0  0  0  0  0  0  0
    5.6425    1.0166   18.7184 C   0  0  0  0  0  0  0  0  0  0  0  0
   12.6178   -1.7265   22.2804 C   0  0  0  0  0  0  0  0  0  0  0  0
   12.3167   -0.2223   24.1469 C   0  0  0  0  0  0  0  0  0  0  0  0
    6.2598    0.7316   19.9313 C   0  0  0  0  0  0  0  0  0  0  0  0
    6.3900    0.8731   17.5607 C   0  0  0  0  0  0  0  0  0  0  0  0
    8.2474    0.2050   18.7362 C   0  0  0  0  0  0  0  0  0  0  0  0
   11.7995   -0.8845   23.0335 C   0  0  0  0  0  0  0  0  0  0  0  0
    7.5870    0.3175   19.9490 C   0  0  0  0  0  0  0  0  0  0  0  0
    9.6759   -1.7043   22.0161 C   0  0  0  0  0  0  0  0  0  0  0  0
    8.2380   -1.3044   21.7437 C   0  0  0  0  0  0  0  0  0  0  0  0
    9.7218    0.5247   23.0646 C   0  0  0  0  0  0  0  0  0  0  0  0
    8.8612    1.0904   21.9296 C   0  0  0  0  0  0  0  0  0  0  0  0
    7.6812    0.4732   17.5382 N   0  0  0  0  0  0  0  0  0  0  0  0
   10.4229   -0.6994   22.6620 N   0  0  0  0  0  0  0  0  0  0  0  0
    8.2312    0.0249   21.1478 N   0  0  3  0  0  0  0  0  0  0  0  0
   10.0535   -2.8417   21.7382 O   0  0  0  0  0  0  0  0  0  0  0  0
  1  2  1  0  0  0  0
  1  3  2  0  0  0  0
  2  5  2  0  0  0  0
  3  6  1  0  0  0  0
  4  7  2  0  0  0  0
  4  8  1  0  0  0  0
  5 10  1  0  0  0  0
  6 10  2  0  0  0  0
  7 11  1  0  0  0  0
  8 16  2  0  0  0  0
  9 11  2  0  0  0  0
  9 16  1  0  0  0  0
 10 17  1  0  0  0  0
 11 18  1  0  0  0  0
 12 13  1  0  0  0  0
 12 17  1  0  0  0  0
 12 19  2  0  0  0  0
 13 18  1  0  0  0  0
 14 15  1  0  0  0  0
 14 17  1  0  0  0  0
 15 18  1  0  0  0  0
M  END

> <original SMILES>

O=C1CN(c2cccnc2)CCN1c1ccccc1

> <ref_mols>

x0434_0

> <ref_pdb>

receptors/protein-0387.pdb

> <Chemgauss4>

-6.14447593688965

> <binding_free_energy>

-1.936748099250586

> <binding_std_error>

3.731725204301608

$$$$
ALV-UNI-7ff1a6f9-15
  -OEChem-05122002103D

 27 31  0     0  0  0  0  0  0999 V2000
    6.4702   -5.2087   25.2349 C   0  0  0  0  0  0  0  0  0  0  0  0
    7.5166   -4.3106   25.0168 C   0  0  0  0  0  0  0  0  0  0  0  0
    6.8852   -1.9317   22.1046 C   0  0  0  0  0  0  0  0  0  0  0  0
    8.5418   -1.1340   20.5373 C   0  0  0  0  0  0  0  0  0  0  0  0
    5.9687   -6.0022   24.1979 C   0  0  0  0  0  0  0  0  0  0  0  0
    5.8699   -1.5015   21.2504 C   0  0  0  0  0  0  0  0  0  0  0  0
    7.5265   -0.7038   19.6830 C   0  0  0  0  0  0  0  0  0  0  0  0
    7.8936   -5.1351   21.3266 C   0  0  0  0  0  0  0  0  0  0  0  0
    7.6051   -4.9659   22.6978 C   0  0  0  0  0  0  0  0  0  0  0  0
    8.2212   -1.7479   21.7481 C   0  0  0  0  0  0  0  0  0  0  0  0
    8.0981   -4.1758   23.7498 C   0  0  0  0  0  0  0  0  0  0  0  0
    6.5622   -5.8523   22.9426 C   0  0  0  0  0  0  0  0  0  0  0  0
    6.1905   -0.8876   20.0396 C   0  0  0  0  0  0  0  0  0  0  0  0
    9.2636   -2.1894   22.6253 C   0  0  0  0  0  0  0  0  0  0  0  0
    9.1835   -3.2545   23.4912 C   0  0  0  0  0  0  0  0  0  0  0  0
   11.1634   -2.2592   23.6028 C   0  0  0  0  0  0  0  0  0  0  0  0
   12.4865   -2.1066   24.1125 C   0  0  0  0  0  0  0  0  0  0  0  0
   12.1091   -4.0342   25.5683 C   0  0  0  0  0  0  0  0  0  0  0  0
   10.8626   -4.1823   25.0915 C   0  0  0  0  0  0  0  0  0  0  0  0
   12.9516   -2.9535   25.0570 C   0  0  0  0  0  0  0  0  0  0  0  0
   14.3300   -2.8446   25.6330 C   0  0  0  0  0  0  0  0  0  0  0  0
    7.1113   -6.0444   20.7407 N   0  0  0  0  0  0  0  0  0  0  0  0
   10.4896   -1.5780   22.6985 N   0  0  0  0  0  0  0  0  0  0  0  0
    6.3170   -6.4606   21.7411 N   0  0  0  0  0  0  0  0  0  0  0  0
   10.4012   -3.3013   24.1199 N   0  0  0  0  0  0  0  0  0  0  0  0
    5.2154   -0.4745   19.2193 F   0  0  0  0  0  0  0  0  0  0  0  0
    5.6224   -7.1682   21.5368 H   0  0  0  0  0  0  0  0  0  0  0  0
  1  2  2  0  0  0  0
  1  5  1  0  0  0  0
  2 11  1  0  0  0  0
  3  6  2  0  0  0  0
  3 10  1  0  0  0  0
  4  7  1  0  0  0  0
  4 10  2  0  0  0  0
  5 12  2  0  0  0  0
  6 13  1  0  0  0  0
  7 13  2  0  0  0  0
  8  9  1  0  0  0  0
  8 22  2  0  0  0  0
  9 11  2  0  0  0  0
  9 12  1  0  0  0  0
 10 14  1  0  0  0  0
 11 15  1  0  0  0  0
 12 24  1  0  0  0  0
 13 26  1  0  0  0  0
 14 15  2  0  0  0  0
 14 23  1  0  0  0  0
 15 25  1  0  0  0  0
 16 17  1  0  0  0  0
 16 23  2  0  0  0  0
 16 25  1  0  0  0  0
 17 20  2  0  0  0  0
 18 19  2  0  0  0  0
 18 20  1  0  0  0  0
 19 25  1  0  0  0  0
 20 21  1  0  0  0  0
 22 24  1  0  0  0  0
 24 27  1  0  0  0  0
M  END

> <original SMILES>

Cc1ccn2c(-c3cccc4[nH]ncc34)c(-c3ccc(F)cc3)nc2c1

> <ref_mols>

x0395_0,x0426_0,x0434_0,x0540_0,x0678_0,x0830_0,x1093_0

> <ref_pdb>

receptors/Mpro-x0830-protein.pdb

> <Chemgauss4>

-3.270305

> <binding_free_energy>

-1.8974835669387744

> <binding_std_error>

2.3083820236689374

$$$$
DAR-DIA-43a5904b-3
  -OEChem-05122002103D

 24 26  0     1  0  0  0  0  0999 V2000
   13.3869   -1.6065   21.3551 C   0  0  0  0  0  0  0  0  0  0  0  0
    5.6895    1.3803   19.1670 C   0  0  0  0  0  0  0  0  0  0  0  0
   12.0169   -1.5313   21.6063 C   0  0  0  0  0  0  0  0  0  0  0  0
    5.8621    0.4594   20.1944 C   0  0  0  0  0  0  0  0  0  0  0  0
   14.2892   -1.6556   22.4177 C   0  0  0  0  0  0  0  0  0  0  0  0
   12.4515   -1.5543   23.9828 C   0  0  0  0  0  0  0  0  0  0  0  0
    6.3641    1.1586   17.9772 C   0  0  0  0  0  0  0  0  0  0  0  0
    7.3219   -0.7709   18.7761 C   0  0  0  0  0  0  0  0  0  0  0  0
   11.5492   -1.5052   22.9202 C   0  0  0  0  0  0  0  0  0  0  0  0
    6.6923   -0.6395   20.0033 C   0  0  0  0  0  0  0  0  0  0  0  0
   13.8215   -1.6295   23.7316 C   0  0  0  0  0  0  0  0  0  0  0  0
    9.1532   -2.0493   22.1729 C   0  0  0  0  0  0  0  0  0  0  0  0
    8.0431   -1.3250   21.9863 C   0  0  0  0  0  0  0  0  0  0  0  0
   10.2192    1.0259   22.4772 C   0  0  0  0  0  0  0  0  0  0  0  0
    8.0342   -0.0908   22.8368 C   0  0  0  0  0  0  0  0  0  0  0  0
   10.0630   -1.4230   23.1915 C   0  0  2  0  0  0  0  0  0  0  0  0
    9.4907    0.0085   23.3151 C   0  0  1  0  0  0  0  0  0  0  0  0
    6.8997   -1.6563   21.0979 C   0  0  0  0  0  0  0  0  0  0  0  0
    7.1788    0.1030   17.7545 N   0  0  0  0  0  0  0  0  0  0  0  0
   11.2458    1.6567   23.1392 N   0  0  0  0  0  0  0  0  0  0  0  0
    9.9177    1.2436   21.3063 O   0  0  0  0  0  0  0  0  0  0  0  0
   15.1658   -1.7048   25.3142 I   0  0  0  0  0  0  0  0  0  0  0  0
   11.4319    1.4030   24.1039 H   0  0  0  0  0  0  0  0  0  0  0  0
   11.8251    2.3660   22.7017 H   0  0  0  0  0  0  0  0  0  0  0  0
  1  3  2  0  0  0  0
  1  5  1  0  0  0  0
  2  4  2  0  0  0  0
  2  7  1  0  0  0  0
  3  9  1  0  0  0  0
  4 10  1  0  0  0  0
  5 11  2  0  0  0  0
  6  9  2  0  0  0  0
  6 11  1  0  0  0  0
  7 19  2  0  0  0  0
  8 10  2  0  0  0  0
  8 19  1  0  0  0  0
  9 16  1  0  0  0  0
 10 18  1  0  0  0  0
 11 22  1  0  0  0  0
 12 13  2  0  0  0  0
 12 16  1  0  0  0  0
 13 15  1  0  0  0  0
 13 18  1  0  0  0  0
 14 17  1  0  0  0  0
 14 20  1  0  0  0  0
 14 21  2  0  0  0  0
 15 17  1  0  0  0  0
 16 17  1  0  0  0  0
 20 23  1  0  0  0  0
 20 24  1  0  0  0  0
M  END

> <original SMILES>

NC(=O)[C@H]1CC(Cc2cccnc2)=C[C@H]1c1cccc(I)c1

> <ref_mols>

x0874_0

> <ref_pdb>

receptors/Mpro-x0874_0.pdb

> <Chemgauss4>

-9.505714

> <binding_free_energy>

-1.84127791527035

> <binding_std_error>

2.8435356603879347

$$$$
KIM-UNI-7d12df64-2
  -OEChem-05122002103D

 23 24  0     0  0  0  0  0  0999 V2000
   14.6750   -0.5074   22.1555 C   0  0  0  0  0  0  0  0  0  0  0  0
   13.1949    0.7639   23.6298 C   0  0  0  0  0  0  0  0  0  0  0  0
   11.9465    0.9580   24.2209 C   0  0  0  0  0  0  0  0  0  0  0  0
   12.3499   -1.1893   22.4862 C   0  0  0  0  0  0  0  0  0  0  0  0
   13.3966   -0.3097   22.7624 C   0  0  0  0  0  0  0  0  0  0  0  0
   11.1015   -0.9953   23.0774 C   0  0  0  0  0  0  0  0  0  0  0  0
   10.8998    0.0783   23.9447 C   0  0  0  0  0  0  0  0  0  0  0  0
    6.0888   -0.9160   18.9734 C   0  0  0  0  0  0  0  0  0  0  0  0
    6.4722   -1.5245   21.3406 C   0  0  0  0  0  0  0  0  0  0  0  0
    7.9494    0.1676   20.3268 C   0  0  0  0  0  0  0  0  0  0  0  0
    7.6759   -2.2761   21.8899 C   0  0  0  0  0  0  0  0  0  0  0  0
    9.1761   -0.5580   20.8629 C   0  0  0  0  0  0  0  0  0  0  0  0
    6.0088    0.2830   18.0624 C   0  0  0  0  0  0  0  0  0  0  0  0
    8.7811    2.4777   24.0179 C   0  0  0  0  0  0  0  0  0  0  0  0
    9.9934   -1.9568   22.7631 C   0  0  0  0  0  0  0  0  0  0  0  0
    9.2468    1.5541   25.0916 C   0  0  0  0  0  0  0  0  0  0  0  0
   15.7132   -0.6681   21.6625 N   0  0  0  0  0  0  0  0  0  0  0  0
    6.8296   -0.7621   20.1443 N   0  0  0  0  0  0  0  0  0  0  0  0
    9.6421    0.2918   24.5503 N   0  0  0  0  0  0  0  0  0  0  0  0
    8.8021   -1.2954   22.1292 N   0  3  0  0  0  0  0  0  0  0  0  0
    5.5117   -1.9577   18.6510 O   0  0  0  0  0  0  0  0  0  0  0  0
    9.0199   -0.4924   24.5901 H   0  0  0  0  0  0  0  0  0  0  0  0
    8.4628   -0.5953   22.8033 H   0  0  0  0  0  0  0  0  0  0  0  0
  1  5  1  0  0  0  0
  1 17  3  0  0  0  0
  2  3  2  0  0  0  0
  2  5  1  0  0  0  0
  3  7  1  0  0  0  0
  4  5  2  0  0  0  0
  4  6  1  0  0  0  0
  6  7  2  0  0  0  0
  6 15  1  0  0  0  0
  7 19  1  0  0  0  0
  8 13  1  0  0  0  0
  8 18  1  0  0  0  0
  8 21  2  0  0  0  0
  9 11  1  0  0  0  0
  9 18  1  0  0  0  0
 10 12  1  0  0  0  0
 10 18  1  0  0  0  0
 11 20  1  0  0  0  0
 12 20  1  0  0  0  0
 14 16  1  0  0  0  0
 15 20  1  0  0  0  0
 16 19  1  0  0  0  0
 19 22  1  0  0  0  0
 20 23  1  0  0  0  0
M  CHG  1  20   1
M  END

> <original SMILES>

CCNc1ccc(C#N)cc1CN1CCN(C(C)=O)CC1

> <ref_mols>

x0305_0,x0770_0

> <ref_pdb>

receptors/protein-0387.pdb

> <Chemgauss4>

-4.83825445175171

> <binding_free_energy>

-1.7859719651126618

> <binding_std_error>

7.92091440915803

$$$$
SEB-HKI-06b43755-1
  -OEChem-05122002103D

 25 28  0     0  0  0  0  0  0999 V2000
   14.2332   -0.9414   24.4221 C   0  0  0  0  0  0  0  0  0  0  0  0
   14.5639   -1.7645   23.3431 C   0  0  0  0  0  0  0  0  0  0  0  0
    8.2684    2.0002   22.8070 C   0  0  0  0  0  0  0  0  0  0  0  0
   13.0558   -0.1830   24.4166 C   0  0  0  0  0  0  0  0  0  0  0  0
   13.7331   -1.8601   22.2219 C   0  0  0  0  0  0  0  0  0  0  0  0
    7.1459    2.8142   22.9695 C   0  0  0  0  0  0  0  0  0  0  0  0
    6.3011    2.1358   20.7990 C   0  0  0  0  0  0  0  0  0  0  0  0
    9.0290   -0.1078   19.9361 C   0  0  0  0  0  0  0  0  0  0  0  0
    8.4155    1.2409   21.6272 C   0  0  0  0  0  0  0  0  0  0  0  0
    9.4102    0.3445   21.1743 C   0  0  0  0  0  0  0  0  0  0  0  0
   12.2094   -0.2668   23.2981 C   0  0  0  0  0  0  0  0  0  0  0  0
   12.5659   -1.0959   22.2382 C   0  0  0  0  0  0  0  0  0  0  0  0
    7.4320    1.3133   20.6308 C   0  0  0  0  0  0  0  0  0  0  0  0
    6.1764    2.8792   21.9773 C   0  0  0  0  0  0  0  0  0  0  0  0
   10.6444   -0.0669   21.8593 C   0  0  0  0  0  0  0  0  0  0  0  0
    7.1223    0.2492   18.3799 C   0  0  0  0  0  0  0  0  0  0  0  0
    5.6292    0.3696   18.4583 C   0  0  0  0  0  0  0  0  0  0  0  0
   11.0130    0.3639   23.0449 N   0  0  0  0  0  0  0  0  0  0  0  0
   11.5470   -0.9483   21.3324 N   0  0  0  0  0  0  0  0  0  0  0  0
    7.8236    0.4711   19.5818 N   0  0  0  0  0  0  0  0  0  0  0  0
    7.7318   -0.0240   17.3557 O   0  0  0  0  0  0  0  0  0  0  0  0
    5.0867    3.6799   22.1520 O   0  0  0  0  0  0  0  0  0  0  0  0
    4.9641   -0.6961   17.2222 Cl  0  0  0  0  0  0  0  0  0  0  0  0
   11.4787   -1.4107   20.4354 H   0  0  0  0  0  0  0  0  0  0  0  0
    4.5022    3.6214   21.3806 H   0  0  0  0  0  0  0  0  0  0  0  0
  1  2  1  0  0  0  0
  1  4  2  0  0  0  0
  2  5  2  0  0  0  0
  3  6  2  0  0  0  0
  3  9  1  0  0  0  0
  4 11  1  0  0  0  0
  5 12  1  0  0  0  0
  6 14  1  0  0  0  0
  7 13  1  0  0  0  0
  7 14  2  0  0  0  0
  8 10  2  0  0  0  0
  8 20  1  0  0  0  0
  9 10  1  0  0  0  0
  9 13  2  0  0  0  0
 10 15  1  0  0  0  0
 11 12  2  0  0  0  0
 11 18  1  0  0  0  0
 12 19  1  0  0  0  0
 13 20  1  0  0  0  0
 14 22  1  0  0  0  0
 15 18  2  0  0  0  0
 15 19  1  0  0  0  0
 16 17  1  0  0  0  0
 16 20  1  0  0  0  0
 16 21  2  0  0  0  0
 17 23  1  0  0  0  0
 19 24  1  0  0  0  0
 22 25  1  0  0  0  0
M  END

> <original SMILES>

O=C(CCl)n1cc(-c2nc3ccccc3[nH]2)c2ccc(O)cc21

> <ref_mols>

x0749_0

> <ref_pdb>

receptors/Mpro-x0749-protein.pdb

> <Chemgauss4>

-9.894827

> <binding_free_energy>

-1.7693655799999992

> <binding_std_error>

2.2832560240192894

$$$$
ANT-DIA-045cfdc4-5
  -OEChem-05122002103D

 21 23  0     1  0  0  0  0  0999 V2000
    6.0441    0.1593   19.6706 C   0  0  0  0  0  0  0  0  0  0  0  0
    7.0316    0.4143   20.6157 C   0  0  0  0  0  0  0  0  0  0  0  0
    9.8959   -2.8741   24.0794 C   0  0  0  0  0  0  0  0  0  0  0  0
    6.4201    0.1049   18.3382 C   0  0  0  0  0  0  0  0  0  0  0  0
    8.6194    0.5298   18.8488 C   0  0  0  0  0  0  0  0  0  0  0  0
    8.7811   -2.5023   24.7981 C   0  0  0  0  0  0  0  0  0  0  0  0
   10.5333   -0.7771   24.8529 C   0  0  0  0  0  0  0  0  0  0  0  0
   10.9111   -1.8749   24.1112 C   0  0  0  0  0  0  0  0  0  0  0  0
    8.3464    0.6043   20.2052 C   0  0  0  0  0  0  0  0  0  0  0  0
   11.6079   -0.1893   21.7648 C   0  0  0  0  0  0  0  0  0  0  0  0
   14.5203   -1.3935   22.9458 C   0  0  0  0  0  0  0  0  0  0  0  0
   13.4497   -1.2782   24.0224 C   0  0  0  0  0  0  0  0  0  0  0  0
   13.7721   -1.3953   21.6114 C   0  0  0  0  0  0  0  0  0  0  0  0
   12.2462   -2.0057   23.4110 C   0  0  2  0  0  0  0  0  0  0  0  0
   12.2816   -1.5213   21.9483 C   0  0  1  0  0  0  0  0  0  0  0  0
    9.4354    0.8807   21.2011 C   0  0  0  0  0  0  0  0  0  0  0  0
    7.6869    0.2842   17.9013 N   0  0  0  0  0  0  0  0  0  0  0  0
   10.2719   -0.2769   21.4230 N   0  0  0  0  0  0  0  0  0  0  0  0
   12.2526    0.8407   21.9233 O   0  0  0  0  0  0  0  0  0  0  0  0
    8.9607   -0.9540   25.5071 S   0  0  0  0  0  0  0  0  0  0  0  0
    9.8580   -1.1989   21.3229 H   0  0  0  0  0  0  0  0  0  0  0  0
  1  2  2  0  0  0  0
  1  4  1  0  0  0  0
  2  9  1  0  0  0  0
  3  6  2  0  0  0  0
  3  8  1  0  0  0  0
  4 17  2  0  0  0  0
  5  9  2  0  0  0  0
  5 17  1  0  0  0  0
  6 20  1  0  0  0  0
  7  8  2  0  0  0  0
  7 20  1  0  0  0  0
  8 14  1  0  0  0  0
  9 16  1  0  0  0  0
 10 15  1  0  0  0  0
 10 18  1  0  0  0  0
 10 19  2  0  0  0  0
 11 12  1  0  0  0  0
 11 13  1  0  0  0  0
 12 14  1  0  0  0  0
 13 15  1  0  0  0  0
 14 15  1  0  0  0  0
 16 18  1  0  0  0  0
 18 21  1  0  0  0  0
M  END

> <original SMILES>

O=C(NCc1cccnc1)[C@H]1CCC[C@H]1c1ccsc1

> <ref_mols>

x0874_0

> <ref_pdb>

receptors/Mpro-x0874-protein.pdb

> <Chemgauss4>

-5.325091

> <binding_free_energy>

-1.754542824001561

> <binding_std_error>

3.808950459200602

$$$$
WAR-XCH-b6889685-3
  -OEChem-05122002103D

 26 28  0     1  0  0  0  0  0999 V2000
    7.5891    6.2842   22.9756 C   0  0  0  0  0  0  0  0  0  0  0  0
    9.9997   -1.7538   25.1311 C   0  0  0  0  0  0  0  0  0  0  0  0
   10.0800   -1.1216   22.8006 C   0  0  0  0  0  0  0  0  0  0  0  0
    9.1170   -2.7880   24.8201 C   0  0  0  0  0  0  0  0  0  0  0  0
    9.1972   -2.1558   22.4897 C   0  0  0  0  0  0  0  0  0  0  0  0
    8.7142    5.4403   22.7474 C   0  0  0  0  0  0  0  0  0  0  0  0
    7.8419    7.2339   23.9410 C   0  0  0  0  0  0  0  0  0  0  0  0
   10.4812   -0.9205   24.1213 C   0  0  0  0  0  0  0  0  0  0  0  0
    8.7157   -2.9891   23.4994 C   0  0  0  0  0  0  0  0  0  0  0  0
    9.7844    5.7773   23.5468 C   0  0  0  0  0  0  0  0  0  0  0  0
   10.6310    2.4421   24.5579 C   0  0  0  0  0  0  0  0  0  0  0  0
   12.1712    1.6453   22.7130 C   0  0  0  0  0  0  0  0  0  0  0  0
   11.0047    1.1912   25.3540 C   0  0  0  0  0  0  0  0  0  0  0  0
   12.5017    0.4103   23.5579 C   0  0  0  0  0  0  0  0  0  0  0  0
   11.7632    2.8389   23.5942 C   0  0  0  0  0  0  0  0  0  0  0  0
   12.0730    5.6500   24.4987 C   0  0  0  0  0  0  0  0  0  0  0  0
   11.3514    4.0321   22.7352 C   0  0  0  0  0  0  0  0  0  0  0  0
   11.3616    0.1110   24.4309 N   0  0  0  0  0  0  0  0  0  0  0  0
    6.1070   -3.4873   23.2728 N   0  0  0  0  0  0  0  0  0  0  0  0
   11.0470    5.1453   23.5698 N   0  0  3  0  0  0  0  0  0  0  0  0
    7.8009   -4.6444   21.7117 O   0  0  0  0  0  0  0  0  0  0  0  0
    7.7123   -5.3054   24.1413 O   0  0  0  0  0  0  0  0  0  0  0  0
    9.4305    7.1060   24.5675 S   0  0  0  0  0  0  0  0  0  0  0  0
    7.6103   -4.2829   23.1094 S   0  0  0  0  0  0  0  0  0  0  0  0
    5.5762   -3.2796   22.4181 H   0  0  0  0  0  0  0  0  0  0  0  0
    5.5180   -3.7305   24.0785 H   0  0  0  0  0  0  0  0  0  0  0  0
  1  6  1  0  0  0  0
  1  7  2  0  0  0  0
  2  4  2  0  0  0  0
  2  8  1  0  0  0  0
  3  5  1  0  0  0  0
  3  8  2  0  0  0  0
  4  9  1  0  0  0  0
  5  9  2  0  0  0  0
  6 10  2  0  0  0  0
  7 23  1  0  0  0  0
  8 18  1  0  0  0  0
  9 24  1  0  0  0  0
 10 20  1  0  0  0  0
 10 23  1  0  0  0  0
 11 13  1  0  0  0  0
 11 15  1  0  0  0  0
 12 14  1  0  0  0  0
 12 15  1  0  0  0  0
 13 18  1  0  0  0  0
 14 18  1  0  0  0  0
 15 17  1  0  0  0  0
 16 20  1  0  0  0  0
 17 20  1  0  0  0  0
 19 24  1  0  0  0  0
 21 24  2  0  0  0  0
 22 24  2  0  0  0  0
 19 25  1  0  0  0  0
 19 26  1  0  0  0  0
M  END

> <original SMILES>

CN(CC1CCN(c2ccc(S(N)(=O)=O)cc2)CC1)c1cccs1

> <ref_mols>

x0072_0,x0104_0,x0107_0,x0161_0,x0165_0

> <ref_pdb>

receptors/Mpro-x0104-protein.pdb

> <Chemgauss4>

-8.388055

> <binding_free_energy>

-1.6728171305050452

> <binding_std_error>

2.336201235689557

$$$$
TRY-UNI-714a760b-11
  -OEChem-05122002103D

 19 20  0     0  0  0  0  0  0999 V2000
    5.6847    1.1650   19.3453 C   0  0  0  0  0  0  0  0  0  0  0  0
    6.1555    0.9124   18.0669 C   0  0  0  0  0  0  0  0  0  0  0  0
    8.1764    0.1634   18.8625 C   0  0  0  0  0  0  0  0  0  0  0  0
    6.5290    0.8916   20.4156 C   0  0  0  0  0  0  0  0  0  0  0  0
    7.8004    0.3812   20.1782 C   0  0  0  0  0  0  0  0  0  0  0  0
   10.0923    0.1321   21.2105 C   0  0  0  0  0  0  0  0  0  0  0  0
   14.4509   -1.7806   23.5669 C   0  0  0  0  0  0  0  0  0  0  0  0
   13.7566   -0.8156   24.5238 C   0  0  0  0  0  0  0  0  0  0  0  0
   14.2213   -1.3910   22.1093 C   0  0  0  0  0  0  0  0  0  0  0  0
   12.2682   -0.6809   24.2069 C   0  0  0  0  0  0  0  0  0  0  0  0
   12.7334   -1.2577   21.7896 C   0  0  0  0  0  0  0  0  0  0  0  0
   12.0427   -0.2786   22.7453 C   0  0  0  0  0  0  0  0  0  0  0  0
    6.0473    1.1550   21.8046 C   0  0  0  0  0  0  0  0  0  0  0  0
    7.3840    0.4169   17.7969 N   0  0  0  0  0  0  0  0  0  0  0  0
    8.6956    0.0866   21.2330 N   0  0  0  0  0  0  0  0  0  0  0  0
   10.6103   -0.2314   22.4584 N   0  0  0  0  0  0  0  0  0  0  0  0
   10.7999    0.4413   20.2548 O   0  0  0  0  0  0  0  0  0  0  0  0
    8.2661   -0.1906   22.1121 H   0  0  0  0  0  0  0  0  0  0  0  0
    9.9602   -0.4738   23.2000 H   0  0  0  0  0  0  0  0  0  0  0  0
  1  2  2  0  0  0  0
  1  4  1  0  0  0  0
  2 14  1  0  0  0  0
  3  5  1  0  0  0  0
  3 14  2  0  0  0  0
  4  5  2  0  0  0  0
  4 13  1  0  0  0  0
  5 15  1  0  0  0  0
  6 15  1  0  0  0  0
  6 16  1  0  0  0  0
  6 17  2  0  0  0  0
  7  8  1  0  0  0  0
  7  9  1  0  0  0  0
  8 10  1  0  0  0  0
  9 11  1  0  0  0  0
 10 12  1  0  0  0  0
 11 12  1  0  0  0  0
 12 16  1  0  0  0  0
 15 18  1  0  0  0  0
 16 19  1  0  0  0  0
M  END

> <original SMILES>

Cc1ccncc1NC(=O)NC1CCCCC1

> <ref_mols>

x0107_0,x0434_0,x0678_0,x0748_0,x0995_0,x1382_0

> <ref_pdb>

receptors/Mpro-x0107-protein.pdb

> <Chemgauss4>

-9.373429

> <binding_free_energy>

-1.6325834000000121

> <binding_std_error>

2.514147964465958

$$$$
JOH-MSK-35a8745a-1
  -OEChem-05122002103D

 19 20  0     0  0  0  0  0  0999 V2000
   10.7268   -0.2504   23.9310 C   0  0  0  0  0  0  0  0  0  0  0  0
   11.7849   -0.8493   23.2412 C   0  0  0  0  0  0  0  0  0  0  0  0
   12.8509    1.3042   22.8900 C   0  0  0  0  0  0  0  0  0  0  0  0
   10.3060    3.2810   24.6152 C   0  0  0  0  0  0  0  0  0  0  0  0
   11.7950    1.9302   23.5818 C   0  0  0  0  0  0  0  0  0  0  0  0
   11.4955    3.2786   23.9239 C   0  0  0  0  0  0  0  0  0  0  0  0
   10.7594    1.1400   24.0853 C   0  0  0  0  0  0  0  0  0  0  0  0
   12.8316   -0.0859   22.7280 C   0  0  0  0  0  0  0  0  0  0  0  0
    9.2671    6.6294   23.3799 C   0  0  0  0  0  0  0  0  0  0  0  0
    8.1507    6.5924   22.3897 C   0  0  0  0  0  0  0  0  0  0  0  0
   13.7766   -2.1162   21.9276 C   0  0  0  0  0  0  0  0  0  0  0  0
   12.3081    4.4688   23.6014 C   0  0  0  0  0  0  0  0  0  0  0  0
   11.5735    5.8057   23.8097 C   0  0  0  0  0  0  0  0  0  0  0  0
    9.8699    1.9865   24.7078 N   0  0  0  0  0  0  0  0  0  0  0  0
   10.3856    5.9028   23.0044 N   0  0  0  0  0  0  0  0  0  0  0  0
    9.1350    7.2708   24.4157 O   0  0  0  0  0  0  0  0  0  0  0  0
   13.8500   -0.6984   22.0606 O   0  0  0  0  0  0  0  0  0  0  0  0
    9.0179    1.6937   25.1659 H   0  0  0  0  0  0  0  0  0  0  0  0
   10.3656    5.4119   22.1119 H   0  0  0  0  0  0  0  0  0  0  0  0
  1  2  2  0  0  0  0
  1  7  1  0  0  0  0
  2  8  1  0  0  0  0
  3  5  1  0  0  0  0
  3  8  2  0  0  0  0
  4  6  2  0  0  0  0
  4 14  1  0  0  0  0
  5  6  1  0  0  0  0
  5  7  2  0  0  0  0
  6 12  1  0  0  0  0
  7 14  1  0  0  0  0
  8 17  1  0  0  0  0
  9 10  1  0  0  0  0
  9 15  1  0  0  0  0
  9 16  2  0  0  0  0
 11 17  1  0  0  0  0
 12 13  1  0  0  0  0
 13 15  1  0  0  0  0
 14 18  1  0  0  0  0
 15 19  1  0  0  0  0
M  END

> <original SMILES>

COc1ccc2[nH]cc(CCNC(C)=O)c2c1

> <ref_mols>

x0104_0

> <ref_pdb>

receptors/protein-0387.pdb

> <Chemgauss4>

-4.58027744293213

> <binding_free_energy>

-1.6120963765038105

> <binding_std_error>

3.1355926618196905

$$$$
MUS-SCH-c2f96c06-4
  -OEChem-05122002103D

 23 25  0     0  0  0  0  0  0999 V2000
    5.0075    0.9522   19.0851 C   0  0  0  0  0  0  0  0  0  0  0  0
   10.0111   -0.3320   22.8813 C   0  0  0  0  0  0  0  0  0  0  0  0
    7.8401   -0.8556   21.9885 C   0  0  0  0  0  0  0  0  0  0  0  0
    5.4348    0.6248   17.8083 C   0  0  0  0  0  0  0  0  0  0  0  0
   10.1941    0.5111   21.7971 C   0  0  0  0  0  0  0  0  0  0  0  0
    7.4906   -0.0571   18.5745 C   0  0  0  0  0  0  0  0  0  0  0  0
    8.6885   -3.9876   26.4001 C   0  0  0  0  0  0  0  0  0  0  0  0
    8.4662   -5.6627   24.9931 C   0  0  0  0  0  0  0  0  0  0  0  0
    7.1597    0.2385   19.8871 C   0  0  0  0  0  0  0  0  0  0  0  0
    8.8089   -1.0247   22.9715 C   0  0  0  0  0  0  0  0  0  0  0  0
    5.8924    0.7524   20.1388 C   0  0  0  0  0  0  0  0  0  0  0  0
    8.7338   -4.3161   25.0320 C   0  0  0  0  0  0  0  0  0  0  0  0
    8.1202    0.0110   20.9443 C   0  0  0  0  0  0  0  0  0  0  0  0
    8.5606   -1.9451   24.1177 C   0  0  0  0  0  0  0  0  0  0  0  0
    9.0142   -3.3973   23.8679 C   0  0  0  0  0  0  0  0  0  0  0  0
    5.4500    1.1008   21.5230 C   0  0  0  0  0  0  0  0  0  0  0  0
    6.6579    0.1235   17.5249 N   0  0  0  0  0  0  0  0  0  0  0  0
    9.2764    0.7011   20.8228 N   0  0  0  0  0  0  0  0  0  0  0  0
    8.4135   -5.0406   27.1744 N   0  0  0  0  0  0  0  0  0  0  0  0
    8.2836   -6.0440   26.2898 N   0  0  0  0  0  0  0  0  0  0  0  0
    4.5188    2.1728   21.4623 O   0  0  0  0  0  0  0  0  0  0  0  0
    8.0678   -6.9684   26.6417 H   0  0  0  0  0  0  0  0  0  0  0  0
    4.2568    2.3684   22.3764 H   0  0  0  0  0  0  0  0  0  0  0  0
  1  4  2  0  0  0  0
  1 11  1  0  0  0  0
  2  5  2  0  0  0  0
  2 10  1  0  0  0  0
  3 10  2  0  0  0  0
  3 13  1  0  0  0  0
  4 17  1  0  0  0  0
  5 18  1  0  0  0  0
  6  9  1  0  0  0  0
  6 17  2  0  0  0  0
  7 12  1  0  0  0  0
  7 19  2  0  0  0  0
  8 12  2  0  0  0  0
  8 20  1  0  0  0  0
  9 11  2  0  0  0  0
  9 13  1  0  0  0  0
 10 14  1  0  0  0  0
 11 16  1  0  0  0  0
 12 15  1  0  0  0  0
 13 18  2  0  0  0  0
 14 15  1  0  0  0  0
 16 21  1  0  0  0  0
 19 20  1  0  0  0  0
 20 22  1  0  0  0  0
 21 23  1  0  0  0  0
M  END

> <original SMILES>

OCc1ccncc1-c1cc(CCc2cn[nH]c2)ccn1

> <ref_mols>

x0107_0,x0540_0,x0995_0

> <ref_pdb>

receptors/Mpro-x0107-protein.pdb

> <Chemgauss4>

-14.695502

> <binding_free_energy>

-1.4680784079176519

> <binding_std_error>

2.303281187874345

$$$$
ALV-UNI-7ff1a6f9-3
  -OEChem-05122002103D

 23 26  0     0  0  0  0  0  0999 V2000
    7.4842   -5.0956   24.5674 C   0  0  0  0  0  0  0  0  0  0  0  0
    8.3413   -5.2095   22.3114 C   0  0  0  0  0  0  0  0  0  0  0  0
   12.9565   -1.0228   24.7295 C   0  0  0  0  0  0  0  0  0  0  0  0
   11.8256   -1.1609   23.9179 C   0  0  0  0  0  0  0  0  0  0  0  0
    6.3773   -5.8533   24.1852 C   0  0  0  0  0  0  0  0  0  0  0  0
    7.2344   -5.9673   21.9292 C   0  0  0  0  0  0  0  0  0  0  0  0
    9.8433   -1.8091   21.2638 C   0  0  0  0  0  0  0  0  0  0  0  0
    7.8945   -1.7528   22.6722 C   0  0  0  0  0  0  0  0  0  0  0  0
   12.5327   -3.1632   25.8098 C   0  0  0  0  0  0  0  0  0  0  0  0
    9.0987   -1.1496   20.2991 C   0  0  0  0  0  0  0  0  0  0  0  0
    7.2373   -1.0958   21.6446 C   0  0  0  0  0  0  0  0  0  0  0  0
    8.4662   -4.7736   23.6305 C   0  0  0  0  0  0  0  0  0  0  0  0
   13.3057   -2.0050   25.6592 C   0  0  0  0  0  0  0  0  0  0  0  0
   11.3930   -3.3183   25.0028 C   0  0  0  0  0  0  0  0  0  0  0  0
   11.0707   -2.3223   24.0852 C   0  0  0  0  0  0  0  0  0  0  0  0
    9.2223   -2.1127   22.4702 C   0  0  0  0  0  0  0  0  0  0  0  0
    6.2524   -6.2892   22.8661 C   0  0  0  0  0  0  0  0  0  0  0  0
    9.6155   -3.9877   24.0272 C   0  0  0  0  0  0  0  0  0  0  0  0
   14.5211   -1.8192   26.5063 C   0  0  0  0  0  0  0  0  0  0  0  0
    7.8071   -0.7839   20.4590 N   0  0  0  0  0  0  0  0  0  0  0  0
   10.4779   -4.3447   24.9523 N   0  0  0  0  0  0  0  0  0  0  0  0
    9.9297   -2.7769   23.4754 N   0  0  0  0  0  0  0  0  0  0  0  0
    5.1899   -7.0178   22.4991 F   0  0  0  0  0  0  0  0  0  0  0  0
  1  5  2  0  0  0  0
  1 12  1  0  0  0  0
  2  6  1  0  0  0  0
  2 12  2  0  0  0  0
  3  4  2  0  0  0  0
  3 13  1  0  0  0  0
  4 15  1  0  0  0  0
  5 17  1  0  0  0  0
  6 17  2  0  0  0  0
  7 10  2  0  0  0  0
  7 16  1  0  0  0  0
  8 11  1  0  0  0  0
  8 16  2  0  0  0  0
  9 13  2  0  0  0  0
  9 14  1  0  0  0  0
 10 20  1  0  0  0  0
 11 20  2  0  0  0  0
 12 18  1  0  0  0  0
 13 19  1  0  0  0  0
 14 15  2  0  0  0  0
 14 21  1  0  0  0  0
 15 22  1  0  0  0  0
 16 22  1  0  0  0  0
 17 23  1  0  0  0  0
 18 21  2  0  0  0  0
 18 22  1  0  0  0  0
M  END

> <original SMILES>

Cc1ccc2c(c1)nc(-c1ccc(F)cc1)n2-c1ccncc1

> <ref_mols>

x0395_0,x0426_0,x0434_0,x0540_0,x0678_0,x0830_0,x1093_0

> <ref_pdb>

receptors/Mpro-x0395-protein.pdb

> <Chemgauss4>

-5.71645

> <binding_free_energy>

-1.4015739623762542

> <binding_std_error>

2.3887599978792617

$$$$
TRY-UNI-1fd04853-5
  -OEChem-05122002103D

 23 25  0     0  0  0  0  0  0999 V2000
   12.6106    1.3741   23.8416 C   0  0  0  0  0  0  0  0  0  0  0  0
    5.3883    1.4273   18.6001 C   0  0  0  0  0  0  0  0  0  0  0  0
    5.6248    0.9296   19.8802 C   0  0  0  0  0  0  0  0  0  0  0  0
   11.4116    0.9738   24.4311 C   0  0  0  0  0  0  0  0  0  0  0  0
   13.4245    0.4345   23.2087 C   0  0  0  0  0  0  0  0  0  0  0  0
   11.8402   -1.3057   23.7550 C   0  0  0  0  0  0  0  0  0  0  0  0
    6.2782    1.1063   17.5839 C   0  0  0  0  0  0  0  0  0  0  0  0
    8.4836   -1.1891   20.7040 C   0  0  0  0  0  0  0  0  0  0  0  0
    6.7595    0.1248   20.0716 C   0  0  0  0  0  0  0  0  0  0  0  0
   11.0264   -0.3661   24.3879 C   0  0  0  0  0  0  0  0  0  0  0  0
    7.3492   -0.5586   21.1678 C   0  0  0  0  0  0  0  0  0  0  0  0
   13.0393   -0.9054   23.1654 C   0  0  0  0  0  0  0  0  0  0  0  0
    7.5671   -0.1173   18.9642 C   0  0  0  0  0  0  0  0  0  0  0  0
    7.8366   -0.0707   23.5972 C   0  0  0  0  0  0  0  0  0  0  0  0
    6.8472   -0.5935   22.5560 C   0  0  0  0  0  0  0  0  0  0  0  0
    9.7362   -0.7965   25.0237 C   0  0  0  0  0  0  0  0  0  0  0  0
    7.3849    0.3376   17.7100 N   0  0  0  0  0  0  0  0  0  0  0  0
    8.6062   -0.9144   19.3666 N   0  0  0  0  0  0  0  0  0  0  0  0
    8.7091   -1.0540   24.0417 N   0  0  0  0  0  0  0  0  0  0  0  0
    7.8386    1.0972   23.9777 O   0  0  0  0  0  0  0  0  0  0  0  0
   14.0443   -2.0643   22.3854 Cl  0  0  0  0  0  0  0  0  0  0  0  0
    9.3498   -1.2472   18.7686 H   0  0  0  0  0  0  0  0  0  0  0  0
    8.6220   -1.9918   23.6612 H   0  0  0  0  0  0  0  0  0  0  0  0
  1  4  2  0  0  0  0
  1  5  1  0  0  0  0
  2  3  2  0  0  0  0
  2  7  1  0  0  0  0
  3  9  1  0  0  0  0
  4 10  1  0  0  0  0
  5 12  2  0  0  0  0
  6 10  2  0  0  0  0
  6 12  1  0  0  0  0
  7 17  2  0  0  0  0
  8 11  2  0  0  0  0
  8 18  1  0  0  0  0
  9 11  1  0  0  0  0
  9 13  2  0  0  0  0
 10 16  1  0  0  0  0
 11 15  1  0  0  0  0
 12 21  1  0  0  0  0
 13 17  1  0  0  0  0
 13 18  1  0  0  0  0
 14 15  1  0  0  0  0
 14 19  1  0  0  0  0
 14 20  2  0  0  0  0
 16 19  1  0  0  0  0
 18 22  1  0  0  0  0
 19 23  1  0  0  0  0
M  END

> <original SMILES>

O=C(Cc1c[nH]c2ncccc12)NCc1cccc(Cl)c1

> <ref_mols>

x0104_0,x0161_0,x0195_0,x0305_0,x0387_0,x0678_0,x1382_0

> <ref_pdb>

receptors/Mpro-x1382-protein.pdb

> <Chemgauss4>

-1.901025

> <binding_free_energy>

-1.3879750233054295

> <binding_std_error>

2.893342253509022

$$$$
WAR-XCH-b72a1bbc-44
  -OEChem-05122002103D

 28 30  0     0  0  0  0  0  0999 V2000
   12.5977    2.5727   22.6941 C   0  0  0  0  0  0  0  0  0  0  0  0
   11.1053    1.7897   24.4253 C   0  0  0  0  0  0  0  0  0  0  0  0
    8.4376   -4.9411   24.1295 C   0  0  0  0  0  0  0  0  0  0  0  0
    7.2491   -2.8378   24.1054 C   0  0  0  0  0  0  0  0  0  0  0  0
    7.2259   -5.6247   24.2290 C   0  0  0  0  0  0  0  0  0  0  0  0
    6.0373   -3.5214   24.2048 C   0  0  0  0  0  0  0  0  0  0  0  0
   11.9540    3.8101   22.6989 C   0  0  0  0  0  0  0  0  0  0  0  0
   10.4617    3.0272   24.4301 C   0  0  0  0  0  0  0  0  0  0  0  0
   12.1733    1.5625   23.5573 C   0  0  0  0  0  0  0  0  0  0  0  0
    8.4493   -3.5476   24.0678 C   0  0  0  0  0  0  0  0  0  0  0  0
    6.0257   -4.9149   24.2666 C   0  0  0  0  0  0  0  0  0  0  0  0
   10.8860    4.0374   23.5668 C   0  0  0  0  0  0  0  0  0  0  0  0
   11.8375   -1.6350   22.4691 C   0  0  0  0  0  0  0  0  0  0  0  0
   12.0607   -1.4977   24.9874 C   0  0  0  0  0  0  0  0  0  0  0  0
   12.8743   -0.5164   22.3575 C   0  0  0  0  0  0  0  0  0  0  0  0
   13.0907   -0.3772   24.8091 C   0  0  0  0  0  0  0  0  0  0  0  0
   12.0314   -2.4363   23.7685 C   0  0  0  0  0  0  0  0  0  0  0  0
   10.9396   -3.4924   23.9226 C   0  0  0  0  0  0  0  0  0  0  0  0
   12.8148    0.3283   23.5530 N   0  0  0  0  0  0  0  0  0  0  0  0
    8.8608    5.3228   22.4045 N   0  0  0  0  0  0  0  0  0  0  0  0
    9.6626   -2.8632   23.9683 N   0  0  0  0  0  0  0  0  0  0  0  0
    9.4509    5.7713   24.8735 O   0  0  0  0  0  0  0  0  0  0  0  0
   11.0034    6.5909   23.0664 O   0  0  0  0  0  0  0  0  0  0  0  0
    4.8620   -5.5713   24.3621 F   0  0  0  0  0  0  0  0  0  0  0  0
   10.0793    5.5858   23.5730 S   0  0  0  0  0  0  0  0  0  0  0  0
    7.8905    5.2367   22.7309 H   0  0  0  0  0  0  0  0  0  0  0  0
    8.9531    5.7953   21.4970 H   0  0  0  0  0  0  0  0  0  0  0  0
    9.6101   -1.8421   23.9278 H   0  0  0  0  0  0  0  0  0  0  0  0
  1  7  2  0  0  0  0
  1  9  1  0  0  0  0
  2  8  1  0  0  0  0
  2  9  2  0  0  0  0
  3  5  2  0  0  0  0
  3 10  1  0  0  0  0
  4  6  1  0  0  0  0
  4 10  2  0  0  0  0
  5 11  1  0  0  0  0
  6 11  2  0  0  0  0
  7 12  1  0  0  0  0
  8 12  2  0  0  0  0
  9 19  1  0  0  0  0
 10 21  1  0  0  0  0
 11 24  1  0  0  0  0
 12 25  1  0  0  0  0
 13 15  1  0  0  0  0
 13 17  1  0  0  0  0
 14 16  1  0  0  0  0
 14 17  1  0  0  0  0
 15 19  1  0  0  0  0
 16 19  1  0  0  0  0
 17 18  1  0  0  0  0
 18 21  1  0  0  0  0
 20 25  1  0  0  0  0
 22 25  2  0  0  0  0
 23 25  2  0  0  0  0
 20 26  1  0  0  0  0
 20 27  1  0  0  0  0
 21 28  1  0  0  0  0
M  END

> <original SMILES>

NS(=O)(=O)c1ccc(N2CCC(CNc3ccc(F)cc3)CC2)cc1

> <ref_mols>

x0072_0,x0104_0,x0107_0,x0161_0,x0165_0

> <ref_pdb>

receptors/Mpro-x0165-protein.pdb

> <Chemgauss4>

-0.371581

> <binding_free_energy>

-1.3151405618181826

> <binding_std_error>

2.278324343684815

$$$$
ANT-DIA-045cfdc4-1
  -OEChem-05122002103D

 15 16  0     1  0  0  0  0  0999 V2000
   11.1405    0.9473   24.3786 C   0  0  0  0  0  0  0  0  0  0  0  0
   10.2065    1.9409   24.1838 C   0  0  0  0  0  0  0  0  0  0  0  0
   11.9862    2.0003   22.4871 C   0  0  0  0  0  0  0  0  0  0  0  0
   12.1716    0.9817   23.3959 C   0  0  0  0  0  0  0  0  0  0  0  0
   11.5632   -1.7463   22.7313 C   0  0  0  0  0  0  0  0  0  0  0  0
   14.3137   -0.9993   21.3581 C   0  0  0  0  0  0  0  0  0  0  0  0
   14.3677    0.2440   22.2329 C   0  0  0  0  0  0  0  0  0  0  0  0
   13.9821   -2.1123   22.3404 C   0  0  0  0  0  0  0  0  0  0  0  0
   13.3334    0.0109   23.3563 C   0  0  2  0  0  0  0  0  0  0  0  0
   12.9426   -1.4850   23.2684 C   0  0  1  0  0  0  0  0  0  0  0  0
    9.1961   -2.0913   23.4098 C   0  0  0  0  0  0  0  0  0  0  0  0
   10.5890   -1.8449   23.7063 N   0  0  0  0  0  0  0  0  0  0  0  0
   11.3953   -1.8493   21.5217 O   0  0  0  0  0  0  0  0  0  0  0  0
   10.5740    2.9097   22.8204 S   0  0  0  0  0  0  0  0  0  0  0  0
   10.8651   -1.7391   24.6779 H   0  0  0  0  0  0  0  0  0  0  0  0
  1  2  2  0  0  0  0
  1  4  1  0  0  0  0
  2 14  1  0  0  0  0
  3  4  2  0  0  0  0
  3 14  1  0  0  0  0
  4  9  1  0  0  0  0
  5 10  1  0  0  0  0
  5 12  1  0  0  0  0
  5 13  2  0  0  0  0
  6  7  1  0  0  0  0
  6  8  1  0  0  0  0
  7  9  1  0  0  0  0
  8 10  1  0  0  0  0
  9 10  1  0  0  0  0
 11 12  1  0  0  0  0
 12 15  1  0  0  0  0
M  END

> <original SMILES>

CNC(=O)[C@H]1CCC[C@H]1c1ccsc1

> <ref_mols>

x0874_0

> <ref_pdb>

receptors/protein-0387.pdb

> <Chemgauss4>

-4.89860916137695

> <binding_free_energy>

-1.2786814024000233

> <binding_std_error>

3.5530317905504907

$$$$
MAK-UNK-6435e6c2-10
  -OEChem-05122002103D

 17 18  0     0  0  0  0  0  0999 V2000
   11.7975   -0.7837   24.6064 C   0  0  0  0  0  0  0  0  0  0  0  0
   13.1704   -0.6777   24.5666 C   0  0  0  0  0  0  0  0  0  0  0  0
   12.2680   -1.7545   22.5476 C   0  0  0  0  0  0  0  0  0  0  0  0
   11.2747   -1.4076   23.4369 C   0  0  0  0  0  0  0  0  0  0  0  0
    7.2054   -5.4300   26.9557 C   0  0  0  0  0  0  0  0  0  0  0  0
    8.9418   -3.5923   26.6743 C   0  0  0  0  0  0  0  0  0  0  0  0
    8.5071   -5.2050   24.8628 C   0  0  0  0  0  0  0  0  0  0  0  0
    8.8577   -2.4430   25.6744 C   0  0  0  0  0  0  0  0  0  0  0  0
    8.4183   -4.0619   23.8579 C   0  0  0  0  0  0  0  0  0  0  0  0
    6.0749   -6.0646   26.1858 C   0  0  0  0  0  0  0  0  0  0  0  0
    8.1613   -4.7443   26.2082 N   0  0  0  0  0  0  0  0  0  0  0  0
    9.2716   -2.9269   24.3226 N   0  0  0  0  0  0  0  0  0  0  0  0
    7.2378   -5.5436   28.1836 O   0  0  0  0  0  0  0  0  0  0  0  0
    8.8356   -0.5068   23.5488 O   0  0  0  0  0  0  0  0  0  0  0  0
    9.4068   -2.2646   21.8366 O   0  0  0  0  0  0  0  0  0  0  0  0
   13.8234   -1.3286   23.1236 S   0  0  0  0  0  0  0  0  0  0  0  0
    9.5560   -1.7001   23.1606 S   0  0  0  0  0  0  0  0  0  0  0  0
  1  2  2  0  0  0  0
  1  4  1  0  0  0  0
  2 16  1  0  0  0  0
  3  4  2  0  0  0  0
  3 16  1  0  0  0  0
  4 17  1  0  0  0  0
  5 10  1  0  0  0  0
  5 11  1  0  0  0  0
  5 13  2  0  0  0  0
  6  8  1  0  0  0  0
  6 11  1  0  0  0  0
  7  9  1  0  0  0  0
  7 11  1  0  0  0  0
  8 12  1  0  0  0  0
  9 12  1  0  0  0  0
 12 17  1  0  0  0  0
 14 17  2  0  0  0  0
 15 17  2  0  0  0  0
M  END

> <original SMILES>

CC(=O)N1CCN(S(=O)(=O)c2ccsc2)CC1

> <ref_mols>

x0689_0

> <ref_pdb>

receptors/Mpro-x0689-protein.pdb

> <Chemgauss4>

-2.380683

> <binding_free_energy>

-1.2620936792052078

> <binding_std_error>

2.2978156390967146

$$$$
JON-UIO-066ce08b-3
  -OEChem-05122002103D

 18 19  0     0  0  0  0  0  0999 V2000
    5.2205    0.7822   20.3387 C   0  0  0  0  0  0  0  0  0  0  0  0
    4.8311    1.1907   19.0680 C   0  0  0  0  0  0  0  0  0  0  0  0
    6.4628    0.1848   20.5206 C   0  0  0  0  0  0  0  0  0  0  0  0
    5.7134    0.9809   18.0205 C   0  0  0  0  0  0  0  0  0  0  0  0
    7.2720    0.0198   19.4081 C   0  0  0  0  0  0  0  0  0  0  0  0
    8.7582   -4.5935   24.6719 C   0  0  0  0  0  0  0  0  0  0  0  0
    9.2144   -0.3618   20.9295 C   0  0  0  0  0  0  0  0  0  0  0  0
    7.6665   -3.1693   22.9720 C   0  0  0  0  0  0  0  0  0  0  0  0
    9.8752   -2.4663   23.8926 C   0  0  0  0  0  0  0  0  0  0  0  0
    8.1429   -2.5240   21.6754 C   0  0  0  0  0  0  0  0  0  0  0  0
    9.4769   -1.1367   23.2617 C   0  0  0  0  0  0  0  0  0  0  0  0
    9.9444   -4.7968   25.5828 C   0  0  0  0  0  0  0  0  0  0  0  0
    8.6186   -0.6211   19.5672 C   0  0  0  0  0  0  0  0  0  0  0  0
    6.9282    0.4039   18.1583 N   0  0  0  0  0  0  0  0  0  0  0  0
    8.7815   -3.4453   23.8789 N   0  0  0  0  0  0  0  0  0  0  0  0
    8.9460   -1.3181   21.9100 N   0  0  0  0  0  0  0  0  0  0  0  0
    7.8430   -5.4200   24.6683 O   0  0  0  0  0  0  0  0  0  0  0  0
    9.8879    0.6538   21.1178 O   0  0  0  0  0  0  0  0  0  0  0  0
  1  2  1  0  0  0  0
  1  3  2  0  0  0  0
  2  4  2  0  0  0  0
  3  5  1  0  0  0  0
  4 14  1  0  0  0  0
  5 13  1  0  0  0  0
  5 14  2  0  0  0  0
  6 12  1  0  0  0  0
  6 15  1  0  0  0  0
  6 17  2  0  0  0  0
  7 13  1  0  0  0  0
  7 16  1  0  0  0  0
  7 18  2  0  0  0  0
  8 10  1  0  0  0  0
  8 15  1  0  0  0  0
  9 11  1  0  0  0  0
  9 15  1  0  0  0  0
 10 16  1  0  0  0  0
 11 16  1  0  0  0  0
M  END

> <original SMILES>

CC(=O)N1CCN(C(=O)Cc2ccccn2)CC1

> <ref_mols>

x0689_0,x0769_0,x0831_0,x1382_0

> <ref_pdb>

receptors/Mpro-x0689-protein.pdb

> <Chemgauss4>

-1.967718

> <binding_free_energy>

-1.2160213261538502

> <binding_std_error>

2.3857299572863075

$$$$
CHR-SOS-59746812-6
  -OEChem-05122002103D

 24 26  0     0  0  0  0  0  0999 V2000
   14.4842   -1.4068   24.5516 C   0  0  0  0  0  0  0  0  0  0  0  0
    5.3191    0.9008   18.4251 C   0  0  0  0  0  0  0  0  0  0  0  0
   13.2469   -0.7725   24.5430 C   0  0  0  0  0  0  0  0  0  0  0  0
    5.7108    0.7064   19.7450 C   0  0  0  0  0  0  0  0  0  0  0  0
   14.8798   -2.0723   23.4025 C   0  0  0  0  0  0  0  0  0  0  0  0
    6.2235    0.5786   17.4261 C   0  0  0  0  0  0  0  0  0  0  0  0
   12.9408   -1.5140   22.3041 C   0  0  0  0  0  0  0  0  0  0  0  0
    7.8071   -0.0882   18.9510 C   0  0  0  0  0  0  0  0  0  0  0  0
   12.4542   -0.8224   23.4017 C   0  0  0  0  0  0  0  0  0  0  0  0
    6.9770    0.2029   20.0216 C   0  0  0  0  0  0  0  0  0  0  0  0
    8.6328   -0.4986   21.7846 C   0  0  0  0  0  0  0  0  0  0  0  0
    9.3809   -3.5974   25.3624 C   0  0  0  0  0  0  0  0  0  0  0  0
    9.0704   -2.2233   25.9452 C   0  0  0  0  0  0  0  0  0  0  0  0
    9.3527   -3.5879   23.8381 C   0  0  0  0  0  0  0  0  0  0  0  0
    9.9915   -1.1457   25.3732 C   0  0  0  0  0  0  0  0  0  0  0  0
   10.2744   -2.5127   23.2627 C   0  0  0  0  0  0  0  0  0  0  0  0
    9.9992   -1.1007   23.8282 C   0  0  0  0  0  0  0  0  0  0  0  0
   11.1159   -0.1483   23.3609 C   0  0  0  0  0  0  0  0  0  0  0  0
    8.6595   -0.5562   23.2961 C   0  0  0  0  0  0  0  0  0  0  0  0
   14.1374   -2.1425   22.2750 N   0  0  0  0  0  0  0  0  0  0  0  0
    7.4618    0.0874   17.6558 N   0  0  0  0  0  0  0  0  0  0  0  0
    7.4042   -0.0054   21.3546 N   0  0  0  0  0  0  0  0  0  0  0  0
    9.5812   -0.8469   21.0892 O   0  0  0  0  0  0  0  0  0  0  0  0
    6.7245    0.2379   22.0721 H   0  0  0  0  0  0  0  0  0  0  0  0
  1  3  2  0  0  0  0
  1  5  1  0  0  0  0
  2  4  2  0  0  0  0
  2  6  1  0  0  0  0
  3  9  1  0  0  0  0
  4 10  1  0  0  0  0
  5 20  2  0  0  0  0
  6 21  2  0  0  0  0
  7  9  2  0  0  0  0
  7 20  1  0  0  0  0
  8 10  2  0  0  0  0
  8 21  1  0  0  0  0
  9 18  1  0  0  0  0
 10 22  1  0  0  0  0
 11 19  1  0  0  0  0
 11 22  1  0  0  0  0
 11 23  2  0  0  0  0
 12 13  1  0  0  0  0
 12 14  1  0  0  0  0
 13 15  1  0  0  0  0
 14 16  1  0  0  0  0
 15 17  1  0  0  0  0
 16 17  1  0  0  0  0
 17 18  1  0  0  0  0
 17 19  1  0  0  0  0
 22 24  1  0  0  0  0
M  END

> <original SMILES>

O=C(CC1(Cc2cccnc2)CCCCC1)Nc1cccnc1

> <ref_mols>

x0678_0,x0946_0

> <ref_pdb>

receptors/Mpro-x0678_0.pdb

> <Chemgauss4>

-10.511691

> <binding_free_energy>

-1.172653199999992

> <binding_std_error>

4.2134664388906735

$$$$
JOH-UNI-9dc98897-7
  -OEChem-05122002103D

 19 20  0     1  0  0  0  0  0999 V2000
    6.4436   -3.6662   20.9889 C   0  0  0  0  0  0  0  0  0  0  0  0
    8.1256   -3.9653   22.7448 C   0  0  0  0  0  0  0  0  0  0  0  0
    9.1413   -1.5467   21.9934 C   0  0  0  0  0  0  0  0  0  0  0  0
    7.5812   -3.2106   21.7182 C   0  0  0  0  0  0  0  0  0  0  0  0
    9.2350   -3.4550   23.4099 C   0  0  0  0  0  0  0  0  0  0  0  0
    9.7586   -2.2233   23.0331 C   0  0  0  0  0  0  0  0  0  0  0  0
   11.8541    0.1443   25.1223 C   0  0  0  0  0  0  0  0  0  0  0  0
   10.6835   -0.8021   24.8389 C   0  0  0  0  0  0  0  0  0  0  0  0
   12.2288   -2.0283   23.2555 C   0  0  0  0  0  0  0  0  0  0  0  0
   12.3468    0.8993   23.8915 C   0  0  0  0  0  0  0  0  0  0  0  0
   12.8274   -0.9162   22.4018 C   0  0  0  0  0  0  0  0  0  0  0  0
    9.8425   -4.2461   24.5215 C   0  0  0  0  0  0  0  0  0  0  0  0
    5.5179   -4.0370   20.3953 N   0  0  0  0  0  0  0  0  0  0  0  0
    8.0622   -2.0103   21.3239 N   0  0  0  0  0  0  0  0  0  0  0  0
   10.8720   -1.6700   23.6730 N   0  0  3  0  0  0  0  0  0  0  0  0
   13.3375    0.1563   23.1866 O   0  0  0  0  0  0  0  0  0  0  0  0
    9.2050   -5.4293   24.7606 F   0  0  0  0  0  0  0  0  0  0  0  0
   11.1475   -4.5808   24.3017 F   0  0  0  0  0  0  0  0  0  0  0  0
    9.8297   -3.5748   25.7089 F   0  0  0  0  0  0  0  0  0  0  0  0
  1  4  1  0  0  0  0
  1 13  3  0  0  0  0
  2  4  1  0  0  0  0
  2  5  2  0  0  0  0
  3  6  2  0  0  0  0
  3 14  1  0  0  0  0
  4 14  2  0  0  0  0
  5  6  1  0  0  0  0
  5 12  1  0  0  0  0
  6 15  1  0  0  0  0
  7  8  1  0  0  0  0
  7 10  1  0  0  0  0
  8 15  1  0  0  0  0
  9 11  1  0  0  0  0
  9 15  1  0  0  0  0
 10 16  1  0  0  0  0
 11 16  1  0  0  0  0
 12 17  1  0  0  0  0
 12 18  1  0  0  0  0
 12 19  1  0  0  0  0
M  END

> <original SMILES>

N#Cc1cc(C(F)(F)F)c(N2CCCOCC2)cn1

> <ref_mols>

x1077_0

> <ref_pdb>

receptors/Mpro-x1077-protein.pdb

> <Chemgauss4>

-5.938368

> <binding_free_energy>

-1.1693058537950805

> <binding_std_error>

1.2870640200180183

$$$$
MAK-UNK-5e88aa6a-15
  -OEChem-05122002103D

 12 13  0     0  0  0  0  0  0999 V2000
    8.7966   -5.7254   23.4569 C   0  0  0  0  0  0  0  0  0  0  0  0
    9.7703   -5.0947   24.2234 C   0  0  0  0  0  0  0  0  0  0  0  0
   12.2101   -3.6196   25.3204 C   0  0  0  0  0  0  0  0  0  0  0  0
    8.5005   -3.6942   22.2558 C   0  0  0  0  0  0  0  0  0  0  0  0
   12.9555   -2.6634   25.9744 C   0  0  0  0  0  0  0  0  0  0  0  0
   10.9518   -1.7079   24.9151 C   0  0  0  0  0  0  0  0  0  0  0  0
   11.0495   -3.0662   24.7066 C   0  0  0  0  0  0  0  0  0  0  0  0
    8.1449   -5.0188   22.4523 C   0  0  0  0  0  0  0  0  0  0  0  0
   10.0533   -3.7667   23.9474 C   0  0  0  0  0  0  0  0  0  0  0  0
    7.0984   -5.6647   21.6161 C   0  0  0  0  0  0  0  0  0  0  0  0
    9.4412   -3.0476   22.9800 N   0  0  0  0  0  0  0  0  0  0  0  0
   12.2560   -1.1056   25.8472 S   0  0  0  0  0  0  0  0  0  0  0  0
  1  2  2  0  0  0  0
  1  8  1  0  0  0  0
  2  9  1  0  0  0  0
  3  5  2  0  0  0  0
  3  7  1  0  0  0  0
  4  8  2  0  0  0  0
  4 11  1  0  0  0  0
  5 12  1  0  0  0  0
  6  7  2  0  0  0  0
  6 12  1  0  0  0  0
  7  9  1  0  0  0  0
  8 10  1  0  0  0  0
  9 11  2  0  0  0  0
M  END

> <original SMILES>

Cc1ccc(-c2ccsc2)nc1

> <ref_mols>

x0195_0,x0387_0

> <ref_pdb>

receptors/Mpro-x0195_0.pdb

> <Chemgauss4>

-8.038471

> <binding_free_energy>

-1.1574636737373964

> <binding_std_error>

4.2134664388906735

$$$$
WAR-XCH-b6889685-26
  -OEChem-05122002103D

 27 29  0     0  0  0  0  0  0999 V2000
    7.2326   -3.8033   26.3206 C   0  0  0  0  0  0  0  0  0  0  0  0
    6.2402   -5.1780   24.5994 C   0  0  0  0  0  0  0  0  0  0  0  0
   11.5445    0.1886   23.5914 C   0  0  0  0  0  0  0  0  0  0  0  0
   12.4132   -1.7815   22.4954 C   0  0  0  0  0  0  0  0  0  0  0  0
   12.6825    0.2427   24.3962 C   0  0  0  0  0  0  0  0  0  0  0  0
   13.5513   -1.7274   23.3001 C   0  0  0  0  0  0  0  0  0  0  0  0
    6.6690   -4.6219   27.2993 C   0  0  0  0  0  0  0  0  0  0  0  0
    5.6767   -5.9966   25.5782 C   0  0  0  0  0  0  0  0  0  0  0  0
    7.0181   -4.0813   24.9706 C   0  0  0  0  0  0  0  0  0  0  0  0
   11.4098   -0.8236   22.6410 C   0  0  0  0  0  0  0  0  0  0  0  0
   13.6859   -0.7153   24.2505 C   0  0  0  0  0  0  0  0  0  0  0  0
    5.8911   -5.7185   26.9281 C   0  0  0  0  0  0  0  0  0  0  0  0
    8.4845   -1.0498   23.4917 C   0  0  0  0  0  0  0  0  0  0  0  0
    9.3852   -3.0975   22.3546 C   0  0  0  0  0  0  0  0  0  0  0  0
    7.2529   -1.8450   23.9269 C   0  0  0  0  0  0  0  0  0  0  0  0
    8.1365   -3.8639   22.7831 C   0  0  0  0  0  0  0  0  0  0  0  0
    9.0893   -1.6042   22.2011 C   0  0  0  0  0  0  0  0  0  0  0  0
    7.5742   -3.2736   24.0040 N   0  0  0  0  0  0  0  0  0  0  0  0
    6.4240   -7.9008   28.3629 N   0  0  0  0  0  0  0  0  0  0  0  0
   10.2824   -0.8772   21.8438 N   0  0  0  0  0  0  0  0  0  0  0  0
    5.0518   -5.9693   29.3788 O   0  0  0  0  0  0  0  0  0  0  0  0
    4.0184   -7.4055   27.5852 O   0  0  0  0  0  0  0  0  0  0  0  0
   14.7787   -0.6633   25.0233 F   0  0  0  0  0  0  0  0  0  0  0  0
    5.1848   -6.7433   28.1525 S   0  0  0  0  0  0  0  0  0  0  0  0
    6.9683   -7.8713   29.2337 H   0  0  0  0  0  0  0  0  0  0  0  0
    6.2619   -8.8506   28.0067 H   0  0  0  0  0  0  0  0  0  0  0  0
   10.2865   -0.3845   20.9613 H   0  0  0  0  0  0  0  0  0  0  0  0
  1  7  2  0  0  0  0
  1  9  1  0  0  0  0
  2  8  1  0  0  0  0
  2  9  2  0  0  0  0
  3  5  2  0  0  0  0
  3 10  1  0  0  0  0
  4  6  1  0  0  0  0
  4 10  2  0  0  0  0
  5 11  1  0  0  0  0
  6 11  2  0  0  0  0
  7 12  1  0  0  0  0
  8 12  2  0  0  0  0
  9 18  1  0  0  0  0
 10 20  1  0  0  0  0
 11 23  1  0  0  0  0
 12 24  1  0  0  0  0
 13 15  1  0  0  0  0
 13 17  1  0  0  0  0
 14 16  1  0  0  0  0
 14 17  1  0  0  0  0
 15 18  1  0  0  0  0
 16 18  1  0  0  0  0
 17 20  1  0  0  0  0
 19 24  1  0  0  0  0
 21 24  2  0  0  0  0
 22 24  2  0  0  0  0
 19 25  1  0  0  0  0
 19 26  1  0  0  0  0
 20 27  1  0  0  0  0
M  END

> <original SMILES>

NS(=O)(=O)c1ccc(N2CCC(Nc3ccc(F)cc3)CC2)cc1

> <ref_mols>

x0072_0,x0104_0,x0107_0,x0161_0,x0165_0

> <ref_pdb>

receptors/Mpro-x0072_0.pdb

> <Chemgauss4>

-10.686625

> <binding_free_energy>

-1.1352627575757879

> <binding_std_error>

4.2134664388906735

$$$$
AGN-NEW-891393a6-5
  -OEChem-05122002103D

 21 22  0     0  0  0  0  0  0999 V2000
    5.7920    1.0301   18.9253 C   0  0  0  0  0  0  0  0  0  0  0  0
    6.1961    0.4463   20.1207 C   0  0  0  0  0  0  0  0  0  0  0  0
   10.8512   -2.3546   22.8927 C   0  0  0  0  0  0  0  0  0  0  0  0
   12.0691   -0.3928   23.6030 C   0  0  0  0  0  0  0  0  0  0  0  0
    9.6993   -0.5674   24.0399 C   0  0  0  0  0  0  0  0  0  0  0  0
    6.5972    0.8523   17.8119 C   0  0  0  0  0  0  0  0  0  0  0  0
    8.1107   -0.4062   18.9966 C   0  0  0  0  0  0  0  0  0  0  0  0
    7.3765   -0.2872   20.1656 C   0  0  0  0  0  0  0  0  0  0  0  0
   12.0470   -1.6424   22.9838 C   0  0  0  0  0  0  0  0  0  0  0  0
    9.6773   -1.8171   23.4207 C   0  0  0  0  0  0  0  0  0  0  0  0
   10.8952    0.1448   24.1311 C   0  0  0  0  0  0  0  0  0  0  0  0
    7.8321   -0.9175   21.4168 C   0  0  0  0  0  0  0  0  0  0  0  0
    7.5275   -2.1641   21.7984 C   0  0  0  0  0  0  0  0  0  0  0  0
   14.3753   -2.4596   23.4989 C   0  0  0  0  0  0  0  0  0  0  0  0
   13.8873   -1.3572   21.2849 C   0  0  0  0  0  0  0  0  0  0  0  0
   13.3022   -2.2182   22.4204 C   0  0  0  0  0  0  0  0  0  0  0  0
    7.7503    0.1466   17.8167 N   0  0  0  0  0  0  0  0  0  0  0  0
    8.4963   -4.1285   23.1884 O   0  0  0  0  0  0  0  0  0  0  0  0
    7.3144   -2.2646   24.3919 O   0  0  0  0  0  0  0  0  0  0  0  0
    8.1812   -2.7099   23.3077 S   0  0  0  0  0  0  0  0  0  0  0  0
   10.9229    1.6854   24.8973 Cl  0  0  0  0  0  0  0  0  0  0  0  0
  1  2  2  0  0  0  0
  1  6  1  0  0  0  0
  2  8  1  0  0  0  0
  3  9  2  0  0  0  0
  3 10  1  0  0  0  0
  4  9  1  0  0  0  0
  4 11  2  0  0  0  0
  5 10  2  0  0  0  0
  5 11  1  0  0  0  0
  6 17  2  0  0  0  0
  7  8  2  0  0  0  0
  7 17  1  0  0  0  0
  8 12  1  0  0  0  0
  9 16  1  0  0  0  0
 10 20  1  0  0  0  0
 11 21  1  0  0  0  0
 12 13  2  0  0  0  0
 13 20  1  0  0  0  0
 14 16  1  0  0  0  0
 15 16  1  0  0  0  0
 18 20  2  0  0  0  0
 19 20  2  0  0  0  0
M  END

> <original SMILES>

CC(C)c1cc(Cl)cc(S(=O)(=O)/C=C/c2cccnc2)c1

> <ref_mols>

x0434_0

> <ref_pdb>

receptors/protein-0387.pdb

> <Chemgauss4>

-5.04507303237915

> <binding_free_energy>

-1.0619656894949685

> <binding_std_error>

2.6795699931854102

$$$$
DAR-DIA-842b4336-13
  -OEChem-05122002103D

 17 18  0     0  0  0  0  0  0999 V2000
    5.7065    1.1906   18.9682 C   0  0  0  0  0  0  0  0  0  0  0  0
    6.3896    0.9267   20.1502 C   0  0  0  0  0  0  0  0  0  0  0  0
   12.1924   -1.5808   22.1343 C   0  0  0  0  0  0  0  0  0  0  0  0
   13.4705   -1.9739   22.6263 C   0  0  0  0  0  0  0  0  0  0  0  0
    6.3537    0.9258   17.7721 C   0  0  0  0  0  0  0  0  0  0  0  0
    8.2396    0.1830   18.8537 C   0  0  0  0  0  0  0  0  0  0  0  0
    7.6808    0.4132   20.1005 C   0  0  0  0  0  0  0  0  0  0  0  0
   11.5063   -0.8021   23.0401 C   0  0  0  0  0  0  0  0  0  0  0  0
   13.7126   -1.4804   23.8896 C   0  0  0  0  0  0  0  0  0  0  0  0
    9.7806    0.1817   21.4725 C   0  0  0  0  0  0  0  0  0  0  0  0
   10.1363   -0.1911   22.9031 C   0  0  0  0  0  0  0  0  0  0  0  0
    7.6071    0.4270   17.6840 N   0  0  0  0  0  0  0  0  0  0  0  0
    8.3899    0.1391   21.2675 N   0  0  0  0  0  0  0  0  0  0  0  0
   10.6331    0.4729   20.6396 O   0  0  0  0  0  0  0  0  0  0  0  0
   12.4023   -0.5477   24.4771 S   0  0  0  0  0  0  0  0  0  0  0  0
   15.1114   -1.7037   24.8543 Cl  0  0  0  0  0  0  0  0  0  0  0  0
    7.8246   -0.1285   22.0830 H   0  0  0  0  0  0  0  0  0  0  0  0
  1  2  2  0  0  0  0
  1  5  1  0  0  0  0
  2  7  1  0  0  0  0
  3  4  1  0  0  0  0
  3  8  2  0  0  0  0
  4  9  2  0  0  0  0
  5 12  2  0  0  0  0
  6  7  2  0  0  0  0
  6 12  1  0  0  0  0
  7 13  1  0  0  0  0
  8 11  1  0  0  0  0
  8 15  1  0  0  0  0
  9 15  1  0  0  0  0
  9 16  1  0  0  0  0
 10 11  1  0  0  0  0
 10 13  1  0  0  0  0
 10 14  2  0  0  0  0
 13 17  1  0  0  0  0
M  END

> <original SMILES>

O=C(Cc1ccc(Cl)s1)Nc1cccnc1

> <ref_mols>

x0434_0,x0678_0,x1093_0

> <ref_pdb>

receptors/protein-0387.pdb

> <Chemgauss4>

-4.72160482406616

> <binding_free_energy>

-0.9922837265777176

> <binding_std_error>

6.3898095834058735

$$$$
WAR-XCH-b72a1bbc-21
  -OEChem-05122002103D

 26 28  0     0  0  0  0  0  0999 V2000
    8.9059   -1.4556   24.8230 C   0  0  0  0  0  0  0  0  0  0  0  0
    9.1598   -1.9086   22.4635 C   0  0  0  0  0  0  0  0  0  0  0  0
    8.1730   -2.6332   24.9703 C   0  0  0  0  0  0  0  0  0  0  0  0
    8.4269   -3.0862   22.6107 C   0  0  0  0  0  0  0  0  0  0  0  0
    9.3993   -1.0933   23.5696 C   0  0  0  0  0  0  0  0  0  0  0  0
    7.9335   -3.4485   23.8641 C   0  0  0  0  0  0  0  0  0  0  0  0
   12.0786    1.4357   24.1198 C   0  0  0  0  0  0  0  0  0  0  0  0
   10.8057    2.0206   22.0465 C   0  0  0  0  0  0  0  0  0  0  0  0
   10.9229    0.5447   24.5748 C   0  0  0  0  0  0  0  0  0  0  0  0
    9.6528    1.1263   22.5036 C   0  0  0  0  0  0  0  0  0  0  0  0
   12.2081    5.7128   23.3764 C   0  0  0  0  0  0  0  0  0  0  0  0
    9.6873    5.8087   23.3471 C   0  0  0  0  0  0  0  0  0  0  0  0
   12.3285    6.3387   24.7558 C   0  0  0  0  0  0  0  0  0  0  0  0
    9.5828    6.4434   24.7238 C   0  0  0  0  0  0  0  0  0  0  0  0
   11.6262    2.5847   23.2114 C   0  0  0  0  0  0  0  0  0  0  0  0
   10.8607    3.6611   23.9837 C   0  0  0  0  0  0  0  0  0  0  0  0
   10.1353    0.0890   23.4213 N   0  0  0  0  0  0  0  0  0  0  0  0
    5.4286   -4.3546   23.7669 N   0  0  0  0  0  0  0  0  0  0  0  0
   10.9186    4.9478   23.2050 N   0  3  0  0  0  0  0  0  0  0  0  0
    7.3864   -5.8312   22.9716 O   0  0  0  0  0  0  0  0  0  0  0  0
    7.1169   -5.3613   25.4321 O   0  0  0  0  0  0  0  0  0  0  0  0
   10.9951    7.5263   25.0788 S   0  0  0  0  0  0  0  0  0  0  0  0
    7.0156   -4.9224   24.0473 S   0  0  0  0  0  0  0  0  0  0  0  0
    4.9701   -4.6205   22.8868 H   0  0  0  0  0  0  0  0  0  0  0  0
    4.7882   -4.2983   24.5681 H   0  0  0  0  0  0  0  0  0  0  0  0
   10.9190    4.6443   22.1707 H   0  0  0  0  0  0  0  0  0  0  0  0
  1  3  2  0  0  0  0
  1  5  1  0  0  0  0
  2  4  1  0  0  0  0
  2  5  2  0  0  0  0
  3  6  1  0  0  0  0
  4  6  2  0  0  0  0
  5 17  1  0  0  0  0
  6 23  1  0  0  0  0
  7  9  1  0  0  0  0
  7 15  1  0  0  0  0
  8 10  1  0  0  0  0
  8 15  1  0  0  0  0
  9 17  1  0  0  0  0
 10 17  1  0  0  0  0
 11 13  1  0  0  0  0
 11 19  1  0  0  0  0
 12 14  1  0  0  0  0
 12 19  1  0  0  0  0
 13 22  1  0  0  0  0
 14 22  1  0  0  0  0
 15 16  1  0  0  0  0
 16 19  1  0  0  0  0
 18 23  1  0  0  0  0
 20 23  2  0  0  0  0
 21 23  2  0  0  0  0
 18 24  1  0  0  0  0
 18 25  1  0  0  0  0
 19 26  1  0  0  0  0
M  CHG  1  19   1
M  END

> <original SMILES>

NS(=O)(=O)c1ccc(N2CCC(CN3CCSCC3)CC2)cc1

> <ref_mols>

x0072_0,x0104_0,x0107_0,x0161_0,x0165_0

> <ref_pdb>

receptors/Mpro-x0165-protein.pdb

> <Chemgauss4>

-0.038871

> <binding_free_energy>

-0.98713690949495

> <binding_std_error>

2.5432987645685072

$$$$
PAT-UNK-b2d83456-1
  -OEChem-05122002103D

 19 20  0     0  0  0  0  0  0999 V2000
   12.2661    0.4889   24.4552 C   0  0  0  0  0  0  0  0  0  0  0  0
   14.0138   -2.4914   25.8407 C   0  0  0  0  0  0  0  0  0  0  0  0
   13.7729   -1.1918   25.3950 C   0  0  0  0  0  0  0  0  0  0  0  0
   12.9935   -3.4419   25.8033 C   0  0  0  0  0  0  0  0  0  0  0  0
   11.4915   -1.7930   24.8747 C   0  0  0  0  0  0  0  0  0  0  0  0
   12.5118   -0.8426   24.9121 C   0  0  0  0  0  0  0  0  0  0  0  0
   11.7324   -3.0927   25.3204 C   0  0  0  0  0  0  0  0  0  0  0  0
    6.4501   -4.6114   21.6844 C   0  0  0  0  0  0  0  0  0  0  0  0
    7.0522   -3.8804   23.9701 C   0  0  0  0  0  0  0  0  0  0  0  0
    8.6041   -3.3365   22.1347 C   0  0  0  0  0  0  0  0  0  0  0  0
    8.2015   -4.4179   24.8102 C   0  0  0  0  0  0  0  0  0  0  0  0
    9.7779   -3.8644   22.9485 C   0  0  0  0  0  0  0  0  0  0  0  0
    5.6079   -5.7118   22.2789 C   0  0  0  0  0  0  0  0  0  0  0  0
   10.6351   -4.1151   25.2804 C   0  0  0  0  0  0  0  0  0  0  0  0
   12.0666    1.5702   24.0842 N   0  0  0  0  0  0  0  0  0  0  0  0
    7.3520   -3.9830   22.5419 N   0  0  0  0  0  0  0  0  0  0  0  0
    9.4744   -3.6998   24.4209 N   0  3  0  0  0  0  0  0  0  0  0  0
    6.3073   -4.3188   20.4945 O   0  0  0  0  0  0  0  0  0  0  0  0
    9.3267   -2.6958   24.5935 H   0  0  0  0  0  0  0  0  0  0  0  0
  1  6  1  0  0  0  0
  1 15  3  0  0  0  0
  2  3  1  0  0  0  0
  2  4  2  0  0  0  0
  3  6  2  0  0  0  0
  4  7  1  0  0  0  0
  5  6  1  0  0  0  0
  5  7  2  0  0  0  0
  7 14  1  0  0  0  0
  8 13  1  0  0  0  0
  8 16  1  0  0  0  0
  8 18  2  0  0  0  0
  9 11  1  0  0  0  0
  9 16  1  0  0  0  0
 10 12  1  0  0  0  0
 10 16  1  0  0  0  0
 11 17  1  0  0  0  0
 12 17  1  0  0  0  0
 14 17  1  0  0  0  0
 17 19  1  0  0  0  0
M  CHG  1  17   1
M  END

> <original SMILES>

CC(=O)N1CCN(Cc2cccc(C#N)c2)CC1

> <ref_mols>

x0104_0,x0692_0

> <ref_pdb>

receptors/protein-0387.pdb

> <Chemgauss4>

-4.65229272842407

> <binding_free_energy>

-0.9841760946402758

> <binding_std_error>

3.5420444588550177

$$$$
ANT-DIA-b7f58f21-7
  -OEChem-05122002103D

 17 18  0     0  0  0  0  0  0999 V2000
   10.7110    2.7076   24.4575 C   0  0  0  0  0  0  0  0  0  0  0  0
   10.1035    1.4650   24.6600 C   0  0  0  0  0  0  0  0  0  0  0  0
   12.1957    1.7536   22.7948 C   0  0  0  0  0  0  0  0  0  0  0  0
   10.6800   -1.7320   23.1871 C   0  0  0  0  0  0  0  0  0  0  0  0
   11.7433    2.8478   23.5365 C   0  0  0  0  0  0  0  0  0  0  0  0
   10.5414    0.3429   23.9236 C   0  0  0  0  0  0  0  0  0  0  0  0
   11.5809    0.5085   23.0032 C   0  0  0  0  0  0  0  0  0  0  0  0
    8.0338    6.3641   21.6691 C   0  0  0  0  0  0  0  0  0  0  0  0
   12.3782    4.1839   23.3358 C   0  0  0  0  0  0  0  0  0  0  0  0
   11.4246    5.3580   23.5855 C   0  0  0  0  0  0  0  0  0  0  0  0
   10.0358   -0.9455   24.0173 N   0  0  0  0  0  0  0  0  0  0  0  0
   10.2729    5.3199   22.7247 N   0  0  0  0  0  0  0  0  0  0  0  0
    9.0370    7.2626   23.9134 O   0  0  0  0  0  0  0  0  0  0  0  0
    7.9701    4.9785   23.8786 O   0  0  0  0  0  0  0  0  0  0  0  0
   11.9132   -1.0064   22.2498 S   0  0  0  0  0  0  0  0  0  0  0  0
    8.7767    6.0032   23.2439 S   0  0  0  0  0  0  0  0  0  0  0  0
   10.1779    4.4660   22.1329 H   0  0  0  0  0  0  0  0  0  0  0  0
  1  2  2  0  0  0  0
  1  5  1  0  0  0  0
  2  6  1  0  0  0  0
  3  5  2  0  0  0  0
  3  7  1  0  0  0  0
  4 11  2  0  0  0  0
  4 15  1  0  0  0  0
  5  9  1  0  0  0  0
  6  7  2  0  0  0  0
  6 11  1  0  0  0  0
  7 15  1  0  0  0  0
  8 16  1  0  0  0  0
  9 10  1  0  0  0  0
 10 12  1  0  0  0  0
 12 16  1  0  0  0  0
 13 16  2  0  0  0  0
 14 16  2  0  0  0  0
 12 17  1  0  0  0  0
M  END

> <original SMILES>

CS(=O)(=O)NCCc1ccc2ncsc2c1

> <ref_mols>

x0072_0,x0305_0,x0387_0

> <ref_pdb>

receptors/Mpro-x0305-protein.pdb

> <Chemgauss4>

-4.867293

> <binding_free_energy>

-0.9804583599999996

> <binding_std_error>

3.3556568570364176

$$$$
GIA-UNK-995df016-7
  -OEChem-05122002103D

 15 15  0     0  0  0  0  0  0999 V2000
   10.8829   -2.5392   24.5999 C   0  0  0  0  0  0  0  0  0  0  0  0
    6.5267   -4.8228   22.1926 C   0  0  0  0  0  0  0  0  0  0  0  0
    9.3935   -4.5049   24.6474 C   0  0  0  0  0  0  0  0  0  0  0  0
    9.8890   -3.2958   22.4507 C   0  0  0  0  0  0  0  0  0  0  0  0
    8.4421   -5.3095   23.7685 C   0  0  0  0  0  0  0  0  0  0  0  0
    8.3666   -3.1942   22.4386 C   0  0  0  0  0  0  0  0  0  0  0  0
   10.4266   -3.7350   23.8184 C   0  0  0  0  0  0  0  0  0  0  0  0
    5.0627   -5.9774   23.8155 C   0  0  0  0  0  0  0  0  0  0  0  0
    5.9424   -6.1528   22.6017 C   0  0  0  0  0  0  0  0  0  0  0  0
   12.7510   -1.0134   25.9052 C   0  0  0  0  0  0  0  0  0  0  0  0
    7.7363   -4.4684   22.7932 N   0  0  0  0  0  0  0  0  0  0  0  0
   10.1306   -1.6311   24.9321 O   0  0  0  0  0  0  0  0  0  0  0  0
    5.9289   -4.1214   21.3731 O   0  0  0  0  0  0  0  0  0  0  0  0
   12.4128    0.0234   25.0930 F   0  0  0  0  0  0  0  0  0  0  0  0
   12.6007   -2.5651   24.9969 S   0  0  0  0  0  0  0  0  0  0  0  0
  1  7  1  0  0  0  0
  1 12  2  0  0  0  0
  1 15  1  0  0  0  0
  2  9  1  0  0  0  0
  2 11  1  0  0  0  0
  2 13  2  0  0  0  0
  3  5  1  0  0  0  0
  3  7  1  0  0  0  0
  4  6  1  0  0  0  0
  4  7  1  0  0  0  0
  5 11  1  0  0  0  0
  6 11  1  0  0  0  0
  8  9  1  0  0  0  0
 10 14  1  0  0  0  0
 10 15  1  0  0  0  0
M  END

> <original SMILES>

CCC(=O)N1CCC(C(=O)SCF)CC1

> <ref_mols>

x1334_0

> <ref_pdb>

receptors/protein-0387.pdb

> <Chemgauss4>

-4.92742443084717

> <binding_free_energy>

-0.9542756932339103

> <binding_std_error>

0.7502069230755234

$$$$
GAB-REV-70cc3ca5-23
  -OEChem-05122002103D

 22 24  0     0  0  0  0  0  0999 V2000
   14.5629   -1.7794   24.8406 C   0  0  0  0  0  0  0  0  0  0  0  0
   14.6645   -2.0879   23.4785 C   0  0  0  0  0  0  0  0  0  0  0  0
   13.5191   -0.9806   25.3298 C   0  0  0  0  0  0  0  0  0  0  0  0
    5.1247    0.9199   18.9376 C   0  0  0  0  0  0  0  0  0  0  0  0
    5.8161    0.4477   17.8336 C   0  0  0  0  0  0  0  0  0  0  0  0
    7.7996    0.3840   18.9911 C   0  0  0  0  0  0  0  0  0  0  0  0
   13.7310   -1.6129   22.5509 C   0  0  0  0  0  0  0  0  0  0  0  0
    5.8378    1.1239   20.1137 C   0  0  0  0  0  0  0  0  0  0  0  0
   12.5750   -0.4963   24.4131 C   0  0  0  0  0  0  0  0  0  0  0  0
    7.2012    0.8534   20.1493 C   0  0  0  0  0  0  0  0  0  0  0  0
   12.7123   -0.8252   23.0726 C   0  0  0  0  0  0  0  0  0  0  0  0
   10.9833    0.4076   23.3653 C   0  0  0  0  0  0  0  0  0  0  0  0
    9.3331    0.8130   21.4903 C   0  0  0  0  0  0  0  0  0  0  0  0
   13.8529   -1.9499   21.1063 C   0  0  0  0  0  0  0  0  0  0  0  0
    5.1176    1.6329   21.3191 C   0  0  0  0  0  0  0  0  0  0  0  0
    9.7914    1.1442   22.9173 C   0  0  0  0  0  0  0  0  0  0  0  0
    7.1399    0.1735   17.8300 N   0  0  0  0  0  0  0  0  0  0  0  0
   11.4637    0.2932   24.5840 N   0  0  0  0  0  0  0  0  0  0  0  0
    7.9702    1.0444   21.3219 N   0  0  0  0  0  0  0  0  0  0  0  0
   10.1253    0.3972   20.6508 O   0  0  0  0  0  0  0  0  0  0  0  0
   11.6825   -0.2409   22.3923 O   0  0  0  0  0  0  0  0  0  0  0  0
    7.4689    1.3913   22.1370 H   0  0  0  0  0  0  0  0  0  0  0  0
  1  2  1  0  0  0  0
  1  3  2  0  0  0  0
  2  7  2  0  0  0  0
  3  9  1  0  0  0  0
  4  5  2  0  0  0  0
  4  8  1  0  0  0  0
  5 17  1  0  0  0  0
  6 10  1  0  0  0  0
  6 17  2  0  0  0  0
  7 11  1  0  0  0  0
  7 14  1  0  0  0  0
  8 10  2  0  0  0  0
  8 15  1  0  0  0  0
  9 11  2  0  0  0  0
  9 18  1  0  0  0  0
 10 19  1  0  0  0  0
 11 21  1  0  0  0  0
 12 16  1  0  0  0  0
 12 18  2  0  0  0  0
 12 21  1  0  0  0  0
 13 16  1  0  0  0  0
 13 19  1  0  0  0  0
 13 20  2  0  0  0  0
 19 22  1  0  0  0  0
M  END

> <original SMILES>

Cc1ccncc1NC(=O)Cc1nc2cccc(C)c2o1

> <ref_mols>

x0107_0

> <ref_pdb>

receptors/Mpro-x0107_0.pdb

> <Chemgauss4>

-10.069925

> <binding_free_energy>

-0.8814968626262498

> <binding_std_error>

4.2134664388906735

$$$$
CAS-DEP-751a2458-2
  -OEChem-05122002103D

 19 21  0     0  0  0  0  0  0999 V2000
    6.4744   -5.1680   21.4975 C   0  0  0  0  0  0  0  0  0  0  0  0
    7.0117   -6.4036   21.8655 C   0  0  0  0  0  0  0  0  0  0  0  0
   11.7244   -3.6198   25.5528 C   0  0  0  0  0  0  0  0  0  0  0  0
    7.0958   -3.9704   21.8732 C   0  0  0  0  0  0  0  0  0  0  0  0
    8.1865   -6.4886   22.6201 C   0  0  0  0  0  0  0  0  0  0  0  0
   12.7829   -3.0040   26.2207 C   0  0  0  0  0  0  0  0  0  0  0  0
   11.6148   -1.7614   24.0129 C   0  0  0  0  0  0  0  0  0  0  0  0
   11.1404   -2.9985   24.4489 C   0  0  0  0  0  0  0  0  0  0  0  0
   12.6732   -1.1455   24.6808 C   0  0  0  0  0  0  0  0  0  0  0  0
    8.2768   -4.0370   22.6317 C   0  0  0  0  0  0  0  0  0  0  0  0
    8.7881   -5.2832   22.9830 C   0  0  0  0  0  0  0  0  0  0  0  0
   13.2573   -1.7668   25.7847 C   0  0  0  0  0  0  0  0  0  0  0  0
   10.0460   -3.6365   23.7582 C   0  0  0  0  0  0  0  0  0  0  0  0
   13.1691    0.1782   24.2000 C   0  0  0  0  0  0  0  0  0  0  0  0
    9.0715   -3.0263   23.1218 N   0  0  0  0  0  0  0  0  0  0  0  0
    9.9196   -4.9967   23.7028 N   0  0  0  0  0  0  0  0  0  0  0  0
   14.2908   -1.1788   26.4496 O   0  0  0  0  0  0  0  0  0  0  0  0
   10.5452   -5.6748   24.1182 H   0  0  0  0  0  0  0  0  0  0  0  0
   14.5766   -1.7396   27.1878 H   0  0  0  0  0  0  0  0  0  0  0  0
  1  2  1  0  0  0  0
  1  4  2  0  0  0  0
  2  5  2  0  0  0  0
  3  6  2  0  0  0  0
  3  8  1  0  0  0  0
  4 10  1  0  0  0  0
  5 11  1  0  0  0  0
  6 12  1  0  0  0  0
  7  8  2  0  0  0  0
  7  9  1  0  0  0  0
  8 13  1  0  0  0  0
  9 12  2  0  0  0  0
  9 14  1  0  0  0  0
 10 11  2  0  0  0  0
 10 15  1  0  0  0  0
 11 16  1  0  0  0  0
 12 17  1  0  0  0  0
 13 15  2  0  0  0  0
 13 16  1  0  0  0  0
 16 18  1  0  0  0  0
 17 19  1  0  0  0  0
M  END

> <original SMILES>

Cc1cc(-c2nc3ccccc3[nH]2)ccc1O

> <ref_mols>

x0104_0

> <ref_pdb>

receptors/Mpro-x0104_0.pdb

> <Chemgauss4>

-7.804457

> <binding_free_energy>

-0.8724989999999977

> <binding_std_error>

4.2134664388906735

$$$$
ALV-UNI-7ff1a6f9-37
  -OEChem-05122002103D

 23 26  0     0  0  0  0  0  0999 V2000
   11.7069    0.7811   22.4483 C   0  0  0  0  0  0  0  0  0  0  0  0
   11.8801   -1.4185   21.4641 C   0  0  0  0  0  0  0  0  0  0  0  0
   12.9217    0.5832   23.1045 C   0  0  0  0  0  0  0  0  0  0  0  0
   13.0950   -1.6165   22.1203 C   0  0  0  0  0  0  0  0  0  0  0  0
    8.6079   -0.7191   23.8257 C   0  0  0  0  0  0  0  0  0  0  0  0
    7.8371    1.5275   23.4475 C   0  0  0  0  0  0  0  0  0  0  0  0
    8.2620   -0.5561   25.1574 C   0  0  0  0  0  0  0  0  0  0  0  0
    7.5255    1.5899   24.7962 C   0  0  0  0  0  0  0  0  0  0  0  0
   11.1860   -0.2198   21.6281 C   0  0  0  0  0  0  0  0  0  0  0  0
    8.3882    0.3473   22.9609 C   0  0  0  0  0  0  0  0  0  0  0  0
   13.6158   -0.6155   22.9405 C   0  0  0  0  0  0  0  0  0  0  0  0
    9.9388   -0.0167   20.9546 C   0  0  0  0  0  0  0  0  0  0  0  0
    8.7315    0.2293   21.5605 C   0  0  0  0  0  0  0  0  0  0  0  0
    8.5323    0.1814   19.3440 C   0  0  0  0  0  0  0  0  0  0  0  0
    5.7872    0.6902   19.4299 C   0  0  0  0  0  0  0  0  0  0  0  0
    6.4759    0.6074   20.5729 C   0  0  0  0  0  0  0  0  0  0  0  0
    6.5978    0.4937   18.1868 C   0  0  0  0  0  0  0  0  0  0  0  0
    5.8446    0.5833   16.8845 C   0  0  0  0  0  0  0  0  0  0  0  0
    7.7246    0.5750   25.6668 N   0  0  0  0  0  0  0  0  0  0  0  0
    9.8103   -0.0450   19.5906 N   0  0  0  0  0  0  0  0  0  0  0  0
    7.8784    0.2563   18.1471 N   0  0  0  0  0  0  0  0  0  0  0  0
    7.8354    0.3554   20.5329 N   0  0  0  0  0  0  0  0  0  0  0  0
   14.7824   -0.8055   23.5707 F   0  0  0  0  0  0  0  0  0  0  0  0
  1  3  2  0  0  0  0
  1  9  1  0  0  0  0
  2  4  1  0  0  0  0
  2  9  2  0  0  0  0
  3 11  1  0  0  0  0
  4 11  2  0  0  0  0
  5  7  2  0  0  0  0
  5 10  1  0  0  0  0
  6  8  1  0  0  0  0
  6 10  2  0  0  0  0
  7 19  1  0  0  0  0
  8 19  2  0  0  0  0
  9 12  1  0  0  0  0
 10 13  1  0  0  0  0
 11 23  1  0  0  0  0
 12 13  2  0  0  0  0
 12 20  1  0  0  0  0
 13 22  1  0  0  0  0
 14 20  2  0  0  0  0
 14 21  1  0  0  0  0
 14 22  1  0  0  0  0
 15 16  2  0  0  0  0
 15 17  1  0  0  0  0
 16 22  1  0  0  0  0
 17 18  1  0  0  0  0
 17 21  2  0  0  0  0
M  END

> <original SMILES>

Cc1ccn2c(-c3ccncc3)c(-c3ccc(F)cc3)nc2n1

> <ref_mols>

x0395_0,x0426_0,x0434_0,x0540_0,x0678_0,x0830_0,x1093_0

> <ref_pdb>

receptors/Mpro-x0426_0.pdb

> <Chemgauss4>

-9.555748

> <binding_free_energy>

-0.8441146616161532

> <binding_std_error>

2.1318333632751387

$$$$
JOH-MSK-ec639444-2
  -OEChem-05122002103D

 20 22  0     1  0  0  0  0  0999 V2000
   10.9207   -2.3319   22.5105 C   0  0  0  0  0  0  0  0  0  0  0  0
    9.7180   -2.3056   23.2182 C   0  0  0  0  0  0  0  0  0  0  0  0
   11.8259   -1.2845   22.6806 C   0  0  0  0  0  0  0  0  0  0  0  0
   11.5672   -0.2077   23.5469 C   0  0  0  0  0  0  0  0  0  0  0  0
   10.3923   -0.2047   24.2618 C   0  0  0  0  0  0  0  0  0  0  0  0
    9.4866   -1.2451   24.0848 C   0  0  0  0  0  0  0  0  0  0  0  0
   10.4948    4.6584   23.8055 C   0  0  0  0  0  0  0  0  0  0  0  0
   13.1737   -1.1467   22.0429 C   0  0  0  0  0  0  0  0  0  0  0  0
    9.8272    0.7741   25.2133 C   0  0  0  0  0  0  0  0  0  0  0  0
   13.4419    0.3495   22.2467 C   0  0  0  0  0  0  0  0  0  0  0  0
    8.6861   -0.0673   25.7853 C   0  0  0  0  0  0  0  0  0  0  0  0
   12.7227    0.7518   23.5534 C   0  0  1  0  0  0  0  0  0  0  0  0
    9.0991    6.2971   22.4847 C   0  0  0  0  0  0  0  0  0  0  0  0
   10.2134    6.1180   23.4996 C   0  0  0  0  0  0  0  0  0  0  0  0
   12.3619    2.2296   23.5581 C   0  0  0  0  0  0  0  0  0  0  0  0
   11.1673    2.5480   22.6665 C   0  0  0  0  0  0  0  0  0  0  0  0
   10.8466    3.9484   22.6612 N   0  0  0  0  0  0  0  0  0  0  0  0
   10.4181    4.1818   24.9346 O   0  0  0  0  0  0  0  0  0  0  0  0
    8.3493   -1.1117   24.8438 O   0  0  0  0  0  0  0  0  0  0  0  0
   10.8783    4.4482   21.7729 H   0  0  0  0  0  0  0  0  0  0  0  0
  1  2  2  0  0  0  0
  1  3  1  0  0  0  0
  2  6  1  0  0  0  0
  3  4  2  0  0  0  0
  3  8  1  0  0  0  0
  4  5  1  0  0  0  0
  4 12  1  0  0  0  0
  5  6  2  0  0  0  0
  5  9  1  0  0  0  0
  6 19  1  0  0  0  0
  7 14  1  0  0  0  0
  7 17  1  0  0  0  0
  7 18  2  0  0  0  0
  8 10  1  0  0  0  0
  9 11  1  0  0  0  0
 10 12  1  0  0  0  0
 11 19  1  0  0  0  0
 12 15  1  0  0  0  0
 13 14  1  0  0  0  0
 15 16  1  0  0  0  0
 16 17  1  0  0  0  0
 17 20  1  0  0  0  0
M  END

> <original SMILES>

CCC(=O)NCC[C@@H]1CCc2ccc3c(c21)CCO3

> <ref_mols>

x0104_0

> <ref_pdb>

receptors/Mpro-x0104-protein.pdb

> <Chemgauss4>

-9.332843

> <binding_free_energy>

-0.804841942238312

> <binding_std_error>

2.246799087685763

$$$$
ALV-UNI-7ff1a6f9-1
  -OEChem-05122002103D

 23 26  0     0  0  0  0  0  0999 V2000
    7.1604   -2.2979   21.1217 C   0  0  0  0  0  0  0  0  0  0  0  0
    8.5327   -0.3300   20.8366 C   0  0  0  0  0  0  0  0  0  0  0  0
    6.2733   -1.8190   20.1578 C   0  0  0  0  0  0  0  0  0  0  0  0
    7.6456    0.1489   19.8726 C   0  0  0  0  0  0  0  0  0  0  0  0
    8.2775   -5.3643   22.2624 C   0  0  0  0  0  0  0  0  0  0  0  0
    7.0184   -4.2402   23.9756 C   0  0  0  0  0  0  0  0  0  0  0  0
    7.3008   -6.3471   22.2648 C   0  0  0  0  0  0  0  0  0  0  0  0
    6.0979   -5.2732   23.9013 C   0  0  0  0  0  0  0  0  0  0  0  0
    8.2901   -1.5534   21.4612 C   0  0  0  0  0  0  0  0  0  0  0  0
    8.1262   -4.2942   23.1371 C   0  0  0  0  0  0  0  0  0  0  0  0
    9.1088   -3.2503   23.1744 C   0  0  0  0  0  0  0  0  0  0  0  0
    6.5159   -0.5956   19.5332 C   0  0  0  0  0  0  0  0  0  0  0  0
    9.2069   -2.0484   22.4579 C   0  0  0  0  0  0  0  0  0  0  0  0
   10.2149   -3.2538   23.9877 C   0  0  0  0  0  0  0  0  0  0  0  0
   10.7405   -4.1481   24.9598 C   0  0  0  0  0  0  0  0  0  0  0  0
   11.8844   -3.8397   25.5987 C   0  0  0  0  0  0  0  0  0  0  0  0
   12.1067   -1.7604   24.3987 C   0  0  0  0  0  0  0  0  0  0  0  0
   12.6083   -2.6032   25.3206 C   0  0  0  0  0  0  0  0  0  0  0  0
   13.8706   -2.3463   26.0788 C   0  0  0  0  0  0  0  0  0  0  0  0
    6.2110   -6.3290   23.0646 N   0  0  0  0  0  0  0  0  0  0  0  0
   10.2851   -1.3324   22.7799 N   0  0  0  0  0  0  0  0  0  0  0  0
   10.9177   -2.0735   23.7301 N   0  0  0  0  0  0  0  0  0  0  0  0
    5.6640   -0.1357   18.6074 F   0  0  0  0  0  0  0  0  0  0  0  0
  1  3  2  0  0  0  0
  1  9  1  0  0  0  0
  2  4  1  0  0  0  0
  2  9  2  0  0  0  0
  3 12  1  0  0  0  0
  4 12  2  0  0  0  0
  5  7  2  0  0  0  0
  5 10  1  0  0  0  0
  6  8  1  0  0  0  0
  6 10  2  0  0  0  0
  7 20  1  0  0  0  0
  8 20  2  0  0  0  0
  9 13  1  0  0  0  0
 10 11  1  0  0  0  0
 11 13  1  0  0  0  0
 11 14  2  0  0  0  0
 12 23  1  0  0  0  0
 13 21  2  0  0  0  0
 14 15  1  0  0  0  0
 14 22  1  0  0  0  0
 15 16  2  0  0  0  0
 16 18  1  0  0  0  0
 17 18  2  0  0  0  0
 17 22  1  0  0  0  0
 18 19  1  0  0  0  0
 21 22  1  0  0  0  0
M  END

> <original SMILES>

Cc1ccc2c(-c3ccncc3)c(-c3ccc(F)cc3)nn2c1

> <ref_mols>

x0395_0,x0426_0,x0434_0,x0540_0,x0678_0,x0830_0,x1093_0

> <ref_pdb>

receptors/Mpro-x0540-protein.pdb

> <Chemgauss4>

-6.294449

> <binding_free_energy>

-0.7414418502040832

> <binding_std_error>

2.383666792382926

$$$$
DAR-DIA-23aa0b97-12
  -OEChem-05122002103D

 22 24  0     0  0  0  0  0  0999 V2000
    6.5265   -5.8869   22.1428 C   0  0  0  0  0  0  0  0  0  0  0  0
    5.1698    1.2448   18.8547 C   0  0  0  0  0  0  0  0  0  0  0  0
    5.6322    1.0082   20.1479 C   0  0  0  0  0  0  0  0  0  0  0  0
    6.8415   -4.5535   21.8812 C   0  0  0  0  0  0  0  0  0  0  0  0
    6.0757   -6.2617   23.4085 C   0  0  0  0  0  0  0  0  0  0  0  0
    6.2550   -3.9697   24.1511 C   0  0  0  0  0  0  0  0  0  0  0  0
    5.9713    0.8793   17.7815 C   0  0  0  0  0  0  0  0  0  0  0  0
    8.8648   -0.5341   20.8633 C   0  0  0  0  0  0  0  0  0  0  0  0
    6.8934    0.4082   20.2938 C   0  0  0  0  0  0  0  0  0  0  0  0
    7.7092    0.0068   21.3845 C   0  0  0  0  0  0  0  0  0  0  0  0
    6.7058   -3.5949   22.8854 C   0  0  0  0  0  0  0  0  0  0  0  0
    5.9399   -5.3031   24.4126 C   0  0  0  0  0  0  0  0  0  0  0  0
    7.5910    0.0932   19.1313 C   0  0  0  0  0  0  0  0  0  0  0  0
    6.9510   -1.1635   23.4961 C   0  0  0  0  0  0  0  0  0  0  0  0
    7.3881    0.1405   22.8196 C   0  0  0  0  0  0  0  0  0  0  0  0
    7.1916    0.2998   17.8622 N   0  0  0  0  0  0  0  0  0  0  0  0
    8.7825   -0.4763   19.4962 N   0  0  0  0  0  0  0  0  0  0  0  0
    7.0267   -2.2425   22.6190 N   0  0  0  0  0  0  0  0  0  0  0  0
    6.5892   -1.1828   24.6682 O   0  0  0  0  0  0  0  0  0  0  0  0
    5.3837   -5.7654   25.9743 Cl  0  0  0  0  0  0  0  0  0  0  0  0
    9.4923   -0.8022   18.8549 H   0  0  0  0  0  0  0  0  0  0  0  0
    7.3505   -2.0343   21.6767 H   0  0  0  0  0  0  0  0  0  0  0  0
  1  4  2  0  0  0  0
  1  5  1  0  0  0  0
  2  3  2  0  0  0  0
  2  7  1  0  0  0  0
  3  9  1  0  0  0  0
  4 11  1  0  0  0  0
  5 12  2  0  0  0  0
  6 11  2  0  0  0  0
  6 12  1  0  0  0  0
  7 16  2  0  0  0  0
  8 10  2  0  0  0  0
  8 17  1  0  0  0  0
  9 10  1  0  0  0  0
  9 13  2  0  0  0  0
 10 15  1  0  0  0  0
 11 18  1  0  0  0  0
 12 20  1  0  0  0  0
 13 16  1  0  0  0  0
 13 17  1  0  0  0  0
 14 15  1  0  0  0  0
 14 18  1  0  0  0  0
 14 19  2  0  0  0  0
 17 21  1  0  0  0  0
 18 22  1  0  0  0  0
M  END

> <original SMILES>

O=C(Cc1c[nH]c2ncccc12)Nc1cccc(Cl)c1

> <ref_mols>

x0104_0,x0305_0,x0434_0,x0678_0,x0995_0,x1093_0,x1249_0

> <ref_pdb>

receptors/Mpro-x1249-protein.pdb

> <Chemgauss4>

-4.815082

> <binding_free_energy>

-0.7394727353224582

> <binding_std_error>

2.4994421240610523

$$$$
BET-COM-8a5969bb-1
  -OEChem-05122002103D

 11 12  0     0  0  0  0  0  0999 V2000
   11.2373   -0.4751   25.5956 C   0  0  0  0  0  0  0  0  0  0  0  0
   13.1260   -1.9854   26.0555 C   0  0  0  0  0  0  0  0  0  0  0  0
   11.7806   -0.1660   24.1958 C   0  0  0  0  0  0  0  0  0  0  0  0
   13.7219   -1.7173   24.6687 C   0  0  0  0  0  0  0  0  0  0  0  0
   11.5891   -1.9302   25.9605 C   0  0  0  0  0  0  0  0  0  0  0  0
   12.5954   -1.3668   23.6778 C   0  0  0  0  0  0  0  0  0  0  0  0
   11.1057   -2.8804   24.8256 C   0  0  0  0  0  0  0  0  0  0  0  0
   13.1562   -1.0891   22.2871 C   0  0  0  0  0  0  0  0  0  0  0  0
   11.4883   -4.3439   25.0931 C   0  0  0  0  0  0  0  0  0  0  0  0
    9.5834   -2.8197   24.6285 C   0  0  0  0  0  0  0  0  0  0  0  0
   11.7135   -2.5031   23.5716 O   0  0  0  0  0  0  0  0  0  0  0  0
  1  3  1  0  0  0  0
  1  5  1  0  0  0  0
  2  4  1  0  0  0  0
  2  5  1  0  0  0  0
  3  6  1  0  0  0  0
  4  6  1  0  0  0  0
  5  7  1  0  0  0  0
  6  8  1  0  0  0  0
  6 11  1  0  0  0  0
  7  9  1  0  0  0  0
  7 10  1  0  0  0  0
  7 11  1  0  0  0  0
M  END

> <original SMILES>

CC12CCC(CC1)C(C)(C)O2

> <ref_mols>

x0072_0

> <ref_pdb>

receptors/Mpro-x0072_0.pdb

> <Chemgauss4>

-4.761117

> <binding_free_energy>

-0.7036314976827072

> <binding_std_error>

2.6364839149618557

$$$$
WAR-XCH-b6889685-27
  -OEChem-05122002103D

 27 29  0     0  0  0  0  0  0999 V2000
   13.2810   -1.4108   23.7214 C   0  0  0  0  0  0  0  0  0  0  0  0
   13.1821   -0.2606   24.5041 C   0  0  0  0  0  0  0  0  0  0  0  0
    5.8799   -4.5477   26.0154 C   0  0  0  0  0  0  0  0  0  0  0  0
    8.0726   -5.5345   26.2503 C   0  0  0  0  0  0  0  0  0  0  0  0
   12.2139   -1.7960   22.9098 C   0  0  0  0  0  0  0  0  0  0  0  0
    5.4249   -5.3010   27.0975 C   0  0  0  0  0  0  0  0  0  0  0  0
    7.6176   -6.2879   27.3325 C   0  0  0  0  0  0  0  0  0  0  0  0
   10.9490    0.1193   23.6639 C   0  0  0  0  0  0  0  0  0  0  0  0
   12.0161    0.5045   24.4754 C   0  0  0  0  0  0  0  0  0  0  0  0
    7.2037   -4.6645   25.5917 C   0  0  0  0  0  0  0  0  0  0  0  0
   11.0479   -1.0310   22.8811 C   0  0  0  0  0  0  0  0  0  0  0  0
    6.2937   -6.1711   27.7561 C   0  0  0  0  0  0  0  0  0  0  0  0
    8.1719   -1.6687   23.6904 C   0  0  0  0  0  0  0  0  0  0  0  0
    9.4847   -3.6593   22.9082 C   0  0  0  0  0  0  0  0  0  0  0  0
    7.0837   -2.6052   24.2166 C   0  0  0  0  0  0  0  0  0  0  0  0
    8.3747   -4.5721   23.4230 C   0  0  0  0  0  0  0  0  0  0  0  0
    8.9321   -2.2873   22.5163 C   0  0  0  0  0  0  0  0  0  0  0  0
   11.9106    1.7338   25.3129 C   0  0  0  0  0  0  0  0  0  0  0  0
    7.6534   -3.9211   24.5235 N   0  0  0  0  0  0  0  0  0  0  0  0
    6.0617   -6.0568   30.4090 N   0  0  0  0  0  0  0  0  0  0  0  0
    9.9909   -1.4125   22.0767 N   0  0  0  0  0  0  0  0  0  0  0  0
    4.2817   -7.2671   28.9905 O   0  0  0  0  0  0  0  0  0  0  0  0
    6.5684   -8.2951   29.2385 O   0  0  0  0  0  0  0  0  0  0  0  0
    5.7249   -7.1149   29.1104 S   0  0  0  0  0  0  0  0  0  0  0  0
    5.2692   -5.5995   30.8760 H   0  0  0  0  0  0  0  0  0  0  0  0
    6.8320   -6.3018   31.0430 H   0  0  0  0  0  0  0  0  0  0  0  0
    9.9511   -1.0652   21.1284 H   0  0  0  0  0  0  0  0  0  0  0  0
  1  2  2  0  0  0  0
  1  5  1  0  0  0  0
  2  9  1  0  0  0  0
  3  6  2  0  0  0  0
  3 10  1  0  0  0  0
  4  7  1  0  0  0  0
  4 10  2  0  0  0  0
  5 11  2  0  0  0  0
  6 12  1  0  0  0  0
  7 12  2  0  0  0  0
  8  9  2  0  0  0  0
  8 11  1  0  0  0  0
  9 18  1  0  0  0  0
 10 19  1  0  0  0  0
 11 21  1  0  0  0  0
 12 24  1  0  0  0  0
 13 15  1  0  0  0  0
 13 17  1  0  0  0  0
 14 16  1  0  0  0  0
 14 17  1  0  0  0  0
 15 19  1  0  0  0  0
 16 19  1  0  0  0  0
 17 21  1  0  0  0  0
 20 24  1  0  0  0  0
 22 24  2  0  0  0  0
 23 24  2  0  0  0  0
 20 25  1  0  0  0  0
 20 26  1  0  0  0  0
 21 27  1  0  0  0  0
M  END

> <original SMILES>

Cc1cccc(NC2CCN(c3ccc(S(N)(=O)=O)cc3)CC2)c1

> <ref_mols>

x0072_0,x0104_0,x0107_0,x0161_0,x0165_0

> <ref_pdb>

receptors/Mpro-x0165-protein.pdb

> <Chemgauss4>

0.075671

> <binding_free_energy>

-0.5966220800000457

> <binding_std_error>

3.4088425341344806

$$$$
DAR-DIA-23aa0b97-16
  -OEChem-05122002103D

 18 19  0     0  0  0  0  0  0999 V2000
    5.4997    1.2125   18.3664 C   0  0  0  0  0  0  0  0  0  0  0  0
    5.9133    0.8137   19.6326 C   0  0  0  0  0  0  0  0  0  0  0  0
   11.1982   -0.7244   22.7104 C   0  0  0  0  0  0  0  0  0  0  0  0
    6.2757    0.8359   17.2821 C   0  0  0  0  0  0  0  0  0  0  0  0
   10.0564   -0.3774   24.7677 C   0  0  0  0  0  0  0  0  0  0  0  0
    7.7794   -0.2641   18.6265 C   0  0  0  0  0  0  0  0  0  0  0  0
   12.2775    0.1915   24.6215 C   0  0  0  0  0  0  0  0  0  0  0  0
   10.0251   -0.8105   23.4519 C   0  0  0  0  0  0  0  0  0  0  0  0
    7.0739    0.0611   19.7738 C   0  0  0  0  0  0  0  0  0  0  0  0
   12.3503   -0.2151   23.2989 C   0  0  0  0  0  0  0  0  0  0  0  0
    8.6539   -1.1115   21.3466 C   0  0  0  0  0  0  0  0  0  0  0  0
    8.7761   -1.3503   22.8510 C   0  0  0  0  0  0  0  0  0  0  0  0
    7.4090    0.1052   17.3799 N   0  0  0  0  0  0  0  0  0  0  0  0
   11.1562    0.1232   25.3737 N   0  0  0  0  0  0  0  0  0  0  0  0
    7.5202   -0.3593   21.0493 N   0  0  0  0  0  0  0  0  0  0  0  0
    9.4805   -1.5537   20.5552 O   0  0  0  0  0  0  0  0  0  0  0  0
   13.8148   -0.0918   22.4156 Cl  0  0  0  0  0  0  0  0  0  0  0  0
    6.9458   -0.0792   21.8416 H   0  0  0  0  0  0  0  0  0  0  0  0
  1  2  2  0  0  0  0
  1  4  1  0  0  0  0
  2  9  1  0  0  0  0
  3  8  2  0  0  0  0
  3 10  1  0  0  0  0
  4 13  2  0  0  0  0
  5  8  1  0  0  0  0
  5 14  2  0  0  0  0
  6  9  2  0  0  0  0
  6 13  1  0  0  0  0
  7 10  2  0  0  0  0
  7 14  1  0  0  0  0
  8 12  1  0  0  0  0
  9 15  1  0  0  0  0
 10 17  1  0  0  0  0
 11 12  1  0  0  0  0
 11 15  1  0  0  0  0
 11 16  2  0  0  0  0
 15 18  1  0  0  0  0
M  END

> <original SMILES>

O=C(Cc1cncc(Cl)c1)Nc1cccnc1

> <ref_mols>

x0104_0,x0305_0,x0434_0,x0678_0,x0995_0,x1093_0,x1249_0

> <ref_pdb>

receptors/Mpro-x1249-protein.pdb

> <Chemgauss4>

-4.31569

> <binding_free_energy>

-0.5502299873912762

> <binding_std_error>

3.6266953734871064

$$$$
DAR-DIA-842b4336-1
  -OEChem-05122002103D

 17 18  0     0  0  0  0  0  0999 V2000
    5.6753    0.8017   19.1846 C   0  0  0  0  0  0  0  0  0  0  0  0
    6.5514    0.6249   20.2496 C   0  0  0  0  0  0  0  0  0  0  0  0
   13.0444   -1.0357   21.7510 C   0  0  0  0  0  0  0  0  0  0  0  0
    6.1629    0.6003   17.9034 C   0  0  0  0  0  0  0  0  0  0  0  0
    8.2591    0.0799   18.6865 C   0  0  0  0  0  0  0  0  0  0  0  0
   14.2253   -1.3170   22.4021 C   0  0  0  0  0  0  0  0  0  0  0  0
   12.4187   -0.7470   23.9708 C   0  0  0  0  0  0  0  0  0  0  0  0
    7.8698    0.2572   20.0044 C   0  0  0  0  0  0  0  0  0  0  0  0
   11.9978   -0.7053   22.6597 C   0  0  0  0  0  0  0  0  0  0  0  0
   10.1374   -0.2977   20.9888 C   0  0  0  0  0  0  0  0  0  0  0  0
    7.4367    0.2427   17.6259 N   0  0  0  0  0  0  0  0  0  0  0  0
    8.7703    0.0730   21.0508 N   0  0  0  0  0  0  0  0  0  0  0  0
   10.6754   -0.3708   22.2836 N   0  0  0  0  0  0  0  0  0  0  0  0
   10.7529   -0.5203   19.9511 O   0  0  0  0  0  0  0  0  0  0  0  0
   14.0695   -1.1826   24.1021 S   0  0  0  0  0  0  0  0  0  0  0  0
    8.3937    0.2262   21.9934 H   0  0  0  0  0  0  0  0  0  0  0  0
   10.0418   -0.1590   23.0502 H   0  0  0  0  0  0  0  0  0  0  0  0
  1  2  2  0  0  0  0
  1  4  1  0  0  0  0
  2  8  1  0  0  0  0
  3  6  2  0  0  0  0
  3  9  1  0  0  0  0
  4 11  2  0  0  0  0
  5  8  2  0  0  0  0
  5 11  1  0  0  0  0
  6 15  1  0  0  0  0
  7  9  2  0  0  0  0
  7 15  1  0  0  0  0
  8 12  1  0  0  0  0
  9 13  1  0  0  0  0
 10 12  1  0  0  0  0
 10 13  1  0  0  0  0
 10 14  2  0  0  0  0
 12 16  1  0  0  0  0
 13 17  1  0  0  0  0
M  END

> <original SMILES>

O=C(Nc1cccnc1)Nc1ccsc1

> <ref_mols>

x0434_0,x0678_0,x1093_0

> <ref_pdb>

receptors/protein-0387.pdb

> <Chemgauss4>

-4.53578996658325

> <binding_free_energy>

-0.4203154059518255

> <binding_std_error>

2.3598284693404836

$$$$
LIZ-THE-57c545eb-1
  -OEChem-05122002103D

 17 17  0     0  0  0  0  0  0999 V2000
   10.3276   -2.4369   23.4281 C   0  0  0  0  0  0  0  0  0  0  0  0
   10.8665   -4.1044   25.0913 C   0  0  0  0  0  0  0  0  0  0  0  0
    9.2966   -3.2461   22.9508 C   0  0  0  0  0  0  0  0  0  0  0  0
    9.8354   -4.9136   24.6140 C   0  0  0  0  0  0  0  0  0  0  0  0
   11.1126   -2.8661   24.4983 C   0  0  0  0  0  0  0  0  0  0  0  0
    9.0505   -4.4844   23.5438 C   0  0  0  0  0  0  0  0  0  0  0  0
   12.5868    0.3230   24.7103 C   0  0  0  0  0  0  0  0  0  0  0  0
   14.0802   -2.5588   26.3658 C   0  0  0  0  0  0  0  0  0  0  0  0
   11.8708   -0.7231   25.4949 C   0  0  0  0  0  0  0  0  0  0  0  0
   13.5231   -2.5277   24.9833 C   0  0  0  0  0  0  0  0  0  0  0  0
    7.1455   -4.5304   21.6800 N   0  0  0  0  0  0  0  0  0  0  0  0
   12.1553   -2.0482   24.9813 N   0  0  0  0  0  0  0  0  0  0  0  0
    8.3490   -6.7015   22.3752 O   0  0  0  0  0  0  0  0  0  0  0  0
    6.7442   -5.6123   23.9833 O   0  0  0  0  0  0  0  0  0  0  0  0
    7.7606   -5.4983   22.9466 S   0  0  0  0  0  0  0  0  0  0  0  0
    7.3238   -4.8307   20.7138 H   0  0  0  0  0  0  0  0  0  0  0  0
    6.2290   -4.0862   21.8142 H   0  0  0  0  0  0  0  0  0  0  0  0
  1  3  2  0  0  0  0
  1  5  1  0  0  0  0
  2  4  1  0  0  0  0
  2  5  2  0  0  0  0
  3  6  1  0  0  0  0
  4  6  2  0  0  0  0
  5 12  1  0  0  0  0
  6 15  1  0  0  0  0
  7  9  1  0  0  0  0
  8 10  1  0  0  0  0
  9 12  1  0  0  0  0
 10 12  1  0  0  0  0
 11 15  1  0  0  0  0
 13 15  2  0  0  0  0
 14 15  2  0  0  0  0
 11 16  1  0  0  0  0
 11 17  1  0  0  0  0
M  END

> <original SMILES>

CCN(CC)c1ccc(S(N)(=O)=O)cc1

> <ref_mols>

x0161_0

> <ref_pdb>

receptors/Mpro-x0161_0.pdb

> <Chemgauss4>

-7.782414

> <binding_free_energy>

-0.3956906663265194

> <binding_std_error>

3.779647535534883

$$$$
DAR-DIA-23aa0b97-4
  -OEChem-05122002103D

 19 20  0     0  0  0  0  0  0999 V2000
   14.4585   -2.0070   26.3366 C   0  0  0  0  0  0  0  0  0  0  0  0
   12.2892   -0.1160   23.9756 C   0  0  0  0  0  0  0  0  0  0  0  0
    7.5017   -6.3099   21.7085 C   0  0  0  0  0  0  0  0  0  0  0  0
   13.3899   -0.4856   24.7485 C   0  0  0  0  0  0  0  0  0  0  0  0
    7.9296   -5.6094   22.8307 C   0  0  0  0  0  0  0  0  0  0  0  0
   11.1286   -0.8894   23.9999 C   0  0  0  0  0  0  0  0  0  0  0  0
   12.1697   -2.4022   25.5698 C   0  0  0  0  0  0  0  0  0  0  0  0
    6.4001   -5.8248   21.0221 C   0  0  0  0  0  0  0  0  0  0  0  0
    6.1622   -4.0588   22.4723 C   0  0  0  0  0  0  0  0  0  0  0  0
   13.3302   -1.6287   25.5456 C   0  0  0  0  0  0  0  0  0  0  0  0
    7.2525   -4.4613   23.2267 C   0  0  0  0  0  0  0  0  0  0  0  0
   11.0689   -2.0326   24.7969 C   0  0  0  0  0  0  0  0  0  0  0  0
    8.7085   -2.5947   24.1206 C   0  0  0  0  0  0  0  0  0  0  0  0
    7.6917   -3.6801   24.4373 C   0  0  0  0  0  0  0  0  0  0  0  0
   15.3748   -2.3141   26.9791 N   0  0  0  0  0  0  0  0  0  0  0  0
    5.7169   -4.7133   21.3764 N   0  0  0  0  0  0  0  0  0  0  0  0
    9.9076   -2.8052   24.8219 N   0  0  0  0  0  0  0  0  0  0  0  0
    8.4651   -1.6739   23.3472 O   0  0  0  0  0  0  0  0  0  0  0  0
    9.9322   -3.6322   25.4297 H   0  0  0  0  0  0  0  0  0  0  0  0
  1 10  1  0  0  0  0
  1 15  3  0  0  0  0
  2  4  2  0  0  0  0
  2  6  1  0  0  0  0
  3  5  2  0  0  0  0
  3  8  1  0  0  0  0
  4 10  1  0  0  0  0
  5 11  1  0  0  0  0
  6 12  2  0  0  0  0
  7 10  2  0  0  0  0
  7 12  1  0  0  0  0
  8 16  2  0  0  0  0
  9 11  2  0  0  0  0
  9 16  1  0  0  0  0
 11 14  1  0  0  0  0
 12 17  1  0  0  0  0
 13 14  1  0  0  0  0
 13 17  1  0  0  0  0
 13 18  2  0  0  0  0
 17 19  1  0  0  0  0
M  END

> <original SMILES>

N#Cc1cccc(NC(=O)Cc2cccnc2)c1

> <ref_mols>

x0104_0,x0305_0,x0434_0,x0678_0,x0995_0,x1093_0,x1249_0

> <ref_pdb>

receptors/Mpro-x1093-protein.pdb

> <Chemgauss4>

-7.883829

> <binding_free_energy>

-0.338403180769248

> <binding_std_error>

5.0502570929616954

$$$$
AMD-UAU-3d234461-2
  -OEChem-05122002103D

 19 20  0     0  0  0  0  0  0999 V2000
   11.3355    1.7341   23.9100 C   0  0  0  0  0  0  0  0  0  0  0  0
   11.8293   -0.6546   23.6808 C   0  0  0  0  0  0  0  0  0  0  0  0
   11.6843    3.0664   23.6864 C   0  0  0  0  0  0  0  0  0  0  0  0
   12.6649   -1.6774   23.2312 C   0  0  0  0  0  0  0  0  0  0  0  0
   13.6998    2.3519   22.5663 C   0  0  0  0  0  0  0  0  0  0  0  0
   14.1936   -0.0369   22.3370 C   0  0  0  0  0  0  0  0  0  0  0  0
   12.1646    0.6919   23.4645 C   0  0  0  0  0  0  0  0  0  0  0  0
   13.3645    1.0054   22.7826 C   0  0  0  0  0  0  0  0  0  0  0  0
   12.8642    3.3746   23.0159 C   0  0  0  0  0  0  0  0  0  0  0  0
   13.8448   -1.3691   22.5606 C   0  0  0  0  0  0  0  0  0  0  0  0
   13.2249    4.7643   22.7827 C   0  0  0  0  0  0  0  0  0  0  0  0
   15.0121    6.3263   22.4123 N   0  0  0  0  0  0  0  0  0  0  0  0
   14.5908    5.0327   22.6607 N   0  0  0  0  0  0  0  0  0  0  0  0
   12.3806    5.6678   22.6719 O   0  0  0  0  0  0  0  0  0  0  0  0
   14.6595   -2.3677   22.1227 O   0  0  0  0  0  0  0  0  0  0  0  0
   15.8465    6.2577   21.8311 H   0  0  0  0  0  0  0  0  0  0  0  0
   14.2987    6.7612   21.8288 H   0  0  0  0  0  0  0  0  0  0  0  0
   15.2687    4.2840   22.7537 H   0  0  0  0  0  0  0  0  0  0  0  0
   15.4374   -1.9960   21.6771 H   0  0  0  0  0  0  0  0  0  0  0  0
  1  3  2  0  0  0  0
  1  7  1  0  0  0  0
  2  4  2  0  0  0  0
  2  7  1  0  0  0  0
  3  9  1  0  0  0  0
  4 10  1  0  0  0  0
  5  8  1  0  0  0  0
  5  9  2  0  0  0  0
  6  8  1  0  0  0  0
  6 10  2  0  0  0  0
  7  8  2  0  0  0  0
  9 11  1  0  0  0  0
 10 15  1  0  0  0  0
 11 13  1  0  0  0  0
 11 14  2  0  0  0  0
 12 13  1  0  0  0  0
 12 16  1  0  0  0  0
 12 17  1  0  0  0  0
 13 18  1  0  0  0  0
 15 19  1  0  0  0  0
M  END

> <original SMILES>

NNC(=O)c1ccc2ccc(O)cc2c1

> <ref_mols>

x0072_0,x0387_0

> <ref_pdb>

receptors/protein-0387.pdb

> <Chemgauss4>

-6.04354906082153

> <binding_free_energy>

-0.3129746376211102

> <binding_std_error>

5.4443468420734344

$$$$
JOH-UNI-9dc98897-9
  -OEChem-05122002103D

 16 17  0     1  0  0  0  0  0999 V2000
   13.0287   -1.2950   25.5392 C   0  0  0  0  0  0  0  0  0  0  0  0
   11.9704   -3.5034   25.4759 C   0  0  0  0  0  0  0  0  0  0  0  0
   10.8969   -4.2817   25.0573 C   0  0  0  0  0  0  0  0  0  0  0  0
   11.9632   -2.1576   25.1465 C   0  0  0  0  0  0  0  0  0  0  0  0
    9.8636   -3.6986   24.3324 C   0  0  0  0  0  0  0  0  0  0  0  0
    9.9506   -2.3440   24.0543 C   0  0  0  0  0  0  0  0  0  0  0  0
    7.9745   -5.9595   22.0509 C   0  0  0  0  0  0  0  0  0  0  0  0
    8.5052   -4.5894   22.4738 C   0  0  0  0  0  0  0  0  0  0  0  0
    7.9672   -5.1699   24.9130 C   0  0  0  0  0  0  0  0  0  0  0  0
    6.4922   -6.1496   22.3385 C   0  0  0  0  0  0  0  0  0  0  0  0
    6.4916   -5.2421   24.5390 C   0  0  0  0  0  0  0  0  0  0  0  0
   13.8958   -0.5931   25.8588 N   0  0  0  0  0  0  0  0  0  0  0  0
   10.9774   -1.5557   24.4440 N   0  0  0  0  0  0  0  0  0  0  0  0
    8.7822   -4.4815   23.9082 N   0  0  3  0  0  0  0  0  0  0  0  0
    6.2237   -6.3679   23.7150 O   0  0  0  0  0  0  0  0  0  0  0  0
    8.7388   -1.5038   23.1661 Cl  0  0  0  0  0  0  0  0  0  0  0  0
  1  4  1  0  0  0  0
  1 12  3  0  0  0  0
  2  3  2  0  0  0  0
  2  4  1  0  0  0  0
  3  5  1  0  0  0  0
  4 13  2  0  0  0  0
  5  6  2  0  0  0  0
  5 14  1  0  0  0  0
  6 13  1  0  0  0  0
  6 16  1  0  0  0  0
  7  8  1  0  0  0  0
  7 10  1  0  0  0  0
  8 14  1  0  0  0  0
  9 11  1  0  0  0  0
  9 14  1  0  0  0  0
 10 15  1  0  0  0  0
 11 15  1  0  0  0  0
M  END

> <original SMILES>

N#Cc1ccc(N2CCCOCC2)c(Cl)n1

> <ref_mols>

x1077_0

> <ref_pdb>

receptors/Mpro-x1077-protein.pdb

> <Chemgauss4>

-6.321253

> <binding_free_energy>

-0.29638673999998844

> <binding_std_error>

2.2875355410310148

$$$$
ALV-UNI-7ff1a6f9-11
  -OEChem-05122002103D

 23 26  0     0  0  0  0  0  0999 V2000
   14.7461   -1.2862   23.7673 C   0  0  0  0  0  0  0  0  0  0  0  0
   13.8060   -0.2845   23.9820 C   0  0  0  0  0  0  0  0  0  0  0  0
    9.9148   -1.3585   25.0241 C   0  0  0  0  0  0  0  0  0  0  0  0
    8.4274   -0.7824   23.2095 C   0  0  0  0  0  0  0  0  0  0  0  0
    9.1716   -2.5137   25.2666 C   0  0  0  0  0  0  0  0  0  0  0  0
    7.6842   -1.9376   23.4519 C   0  0  0  0  0  0  0  0  0  0  0  0
   14.4899   -2.2129   22.7696 C   0  0  0  0  0  0  0  0  0  0  0  0
   12.4922   -1.2141   22.2310 C   0  0  0  0  0  0  0  0  0  0  0  0
    9.5427   -0.4928   23.9955 C   0  0  0  0  0  0  0  0  0  0  0  0
   12.6547   -0.2407   23.2036 C   0  0  0  0  0  0  0  0  0  0  0  0
   11.6669    0.7794   23.4015 C   0  0  0  0  0  0  0  0  0  0  0  0
    8.0563   -2.8032   24.4805 C   0  0  0  0  0  0  0  0  0  0  0  0
   10.3106    0.7010   23.7451 C   0  0  0  0  0  0  0  0  0  0  0  0
   11.9206    2.1259   23.2725 C   0  0  0  0  0  0  0  0  0  0  0  0
   10.6315    4.1684   23.4960 C   0  0  0  0  0  0  0  0  0  0  0  0
   12.9371    4.1108   22.9217 C   0  0  0  0  0  0  0  0  0  0  0  0
   11.7061    4.9078   23.1910 C   0  0  0  0  0  0  0  0  0  0  0  0
   11.7626    6.3908   23.1026 C   0  0  0  0  0  0  0  0  0  0  0  0
   13.3832   -2.2026   21.9932 N   0  0  0  0  0  0  0  0  0  0  0  0
    9.7278    1.8961   23.8332 N   0  0  0  0  0  0  0  0  0  0  0  0
   13.0515    2.8175   22.9556 N   0  0  0  0  0  0  0  0  0  0  0  0
   10.7183    2.7796   23.5419 N   0  0  0  0  0  0  0  0  0  0  0  0
    7.3426   -3.9126   24.7134 F   0  0  0  0  0  0  0  0  0  0  0  0
  1  2  2  0  0  0  0
  1  7  1  0  0  0  0
  2 10  1  0  0  0  0
  3  5  2  0  0  0  0
  3  9  1  0  0  0  0
  4  6  1  0  0  0  0
  4  9  2  0  0  0  0
  5 12  1  0  0  0  0
  6 12  2  0  0  0  0
  7 19  2  0  0  0  0
  8 10  2  0  0  0  0
  8 19  1  0  0  0  0
  9 13  1  0  0  0  0
 10 11  1  0  0  0  0
 11 13  1  0  0  0  0
 11 14  2  0  0  0  0
 12 23  1  0  0  0  0
 13 20  2  0  0  0  0
 14 21  1  0  0  0  0
 14 22  1  0  0  0  0
 15 17  2  0  0  0  0
 15 22  1  0  0  0  0
 16 17  1  0  0  0  0
 16 21  2  0  0  0  0
 17 18  1  0  0  0  0
 20 22  1  0  0  0  0
M  END

> <original SMILES>

Cc1cnc2c(-c3cccnc3)c(-c3ccc(F)cc3)nn2c1

> <ref_mols>

x0395_0,x0426_0,x0434_0,x0540_0,x0678_0,x0830_0,x1093_0

> <ref_pdb>

receptors/Mpro-x0678-protein.pdb

> <Chemgauss4>

-8.116777

> <binding_free_energy>

-0.28824372787877905

> <binding_std_error>

4.002522254167481

$$$$
JOH-UNI-9dc98897-10
  -OEChem-05122002103D

 19 20  0     1  0  0  0  0  0999 V2000
    6.5715   -2.9432   21.1429 C   0  0  0  0  0  0  0  0  0  0  0  0
    8.4482   -1.3710   21.0686 C   0  0  0  0  0  0  0  0  0  0  0  0
    9.6052   -0.8910   21.6721 C   0  0  0  0  0  0  0  0  0  0  0  0
    7.7656   -2.3982   21.7000 C   0  0  0  0  0  0  0  0  0  0  0  0
   10.0380   -1.4449   22.8718 C   0  0  0  0  0  0  0  0  0  0  0  0
    9.2841   -2.4687   23.4226 C   0  0  0  0  0  0  0  0  0  0  0  0
   12.4196    0.9078   24.6475 C   0  0  0  0  0  0  0  0  0  0  0  0
   11.1135    0.1324   24.4501 C   0  0  0  0  0  0  0  0  0  0  0  0
   12.4891   -1.6239   23.2579 C   0  0  0  0  0  0  0  0  0  0  0  0
   13.0995    1.3104   23.3424 C   0  0  0  0  0  0  0  0  0  0  0  0
   13.3187   -0.8191   22.2638 C   0  0  0  0  0  0  0  0  0  0  0  0
    9.6984   -3.1047   24.7097 C   0  0  0  0  0  0  0  0  0  0  0  0
    5.5998   -3.3869   20.6895 N   0  0  0  0  0  0  0  0  0  0  0  0
    8.1551   -2.9614   22.8656 N   0  0  0  0  0  0  0  0  0  0  0  0
   11.1999   -0.9688   23.4870 N   0  0  3  0  0  0  0  0  0  0  0  0
   13.9740    0.2877   22.8737 O   0  0  0  0  0  0  0  0  0  0  0  0
   10.8426   -2.5771   25.2344 F   0  0  0  0  0  0  0  0  0  0  0  0
    8.7646   -2.9903   25.6983 F   0  0  0  0  0  0  0  0  0  0  0  0
    9.9352   -4.4415   24.5791 F   0  0  0  0  0  0  0  0  0  0  0  0
  1  4  1  0  0  0  0
  1 13  3  0  0  0  0
  2  3  2  0  0  0  0
  2  4  1  0  0  0  0
  3  5  1  0  0  0  0
  4 14  2  0  0  0  0
  5  6  2  0  0  0  0
  5 15  1  0  0  0  0
  6 12  1  0  0  0  0
  6 14  1  0  0  0  0
  7  8  1  0  0  0  0
  7 10  1  0  0  0  0
  8 15  1  0  0  0  0
  9 11  1  0  0  0  0
  9 15  1  0  0  0  0
 10 16  1  0  0  0  0
 11 16  1  0  0  0  0
 12 17  1  0  0  0  0
 12 18  1  0  0  0  0
 12 19  1  0  0  0  0
M  END

> <original SMILES>

N#Cc1ccc(N2CCCOCC2)c(C(F)(F)F)n1

> <ref_mols>

x1077_0

> <ref_pdb>

receptors/Mpro-x1077-protein.pdb

> <Chemgauss4>

-5.039097

> <binding_free_energy>

-0.23668286530611482

> <binding_std_error>

3.890907705994864

$$$$
ALV-UNI-7ff1a6f9-19
  -OEChem-05122002103D

 26 29  0     0  0  0  0  0  0999 V2000
   10.6608    3.4097   24.0759 C   0  0  0  0  0  0  0  0  0  0  0  0
   12.8047    3.7360   23.0109 C   0  0  0  0  0  0  0  0  0  0  0  0
   10.3874    4.7709   23.9425 C   0  0  0  0  0  0  0  0  0  0  0  0
   12.5313    5.0972   22.8774 C   0  0  0  0  0  0  0  0  0  0  0  0
   10.1677    1.1406   21.1710 C   0  0  0  0  0  0  0  0  0  0  0  0
    9.0312   -0.0881   22.8004 C   0  0  0  0  0  0  0  0  0  0  0  0
   11.8696    2.8922   23.6102 C   0  0  0  0  0  0  0  0  0  0  0  0
   10.2086    0.5078   22.3967 C   0  0  0  0  0  0  0  0  0  0  0  0
   11.3225    5.6147   23.3432 C   0  0  0  0  0  0  0  0  0  0  0  0
   12.1504    1.4945   23.7474 C   0  0  0  0  0  0  0  0  0  0  0  0
   11.4073    0.4719   23.2064 C   0  0  0  0  0  0  0  0  0  0  0  0
   13.1431   -0.2990   24.3534 C   0  0  0  0  0  0  0  0  0  0  0  0
    7.9834    0.5750   20.8953 C   0  0  0  0  0  0  0  0  0  0  0  0
   13.9667   -1.3411   24.8725 C   0  0  0  0  0  0  0  0  0  0  0  0
   12.4942   -2.9819   23.8157 C   0  0  0  0  0  0  0  0  0  0  0  0
   11.7155   -2.0044   23.3245 C   0  0  0  0  0  0  0  0  0  0  0  0
   13.6646   -2.6338   24.6206 C   0  0  0  0  0  0  0  0  0  0  0  0
   14.4883   -3.7726   25.1384 C   0  0  0  0  0  0  0  0  0  0  0  0
    9.0681    1.1938   20.3911 N   0  0  0  0  0  0  0  0  0  0  0  0
    7.8955   -0.0737   22.0721 N   0  0  0  0  0  0  0  0  0  0  0  0
   13.2221    1.0122   24.4552 N   0  0  0  0  0  0  0  0  0  0  0  0
   12.0420   -0.6801   23.5941 N   0  0  0  0  0  0  0  0  0  0  0  0
    6.8133    0.6095   20.1055 N   0  0  0  0  0  0  0  0  0  0  0  0
   11.0598    6.9219   23.2151 F   0  0  0  0  0  0  0  0  0  0  0  0
    6.8212    1.1202   19.2469 H   0  0  0  0  0  0  0  0  0  0  0  0
    5.9734    0.2035   20.4634 H   0  0  0  0  0  0  0  0  0  0  0  0
  1  3  2  0  0  0  0
  1  7  1  0  0  0  0
  2  4  1  0  0  0  0
  2  7  2  0  0  0  0
  3  9  1  0  0  0  0
  4  9  2  0  0  0  0
  5  8  1  0  0  0  0
  5 19  2  0  0  0  0
  6  8  2  0  0  0  0
  6 20  1  0  0  0  0
  7 10  1  0  0  0  0
  8 11  1  0  0  0  0
  9 24  1  0  0  0  0
 10 11  2  0  0  0  0
 10 21  1  0  0  0  0
 11 22  1  0  0  0  0
 12 14  1  0  0  0  0
 12 21  2  0  0  0  0
 12 22  1  0  0  0  0
 13 19  1  0  0  0  0
 13 20  2  0  0  0  0
 13 23  1  0  0  0  0
 14 17  2  0  0  0  0
 15 16  2  0  0  0  0
 15 17  1  0  0  0  0
 16 22  1  0  0  0  0
 17 18  1  0  0  0  0
 23 25  1  0  0  0  0
 23 26  1  0  0  0  0
M  END

> <original SMILES>

Cc1ccn2c(-c3cnc(N)nc3)c(-c3ccc(F)cc3)nc2c1

> <ref_mols>

x0395_0,x0426_0,x0434_0,x0540_0,x0678_0,x0830_0,x1093_0

> <ref_pdb>

receptors/Mpro-x0540-protein.pdb

> <Chemgauss4>

-2.990337

> <binding_free_energy>

-0.19190957171718281

> <binding_std_error>

2.307022595119468

$$$$
WAR-XCH-b72a1bbc-34
  -OEChem-05122002103D

 28 30  0     0  0  0  0  0  0999 V2000
   11.2264   -6.2368   26.0689 C   0  0  0  0  0  0  0  0  0  0  0  0
   10.3431   -5.1006   24.0918 C   0  0  0  0  0  0  0  0  0  0  0  0
    9.1759   -4.9102   26.1985 C   0  0  0  0  0  0  0  0  0  0  0  0
    2.5744   -8.4381   24.9749 C   0  0  0  0  0  0  0  0  0  0  0  0
    1.9641   -8.4739   22.6375 C   0  0  0  0  0  0  0  0  0  0  0  0
    9.3807   -4.2933   23.4856 C   0  0  0  0  0  0  0  0  0  0  0  0
    8.2135   -4.1028   25.5924 C   0  0  0  0  0  0  0  0  0  0  0  0
    1.5875   -9.3855   25.2471 C   0  0  0  0  0  0  0  0  0  0  0  0
    0.9772   -9.4213   22.9097 C   0  0  0  0  0  0  0  0  0  0  0  0
   10.2407   -5.4092   25.4483 C   0  0  0  0  0  0  0  0  0  0  0  0
    2.7627   -7.9823   23.6701 C   0  0  0  0  0  0  0  0  0  0  0  0
    8.3159   -3.7943   24.2358 C   0  0  0  0  0  0  0  0  0  0  0  0
    0.7889   -9.8771   24.2145 C   0  0  0  0  0  0  0  0  0  0  0  0
    4.7384   -4.8100   23.7927 C   0  0  0  0  0  0  0  0  0  0  0  0
    5.4236   -6.1666   21.8057 C   0  0  0  0  0  0  0  0  0  0  0  0
    4.1219   -6.0563   24.4278 C   0  0  0  0  0  0  0  0  0  0  0  0
    4.8104   -7.4093   22.4489 C   0  0  0  0  0  0  0  0  0  0  0  0
    5.9025   -5.1665   22.8631 C   0  0  0  0  0  0  0  0  0  0  0  0
    6.4777   -3.9141   22.2062 C   0  0  0  0  0  0  0  0  0  0  0  0
   12.0269   -6.9090   26.5730 N   0  0  0  0  0  0  0  0  0  0  0  0
    3.7531   -7.0314   23.3964 N   0  0  0  0  0  0  0  0  0  0  0  0
    0.4290  -12.5148   24.3481 N   0  0  0  0  0  0  0  0  0  0  0  0
   -0.8295  -10.9392   25.9541 O   0  0  0  0  0  0  0  0  0  0  0  0
   -1.4654  -10.9797   23.5165 O   0  0  0  0  0  0  0  0  0  0  0  0
    7.0962   -2.7722   23.4671 S   0  0  0  0  0  0  0  0  0  0  0  0
   -0.4471  -11.0625   24.5544 S   0  0  0  0  0  0  0  0  0  0  0  0
    0.6579  -13.0628   25.1864 H   0  0  0  0  0  0  0  0  0  0  0  0
    0.2240  -13.0880   23.5207 H   0  0  0  0  0  0  0  0  0  0  0  0
  1 10  1  0  0  0  0
  1 20  3  0  0  0  0
  2  6  2  0  0  0  0
  2 10  1  0  0  0  0
  3  7  1  0  0  0  0
  3 10  2  0  0  0  0
  4  8  2  0  0  0  0
  4 11  1  0  0  0  0
  5  9  1  0  0  0  0
  5 11  2  0  0  0  0
  6 12  1  0  0  0  0
  7 12  2  0  0  0  0
  8 13  1  0  0  0  0
  9 13  2  0  0  0  0
 11 21  1  0  0  0  0
 12 25  1  0  0  0  0
 13 26  1  0  0  0  0
 14 16  1  0  0  0  0
 14 18  1  0  0  0  0
 15 17  1  0  0  0  0
 15 18  1  0  0  0  0
 16 21  1  0  0  0  0
 17 21  1  0  0  0  0
 18 19  1  0  0  0  0
 19 25  1  0  0  0  0
 22 26  1  0  0  0  0
 23 26  2  0  0  0  0
 24 26  2  0  0  0  0
 22 27  1  0  0  0  0
 22 28  1  0  0  0  0
M  END

> <original SMILES>

N#Cc1ccc(SCC2CCN(c3ccc(S(N)(=O)=O)cc3)CC2)cc1

> <ref_mols>

x0072_0,x0104_0,x0107_0,x0161_0,x0165_0

> <ref_pdb>

receptors/Mpro-x0165-protein.pdb

> <Chemgauss4>

-0.208317

> <binding_free_energy>

-0.15204556066806596

> <binding_std_error>

1.00890846726767

$$$$
