DAR-DIA-fc9-1
 OpenBabel03242009303D

 31 33  0  0  0  0  0  0  0  0999 V2000
   13.1659   -0.1260   22.5998 C   0  0  0  0  0  0  0  0  0  0  0  0
   12.4895    0.3830   23.7083 C   0  0  0  0  0  0  0  0  0  0  0  0
   12.7881   -1.3534   22.0553 C   0  0  0  0  0  0  0  0  0  0  0  0
    6.6174   -5.2839   28.1862 C   0  0  0  0  0  0  0  0  0  0  0  0
   11.4352   -0.3353   24.2725 C   0  0  0  0  0  0  0  0  0  0  0  0
   11.7339   -2.0718   22.6194 C   0  0  0  0  0  0  0  0  0  0  0  0
    7.0319   -4.6756   27.0067 C   0  0  0  0  0  0  0  0  0  0  0  0
    7.4707   -5.2332   29.2767 C   0  0  0  0  0  0  0  0  0  0  0  0
    9.0488   -4.0487   28.1000 C   0  0  0  0  0  0  0  0  0  0  0  0
   11.0574   -1.5627   23.7280 C   0  0  0  0  0  0  0  0  0  0  0  0
    8.2695   -4.0441   26.9543 C   0  0  0  0  0  0  0  0  0  0  0  0
    9.9593   -2.7556   25.6338 C   0  0  0  0  0  0  0  0  0  0  0  0
    8.7992   -2.6277   23.5717 C   0  0  0  0  0  0  0  0  0  0  0  0
    7.9466   -3.3962   24.5600 C   0  0  0  0  0  0  0  0  0  0  0  0
    8.6800   -4.6291   29.2640 N   0  0  0  0  0  0  0  0  0  0  0  0
   10.0028   -2.2810   24.2923 N   0  0  0  0  0  0  0  0  0  0  0  0
    8.7105   -3.4282   25.7900 N   0  0  0  0  0  0  0  0  0  0  0  0
   10.8251   -2.6152   26.4899 O   0  0  0  0  0  0  0  0  0  0  0  0
   13.9864    0.4334   22.1598 H   0  0  0  0  0  0  0  0  0  0  0  0
   12.7828    1.3390   24.1320 H   0  0  0  0  0  0  0  0  0  0  0  0
   13.3144   -1.7491   21.1915 H   0  0  0  0  0  0  0  0  0  0  0  0
    5.6567   -5.7820   28.2499 H   0  0  0  0  0  0  0  0  0  0  0  0
   10.9153    0.0715   25.1362 H   0  0  0  0  0  0  0  0  0  0  0  0
   11.4482   -3.0273   22.1865 H   0  0  0  0  0  0  0  0  0  0  0  0
    6.3833   -4.6996   26.1350 H   0  0  0  0  0  0  0  0  0  0  0  0
    7.1941   -5.6933   30.2196 H   0  0  0  0  0  0  0  0  0  0  0  0
   10.0243   -3.5719   28.1211 H   0  0  0  0  0  0  0  0  0  0  0  0
    9.0637   -3.2389   22.7026 H   0  0  0  0  0  0  0  0  0  0  0  0
    8.3044   -1.7095   23.2383 H   0  0  0  0  0  0  0  0  0  0  0  0
    6.9902   -2.8964   24.7454 H   0  0  0  0  0  0  0  0  0  0  0  0
    7.7658   -4.4232   24.2260 H   0  0  0  0  0  0  0  0  0  0  0  0
  1  2  1  0  0  0  0
  1  3  2  0  0  0  0
  1 19  1  0  0  0  0
  2  5  2  0  0  0  0
  2 20  1  0  0  0  0
  3  6  1  0  0  0  0
  3 21  1  0  0  0  0
  4  7  2  0  0  0  0
  4  8  1  0  0  0  0
  4 22  1  0  0  0  0
  5 10  1  0  0  0  0
  5 23  1  0  0  0  0
  6 10  2  0  0  0  0
  6 24  1  0  0  0  0
  7 11  1  0  0  0  0
  7 25  1  0  0  0  0
  8 15  2  0  0  0  0
  8 26  1  0  0  0  0
  9 11  2  0  0  0  0
  9 15  1  0  0  0  0
  9 27  1  0  0  0  0
 10 16  1  0  0  0  0
 11 17  1  0  0  0  0
 12 16  1  0  0  0  0
 12 17  1  0  0  0  0
 12 18  2  0  0  0  0
 13 14  1  0  0  0  0
 13 16  1  0  0  0  0
 13 28  1  0  0  0  0
 13 29  1  0  0  0  0
 14 17  1  0  0  0  0
 14 30  1  0  0  0  0
 14 31  1  0  0  0  0
M  END
>  <Chemgauss4 Score>
-4.62701082229614

>  <Number of Confs>
10

$$$$
