HEI-REL-0c9-2
 OpenBabel03242009303D

 48 50  0  0  1  0  0  0  0  0999 V2000
   10.9098   -4.0827   24.6333 C   0  0  0  0  0  0  0  0  0  0  0  0
    9.8029   -4.8414   25.0075 C   0  0  0  0  0  0  0  0  0  0  0  0
    8.3861   -2.9093   24.7101 C   0  0  0  0  0  0  0  0  0  0  0  0
   10.7625   -2.7277   24.3032 C   0  0  0  0  0  0  0  0  0  0  0  0
    9.4859   -2.1317   24.3182 C   0  0  0  0  0  0  0  0  0  0  0  0
    8.5422   -4.2541   25.0500 C   0  0  0  0  0  0  0  0  0  0  0  0
    6.0536    1.0493   18.6440 C   0  0  0  0  0  0  0  0  0  0  0  0
   11.9714   -1.9275   23.8873 C   0  0  0  0  0  0  0  0  0  0  0  0
   11.7292   -0.4286   24.0620 C   0  0  0  0  0  0  0  0  0  0  0  0
    6.9367    1.2080   21.0213 C   0  0  0  0  0  0  0  0  0  0  0  0
    7.4971   -0.7189   19.5938 C   0  0  0  0  0  0  0  0  0  0  0  0
    8.3914    1.2478   21.4929 C   0  0  0  0  0  0  0  0  0  0  0  0
    8.9412   -0.6383   20.0876 C   0  0  0  0  0  0  0  0  0  0  0  0
   10.3919    0.0119   23.4586 C   0  0  1  0  0  0  0  0  0  0  0  0
    4.8087    1.8184   19.0082 C   0  0  0  0  0  0  0  0  0  0  0  0
   10.3759   -0.0480   21.9323 C   0  0  0  0  0  0  0  0  0  0  0  0
    9.3038   -0.7934   23.9929 N   0  0  0  0  0  0  0  0  0  0  0  0
    6.8258    0.5753   19.7036 N   0  0  0  0  0  0  0  0  0  0  0  0
    8.9956   -0.0919   21.4514 N   0  0  0  0  0  0  0  0  0  0  0  0
    6.6389   -5.8121   24.0233 N   0  0  0  0  0  0  0  0  0  0  0  0
    6.3320    0.8793   17.4544 O   0  0  0  0  0  0  0  0  0  0  0  0
    7.6176   -6.3063   26.3564 O   0  0  0  0  0  0  0  0  0  0  0  0
    6.1345   -4.2940   26.0426 O   0  0  0  0  0  0  0  0  0  0  0  0
    7.1551   -5.1986   25.5321 S   0  0  0  0  0  0  0  0  0  0  0  0
   11.8893   -4.5536   24.5949 H   0  0  0  0  0  0  0  0  0  0  0  0
    9.9353   -5.8897   25.2604 H   0  0  0  0  0  0  0  0  0  0  0  0
    7.3968   -2.4568   24.7555 H   0  0  0  0  0  0  0  0  0  0  0  0
   12.8258   -2.2420   24.4991 H   0  0  0  0  0  0  0  0  0  0  0  0
   12.2172   -2.1281   22.8379 H   0  0  0  0  0  0  0  0  0  0  0  0
   11.7629   -0.1788   25.1372 H   0  0  0  0  0  0  0  0  0  0  0  0
   12.5571    0.1386   23.5965 H   0  0  0  0  0  0  0  0  0  0  0  0
    6.3257    0.6149   21.7130 H   0  0  0  0  0  0  0  0  0  0  0  0
    6.5316    2.2218   21.0200 H   0  0  0  0  0  0  0  0  0  0  0  0
    7.4796   -1.0781   18.5597 H   0  0  0  0  0  0  0  0  0  0  0  0
    6.9230   -1.4331   20.1969 H   0  0  0  0  0  0  0  0  0  0  0  0
    8.9572    1.9487   20.8722 H   0  0  0  0  0  0  0  0  0  0  0  0
    8.4051    1.6213   22.5196 H   0  0  0  0  0  0  0  0  0  0  0  0
    9.3581   -1.6484   20.0831 H   0  0  0  0  0  0  0  0  0  0  0  0
    9.5313   -0.0272   19.3986 H   0  0  0  0  0  0  0  0  0  0  0  0
   10.1999    1.0715   23.7585 H   0  0  0  0  0  0  0  0  0  0  0  0
    5.0542    2.8720   19.0919 H   0  0  0  0  0  0  0  0  0  0  0  0
    4.4277    1.4500   19.9553 H   0  0  0  0  0  0  0  0  0  0  0  0
    4.0618    1.6718   18.2347 H   0  0  0  0  0  0  0  0  0  0  0  0
   10.8799    0.8460   21.5671 H   0  0  0  0  0  0  0  0  0  0  0  0
   10.9126   -0.9487   21.6372 H   0  0  0  0  0  0  0  0  0  0  0  0
    8.4857   -0.3168   24.3760 H   0  0  0  0  0  0  0  0  0  0  0  0
    6.7839   -6.8114   23.8343 H   0  0  0  0  0  0  0  0  0  0  0  0
    5.7724   -5.4350   23.6206 H   0  0  0  0  0  0  0  0  0  0  0  0
  1  2  2  0  0  0  0
  1  4  1  0  0  0  0
  1 25  1  0  0  0  0
  2  6  1  0  0  0  0
  2 26  1  0  0  0  0
  3  5  1  0  0  0  0
  3  6  2  0  0  0  0
  3 27  1  0  0  0  0
  4  5  2  0  0  0  0
  4  8  1  0  0  0  0
  5 17  1  0  0  0  0
  6 24  1  0  0  0  0
  7 15  1  0  0  0  0
  7 18  1  0  0  0  0
  7 21  2  0  0  0  0
  8  9  1  0  0  0  0
  8 28  1  0  0  0  0
  8 29  1  0  0  0  0
  9 14  1  0  0  0  0
  9 30  1  0  0  0  0
  9 31  1  0  0  0  0
 10 12  1  0  0  0  0
 10 18  1  0  0  0  0
 10 32  1  0  0  0  0
 10 33  1  0  0  0  0
 11 13  1  0  0  0  0
 11 18  1  0  0  0  0
 11 34  1  0  0  0  0
 11 35  1  0  0  0  0
 12 19  1  0  0  0  0
 12 36  1  0  0  0  0
 12 37  1  0  0  0  0
 13 19  1  0  0  0  0
 13 38  1  0  0  0  0
 13 39  1  0  0  0  0
 14 16  1  0  0  0  0
 14 17  1  0  0  0  0
 14 40  1  1  0  0  0
 15 41  1  0  0  0  0
 15 42  1  0  0  0  0
 15 43  1  0  0  0  0
 16 19  1  0  0  0  0
 16 44  1  0  0  0  0
 16 45  1  0  0  0  0
 17 46  1  0  0  0  0
 20 24  1  0  0  0  0
 20 47  1  0  0  0  0
 20 48  1  0  0  0  0
 22 24  2  0  0  0  0
 23 24  2  0  0  0  0
M  END
>  <Chemgauss4 Score>
-6.00144577026367

>  <Number of Confs>
52

$$$$
