LIG(A-1101)
  -OEChem-04162022223D

 28 29  0     0  0  0  0  0  0999 V2000
    4.6520    8.1680   10.7410 N   0  0  0  0  0  0  0  0  0  0  0  0
    2.0470   10.0730    9.4640 C   0  0  0  0  0  0  0  0  0  0  0  0
    1.6470    9.5220   10.6820 O   0  0  0  0  0  0  0  0  0  0  0  0
    3.4080    9.5010    9.0190 C   0  0  0  0  0  0  0  0  0  0  0  0
    3.1890    8.1450    8.3320 C   0  0  0  0  0  0  0  0  0  0  0  0
    4.3580    9.4080   10.2000 C   0  0  0  0  0  0  0  0  0  0  0  0
    5.5300    8.1420   11.7840 C   0  0  0  0  0  0  0  0  0  0  0  0
    6.1340    9.2960   12.3190 C   0  0  0  0  0  0  0  0  0  0  0  0
    5.8100   10.5320   11.7690 C   0  0  0  0  0  0  0  0  0  0  0  0
    4.9190   10.6000   10.7110 C   0  0  0  0  0  0  0  0  0  0  0  0
    3.9910   10.3470    7.8900 C   0  0  0  0  0  0  0  0  0  0  0  0
    3.2260    9.9200    6.6400 C   0  0  0  0  0  0  0  0  0  0  0  0
    2.7170    8.5080    6.9150 C   0  0  0  0  0  0  0  0  0  0  0  0
    1.2917    9.8407    8.6988 H   0  0  0  0  0  0  0  0  0  0  0  0
    2.1340   11.1640    9.5740 H   0  0  0  0  0  0  0  0  0  0  0  0
    1.5459    8.5822   10.5869 H   0  0  0  0  0  0  0  0  0  0  0  0
    4.1267    7.5711    8.2951 H   0  0  0  0  0  0  0  0  0  0  0  0
    2.4216    7.5601    8.8603 H   0  0  0  0  0  0  0  0  0  0  0  0
    5.7750    7.1861   12.2228 H   0  0  0  0  0  0  0  0  0  0  0  0
    6.8336    9.2231   13.1385 H   0  0  0  0  0  0  0  0  0  0  0  0
    6.2513   11.4345   12.1653 H   0  0  0  0  0  0  0  0  0  0  0  0
    4.6555   11.5548   10.2806 H   0  0  0  0  0  0  0  0  0  0  0  0
    3.8373   11.4176    8.0903 H   0  0  0  0  0  0  0  0  0  0  0  0
    5.0662   10.1466    7.7724 H   0  0  0  0  0  0  0  0  0  0  0  0
    2.3817   10.6012    6.4582 H   0  0  0  0  0  0  0  0  0  0  0  0
    3.8931    9.9214    5.7654 H   0  0  0  0  0  0  0  0  0  0  0  0
    3.1362    7.8030    6.1821 H   0  0  0  0  0  0  0  0  0  0  0  0
    1.6186    8.4824    6.8616 H   0  0  0  0  0  0  0  0  0  0  0  0
  1  6  2  0  0  0  0
  1  7  1  0  0  0  0
  2  3  1  0  0  0  0
  2  4  1  0  0  0  0
  4  5  1  0  0  0  0
  4  6  1  0  0  0  0
  4 11  1  0  0  0  0
  5 13  1  0  0  0  0
  6 10  1  0  0  0  0
  7  8  2  0  0  0  0
  8  9  1  0  0  0  0
  9 10  2  0  0  0  0
 11 12  1  0  0  0  0
 12 13  1  0  0  0  0
  2 14  1  0  0  0  0
  2 15  1  0  0  0  0
  3 16  1  0  0  0  0
  5 17  1  0  0  0  0
  5 18  1  0  0  0  0
  7 19  1  0  0  0  0
  8 20  1  0  0  0  0
  9 21  1  0  0  0  0
 10 22  1  0  0  0  0
 11 23  1  0  0  0  0
 11 24  1  0  0  0  0
 12 25  1  0  0  0  0
 12 26  1  0  0  0  0
 13 27  1  0  0  0  0
 13 28  1  0  0  0  0
M  END
$$$$
