@<TRIPOS>MOLECULE
LIG(A-1201)
   34    36     0     0     0
SMALL
USER_CHARGES

@<TRIPOS>ATOM
      1 N1          7.1790   -4.5620   21.2990 N.am      1 LIG1201    -0.4854
      2 C1          7.4380   -2.9880   19.4120 C.3       1 LIG1201    -0.1012
      3 O1          5.6490   -4.5230   19.6640 O.2       1 LIG1201    -0.6124
      4 C2          6.6830   -4.0770   20.1430 C.2       1 LIG1201     0.6636
      5 C3         13.1790   -0.8060   24.9540 C.ar      1 LIG1201    -0.1296
      6 C4         13.7060   -1.8750   25.6660 C.ar      1 LIG1201    -0.1197
      7 C5         13.0350   -3.0740   25.7360 C.ar      1 LIG1201    -0.0890
      8 C6         11.8210   -3.1800   25.0610 C.ar      1 LIG1201    -0.0941
      9 C7          6.3490   -5.4300   22.1430 C.3       1 LIG1201     0.0940
     10 C8          7.1930   -6.3500   23.0020 C.3       1 LIG1201    -0.0877
     11 C9          8.0570   -5.5390   23.9710 C.3       1 LIG1201    -0.0809
     12 C10         8.4320   -4.1850   23.3590 C.3       1 LIG1201    -0.0988
     13 C11         8.5090   -4.3180   21.8490 C.3       1 LIG1201     0.1093
     14 C12         9.7030   -3.6000   23.9330 C.2       1 LIG1201     0.3644
     15 C13        11.2860   -2.1090   24.3360 C.ar      1 LIG1201     0.0824
     16 C14        11.9770   -0.9030   24.2870 C.ar      1 LIG1201    -0.0742
     17 N2         10.0680   -2.3770   23.7150 N.2       1 LIG1201    -0.5328
     18 S1         10.7570   -4.5460   24.9570 S.3       1 LIG1201    -0.0265
     19 H1          6.7685   -2.5136   18.6794 H         1 LIG1201     0.0673
     20 H2          7.7794   -2.2354   20.1379 H         1 LIG1201     0.0673
     21 H3         13.7249    0.1253   24.9220 H         1 LIG1201     0.1374
     22 H4         14.6542   -1.7640   26.1710 H         1 LIG1201     0.1367
     23 H5         13.4363   -3.9058   26.2959 H         1 LIG1201     0.1402
     24 H6          5.7274   -4.8017   22.7978 H         1 LIG1201     0.0563
     25 H7          5.7006   -6.0405   21.4974 H         1 LIG1201     0.0563
     26 H8          6.5320   -7.0153   23.5769 H         1 LIG1201     0.0531
     27 H9          7.8456   -6.9527   22.3533 H         1 LIG1201     0.0531
     28 H10         7.4954   -5.3714   24.9019 H         1 LIG1201     0.0498
     29 H11         8.9757   -6.1017   24.1932 H         1 LIG1201     0.0498
     30 H12         7.6138   -3.4860   23.5869 H         1 LIG1201     0.0897
     31 H13         9.1694   -5.1590   21.5909 H         1 LIG1201     0.0550
     32 H14         8.9145   -3.3889   21.4220 H         1 LIG1201     0.0550
     33 H15        11.5805   -0.0614   23.7385 H         1 LIG1201     0.1515
     34 Du1         8.8670   -3.6720   18.5520 Du        1 LIG1201     0.0000
@<TRIPOS>BOND
     1    1    4 am
     2    1    9 1
     3    1   13 1
     4    2    4 1
     5    3    4 2
     6    5    6 ar
     7    5   16 ar
     8    6    7 ar
     9    7    8 ar
    10    8   15 ar
    11    8   18 1
    12    9   10 1
    13   10   11 1
    14   11   12 1
    15   12   13 1
    16   12   14 1
    17   14   17 2
    18   14   18 1
    19   15   16 ar
    20   15   17 1
    21    2   19 1
    22    2   20 1
    23    5   21 1
    24    6   22 1
    25    7   23 1
    26    9   24 1
    27    9   25 1
    28   10   26 1
    29   10   27 1
    30   11   28 1
    31   11   29 1
    32   12   30 1
    33   13   31 1
    34   13   32 1
    35   16   33 1
    36    2   34 1
