LIG(A-1101)
  -OEChem-04162022383D

 30 31  0     0  0  0  0  0  0999 V2000
    8.3910   -1.3890   20.7480 C   0  0  0  0  0  0  0  0  0  0  0  0
    7.3210   -1.6620   18.4660 C   0  0  0  0  0  0  0  0  0  0  0  0
    6.4820   -0.3680   18.3880 C   0  0  0  0  0  0  0  0  0  0  0  0
    5.5080    0.0260   19.3090 C   0  0  0  0  0  0  0  0  0  0  0  0
    5.0040    1.2280   18.8850 C   0  0  0  0  0  0  0  0  0  0  0  0
    3.9090    2.0390   19.5820 C   0  0  0  0  0  0  0  0  0  0  0  0
    6.5190   -3.0820   20.4400 C   0  0  0  0  0  0  0  0  0  0  0  0
    5.7590   -4.4650   22.4780 C   0  0  0  0  0  0  0  0  0  0  0  0
    6.5330   -5.6520   23.0580 C   0  0  0  0  0  0  0  0  0  0  0  0
    5.6630   -5.8420   21.8100 C   0  0  0  0  0  0  0  0  0  0  0  0
    7.4100   -2.0580   19.8830 N   0  0  0  0  0  0  0  0  0  0  0  0
    6.5530    0.5880   17.4480 N   0  0  0  0  0  0  0  0  0  0  0  0
    6.6220   -3.4450   21.8620 N   0  0  0  0  0  0  0  0  0  0  0  0
    5.6360    1.5480   17.7650 O   0  0  0  0  0  0  0  0  0  0  0  0
    5.7270   -3.6150   19.7290 O   0  0  0  0  0  0  0  0  0  0  0  0
    8.9636   -0.6587   20.1574 H   0  0  0  0  0  0  0  0  0  0  0  0
    7.8666   -0.8700   21.5639 H   0  0  0  0  0  0  0  0  0  0  0  0
    9.0774   -2.1374   21.1709 H   0  0  0  0  0  0  0  0  0  0  0  0
    6.8341   -2.4590   17.8848 H   0  0  0  0  0  0  0  0  0  0  0  0
    8.3288   -1.4790   18.0648 H   0  0  0  0  0  0  0  0  0  0  0  0
    5.2074   -0.5170   20.1929 H   0  0  0  0  0  0  0  0  0  0  0  0
    4.2376    2.3023   20.5982 H   0  0  0  0  0  0  0  0  0  0  0  0
    3.7135    2.9582   19.0103 H   0  0  0  0  0  0  0  0  0  0  0  0
    2.9885    1.4395   19.6383 H   0  0  0  0  0  0  0  0  0  0  0  0
    4.8773   -4.1245   23.0408 H   0  0  0  0  0  0  0  0  0  0  0  0
    7.6293   -5.6872   22.9746 H   0  0  0  0  0  0  0  0  0  0  0  0
    6.2238   -6.0946   24.0164 H   0  0  0  0  0  0  0  0  0  0  0  0
    6.1348   -6.0128   20.8311 H   0  0  0  0  0  0  0  0  0  0  0  0
    4.7293   -6.4202   21.8729 H   0  0  0  0  0  0  0  0  0  0  0  0
    7.3026   -2.9821   22.4299 H   0  0  0  0  0  0  0  0  0  0  0  0
  1 11  1  0  0  0  0
  2  3  1  0  0  0  0
  2 11  1  0  0  0  0
  3  4  1  0  0  0  0
  3 12  2  0  0  0  0
  4  5  2  0  0  0  0
  5  6  1  0  0  0  0
  5 14  1  0  0  0  0
  7 11  1  0  0  0  0
  7 13  1  0  0  0  0
  7 15  2  0  0  0  0
  8  9  1  0  0  0  0
  8 10  1  0  0  0  0
  8 13  1  0  0  0  0
  9 10  1  0  0  0  0
 12 14  1  0  0  0  0
  1 16  1  0  0  0  0
  1 17  1  0  0  0  0
  1 18  1  0  0  0  0
  2 19  1  0  0  0  0
  2 20  1  0  0  0  0
  4 21  1  0  0  0  0
  6 22  1  0  0  0  0
  6 23  1  0  0  0  0
  6 24  1  0  0  0  0
  8 25  1  0  0  0  0
  9 26  1  0  0  0  0
  9 27  1  0  0  0  0
 10 28  1  0  0  0  0
 10 29  1  0  0  0  0
 13 30  1  0  0  0  0
M  END
$$$$
