@<TRIPOS>MOLECULE
LIG(A-1101)
   28    29     0     0     0
SMALL
USER_CHARGES

@<TRIPOS>ATOM
      1 N1          9.9780    1.4800   21.3330 N.1       1 LIG1101    -0.3603
      2 C1          9.8370    0.5150   21.9430 C.1       1 LIG1101     0.1436
      3 O1          7.3700   -5.8530   25.4070 O.3       1 LIG1101    -0.4098
      4 C2          9.6670   -0.6350   22.7340 C.ar      1 LIG1101     0.4241
      5 C3          8.7780   -4.1340   26.4660 C.3       1 LIG1101     0.1619
      6 C4          8.9630   -0.5320   23.9220 C.ar      1 LIG1101    -0.1583
      7 C5          8.8900   -1.6410   24.7590 C.ar      1 LIG1101    -0.1836
      8 C6          9.5270   -2.8480   24.4040 C.ar      1 LIG1101     0.0819
      9 C7         10.1990   -2.8390   23.1360 C.ar      1 LIG1101     0.3364
     10 C8          9.9640   -5.3500   24.6430 C.3       1 LIG1101     0.1958
     11 C9          8.9750   -5.8560   23.5870 C.3       1 LIG1101    -0.1380
     12 C10         7.5100   -5.6370   24.0070 C.3       1 LIG1101     0.1239
     13 C11         7.3610   -4.7240   26.2460 C.3       1 LIG1101     0.0971
     14 N2         10.2800   -1.7800   22.3120 N.ar      1 LIG1101    -0.5975
     15 N3          9.6050   -4.0300   25.2320 N.pl3     1 LIG1101    -0.6349
     16 H1          8.6675   -3.1254   26.8909 H         1 LIG1101     0.0650
     17 H2          9.3100   -4.7773   27.1823 H         1 LIG1101     0.0650
     18 H3          8.4785    0.3940   24.1944 H         1 LIG1101     0.1522
     19 H4          8.3416   -1.5770   25.6872 H         1 LIG1101     0.1424
     20 H5         10.6768   -3.7542   22.8191 H         1 LIG1101     0.0304
     21 H6         10.0093   -6.0897   25.4559 H         1 LIG1101     0.0644
     22 H7         10.9546   -5.2603   24.1732 H         1 LIG1101     0.0644
     23 H8          9.1572   -5.3181   22.6450 H         1 LIG1101     0.0586
     24 H9          9.1418   -6.9323   23.4329 H         1 LIG1101     0.0586
     25 H10         6.8651   -6.3427   23.4628 H         1 LIG1101     0.0527
     26 H11         7.2115   -4.6062   23.7653 H         1 LIG1101     0.0527
     27 H12         6.7244   -3.9513   25.7903 H         1 LIG1101     0.0557
     28 H13         6.9444   -5.0136   27.2220 H         1 LIG1101     0.0557
@<TRIPOS>BOND
     1    1    2 3
     2    2    4 1
     3    3   12 1
     4    3   13 1
     5    4    6 ar
     6    4   14 ar
     7    5   13 1
     8    5   15 1
     9    6    7 ar
    10    7    8 ar
    11    8    9 ar
    12    8   15 1
    13    9   14 ar
    14   10   11 1
    15   10   15 1
    16   11   12 1
    17    5   16 1
    18    5   17 1
    19    6   18 1
    20    7   19 1
    21    9   20 1
    22   10   21 1
    23   10   22 1
    24   11   23 1
    25   11   24 1
    26   12   25 1
    27   12   26 1
    28   13   27 1
    29   13   28 1
