@<TRIPOS>MOLECULE
LIG(A-1101)
   32    33     0     0     0
SMALL
USER_CHARGES

@<TRIPOS>ATOM
      1 N1          6.9010   -2.6410   20.9750 N.am      1 LIG1101    -0.5098
      2 C1          7.3120   -2.5040   18.5340 C.3       1 LIG1101    -0.0917
      3 O1          5.7870   -3.9990   19.5790 O.2       1 LIG1101    -0.5503
      4 C2          6.5980   -3.0940   19.7380 C.2       1 LIG1101     0.6731
      5 C3          6.4330   -3.3050   22.1890 C.3       1 LIG1101     0.0769
      6 C4          7.7770   -1.5190   21.3060 C.3       1 LIG1101     0.0769
      7 C5          8.9550   -2.0120   22.1180 C.3       1 LIG1101     0.0821
      8 C6          9.6800   -3.1640   24.1240 C.3       1 LIG1101     0.2187
      9 C7          9.3510   -4.2460   25.1090 C.2       1 LIG1101    -0.2671
     10 C8          9.6570   -5.6030   24.9980 C.2       1 LIG1101    -0.0924
     11 C9          9.3350   -6.3400   26.1610 C.2       1 LIG1101    -0.1238
     12 C10         8.5510   -5.5710   27.0400 C.2       1 LIG1101    -0.0548
     13 C11         7.6200   -3.7970   22.9830 C.3       1 LIG1101     0.0821
     14 N2          8.5170   -2.6920   23.3430 N.4       1 LIG1101    -0.6883
     15 S1          8.4850   -3.9240   26.5770 S.3       1 LIG1101     0.1344
     16 Br1         7.6310   -6.1570   28.5620 Br        1 LIG1101     0.0460
     17 H1          6.6760   -2.6200   17.6440 H         1 LIG1101     0.0818
     18 H2          7.5002   -1.4352   18.7134 H         1 LIG1101     0.0818
     19 H3          5.8549   -2.5933   22.7967 H         1 LIG1101     0.0945
     20 H4          5.7944   -4.1584   21.9173 H         1 LIG1101     0.0945
     21 H5          8.1417   -1.0541   20.3782 H         1 LIG1101     0.0945
     22 H6          7.2146   -0.7768   21.8915 H         1 LIG1101     0.0945
     23 H7          9.5400   -2.7160   21.5080 H         1 LIG1101     0.1086
     24 H8          9.5850   -1.1529   22.3918 H         1 LIG1101     0.1086
     25 H9         10.0972   -2.3086   24.6755 H         1 LIG1101     0.1053
     26 H10        10.4340   -3.5513   23.4229 H         1 LIG1101     0.1053
     27 H11        10.0946   -6.0447   24.1149 H         1 LIG1101     0.1693
     28 H12         9.6487   -7.3562   26.3490 H         1 LIG1101     0.1929
     29 H13         7.2599   -4.2803   23.9032 H         1 LIG1101     0.1086
     30 H14         8.1770   -4.5281   22.3786 H         1 LIG1101     0.1086
     31 H15         8.0065   -2.0391   23.9025 H         1 LIG1101     0.4395
     32 Du1         8.8940   -3.3490   18.2510 Du        1 LIG1101     0.0000
@<TRIPOS>BOND
     1    1    4 am
     2    1    5 1
     3    1    6 1
     4    2    4 1
     5    3    4 2
     6    5   13 1
     7    6    7 1
     8    7   14 1
     9    8    9 1
    10    8   14 1
    11    9   10 2
    12    9   15 1
    13   10   11 1
    14   11   12 2
    15   12   15 1
    16   12   16 1
    17   13   14 1
    18    2   17 1
    19    2   18 1
    20    5   19 1
    21    5   20 1
    22    6   21 1
    23    6   22 1
    24    7   23 1
    25    7   24 1
    26    8   25 1
    27    8   26 1
    28   10   27 1
    29   11   28 1
    30   13   29 1
    31   13   30 1
    32   14   31 1
    33    2   32 1
