@<TRIPOS>MOLECULE
LIG(A-1101)
   25    25     0     0     0
SMALL
USER_CHARGES

@<TRIPOS>ATOM
      1 C1          8.8410   -1.4120   23.1690 C.3       1 LIG1101    -0.1104
      2 C2          9.9710   -2.1910   22.5010 C.3       1 LIG1101     0.1718
      3 C3          9.1620   -1.8460   20.1540 C.2       1 LIG1101     0.6623
      4 C4          8.7560   -2.5000   18.8310 C.3       1 LIG1101    -0.1106
      5 C5         11.3070   -1.4660   22.4690 C.ar      1 LIG1101    -0.0780
      6 C6         11.5700   -0.3310   23.2270 C.ar      1 LIG1101    -0.1093
      7 C7         12.8140    0.2740   23.1780 C.ar      1 LIG1101    -0.1209
      8 C8         13.8220   -0.2480   22.4010 C.ar      1 LIG1101    -0.1220
      9 C9         13.5620   -1.3780   21.6670 C.ar      1 LIG1101     0.0175
     10 C10        12.3300   -1.9850   21.6980 C.ar      1 LIG1101    -0.1181
     11 N1          9.5530   -2.6410   21.1600 N.am      1 LIG1101    -0.5879
     12 O1          9.1090   -0.6140   20.2360 O.2       1 LIG1101    -0.6019
     13 Cl1        14.8080   -2.0630   20.6670 Cl        1 LIG1101    -0.1006
     14 H1          7.9185   -2.0108   23.1459 H         1 LIG1101     0.0519
     15 H2          9.1118   -1.1962   24.2131 H         1 LIG1101     0.0519
     16 H3          8.6783   -0.4672   22.6296 H         1 LIG1101     0.0519
     17 H4         10.1236   -3.0954   23.1083 H         1 LIG1101     0.0514
     18 H5          7.9709   -1.8856   18.3662 H         1 LIG1101     0.0643
     19 H6          9.6369   -2.5287   18.1728 H         1 LIG1101     0.0643
     20 H7         10.7978    0.0820   23.8591 H         1 LIG1101     0.1403
     21 H8         12.9956    1.1673   23.7572 H         1 LIG1101     0.1375
     22 H9         14.7947    0.2202   22.3694 H         1 LIG1101     0.1464
     23 H10        12.1590   -2.8771   21.1138 H         1 LIG1101     0.1409
     24 H11         9.5621   -3.6257   20.9860 H         1 LIG1101     0.3073
     25 Du1         8.1190   -4.2070   19.0200 Du        1 LIG1101     0.0000
@<TRIPOS>BOND
     1    1    2 1
     2    2    5 1
     3    2   11 1
     4    3    4 1
     5    3   11 am
     6    3   12 2
     7    5    6 ar
     8    5   10 ar
     9    6    7 ar
    10    7    8 ar
    11    8    9 ar
    12    9   10 ar
    13    9   13 1
    14    1   14 1
    15    1   15 1
    16    1   16 1
    17    2   17 1
    18    4   18 1
    19    4   19 1
    20    6   20 1
    21    7   21 1
    22    8   22 1
    23   10   23 1
    24   11   24 1
    25    4   25 1
