@<TRIPOS>MOLECULE
LIG(A-1101)
   34    35     0     0     0
SMALL
USER_CHARGES

@<TRIPOS>ATOM
      1 N1          5.6380   -5.2300   24.4260 N.pl3     1 LIG1101    -0.7998
      2 C1          2.4450   -4.1450   25.7970 C.ar      1 LIG1101     0.2561
      3 O1          4.3530   -6.3180   26.2130 O.2       1 LIG1101    -0.6357
      4 C2          1.4660   -3.1820   25.7740 C.ar      1 LIG1101    -0.2084
      5 C3          6.5420   -4.5650   20.5230 C.2       1 LIG1101     0.6629
      6 C4          7.5550   -3.4780   20.2630 C.3       1 LIG1101    -0.1008
      7 C5          1.8450   -1.8580   25.8590 C.ar      1 LIG1101    -0.0247
      8 C6          3.1730   -1.4890   25.9690 C.ar      1 LIG1101    -0.2084
      9 C7          4.1320   -2.4740   25.9870 C.ar      1 LIG1101     0.2561
     10 C8          3.7880   -3.8150   25.9020 C.ar      1 LIG1101    -0.4340
     11 C9          4.6700   -5.3510   23.3260 C.3       1 LIG1101     0.1917
     12 C10         5.3750   -5.9710   22.1520 C.3       1 LIG1101     0.0884
     13 C11         7.4620   -4.9760   22.8490 C.3       1 LIG1101     0.0884
     14 C12         6.7860   -4.3840   24.0590 C.3       1 LIG1101     0.1917
     15 F1          2.0750   -5.4430   25.7140 F         1 LIG1101    -0.1138
     16 F2          5.4320   -2.1110   26.0880 F         1 LIG1101    -0.1138
     17 N2          6.4970   -5.1210   21.7560 N.am      1 LIG1101    -0.4727
     18 O2          6.0930   -4.6560   26.7820 O.2       1 LIG1101    -0.6357
     19 O3          5.7560   -4.8860   19.6400 O.2       1 LIG1101    -0.6095
     20 S1          5.0210   -5.0840   25.9370 S.o2      1 LIG1101     1.5095
     21 H1          0.4242   -3.4546   25.6913 H         1 LIG1101     0.1626
     22 H2          7.0611   -2.5117   20.4427 H         1 LIG1101     0.0678
     23 H3          8.3770   -3.6090   20.9822 H         1 LIG1101     0.0678
     24 H4          1.0853   -1.0906   25.8391 H         1 LIG1101     0.1505
     25 H5          3.4514   -0.4479   26.0394 H         1 LIG1101     0.1626
     26 H6          3.8300   -5.9897   23.6367 H         1 LIG1101     0.0574
     27 H7          4.2915   -4.3555   23.0508 H         1 LIG1101     0.0574
     28 H8          5.7497   -6.9664   22.4326 H         1 LIG1101     0.0680
     29 H9          4.6726   -6.0673   21.3109 H         1 LIG1101     0.0680
     30 H10         8.2792   -4.3134   22.5278 H         1 LIG1101     0.0680
     31 H11         7.8709   -5.9640   23.1072 H         1 LIG1101     0.0680
     32 H12         7.4977   -4.3437   24.8968 H         1 LIG1101     0.0574
     33 H13         6.4360   -3.3675   23.8260 H         1 LIG1101     0.0574
     34 Du1         8.2830   -3.4240   18.5970 Du        1 LIG1101     0.0000
@<TRIPOS>BOND
     1    1   11 1
     2    1   14 1
     3    1   20 1
     4    2    4 ar
     5    2   10 ar
     6    2   15 1
     7    3   20 2
     8    4    7 ar
     9    5    6 1
    10    5   17 am
    11    5   19 2
    12    7    8 ar
    13    8    9 ar
    14    9   10 ar
    15    9   16 1
    16   10   20 1
    17   11   12 1
    18   12   17 1
    19   13   14 1
    20   13   17 1
    21   18   20 2
    22    4   21 1
    23    6   22 1
    24    6   23 1
    25    7   24 1
    26    8   25 1
    27   11   26 1
    28   11   27 1
    29   12   28 1
    30   12   29 1
    31   13   30 1
    32   13   31 1
    33   14   32 1
    34   14   33 1
    35    6   34 1
