LIG(A-1301)
  -OEChem-04292023303D

 32 33  0     0  0  0  0  0  0999 V2000
    7.0070   -2.3630   20.7650 N   0  0  0  0  0  0  0  0  0  0  0  0
    7.2790   -2.4740   18.3090 C   0  0  0  0  0  0  0  0  0  0  0  0
    5.7740   -3.8100   19.5770 O   0  0  0  0  0  0  0  0  0  0  0  0
    6.6240   -2.9270   19.6010 C   0  0  0  0  0  0  0  0  0  0  0  0
    7.9070   -1.2250   20.9110 C   0  0  0  0  0  0  0  0  0  0  0  0
    6.5880   -2.8610   22.0720 C   0  0  0  0  0  0  0  0  0  0  0  0
    7.7990   -3.2530   22.8870 C   0  0  0  0  0  0  0  0  0  0  0  0
    9.9030   -2.5430   23.8170 C   0  0  0  0  0  0  0  0  0  0  0  0
   10.9850   -1.4940   23.8150 C   0  0  0  0  0  0  0  0  0  0  0  0
   12.0870   -1.4240   22.9100 C   0  0  0  0  0  0  0  0  0  0  0  0
   12.7980   -0.2800   23.0050 C   0  0  0  0  0  0  0  0  0  0  0  0
   11.0200   -0.4110   24.6860 C   0  0  0  0  0  0  0  0  0  0  0  0
    9.1160   -1.6370   21.7160 C   0  0  0  0  0  0  0  0  0  0  0  0
    8.7300   -2.1310   23.0440 N   0  3  0  0  0  0  0  0  0  0  0  0
   12.1640    0.7410   24.1910 S   0  0  0  0  0  0  0  0  0  0  0  0
    8.8750   -3.2990   18.0960 R#  0  0  0  0  0  0  0  0  0  0  0  0
    6.6240   -2.7253   17.4618 H   0  0  0  0  0  0  0  0  0  0  0  0
    7.4341   -1.3855   18.3423 H   0  0  0  0  0  0  0  0  0  0  0  0
    8.2286   -0.8823   19.9164 H   0  0  0  0  0  0  0  0  0  0  0  0
    7.3833   -0.4079   21.4287 H   0  0  0  0  0  0  0  0  0  0  0  0
    6.0320   -2.0731   22.6012 H   0  0  0  0  0  0  0  0  0  0  0  0
    5.9398   -3.7394   21.9367 H   0  0  0  0  0  0  0  0  0  0  0  0
    7.4676   -3.5839   23.8823 H   0  0  0  0  0  0  0  0  0  0  0  0
    8.3183   -4.0795   22.3799 H   0  0  0  0  0  0  0  0  0  0  0  0
   10.3067   -3.4688   23.3813 H   0  0  0  0  0  0  0  0  0  0  0  0
    9.5941   -2.7310   24.8559 H   0  0  0  0  0  0  0  0  0  0  0  0
   12.3295   -2.2132   22.2137 H   0  0  0  0  0  0  0  0  0  0  0  0
   13.6618   -0.0477   22.3998 H   0  0  0  0  0  0  0  0  0  0  0  0
   10.3992   -0.3150   25.5645 H   0  0  0  0  0  0  0  0  0  0  0  0
    9.6497   -2.4345   21.1783 H   0  0  0  0  0  0  0  0  0  0  0  0
    9.7797   -0.7680   21.8360 H   0  0  0  0  0  0  0  0  0  0  0  0
    8.2644   -1.3952   23.5357 H   0  0  0  0  0  0  0  0  0  0  0  0
  1  4  1  0  0  0  0
  1  5  1  0  0  0  0
  1  6  1  0  0  0  0
  2  4  1  0  0  0  0
  3  4  2  0  0  0  0
  5 13  1  0  0  0  0
  6  7  1  0  0  0  0
  7 14  1  0  0  0  0
  8  9  1  0  0  0  0
  8 14  1  0  0  0  0
  9 10  1  0  0  0  0
  9 12  2  0  0  0  0
 10 11  2  0  0  0  0
 11 15  1  0  0  0  0
 12 15  1  0  0  0  0
 13 14  1  0  0  0  0
  2 17  1  0  0  0  0
  2 18  1  0  0  0  0
  5 19  1  0  0  0  0
  5 20  1  0  0  0  0
  6 21  1  0  0  0  0
  6 22  1  0  0  0  0
  7 23  1  0  0  0  0
  7 24  1  0  0  0  0
  8 25  1  0  0  0  0
  8 26  1  0  0  0  0
 10 27  1  0  0  0  0
 11 28  1  0  0  0  0
 12 29  1  0  0  0  0
 13 30  1  0  0  0  0
 13 31  1  0  0  0  0
 14 32  1  0  0  0  0
  2 16  1  0  0  0  0
M  CHG  1  14   1
M  RGP  1  16   1
M  END
$$$$
