LIG(A-1101)
  -OEChem-04162022333D

 35 36  0     0  0  0  0  0  0999 V2000
   24.9750  -17.7740   25.0500 C   0  0  0  0  0  0  0  0  0  0  0  0
   24.4430  -18.8160   24.0540 C   0  0  0  0  0  0  0  0  0  0  0  0
   25.1690  -18.8530   22.7650 C   0  0  0  0  0  0  0  0  0  0  0  0
   24.7570  -20.0760   21.9380 C   0  0  0  0  0  0  0  0  0  0  0  0
   22.5570  -20.0300   23.2610 C   0  0  0  0  0  0  0  0  0  0  0  0
   23.0170  -18.6650   23.7430 C   0  0  0  0  0  0  0  0  0  0  0  0
   22.7370  -21.7090   21.3710 C   0  0  0  0  0  0  0  0  0  0  0  0
   22.8150  -23.4020   19.5000 C   0  0  0  0  0  0  0  0  0  0  0  0
   22.6970  -23.2300   18.1340 C   0  0  0  0  0  0  0  0  0  0  0  0
   22.1220  -24.2260   17.3570 C   0  0  0  0  0  0  0  0  0  0  0  0
   21.6680  -25.3960   17.9560 C   0  0  0  0  0  0  0  0  0  0  0  0
   21.7880  -25.5680   19.3300 C   0  0  0  0  0  0  0  0  0  0  0  0
   22.3620  -24.5710   20.1030 C   0  0  0  0  0  0  0  0  0  0  0  0
   24.1920  -16.6450   25.5380 N   0  0  0  0  0  0  0  0  0  0  0  0
   23.3570  -20.6330   22.1440 N   0  0  0  0  0  0  0  0  0  0  0  0
   23.4310  -22.3450   20.2690 N   0  0  0  0  0  0  0  0  0  0  0  0
   26.0690  -17.9160   25.4730 O   0  0  0  0  0  0  0  0  0  0  0  0
   21.6350  -22.0620   21.6440 O   0  0  0  0  0  0  0  0  0  0  0  0
   24.5731  -19.7994   24.5294 H   0  0  0  0  0  0  0  0  0  0  0  0
   24.9391  -17.9400   22.1962 H   0  0  0  0  0  0  0  0  0  0  0  0
   26.2502  -18.8996   22.9622 H   0  0  0  0  0  0  0  0  0  0  0  0
   24.8474  -19.8000   20.8770 H   0  0  0  0  0  0  0  0  0  0  0  0
   25.4682  -20.8828   22.1689 H   0  0  0  0  0  0  0  0  0  0  0  0
   22.5975  -20.7209   24.1160 H   0  0  0  0  0  0  0  0  0  0  0  0
   21.5167  -19.9332   22.9168 H   0  0  0  0  0  0  0  0  0  0  0  0
   22.8737  -17.9112   22.9548 H   0  0  0  0  0  0  0  0  0  0  0  0
   22.4575  -18.3666   24.6419 H   0  0  0  0  0  0  0  0  0  0  0  0
   23.0520  -22.3210   17.6712 H   0  0  0  0  0  0  0  0  0  0  0  0
   22.0274  -24.0926   16.2895 H   0  0  0  0  0  0  0  0  0  0  0  0
   21.2214  -26.1724   17.3525 H   0  0  0  0  0  0  0  0  0  0  0  0
   21.4347  -26.4768   19.7944 H   0  0  0  0  0  0  0  0  0  0  0  0
   22.4574  -24.7013   21.1709 H   0  0  0  0  0  0  0  0  0  0  0  0
   24.5843  -16.0182   26.2113 H   0  0  0  0  0  0  0  0  0  0  0  0
   23.2627  -16.4974   25.1994 H   0  0  0  0  0  0  0  0  0  0  0  0
   24.3563  -22.0458   20.0357 H   0  0  0  0  0  0  0  0  0  0  0  0
  1  2  1  0  0  0  0
  1 14  1  0  0  0  0
  1 17  2  0  0  0  0
  2  3  1  0  0  0  0
  2  6  1  0  0  0  0
  3  4  1  0  0  0  0
  4 15  1  0  0  0  0
  5  6  1  0  0  0  0
  5 15  1  0  0  0  0
  7 15  1  0  0  0  0
  7 16  1  0  0  0  0
  7 18  2  0  0  0  0
  8  9  2  0  0  0  0
  8 13  1  0  0  0  0
  8 16  1  0  0  0  0
  9 10  1  0  0  0  0
 10 11  2  0  0  0  0
 11 12  1  0  0  0  0
 12 13  2  0  0  0  0
  2 19  1  0  0  0  0
  3 20  1  0  0  0  0
  3 21  1  0  0  0  0
  4 22  1  0  0  0  0
  4 23  1  0  0  0  0
  5 24  1  0  0  0  0
  5 25  1  0  0  0  0
  6 26  1  0  0  0  0
  6 27  1  0  0  0  0
  9 28  1  0  0  0  0
 10 29  1  0  0  0  0
 11 30  1  0  0  0  0
 12 31  1  0  0  0  0
 13 32  1  0  0  0  0
 14 33  1  0  0  0  0
 14 34  1  0  0  0  0
 16 35  1  0  0  0  0
M  END
$$$$
