@<TRIPOS>MOLECULE
LIG(A-1101)
   31    32     0     0     0
SMALL
USER_CHARGES

@<TRIPOS>ATOM
      1 C1          1.4340    3.7910   25.2370 C.ar      1 LIG1101     0.1490
      2 C2          0.4330    4.4980   25.8910 C.ar      1 LIG1101    -0.1727
      3 C3         -0.8730    4.0290   25.9230 C.ar      1 LIG1101    -0.0850
      4 C4         -1.1880    2.8370   25.2900 C.ar      1 LIG1101    -0.1531
      5 C5         -0.1950    2.1280   24.6260 C.ar      1 LIG1101    -0.0562
      6 C6          1.1190    2.5950   24.5990 C.ar      1 LIG1101    -0.1779
      7 C7          2.1780    1.7820   23.8560 C.2       1 LIG1101     0.6764
      8 C8          4.3270    1.6820   22.4790 C.3       1 LIG1101     0.1008
      9 C9          3.8340    1.6090   21.0330 C.3       1 LIG1101    -0.0748
     10 C10         4.8370    1.1340   19.9780 C.ar      1 LIG1101    -0.0343
     11 C11         5.8500    0.2130   20.2460 C.ar      1 LIG1101    -0.2487
     12 C12         6.6980   -0.1540   19.2000 C.ar      1 LIG1101     0.3965
     13 C13         5.6070    1.2110   17.7240 C.ar      1 LIG1101     0.3965
     14 C14         4.7240    1.6340   18.7030 C.ar      1 LIG1101    -0.2487
     15 F1          2.7160    4.2800   25.2300 F         1 LIG1101    -0.1440
     16 N1          3.3160    2.4370   23.2200 N.am      1 LIG1101    -0.5661
     17 N2          6.5610    0.3470   17.9800 N.ar      1 LIG1101    -0.6674
     18 O1          2.0500    0.6020   23.8000 O.2       1 LIG1101    -0.6059
     19 H1          0.6750    5.4285   26.3830 H         1 LIG1101     0.1575
     20 H2         -1.6391    4.5896   26.4381 H         1 LIG1101     0.1413
     21 H3         -2.2003    2.4613   25.3129 H         1 LIG1101     0.1445
     22 H4         -0.4434    1.2042   24.1247 H         1 LIG1101     0.1660
     23 H5          4.4297    0.6701   22.8979 H         1 LIG1101     0.0647
     24 H6          5.2973    2.1981   22.5250 H         1 LIG1101     0.0647
     25 H7          2.9768    0.9201   21.0094 H         1 LIG1101     0.0635
     26 H8          3.5021    2.6173   20.7446 H         1 LIG1101     0.0635
     27 H9          5.9744   -0.2040   21.2344 H         1 LIG1101     0.1438
     28 H10         7.4878   -0.8659   19.3896 H         1 LIG1101     0.0218
     29 H11         5.5079    1.6028   16.7224 H         1 LIG1101     0.0218
     30 H12         3.9522    2.3515   18.4664 H         1 LIG1101     0.1438
     31 H13         3.4077    3.4301   23.2925 H         1 LIG1101     0.3187
@<TRIPOS>BOND
     1    1    2 ar
     2    1    6 ar
     3    1   15 1
     4    2    3 ar
     5    3    4 ar
     6    4    5 ar
     7    5    6 ar
     8    6    7 1
     9    7   16 am
    10    7   18 2
    11    8    9 1
    12    8   16 1
    13    9   10 1
    14   10   11 ar
    15   10   14 ar
    16   11   12 ar
    17   12   17 ar
    18   13   14 ar
    19   13   17 ar
    20    2   19 1
    21    3   20 1
    22    4   21 1
    23    5   22 1
    24    8   23 1
    25    8   24 1
    26    9   25 1
    27    9   26 1
    28   11   27 1
    29   12   28 1
    30   13   29 1
    31   14   30 1
    32   16   31 1
