@<TRIPOS>MOLECULE
LIG(A-1201)
   30    29     0     0     0
SMALL
USER_CHARGES

@<TRIPOS>ATOM
      1 C1          1.3830   -8.6430   21.0970 C.3       1 LIG1201    -0.1760
      2 C2          1.6250   -7.3870   21.8720 C.2       1 LIG1201     0.6544
      3 C3          3.1500   -6.1080   23.2980 C.3       1 LIG1201     0.0366
      4 C4          2.8460   -6.4030   24.7690 C.3       1 LIG1201    -0.1703
      5 C5          3.1100   -7.8560   25.1040 C.2       1 LIG1201     0.6589
      6 C6          4.5720   -5.5530   23.1400 C.2       1 LIG1201     0.6591
      7 C7          6.6610   -5.4930   21.8310 C.3       1 LIG1201     0.1103
      8 C8          6.6600   -5.1360   20.3490 C.2       1 LIG1201    -0.0623
      9 C9          5.6890   -5.6380   19.6220 C.2       1 LIG1201    -0.2182
     10 N1          2.8250   -7.2550   22.4520 N.am      1 LIG1201    -0.5744
     11 N2          2.2770   -8.4380   25.9530 N.am      1 LIG1201    -0.6695
     12 N3          5.4250   -6.1380   22.2850 N.am      1 LIG1201    -0.5428
     13 O1          0.7650   -6.5120   21.9520 O.2       1 LIG1201    -0.6004
     14 O2          4.0600   -8.4470   24.6020 O.2       1 LIG1201    -0.6393
     15 O3          4.8920   -4.5660   23.7990 O.2       1 LIG1201    -0.6157
     16 H1          0.3739   -8.6162   20.6600 H         1 LIG1201     0.0694
     17 H2          2.1286   -8.7268   20.2926 H         1 LIG1201     0.0694
     18 H3          1.4688   -9.5102   21.7683 H         1 LIG1201     0.0694
     19 H4          2.4718   -5.2932   23.0045 H         1 LIG1201     0.1221
     20 H5          3.4838   -5.7678   25.4012 H         1 LIG1201     0.0893
     21 H6          1.7886   -6.1754   24.9691 H         1 LIG1201     0.0893
     22 H7          7.5001   -6.1780   22.0222 H         1 LIG1201     0.0741
     23 H8          6.8029   -4.5687   22.4103 H         1 LIG1201     0.0741
     24 H9          5.6624   -5.4572   18.5576 H         1 LIG1201     0.1123
     25 H10         4.9168   -6.2318   20.0883 H         1 LIG1201     0.1123
     26 H11         3.5177   -7.9605   22.3022 H         1 LIG1201     0.3255
     27 H12         2.4107   -9.3958   26.2074 H         1 LIG1201     0.3147
     28 H13         1.5143   -7.9197   26.3398 H         1 LIG1201     0.3147
     29 H14         5.2085   -7.0525   21.9431 H         1 LIG1201     0.3129
     30 Du1         7.8670   -4.1740   19.4380 Du        1 LIG1201     0.0000
@<TRIPOS>BOND
     1    1    2 1
     2    2   10 am
     3    2   13 2
     4    3    4 1
     5    3    6 1
     6    3   10 1
     7    4    5 1
     8    5   11 am
     9    5   14 2
    10    6   12 am
    11    6   15 2
    12    7    8 1
    13    7   12 1
    14    8    9 2
    15    1   16 1
    16    1   17 1
    17    1   18 1
    18    3   19 1
    19    4   20 1
    20    4   21 1
    21    7   22 1
    22    7   23 1
    23    9   24 1
    24    9   25 1
    25   10   26 1
    26   11   27 1
    27   11   28 1
    28   12   29 1
    29    8   30 1
