@<TRIPOS>MOLECULE
LIG(A-1101)
   30    32     0     0     0
SMALL
USER_CHARGES

@<TRIPOS>ATOM
      1 C1          2.2660  -24.9490    0.8600 C.ar      1 LIG1101     0.2061
      2 C2          2.0380  -23.5860    0.7280 C.ar      1 LIG1101     0.3327
      3 C3          4.1440  -23.3370   -0.1750 C.ar      1 LIG1101     0.5738
      4 C4          6.4330  -22.8710   -1.1390 C.3       1 LIG1101     0.2165
      5 C5          7.2850  -21.5600   -1.3400 C.3       1 LIG1101    -0.0844
      6 C6          6.1880  -20.4690   -1.6130 C.3       1 LIG1101    -0.0989
      7 C7          6.7090  -19.0540   -1.3430 C.3       1 LIG1101    -0.0991
      8 C8          7.3550  -18.7200   -2.4970 C.3       1 LIG1101     0.1244
      9 C9          5.7760  -20.4110   -3.1660 C.3       1 LIG1101     0.1320
     10 C10         5.1580  -20.8150   -0.8110 C.3       1 LIG1101     0.2392
     11 C11         4.3760  -24.7140   -0.0460 C.ar      1 LIG1101     0.2103
     12 N1          2.9930  -22.7980    0.2110 N.ar      1 LIG1101    -0.7072
     13 N2          5.2110  -22.4640   -0.7510 N.pl3     1 LIG1101    -0.7880
     14 N3          3.4300  -25.4860    0.4770 N.ar      1 LIG1101    -0.5949
     15 O1          6.6850  -19.6230   -3.7070 O.3       1 LIG1101    -0.4234
     16 H1          1.4962  -25.5821    1.2759 H         1 LIG1101     0.0327
     17 H2          1.0953  -23.1614    1.0403 H         1 LIG1101     0.0268
     18 H3          6.3670  -23.4322   -2.0828 H         1 LIG1101     0.0481
     19 H4          6.8874  -23.5071   -0.3651 H         1 LIG1101     0.0481
     20 H5          7.8642  -21.3216   -0.4358 H         1 LIG1101     0.0626
     21 H6          7.9673  -21.6587   -2.1971 H         1 LIG1101     0.0626
     22 H7          5.8777  -18.3615   -1.1446 H         1 LIG1101     0.0607
     23 H8          7.4029  -19.0480   -0.4895 H         1 LIG1101     0.0607
     24 H9          7.2217  -17.6486   -2.7076 H         1 LIG1101     0.0491
     25 H10         8.4279  -18.9454   -2.4077 H         1 LIG1101     0.0491
     26 H11         5.8090  -21.4137   -3.6172 H         1 LIG1101     0.0533
     27 H12         4.7683  -19.9871   -3.2878 H         1 LIG1101     0.0533
     28 H13         5.2871  -20.3857    0.1935 H         1 LIG1101     0.0627
     29 H14         4.2030  -20.4726   -1.2362 H         1 LIG1101     0.0627
     30 H15         5.3136  -25.1421   -0.3684 H         1 LIG1101     0.0286
@<TRIPOS>BOND
     1    1    2 ar
     2    1   14 ar
     3    2   12 ar
     4    3   11 ar
     5    3   12 ar
     6    3   13 1
     7    4    5 1
     8    4   13 1
     9    5    6 1
    10    6    7 1
    11    6    9 1
    12    6   10 1
    13    7    8 1
    14    8   15 1
    15    9   15 1
    16   10   13 1
    17   11   14 ar
    18    1   16 1
    19    2   17 1
    20    4   18 1
    21    4   19 1
    22    5   20 1
    23    5   21 1
    24    7   22 1
    25    7   23 1
    26    8   24 1
    27    8   25 1
    28    9   26 1
    29    9   27 1
    30   10   28 1
    31   10   29 1
    32   11   30 1
