LIG(A-1101)
  -OEChem-04032019383D

 32 33  0     1  0  0  0  0  0999 V2000
    6.7670   -4.3190   20.7050 C   0  0  0  0  0  0  0  0  0  0  0  0
    8.1870   -4.0260   20.2840 C   0  0  0  0  0  0  0  0  0  0  0  0
    7.6160   -4.9880   22.9190 C   0  0  0  0  0  0  0  0  0  0  0  0
    8.6070   -5.9630   22.8250 C   0  0  0  0  0  0  0  0  0  0  0  0
    9.5840   -6.0530   23.8030 C   0  0  0  0  0  0  0  0  0  0  0  0
    9.5720   -5.2030   24.8870 C   0  0  0  0  0  0  0  0  0  0  0  0
    8.5820   -4.2550   25.0000 C   0  0  0  0  0  0  0  0  0  0  0  0
    7.6040   -4.1410   24.0250 C   0  0  0  0  0  0  0  0  0  0  0  0
    5.2530   -5.4340   22.2710 C   0  0  1  0  0  0  0  0  0  0  0  0
    5.1650   -6.9160   21.9600 C   0  0  0  0  0  0  0  0  0  0  0  0
    4.1430   -7.4900   22.5690 C   0  0  0  0  0  0  0  0  0  0  0  0
    4.8990   -5.3190   23.7660 C   0  0  0  0  0  0  0  0  0  0  0  0
    6.5680   -4.8990   21.9350 N   0  0  0  0  0  0  0  0  0  0  0  0
    5.8320   -4.0540   19.9590 O   0  0  0  0  0  0  0  0  0  0  0  0
    4.4430   -7.5300   25.1700 O   0  0  0  0  0  0  0  0  0  0  0  0
    2.4940   -6.3430   24.2540 O   0  0  0  0  0  0  0  0  0  0  0  0
    3.8720   -6.7310   24.1180 S   0  0  0  0  0  0  0  0  0  0  0  0
    8.3110   -3.6080   18.5230 R#  0  0  0  0  0  0  0  0  0  0  0  0
    8.5638   -3.1789   20.8760 H   0  0  0  0  0  0  0  0  0  0  0  0
    8.8048   -4.9146   20.4810 H   0  0  0  0  0  0  0  0  0  0  0  0
    8.6134   -6.6481   21.9902 H   0  0  0  0  0  0  0  0  0  0  0  0
   10.3623   -6.7965   23.7148 H   0  0  0  0  0  0  0  0  0  0  0  0
   10.3371   -5.2807   25.6453 H   0  0  0  0  0  0  0  0  0  0  0  0
    8.5667   -3.5948   25.8546 H   0  0  0  0  0  0  0  0  0  0  0  0
    6.8305   -3.3936   24.1227 H   0  0  0  0  0  0  0  0  0  0  0  0
    4.4828   -4.9054   21.6902 H   0  0  0  0  0  0  0  0  0  0  0  0
    5.0488   -7.0445   20.8737 H   0  0  0  0  0  0  0  0  0  0  0  0
    6.0942   -7.4037   22.2896 H   0  0  0  0  0  0  0  0  0  0  0  0
    3.2415   -7.3833   21.9478 H   0  0  0  0  0  0  0  0  0  0  0  0
    4.3607   -8.5578   22.7191 H   0  0  0  0  0  0  0  0  0  0  0  0
    5.8110   -5.3435   24.3806 H   0  0  0  0  0  0  0  0  0  0  0  0
    4.3504   -4.3857   23.9610 H   0  0  0  0  0  0  0  0  0  0  0  0
  1  2  1  0  0  0  0
  1 13  1  0  0  0  0
  1 14  2  0  0  0  0
  3  4  2  0  0  0  0
  3  8  1  0  0  0  0
  3 13  1  0  0  0  0
  4  5  1  0  0  0  0
  5  6  2  0  0  0  0
  6  7  1  0  0  0  0
  7  8  2  0  0  0  0
  9 10  1  0  0  0  0
  9 12  1  0  0  0  0
  9 13  1  0  0  0  0
 10 11  1  0  0  0  0
 11 17  1  0  0  0  0
 12 17  1  0  0  0  0
 15 17  2  0  0  0  0
 16 17  2  0  0  0  0
  2 19  1  0  0  0  0
  2 20  1  0  0  0  0
  4 21  1  0  0  0  0
  5 22  1  0  0  0  0
  6 23  1  0  0  0  0
  7 24  1  0  0  0  0
  8 25  1  0  0  0  0
  9 26  1  0  0  0  0
 10 27  1  0  0  0  0
 10 28  1  0  0  0  0
 11 29  1  0  0  0  0
 11 30  1  0  0  0  0
 12 31  1  0  0  0  0
 12 32  1  0  0  0  0
  2 18  1  0  0  0  0
M  RGP  1  18   1
M  END
$$$$
