@<TRIPOS>MOLECULE
LIG(A-1101)
   29    30     0     0     0
SMALL
USER_CHARGES

@<TRIPOS>ATOM
      1 C1          9.3330   -4.9600   26.4820 C.3       1 LIG1101     0.1334
      2 C2         10.5690   -4.8110   25.7560 C.3       1 LIG1101    -0.1199
      3 C3         10.8100   -3.4010   25.2070 C.3       1 LIG1101     0.1132
      4 C4          9.8600   -1.6280   24.1990 C.3       1 LIG1101     0.2073
      5 C5         11.2350   -1.2740   23.6150 C.2       1 LIG1101    -0.2094
      6 C6         12.1490   -0.1720   24.1440 C.2       1 LIG1101    -0.1249
      7 C7         13.3560   -0.1220   23.3700 C.2       1 LIG1101    -0.1864
      8 C8         11.8670   -1.9130   22.5000 C.2       1 LIG1101    -0.2168
      9 C9          8.4890   -2.9630   25.2840 C.3       1 LIG1101     0.1132
     10 C10         8.2300   -4.4000   25.7450 C.3       1 LIG1101    -0.1199
     11 N1          9.6990   -2.8170   24.4950 N.4       1 LIG1101    -0.6831
     12 O1          9.4650   -4.3700   27.7520 O.3       1 LIG1101    -0.6034
     13 S1         13.3110   -1.2460   22.2080 S.3       1 LIG1101     0.2139
     14 H1          9.1434   -6.0354   26.6147 H         1 LIG1101     0.0759
     15 H2         11.3988   -5.0642   26.4323 H         1 LIG1101     0.0892
     16 H3         10.5585   -5.5134   24.9096 H         1 LIG1101     0.0892
     17 H4         11.0535   -2.7435   26.0546 H         1 LIG1101     0.1086
     18 H5         11.6678   -3.4461   24.5198 H         1 LIG1101     0.1086
     19 H6          9.7140   -1.0289   25.1099 H         1 LIG1101     0.1035
     20 H7          9.0958   -1.3571   23.4556 H         1 LIG1101     0.1035
     21 H8         11.9208    0.4749   24.9782 H         1 LIG1101     0.1701
     22 H9         14.1730    0.5640   23.5383 H         1 LIG1101     0.1996
     23 H10        11.4390   -2.7267   21.9333 H         1 LIG1101     0.1733
     24 H11         7.6344   -2.6334   24.6750 H         1 LIG1101     0.1086
     25 H12         8.5741   -2.3219   26.1738 H         1 LIG1101     0.1086
     26 H13         7.3383   -4.4065   26.3890 H         1 LIG1101     0.0892
     27 H14         8.0467   -5.0252   24.8587 H         1 LIG1101     0.0892
     28 H15         9.5692   -3.3587   23.6645 H         1 LIG1101     0.4366
     29 H16         9.7502   -5.0252   28.3780 H         1 LIG1101     0.4291
@<TRIPOS>BOND
     1    1    2 1
     2    1   10 1
     3    1   12 1
     4    2    3 1
     5    3   11 1
     6    4    5 1
     7    4   11 1
     8    5    6 1
     9    5    8 2
    10    6    7 2
    11    7   13 1
    12    8   13 1
    13    9   10 1
    14    9   11 1
    15    1   14 1
    16    2   15 1
    17    2   16 1
    18    3   17 1
    19    3   18 1
    20    4   19 1
    21    4   20 1
    22    6   21 1
    23    7   22 1
    24    8   23 1
    25    9   24 1
    26    9   25 1
    27   10   26 1
    28   10   27 1
    29   11   28 1
    30   12   29 1
