@<TRIPOS>MOLECULE
LIG(A-1101)
   23    23     0     0     0
SMALL
USER_CHARGES

@<TRIPOS>ATOM
      1 N1          6.6940    2.6720   -6.6850 N.pl3     1 LIG1101    -1.0311
      2 C1          4.4740   -1.9330   -6.5450 C.3       1 LIG1101    -0.0674
      3 O1          6.3470    0.6260   -5.3890 O.2       1 LIG1101    -0.6497
      4 C2          5.6080   -1.7210   -7.4400 C.ar      1 LIG1101    -0.0227
      5 C3          6.3340   -2.8390   -7.7740 C.ar      1 LIG1101    -0.1601
      6 C4          7.4430   -2.6940   -8.5610 C.ar      1 LIG1101     0.1354
      7 C5          7.8570   -1.4460   -9.0070 C.ar      1 LIG1101    -0.1674
      8 C6          7.1170   -0.3330   -8.6960 C.ar      1 LIG1101    -0.1042
      9 C7          5.9870   -0.4510   -7.9200 C.ar      1 LIG1101    -0.0764
     10 C8          5.2380    0.8080   -7.6810 C.3       1 LIG1101    -0.2568
     11 F1          8.1050   -3.7740   -8.9340 F         1 LIG1101    -0.1400
     12 O2          4.5220    2.2620   -5.7740 O.2       1 LIG1101    -0.6497
     13 S1          5.6530    1.5460   -6.2070 S.o2      1 LIG1101     1.4518
     14 H1          7.5325    2.2349   -7.0102 H         1 LIG1101     0.4516
     15 H2          6.1925    3.4678   -7.0243 H         1 LIG1101     0.4516
     16 H3          4.4033   -3.0003   -6.2883 H         1 LIG1101     0.0554
     17 H4          4.6164   -1.3439   -5.6270 H         1 LIG1101     0.0554
     18 H5          3.5476   -1.6142   -7.0452 H         1 LIG1101     0.0554
     19 H6          6.0341   -3.8147   -7.4213 H         1 LIG1101     0.1523
     20 H7          8.7573   -1.3516   -9.5960 H         1 LIG1101     0.1495
     21 H8          7.4220    0.6367   -9.0608 H         1 LIG1101     0.1310
     22 H9          5.4570    1.5090   -8.4999 H         1 LIG1101     0.1180
     23 H10         4.1617    0.5810   -7.6706 H         1 LIG1101     0.1180
@<TRIPOS>BOND
     1    1   13 1
     2    2    4 1
     3    3   13 2
     4    4    5 ar
     5    4    9 ar
     6    5    6 ar
     7    6    7 ar
     8    6   11 1
     9    7    8 ar
    10    8    9 ar
    11    9   10 1
    12   10   13 1
    13   12   13 2
    14    1   14 1
    15    1   15 1
    16    2   16 1
    17    2   17 1
    18    2   18 1
    19    5   19 1
    20    7   20 1
    21    8   21 1
    22   10   22 1
    23   10   23 1
