@<TRIPOS>MOLECULE
LIG(A-1101)
   34    35     0     0     0
SMALL
USER_CHARGES

@<TRIPOS>ATOM
      1 N1          6.7180   -5.0630   21.8150 N.am      1 LIG1101    -0.4843
      2 C1          7.9510   -3.5980   20.3170 C.3       1 LIG1101    -0.1025
      3 O1          5.9070   -4.6580   19.7500 O.2       1 LIG1101    -0.6033
      4 C2          6.7710   -4.4870   20.5980 C.2       1 LIG1101     0.6666
      5 C3          1.7320   -3.7790   25.8530 C.ar      1 LIG1101    -0.1515
      6 C4          2.7550   -4.7060   25.8010 C.ar      1 LIG1101    -0.0123
      7 C5          5.7880   -6.1380   22.1650 C.3       1 LIG1101     0.0923
      8 C6          4.9860   -5.7630   23.3830 C.3       1 LIG1101     0.1978
      9 C7          6.7570   -4.2820   24.1170 C.3       1 LIG1101     0.1978
     10 C8          7.5860   -4.6670   22.9260 C.3       1 LIG1101     0.0923
     11 C9          4.0460   -4.3140   26.0870 C.ar      1 LIG1101    -0.3871
     12 C10         4.3340   -3.0030   26.4030 C.ar      1 LIG1101    -0.0123
     13 C11         3.3130   -2.0730   26.4540 C.ar      1 LIG1101    -0.1515
     14 C12         2.0260   -2.4750   26.1770 C.ar      1 LIG1101     0.0758
     15 N2          5.9240   -5.4370   24.4690 N.pl3     1 LIG1101    -0.8028
     16 O2          6.4200   -5.0720   26.8440 O.2       1 LIG1101    -0.6480
     17 O3          4.7780   -6.7960   26.1610 O.2       1 LIG1101    -0.6480
     18 S1          5.3500   -5.4980   25.9990 S.o2      1 LIG1101     1.5105
     19 Cl1         0.7380   -1.3080   26.2410 Cl        1 LIG1101    -0.0748
     20 H1          7.7537   -2.6003   20.7361 H         1 LIG1101     0.0673
     21 H2          8.8431   -4.0272   20.7965 H         1 LIG1101     0.0673
     22 H3          0.7148   -4.0743   25.6420 H         1 LIG1101     0.1569
     23 H4          2.5449   -5.7322   25.5378 H         1 LIG1101     0.1585
     24 H5          5.1045   -6.3148   21.3214 H         1 LIG1101     0.0631
     25 H6          6.3572   -7.0557   22.3744 H         1 LIG1101     0.0631
     26 H7          4.3566   -4.8889   23.1597 H         1 LIG1101     0.0569
     27 H8          4.3479   -6.6073   23.6831 H         1 LIG1101     0.0569
     28 H9          7.4119   -4.0205   24.9612 H         1 LIG1101     0.0569
     29 H10         6.1190   -3.4213   23.8676 H         1 LIG1101     0.0569
     30 H11         8.2398   -5.5097   23.1950 H         1 LIG1101     0.0631
     31 H12         8.2016   -3.8088   22.6186 H         1 LIG1101     0.0631
     32 H13         5.3513   -2.7048   26.6094 H         1 LIG1101     0.1585
     33 H14         3.5222   -1.0443   26.7079 H         1 LIG1101     0.1569
     34 Du1         8.2590   -3.4380   18.5410 Du        1 LIG1101     0.0000
@<TRIPOS>BOND
     1    1    4 am
     2    1    7 1
     3    1   10 1
     4    2    4 1
     5    3    4 2
     6    5    6 ar
     7    5   14 ar
     8    6   11 ar
     9    7    8 1
    10    8   15 1
    11    9   10 1
    12    9   15 1
    13   11   12 ar
    14   11   18 1
    15   12   13 ar
    16   13   14 ar
    17   14   19 1
    18   15   18 1
    19   16   18 2
    20   17   18 2
    21    2   20 1
    22    2   21 1
    23    5   22 1
    24    6   23 1
    25    7   24 1
    26    7   25 1
    27    8   26 1
    28    8   27 1
    29    9   28 1
    30    9   29 1
    31   10   30 1
    32   10   31 1
    33   12   32 1
    34   13   33 1
    35    2   34 1
