@<TRIPOS>MOLECULE
LIG(A-1101)
   26    26     0     0     0
SMALL
USER_CHARGES

@<TRIPOS>ATOM
      1 C1         16.2070    2.3660  -14.6990 C.3       1 LIG1101     0.1302
      2 C2         16.7570    3.3040  -12.6730 C.2       1 LIG1101     0.6519
      3 C3         17.6160    2.4530  -11.7500 C.ar      1 LIG1101    -0.1420
      4 C4         18.7090    1.7750  -12.2530 C.ar      1 LIG1101    -0.0762
      5 C5         19.4850    0.9950  -11.4160 C.ar      1 LIG1101    -0.1270
      6 C6         19.1810    0.8860  -10.0750 C.ar      1 LIG1101    -0.1065
      7 C7         18.0910    1.5650   -9.5610 C.ar      1 LIG1101     0.1394
      8 C8         16.0550    3.6700   -7.7390 C.3       1 LIG1101    -0.3735
      9 C9         17.3140    2.3470  -10.4080 C.ar      1 LIG1101    -0.1110
     10 N1         17.7910    1.4270   -8.1430 N.pl3     1 LIG1101    -0.7952
     11 O1         17.0200    3.2820  -14.0350 O.3       1 LIG1101    -0.4612
     12 O2         15.8590    3.9680  -12.2770 O.2       1 LIG1101    -0.4763
     13 O3         17.2430    2.3740   -5.7550 O.2       1 LIG1101    -0.6468
     14 O4         18.6350    3.6490   -7.0130 O.2       1 LIG1101    -0.6468
     15 S1         17.4660    2.7810   -7.1550 S.o2      1 LIG1101     1.4691
     16 H1         16.4434    2.3765  -15.7733 H         1 LIG1101     0.0459
     17 H2         16.3838    1.3584  -14.2946 H         1 LIG1101     0.0459
     18 H3         15.1516    2.6396  -14.5532 H         1 LIG1101     0.0459
     19 H4         18.9577    1.8542  -13.3010 H         1 LIG1101     0.1600
     20 H5         20.3374    0.4659  -11.8159 H         1 LIG1101     0.1460
     21 H6         19.7917    0.2729   -9.4288 H         1 LIG1101     0.1465
     22 H7         16.2192    3.9746   -8.7832 H         1 LIG1101     0.1217
     23 H8         15.1657    3.0253   -7.6808 H         1 LIG1101     0.1217
     24 H9         15.9014    4.5637   -7.1164 H         1 LIG1101     0.1217
     25 H10        16.4624    2.8788  -10.0101 H         1 LIG1101     0.1568
     26 H11        17.2901    0.5970   -7.8976 H         1 LIG1101     0.4597
@<TRIPOS>BOND
     1    1   11 1
     2    2    3 1
     3    2   11 1
     4    2   12 2
     5    3    4 ar
     6    3    9 ar
     7    4    5 ar
     8    5    6 ar
     9    6    7 ar
    10    7    9 ar
    11    7   10 1
    12    8   15 1
    13   10   15 1
    14   13   15 2
    15   14   15 2
    16    1   16 1
    17    1   17 1
    18    1   18 1
    19    4   19 1
    20    5   20 1
    21    6   21 1
    22    8   22 1
    23    8   23 1
    24    8   24 1
    25    9   25 1
    26   10   26 1
