LIG(A-1101)
  -OEChem-04032019403D

 35 36  0     1  0  0  0  0  0999 V2000
   22.5570   14.9480    8.3120 C   0  0  0  0  0  0  0  0  0  0  0  0
   21.4330   14.8650    7.2810 C   0  0  2  0  0  0  0  0  0  0  0  0
   20.7200   13.5250    7.5300 C   0  0  2  0  0  0  0  0  0  0  0  0
   21.1900   12.4260    6.7230 C   0  0  0  0  0  0  0  0  0  0  0  0
   22.4950   12.5870    6.1380 C   0  0  0  0  0  0  0  0  0  0  0  0
   22.7180   13.9190    5.4370 C   0  0  0  0  0  0  0  0  0  0  0  0
   22.5980   16.0880    5.7470 C   0  0  0  0  0  0  0  0  0  0  0  0
   21.7920   17.3520    5.4460 C   0  0  0  0  0  0  0  0  0  0  0  0
   21.4120   17.6070    4.1340 C   0  0  0  0  0  0  0  0  0  0  0  0
   20.7000   18.7590    3.8280 C   0  0  0  0  0  0  0  0  0  0  0  0
   20.3810   19.6630    4.8310 C   0  0  0  0  0  0  0  0  0  0  0  0
   20.7680   19.4190    6.1420 C   0  0  0  0  0  0  0  0  0  0  0  0
   21.4840   18.2670    6.4500 C   0  0  0  0  0  0  0  0  0  0  0  0
   21.9500   15.0480    5.9310 N   0  3  2  0  0  0  0  0  0  0  0  0
   19.3510   13.7170    7.2990 O   0  0  0  0  0  0  0  0  0  0  0  0
   23.1059   15.8923    8.1816 H   0  0  0  0  0  0  0  0  0  0  0  0
   22.1291   14.9096    9.3246 H   0  0  0  0  0  0  0  0  0  0  0  0
   23.2455   14.1015    8.1726 H   0  0  0  0  0  0  0  0  0  0  0  0
   20.7165   15.6710    7.4975 H   0  0  0  0  0  0  0  0  0  0  0  0
   20.8710   13.2677    8.5888 H   0  0  0  0  0  0  0  0  0  0  0  0
   21.2141   11.5281    7.3580 H   0  0  0  0  0  0  0  0  0  0  0  0
   20.4702   12.2772    5.9047 H   0  0  0  0  0  0  0  0  0  0  0  0
   23.2434   12.4917    6.9385 H   0  0  0  0  0  0  0  0  0  0  0  0
   22.6417   11.7834    5.4013 H   0  0  0  0  0  0  0  0  0  0  0  0
   23.7841   14.1726    5.5327 H   0  0  0  0  0  0  0  0  0  0  0  0
   22.4672   13.7835    4.3746 H   0  0  0  0  0  0  0  0  0  0  0  0
   23.2750   15.9136    4.8977 H   0  0  0  0  0  0  0  0  0  0  0  0
   23.1897   16.2776    6.6547 H   0  0  0  0  0  0  0  0  0  0  0  0
   21.6706   16.9087    3.3518 H   0  0  0  0  0  0  0  0  0  0  0  0
   20.3947   18.9513    2.8100 H   0  0  0  0  0  0  0  0  0  0  0  0
   19.8295   20.5600    4.5911 H   0  0  0  0  0  0  0  0  0  0  0  0
   20.5135   20.1224    6.9211 H   0  0  0  0  0  0  0  0  0  0  0  0
   21.8006   18.0823    7.4659 H   0  0  0  0  0  0  0  0  0  0  0  0
   21.1396   15.0867    5.3464 H   0  0  0  0  0  0  0  0  0  0  0  0
   18.8573   13.0284    7.7287 H   0  0  0  0  0  0  0  0  0  0  0  0
  1  2  1  0  0  0  0
  2  3  1  0  0  0  0
  2 14  1  0  0  0  0
  3  4  1  0  0  0  0
  3 15  1  0  0  0  0
  4  5  1  0  0  0  0
  5  6  1  0  0  0  0
  6 14  1  0  0  0  0
  7  8  1  0  0  0  0
  7 14  1  0  0  0  0
  8  9  2  0  0  0  0
  8 13  1  0  0  0  0
  9 10  1  0  0  0  0
 10 11  2  0  0  0  0
 11 12  1  0  0  0  0
 12 13  2  0  0  0  0
  1 16  1  0  0  0  0
  1 17  1  0  0  0  0
  1 18  1  0  0  0  0
  2 19  1  0  0  0  0
  3 20  1  0  0  0  0
  4 21  1  0  0  0  0
  4 22  1  0  0  0  0
  5 23  1  0  0  0  0
  5 24  1  0  0  0  0
  6 25  1  0  0  0  0
  6 26  1  0  0  0  0
  7 27  1  0  0  0  0
  7 28  1  0  0  0  0
  9 29  1  0  0  0  0
 10 30  1  0  0  0  0
 11 31  1  0  0  0  0
 12 32  1  0  0  0  0
 13 33  1  0  0  0  0
 14 34  1  0  0  0  0
 15 35  1  0  0  0  0
M  CHG  1  14   1
M  END
$$$$
