@<TRIPOS>MOLECULE
LIG(A-1101)
   35    36     0     0     0
SMALL
USER_CHARGES

@<TRIPOS>ATOM
      1 C1         24.9750  -17.7740   25.0500 C.2       1 LIG1101     0.6637
      2 C2         24.4430  -18.8160   24.0540 C.3       1 LIG1101    -0.1436
      3 C3         25.1690  -18.8530   22.7650 C.3       1 LIG1101    -0.0765
      4 C4         24.7570  -20.0760   21.9380 C.3       1 LIG1101     0.0735
      5 C5         22.5570  -20.0300   23.2610 C.3       1 LIG1101     0.0735
      6 C6         23.0170  -18.6650   23.7430 C.3       1 LIG1101    -0.0765
      7 C7         22.7370  -21.7090   21.3710 C.2       1 LIG1101     0.7398
      8 C8         22.8150  -23.4020   19.5000 C.ar      1 LIG1101     0.0504
      9 C9         22.6970  -23.2300   18.1340 C.ar      1 LIG1101    -0.1391
     10 C10        22.1220  -24.2260   17.3570 C.ar      1 LIG1101    -0.1155
     11 C11        21.6680  -25.3960   17.9560 C.ar      1 LIG1101    -0.1401
     12 C12        21.7880  -25.5680   19.3300 C.ar      1 LIG1101    -0.1155
     13 C13        22.3620  -24.5710   20.1030 C.ar      1 LIG1101    -0.1391
     14 N1         24.1920  -16.6450   25.5380 N.am      1 LIG1101    -0.6726
     15 N2         23.3570  -20.6330   22.1440 N.am      1 LIG1101    -0.4367
     16 N3         23.4310  -22.3450   20.2690 N.am      1 LIG1101    -0.4603
     17 O1         26.0690  -17.9160   25.4730 O.2       1 LIG1101    -0.6169
     18 O2         21.6350  -22.0620   21.6440 O.2       1 LIG1101    -0.6151
     19 H1         24.5731  -19.7994   24.5294 H         1 LIG1101     0.0825
     20 H2         24.9391  -17.9400   22.1962 H         1 LIG1101     0.0599
     21 H3         26.2502  -18.8996   22.9622 H         1 LIG1101     0.0599
     22 H4         24.8474  -19.8000   20.8770 H         1 LIG1101     0.0509
     23 H5         25.4682  -20.8828   22.1689 H         1 LIG1101     0.0509
     24 H6         22.5975  -20.7209   24.1160 H         1 LIG1101     0.0509
     25 H7         21.5167  -19.9332   22.9168 H         1 LIG1101     0.0509
     26 H8         22.8737  -17.9112   22.9548 H         1 LIG1101     0.0599
     27 H9         22.4575  -18.3666   24.6419 H         1 LIG1101     0.0599
     28 H10        23.0520  -22.3210   17.6712 H         1 LIG1101     0.1413
     29 H11        22.0274  -24.0926   16.2895 H         1 LIG1101     0.1334
     30 H12        21.2214  -26.1724   17.3525 H         1 LIG1101     0.1338
     31 H13        21.4347  -26.4768   19.7944 H         1 LIG1101     0.1334
     32 H14        22.4574  -24.7013   21.1709 H         1 LIG1101     0.1413
     33 H15        24.5843  -16.0182   26.2113 H         1 LIG1101     0.3132
     34 H16        23.2627  -16.4974   25.1994 H         1 LIG1101     0.3132
     35 H17        24.3563  -22.0458   20.0357 H         1 LIG1101     0.3112
@<TRIPOS>BOND
     1    1    2 1
     2    1   14 am
     3    1   17 2
     4    2    3 1
     5    2    6 1
     6    3    4 1
     7    4   15 1
     8    5    6 1
     9    5   15 1
    10    7   15 am
    11    7   16 am
    12    7   18 2
    13    8    9 ar
    14    8   13 ar
    15    8   16 1
    16    9   10 ar
    17   10   11 ar
    18   11   12 ar
    19   12   13 ar
    20    2   19 1
    21    3   20 1
    22    3   21 1
    23    4   22 1
    24    4   23 1
    25    5   24 1
    26    5   25 1
    27    6   26 1
    28    6   27 1
    29    9   28 1
    30   10   29 1
    31   11   30 1
    32   12   31 1
    33   13   32 1
    34   14   33 1
    35   14   34 1
    36   16   35 1
