@<TRIPOS>MOLECULE
LIG(A-1101)
   38    40     0     0     0
SMALL
USER_CHARGES

@<TRIPOS>ATOM
      1 C1         13.8630   -1.3540   23.5770 C.3       1 LIG1101     0.0805
      2 C2          5.8880    0.7990   18.7560 C.ar      1 LIG1101     0.5563
      3 C3          4.0960    1.8680   19.6250 C.ar      1 LIG1101     0.4202
      4 C4          4.4630    1.5430   20.9280 C.ar      1 LIG1101    -0.2566
      5 C5          5.6120    0.8120   21.1430 C.ar      1 LIG1101    -0.0575
      6 C6          6.3570    0.4150   20.0270 C.ar      1 LIG1101    -0.1811
      7 C7         11.5960   -1.9060   22.9700 C.3       1 LIG1101     0.0749
      8 C8         10.1450   -1.5150   23.1150 C.3       1 LIG1101     0.0660
      9 C9         10.7980    0.8020   23.3390 C.3       1 LIG1101     0.0660
     10 C10        12.2470    0.3960   23.2120 C.3       1 LIG1101     0.0749
     11 C11         9.2010    0.1820   21.5600 C.2       1 LIG1101     0.6519
     12 C12         8.4340   -0.9280   20.8580 C.3       1 LIG1101    -0.0487
     13 C13         7.5590   -0.3320   19.8070 C.2       1 LIG1101    -0.1752
     14 C14         7.7660   -0.3530   18.4600 C.2       1 LIG1101     0.0471
     15 N1         12.4570   -0.9710   23.6990 N.4       1 LIG1101    -0.6785
     16 N2          9.9630   -0.1540   22.6160 N.am      1 LIG1101    -0.4948
     17 N3          6.7630    0.3290   17.8230 N.pl3     1 LIG1101    -0.6629
     18 N4          4.7820    1.5220   18.5280 N.ar      1 LIG1101    -0.6513
     19 O1          9.1350    1.3380   21.1480 O.2       1 LIG1101    -0.5300
     20 H1         13.9973   -2.3810   23.9474 H         1 LIG1101     0.1059
     21 H2         14.1666   -1.3026   22.5210 H         1 LIG1101     0.1059
     22 H3         14.4831   -0.6662   24.1707 H         1 LIG1101     0.1059
     23 H4          3.1911    2.4416   19.4887 H         1 LIG1101     0.0330
     24 H5          3.8540    1.8602   21.7616 H         1 LIG1101     0.1492
     25 H6          5.9277    0.5535   22.1430 H         1 LIG1101     0.1304
     26 H7         11.7395   -2.9193   23.3734 H         1 LIG1101     0.1091
     27 H8         11.8691   -1.8934   21.9045 H         1 LIG1101     0.1091
     28 H9          9.5175   -2.2070   22.5341 H         1 LIG1101     0.0993
     29 H10         9.8559   -1.5600   24.1754 H         1 LIG1101     0.0993
     30 H11        10.5108    0.8111   24.4008 H         1 LIG1101     0.0993
     31 H12        10.6593    1.8066   22.9130 H         1 LIG1101     0.0993
     32 H13        12.5438    0.4501   22.1542 H         1 LIG1101     0.1091
     33 H14        12.8667    1.0869   23.8025 H         1 LIG1101     0.1091
     34 H15         9.1436   -1.6278   20.3924 H         1 LIG1101     0.0702
     35 H16         7.8146   -1.4669   21.5901 H         1 LIG1101     0.0702
     36 H17         8.5974   -0.8357   17.9678 H         1 LIG1101     0.1689
     37 H18        12.2054   -1.0015   24.6664 H         1 LIG1101     0.4495
     38 H19         6.6856    0.4605   16.8347 H         1 LIG1101     0.4758
@<TRIPOS>BOND
     1    1   15 1
     2    2    6 ar
     3    2   17 1
     4    2   18 ar
     5    3    4 ar
     6    3   18 ar
     7    4    5 ar
     8    5    6 ar
     9    6   13 1
    10    7    8 1
    11    7   15 1
    12    8   16 1
    13    9   10 1
    14    9   16 1
    15   10   15 1
    16   11   12 1
    17   11   16 am
    18   11   19 2
    19   12   13 1
    20   13   14 2
    21   14   17 1
    22    1   20 1
    23    1   21 1
    24    1   22 1
    25    3   23 1
    26    4   24 1
    27    5   25 1
    28    7   26 1
    29    7   27 1
    30    8   28 1
    31    8   29 1
    32    9   30 1
    33    9   31 1
    34   10   32 1
    35   10   33 1
    36   12   34 1
    37   12   35 1
    38   14   36 1
    39   15   37 1
    40   17   38 1
