LIG(A-1101)
  -OEChem-04292023333D

 30 31  0     1  0  0  0  0  0999 V2000
    7.6390   -0.5590   -4.8740 C   0  0  0  0  0  0  0  0  0  0  0  0
    6.1190   -2.3810   -5.5970 C   0  0  0  0  0  0  0  0  0  0  0  0
    5.2970   -2.6040   -6.6410 C   0  0  0  0  0  0  0  0  0  0  0  0
    5.3850   -1.4810   -7.4760 C   0  0  0  0  0  0  0  0  0  0  0  0
    4.6280   -1.2430   -8.8050 C   0  0  0  0  0  0  0  0  0  0  0  0
    3.1580   -2.0690  -10.7460 C   0  0  0  0  0  0  0  0  0  0  0  0
    4.0330   -2.4710  -11.8940 C   0  0  2  0  0  0  0  0  0  0  0  0
    3.3040   -2.1080  -13.3370 C   0  0  0  0  0  0  0  0  0  0  0  0
    3.7480   -2.9640  -14.1940 C   0  0  0  0  0  0  0  0  0  0  0  0
    4.2590   -4.2040  -13.3660 C   0  0  0  0  0  0  0  0  0  0  0  0
    6.6760   -1.1930   -5.7880 N   0  0  0  0  0  0  0  0  0  0  0  0
    3.8830   -2.3280   -9.4740 N   0  0  0  0  0  0  0  0  0  0  0  0
    6.2130   -0.6480   -6.9380 N   0  0  0  0  0  0  0  0  0  0  0  0
    4.6400   -0.1550   -9.2620 O   0  0  0  0  0  0  0  0  0  0  0  0
    4.2180   -3.7630  -11.8810 O   0  0  0  0  0  0  0  0  0  0  0  0
    7.8212   -1.2218   -4.0152 H   0  0  0  0  0  0  0  0  0  0  0  0
    8.5851   -0.3793   -5.4055 H   0  0  0  0  0  0  0  0  0  0  0  0
    7.2308    0.3984   -4.5180 H   0  0  0  0  0  0  0  0  0  0  0  0
    6.2916   -3.0444   -4.7624 H   0  0  0  0  0  0  0  0  0  0  0  0
    4.6869   -3.4802   -6.8036 H   0  0  0  0  0  0  0  0  0  0  0  0
    2.9173   -0.9984  -10.8224 H   0  0  0  0  0  0  0  0  0  0  0  0
    2.2281   -2.6563  -10.7672 H   0  0  0  0  0  0  0  0  0  0  0  0
    4.9780   -1.9097  -11.8492 H   0  0  0  0  0  0  0  0  0  0  0  0
    2.2114   -2.1945  -13.2438 H   0  0  0  0  0  0  0  0  0  0  0  0
    3.5656   -1.0862  -13.6491 H   0  0  0  0  0  0  0  0  0  0  0  0
    2.9424   -3.2698  -14.8778 H   0  0  0  0  0  0  0  0  0  0  0  0
    4.5748   -2.5274  -14.7735 H   0  0  0  0  0  0  0  0  0  0  0  0
    3.6005   -5.0703  -13.5270 H   0  0  0  0  0  0  0  0  0  0  0  0
    5.2863   -4.4646  -13.6604 H   0  0  0  0  0  0  0  0  0  0  0  0
    3.8659   -3.2423   -9.0693 H   0  0  0  0  0  0  0  0  0  0  0  0
  1 11  1  0  0  0  0
  2  3  2  0  0  0  0
  2 11  1  0  0  0  0
  3  4  1  0  0  0  0
  4  5  1  0  0  0  0
  4 13  2  0  0  0  0
  5 12  1  0  0  0  0
  5 14  2  0  0  0  0
  6  7  1  0  0  0  0
  6 12  1  0  0  0  0
  7  8  1  0  0  0  0
  7 15  1  0  0  0  0
  8  9  1  0  0  0  0
  9 10  1  0  0  0  0
 10 15  1  0  0  0  0
 11 13  1  0  0  0  0
  1 16  1  0  0  0  0
  1 17  1  0  0  0  0
  1 18  1  0  0  0  0
  2 19  1  0  0  0  0
  3 20  1  0  0  0  0
  6 21  1  0  0  0  0
  6 22  1  0  0  0  0
  7 23  1  0  0  0  0
  8 24  1  0  0  0  0
  8 25  1  0  0  0  0
  9 26  1  0  0  0  0
  9 27  1  0  0  0  0
 10 28  1  0  0  0  0
 10 29  1  0  0  0  0
 12 30  1  0  0  0  0
M  END
$$$$
