@<TRIPOS>MOLECULE
LIG(A-1101)
   27    28     0     0     0
SMALL
USER_CHARGES

@<TRIPOS>ATOM
      1 C1          9.4830   -5.4700   26.2140 C.3       1 LIG1101    -0.1613
      2 C2          9.2450   -4.0890   25.5860 C.2       1 LIG1101     0.4280
      3 C3          9.1100   -2.1110   24.1010 C.2       1 LIG1101     0.1820
      4 C4          9.1760   -1.1030   22.9370 C.3       1 LIG1101     0.1191
      5 C5         10.6500    0.2590   23.7520 C.3       1 LIG1101     0.1067
      6 C6         11.9720    1.1570   23.3260 C.3       1 LIG1101    -0.0762
      7 C7         12.9930    0.4020   22.8480 C.2       1 LIG1101    -0.1729
      8 C8         12.6620   -0.8640   22.0630 C.2       1 LIG1101     0.0755
      9 C9         11.4340   -1.5160   22.3580 C.3       1 LIG1101     0.1156
     10 F1         13.6440   -1.5870   21.5050 F         1 LIG1101    -0.1253
     11 N1          8.6850   -3.0140   26.2440 N.2       1 LIG1101    -0.2969
     12 N2          8.5980   -1.8330   25.3570 N.2       1 LIG1101    -0.2578
     13 N3         10.3000   -0.5370   22.8150 N.4       1 LIG1101    -0.6811
     14 S1          9.6260   -3.6700   24.0430 S.3       1 LIG1101    -0.0863
     15 H1          8.5231   -5.8933   26.5447 H         1 LIG1101     0.0891
     16 H2          9.9407   -6.1375   25.4690 H         1 LIG1101     0.0891
     17 H3         10.1561   -5.3686   27.0781 H         1 LIG1101     0.0891
     18 H4          8.9539   -1.6381   22.0019 H         1 LIG1101     0.1178
     19 H5          8.4140   -0.3279   23.1059 H         1 LIG1101     0.1178
     20 H6         10.8925   -0.3300   24.6488 H         1 LIG1101     0.1179
     21 H7          9.8138    0.9381   23.9744 H         1 LIG1101     0.1179
     22 H8         11.6725    1.8748   22.5481 H         1 LIG1101     0.1046
     23 H9         12.3253    1.7036   24.2128 H         1 LIG1101     0.1046
     24 H10        14.0193    0.6912   23.0196 H         1 LIG1101     0.1914
     25 H11        11.0947   -2.0442   21.4548 H         1 LIG1101     0.1198
     26 H12        11.6111   -2.2437   23.1636 H         1 LIG1101     0.1198
     27 H13        10.2014    0.0503   22.0117 H         1 LIG1101     0.4520
@<TRIPOS>BOND
     1    1    2 1
     2    2   11 2
     3    2   14 1
     4    3    4 1
     5    3   12 2
     6    3   14 1
     7    4   13 1
     8    5    6 1
     9    5   13 1
    10    6    7 1
    11    7    8 2
    12    8    9 1
    13    8   10 1
    14    9   13 1
    15   11   12 1
    16    1   15 1
    17    1   16 1
    18    1   17 1
    19    4   18 1
    20    4   19 1
    21    5   20 1
    22    5   21 1
    23    6   22 1
    24    6   23 1
    25    7   24 1
    26    9   25 1
    27    9   26 1
    28   13   27 1
