@<TRIPOS>MOLECULE
LIG(A-1101)
   39    40     0     0     0
SMALL
USER_CHARGES

@<TRIPOS>ATOM
      1 N1          8.7980   -1.9840   23.0490 N.4       1 LIG1101    -0.5402
      2 C1         12.7230   -2.0480   22.1320 C.3       1 LIG1101    -0.0707
      3 O1          5.9400   -4.4160   19.5550 O.2       1 LIG1101    -0.4798
      4 C2         12.1790   -0.9580   23.0200 C.ar      1 LIG1101    -0.0383
      5 C3          6.4650   -1.4660   21.2850 C.3       1 LIG1101     0.0763
      6 C4          7.1870   -3.7400   22.1060 C.2       1 LIG1101     0.1130
      7 C5          7.7650   -3.0040   23.3130 C.2       1 LIG1101    -0.2667
      8 C6          6.5660   -3.3810   19.7670 C.2       1 LIG1101     0.6762
      9 C7          7.2560   -2.7040   18.5920 C.3       1 LIG1101    -0.0981
     10 C8         12.9100    0.2110   23.1590 C.ar      1 LIG1101    -0.1220
     11 C9         12.4700    1.2440   23.9620 C.ar      1 LIG1101    -0.0828
     12 C10        11.2820    1.1230   24.6430 C.ar      1 LIG1101    -0.1199
     13 C11        10.5400   -0.0350   24.5240 C.ar      1 LIG1101    -0.1230
     14 C12        10.9760   -1.0970   23.7340 C.ar      1 LIG1101    -0.1795
     15 C13        10.1080   -2.3270   23.6150 C.3       1 LIG1101     0.1842
     16 C14         8.9100   -1.5010   21.6640 C.3       1 LIG1101     0.1073
     17 C15         7.7370   -0.6600   21.2420 C.3       1 LIG1101    -0.1360
     18 N2          6.7070   -2.8880   21.0100 N.am      1 LIG1101    -0.4452
     19 H1          8.4998   -1.1846   23.5706 H         1 LIG1101     0.4350
     20 H2         13.6825   -1.7260   21.7012 H         1 LIG1101     0.0573
     21 H3         12.8758   -2.9618   22.7250 H         1 LIG1101     0.0573
     22 H4         12.0075   -2.2520   21.3218 H         1 LIG1101     0.0573
     23 H5          6.0162   -1.3687   22.2845 H         1 LIG1101     0.0827
     24 H6          5.7686   -1.0716   20.5304 H         1 LIG1101     0.0827
     25 H7          7.1346   -4.8178   22.0612 H         1 LIG1101     0.2022
     26 H8          7.4318   -3.2209   24.3171 H         1 LIG1101     0.1972
     27 H9          6.6532   -2.8588   17.6850 H         1 LIG1101     0.0836
     28 H10         7.3389   -1.6266   18.7977 H         1 LIG1101     0.0836
     29 H11        13.8443    0.3162   22.6275 H         1 LIG1101     0.1576
     30 H12        13.0578    2.1453   24.0550 H         1 LIG1101     0.1599
     31 H13        10.9307    1.9304   25.2684 H         1 LIG1101     0.1577
     32 H14         9.6027   -0.1196   25.0538 H         1 LIG1101     0.1292
     33 H15         9.9662   -2.7670   24.6132 H         1 LIG1101     0.1064
     34 H16        10.6046   -3.0575   22.9595 H         1 LIG1101     0.1064
     35 H17         9.8251   -0.8970   21.5756 H         1 LIG1101     0.1073
     36 H18         8.9783   -2.3703   20.9934 H         1 LIG1101     0.1073
     37 H19         7.9016   -0.2985   20.2162 H         1 LIG1101     0.0875
     38 H20         7.6441    0.1989   21.9230 H         1 LIG1101     0.0875
     39 Du1         8.9210   -3.3850   18.3200 Du        1 LIG1101     0.0000
@<TRIPOS>BOND
     1    1    7 1
     2    1   15 1
     3    1   16 1
     4    2    4 1
     5    3    8 2
     6    4   10 ar
     7    4   14 ar
     8    5   17 1
     9    5   18 1
    10    6    7 2
    11    6   18 1
    12    8    9 1
    13    8   18 am
    14   10   11 ar
    15   11   12 ar
    16   12   13 ar
    17   13   14 ar
    18   14   15 1
    19   16   17 1
    20    1   19 1
    21    2   20 1
    22    2   21 1
    23    2   22 1
    24    5   23 1
    25    5   24 1
    26    6   25 1
    27    7   26 1
    28    9   27 1
    29    9   28 1
    30   10   29 1
    31   11   30 1
    32   12   31 1
    33   13   32 1
    34   15   33 1
    35   15   34 1
    36   16   35 1
    37   16   36 1
    38   17   37 1
    39   17   38 1
    40    9   39 1
