@<TRIPOS>MOLECULE
LIG(A-1101)
   27    28     0     0     0
SMALL
USER_CHARGES

@<TRIPOS>ATOM
      1 C1         23.6020   -8.1590    5.5510 C.ar      1 LIG1101     0.0190
      2 C2         24.3630   -6.8860    5.9160 C.ar      1 LIG1101    -0.0792
      3 C3         25.7340   -6.8750    5.9130 C.ar      1 LIG1101    -0.1089
      4 C4         26.4600   -8.0750    5.5590 C.ar      1 LIG1101    -0.1140
      5 C5         25.7220   -9.3240    5.2040 C.ar      1 LIG1101    -0.1783
      6 C6         26.5110  -10.5760    4.8470 C.3       1 LIG1101     0.1866
      7 C7         27.8620  -10.6920    6.6860 C.3       1 LIG1101     0.0690
      8 C8         28.3350  -11.4820    7.8940 C.3       1 LIG1101     0.0896
      9 C9         27.4260  -13.4380    6.8560 C.2       1 LIG1101     0.1433
     10 C10        27.2110  -12.6010    5.6070 C.2       1 LIG1101    -0.2728
     11 C11        24.3120   -9.3370    5.2050 C.ar      1 LIG1101    -0.1038
     12 N1         26.8660  -11.2690    5.9440 N.4       1 LIG1101    -0.5501
     13 O1         28.2930  -12.9030    7.7660 O.3       1 LIG1101    -0.2824
     14 Cl1        21.8170   -8.1260    5.5810 Cl        1 LIG1101    -0.0299
     15 H1         27.4948   -9.7186    7.0432 H         1 LIG1101     0.1202
     16 H2         28.7276  -10.5373    6.0250 H         1 LIG1101     0.1202
     17 H3         29.3764  -11.1929    8.0989 H         1 LIG1101     0.1096
     18 H4         27.7017  -11.2019    8.7487 H         1 LIG1101     0.1096
     19 H5         26.9307  -14.3848    7.0129 H         1 LIG1101     0.2279
     20 H6         27.3081  -12.9716    4.5973 H         1 LIG1101     0.2132
     21 H7         26.0597  -11.3268    6.5327 H         1 LIG1101     0.4533
     22 H8         23.8187   -5.9906    6.1776 H         1 LIG1101     0.1734
     23 H9         26.2696   -5.9742    6.1738 H         1 LIG1101     0.1655
     24 H10        27.5399   -8.0678    5.5514 H         1 LIG1101     0.1404
     25 H11        25.8899  -11.2180    4.2050 H         1 LIG1101     0.1113
     26 H12        27.4197  -10.2815    4.3016 H         1 LIG1101     0.1113
     27 H13        23.7764  -10.2378    4.9441 H         1 LIG1101     0.1561
@<TRIPOS>BOND
     1    1    2 ar
     2    1   11 ar
     3    1   14 1
     4    2    3 ar
     5    3    4 ar
     6    4    5 ar
     7    5    6 1
     8    5   11 ar
     9    6   12 1
    10    7    8 1
    11    7   12 1
    12    8   13 1
    13    9   10 2
    14    9   13 1
    15   10   12 1
    16    7   15 1
    17    7   16 1
    18    8   17 1
    19    8   18 1
    20    9   19 1
    21   10   20 1
    22   12   21 1
    23    2   22 1
    24    3   23 1
    25    4   24 1
    26    6   25 1
    27    6   26 1
    28   11   27 1
