@<TRIPOS>MOLECULE
LIG(A-1101)
   36    38     0     0     0
SMALL
USER_CHARGES

@<TRIPOS>ATOM
      1 C1          6.8940   -3.2690   20.0090 C.2       1 LIG1101     0.6609
      2 C2          7.3960   -2.6410   18.7390 C.3       1 LIG1101    -0.1034
      3 C3          6.5830   -3.0990   22.4350 C.3       1 LIG1101     0.1184
      4 C4          7.5660   -3.6430   23.4340 C.ar      1 LIG1101    -0.0957
      5 C5          7.1060   -4.4750   24.4560 C.ar      1 LIG1101    -0.1231
      6 C6          7.9820   -4.9920   25.3920 C.ar      1 LIG1101    -0.1259
      7 C7          9.3270   -4.6890   25.3190 C.ar      1 LIG1101    -0.1301
      8 C8          9.7980   -3.8650   24.3090 C.ar      1 LIG1101    -0.1181
      9 C9          8.9250   -3.3220   23.3570 C.ar      1 LIG1101    -0.0723
     10 C10         9.4710   -2.4290   22.2480 C.3       1 LIG1101     0.0027
     11 C11        10.4440   -1.3760   22.7380 C.ar      1 LIG1101    -0.0810
     12 C12        11.7260   -1.2880   22.2100 C.ar      1 LIG1101    -0.1222
     13 C13        12.6150   -0.3270   22.6610 C.ar      1 LIG1101    -0.1298
     14 C14        12.2350    0.5650   23.6380 C.ar      1 LIG1101    -0.1269
     15 C15        10.9690    0.4960   24.1700 C.ar      1 LIG1101    -0.1298
     16 C16        10.0780   -0.4680   23.7240 C.ar      1 LIG1101    -0.1222
     17 C17         8.3600   -1.7750   21.4300 C.3       1 LIG1101     0.0976
     18 N1          7.2700   -2.7250   21.1980 N.am      1 LIG1101    -0.4691
     19 O1          6.1580   -4.2440   19.9390 O.2       1 LIG1101    -0.5955
     20 H1          6.6741   -2.8085   17.9261 H         1 LIG1101     0.0663
     21 H2          7.5391   -1.5602   18.8853 H         1 LIG1101     0.0663
     22 H3          5.8284   -3.8679   22.2127 H         1 LIG1101     0.0744
     23 H4          6.0890   -2.2119   22.8581 H         1 LIG1101     0.0744
     24 H5          6.0552   -4.7172   24.5161 H         1 LIG1101     0.1350
     25 H6          7.6145   -5.6326   26.1800 H         1 LIG1101     0.1329
     26 H7         10.0121   -5.0941   26.0490 H         1 LIG1101     0.1325
     27 H8         10.8526   -3.6383   24.2550 H         1 LIG1101     0.1379
     28 H9         10.0278   -3.0824   21.5602 H         1 LIG1101     0.0649
     29 H10        12.0331   -1.9779   21.4379 H         1 LIG1101     0.1342
     30 H11        13.6103   -0.2771   22.2446 H         1 LIG1101     0.1329
     31 H12        12.9287    1.3163   23.9854 H         1 LIG1101     0.1334
     32 H13        10.6680    1.1943   24.9370 H         1 LIG1101     0.1329
     33 H14         9.0861   -0.5138   24.1487 H         1 LIG1101     0.1342
     34 H15         7.9712   -0.9040   21.9779 H         1 LIG1101     0.0565
     35 H16         8.7674   -1.4474   20.4622 H         1 LIG1101     0.0565
     36 Du1         8.9750   -3.4240   18.3340 Du        1 LIG1101     0.0000
@<TRIPOS>BOND
     1    1    2 1
     2    1   18 am
     3    1   19 2
     4    3    4 1
     5    3   18 1
     6    4    5 ar
     7    4    9 ar
     8    5    6 ar
     9    6    7 ar
    10    7    8 ar
    11    8    9 ar
    12    9   10 1
    13   10   11 1
    14   10   17 1
    15   11   12 ar
    16   11   16 ar
    17   12   13 ar
    18   13   14 ar
    19   14   15 ar
    20   15   16 ar
    21   17   18 1
    22    2   20 1
    23    2   21 1
    24    3   22 1
    25    3   23 1
    26    5   24 1
    27    6   25 1
    28    7   26 1
    29    8   27 1
    30   10   28 1
    31   12   29 1
    32   13   30 1
    33   14   31 1
    34   15   32 1
    35   16   33 1
    36   17   34 1
    37   17   35 1
    38    2   36 1
