@<TRIPOS>MOLECULE
LIG(A-1101)
   35    36     0     0     0
SMALL
USER_CHARGES

@<TRIPOS>ATOM
      1 C1         10.7320   -4.4920   25.7770 C.3       1 LIG1101    -0.0587
      2 C2          9.6260   -4.5180   24.7860 C.ar      1 LIG1101    -0.0756
      3 C3          8.9370   -5.6900   24.5520 C.ar      1 LIG1101    -0.1192
      4 C4          7.9130   -5.7480   23.6320 C.ar      1 LIG1101    -0.1399
      5 C5          7.5610   -4.6030   22.9230 C.ar      1 LIG1101     0.0315
      6 C6          6.7140   -4.3530   20.6700 C.2       1 LIG1101     0.6719
      7 C7          8.0050   -3.6310   20.3570 C.3       1 LIG1101    -0.0962
      8 C8          5.1700   -5.0530   22.4600 C.3       1 LIG1101     0.1481
      9 C9          4.9760   -4.5580   23.8880 C.3       1 LIG1101    -0.0636
     10 C10         4.3500   -5.4030   24.6980 C.3       1 LIG1101    -0.3184
     11 C11         5.0010   -6.5780   22.4800 C.3       1 LIG1101    -0.3514
     12 C12         8.2400   -3.4080   23.1550 C.ar      1 LIG1101    -0.1399
     13 C13         9.2720   -3.3840   24.0720 C.ar      1 LIG1101    -0.1192
     14 N1          6.4880   -4.6590   21.9790 N.am      1 LIG1101    -0.3973
     15 O1          5.9080   -4.6340   19.7950 O.2       1 LIG1101    -0.5967
     16 O2          2.6000   -6.9740   23.5270 O.2       1 LIG1101    -0.6521
     17 O3          4.5160   -8.0110   24.6710 O.2       1 LIG1101    -0.6521
     18 S1          3.9870   -6.9150   23.9050 S.o2      1 LIG1101     1.3220
     19 H1         10.8532   -5.4923   26.2183 H         1 LIG1101     0.0481
     20 H2         11.6659   -4.1967   25.2764 H         1 LIG1101     0.0481
     21 H3         10.4963   -3.7674   26.5704 H         1 LIG1101     0.0481
     22 H4          9.2058   -6.5803   25.1012 H         1 LIG1101     0.1410
     23 H5          7.3869   -6.6758   23.4621 H         1 LIG1101     0.1408
     24 H6          7.9921   -2.6607   20.8750 H         1 LIG1101     0.0712
     25 H7          8.8405   -4.2379   20.7360 H         1 LIG1101     0.0712
     26 H8          4.3901   -4.6160   21.8191 H         1 LIG1101     0.0953
     27 H9          5.9686   -4.3500   24.3141 H         1 LIG1101     0.0695
     28 H10         4.3912   -3.6271   23.8492 H         1 LIG1101     0.0695
     29 H11         4.9919   -5.6030   25.5686 H         1 LIG1101     0.1252
     30 H12         3.4092   -4.9427   25.0342 H         1 LIG1101     0.1252
     31 H13         4.5034   -6.9233   21.5618 H         1 LIG1101     0.1361
     32 H14         5.9784   -7.0735   22.5759 H         1 LIG1101     0.1361
     33 H15         7.9618   -2.5102   22.6230 H         1 LIG1101     0.1408
     34 H16         9.8136   -2.4642   24.2360 H         1 LIG1101     0.1410
     35 Du1         8.2770   -3.3290   18.5900 Du        1 LIG1101     0.0000
@<TRIPOS>BOND
     1    1    2 1
     2    2    3 ar
     3    2   13 ar
     4    3    4 ar
     5    4    5 ar
     6    5   12 ar
     7    5   14 1
     8    6    7 1
     9    6   14 am
    10    6   15 2
    11    8    9 1
    12    8   11 1
    13    8   14 1
    14    9   10 1
    15   10   18 1
    16   11   18 1
    17   12   13 ar
    18   16   18 2
    19   17   18 2
    20    1   19 1
    21    1   20 1
    22    1   21 1
    23    3   22 1
    24    4   23 1
    25    7   24 1
    26    7   25 1
    27    8   26 1
    28    9   27 1
    29    9   28 1
    30   10   29 1
    31   10   30 1
    32   11   31 1
    33   11   32 1
    34   12   33 1
    35   13   34 1
    36    7   35 1
