@<TRIPOS>MOLECULE
LIG(A-1101)
   38    39     0     0     0
SMALL
USER_CHARGES

@<TRIPOS>ATOM
      1 N1          8.4250   -2.2200   23.0830 N.4       1 LIG1101    -0.6837
      2 C1         11.2460    2.1310   24.5900 C.3       1 LIG1101    -0.0692
      3 O1          5.7570   -4.2040   19.6120 O.2       1 LIG1101    -0.5517
      4 C2         11.4740    0.7460   24.0560 C.ar      1 LIG1101    -0.0551
      5 C3          8.8030   -1.6810   21.7720 C.3       1 LIG1101     0.0768
      6 C4          6.4620   -3.2010   19.6390 C.2       1 LIG1101     0.6662
      7 C5          7.0760   -2.6850   18.3670 C.3       1 LIG1101    -0.0905
      8 C6         10.5080   -0.2380   24.1980 C.ar      1 LIG1101    -0.1309
      9 C7         12.6500    0.4120   23.4010 C.ar      1 LIG1101    -0.0882
     10 C8         12.8530   -0.8600   22.8960 C.ar      1 LIG1101    -0.1124
     11 C9         11.8760   -1.8260   23.0500 C.ar      1 LIG1101    -0.1063
     12 C10        10.7010   -1.5300   23.7210 C.ar      1 LIG1101    -0.1702
     13 C11         9.6120   -2.5590   23.8720 C.3       1 LIG1101     0.1771
     14 C12         7.5620   -3.3920   22.9270 C.3       1 LIG1101     0.0768
     15 C13         6.3450   -3.0600   22.0970 C.3       1 LIG1101     0.0722
     16 C14         7.5850   -1.3610   20.9390 C.3       1 LIG1101     0.0722
     17 N2          6.7680   -2.5620   20.7910 N.am      1 LIG1101    -0.4978
     18 H1          7.9123   -1.5162   23.5748 H         1 LIG1101     0.4406
     19 H2         11.0853    2.0835   25.6772 H         1 LIG1101     0.0615
     20 H3         12.1259    2.7556   24.3765 H         1 LIG1101     0.0615
     21 H4         10.3598    2.5687   24.1072 H         1 LIG1101     0.0615
     22 H5          9.3891   -0.7616   21.9179 H         1 LIG1101     0.1097
     23 H6          9.4147   -2.4254   21.2413 H         1 LIG1101     0.1097
     24 H7          6.4963   -3.0424   17.5032 H         1 LIG1101     0.0815
     25 H8          7.0800   -1.5850   18.3761 H         1 LIG1101     0.0815
     26 H9          9.5795    0.0055   24.6929 H         1 LIG1101     0.1313
     27 H10        13.4215    1.1585   23.2830 H         1 LIG1101     0.1606
     28 H11        13.7729   -1.0978   22.3825 H         1 LIG1101     0.1600
     29 H12        12.0296   -2.8155   22.6454 H         1 LIG1101     0.1435
     30 H13         9.3275   -2.6223   24.9327 H         1 LIG1101     0.1049
     31 H14         9.9953   -3.5339   23.5364 H         1 LIG1101     0.1049
     32 H15         8.1290   -4.1929   22.4300 H         1 LIG1101     0.1097
     33 H16         7.2374   -3.7348   23.9206 H         1 LIG1101     0.1097
     34 H17         5.7338   -3.9648   21.9641 H         1 LIG1101     0.0957
     35 H18         5.7513   -2.2884   22.6090 H         1 LIG1101     0.0957
     36 H19         6.9964   -0.5760   21.4364 H         1 LIG1101     0.0957
     37 H20         7.9018   -1.0083   19.9464 H         1 LIG1101     0.0957
     38 Du1         8.7790   -3.3030   18.2600 Du        1 LIG1101     0.0000
@<TRIPOS>BOND
     1    1    5 1
     2    1   13 1
     3    1   14 1
     4    2    4 1
     5    3    6 2
     6    4    8 ar
     7    4    9 ar
     8    5   16 1
     9    6    7 1
    10    6   17 am
    11    8   12 ar
    12    9   10 ar
    13   10   11 ar
    14   11   12 ar
    15   12   13 1
    16   14   15 1
    17   15   17 1
    18   16   17 1
    19    1   18 1
    20    2   19 1
    21    2   20 1
    22    2   21 1
    23    5   22 1
    24    5   23 1
    25    7   24 1
    26    7   25 1
    27    8   26 1
    28    9   27 1
    29   10   28 1
    30   11   29 1
    31   13   30 1
    32   13   31 1
    33   14   32 1
    34   14   33 1
    35   15   34 1
    36   15   35 1
    37   16   36 1
    38   16   37 1
    39    7   38 1
