@<TRIPOS>MOLECULE
LIG(A-1101)
   32    33     0     0     0
SMALL
USER_CHARGES

@<TRIPOS>ATOM
      1 C1          6.7380   -4.3620   20.9160 C.2       1 LIG1101     0.6744
      2 C2          8.0390   -3.6990   20.5190 C.3       1 LIG1101    -0.0956
      3 C3          7.5590   -4.5590   23.2100 C.ar      1 LIG1101     0.0087
      4 C4          8.0330   -3.3810   23.7820 C.ar      1 LIG1101    -0.1065
      5 C5          9.0640   -3.4280   24.7080 C.ar      1 LIG1101    -0.1609
      6 C6          9.5930   -4.6450   25.0370 C.ar      1 LIG1101     0.1330
      7 C7          9.1520   -5.8190   24.4970 C.ar      1 LIG1101    -0.1609
      8 C8          8.1190   -5.7780   23.5760 C.ar      1 LIG1101    -0.1065
      9 C9          5.1140   -4.7170   22.7420 C.3       1 LIG1101     0.1630
     10 C10         4.9640   -4.3570   24.2200 C.3       1 LIG1101    -0.0634
     11 C11         4.2050   -5.1890   24.9280 C.3       1 LIG1101    -0.3180
     12 C12         4.6940   -6.1880   22.5810 C.3       1 LIG1101    -0.3552
     13 F1         10.6110   -4.6920   25.9370 F         1 LIG1101    -0.1333
     14 N1          6.4830   -4.5230   22.2610 N.am      1 LIG1101    -0.4161
     15 O1          5.9510   -4.7480   20.0600 O.2       1 LIG1101    -0.5836
     16 O2          2.6560   -7.1010   24.0200 O.2       1 LIG1101    -0.6524
     17 O3          4.9210   -7.7050   24.7510 O.2       1 LIG1101    -0.6524
     18 S1          4.0430   -6.7410   24.1440 S.o2      1 LIG1101     1.3246
     19 H1          8.0708   -2.7089   20.9973 H         1 LIG1101     0.0712
     20 H2          8.8625   -4.3186   20.9036 H         1 LIG1101     0.0712
     21 H3          7.5981   -2.4321   23.5047 H         1 LIG1101     0.1499
     22 H4          9.4412   -2.5224   25.1598 H         1 LIG1101     0.1571
     23 H5          9.5995   -6.7596   24.7822 H         1 LIG1101     0.1571
     24 H6          7.7476   -6.6942   23.1412 H         1 LIG1101     0.1499
     25 H7          4.4260   -4.0905   22.1554 H         1 LIG1101     0.0829
     26 H8          5.9672   -4.3430   24.6711 H         1 LIG1101     0.0683
     27 H9          4.5196   -3.3527   24.2830 H         1 LIG1101     0.0683
     28 H10         4.6634   -5.3354   25.9172 H         1 LIG1101     0.1253
     29 H11         3.2060   -4.7447   25.0490 H         1 LIG1101     0.1253
     30 H12         3.9218   -6.2738   21.8023 H         1 LIG1101     0.1372
     31 H13         5.5658   -6.7979   22.3016 H         1 LIG1101     0.1372
     32 Du1         8.3090   -3.4620   18.7290 Du        1 LIG1101     0.0000
@<TRIPOS>BOND
     1    1    2 1
     2    1   14 am
     3    1   15 2
     4    3    4 ar
     5    3    8 ar
     6    3   14 1
     7    4    5 ar
     8    5    6 ar
     9    6    7 ar
    10    6   13 1
    11    7    8 ar
    12    9   10 1
    13    9   12 1
    14    9   14 1
    15   10   11 1
    16   11   18 1
    17   12   18 1
    18   16   18 2
    19   17   18 2
    20    2   19 1
    21    2   20 1
    22    4   21 1
    23    5   22 1
    24    7   23 1
    25    8   24 1
    26    9   25 1
    27   10   26 1
    28   10   27 1
    29   11   28 1
    30   11   29 1
    31   12   30 1
    32   12   31 1
    33    2   32 1
