@<TRIPOS>MOLECULE
LIG(A-1101)
   30    31     0     0     0
SMALL
USER_CHARGES

@<TRIPOS>ATOM
      1 C1          7.6390   -0.5590   -4.8740 C.3       1 LIG1101     0.0390
      2 C2          6.1190   -2.3810   -5.5970 C.2       1 LIG1101    -0.1572
      3 C3          5.2970   -2.6040   -6.6410 C.2       1 LIG1101    -0.2702
      4 C4          5.3850   -1.4810   -7.4760 C.2       1 LIG1101     0.2491
      5 C5          4.6280   -1.2430   -8.8050 C.2       1 LIG1101     0.5888
      6 C6          3.1580   -2.0690  -10.7460 C.3       1 LIG1101     0.0875
      7 C7          4.0330   -2.4710  -11.8940 C.3       1 LIG1101     0.1030
      8 C8          3.3040   -2.1080  -13.3370 C.3       1 LIG1101    -0.1017
      9 C9          3.7480   -2.9640  -14.1940 C.3       1 LIG1101    -0.1090
     10 C10         4.2590   -4.2040  -13.3660 C.3       1 LIG1101     0.1273
     11 N1          6.6760   -1.1930   -5.7880 N.pl3     1 LIG1101     0.0953
     12 N2          3.8830   -2.3280   -9.4740 N.am      1 LIG1101    -0.5523
     13 N3          6.2130   -0.6480   -6.9380 N.2       1 LIG1101    -0.4402
     14 O1          4.6400   -0.1550   -9.2620 O.2       1 LIG1101    -0.5854
     15 O2          4.2180   -3.7630  -11.8810 O.3       1 LIG1101    -0.4349
     16 H1          7.8212   -1.2218   -4.0152 H         1 LIG1101     0.0627
     17 H2          8.5851   -0.3793   -5.4055 H         1 LIG1101     0.0627
     18 H3          7.2308    0.3984   -4.5180 H         1 LIG1101     0.0627
     19 H4          6.2916   -3.0444   -4.7624 H         1 LIG1101     0.1767
     20 H5          4.6869   -3.4802   -6.8036 H         1 LIG1101     0.1689
     21 H6          2.9173   -0.9984  -10.8224 H         1 LIG1101     0.0713
     22 H7          2.2281   -2.6563  -10.7672 H         1 LIG1101     0.0713
     23 H8          4.9780   -1.9097  -11.8492 H         1 LIG1101     0.0613
     24 H9          2.2114   -2.1945  -13.2438 H         1 LIG1101     0.0577
     25 H10         3.5656   -1.0862  -13.6491 H         1 LIG1101     0.0577
     26 H11         2.9424   -3.2698  -14.8778 H         1 LIG1101     0.0528
     27 H12         4.5748   -2.5274  -14.7735 H         1 LIG1101     0.0528
     28 H13         3.6005   -5.0703  -13.5270 H         1 LIG1101     0.0453
     29 H14         5.2863   -4.4646  -13.6604 H         1 LIG1101     0.0453
     30 H15         3.8659   -3.2423   -9.0693 H         1 LIG1101     0.3119
@<TRIPOS>BOND
     1    1   11 1
     2    2    3 2
     3    2   11 1
     4    3    4 1
     5    4    5 1
     6    4   13 2
     7    5   12 am
     8    5   14 2
     9    6    7 1
    10    6   12 1
    11    7    8 1
    12    7   15 1
    13    8    9 1
    14    9   10 1
    15   10   15 1
    16   11   13 1
    17    1   16 1
    18    1   17 1
    19    1   18 1
    20    2   19 1
    21    3   20 1
    22    6   21 1
    23    6   22 1
    24    7   23 1
    25    8   24 1
    26    8   25 1
    27    9   26 1
    28    9   27 1
    29   10   28 1
    30   10   29 1
    31   12   30 1
