@<TRIPOS>MOLECULE
LIG(A-1101)
   38    38     0     0     0
SMALL
USER_CHARGES

@<TRIPOS>ATOM
      1 N1          6.9050   -3.2530   26.5180 N.am      1 LIG1101    -0.5709
      2 C1          8.8820   -4.6490   27.0870 C.3       1 LIG1101    -0.1142
      3 O1          4.9020   -3.1340   25.4680 O.2       1 LIG1101    -0.5327
      4 C2          7.4370   -4.3190   27.4040 C.3       1 LIG1101     0.1365
      5 C3          6.3720   -4.2150   20.1100 C.2       1 LIG1101     0.6537
      6 C4          6.9220   -3.0840   19.2830 C.3       1 LIG1101    -0.1026
      7 C5          6.5500   -5.5470   27.4350 C.3       1 LIG1101    -0.1142
      8 C6          7.4200   -1.9060   26.7830 C.3       1 LIG1101     0.1137
      9 C7          6.0860   -3.4870   25.4720 C.2       1 LIG1101     0.7056
     10 C8          6.7400   -4.0610   24.2270 C.3       1 LIG1101    -0.1456
     11 C9          5.8010   -5.0010   23.4680 C.3       1 LIG1101    -0.0992
     12 C10         6.4650   -5.5020   22.2100 C.3       1 LIG1101     0.0856
     13 C11         7.7930   -3.4550   22.0240 C.3       1 LIG1101     0.0856
     14 C12         7.1870   -2.9230   23.3010 C.3       1 LIG1101    -0.0992
     15 N2          6.8590   -4.3720   21.3620 N.am      1 LIG1101    -0.4639
     16 O2          5.5160   -4.9550   19.6440 O.2       1 LIG1101    -0.6059
     17 H1          9.2350   -5.4406   27.7644 H         1 LIG1101     0.0415
     18 H2          8.9588   -4.9961   26.0460 H         1 LIG1101     0.0415
     19 H3          9.5011   -3.7496   27.2202 H         1 LIG1101     0.0415
     20 H4          7.4319   -3.9100   28.4251 H         1 LIG1101     0.0450
     21 H5          6.1937   -2.8329   18.4978 H         1 LIG1101     0.0659
     22 H6          7.0746   -2.2108   19.9344 H         1 LIG1101     0.0659
     23 H7          6.9902   -6.3011   28.1039 H         1 LIG1101     0.0415
     24 H8          5.5515   -5.2687   27.8031 H         1 LIG1101     0.0415
     25 H9          6.4640   -5.9627   26.4202 H         1 LIG1101     0.0415
     26 H10         6.9669   -1.1942   26.0773 H         1 LIG1101     0.0289
     27 H11         7.1669   -1.6128   27.8125 H         1 LIG1101     0.0289
     28 H12         8.5129   -1.9003   26.6583 H         1 LIG1101     0.0289
     29 H13         7.6307   -4.6306   24.5307 H         1 LIG1101     0.0715
     30 H14         5.5480   -5.8574   24.1104 H         1 LIG1101     0.0622
     31 H15         4.8820   -4.4583   23.2016 H         1 LIG1101     0.0622
     32 H16         7.3588   -6.0845   22.4779 H         1 LIG1101     0.0587
     33 H17         5.7616   -6.1428   21.6581 H         1 LIG1101     0.0587
     34 H18         8.0157   -2.6146   21.3501 H         1 LIG1101     0.0587
     35 H19         8.7234   -3.9922   22.2599 H         1 LIG1101     0.0587
     36 H20         7.9358   -2.3099   23.8238 H         1 LIG1101     0.0622
     37 H21         6.3143   -2.3018   23.0509 H         1 LIG1101     0.0622
     38 Du1         8.5020   -3.5110   18.4990 Du        1 LIG1101     0.0000
@<TRIPOS>BOND
     1    1    4 1
     2    1    8 1
     3    1    9 am
     4    2    4 1
     5    3    9 2
     6    4    7 1
     7    5    6 1
     8    5   15 am
     9    5   16 2
    10    9   10 1
    11   10   11 1
    12   10   14 1
    13   11   12 1
    14   12   15 1
    15   13   14 1
    16   13   15 1
    17    2   17 1
    18    2   18 1
    19    2   19 1
    20    4   20 1
    21    6   21 1
    22    6   22 1
    23    7   23 1
    24    7   24 1
    25    7   25 1
    26    8   26 1
    27    8   27 1
    28    8   28 1
    29   10   29 1
    30   11   30 1
    31   11   31 1
    32   12   32 1
    33   12   33 1
    34   13   34 1
    35   13   35 1
    36   14   36 1
    37   14   37 1
    38    6   38 1
