@<TRIPOS>MOLECULE
LIG(A-1101)
   28    29     0     0     0
SMALL
USER_CHARGES

@<TRIPOS>ATOM
      1 C1          7.4480  -23.3320   -1.2820 C.3       1 LIG1101    -0.0963
      2 C2          7.1260  -21.8580   -0.9670 C.3       1 LIG1101     0.1299
      3 C3          7.7130  -20.9540   -2.0490 C.3       1 LIG1101     0.0586
      4 C4          7.7030  -18.6320   -3.0760 C.2       1 LIG1101     0.6383
      5 C5          8.8180  -18.9900   -4.0610 C.3       1 LIG1101    -0.0077
      6 C6         10.0330  -16.8490   -4.0240 C.2       1 LIG1101    -0.1258
      7 C7         10.3160  -15.8410   -4.9240 C.2       1 LIG1101    -0.2920
      8 C8          9.7340  -16.2090   -6.1270 C.2       1 LIG1101     0.3061
      9 C9          6.1560  -19.2990   -1.1820 C.2       1 LIG1101    -0.1074
     10 C10         5.2020  -20.4380   -0.8260 C.2       1 LIG1101    -0.0454
     11 N1          7.2020  -19.6060   -2.1260 N.am      1 LIG1101    -0.3891
     12 N2          9.3260  -17.7680   -4.6570 N.pl3     1 LIG1101     0.0765
     13 N3          9.1390  -17.3750   -5.9500 N.2       1 LIG1101    -0.5027
     14 O1          7.2450  -17.5370   -3.1020 O.2       1 LIG1101    -0.5588
     15 O2          5.7300  -21.7480   -0.8410 O.3       1 LIG1101    -0.3238
     16 H1          7.0222  -23.9764   -0.4987 H         1 LIG1101     0.0526
     17 H2          7.0130  -23.6022   -2.2555 H         1 LIG1101     0.0526
     18 H3          8.5388  -23.4695   -1.3169 H         1 LIG1101     0.0526
     19 H4          7.6064  -21.6031   -0.0108 H         1 LIG1101     0.0534
     20 H5          8.7970  -20.8883   -1.8742 H         1 LIG1101     0.0497
     21 H6          7.5267  -21.4353   -3.0204 H         1 LIG1101     0.0497
     22 H7          9.6299  -19.5068   -3.5284 H         1 LIG1101     0.0893
     23 H8          8.4192  -19.6471   -4.8479 H         1 LIG1101     0.0893
     24 H9         10.3355  -16.8805   -2.9877 H         1 LIG1101     0.1749
     25 H10        10.8807  -14.9413   -4.7288 H         1 LIG1101     0.1668
     26 H11         9.7620  -15.6427   -7.0462 H         1 LIG1101     0.0439
     27 H12         6.0524  -18.3150   -0.7491 H         1 LIG1101     0.1871
     28 H13         4.1689  -20.2497   -0.5738 H         1 LIG1101     0.1776
@<TRIPOS>BOND
     1    1    2 1
     2    2    3 1
     3    2   15 1
     4    3   11 1
     5    4    5 1
     6    4   11 am
     7    4   14 2
     8    5   12 1
     9    6    7 2
    10    6   12 1
    11    7    8 1
    12    8   13 2
    13    9   10 2
    14    9   11 1
    15   10   15 1
    16   12   13 1
    17    1   16 1
    18    1   17 1
    19    1   18 1
    20    2   19 1
    21    3   20 1
    22    3   21 1
    23    5   22 1
    24    5   23 1
    25    6   24 1
    26    7   25 1
    27    8   26 1
    28    9   27 1
    29   10   28 1
