LIG(A-1101)
  -OEChem-04162022383D

 35 35  0     1  0  0  0  0  0999 V2000
    7.7120    4.9760   22.5680 C   0  0  0  0  0  0  0  0  0  0  0  0
    6.9510   -0.2240   20.1690 C   0  0  0  0  0  0  0  0  0  0  0  0
    9.0430    0.4530   22.3300 C   0  0  0  0  0  0  0  0  0  0  0  0
    9.9800   -1.7280   21.8820 C   0  0  0  0  0  0  0  0  0  0  0  0
   11.3510   -1.5920   22.3760 C   0  0  0  0  0  0  0  0  0  0  0  0
   12.4580   -1.6420   22.8330 C   0  0  0  0  0  0  0  0  0  0  0  0
    7.2810    3.5960   22.9500 C   0  0  0  0  0  0  0  0  0  0  0  0
    7.8660    1.2230   22.9140 C   0  0  2  0  0  0  0  0  0  0  0  0
    6.5260    0.5830   22.5150 C   0  0  0  0  0  0  0  0  0  0  0  0
    6.2730    0.6260   21.0280 C   0  0  0  0  0  0  0  0  0  0  0  0
    5.3860    1.5380   20.4750 C   0  0  0  0  0  0  0  0  0  0  0  0
    5.1740    1.5990   19.1080 C   0  0  0  0  0  0  0  0  0  0  0  0
    5.8630    0.7370   18.2730 C   0  0  0  0  0  0  0  0  0  0  0  0
    6.7550   -0.1720   18.8020 C   0  0  0  0  0  0  0  0  0  0  0  0
    7.9910    2.5940   22.4400 N   0  0  0  0  0  0  0  0  0  0  0  0
    9.0960   -0.8440   22.6110 N   0  0  0  0  0  0  0  0  0  0  0  0
    6.3070    3.3850   23.6640 O   0  0  0  0  0  0  0  0  0  0  0  0
    5.7020    0.7840   16.9300 O   0  0  0  0  0  0  0  0  0  0  0  0
    9.8660    1.0170   21.6110 O   0  0  0  0  0  0  0  0  0  0  0  0
   14.1800   -1.9250   23.6600 Br  0  0  0  0  0  0  0  0  0  0  0  0
    7.0316    5.7119   23.0214 H   0  0  0  0  0  0  0  0  0  0  0  0
    8.7362    5.1530   22.9282 H   0  0  0  0  0  0  0  0  0  0  0  0
    7.6856    5.0783   21.4731 H   0  0  0  0  0  0  0  0  0  0  0  0
    7.6472   -0.9422   20.5763 H   0  0  0  0  0  0  0  0  0  0  0  0
    9.9516   -1.4697   20.8131 H   0  0  0  0  0  0  0  0  0  0  0  0
    9.6466   -2.7675   22.0170 H   0  0  0  0  0  0  0  0  0  0  0  0
    7.9457    1.2058   24.0110 H   0  0  0  0  0  0  0  0  0  0  0  0
    6.5286   -0.4679   22.8401 H   0  0  0  0  0  0  0  0  0  0  0  0
    5.7141    1.1225   23.0247 H   0  0  0  0  0  0  0  0  0  0  0  0
    4.8497    2.2144   21.1241 H   0  0  0  0  0  0  0  0  0  0  0  0
    4.4765    2.3136   18.6967 H   0  0  0  0  0  0  0  0  0  0  0  0
    7.2982   -0.8406   18.1506 H   0  0  0  0  0  0  0  0  0  0  0  0
    8.6364    2.7898   21.7017 H   0  0  0  0  0  0  0  0  0  0  0  0
    8.5167   -1.2151   23.3368 H   0  0  0  0  0  0  0  0  0  0  0  0
    5.2004    1.5566   16.6976 H   0  0  0  0  0  0  0  0  0  0  0  0
  1  7  1  0  0  0  0
  2 10  2  0  0  0  0
  2 14  1  0  0  0  0
  3  8  1  0  0  0  0
  3 16  1  0  0  0  0
  3 19  2  0  0  0  0
  4  5  1  0  0  0  0
  4 16  1  0  0  0  0
  5  6  3  0  0  0  0
  6 20  1  0  0  0  0
  7 15  1  0  0  0  0
  7 17  2  0  0  0  0
  8  9  1  0  0  0  0
  8 15  1  0  0  0  0
  9 10  1  0  0  0  0
 10 11  1  0  0  0  0
 11 12  2  0  0  0  0
 12 13  1  0  0  0  0
 13 14  2  0  0  0  0
 13 18  1  0  0  0  0
  1 21  1  0  0  0  0
  1 22  1  0  0  0  0
  1 23  1  0  0  0  0
  2 24  1  0  0  0  0
  4 25  1  0  0  0  0
  4 26  1  0  0  0  0
  8 27  1  0  0  0  0
  9 28  1  0  0  0  0
  9 29  1  0  0  0  0
 11 30  1  0  0  0  0
 12 31  1  0  0  0  0
 14 32  1  0  0  0  0
 15 33  1  0  0  0  0
 16 34  1  0  0  0  0
 18 35  1  0  0  0  0
M  END
$$$$
