@<TRIPOS>MOLECULE
LIG(A-1101)
   30    31     0     0     0
SMALL
USER_CHARGES

@<TRIPOS>ATOM
      1 N1          6.6440   -3.6500   21.8090 N.am      1 LIG1101    -0.4971
      2 C1          8.2380   -3.2790   20.1020 C.3       1 LIG1101    -0.1094
      3 O1          6.0170   -4.0460   19.6510 O.2       1 LIG1101    -0.5811
      4 C2          6.8430   -3.7040   20.4810 C.2       1 LIG1101     0.6667
      5 C3          3.2630   -1.9770   27.2700 C.3       1 LIG1101    -0.1595
      6 C4          4.2040   -2.4280   26.1870 C.2       1 LIG1101     0.7036
      7 C5          5.6920   -4.3260   22.6030 C.ar      1 LIG1101     0.0901
      8 C6          5.3490   -5.6630   22.4110 C.ar      1 LIG1101    -0.1549
      9 C7          4.4170   -6.2480   23.2490 C.ar      1 LIG1101    -0.0950
     10 C8          3.8270   -5.5270   24.2730 C.ar      1 LIG1101    -0.1766
     11 C9          4.1810   -4.1980   24.4580 C.ar      1 LIG1101     0.0897
     12 C10         5.1130   -3.5900   23.6260 C.ar      1 LIG1101    -0.1867
     13 C11         2.1970   -3.6470   25.9270 C.3       1 LIG1101     0.0913
     14 C12         1.8980   -2.4480   26.8020 C.3       1 LIG1101    -0.0949
     15 N2          3.5850   -3.4340   25.4980 N.am      1 LIG1101    -0.3939
     16 O2          5.3080   -1.9810   25.9390 O.2       1 LIG1101    -0.6162
     17 H1          7.2609   -3.0416   22.3083 H         1 LIG1101     0.3194
     18 H2          8.3794   -2.2348   20.4175 H         1 LIG1101     0.0675
     19 H3          8.9529   -3.9231   20.6350 H         1 LIG1101     0.0675
     20 H4          3.5261   -2.4402   28.2324 H         1 LIG1101     0.0834
     21 H5          3.2832   -0.8820   27.3725 H         1 LIG1101     0.0834
     22 H6          5.8055   -6.2356   21.6172 H         1 LIG1101     0.1501
     23 H7          4.1454   -7.2829   23.1023 H         1 LIG1101     0.1350
     24 H8          3.0994   -5.9936   24.9206 H         1 LIG1101     0.1350
     25 H9          5.3837   -2.5551   23.7744 H         1 LIG1101     0.1588
     26 H10         2.1033   -4.5819   26.4989 H         1 LIG1101     0.0525
     27 H11         1.5200   -3.6777   25.0606 H         1 LIG1101     0.0525
     28 H12         1.3908   -1.6609   26.2248 H         1 LIG1101     0.0593
     29 H13         1.2706   -2.7369   27.6581 H         1 LIG1101     0.0593
     30 Du1         8.5840   -3.3900   18.3280 Du        1 LIG1101     0.0000
@<TRIPOS>BOND
     1    1    4 am
     2    1    7 1
     3    2    4 1
     4    3    4 2
     5    5    6 1
     6    5   14 1
     7    6   15 am
     8    6   16 2
     9    7    8 ar
    10    7   12 ar
    11    8    9 ar
    12    9   10 ar
    13   10   11 ar
    14   11   12 ar
    15   11   15 1
    16   13   14 1
    17   13   15 1
    18    1   17 1
    19    2   18 1
    20    2   19 1
    21    5   20 1
    22    5   21 1
    23    8   22 1
    24    9   23 1
    25   10   24 1
    26   12   25 1
    27   13   26 1
    28   13   27 1
    29   14   28 1
    30   14   29 1
    31    2   30 1
