@<TRIPOS>MOLECULE
LIG(A-1301)
   31    32     0     0     0
SMALL
USER_CHARGES

@<TRIPOS>ATOM
      1 N1          6.4720   -5.2070   21.7570 N.am      1 LIG1301    -0.4764
      2 C1          7.6750   -3.6140   20.3270 C.3       1 LIG1301    -0.1028
      3 O1          5.6570   -4.7360   19.7210 O.2       1 LIG1301    -0.6063
      4 C2          6.5300   -4.5780   20.5670 C.2       1 LIG1301     0.6638
      5 C3          5.4190   -6.1550   22.1120 C.3       1 LIG1301     0.0888
      6 C4          4.6470   -5.6330   23.2920 C.3       1 LIG1301     0.1941
      7 C5          6.6530   -4.4430   24.0550 C.3       1 LIG1301     0.1941
      8 C6          7.4020   -4.9820   22.8660 C.3       1 LIG1301     0.0888
      9 C7          4.0460   -3.8690   26.0370 C.2       1 LIG1301    -0.5004
     10 C8          4.5450   -2.6150   26.2980 C.2       1 LIG1301    -0.0327
     11 C9          3.5710   -1.6150   26.0490 C.2       1 LIG1301    -0.1719
     12 C10         2.3160   -2.1770   25.8450 C.2       1 LIG1301    -0.0443
     13 N2          5.5850   -5.3950   24.4030 N.pl3     1 LIG1301    -0.7966
     14 O2          4.0610   -6.4210   26.0440 O.2       1 LIG1301    -0.6492
     15 O3          6.0940   -5.2160   26.7950 O.2       1 LIG1301    -0.6492
     16 S1          4.9750   -5.3290   25.9130 S.o2      1 LIG1301     1.5455
     17 S2          2.3500   -3.8920   25.7960 S.3       1 LIG1301     0.3017
     18 Cl1         0.8310   -1.3450   25.6540 Cl        1 LIG1301    -0.0128
     19 H1          7.3542   -2.6178   20.6657 H         1 LIG1301     0.0671
     20 H2          8.5307   -3.9489   20.9317 H         1 LIG1301     0.0671
     21 H3          4.7386   -6.2834   21.2572 H         1 LIG1301     0.0661
     22 H4          5.8708   -7.1242   22.3699 H         1 LIG1301     0.0661
     23 H5          4.1483   -4.6909   23.0205 H         1 LIG1301     0.0553
     24 H6          3.8922   -6.3728   23.5970 H         1 LIG1301     0.0553
     25 H7          7.3403   -4.3285   24.9062 H         1 LIG1301     0.0553
     26 H8          6.2130   -3.4663   23.8051 H         1 LIG1301     0.0553
     27 H9          7.8838   -5.9328   23.1377 H         1 LIG1301     0.0661
     28 H10         8.1696   -4.2568   22.5580 H         1 LIG1301     0.0661
     29 H11         5.5477   -2.4173   26.6471 H         1 LIG1301     0.1725
     30 H12         3.7772   -0.5552   26.0214 H         1 LIG1301     0.1733
     31 Du1         8.2310   -3.4650   18.6140 Du        1 LIG1301     0.0000
@<TRIPOS>BOND
     1    1    4 am
     2    1    5 1
     3    1    8 1
     4    2    4 1
     5    3    4 2
     6    5    6 1
     7    6   13 1
     8    7    8 1
     9    7   13 1
    10    9   10 2
    11    9   16 1
    12    9   17 1
    13   10   11 1
    14   11   12 2
    15   12   17 1
    16   12   18 1
    17   13   16 1
    18   14   16 2
    19   15   16 2
    20    2   19 1
    21    2   20 1
    22    5   21 1
    23    5   22 1
    24    6   23 1
    25    6   24 1
    26    7   25 1
    27    7   26 1
    28    8   27 1
    29    8   28 1
    30   10   29 1
    31   11   30 1
    32    2   31 1
