@<TRIPOS>MOLECULE
LIG(A-1101)
   39    40     0     0     0
SMALL
USER_CHARGES

@<TRIPOS>ATOM
      1 C1          3.3660    2.2080   23.4360 C.2       1 LIG1101     0.7598
      2 C2          5.6270    1.4350   22.5990 C.3       1 LIG1101     0.0882
      3 C3          5.2800    0.2110   21.7560 C.3       1 LIG1101    -0.0857
      4 C4          5.6920    0.3350   20.2900 C.ar      1 LIG1101    -0.0379
      5 C5          6.7500   -0.4410   19.8130 C.ar      1 LIG1101    -0.2494
      6 C6          7.1190   -0.3200   18.4800 C.ar      1 LIG1101     0.3970
      7 C7          5.4580    1.2450   18.1040 C.ar      1 LIG1101     0.3970
      8 C8          5.0200    1.2020   19.4240 C.ar      1 LIG1101    -0.2494
      9 C9          1.1050    3.2090   24.0690 C.3       1 LIG1101     0.1193
     10 C10         1.0150    4.6460   24.5900 C.3       1 LIG1101    -0.0925
     11 C11        -0.2970    4.9040   25.3140 C.3       1 LIG1101    -0.0745
     12 C12        -1.4780    4.6080   24.4000 C.3       1 LIG1101    -0.0786
     13 C13        -1.4420    3.1800   23.8710 C.3       1 LIG1101    -0.0745
     14 C14        -0.1000    2.8180   23.2260 C.3       1 LIG1101    -0.0925
     15 N1          4.5010    2.3410   22.5380 N.am      1 LIG1101    -0.5512
     16 N2          6.4810    0.5020   17.6780 N.ar      1 LIG1101    -0.6659
     17 N3          2.2940    3.1640   23.2440 N.am      1 LIG1101    -0.5844
     18 O1          3.3300    1.3580   24.2760 O.2       1 LIG1101    -0.6309
     19 H1          5.8098    1.1334   23.6409 H         1 LIG1101     0.0706
     20 H2          6.5254    1.9255   22.1962 H         1 LIG1101     0.0706
     21 H3          5.7904   -0.6629   22.1870 H         1 LIG1101     0.0678
     22 H4          4.1916    0.0578   21.7986 H         1 LIG1101     0.0678
     23 H5          7.2716   -1.1226   20.4686 H         1 LIG1101     0.1396
     24 H6          7.9401   -0.9085   18.0980 H         1 LIG1101     0.0220
     25 H7          4.9561    1.8977   17.4051 H         1 LIG1101     0.0220
     26 H8          4.1965    1.8121   19.7646 H         1 LIG1101     0.1396
     27 H9          1.1986    2.5175   24.9193 H         1 LIG1101     0.0894
     28 H10         1.8471    4.8247   25.2869 H         1 LIG1101     0.0436
     29 H11         1.0941    5.3387   23.7391 H         1 LIG1101     0.0436
     30 H12        -0.3544    4.2559   26.2009 H         1 LIG1101     0.0435
     31 H13        -0.3366    5.9579   25.6267 H         1 LIG1101     0.0435
     32 H14        -2.4105    4.7548   24.9648 H         1 LIG1101     0.0413
     33 H15        -1.4518    5.3037   23.5483 H         1 LIG1101     0.0413
     34 H16        -1.6267    2.4906   24.7080 H         1 LIG1101     0.0435
     35 H17        -2.2359    3.0641   23.1185 H         1 LIG1101     0.0435
     36 H18        -0.0736    1.7302   23.0647 H         1 LIG1101     0.0436
     37 H19        -0.0291    3.3341   22.2572 H         1 LIG1101     0.0436
     38 H20         4.5036    3.0771   21.8612 H         1 LIG1101     0.2862
     39 H21         2.3801    3.8285   22.5017 H         1 LIG1101     0.2998
@<TRIPOS>BOND
     1    1   15 am
     2    1   17 am
     3    1   18 2
     4    2    3 1
     5    2   15 1
     6    3    4 1
     7    4    5 ar
     8    4    8 ar
     9    5    6 ar
    10    6   16 ar
    11    7    8 ar
    12    7   16 ar
    13    9   10 1
    14    9   14 1
    15    9   17 1
    16   10   11 1
    17   11   12 1
    18   12   13 1
    19   13   14 1
    20    2   19 1
    21    2   20 1
    22    3   21 1
    23    3   22 1
    24    5   23 1
    25    6   24 1
    26    7   25 1
    27    8   26 1
    28    9   27 1
    29   10   28 1
    30   10   29 1
    31   11   30 1
    32   11   31 1
    33   12   32 1
    34   12   33 1
    35   13   34 1
    36   13   35 1
    37   14   36 1
    38   14   37 1
    39   15   38 1
    40   17   39 1
