@<TRIPOS>MOLECULE
LIG(A-1101)
   36    37     0     0     0
SMALL
USER_CHARGES

@<TRIPOS>ATOM
      1 N1          6.6280   -4.1540   21.3880 N.am      1 LIG1101    -0.4833
      2 C1          6.8970   -2.9960   19.2290 C.3       1 LIG1101    -0.1031
      3 O1          5.5030   -4.8740   19.5690 O.2       1 LIG1101    -0.6115
      4 C2          6.2900   -4.0870   20.0780 C.2       1 LIG1101     0.6638
      5 C3          6.6600    0.6500   28.7340 C.ar      1 LIG1101    -0.1401
      6 C4          5.7160    1.5030   28.2100 C.ar      1 LIG1101    -0.1047
      7 C5          5.0660    1.1700   27.0430 C.ar      1 LIG1101    -0.1401
      8 C6          5.3550   -0.0190   26.3910 C.ar      1 LIG1101    -0.0885
      9 C7          5.9710   -5.0790   22.3240 C.3       1 LIG1101     0.0959
     10 C8          5.3610   -4.3210   23.4990 C.3       1 LIG1101    -0.1164
     11 C9          6.4190   -3.4600   24.1770 C.3       1 LIG1101     0.0965
     12 C10         7.0370   -2.5200   23.1520 C.3       1 LIG1101    -0.1164
     13 C11         7.6590   -3.3270   22.0240 C.3       1 LIG1101     0.0959
     14 C12         6.6830   -2.1940   26.2750 C.2       1 LIG1101     0.6688
     15 C13         6.3010   -0.8940   26.9150 C.ar      1 LIG1101    -0.1464
     16 C14         6.9560   -0.5410   28.0910 C.ar      1 LIG1101    -0.0885
     17 N2          5.8800   -2.6920   25.3050 N.am      1 LIG1101    -0.5583
     18 O2          7.7300   -2.7570   26.5950 O.2       1 LIG1101    -0.5982
     19 H1          6.2094   -2.7964   18.3939 H         1 LIG1101     0.0657
     20 H2          6.9879   -2.0944   19.8526 H         1 LIG1101     0.0657
     21 H3          7.1716    0.9096   29.6490 H         1 LIG1101     0.1379
     22 H4          5.4857    2.4308   28.7126 H         1 LIG1101     0.1365
     23 H5          4.3253    1.8401   26.6322 H         1 LIG1101     0.1379
     24 H6          4.8436   -0.2668   25.4726 H         1 LIG1101     0.1435
     25 H7          5.1753   -5.6230   21.7940 H         1 LIG1101     0.0583
     26 H8          6.7143   -5.7952   22.7041 H         1 LIG1101     0.0583
     27 H9          4.5483   -3.6765   23.1328 H         1 LIG1101     0.0553
     28 H10         4.9583   -5.0414   24.2262 H         1 LIG1101     0.0553
     29 H11         7.2115   -4.1257   24.5497 H         1 LIG1101     0.0885
     30 H12         6.2566   -1.8615   22.7429 H         1 LIG1101     0.0553
     31 H13         7.8139   -1.9106   23.6368 H         1 LIG1101     0.0553
     32 H14         8.4500   -3.9749   22.4296 H         1 LIG1101     0.0583
     33 H15         8.0914   -2.6429   21.2790 H         1 LIG1101     0.0583
     34 H16         7.7023   -1.2019   28.5065 H         1 LIG1101     0.1435
     35 H17         4.8943   -2.5322   25.3589 H         1 LIG1101     0.3006
     36 Du1         8.5360   -3.3570   18.5280 Du        1 LIG1101     0.0000
@<TRIPOS>BOND
     1    1    4 am
     2    1    9 1
     3    1   13 1
     4    2    4 1
     5    3    4 2
     6    5    6 ar
     7    5   16 ar
     8    6    7 ar
     9    7    8 ar
    10    8   15 ar
    11    9   10 1
    12   10   11 1
    13   11   12 1
    14   11   17 1
    15   12   13 1
    16   14   15 1
    17   14   17 am
    18   14   18 2
    19   15   16 ar
    20    2   19 1
    21    2   20 1
    22    5   21 1
    23    6   22 1
    24    7   23 1
    25    8   24 1
    26    9   25 1
    27    9   26 1
    28   10   27 1
    29   10   28 1
    30   11   29 1
    31   12   30 1
    32   12   31 1
    33   13   32 1
    34   13   33 1
    35   16   34 1
    36   17   35 1
    37    2   36 1
