LIG(A-1101)
  -OEChem-04032019393D

 36 37  0     0  0  0  0  0  0999 V2000
    6.7430   -2.0750   24.1450 N   0  0  0  0  0  0  0  0  0  0  0  0
    1.3710   -2.7370   27.8260 C   0  0  0  0  0  0  0  0  0  0  0  0
    7.6030   -1.8050   26.2090 O   0  0  0  0  0  0  0  0  0  0  0  0
    2.7370   -2.5490   27.2270 C   0  0  0  0  0  0  0  0  0  0  0  0
    6.0510   -3.7230   22.4930 C   0  0  0  0  0  0  0  0  0  0  0  0
    5.6510   -2.4830   23.2590 C   0  0  0  0  0  0  0  0  0  0  0  0
    7.3330   -3.4790   20.3910 C   0  0  0  0  0  0  0  0  0  0  0  0
    8.6160   -2.9970   19.7660 C   0  0  0  0  0  0  0  0  0  0  0  0
    3.8120   -3.3240   27.6310 C   0  0  0  0  0  0  0  0  0  0  0  0
    5.0690   -3.1520   27.0780 C   0  0  0  0  0  0  0  0  0  0  0  0
    5.2780   -2.1880   26.1070 C   0  0  0  0  0  0  0  0  0  0  0  0
    4.2090   -1.4120   25.6940 C   0  0  0  0  0  0  0  0  0  0  0  0
    2.9550   -1.5950   26.2500 C   0  0  0  0  0  0  0  0  0  0  0  0
    6.6330   -1.9990   25.4850 C   0  0  0  0  0  0  0  0  0  0  0  0
    7.9890   -1.8220   23.4210 C   0  0  0  0  0  0  0  0  0  0  0  0
    8.3750   -3.0430   22.6150 C   0  0  0  0  0  0  0  0  0  0  0  0
    7.2690   -3.4400   21.7390 N   0  0  0  0  0  0  0  0  0  0  0  0
    6.3980   -3.8530   19.6950 O   0  0  0  0  0  0  0  0  0  0  0  0
    8.7080   -3.1760   17.9670 R#  0  0  0  0  0  0  0  0  0  0  0  0
    1.4067   -3.5401   28.5768 H   0  0  0  0  0  0  0  0  0  0  0  0
    1.0491   -1.8009   28.3057 H   0  0  0  0  0  0  0  0  0  0  0  0
    0.6574   -3.0073   27.0337 H   0  0  0  0  0  0  0  0  0  0  0  0
    6.2354   -4.5483   23.1965 H   0  0  0  0  0  0  0  0  0  0  0  0
    5.2447   -4.0052   21.8000 H   0  0  0  0  0  0  0  0  0  0  0  0
    5.4323   -1.6705   22.5505 H   0  0  0  0  0  0  0  0  0  0  0  0
    4.7544   -2.6975   23.8590 H   0  0  0  0  0  0  0  0  0  0  0  0
    8.7339   -1.9306   20.0089 H   0  0  0  0  0  0  0  0  0  0  0  0
    9.4459   -3.5677   20.2082 H   0  0  0  0  0  0  0  0  0  0  0  0
    3.6663   -4.0766   28.3918 H   0  0  0  0  0  0  0  0  0  0  0  0
    5.8901   -3.7725   27.4054 H   0  0  0  0  0  0  0  0  0  0  0  0
    4.3543   -0.6592   24.9333 H   0  0  0  0  0  0  0  0  0  0  0  0
    2.1317   -0.9816   25.9148 H   0  0  0  0  0  0  0  0  0  0  0  0
    7.8495   -0.9670   22.7431 H   0  0  0  0  0  0  0  0  0  0  0  0
    8.7886   -1.5927   24.1407 H   0  0  0  0  0  0  0  0  0  0  0  0
    9.2584   -2.8099   22.0024 H   0  0  0  0  0  0  0  0  0  0  0  0
    8.6117   -3.8708   23.2997 H   0  0  0  0  0  0  0  0  0  0  0  0
  1  6  1  0  0  0  0
  1 14  1  0  0  0  0
  1 15  1  0  0  0  0
  2  4  1  0  0  0  0
  3 14  2  0  0  0  0
  4  9  2  0  0  0  0
  4 13  1  0  0  0  0
  5  6  1  0  0  0  0
  5 17  1  0  0  0  0
  7  8  1  0  0  0  0
  7 17  1  0  0  0  0
  7 18  2  0  0  0  0
  9 10  1  0  0  0  0
 10 11  2  0  0  0  0
 11 12  1  0  0  0  0
 11 14  1  0  0  0  0
 12 13  2  0  0  0  0
 15 16  1  0  0  0  0
 16 17  1  0  0  0  0
  2 20  1  0  0  0  0
  2 21  1  0  0  0  0
  2 22  1  0  0  0  0
  5 23  1  0  0  0  0
  5 24  1  0  0  0  0
  6 25  1  0  0  0  0
  6 26  1  0  0  0  0
  8 27  1  0  0  0  0
  8 28  1  0  0  0  0
  9 29  1  0  0  0  0
 10 30  1  0  0  0  0
 12 31  1  0  0  0  0
 13 32  1  0  0  0  0
 15 33  1  0  0  0  0
 15 34  1  0  0  0  0
 16 35  1  0  0  0  0
 16 36  1  0  0  0  0
  8 19  1  0  0  0  0
M  RGP  1  19   1
M  END
$$$$
