@<TRIPOS>MOLECULE
LIG(A-1101)
   27    28     0     0     0
SMALL
USER_CHARGES

@<TRIPOS>ATOM
      1 C1          8.6390   -0.2390   21.3600 C.2       1 LIG1101     0.7529
      2 C2         10.5660   -0.4930   22.8300 C.ar      1 LIG1101     0.0318
      3 C3         10.6050    0.3380   23.9310 C.ar      1 LIG1101    -0.1192
      4 C4         11.8110    0.8480   24.3440 C.ar      1 LIG1101    -0.1239
      5 C5         12.9690    0.5330   23.6470 C.ar      1 LIG1101    -0.1237
      6 C6         12.9220   -0.2980   22.5410 C.ar      1 LIG1101    -0.1239
      7 C7         11.7090   -0.8080   22.1210 C.ar      1 LIG1101    -0.1192
      8 C8          6.6490    0.0270   19.8680 C.ar      1 LIG1101    -0.0617
      9 C9          5.4450    0.6520   20.1520 C.ar      1 LIG1101    -0.1260
     10 C10         4.8150    1.3120   19.1090 C.ar      1 LIG1101    -0.2338
     11 C11         5.4060    1.2810   17.8510 C.ar      1 LIG1101     0.3868
     12 C12         7.1890    0.0560   18.5940 C.ar      1 LIG1101     0.4187
     13 N1          9.2790   -0.9690   22.4270 N.am      1 LIG1101    -0.4709
     14 N2          7.3300   -0.6620   20.9310 N.am      1 LIG1101    -0.4767
     15 N3          6.5550    0.6850   17.6400 N.ar      1 LIG1101    -0.6538
     16 O1          9.1920    0.6790   20.8500 O.2       1 LIG1101    -0.5963
     17 H1          9.6973    0.5844   24.4617 H         1 LIG1101     0.1386
     18 H2         11.8584    1.4927   25.2092 H         1 LIG1101     0.1352
     19 H3         13.9156    0.9400   23.9705 H         1 LIG1101     0.1340
     20 H4         13.8287   -0.5462   22.0094 H         1 LIG1101     0.1352
     21 H5         11.6549   -1.4444   21.2501 H         1 LIG1101     0.1386
     22 H6          5.0165    0.6258   21.1430 H         1 LIG1101     0.1347
     23 H7          3.8859    1.8386   19.2698 H         1 LIG1101     0.1434
     24 H8          4.9046    1.7615   17.0239 H         1 LIG1101     0.0242
     25 H9          8.1276   -0.4377   18.3898 H         1 LIG1101     0.0398
     26 H10         8.8482   -1.7611   22.8594 H         1 LIG1101     0.3062
     27 H11         6.8909   -1.4421   21.3767 H         1 LIG1101     0.3088
@<TRIPOS>BOND
     1    1   13 am
     2    1   14 am
     3    1   16 2
     4    2    3 ar
     5    2    7 ar
     6    2   13 1
     7    3    4 ar
     8    4    5 ar
     9    5    6 ar
    10    6    7 ar
    11    8    9 ar
    12    8   12 ar
    13    8   14 1
    14    9   10 ar
    15   10   11 ar
    16   11   15 ar
    17   12   15 ar
    18    3   17 1
    19    4   18 1
    20    5   19 1
    21    6   20 1
    22    7   21 1
    23    9   22 1
    24   10   23 1
    25   11   24 1
    26   12   25 1
    27   13   26 1
    28   14   27 1
