LIG(A-1101)
  -OEChem-04032019403D

 31 32  0     1  0  0  0  0  0999 V2000
    7.1410   -4.7630   21.6250 N   0  0  0  0  0  0  0  0  0  0  0  0
    7.4740   -2.4320   22.4220 C   0  0  0  0  0  0  0  0  0  0  0  0
    5.6070   -5.1620   20.0230 O   0  0  0  0  0  0  0  0  0  0  0  0
    7.4090   -3.9090   22.7920 C   0  0  1  0  0  0  0  0  0  0  0  0
    7.5630   -4.1780   28.0230 C   0  0  0  0  0  0  0  0  0  0  0  0
    8.5330   -3.9520   27.0370 C   0  0  0  0  0  0  0  0  0  0  0  0
    8.1870   -3.9360   25.7180 C   0  0  0  0  0  0  0  0  0  0  0  0
    6.8450   -4.1520   25.2970 C   0  0  0  0  0  0  0  0  0  0  0  0
    6.4840   -4.4380   20.4990 C   0  0  0  0  0  0  0  0  0  0  0  0
    6.8510   -3.2640   19.6010 C   0  0  0  0  0  0  0  0  0  0  0  0
    6.4170   -4.1560   23.9210 C   0  0  0  0  0  0  0  0  0  0  0  0
    5.0900   -4.3770   23.6380 C   0  0  0  0  0  0  0  0  0  0  0  0
    4.1400   -4.5930   24.6530 C   0  0  0  0  0  0  0  0  0  0  0  0
    4.5220   -4.5950   25.9530 C   0  0  0  0  0  0  0  0  0  0  0  0
    5.8710   -4.3770   26.3160 C   0  0  0  0  0  0  0  0  0  0  0  0
    6.2680   -4.3830   27.6750 C   0  0  0  0  0  0  0  0  0  0  0  0
    8.4210   -3.5050   18.7130 R#  0  0  0  0  0  0  0  0  0  0  0  0
    7.4900   -5.6988   21.6757 H   0  0  0  0  0  0  0  0  0  0  0  0
    7.6757   -1.8360   23.3243 H   0  0  0  0  0  0  0  0  0  0  0  0
    8.2793   -2.2726   21.6898 H   0  0  0  0  0  0  0  0  0  0  0  0
    6.5138   -2.1212   21.9844 H   0  0  0  0  0  0  0  0  0  0  0  0
    8.4022   -4.1827   23.1775 H   0  0  0  0  0  0  0  0  0  0  0  0
    7.8478   -4.1890   29.0647 H   0  0  0  0  0  0  0  0  0  0  0  0
    9.5615   -3.7894   27.3237 H   0  0  0  0  0  0  0  0  0  0  0  0
    8.9498   -3.7551   24.9752 H   0  0  0  0  0  0  0  0  0  0  0  0
    6.0486   -3.1252   18.8614 H   0  0  0  0  0  0  0  0  0  0  0  0
    6.9363   -2.3610   20.2233 H   0  0  0  0  0  0  0  0  0  0  0  0
    4.7676   -4.3850   22.6073 H   0  0  0  0  0  0  0  0  0  0  0  0
    3.1041   -4.7576   24.3954 H   0  0  0  0  0  0  0  0  0  0  0  0
    3.7848   -4.7657   26.7236 H   0  0  0  0  0  0  0  0  0  0  0  0
    5.5299   -4.5531   28.4449 H   0  0  0  0  0  0  0  0  0  0  0  0
  1  4  1  0  0  0  0
  1  9  1  0  0  0  0
  2  4  1  0  0  0  0
  3  9  2  0  0  0  0
  4 11  1  0  0  0  0
  5  6  2  0  0  0  0
  5 16  1  0  0  0  0
  6  7  1  0  0  0  0
  7  8  2  0  0  0  0
  8 11  1  0  0  0  0
  8 15  1  0  0  0  0
  9 10  1  0  0  0  0
 11 12  2  0  0  0  0
 12 13  1  0  0  0  0
 13 14  2  0  0  0  0
 14 15  1  0  0  0  0
 15 16  2  0  0  0  0
  1 18  1  0  0  0  0
  2 19  1  0  0  0  0
  2 20  1  0  0  0  0
  2 21  1  0  0  0  0
  4 22  1  0  0  0  0
  5 23  1  0  0  0  0
  6 24  1  0  0  0  0
  7 25  1  0  0  0  0
 10 26  1  0  0  0  0
 10 27  1  0  0  0  0
 12 28  1  0  0  0  0
 13 29  1  0  0  0  0
 14 30  1  0  0  0  0
 16 31  1  0  0  0  0
 10 17  1  0  0  0  0
M  RGP  1  17   1
M  END
$$$$
