LIG(A-1101)
  -OEChem-04292023303D

 30 31  0     0  0  0  0  0  0999 V2000
    6.6440   -3.6500   21.8090 N   0  0  0  0  0  0  0  0  0  0  0  0
    8.2380   -3.2790   20.1020 C   0  0  0  0  0  0  0  0  0  0  0  0
    6.0170   -4.0460   19.6510 O   0  0  0  0  0  0  0  0  0  0  0  0
    6.8430   -3.7040   20.4810 C   0  0  0  0  0  0  0  0  0  0  0  0
    3.2630   -1.9770   27.2700 C   0  0  0  0  0  0  0  0  0  0  0  0
    4.2040   -2.4280   26.1870 C   0  0  0  0  0  0  0  0  0  0  0  0
    5.6920   -4.3260   22.6030 C   0  0  0  0  0  0  0  0  0  0  0  0
    5.3490   -5.6630   22.4110 C   0  0  0  0  0  0  0  0  0  0  0  0
    4.4170   -6.2480   23.2490 C   0  0  0  0  0  0  0  0  0  0  0  0
    3.8270   -5.5270   24.2730 C   0  0  0  0  0  0  0  0  0  0  0  0
    4.1810   -4.1980   24.4580 C   0  0  0  0  0  0  0  0  0  0  0  0
    5.1130   -3.5900   23.6260 C   0  0  0  0  0  0  0  0  0  0  0  0
    2.1970   -3.6470   25.9270 C   0  0  0  0  0  0  0  0  0  0  0  0
    1.8980   -2.4480   26.8020 C   0  0  0  0  0  0  0  0  0  0  0  0
    3.5850   -3.4340   25.4980 N   0  0  0  0  0  0  0  0  0  0  0  0
    5.3080   -1.9810   25.9390 O   0  0  0  0  0  0  0  0  0  0  0  0
    8.5840   -3.3900   18.3280 R#  0  0  0  0  0  0  0  0  0  0  0  0
    7.2609   -3.0416   22.3083 H   0  0  0  0  0  0  0  0  0  0  0  0
    8.3794   -2.2348   20.4175 H   0  0  0  0  0  0  0  0  0  0  0  0
    8.9529   -3.9231   20.6350 H   0  0  0  0  0  0  0  0  0  0  0  0
    3.5261   -2.4402   28.2324 H   0  0  0  0  0  0  0  0  0  0  0  0
    3.2832   -0.8820   27.3725 H   0  0  0  0  0  0  0  0  0  0  0  0
    5.8055   -6.2356   21.6172 H   0  0  0  0  0  0  0  0  0  0  0  0
    4.1454   -7.2829   23.1023 H   0  0  0  0  0  0  0  0  0  0  0  0
    3.0994   -5.9936   24.9206 H   0  0  0  0  0  0  0  0  0  0  0  0
    5.3837   -2.5551   23.7744 H   0  0  0  0  0  0  0  0  0  0  0  0
    2.1033   -4.5819   26.4989 H   0  0  0  0  0  0  0  0  0  0  0  0
    1.5200   -3.6777   25.0606 H   0  0  0  0  0  0  0  0  0  0  0  0
    1.3908   -1.6609   26.2248 H   0  0  0  0  0  0  0  0  0  0  0  0
    1.2706   -2.7369   27.6581 H   0  0  0  0  0  0  0  0  0  0  0  0
  1  4  1  0  0  0  0
  1  7  1  0  0  0  0
  2  4  1  0  0  0  0
  3  4  2  0  0  0  0
  5  6  1  0  0  0  0
  5 14  1  0  0  0  0
  6 15  1  0  0  0  0
  6 16  2  0  0  0  0
  7  8  2  0  0  0  0
  7 12  1  0  0  0  0
  8  9  1  0  0  0  0
  9 10  2  0  0  0  0
 10 11  1  0  0  0  0
 11 12  2  0  0  0  0
 11 15  1  0  0  0  0
 13 14  1  0  0  0  0
 13 15  1  0  0  0  0
  1 18  1  0  0  0  0
  2 19  1  0  0  0  0
  2 20  1  0  0  0  0
  5 21  1  0  0  0  0
  5 22  1  0  0  0  0
  8 23  1  0  0  0  0
  9 24  1  0  0  0  0
 10 25  1  0  0  0  0
 12 26  1  0  0  0  0
 13 27  1  0  0  0  0
 13 28  1  0  0  0  0
 14 29  1  0  0  0  0
 14 30  1  0  0  0  0
  2 17  1  0  0  0  0
M  RGP  1  17   1
M  END
$$$$
