@<TRIPOS>MOLECULE
LIG(A-1101)
   30    31     0     0     0
SMALL
USER_CHARGES

@<TRIPOS>ATOM
      1 C1          8.3910   -1.3890   20.7480 C.3       1 LIG1101     0.0595
      2 C2          7.3210   -1.6620   18.4660 C.3       1 LIG1101     0.0549
      3 C3          6.4820   -0.3680   18.3880 C.2       1 LIG1101     0.2849
      4 C4          5.5080    0.0260   19.3090 C.2       1 LIG1101    -0.3577
      5 C5          5.0040    1.2280   18.8850 C.2       1 LIG1101     0.2679
      6 C6          3.9090    2.0390   19.5820 C.3       1 LIG1101    -0.1410
      7 C7          6.5190   -3.0820   20.4400 C.2       1 LIG1101     0.7473
      8 C8          5.7590   -4.4650   22.4780 C.3       1 LIG1101     0.0373
      9 C9          6.5330   -5.6520   23.0580 C.3       1 LIG1101    -0.1352
     10 C10         5.6630   -5.8420   21.8100 C.3       1 LIG1101    -0.1352
     11 N1          7.4100   -2.0580   19.8830 N.am      1 LIG1101    -0.4550
     12 N2          6.5530    0.5880   17.4480 N.2       1 LIG1101    -0.3562
     13 N3          6.6220   -3.4450   21.8620 N.am      1 LIG1101    -0.5306
     14 O1          5.6360    1.5480   17.7650 O.3       1 LIG1101    -0.1227
     15 O2          5.7270   -3.6150   19.7290 O.2       1 LIG1101    -0.6197
     16 H1          8.9636   -0.6587   20.1574 H         1 LIG1101     0.0428
     17 H2          7.8666   -0.8700   21.5639 H         1 LIG1101     0.0428
     18 H3          9.0774   -2.1374   21.1709 H         1 LIG1101     0.0428
     19 H4          6.8341   -2.4590   17.8848 H         1 LIG1101     0.0917
     20 H5          8.3288   -1.4790   18.0648 H         1 LIG1101     0.0917
     21 H6          5.2074   -0.5170   20.1929 H         1 LIG1101     0.1807
     22 H7          4.2376    2.3023   20.5982 H         1 LIG1101     0.0656
     23 H8          3.7135    2.9582   19.0103 H         1 LIG1101     0.0656
     24 H9          2.9885    1.4395   19.6383 H         1 LIG1101     0.0656
     25 H10         4.8773   -4.1245   23.0408 H         1 LIG1101     0.0906
     26 H11         7.6293   -5.6872   22.9746 H         1 LIG1101     0.0798
     27 H12         6.2238   -6.0946   24.0164 H         1 LIG1101     0.0798
     28 H13         6.1348   -6.0128   20.8311 H         1 LIG1101     0.0798
     29 H14         4.7293   -6.4202   21.8729 H         1 LIG1101     0.0798
     30 H15         7.3026   -2.9821   22.4299 H         1 LIG1101     0.3025
@<TRIPOS>BOND
     1    1   11 1
     2    2    3 1
     3    2   11 1
     4    3    4 1
     5    3   12 2
     6    4    5 2
     7    5    6 1
     8    5   14 1
     9    7   11 am
    10    7   13 am
    11    7   15 2
    12    8    9 1
    13    8   10 1
    14    8   13 1
    15    9   10 1
    16   12   14 1
    17    1   16 1
    18    1   17 1
    19    1   18 1
    20    2   19 1
    21    2   20 1
    22    4   21 1
    23    6   22 1
    24    6   23 1
    25    6   24 1
    26    8   25 1
    27    9   26 1
    28    9   27 1
    29   10   28 1
    30   10   29 1
    31   13   30 1
