@<TRIPOS>MOLECULE
LIG(A-701)
   39    40     0     0     0
SMALL
USER_CHARGES

@<TRIPOS>ATOM
      1 C1         13.3960   -1.1050   22.5600 C.3       1 LIG701      0.0808
      2 C2          7.5180    2.7310   29.3150 C.ar      1 LIG701     -0.0977
      3 C3          6.3240    2.6450   30.0030 C.ar      1 LIG701     -0.0843
      4 C4          5.8490    3.7750   30.8670 C.3       1 LIG701     -0.0580
      5 C5          5.5850    1.4830   29.8770 C.ar      1 LIG701     -0.0977
      6 C6          6.0160    0.4270   29.0890 C.ar      1 LIG701     -0.1641
      7 C7         11.8700   -0.1610   24.1700 C.3       1 LIG701      0.0889
      8 C8         11.1660   -0.4200   25.4800 C.3       1 LIG701      0.0767
      9 C9         10.8450   -2.7490   24.7900 C.3       1 LIG701      0.0767
     10 C10        11.6140   -2.4270   23.5260 C.3       1 LIG701      0.0889
     11 C11         8.9780   -1.5000   25.8560 C.2       1 LIG701      0.6774
     12 C12         8.5660   -0.2370   26.6000 C.3       1 LIG701      0.0608
     13 C13         7.2150    0.5330   28.4000 C.ar      1 LIG701      0.0887
     14 C14         7.9700    1.6950   28.5140 C.ar      1 LIG701     -0.1641
     15 N1         12.5890   -1.3610   23.7540 N.4       1 LIG701     -0.6787
     16 N2         10.2410   -1.5520   25.3800 N.am      1 LIG701     -0.5243
     17 O1          8.1660   -2.4180   25.7270 O.2       1 LIG701     -0.5045
     18 O2          7.6280   -0.5210   27.6270 O.3       1 LIG701     -0.2922
     19 H1         14.1157   -0.2998   22.7689 H         1 LIG701      0.1071
     20 H2         13.9400   -2.0198   22.2822 H         1 LIG701      0.1071
     21 H3         12.7388   -0.8033   21.7312 H         1 LIG701      0.1071
     22 H4          8.1139    3.6274   29.4034 H         1 LIG701      0.1432
     23 H5          5.7263    4.6798   30.2536 H         1 LIG701      0.0517
     24 H6          4.8842    3.5075   31.3226 H         1 LIG701      0.0517
     25 H7          6.5880    3.9665   31.6590 H         1 LIG701      0.0517
     26 H8          4.6476    1.3959   30.4063 H         1 LIG701      0.1432
     27 H9          5.4223   -0.4719   29.0122 H         1 LIG701      0.1393
     28 H10        11.1285    0.1058   23.4026 H         1 LIG701      0.1116
     29 H11        12.5826    0.6676   24.2951 H         1 LIG701      0.1116
     30 H12        11.9179   -0.6404   26.2520 H         1 LIG701      0.0902
     31 H13        10.6003    0.4792   25.7653 H         1 LIG701      0.0902
     32 H14        10.0480   -3.4676   24.5484 H         1 LIG701      0.0902
     33 H15        11.5337   -3.1974   25.5212 H         1 LIG701      0.0902
     34 H16        12.1432   -3.3304   23.1886 H         1 LIG701      0.1116
     35 H17        10.9061   -2.1047   22.7482 H         1 LIG701      0.1116
     36 H18         9.4597    0.2211   27.0488 H         1 LIG701      0.0640
     37 H19         8.1125    0.4665   25.8862 H         1 LIG701      0.0640
     38 H20         8.9044    1.7895   27.9806 H         1 LIG701      0.1393
     39 H21        13.1986   -1.6407   24.4958 H         1 LIG701      0.4504
@<TRIPOS>BOND
     1    1   15 1
     2    2    3 ar
     3    2   14 ar
     4    3    4 1
     5    3    5 ar
     6    5    6 ar
     7    6   13 ar
     8    7    8 1
     9    7   15 1
    10    8   16 1
    11    9   10 1
    12    9   16 1
    13   10   15 1
    14   11   12 1
    15   11   16 am
    16   11   17 2
    17   12   18 1
    18   13   14 ar
    19   13   18 1
    20    1   19 1
    21    1   20 1
    22    1   21 1
    23    2   22 1
    24    4   23 1
    25    4   24 1
    26    4   25 1
    27    5   26 1
    28    6   27 1
    29    7   28 1
    30    7   29 1
    31    8   30 1
    32    8   31 1
    33    9   32 1
    34    9   33 1
    35   10   34 1
    36   10   35 1
    37   12   36 1
    38   12   37 1
    39   14   38 1
    40   15   39 1
