LIG(A-1101)
  -OEChem-04032019393D

 32 33  0     1  0  0  0  0  0999 V2000
   22.0010   20.1960    4.0200 C   0  0  0  0  0  0  0  0  0  0  0  0
   20.7810   19.3500    4.2670 C   0  0  1  0  0  0  0  0  0  0  0  0
   21.1850   17.8560    4.2470 C   0  0  0  0  0  0  0  0  0  0  0  0
   22.4000   16.3550    5.4930 C   0  0  0  0  0  0  0  0  0  0  0  0
   21.9050   15.1130    6.2280 C   0  0  0  0  0  0  0  0  0  0  0  0
   22.5230   13.9140    5.9320 C   0  0  0  0  0  0  0  0  0  0  0  0
   22.1250   12.7520    6.5580 C   0  0  0  0  0  0  0  0  0  0  0  0
   21.1100   12.7760    7.4950 C   0  0  0  0  0  0  0  0  0  0  0  0
   20.4990   13.9550    7.8000 C   0  0  0  0  0  0  0  0  0  0  0  0
   20.8960   15.1310    7.1630 C   0  0  0  0  0  0  0  0  0  0  0  0
   21.7660   18.2470    6.5450 C   0  0  0  0  0  0  0  0  0  0  0  0
   20.6070   19.2510    6.6820 C   0  0  0  0  0  0  0  0  0  0  0  0
   21.5320   17.3110    5.5280 N   0  0  1  0  0  0  0  0  0  0  0  0
   21.8880   21.3810    4.6910 O   0  0  0  0  0  0  0  0  0  0  0  0
   20.1250   19.7740    5.4500 O   0  0  0  0  0  0  0  0  0  0  0  0
   22.8942   19.6602    4.3736 H   0  0  0  0  0  0  0  0  0  0  0  0
   22.0952   20.3945    2.9422 H   0  0  0  0  0  0  0  0  0  0  0  0
   20.0989   19.5055    3.4181 H   0  0  0  0  0  0  0  0  0  0  0  0
   20.3393   17.2778    3.8465 H   0  0  0  0  0  0  0  0  0  0  0  0
   22.0533   17.7449    3.5809 H   0  0  0  0  0  0  0  0  0  0  0  0
   23.3306   16.7015    5.9662 H   0  0  0  0  0  0  0  0  0  0  0  0
   22.5981   16.0923    4.4434 H   0  0  0  0  0  0  0  0  0  0  0  0
   23.3223   13.8865    5.2063 H   0  0  0  0  0  0  0  0  0  0  0  0
   22.6093   11.8178    6.3146 H   0  0  0  0  0  0  0  0  0  0  0  0
   20.8020   11.8636    7.9839 H   0  0  0  0  0  0  0  0  0  0  0  0
   19.7077   13.9792    8.5346 H   0  0  0  0  0  0  0  0  0  0  0  0
   20.4073   16.0630    7.4058 H   0  0  0  0  0  0  0  0  0  0  0  0
   22.6889   18.7992    6.3140 H   0  0  0  0  0  0  0  0  0  0  0  0
   21.8875   17.7124    7.4987 H   0  0  0  0  0  0  0  0  0  0  0  0
   19.7727   18.7441    7.1889 H   0  0  0  0  0  0  0  0  0  0  0  0
   20.9540   20.0928    7.2992 H   0  0  0  0  0  0  0  0  0  0  0  0
   20.9786   21.6556    4.6987 H   0  0  0  0  0  0  0  0  0  0  0  0
  1  2  1  0  0  0  0
  1 14  1  0  0  0  0
  2  3  1  0  0  0  0
  2 15  1  0  0  0  0
  3 13  1  0  0  0  0
  4  5  1  0  0  0  0
  4 13  1  0  0  0  0
  5  6  2  0  0  0  0
  5 10  1  0  0  0  0
  6  7  1  0  0  0  0
  7  8  2  0  0  0  0
  8  9  1  0  0  0  0
  9 10  2  0  0  0  0
 11 12  1  0  0  0  0
 11 13  1  0  0  0  0
 12 15  1  0  0  0  0
  1 16  1  0  0  0  0
  1 17  1  0  0  0  0
  2 18  1  0  0  0  0
  3 19  1  0  0  0  0
  3 20  1  0  0  0  0
  4 21  1  0  0  0  0
  4 22  1  0  0  0  0
  6 23  1  0  0  0  0
  7 24  1  0  0  0  0
  8 25  1  0  0  0  0
  9 26  1  0  0  0  0
 10 27  1  0  0  0  0
 11 28  1  0  0  0  0
 11 29  1  0  0  0  0
 12 30  1  0  0  0  0
 12 31  1  0  0  0  0
 14 32  1  0  0  0  0
M  END
$$$$
