@<TRIPOS>MOLECULE
LIG(A-1101)
   31    32     0     0     0
SMALL
USER_CHARGES

@<TRIPOS>ATOM
      1 N1          7.1410   -4.7630   21.6250 N.am      1 LIG1101    -0.5533
      2 C1          7.4740   -2.4320   22.4220 C.3       1 LIG1101    -0.1000
      3 O1          5.6070   -5.1620   20.0230 O.2       1 LIG1101    -0.6046
      4 C2          7.4090   -3.9090   22.7920 C.3       1 LIG1101     0.1453
      5 C3          7.5630   -4.1780   28.0230 C.ar      1 LIG1101    -0.1293
      6 C4          8.5330   -3.9520   27.0370 C.ar      1 LIG1101    -0.1224
      7 C5          8.1870   -3.9360   25.7180 C.ar      1 LIG1101    -0.1266
      8 C6          6.8450   -4.1520   25.2970 C.ar      1 LIG1101    -0.0195
      9 C7          6.4840   -4.4380   20.4990 C.2       1 LIG1101     0.6403
     10 C8          6.8510   -3.2640   19.6010 C.3       1 LIG1101    -0.0966
     11 C9          6.4170   -4.1560   23.9210 C.ar      1 LIG1101    -0.1157
     12 C10         5.0900   -4.3770   23.6380 C.ar      1 LIG1101    -0.1177
     13 C11         4.1400   -4.5930   24.6530 C.ar      1 LIG1101    -0.1258
     14 C12         4.5220   -4.5950   25.9530 C.ar      1 LIG1101    -0.1132
     15 C13         5.8710   -4.3770   26.3160 C.ar      1 LIG1101    -0.0395
     16 C14         6.2680   -4.3830   27.6750 C.ar      1 LIG1101    -0.1141
     17 H1          7.4900   -5.6988   21.6757 H         1 LIG1101     0.3007
     18 H2          7.6757   -1.8360   23.3243 H         1 LIG1101     0.0484
     19 H3          8.2793   -2.2726   21.6898 H         1 LIG1101     0.0484
     20 H4          6.5138   -2.1212   21.9844 H         1 LIG1101     0.0484
     21 H5          8.4022   -4.1827   23.1775 H         1 LIG1101     0.0647
     22 H6          7.8478   -4.1890   29.0647 H         1 LIG1101     0.1340
     23 H7          9.5615   -3.7894   27.3237 H         1 LIG1101     0.1332
     24 H8          8.9498   -3.7551   24.9752 H         1 LIG1101     0.1312
     25 H9          6.0486   -3.1252   18.8614 H         1 LIG1101     0.0672
     26 H10         6.9363   -2.3610   20.2233 H         1 LIG1101     0.0672
     27 H11         4.7676   -4.3850   22.6073 H         1 LIG1101     0.1424
     28 H12         3.1041   -4.7576   24.3954 H         1 LIG1101     0.1380
     29 H13         3.7848   -4.7657   26.7236 H         1 LIG1101     0.1347
     30 H14         5.5299   -4.5531   28.4449 H         1 LIG1101     0.1341
     31 Du1         8.4210   -3.5050   18.7130 Du        1 LIG1101     0.0000
@<TRIPOS>BOND
     1    1    4 1
     2    1    9 am
     3    2    4 1
     4    3    9 2
     5    4   11 1
     6    5    6 ar
     7    5   16 ar
     8    6    7 ar
     9    7    8 ar
    10    8   11 ar
    11    8   15 ar
    12    9   10 1
    13   11   12 ar
    14   12   13 ar
    15   13   14 ar
    16   14   15 ar
    17   15   16 ar
    18    1   17 1
    19    2   18 1
    20    2   19 1
    21    2   20 1
    22    4   21 1
    23    5   22 1
    24    6   23 1
    25    7   24 1
    26   10   25 1
    27   10   26 1
    28   12   27 1
    29   13   28 1
    30   14   29 1
    31   16   30 1
    32   10   31 1
