@<TRIPOS>MOLECULE
LIG(A-1101)
   30    31     0     0     0
SMALL
USER_CHARGES

@<TRIPOS>ATOM
      1 N1          6.9860   -2.9550   21.0940 N.am      1 LIG1101    -0.4841
      2 C1          7.4600   -2.5680   18.6840 C.3       1 LIG1101    -0.1009
      3 O1          5.9090   -4.1560   19.5440 O.2       1 LIG1101    -0.6102
      4 C2          6.7340   -3.2890   19.8100 C.2       1 LIG1101     0.6615
      5 C3          9.2900    0.5050   26.2540 C.2       1 LIG1101     0.2510
      6 C4          6.3290   -3.6870   22.1820 C.3       1 LIG1101     0.0687
      7 C5          7.3030   -4.0410   23.2840 C.3       1 LIG1101     0.0609
      8 C6          8.7060   -2.1720   22.7110 C.3       1 LIG1101     0.0609
      9 C7          7.8020   -1.8180   21.5450 C.3       1 LIG1101     0.0687
     10 C8          7.3890   -2.1230   24.8040 C.2       1 LIG1101     0.5844
     11 C9          8.2330   -1.3250   25.6610 C.2       1 LIG1101     0.1985
     12 C10         8.8630   -1.6100   26.8220 C.2       1 LIG1101    -0.2037
     13 C11         9.5520   -0.4400   27.2190 C.2       1 LIG1101    -0.2634
     14 N2          7.9400   -2.8200   23.7780 N.am      1 LIG1101    -0.4422
     15 O2          6.1880   -2.1950   25.0540 O.2       1 LIG1101    -0.5548
     16 O3          8.4790   -0.0270   25.2990 O.3       1 LIG1101    -0.3561
     17 H1          6.8177   -2.5680   17.7910 H         1 LIG1101     0.0663
     18 H2          7.6554   -1.5312   18.9951 H         1 LIG1101     0.0663
     19 H3          9.6702    1.5159   26.2542 H         1 LIG1101     0.0570
     20 H4          5.5283   -3.0600   22.6013 H         1 LIG1101     0.0616
     21 H5          5.8955   -4.6136   21.7778 H         1 LIG1101     0.0616
     22 H6          6.7636   -4.5327   24.1070 H         1 LIG1101     0.0710
     23 H7          8.0713   -4.7226   22.8902 H         1 LIG1101     0.0710
     24 H8          9.4930   -2.8574   22.3633 H         1 LIG1101     0.0710
     25 H9          9.1668   -1.2534   23.1032 H         1 LIG1101     0.0710
     26 H10         8.4268   -1.4784   20.7058 H         1 LIG1101     0.0616
     27 H11         7.1304   -1.0039   21.8550 H         1 LIG1101     0.0616
     28 H12         8.8441   -2.5532   27.3477 H         1 LIG1101     0.1727
     29 H13        10.1611   -0.3140   28.1019 H         1 LIG1101     0.1681
     30 Du1         9.0380   -3.3610   18.2690 Du        1 LIG1101     0.0000
@<TRIPOS>BOND
     1    1    4 am
     2    1    6 1
     3    1    9 1
     4    2    4 1
     5    3    4 2
     6    5   13 2
     7    5   16 1
     8    6    7 1
     9    7   14 1
    10    8    9 1
    11    8   14 1
    12   10   11 1
    13   10   14 am
    14   10   15 2
    15   11   12 2
    16   11   16 1
    17   12   13 1
    18    2   17 1
    19    2   18 1
    20    5   19 1
    21    6   20 1
    22    6   21 1
    23    7   22 1
    24    7   23 1
    25    8   24 1
    26    8   25 1
    27    9   26 1
    28    9   27 1
    29   12   28 1
    30   13   29 1
    31    2   30 1
