@<TRIPOS>MOLECULE
LIG(A-1101)
   31    32     0     0     0
SMALL
USER_CHARGES

@<TRIPOS>ATOM
      1 N1          6.3990   -5.0700   21.6550 N.am      1 LIG1101    -0.4768
      2 C1          7.6530   -3.4810   20.2250 C.3       1 LIG1101    -0.1016
      3 O1          5.7180   -4.7100   19.5510 O.2       1 LIG1101    -0.6093
      4 C2          6.5220   -4.4770   20.4470 C.2       1 LIG1101     0.6636
      5 C3          7.2420   -4.8110   22.8230 C.3       1 LIG1101     0.0899
      6 C4          6.3960   -4.2950   23.9560 C.3       1 LIG1101     0.1968
      7 C5          4.5000   -5.5840   23.1000 C.3       1 LIG1101     0.1968
      8 C6          5.3670   -6.0610   21.9620 C.3       1 LIG1101     0.0899
      9 C7          3.4450   -3.8280   25.5980 C.2       1 LIG1101    -0.5007
     10 C8          2.1350   -3.9400   25.2010 C.2       1 LIG1101    -0.0309
     11 C9          1.4850   -2.6810   25.2530 C.2       1 LIG1101    -0.1763
     12 C10         2.2720   -1.6970   25.7480 C.2       1 LIG1101    -0.1788
     13 N2          5.3460   -5.2780   24.2680 N.pl3     1 LIG1101    -0.7996
     14 O2          3.8570   -6.3270   25.9340 O.2       1 LIG1101    -0.6529
     15 O3          5.5990   -4.7340   26.6630 O.2       1 LIG1101    -0.6529
     16 S1          4.6030   -5.1290   25.7160 S.o2      1 LIG1101     1.5491
     17 S2          3.8790   -2.2150   25.9790 S.3       1 LIG1101     0.2650
     18 H1          7.2749   -2.4811   20.4843 H         1 LIG1101     0.0667
     19 H2          8.4749   -3.7499   20.9049 H         1 LIG1101     0.0667
     20 H3          7.7360   -5.7442   23.1313 H         1 LIG1101     0.0649
     21 H4          8.0039   -4.0608   22.5647 H         1 LIG1101     0.0649
     22 H5          7.0269   -4.1376   24.8432 H         1 LIG1101     0.0546
     23 H6          5.9314   -3.3420   23.6628 H         1 LIG1101     0.0546
     24 H7          3.9576   -4.6777   22.7927 H         1 LIG1101     0.0546
     25 H8          3.7786   -6.3707   23.3659 H         1 LIG1101     0.0546
     26 H9          4.7409   -6.2197   21.0716 H         1 LIG1101     0.0649
     27 H10         5.8479   -7.0087   22.2457 H         1 LIG1101     0.0649
     28 H11         1.6642   -4.8614   24.8914 H         1 LIG1101     0.1727
     29 H12         0.4664   -2.5232   24.9307 H         1 LIG1101     0.1646
     30 H13         1.9221   -0.6998   25.9706 H         1 LIG1101     0.1798
     31 Du1         8.3320   -3.3970   18.5410 Du        1 LIG1101     0.0000
@<TRIPOS>BOND
     1    1    4 am
     2    1    5 1
     3    1    8 1
     4    2    4 1
     5    3    4 2
     6    5    6 1
     7    6   13 1
     8    7    8 1
     9    7   13 1
    10    9   10 2
    11    9   16 1
    12    9   17 1
    13   10   11 1
    14   11   12 2
    15   12   17 1
    16   13   16 1
    17   14   16 2
    18   15   16 2
    19    2   18 1
    20    2   19 1
    21    5   20 1
    22    5   21 1
    23    6   22 1
    24    6   23 1
    25    7   24 1
    26    7   25 1
    27    8   26 1
    28    8   27 1
    29   10   28 1
    30   11   29 1
    31   12   30 1
    32    2   31 1
