@<TRIPOS>MOLECULE
LIG(A-1101)
   25    26     0     0     0
SMALL
USER_CHARGES

@<TRIPOS>ATOM
      1 N1          7.5350   -4.6270   21.2000 N.am      1 LIG1101    -0.5602
      2 C1          7.1330   -3.0420   19.3850 C.3       1 LIG1101    -0.1128
      3 O1          5.7660   -4.9120   19.8320 O.2       1 LIG1101    -0.5848
      4 C2          6.7620   -4.2760   20.1820 C.2       1 LIG1101     0.6495
      5 C3          7.0630   -5.4840   22.2720 C.3       1 LIG1101     0.1350
      6 C4          5.9870   -4.7940   23.0680 C.ar      1 LIG1101    -0.1162
      7 C5          6.1580   -3.4850   23.4810 C.ar      1 LIG1101    -0.1323
      8 C6          5.1830   -2.7990   24.2100 C.ar      1 LIG1101    -0.1126
      9 C7          4.0410   -3.4870   24.4940 C.ar      1 LIG1101     0.0577
     10 C8          1.9960   -4.1240   25.1260 C.3       1 LIG1101     0.3207
     11 C9          3.8540   -4.7860   24.0790 C.ar      1 LIG1101     0.0579
     12 C10         4.7970   -5.4660   23.3620 C.ar      1 LIG1101    -0.0891
     13 O2          2.9360   -3.0490   25.1840 O.3       1 LIG1101    -0.3349
     14 O3          2.6200   -5.2370   24.4860 O.3       1 LIG1101    -0.3324
     15 H1          8.4759   -4.2897   21.2304 H         1 LIG1101     0.2911
     16 H2          6.2810   -2.7602   18.7488 H         1 LIG1101     0.0656
     17 H3          7.3565   -2.2218   20.0830 H         1 LIG1101     0.0656
     18 H4          6.6559   -6.4107   21.8413 H         1 LIG1101     0.0702
     19 H5          7.9046   -5.7276   22.9371 H         1 LIG1101     0.0702
     20 H6          7.0769   -2.9755   23.2314 H         1 LIG1101     0.1282
     21 H7          5.3266   -1.7780   24.5313 H         1 LIG1101     0.1545
     22 H8          1.6904   -4.4051   26.1446 H         1 LIG1101     0.0736
     23 H9          1.1116   -3.8130   24.5506 H         1 LIG1101     0.0736
     24 H10         4.6300   -6.4818   23.0354 H         1 LIG1101     0.1618
     25 Du1         8.5820   -3.3270   18.3320 Du        1 LIG1101     0.0000
@<TRIPOS>BOND
     1    1    4 am
     2    1    5 1
     3    2    4 1
     4    3    4 2
     5    5    6 1
     6    6    7 ar
     7    6   12 ar
     8    7    8 ar
     9    8    9 ar
    10    9   11 ar
    11    9   13 1
    12   10   13 1
    13   10   14 1
    14   11   12 ar
    15   11   14 1
    16    1   15 1
    17    2   16 1
    18    2   17 1
    19    5   18 1
    20    5   19 1
    21    7   20 1
    22    8   21 1
    23   10   22 1
    24   10   23 1
    25   12   24 1
    26    2   25 1
