LIG(A-801)
  -OEChem-04292023453D

 29 30  0     1  0  0  0  0  0999 V2000
   10.7720   -0.4840   24.6580 C   0  0  0  0  0  0  0  0  0  0  0  0
   12.5050   -1.6780   23.3560 C   0  0  0  0  0  0  0  0  0  0  0  0
   13.4810   -1.5760   22.2220 C   0  0  0  0  0  0  0  0  0  0  0  0
   14.4540   -0.4360   22.4420 C   0  0  0  0  0  0  0  0  0  0  0  0
   13.7000    0.9040   22.7060 C   0  0  0  0  0  0  0  0  0  0  0  0
   14.2540    2.1300   22.2900 C   0  0  0  0  0  0  0  0  0  0  0  0
   13.5650    3.3230   22.5210 C   0  0  0  0  0  0  0  0  0  0  0  0
   12.3140    3.2700   23.1670 C   0  0  0  0  0  0  0  0  0  0  0  0
   11.7610    2.0610   23.5740 C   0  0  0  0  0  0  0  0  0  0  0  0
   12.4550    0.8590   23.3370 C   0  0  0  0  0  0  0  0  0  0  0  0
   11.8950   -0.4430   23.7520 N   0  0  3  0  0  0  0  0  0  0  0  0
   12.3680    6.1430   23.2090 N   0  0  0  0  0  0  0  0  0  0  0  0
   10.9220    4.7010   24.8790 O   0  0  0  0  0  0  0  0  0  0  0  0
   10.1250    4.8350   22.7670 O   0  0  0  0  0  0  0  0  0  0  0  0
   11.3910    4.7800   23.5010 S   0  0  0  0  0  0  0  0  0  0  0  0
   10.4947   -1.5307   24.8520 H   0  0  0  0  0  0  0  0  0  0  0  0
   11.0469    0.0038   25.6048 H   0  0  0  0  0  0  0  0  0  0  0  0
    9.9184    0.0439   24.2078 H   0  0  0  0  0  0  0  0  0  0  0  0
   11.7054   -2.3708   23.0549 H   0  0  0  0  0  0  0  0  0  0  0  0
   13.0373   -2.0886   24.2266 H   0  0  0  0  0  0  0  0  0  0  0  0
   14.0430   -2.5185   22.1456 H   0  0  0  0  0  0  0  0  0  0  0  0
   12.9286   -1.4016   21.2869 H   0  0  0  0  0  0  0  0  0  0  0  0
   15.0886   -0.6680   23.3100 H   0  0  0  0  0  0  0  0  0  0  0  0
   15.0836   -0.3235   21.5471 H   0  0  0  0  0  0  0  0  0  0  0  0
   15.2122    2.1479   21.7920 H   0  0  0  0  0  0  0  0  0  0  0  0
   13.9836    4.2688   22.2101 H   0  0  0  0  0  0  0  0  0  0  0  0
   10.8020    2.0439   24.0704 H   0  0  0  0  0  0  0  0  0  0  0  0
   12.0882    6.8897   23.8124 H   0  0  0  0  0  0  0  0  0  0  0  0
   13.3246    5.9122   23.3867 H   0  0  0  0  0  0  0  0  0  0  0  0
  1 11  1  0  0  0  0
  2  3  1  0  0  0  0
  2 11  1  0  0  0  0
  3  4  1  0  0  0  0
  4  5  1  0  0  0  0
  5  6  2  0  0  0  0
  5 10  1  0  0  0  0
  6  7  1  0  0  0  0
  7  8  2  0  0  0  0
  8  9  1  0  0  0  0
  8 15  1  0  0  0  0
  9 10  2  0  0  0  0
 10 11  1  0  0  0  0
 12 15  1  0  0  0  0
 13 15  2  0  0  0  0
 14 15  2  0  0  0  0
  1 16  1  0  0  0  0
  1 17  1  0  0  0  0
  1 18  1  0  0  0  0
  2 19  1  0  0  0  0
  2 20  1  0  0  0  0
  3 21  1  0  0  0  0
  3 22  1  0  0  0  0
  4 23  1  0  0  0  0
  4 24  1  0  0  0  0
  6 25  1  0  0  0  0
  7 26  1  0  0  0  0
  9 27  1  0  0  0  0
 12 28  1  0  0  0  0
 12 29  1  0  0  0  0
M  END
$$$$
