@<TRIPOS>MOLECULE
LIG(A-1101)
   29    30     0     0     0
SMALL
USER_CHARGES

@<TRIPOS>ATOM
      1 C1          9.0540    6.1740   22.6390 C.3       1 LIG1101    -0.1734
      2 C2         10.3350    5.8720   23.4070 C.2       1 LIG1101     0.6516
      3 C3         12.7270    5.0060   23.3690 C.3       1 LIG1101     0.0870
      4 C4         13.1040    3.5780   22.9690 C.3       1 LIG1101    -0.0292
      5 C5         12.1160    2.4940   23.4310 C.2       1 LIG1101    -0.1522
      6 C6         10.9920    2.6720   24.2210 C.2       1 LIG1101     0.0158
      7 C7         11.0930    0.5210   23.7280 C.ar      1 LIG1101     0.0640
      8 C8         10.8640   -0.8750   23.6040 C.ar      1 LIG1101    -0.1197
      9 C9         11.7450   -1.6540   22.8590 C.ar      1 LIG1101    -0.1484
     10 C10        12.8490   -1.0610   22.2370 C.ar      1 LIG1101     0.0937
     11 C11        13.0730    0.3090   22.3660 C.ar      1 LIG1101    -0.1231
     12 C12        12.1770    1.1110   23.1230 C.ar      1 LIG1101    -0.0664
     13 F1         13.7160   -1.8170   21.5060 F         1 LIG1101    -0.1483
     14 N1         11.4860    5.3400   22.6970 N.am      1 LIG1101    -0.5651
     15 N2         10.4010    1.4960   24.3840 N.pl3     1 LIG1101    -0.5791
     16 O1         10.3760    6.0620   24.5710 O.2       1 LIG1101    -0.6273
     17 H1          8.2910    6.5557   23.3333 H         1 LIG1101     0.0666
     18 H2          9.2590    6.9308   21.8675 H         1 LIG1101     0.0666
     19 H3          8.6873    5.2534   22.1614 H         1 LIG1101     0.0666
     20 H4         12.5906    5.0660   24.4589 H         1 LIG1101     0.0632
     21 H5         13.5197    5.7032   23.0598 H         1 LIG1101     0.0632
     22 H6         13.1685    3.5363   21.8717 H         1 LIG1101     0.0528
     23 H7         14.0887    3.3502   23.4031 H         1 LIG1101     0.0528
     24 H8         10.6539    3.6106   24.6346 H         1 LIG1101     0.1912
     25 H9         10.0108   -1.3300   24.0851 H         1 LIG1101     0.1381
     26 H10        11.5762   -2.7162   22.7612 H         1 LIG1101     0.1461
     27 H11        13.9298    0.7619   21.8893 H         1 LIG1101     0.1486
     28 H12        11.4199    5.1991   21.7092 H         1 LIG1101     0.3069
     29 H13         9.5659    1.3455   24.9131 H         1 LIG1101     0.4573
@<TRIPOS>BOND
     1    1    2 1
     2    2   14 am
     3    2   16 2
     4    3    4 1
     5    3   14 1
     6    4    5 1
     7    5    6 2
     8    5   12 1
     9    6   15 1
    10    7    8 ar
    11    7   12 ar
    12    7   15 1
    13    8    9 ar
    14    9   10 ar
    15   10   11 ar
    16   10   13 1
    17   11   12 ar
    18    1   17 1
    19    1   18 1
    20    1   19 1
    21    3   20 1
    22    3   21 1
    23    4   22 1
    24    4   23 1
    25    6   24 1
    26    8   25 1
    27    9   26 1
    28   11   27 1
    29   14   28 1
    30   15   29 1
