@<TRIPOS>MOLECULE
LIG(A-1101)
   28    29     0     0     0
SMALL
USER_CHARGES

@<TRIPOS>ATOM
      1 N1         21.2800    7.5680   22.4640 N.pl3     1 LIG1101    -0.8343
      2 C1         21.8130    6.4750   23.1570 C.ar      1 LIG1101     0.2322
      3 O1         22.3330    2.1170   25.8910 O.2       1 LIG1101    -0.6516
      4 C2         21.4340    6.2590   24.5220 C.ar      1 LIG1101    -0.2321
      5 C3         25.9040    5.5920   28.9530 C.ar      1 LIG1101     0.4310
      6 C4         21.9770    5.1910   25.2480 C.ar      1 LIG1101     0.0352
      7 C5         22.8930    4.2680   24.6920 C.ar      1 LIG1101    -0.4603
      8 C6         23.2590    4.5140   23.3220 C.ar      1 LIG1101     0.0352
      9 C7         22.7470    5.5740   22.5630 C.ar      1 LIG1101    -0.2321
     10 C8         24.9860    4.3120   27.2420 C.ar      1 LIG1101     0.6792
     11 C9         25.7320    4.9300   26.2430 C.ar      1 LIG1101    -0.2892
     12 C10        26.5870    5.9160   26.6700 C.ar      1 LIG1101    -0.0584
     13 C11        26.6870    6.2620   28.0160 C.ar      1 LIG1101    -0.2834
     14 N2         24.0100    3.4090   27.0110 N.pl3     1 LIG1101    -0.8766
     15 N3         25.0600    4.6130   28.6080 N.ar      1 LIG1101    -0.7129
     16 O2         24.4960    2.3670   24.7460 O.2       1 LIG1101    -0.6516
     17 S1         23.4510    2.9160   25.5040 S.o2      1 LIG1101     1.5270
     18 H1         20.6661    8.0781   23.0665 H         1 LIG1101     0.4145
     19 H2         20.7701    7.2421   21.6679 H         1 LIG1101     0.4145
     20 H3         20.7255    6.9236   24.9939 H         1 LIG1101     0.1410
     21 H4         25.9808    5.8723   29.9932 H         1 LIG1101     0.0237
     22 H5         21.6826    5.0668   26.2796 H         1 LIG1101     0.1516
     23 H6         23.9664    3.8454   22.8541 H         1 LIG1101     0.1516
     24 H7         23.0563    5.7084   21.5370 H         1 LIG1101     0.1410
     25 H8         25.6445    4.6530   25.2028 H         1 LIG1101     0.1512
     26 H9         27.1964    6.4356   25.9454 H         1 LIG1101     0.1401
     27 H10        27.3650    7.0420   28.3296 H         1 LIG1101     0.1460
     28 H11        23.9767    2.6833   27.6982 H         1 LIG1101     0.4676
@<TRIPOS>BOND
     1    1    2 1
     2    2    4 ar
     3    2    9 ar
     4    3   17 2
     5    4    6 ar
     6    5   13 ar
     7    5   15 ar
     8    6    7 ar
     9    7    8 ar
    10    7   17 1
    11    8    9 ar
    12   10   11 ar
    13   10   14 1
    14   10   15 ar
    15   11   12 ar
    16   12   13 ar
    17   14   17 1
    18   16   17 2
    19    1   18 1
    20    1   19 1
    21    4   20 1
    22    5   21 1
    23    6   22 1
    24    8   23 1
    25    9   24 1
    26   11   25 1
    27   12   26 1
    28   13   27 1
    29   14   28 1
