LIG(A-1101)
  -OEChem-04292023533D

 34 35  0     0  0  0  0  0  0999 V2000
    9.4620    0.1790   21.3990 C   0  0  0  0  0  0  0  0  0  0  0  0
   10.0510   -0.3120   22.7150 C   0  0  0  0  0  0  0  0  0  0  0  0
   11.5700   -0.2260   22.7370 C   0  0  0  0  0  0  0  0  0  0  0  0
   12.1880   -1.1720   21.7080 C   0  0  0  0  0  0  0  0  0  0  0  0
   13.4460   -1.8740   22.2130 C   0  0  0  0  0  0  0  0  0  0  0  0
   14.2900   -1.0480   23.1730 C   0  0  0  0  0  0  0  0  0  0  0  0
   13.4970   -0.3390   24.2650 C   0  0  0  0  0  0  0  0  0  0  0  0
   11.9940   -0.5570   24.1570 C   0  0  0  0  0  0  0  0  0  0  0  0
    7.5430    0.0720   19.8490 C   0  0  0  0  0  0  0  0  0  0  0  0
    6.2960    0.6690   20.0040 C   0  0  0  0  0  0  0  0  0  0  0  0
    5.6620    1.1060   18.8460 C   0  0  0  0  0  0  0  0  0  0  0  0
    6.3070    0.9290   17.6300 C   0  0  0  0  0  0  0  0  0  0  0  0
    8.1460   -0.0680   18.6140 C   0  0  0  0  0  0  0  0  0  0  0  0
    8.1920   -0.3690   21.0460 N   0  0  0  0  0  0  0  0  0  0  0  0
    7.5030    0.3630   17.5510 N   0  0  0  0  0  0  0  0  0  0  0  0
   10.0000    0.9720   20.6940 O   0  0  0  0  0  0  0  0  0  0  0  0
    9.6502    0.3041   23.5334 H   0  0  0  0  0  0  0  0  0  0  0  0
    9.7541   -1.3604   22.8659 H   0  0  0  0  0  0  0  0  0  0  0  0
   11.8742    0.8047   22.5023 H   0  0  0  0  0  0  0  0  0  0  0  0
   11.4427   -1.9372   21.4451 H   0  0  0  0  0  0  0  0  0  0  0  0
   12.4486   -0.5906   20.8113 H   0  0  0  0  0  0  0  0  0  0  0  0
   13.1405   -2.7954   22.7304 H   0  0  0  0  0  0  0  0  0  0  0  0
   14.0682   -2.1310   21.3431 H   0  0  0  0  0  0  0  0  0  0  0  0
   15.0157   -1.7187   23.6563 H   0  0  0  0  0  0  0  0  0  0  0  0
   14.8272   -0.2860   22.5892 H   0  0  0  0  0  0  0  0  0  0  0  0
   13.8349   -0.7153   25.2419 H   0  0  0  0  0  0  0  0  0  0  0  0
   13.6988    0.7403   24.1980 H   0  0  0  0  0  0  0  0  0  0  0  0
   11.4699    0.1012   24.8656 H   0  0  0  0  0  0  0  0  0  0  0  0
   11.7522   -1.6059   24.3834 H   0  0  0  0  0  0  0  0  0  0  0  0
    5.8422    0.7874   20.9768 H   0  0  0  0  0  0  0  0  0  0  0  0
    4.6892    1.5728   18.8920 H   0  0  0  0  0  0  0  0  0  0  0  0
    5.8217    1.2612   16.7242 H   0  0  0  0  0  0  0  0  0  0  0  0
    9.1224   -0.5207   18.5237 H   0  0  0  0  0  0  0  0  0  0  0  0
    7.7593   -1.0555   21.6304 H   0  0  0  0  0  0  0  0  0  0  0  0
  1  2  1  0  0  0  0
  1 14  1  0  0  0  0
  1 16  2  0  0  0  0
  2  3  1  0  0  0  0
  3  4  1  0  0  0  0
  3  8  1  0  0  0  0
  4  5  1  0  0  0  0
  5  6  1  0  0  0  0
  6  7  1  0  0  0  0
  7  8  1  0  0  0  0
  9 10  2  0  0  0  0
  9 13  1  0  0  0  0
  9 14  1  0  0  0  0
 10 11  1  0  0  0  0
 11 12  2  0  0  0  0
 12 15  1  0  0  0  0
 13 15  2  0  0  0  0
  2 17  1  0  0  0  0
  2 18  1  0  0  0  0
  3 19  1  0  0  0  0
  4 20  1  0  0  0  0
  4 21  1  0  0  0  0
  5 22  1  0  0  0  0
  5 23  1  0  0  0  0
  6 24  1  0  0  0  0
  6 25  1  0  0  0  0
  7 26  1  0  0  0  0
  7 27  1  0  0  0  0
  8 28  1  0  0  0  0
  8 29  1  0  0  0  0
 10 30  1  0  0  0  0
 11 31  1  0  0  0  0
 12 32  1  0  0  0  0
 13 33  1  0  0  0  0
 14 34  1  0  0  0  0
M  END
$$$$
