LIG(A-1101)
  -OEChem-04162022463D

 37 38  0     0  0  0  0  0  0999 V2000
    6.0560   -5.2800   24.2180 N   0  0  0  0  0  0  0  0  0  0  0  0
    0.9880   -1.1520   25.8930 C   0  0  0  0  0  0  0  0  0  0  0  0
    6.4980   -4.8020   26.5850 O   0  0  0  0  0  0  0  0  0  0  0  0
    2.0890   -2.1710   25.8530 C   0  0  0  0  0  0  0  0  0  0  0  0
    6.6760   -4.0460   23.7090 C   0  0  0  0  0  0  0  0  0  0  0  0
    6.4680   -4.6290   20.3360 C   0  0  0  0  0  0  0  0  0  0  0  0
    7.0960   -3.3370   19.8890 C   0  0  0  0  0  0  0  0  0  0  0  0
    3.3180   -1.9070   26.4330 C   0  0  0  0  0  0  0  0  0  0  0  0
    4.3440   -2.8330   26.4060 C   0  0  0  0  0  0  0  0  0  0  0  0
    4.1400   -4.0520   25.7780 C   0  0  0  0  0  0  0  0  0  0  0  0
    2.9170   -4.3420   25.1950 C   0  0  0  0  0  0  0  0  0  0  0  0
    1.9070   -3.3990   25.2360 C   0  0  0  0  0  0  0  0  0  0  0  0
    5.2670   -5.9550   23.1760 C   0  0  0  0  0  0  0  0  0  0  0  0
    6.2020   -6.3350   22.0600 C   0  0  0  0  0  0  0  0  0  0  0  0
    7.5840   -4.3890   22.5560 C   0  0  0  0  0  0  0  0  0  0  0  0
    6.8470   -5.1330   21.5300 N   0  0  0  0  0  0  0  0  0  0  0  0
    4.8420   -6.5300   25.9650 O   0  0  0  0  0  0  0  0  0  0  0  0
    5.6280   -5.1740   19.6320 O   0  0  0  0  0  0  0  0  0  0  0  0
    5.4390   -5.2520   25.7370 S   0  0  0  0  0  0  0  0  0  0  0  0
    8.3940   -3.4530   18.6210 R#  0  0  0  0  0  0  0  0  0  0  0  0
    1.3198   -0.2329   25.3879 H   0  0  0  0  0  0  0  0  0  0  0  0
    0.1001   -1.5514   25.3810 H   0  0  0  0  0  0  0  0  0  0  0  0
    0.7366   -0.9248   26.9395 H   0  0  0  0  0  0  0  0  0  0  0  0
    5.8922   -3.3539   23.3673 H   0  0  0  0  0  0  0  0  0  0  0  0
    7.2613   -3.5705   24.5098 H   0  0  0  0  0  0  0  0  0  0  0  0
    6.2949   -2.6987   19.4880 H   0  0  0  0  0  0  0  0  0  0  0  0
    7.5379   -2.8576   20.7749 H   0  0  0  0  0  0  0  0  0  0  0  0
    3.4789   -0.9555   26.9178 H   0  0  0  0  0  0  0  0  0  0  0  0
    5.2938   -2.6094   26.8689 H   0  0  0  0  0  0  0  0  0  0  0  0
    2.7544   -5.2950   24.7135 H   0  0  0  0  0  0  0  0  0  0  0  0
    0.9554   -3.6239   24.7774 H   0  0  0  0  0  0  0  0  0  0  0  0
    4.7944   -6.8574   23.5910 H   0  0  0  0  0  0  0  0  0  0  0  0
    4.4896   -5.2753   22.7969 H   0  0  0  0  0  0  0  0  0  0  0  0
    6.9694   -7.0235   22.4436 H   0  0  0  0  0  0  0  0  0  0  0  0
    5.6336   -6.8293   21.2584 H   0  0  0  0  0  0  0  0  0  0  0  0
    7.9793   -3.4610   22.1172 H   0  0  0  0  0  0  0  0  0  0  0  0
    8.4180   -5.0057   22.9223 H   0  0  0  0  0  0  0  0  0  0  0  0
  1  5  1  0  0  0  0
  1 13  1  0  0  0  0
  1 19  1  0  0  0  0
  2  4  1  0  0  0  0
  3 19  2  0  0  0  0
  4  8  2  0  0  0  0
  4 12  1  0  0  0  0
  5 15  1  0  0  0  0
  6  7  1  0  0  0  0
  6 16  1  0  0  0  0
  6 18  2  0  0  0  0
  8  9  1  0  0  0  0
  9 10  2  0  0  0  0
 10 11  1  0  0  0  0
 10 19  1  0  0  0  0
 11 12  2  0  0  0  0
 13 14  1  0  0  0  0
 14 16  1  0  0  0  0
 15 16  1  0  0  0  0
 17 19  2  0  0  0  0
  2 21  1  0  0  0  0
  2 22  1  0  0  0  0
  2 23  1  0  0  0  0
  5 24  1  0  0  0  0
  5 25  1  0  0  0  0
  7 26  1  0  0  0  0
  7 27  1  0  0  0  0
  8 28  1  0  0  0  0
  9 29  1  0  0  0  0
 11 30  1  0  0  0  0
 12 31  1  0  0  0  0
 13 32  1  0  0  0  0
 13 33  1  0  0  0  0
 14 34  1  0  0  0  0
 14 35  1  0  0  0  0
 15 36  1  0  0  0  0
 15 37  1  0  0  0  0
  7 20  1  0  0  0  0
M  RGP  1  20   1
M  END
$$$$
