@<TRIPOS>MOLECULE
LIG(A-1101)
   31    33     0     0     0
SMALL
USER_CHARGES

@<TRIPOS>ATOM
      1 C1         22.0070   18.3020    4.0530 C.ar      1 LIG1101     0.1600
      2 C2         21.1390   19.3770    3.9200 C.ar      1 LIG1101    -0.1611
      3 C3         20.4720   19.8570    5.0360 C.ar      1 LIG1101    -0.0875
      4 C4         20.6520   19.2620    6.2800 C.ar      1 LIG1101    -0.1701
      5 C5         21.5170   18.1820    6.4130 C.ar      1 LIG1101    -0.0817
      6 C6         22.1880   17.7050    5.2920 C.ar      1 LIG1101    -0.1927
      7 C7         23.1500   16.5320    5.3920 C.3       1 LIG1101     0.2371
      8 C8         23.6340   14.3300    4.3200 C.2       1 LIG1101     0.7058
      9 C9         25.3710   13.0120    4.5380 C.ar      1 LIG1101     0.0449
     10 C10        26.5880   12.3500    4.8900 C.ar      1 LIG1101    -0.1300
     11 C11        26.9450   11.1680    4.2450 C.ar      1 LIG1101    -0.1211
     12 C12        26.1200   10.6340    3.2500 C.ar      1 LIG1101    -0.1462
     13 C13        24.9380   11.2830    2.9070 C.ar      1 LIG1101    -0.0788
     14 C14        24.5650   12.4880    3.5720 C.ar      1 LIG1101     0.0860
     15 N1         22.7270   15.4440    4.5300 N.pl3     1 LIG1101    -0.8070
     16 N2         24.7730   14.1510    4.9870 N.pl3     1 LIG1101    -0.6979
     17 N3         23.4990   13.3220    3.4580 N.2       1 LIG1101    -0.5871
     18 O1         22.6960   17.8020    2.9430 O.3       1 LIG1101    -0.5041
     19 H1         20.9846   19.8357    2.9545 H         1 LIG1101     0.1565
     20 H2         19.8058   20.7015    4.9386 H         1 LIG1101     0.1367
     21 H3         20.1205   19.6385    7.1415 H         1 LIG1101     0.1358
     22 H4         21.6665   17.7181    7.3768 H         1 LIG1101     0.1319
     23 H5         24.1545   16.8625    5.0891 H         1 LIG1101     0.0465
     24 H6         23.1791   16.1771    6.4328 H         1 LIG1101     0.0465
     25 H7         27.2289   12.7650    5.6538 H         1 LIG1101     0.1338
     26 H8         27.8609   10.6629    4.5139 H         1 LIG1101     0.1318
     27 H9         26.3999    9.7193    2.7486 H         1 LIG1101     0.1323
     28 H10        24.3021   10.8735    2.1360 H         1 LIG1101     0.1486
     29 H11        21.7575   15.3387    4.3088 H         1 LIG1101     0.4351
     30 H12        25.1306   14.7537    5.7003 H         1 LIG1101     0.4535
     31 H13        22.6786   16.8523    2.9603 H         1 LIG1101     0.4424
@<TRIPOS>BOND
     1    1    2 ar
     2    1    6 ar
     3    1   18 1
     4    2    3 ar
     5    3    4 ar
     6    4    5 ar
     7    5    6 ar
     8    6    7 1
     9    7   15 1
    10    8   15 1
    11    8   16 1
    12    8   17 2
    13    9   10 ar
    14    9   14 ar
    15    9   16 1
    16   10   11 ar
    17   11   12 ar
    18   12   13 ar
    19   13   14 ar
    20   14   17 1
    21    2   19 1
    22    3   20 1
    23    4   21 1
    24    5   22 1
    25    7   23 1
    26    7   24 1
    27   10   25 1
    28   11   26 1
    29   12   27 1
    30   13   28 1
    31   15   29 1
    32   16   30 1
    33   18   31 1
