@<TRIPOS>MOLECULE
LIG(A-1101)
   30    31     0     0     0
SMALL
USER_CHARGES

@<TRIPOS>ATOM
      1 N1          7.0950   -4.4970   20.7570 N.am      1 LIG1101    -0.3862
      2 C1          7.7210   -2.7500   19.1690 C.3       1 LIG1101    -0.1095
      3 O1          5.6950   -3.9990   19.0720 O.2       1 LIG1101    -0.5535
      4 C2          6.7440   -3.7890   19.6720 C.2       1 LIG1101     0.6145
      5 C3         10.7950   -0.5580   23.5030 C.2       1 LIG1101    -0.1202
      6 C4          7.8150   -2.8060   22.2890 C.2       1 LIG1101     0.6650
      7 C5          9.0560   -2.0700   22.5990 C.2       1 LIG1101    -0.2246
      8 C6         10.2110   -1.9820   21.7680 C.2       1 LIG1101    -0.1212
      9 C7         11.2100   -1.1770   22.3640 C.2       1 LIG1101    -0.1148
     10 C8         12.6020   -0.9820   21.8630 C.3       1 LIG1101    -0.0137
     11 C9         13.4670   -0.2860   22.8990 C.3       1 LIG1101    -0.0760
     12 C10        12.7830    0.9050   23.4700 C.3       1 LIG1101    -0.0732
     13 C11        11.5340    0.5250   24.2360 C.3       1 LIG1101    -0.0055
     14 N2          7.9720   -4.0080   21.7080 N.am      1 LIG1101    -0.4133
     15 O2          6.7060   -2.3180   22.5140 O.2       1 LIG1101    -0.5616
     16 S1          9.2820   -1.1620   24.0760 S.3       1 LIG1101     0.1675
     17 H1          6.7085   -5.4108   20.8822 H         1 LIG1101     0.3194
     18 H2          7.1751   -2.0275   18.5446 H         1 LIG1101     0.0707
     19 H3          8.1578   -2.2303   20.0345 H         1 LIG1101     0.0707
     20 H4         10.3104   -2.4669   20.8081 H         1 LIG1101     0.1505
     21 H5         13.0404   -1.9638   21.6308 H         1 LIG1101     0.0526
     22 H6         12.5721   -0.3687   20.9503 H         1 LIG1101     0.0526
     23 H7         13.6905   -0.9933   23.7113 H         1 LIG1101     0.0465
     24 H8         14.4056    0.0348   22.4235 H         1 LIG1101     0.0465
     25 H9         13.4756    1.4200   24.1520 H         1 LIG1101     0.0471
     26 H10        12.5046    1.5827   22.6495 H         1 LIG1101     0.0471
     27 H11        11.8153    0.1624   25.2357 H         1 LIG1101     0.0552
     28 H12        10.8844    1.4071   24.3353 H         1 LIG1101     0.0552
     29 H13         8.7543   -4.5712   21.9741 H         1 LIG1101     0.3123
     30 Du1         9.0690   -3.4690   18.1820 Du        1 LIG1101     0.0000
@<TRIPOS>BOND
     1    1    4 am
     2    1   14 1
     3    2    4 1
     4    3    4 2
     5    5    9 2
     6    5   13 1
     7    5   16 1
     8    6    7 1
     9    6   14 am
    10    6   15 2
    11    7    8 2
    12    7   16 1
    13    8    9 1
    14    9   10 1
    15   10   11 1
    16   11   12 1
    17   12   13 1
    18    1   17 1
    19    2   18 1
    20    2   19 1
    21    8   20 1
    22   10   21 1
    23   10   22 1
    24   11   23 1
    25   11   24 1
    26   12   25 1
    27   12   26 1
    28   13   27 1
    29   13   28 1
    30   14   29 1
    31    2   30 1
