LIG(A-1101)
  -OEChem-04292023423D

 34 35  0     0  0  0  0  0  0999 V2000
    5.6380   -5.2300   24.4260 N   0  0  0  0  0  0  0  0  0  0  0  0
    2.4450   -4.1450   25.7970 C   0  0  0  0  0  0  0  0  0  0  0  0
    4.3530   -6.3180   26.2130 O   0  0  0  0  0  0  0  0  0  0  0  0
    1.4660   -3.1820   25.7740 C   0  0  0  0  0  0  0  0  0  0  0  0
    6.5420   -4.5650   20.5230 C   0  0  0  0  0  0  0  0  0  0  0  0
    7.5550   -3.4780   20.2630 C   0  0  0  0  0  0  0  0  0  0  0  0
    1.8450   -1.8580   25.8590 C   0  0  0  0  0  0  0  0  0  0  0  0
    3.1730   -1.4890   25.9690 C   0  0  0  0  0  0  0  0  0  0  0  0
    4.1320   -2.4740   25.9870 C   0  0  0  0  0  0  0  0  0  0  0  0
    3.7880   -3.8150   25.9020 C   0  0  0  0  0  0  0  0  0  0  0  0
    4.6700   -5.3510   23.3260 C   0  0  0  0  0  0  0  0  0  0  0  0
    5.3750   -5.9710   22.1520 C   0  0  0  0  0  0  0  0  0  0  0  0
    7.4620   -4.9760   22.8490 C   0  0  0  0  0  0  0  0  0  0  0  0
    6.7860   -4.3840   24.0590 C   0  0  0  0  0  0  0  0  0  0  0  0
    2.0750   -5.4430   25.7140 F   0  0  0  0  0  0  0  0  0  0  0  0
    5.4320   -2.1110   26.0880 F   0  0  0  0  0  0  0  0  0  0  0  0
    6.4970   -5.1210   21.7560 N   0  0  0  0  0  0  0  0  0  0  0  0
    6.0930   -4.6560   26.7820 O   0  0  0  0  0  0  0  0  0  0  0  0
    5.7560   -4.8860   19.6400 O   0  0  0  0  0  0  0  0  0  0  0  0
    5.0210   -5.0840   25.9370 S   0  0  0  0  0  0  0  0  0  0  0  0
    8.2830   -3.4240   18.5970 R#  0  0  0  0  0  0  0  0  0  0  0  0
    0.4242   -3.4546   25.6913 H   0  0  0  0  0  0  0  0  0  0  0  0
    7.0611   -2.5117   20.4427 H   0  0  0  0  0  0  0  0  0  0  0  0
    8.3770   -3.6090   20.9822 H   0  0  0  0  0  0  0  0  0  0  0  0
    1.0853   -1.0906   25.8391 H   0  0  0  0  0  0  0  0  0  0  0  0
    3.4514   -0.4479   26.0394 H   0  0  0  0  0  0  0  0  0  0  0  0
    3.8300   -5.9897   23.6367 H   0  0  0  0  0  0  0  0  0  0  0  0
    4.2915   -4.3555   23.0508 H   0  0  0  0  0  0  0  0  0  0  0  0
    5.7497   -6.9664   22.4326 H   0  0  0  0  0  0  0  0  0  0  0  0
    4.6726   -6.0673   21.3109 H   0  0  0  0  0  0  0  0  0  0  0  0
    8.2792   -4.3134   22.5278 H   0  0  0  0  0  0  0  0  0  0  0  0
    7.8709   -5.9640   23.1072 H   0  0  0  0  0  0  0  0  0  0  0  0
    7.4977   -4.3437   24.8968 H   0  0  0  0  0  0  0  0  0  0  0  0
    6.4360   -3.3675   23.8260 H   0  0  0  0  0  0  0  0  0  0  0  0
  1 11  1  0  0  0  0
  1 14  1  0  0  0  0
  1 20  1  0  0  0  0
  2  4  2  0  0  0  0
  2 10  1  0  0  0  0
  2 15  1  0  0  0  0
  3 20  2  0  0  0  0
  4  7  1  0  0  0  0
  5  6  1  0  0  0  0
  5 17  1  0  0  0  0
  5 19  2  0  0  0  0
  7  8  2  0  0  0  0
  8  9  1  0  0  0  0
  9 10  2  0  0  0  0
  9 16  1  0  0  0  0
 10 20  1  0  0  0  0
 11 12  1  0  0  0  0
 12 17  1  0  0  0  0
 13 14  1  0  0  0  0
 13 17  1  0  0  0  0
 18 20  2  0  0  0  0
  4 22  1  0  0  0  0
  6 23  1  0  0  0  0
  6 24  1  0  0  0  0
  7 25  1  0  0  0  0
  8 26  1  0  0  0  0
 11 27  1  0  0  0  0
 11 28  1  0  0  0  0
 12 29  1  0  0  0  0
 12 30  1  0  0  0  0
 13 31  1  0  0  0  0
 13 32  1  0  0  0  0
 14 33  1  0  0  0  0
 14 34  1  0  0  0  0
  6 21  1  0  0  0  0
M  RGP  1  21   1
M  END
$$$$
