@<TRIPOS>MOLECULE
LIG(A-1101)
   32    33     0     0     0
SMALL
USER_CHARGES

@<TRIPOS>ATOM
      1 C1          6.7670   -4.3190   20.7050 C.2       1 LIG1101     0.6762
      2 C2          8.1870   -4.0260   20.2840 C.3       1 LIG1101    -0.0991
      3 C3          7.6160   -4.9880   22.9190 C.ar      1 LIG1101     0.0321
      4 C4          8.6070   -5.9630   22.8250 C.ar      1 LIG1101    -0.1346
      5 C5          9.5840   -6.0530   23.8030 C.ar      1 LIG1101    -0.1223
      6 C6          9.5720   -5.2030   24.8870 C.ar      1 LIG1101    -0.1212
      7 C7          8.5820   -4.2550   25.0000 C.ar      1 LIG1101    -0.1223
      8 C8          7.6040   -4.1410   24.0250 C.ar      1 LIG1101    -0.1346
      9 C9          5.2530   -5.4340   22.2710 C.3       1 LIG1101     0.1458
     10 C10         5.1650   -6.9160   21.9600 C.3       1 LIG1101    -0.0780
     11 C11         4.1430   -7.4900   22.5690 C.3       1 LIG1101    -0.3171
     12 C12         4.8990   -5.3190   23.7660 C.3       1 LIG1101    -0.3375
     13 N1          6.5680   -4.8990   21.9350 N.am      1 LIG1101    -0.4060
     14 O1          5.8320   -4.0540   19.9590 O.2       1 LIG1101    -0.5941
     15 O2          4.4430   -7.5300   25.1700 O.2       1 LIG1101    -0.6496
     16 O3          2.4940   -6.3430   24.2540 O.2       1 LIG1101    -0.6496
     17 S1          3.8720   -6.7310   24.1180 S.o2      1 LIG1101     1.3187
     18 H1          8.5638   -3.1789   20.8760 H         1 LIG1101     0.0710
     19 H2          8.8048   -4.9146   20.4810 H         1 LIG1101     0.0710
     20 H3          8.6134   -6.6481   21.9902 H         1 LIG1101     0.1412
     21 H4         10.3623   -6.7965   23.7148 H         1 LIG1101     0.1392
     22 H5         10.3371   -5.2807   25.6453 H         1 LIG1101     0.1396
     23 H6          8.5667   -3.5948   25.8546 H         1 LIG1101     0.1392
     24 H7          6.8305   -3.3936   24.1227 H         1 LIG1101     0.1412
     25 H8          4.4828   -4.9054   21.6902 H         1 LIG1101     0.0984
     26 H9          5.0488   -7.0445   20.8737 H         1 LIG1101     0.0682
     27 H10         6.0942   -7.4037   22.2896 H         1 LIG1101     0.0682
     28 H11         3.2415   -7.3833   21.9478 H         1 LIG1101     0.1260
     29 H12         4.3607   -8.5578   22.7191 H         1 LIG1101     0.1260
     30 H13         5.8110   -5.3435   24.3806 H         1 LIG1101     0.1322
     31 H14         4.3504   -4.3857   23.9610 H         1 LIG1101     0.1322
     32 Du1         8.3110   -3.6080   18.5230 Du        1 LIG1101     0.0000
@<TRIPOS>BOND
     1    1    2 1
     2    1   13 am
     3    1   14 2
     4    3    4 ar
     5    3    8 ar
     6    3   13 1
     7    4    5 ar
     8    5    6 ar
     9    6    7 ar
    10    7    8 ar
    11    9   10 1
    12    9   12 1
    13    9   13 1
    14   10   11 1
    15   11   17 1
    16   12   17 1
    17   15   17 2
    18   16   17 2
    19    2   18 1
    20    2   19 1
    21    4   20 1
    22    5   21 1
    23    6   22 1
    24    7   23 1
    25    8   24 1
    26    9   25 1
    27   10   26 1
    28   10   27 1
    29   11   28 1
    30   11   29 1
    31   12   30 1
    32   12   31 1
    33    2   32 1
