@<TRIPOS>MOLECULE
LIG(A-1101)
   25    26     0     0     0
SMALL
USER_CHARGES

@<TRIPOS>ATOM
      1 N1          7.2030   -3.8360   21.2630 N.am      1 LIG1101    -0.4647
      2 C1          7.7920   -4.7460   27.6100 C.3       1 LIG1101     0.1140
      3 O1          7.6280   -4.8190   26.1940 O.3       1 LIG1101    -0.3061
      4 C2          6.5200   -5.4330   25.6990 C.ar      1 LIG1101     0.1744
      5 C3          5.6040   -6.1620   26.4540 C.ar      1 LIG1101    -0.2092
      6 C4          4.5010   -6.7540   25.8330 C.ar      1 LIG1101    -0.0927
      7 C5          4.2940   -6.6350   24.4760 C.ar      1 LIG1101    -0.1186
      8 C6          5.2180   -5.9070   23.7360 C.ar      1 LIG1101    -0.1038
      9 C7          6.6430   -4.5980   22.2680 C.2       1 LIG1101     0.3989
     10 C8          6.7020   -3.6950   19.9970 C.2       1 LIG1101     0.6632
     11 C9          7.5060   -2.8030   19.0820 C.3       1 LIG1101    -0.0982
     12 C10         6.3370   -5.2990   24.3250 C.ar      1 LIG1101     0.0842
     13 N2          7.1680   -4.6060   23.4600 N.2       1 LIG1101    -0.5630
     14 O2          5.6780   -4.2570   19.6440 O.2       1 LIG1101    -0.5786
     15 S1          5.2230   -5.5870   22.0220 S.3       1 LIG1101     0.0677
     16 H1          8.0471   -3.3448   21.4780 H         1 LIG1101     0.3377
     17 H2          8.7310   -4.2232   27.8444 H         1 LIG1101     0.0448
     18 H3          6.9467   -4.1958   28.0490 H         1 LIG1101     0.0448
     19 H4          7.8244   -5.7629   28.0281 H         1 LIG1101     0.0448
     20 H5          5.7463   -6.2696   27.5192 H         1 LIG1101     0.1390
     21 H6          3.7968   -7.3160   26.4285 H         1 LIG1101     0.1343
     22 H7          3.4391   -7.0938   24.0015 H         1 LIG1101     0.1396
     23 H8          6.8663   -2.5066   18.2377 H         1 LIG1101     0.0738
     24 H9          7.8057   -1.9079   19.6468 H         1 LIG1101     0.0738
     25 Du1         9.0030   -3.5870   18.4170 Du        1 LIG1101     0.0000
@<TRIPOS>BOND
     1    1    9 1
     2    1   10 am
     3    2    3 1
     4    3    4 1
     5    4    5 ar
     6    4   12 ar
     7    5    6 ar
     8    6    7 ar
     9    7    8 ar
    10    8   12 ar
    11    8   15 1
    12    9   13 2
    13    9   15 1
    14   10   11 1
    15   10   14 2
    16   12   13 1
    17    1   16 1
    18    2   17 1
    19    2   18 1
    20    2   19 1
    21    5   20 1
    22    6   21 1
    23    7   22 1
    24   11   23 1
    25   11   24 1
    26   11   25 1
