@<TRIPOS>MOLECULE
LIG(A-1101)
   35    36     0     0     0
SMALL
USER_CHARGES

@<TRIPOS>ATOM
      1 N1          5.5330   -3.6480   23.7570 N.pl3     1 LIG1101    -0.7103
      2 C1          1.2830   -2.3310   28.3070 C.3       1 LIG1101     0.1155
      3 O1          2.7030   -2.2030   28.3130 O.3       1 LIG1101    -0.3324
      4 C2          3.3890   -2.5710   27.1860 C.ar      1 LIG1101     0.0703
      5 C3          6.4510   -2.6830   23.1190 C.3       1 LIG1101     0.2047
      6 C4          6.3360   -4.1570   19.9900 C.2       1 LIG1101     0.6499
      7 C5          6.8880   -3.0100   19.1800 C.3       1 LIG1101    -0.1020
      8 C6          2.8880   -3.5300   26.3160 C.ar      1 LIG1101    -0.1327
      9 C7          3.6040   -3.8790   25.1870 C.ar      1 LIG1101    -0.1685
     10 C8          4.8390   -3.2940   24.9030 C.ar      1 LIG1101     0.1689
     11 C9          5.3240   -2.3260   25.7860 C.ar      1 LIG1101    -0.1685
     12 C10         4.6110   -1.9710   26.9170 C.ar      1 LIG1101    -0.1327
     13 C11         5.2600   -4.9510   23.1230 C.3       1 LIG1101     0.2047
     14 C12         6.3010   -5.3930   22.1190 C.3       1 LIG1101     0.0670
     15 C13         7.4000   -3.2910   22.1110 C.3       1 LIG1101     0.0670
     16 N2          6.6880   -4.2610   21.2920 N.am      1 LIG1101    -0.4493
     17 O2          5.5890   -4.9650   19.4540 O.2       1 LIG1101    -0.5984
     18 H1          0.8802   -1.9984   29.2751 H         1 LIG1101     0.0408
     19 H2          0.8624   -1.7102   27.5022 H         1 LIG1101     0.0408
     20 H3          1.0105   -3.3834   28.1387 H         1 LIG1101     0.0408
     21 H4          5.8459   -1.9216   22.6051 H         1 LIG1101     0.0423
     22 H5          7.0491   -2.2045   23.9085 H         1 LIG1101     0.0423
     23 H6          6.1844   -2.7865   18.3646 H         1 LIG1101     0.0672
     24 H7          6.9810   -2.1313   19.8352 H         1 LIG1101     0.0672
     25 H8          1.9391   -4.0030   26.5216 H         1 LIG1101     0.1413
     26 H9          3.2003   -4.6186   24.5114 H         1 LIG1101     0.1336
     27 H10         6.2705   -1.8473   25.5824 H         1 LIG1101     0.1336
     28 H11         5.0060   -1.2258   27.5916 H         1 LIG1101     0.1413
     29 H12         5.2019   -5.7124   23.9148 H         1 LIG1101     0.0423
     30 H13         4.2912   -4.8848   22.6062 H         1 LIG1101     0.0423
     31 H14         7.1838   -5.7772   22.6511 H         1 LIG1101     0.0677
     32 H15         5.8827   -6.1864   21.4822 H         1 LIG1101     0.0677
     33 H16         7.8076   -2.4976   21.4673 H         1 LIG1101     0.0677
     34 H17         8.2234   -3.7931   22.6401 H         1 LIG1101     0.0677
     35 Du1         8.5170   -3.3680   18.4570 Du        1 LIG1101     0.0000
@<TRIPOS>BOND
     1    1    5 1
     2    1   10 1
     3    1   13 1
     4    2    3 1
     5    3    4 1
     6    4    8 ar
     7    4   12 ar
     8    5   15 1
     9    6    7 1
    10    6   16 am
    11    6   17 2
    12    8    9 ar
    13    9   10 ar
    14   10   11 ar
    15   11   12 ar
    16   13   14 1
    17   14   16 1
    18   15   16 1
    19    2   18 1
    20    2   19 1
    21    2   20 1
    22    5   21 1
    23    5   22 1
    24    7   23 1
    25    7   24 1
    26    8   25 1
    27    9   26 1
    28   11   27 1
    29   12   28 1
    30   13   29 1
    31   13   30 1
    32   14   31 1
    33   14   32 1
    34   15   33 1
    35   15   34 1
    36    7   35 1
