LIG(A-1101)
  -OEChem-04032019403D

 35 36  0     0  0  0  0  0  0999 V2000
    6.7560   -2.7010   20.9930 N   0  0  0  0  0  0  0  0  0  0  0  0
    7.0720   -2.6690   18.5570 C   0  0  0  0  0  0  0  0  0  0  0  0
    5.7630   -4.2720   19.6960 O   0  0  0  0  0  0  0  0  0  0  0  0
    6.4730   -3.2780   19.7990 C   0  0  0  0  0  0  0  0  0  0  0  0
   11.7730   -1.8300   22.8390 C   0  0  0  0  0  0  0  0  0  0  0  0
    8.7410   -1.7040   21.9520 C   0  0  0  0  0  0  0  0  0  0  0  0
    7.4550   -1.4380   21.2040 C   0  0  0  0  0  0  0  0  0  0  0  0
    6.4180   -3.3120   22.2790 C   0  0  0  0  0  0  0  0  0  0  0  0
    7.6780   -3.5560   23.0780 C   0  0  0  0  0  0  0  0  0  0  0  0
    9.6970   -2.6290   23.9900 C   0  0  0  0  0  0  0  0  0  0  0  0
   10.7990   -1.6170   23.7980 C   0  0  0  0  0  0  0  0  0  0  0  0
   10.8630   -0.4650   24.5650 C   0  0  0  0  0  0  0  0  0  0  0  0
   11.8810    0.4520   24.3710 C   0  0  0  0  0  0  0  0  0  0  0  0
   12.8540    0.2330   23.4170 C   0  0  0  0  0  0  0  0  0  0  0  0
   12.7820   -0.9120   22.6560 C   0  0  0  0  0  0  0  0  0  0  0  0
    8.4660   -2.3320   23.2480 N   0  3  0  0  0  0  0  0  0  0  0  0
   13.9860   -1.2300   21.4400 Cl  0  0  0  0  0  0  0  0  0  0  0  0
    8.7320   -3.3190   18.2510 R#  0  0  0  0  0  0  0  0  0  0  0  0
    6.4295   -2.9038   17.6956 H   0  0  0  0  0  0  0  0  0  0  0  0
    7.1308   -1.5779   18.6840 H   0  0  0  0  0  0  0  0  0  0  0  0
   11.7415   -2.7217   22.2305 H   0  0  0  0  0  0  0  0  0  0  0  0
    9.3751   -2.3743   21.3532 H   0  0  0  0  0  0  0  0  0  0  0  0
    9.2667   -0.7519   22.1164 H   0  0  0  0  0  0  0  0  0  0  0  0
    6.8201   -0.7594   21.7925 H   0  0  0  0  0  0  0  0  0  0  0  0
    7.6829   -0.9762   20.2320 H   0  0  0  0  0  0  0  0  0  0  0  0
    5.7546   -2.6376   22.8404 H   0  0  0  0  0  0  0  0  0  0  0  0
    5.9052   -4.2694   22.1047 H   0  0  0  0  0  0  0  0  0  0  0  0
    7.4003   -3.9403   24.0706 H   0  0  0  0  0  0  0  0  0  0  0  0
    8.2917   -4.3035   22.5539 H   0  0  0  0  0  0  0  0  0  0  0  0
   10.0694   -3.6101   23.6602 H   0  0  0  0  0  0  0  0  0  0  0  0
    9.4514   -2.6713   25.0614 H   0  0  0  0  0  0  0  0  0  0  0  0
   10.1128   -0.2813   25.3199 H   0  0  0  0  0  0  0  0  0  0  0  0
   11.9145    1.3484   24.9724 H   0  0  0  0  0  0  0  0  0  0  0  0
   13.6538    0.9438   23.2708 H   0  0  0  0  0  0  0  0  0  0  0  0
    7.9255   -1.6907   23.7926 H   0  0  0  0  0  0  0  0  0  0  0  0
  1  4  1  0  0  0  0
  1  7  1  0  0  0  0
  1  8  1  0  0  0  0
  2  4  1  0  0  0  0
  3  4  2  0  0  0  0
  5 11  2  0  0  0  0
  5 15  1  0  0  0  0
  6  7  1  0  0  0  0
  6 16  1  0  0  0  0
  8  9  1  0  0  0  0
  9 16  1  0  0  0  0
 10 11  1  0  0  0  0
 10 16  1  0  0  0  0
 11 12  1  0  0  0  0
 12 13  2  0  0  0  0
 13 14  1  0  0  0  0
 14 15  2  0  0  0  0
 15 17  1  0  0  0  0
  2 19  1  0  0  0  0
  2 20  1  0  0  0  0
  5 21  1  0  0  0  0
  6 22  1  0  0  0  0
  6 23  1  0  0  0  0
  7 24  1  0  0  0  0
  7 25  1  0  0  0  0
  8 26  1  0  0  0  0
  8 27  1  0  0  0  0
  9 28  1  0  0  0  0
  9 29  1  0  0  0  0
 10 30  1  0  0  0  0
 10 31  1  0  0  0  0
 12 32  1  0  0  0  0
 13 33  1  0  0  0  0
 14 34  1  0  0  0  0
 16 35  1  0  0  0  0
  2 18  1  0  0  0  0
M  CHG  1  16   1
M  RGP  1  18   1
M  END
$$$$
