@<TRIPOS>MOLECULE
LIG(A-1101)
   26    27     0     0     0
SMALL
USER_CHARGES

@<TRIPOS>ATOM
      1 C1          9.6720    1.8000   22.1790 C.2       1 LIG1101     0.6686
      2 C2          9.2940    1.1390   23.5470 C.3       1 LIG1101    -0.1276
      3 C3          7.9700    1.0510   23.7080 C.3       1 LIG1101    -0.0701
      4 C4          7.5690   -0.4550   23.2930 C.3       1 LIG1101    -0.0757
      5 C5          8.9320   -1.1540   22.9450 C.3       1 LIG1101    -0.0764
      6 C6          9.8620   -0.4260   23.6200 C.3       1 LIG1101     0.0134
      7 C7         11.2840   -0.5170   23.0130 C.2       1 LIG1101    -0.1052
      8 C8         12.2970    0.4000   23.3860 C.2       1 LIG1101    -0.1621
      9 C9         13.5470    0.1850   22.7540 C.2       1 LIG1101    -0.1680
     10 C10        11.6510   -1.5120   22.0850 C.2       1 LIG1101    -0.1506
     11 N1         10.4680    3.0350   22.1810 N.am      1 LIG1101    -0.6751
     12 O1          9.3290    1.3030   21.1260 O.2       1 LIG1101    -0.6099
     13 S1         13.3390   -1.2060   21.7110 S.3       1 LIG1101     0.0214
     14 H1          9.7739    1.7054   24.3587 H         1 LIG1101     0.0535
     15 H2          7.6992    1.2431   24.7567 H         1 LIG1101     0.0514
     16 H3          7.4573    1.7755   23.0583 H         1 LIG1101     0.0514
     17 H4          7.0733   -0.9683   24.1302 H         1 LIG1101     0.0456
     18 H5          6.9017   -0.4509   22.4186 H         1 LIG1101     0.0456
     19 H6          8.9324   -2.1998   23.2860 H         1 LIG1101     0.0560
     20 H7          9.1218   -1.1214   21.8620 H         1 LIG1101     0.0560
     21 H8          9.9088   -0.7120   24.6811 H         1 LIG1101     0.0589
     22 H9         12.1303    1.1980   24.0944 H         1 LIG1101     0.1440
     23 H10        14.4487    0.7640   22.8888 H         1 LIG1101     0.1691
     24 H11        11.0255   -2.2976   21.6874 H         1 LIG1101     0.1758
     25 H12        10.7263    3.4648   21.3158 H         1 LIG1101     0.3050
     26 H13        10.7514    3.4458   23.0476 H         1 LIG1101     0.3050
@<TRIPOS>BOND
     1    1    2 1
     2    1   11 am
     3    1   12 2
     4    2    3 1
     5    2    6 1
     6    3    4 1
     7    4    5 1
     8    5    6 1
     9    6    7 1
    10    7    8 1
    11    7   10 2
    12    8    9 2
    13    9   13 1
    14   10   13 1
    15    2   14 1
    16    3   15 1
    17    3   16 1
    18    4   17 1
    19    4   18 1
    20    5   19 1
    21    5   20 1
    22    6   21 1
    23    8   22 1
    24    9   23 1
    25   10   24 1
    26   11   25 1
    27   11   26 1
