@<TRIPOS>MOLECULE
LIG(A-1101)
   35    36     0     0     0
SMALL
USER_CHARGES

@<TRIPOS>ATOM
      1 C1         22.5570   14.9480    8.3120 C.3       1 LIG1101    -0.1263
      2 C2         21.4330   14.8650    7.2810 C.3       1 LIG1101     0.1429
      3 C3         20.7200   13.5250    7.5300 C.3       1 LIG1101     0.1221
      4 C4         21.1900   12.4260    6.7230 C.3       1 LIG1101    -0.1292
      5 C5         22.4950   12.5870    6.1380 C.3       1 LIG1101    -0.0960
      6 C6         22.7180   13.9190    5.4370 C.3       1 LIG1101     0.1104
      7 C7         22.5980   16.0880    5.7470 C.3       1 LIG1101     0.1717
      8 C8         21.7920   17.3520    5.4460 C.ar      1 LIG1101    -0.1811
      9 C9         21.4120   17.6070    4.1340 C.ar      1 LIG1101    -0.1013
     10 C10        20.7000   18.7590    3.8280 C.ar      1 LIG1101    -0.1171
     11 C11        20.3810   19.6630    4.8310 C.ar      1 LIG1101    -0.0799
     12 C12        20.7680   19.4190    6.1420 C.ar      1 LIG1101    -0.1171
     13 C13        21.4840   18.2670    6.4500 C.ar      1 LIG1101    -0.1013
     14 N1         21.9500   15.0480    5.9310 N.4       1 LIG1101    -0.6894
     15 O1         19.3510   13.7170    7.2990 O.3       1 LIG1101    -0.6118
     16 H1         23.1059   15.8923    8.1816 H         1 LIG1101     0.0732
     17 H2         22.1291   14.9096    9.3246 H         1 LIG1101     0.0732
     18 H3         23.2455   14.1015    8.1726 H         1 LIG1101     0.0732
     19 H4         20.7165   15.6710    7.4975 H         1 LIG1101     0.1292
     20 H5         20.8710   13.2677    8.5888 H         1 LIG1101     0.0789
     21 H6         21.2141   11.5281    7.3580 H         1 LIG1101     0.0831
     22 H7         20.4702   12.2772    5.9047 H         1 LIG1101     0.0831
     23 H8         23.2434   12.4917    6.9385 H         1 LIG1101     0.0854
     24 H9         22.6417   11.7834    5.4013 H         1 LIG1101     0.0854
     25 H10        23.7841   14.1726    5.5327 H         1 LIG1101     0.0962
     26 H11        22.4672   13.7835    4.3746 H         1 LIG1101     0.0962
     27 H12        23.2750   15.9136    4.8977 H         1 LIG1101     0.1013
     28 H13        23.1897   16.2776    6.6547 H         1 LIG1101     0.1013
     29 H14        21.6706   16.9087    3.3518 H         1 LIG1101     0.1354
     30 H15        20.3947   18.9513    2.8100 H         1 LIG1101     0.1580
     31 H16        19.8295   20.5600    4.5911 H         1 LIG1101     0.1596
     32 H17        20.5135   20.1224    6.9211 H         1 LIG1101     0.1580
     33 H18        21.8006   18.0823    7.4659 H         1 LIG1101     0.1354
     34 H19        21.1396   15.0867    5.3464 H         1 LIG1101     0.4599
     35 H20        18.8573   13.0284    7.7287 H         1 LIG1101     0.4375
@<TRIPOS>BOND
     1    1    2 1
     2    2    3 1
     3    2   14 1
     4    3    4 1
     5    3   15 1
     6    4    5 1
     7    5    6 1
     8    6   14 1
     9    7    8 1
    10    7   14 1
    11    8    9 ar
    12    8   13 ar
    13    9   10 ar
    14   10   11 ar
    15   11   12 ar
    16   12   13 ar
    17    1   16 1
    18    1   17 1
    19    1   18 1
    20    2   19 1
    21    3   20 1
    22    4   21 1
    23    4   22 1
    24    5   23 1
    25    5   24 1
    26    6   25 1
    27    6   26 1
    28    7   27 1
    29    7   28 1
    30    9   29 1
    31   10   30 1
    32   11   31 1
    33   12   32 1
    34   13   33 1
    35   14   34 1
    36   15   35 1
