LIG(A-1101)
  -OEChem-04292023353D

 28 29  0     0  0  0  0  0  0999 V2000
   21.2800    7.5680   22.4640 N   0  0  0  0  0  0  0  0  0  0  0  0
   21.8130    6.4750   23.1570 C   0  0  0  0  0  0  0  0  0  0  0  0
   22.3330    2.1170   25.8910 O   0  0  0  0  0  0  0  0  0  0  0  0
   21.4340    6.2590   24.5220 C   0  0  0  0  0  0  0  0  0  0  0  0
   25.9040    5.5920   28.9530 C   0  0  0  0  0  0  0  0  0  0  0  0
   21.9770    5.1910   25.2480 C   0  0  0  0  0  0  0  0  0  0  0  0
   22.8930    4.2680   24.6920 C   0  0  0  0  0  0  0  0  0  0  0  0
   23.2590    4.5140   23.3220 C   0  0  0  0  0  0  0  0  0  0  0  0
   22.7470    5.5740   22.5630 C   0  0  0  0  0  0  0  0  0  0  0  0
   24.9860    4.3120   27.2420 C   0  0  0  0  0  0  0  0  0  0  0  0
   25.7320    4.9300   26.2430 C   0  0  0  0  0  0  0  0  0  0  0  0
   26.5870    5.9160   26.6700 C   0  0  0  0  0  0  0  0  0  0  0  0
   26.6870    6.2620   28.0160 C   0  0  0  0  0  0  0  0  0  0  0  0
   24.0100    3.4090   27.0110 N   0  0  0  0  0  0  0  0  0  0  0  0
   25.0600    4.6130   28.6080 N   0  0  0  0  0  0  0  0  0  0  0  0
   24.4960    2.3670   24.7460 O   0  0  0  0  0  0  0  0  0  0  0  0
   23.4510    2.9160   25.5040 S   0  0  0  0  0  0  0  0  0  0  0  0
   20.6661    8.0781   23.0665 H   0  0  0  0  0  0  0  0  0  0  0  0
   20.7701    7.2421   21.6679 H   0  0  0  0  0  0  0  0  0  0  0  0
   20.7255    6.9236   24.9939 H   0  0  0  0  0  0  0  0  0  0  0  0
   25.9808    5.8723   29.9932 H   0  0  0  0  0  0  0  0  0  0  0  0
   21.6826    5.0668   26.2796 H   0  0  0  0  0  0  0  0  0  0  0  0
   23.9664    3.8454   22.8541 H   0  0  0  0  0  0  0  0  0  0  0  0
   23.0563    5.7084   21.5370 H   0  0  0  0  0  0  0  0  0  0  0  0
   25.6445    4.6530   25.2028 H   0  0  0  0  0  0  0  0  0  0  0  0
   27.1964    6.4356   25.9454 H   0  0  0  0  0  0  0  0  0  0  0  0
   27.3650    7.0420   28.3296 H   0  0  0  0  0  0  0  0  0  0  0  0
   23.9767    2.6833   27.6982 H   0  0  0  0  0  0  0  0  0  0  0  0
  1  2  1  0  0  0  0
  2  4  2  0  0  0  0
  2  9  1  0  0  0  0
  3 17  2  0  0  0  0
  4  6  1  0  0  0  0
  5 13  1  0  0  0  0
  5 15  2  0  0  0  0
  6  7  2  0  0  0  0
  7  8  1  0  0  0  0
  7 17  1  0  0  0  0
  8  9  2  0  0  0  0
 10 11  2  0  0  0  0
 10 14  1  0  0  0  0
 10 15  1  0  0  0  0
 11 12  1  0  0  0  0
 12 13  2  0  0  0  0
 14 17  1  0  0  0  0
 16 17  2  0  0  0  0
  1 18  1  0  0  0  0
  1 19  1  0  0  0  0
  4 20  1  0  0  0  0
  5 21  1  0  0  0  0
  6 22  1  0  0  0  0
  8 23  1  0  0  0  0
  9 24  1  0  0  0  0
 11 25  1  0  0  0  0
 12 26  1  0  0  0  0
 13 27  1  0  0  0  0
 14 28  1  0  0  0  0
M  END
$$$$
