LIG(A-1101)
  -OEChem-04032019403D

 29 30  0     0  0  0  0  0  0999 V2000
    9.3330   -4.9600   26.4820 C   0  0  0  0  0  0  0  0  0  0  0  0
   10.5690   -4.8110   25.7560 C   0  0  0  0  0  0  0  0  0  0  0  0
   10.8100   -3.4010   25.2070 C   0  0  0  0  0  0  0  0  0  0  0  0
    9.8600   -1.6280   24.1990 C   0  0  0  0  0  0  0  0  0  0  0  0
   11.2350   -1.2740   23.6150 C   0  0  0  0  0  0  0  0  0  0  0  0
   12.1490   -0.1720   24.1440 C   0  0  0  0  0  0  0  0  0  0  0  0
   13.3560   -0.1220   23.3700 C   0  0  0  0  0  0  0  0  0  0  0  0
   11.8670   -1.9130   22.5000 C   0  0  0  0  0  0  0  0  0  0  0  0
    8.4890   -2.9630   25.2840 C   0  0  0  0  0  0  0  0  0  0  0  0
    8.2300   -4.4000   25.7450 C   0  0  0  0  0  0  0  0  0  0  0  0
    9.6990   -2.8170   24.4950 N   0  3  0  0  0  0  0  0  0  0  0  0
    9.4650   -4.3700   27.7520 O   0  0  0  0  0  0  0  0  0  0  0  0
   13.3110   -1.2460   22.2080 S   0  0  0  0  0  0  0  0  0  0  0  0
    9.1434   -6.0354   26.6147 H   0  0  0  0  0  0  0  0  0  0  0  0
   11.3988   -5.0642   26.4323 H   0  0  0  0  0  0  0  0  0  0  0  0
   10.5585   -5.5134   24.9096 H   0  0  0  0  0  0  0  0  0  0  0  0
   11.0535   -2.7435   26.0546 H   0  0  0  0  0  0  0  0  0  0  0  0
   11.6678   -3.4461   24.5198 H   0  0  0  0  0  0  0  0  0  0  0  0
    9.7140   -1.0289   25.1099 H   0  0  0  0  0  0  0  0  0  0  0  0
    9.0958   -1.3571   23.4556 H   0  0  0  0  0  0  0  0  0  0  0  0
   11.9208    0.4749   24.9782 H   0  0  0  0  0  0  0  0  0  0  0  0
   14.1730    0.5640   23.5383 H   0  0  0  0  0  0  0  0  0  0  0  0
   11.4390   -2.7267   21.9333 H   0  0  0  0  0  0  0  0  0  0  0  0
    7.6344   -2.6334   24.6750 H   0  0  0  0  0  0  0  0  0  0  0  0
    8.5741   -2.3219   26.1738 H   0  0  0  0  0  0  0  0  0  0  0  0
    7.3383   -4.4065   26.3890 H   0  0  0  0  0  0  0  0  0  0  0  0
    8.0467   -5.0252   24.8587 H   0  0  0  0  0  0  0  0  0  0  0  0
    9.5692   -3.3587   23.6645 H   0  0  0  0  0  0  0  0  0  0  0  0
    9.7502   -5.0252   28.3780 H   0  0  0  0  0  0  0  0  0  0  0  0
  1  2  1  0  0  0  0
  1 10  1  0  0  0  0
  1 12  1  0  0  0  0
  2  3  1  0  0  0  0
  3 11  1  0  0  0  0
  4  5  1  0  0  0  0
  4 11  1  0  0  0  0
  5  6  1  0  0  0  0
  5  8  2  0  0  0  0
  6  7  2  0  0  0  0
  7 13  1  0  0  0  0
  8 13  1  0  0  0  0
  9 10  1  0  0  0  0
  9 11  1  0  0  0  0
  1 14  1  0  0  0  0
  2 15  1  0  0  0  0
  2 16  1  0  0  0  0
  3 17  1  0  0  0  0
  3 18  1  0  0  0  0
  4 19  1  0  0  0  0
  4 20  1  0  0  0  0
  6 21  1  0  0  0  0
  7 22  1  0  0  0  0
  8 23  1  0  0  0  0
  9 24  1  0  0  0  0
  9 25  1  0  0  0  0
 10 26  1  0  0  0  0
 10 27  1  0  0  0  0
 11 28  1  0  0  0  0
 12 29  1  0  0  0  0
M  CHG  1  11   1
M  END
$$$$
