@<TRIPOS>MOLECULE
LIG(A-1101)
   29    30     0     0     0
SMALL
USER_CHARGES

@<TRIPOS>ATOM
      1 N1         22.4840  -22.6120   19.6820 N.am      1 LIG1101    -0.4256
      2 C1         24.9160  -20.0150   19.8210 C.3       1 LIG1101     0.1385
      3 O1         23.8160  -20.8430   20.1010 O.3       1 LIG1101    -0.4499
      4 C2         23.5820  -21.9090   19.2580 C.2       1 LIG1101     0.7447
      5 C3         21.3690  -21.8690   14.4910 C.ar      1 LIG1101    -0.1352
      6 C4         21.6370  -22.8920   15.4090 C.ar      1 LIG1101    -0.0992
      7 C5         22.0330  -23.7430   19.0280 C.2       1 LIG1101    -0.0518
      8 C6         21.2870  -25.9290   18.2920 C.2       1 LIG1101     0.4120
      9 C7         20.8970  -27.3500   18.2000 C.3       1 LIG1101    -0.1346
     10 C8         21.5310  -23.7970   17.7200 C.2       1 LIG1101     0.4130
     11 C9         21.3390  -22.6980   16.7660 C.ar      1 LIG1101    -0.1237
     12 C10        20.7920  -21.4840   17.1990 C.ar      1 LIG1101    -0.0992
     13 C11        20.5270  -20.4650   16.2770 C.ar      1 LIG1101    -0.1352
     14 C12        20.8120  -20.6560   14.9240 C.ar      1 LIG1101    -0.1195
     15 N2         21.1100  -25.0750   17.3150 N.2       1 LIG1101    -0.6290
     16 O2         24.2580  -22.1550   18.2810 O.2       1 LIG1101    -0.5482
     17 S1         21.9830  -25.2860   19.7660 S.3       1 LIG1101    -0.1130
     18 H1         21.9921  -22.2953   20.4930 H         1 LIG1101     0.3367
     19 H2         24.9742  -19.2147   20.5735 H         1 LIG1101     0.0536
     20 H3         25.8399  -20.6114   19.8480 H         1 LIG1101     0.0536
     21 H4         24.7954  -19.5707   18.8220 H         1 LIG1101     0.0536
     22 H5         21.5922  -22.0144   13.4444 H         1 LIG1101     0.1330
     23 H6         22.0699  -23.8233   15.0748 H         1 LIG1101     0.1370
     24 H7         21.4401  -27.8269   17.3707 H         1 LIG1101     0.0620
     25 H8         21.1456  -27.8601   19.1423 H         1 LIG1101     0.0620
     26 H9         19.8144  -27.4220   18.0186 H         1 LIG1101     0.0620
     27 H10        20.5742  -21.3337   18.2461 H         1 LIG1101     0.1370
     28 H11        20.1019  -19.5306   16.6125 H         1 LIG1101     0.1330
     29 H12        20.6042  -19.8714   14.2115 H         1 LIG1101     0.1322
@<TRIPOS>BOND
     1    1    4 am
     2    1    7 1
     3    2    3 1
     4    3    4 1
     5    4   16 2
     6    5    6 ar
     7    5   14 ar
     8    6   11 ar
     9    7   10 2
    10    7   17 1
    11    8    9 1
    12    8   15 2
    13    8   17 1
    14   10   11 1
    15   10   15 1
    16   11   12 ar
    17   12   13 ar
    18   13   14 ar
    19    1   18 1
    20    2   19 1
    21    2   20 1
    22    2   21 1
    23    5   22 1
    24    6   23 1
    25    9   24 1
    26    9   25 1
    27    9   26 1
    28   12   27 1
    29   13   28 1
    30   14   29 1
