LIG(A-1101)
  -OEChem-04162022353D

 39 40  0     0  0  0  0  0  0999 V2000
    3.3660    2.2080   23.4360 C   0  0  0  0  0  0  0  0  0  0  0  0
    5.6270    1.4350   22.5990 C   0  0  0  0  0  0  0  0  0  0  0  0
    5.2800    0.2110   21.7560 C   0  0  0  0  0  0  0  0  0  0  0  0
    5.6920    0.3350   20.2900 C   0  0  0  0  0  0  0  0  0  0  0  0
    6.7500   -0.4410   19.8130 C   0  0  0  0  0  0  0  0  0  0  0  0
    7.1190   -0.3200   18.4800 C   0  0  0  0  0  0  0  0  0  0  0  0
    5.4580    1.2450   18.1040 C   0  0  0  0  0  0  0  0  0  0  0  0
    5.0200    1.2020   19.4240 C   0  0  0  0  0  0  0  0  0  0  0  0
    1.1050    3.2090   24.0690 C   0  0  0  0  0  0  0  0  0  0  0  0
    1.0150    4.6460   24.5900 C   0  0  0  0  0  0  0  0  0  0  0  0
   -0.2970    4.9040   25.3140 C   0  0  0  0  0  0  0  0  0  0  0  0
   -1.4780    4.6080   24.4000 C   0  0  0  0  0  0  0  0  0  0  0  0
   -1.4420    3.1800   23.8710 C   0  0  0  0  0  0  0  0  0  0  0  0
   -0.1000    2.8180   23.2260 C   0  0  0  0  0  0  0  0  0  0  0  0
    4.5010    2.3410   22.5380 N   0  0  0  0  0  0  0  0  0  0  0  0
    6.4810    0.5020   17.6780 N   0  0  0  0  0  0  0  0  0  0  0  0
    2.2940    3.1640   23.2440 N   0  0  0  0  0  0  0  0  0  0  0  0
    3.3300    1.3580   24.2760 O   0  0  0  0  0  0  0  0  0  0  0  0
    5.8098    1.1334   23.6409 H   0  0  0  0  0  0  0  0  0  0  0  0
    6.5254    1.9255   22.1962 H   0  0  0  0  0  0  0  0  0  0  0  0
    5.7904   -0.6629   22.1870 H   0  0  0  0  0  0  0  0  0  0  0  0
    4.1916    0.0578   21.7986 H   0  0  0  0  0  0  0  0  0  0  0  0
    7.2716   -1.1226   20.4686 H   0  0  0  0  0  0  0  0  0  0  0  0
    7.9401   -0.9085   18.0980 H   0  0  0  0  0  0  0  0  0  0  0  0
    4.9561    1.8977   17.4051 H   0  0  0  0  0  0  0  0  0  0  0  0
    4.1965    1.8121   19.7646 H   0  0  0  0  0  0  0  0  0  0  0  0
    1.1986    2.5175   24.9193 H   0  0  0  0  0  0  0  0  0  0  0  0
    1.8471    4.8247   25.2869 H   0  0  0  0  0  0  0  0  0  0  0  0
    1.0941    5.3387   23.7391 H   0  0  0  0  0  0  0  0  0  0  0  0
   -0.3544    4.2559   26.2009 H   0  0  0  0  0  0  0  0  0  0  0  0
   -0.3366    5.9579   25.6267 H   0  0  0  0  0  0  0  0  0  0  0  0
   -2.4105    4.7548   24.9648 H   0  0  0  0  0  0  0  0  0  0  0  0
   -1.4518    5.3037   23.5483 H   0  0  0  0  0  0  0  0  0  0  0  0
   -1.6267    2.4906   24.7080 H   0  0  0  0  0  0  0  0  0  0  0  0
   -2.2359    3.0641   23.1185 H   0  0  0  0  0  0  0  0  0  0  0  0
   -0.0736    1.7302   23.0647 H   0  0  0  0  0  0  0  0  0  0  0  0
   -0.0291    3.3341   22.2572 H   0  0  0  0  0  0  0  0  0  0  0  0
    4.5036    3.0771   21.8612 H   0  0  0  0  0  0  0  0  0  0  0  0
    2.3801    3.8285   22.5017 H   0  0  0  0  0  0  0  0  0  0  0  0
  1 15  1  0  0  0  0
  1 17  1  0  0  0  0
  1 18  2  0  0  0  0
  2  3  1  0  0  0  0
  2 15  1  0  0  0  0
  3  4  1  0  0  0  0
  4  5  2  0  0  0  0
  4  8  1  0  0  0  0
  5  6  1  0  0  0  0
  6 16  2  0  0  0  0
  7  8  2  0  0  0  0
  7 16  1  0  0  0  0
  9 10  1  0  0  0  0
  9 14  1  0  0  0  0
  9 17  1  0  0  0  0
 10 11  1  0  0  0  0
 11 12  1  0  0  0  0
 12 13  1  0  0  0  0
 13 14  1  0  0  0  0
  2 19  1  0  0  0  0
  2 20  1  0  0  0  0
  3 21  1  0  0  0  0
  3 22  1  0  0  0  0
  5 23  1  0  0  0  0
  6 24  1  0  0  0  0
  7 25  1  0  0  0  0
  8 26  1  0  0  0  0
  9 27  1  0  0  0  0
 10 28  1  0  0  0  0
 10 29  1  0  0  0  0
 11 30  1  0  0  0  0
 11 31  1  0  0  0  0
 12 32  1  0  0  0  0
 12 33  1  0  0  0  0
 13 34  1  0  0  0  0
 13 35  1  0  0  0  0
 14 36  1  0  0  0  0
 14 37  1  0  0  0  0
 15 38  1  0  0  0  0
 17 39  1  0  0  0  0
M  END
$$$$
