@<TRIPOS>MOLECULE
LIG(A-1101)
   32    33     0     0     0
SMALL
USER_CHARGES

@<TRIPOS>ATOM
      1 N1          6.8280   -2.7170   20.9090 N.am      1 LIG1101    -0.5116
      2 C1          7.1000   -2.5280   18.4610 C.3       1 LIG1101    -0.0900
      3 O1          5.7550   -4.1580   19.5520 O.2       1 LIG1101    -0.5533
      4 C2          6.4960   -3.1870   19.6870 C.2       1 LIG1101     0.6734
      5 C3          7.6700   -1.5520   21.1940 C.3       1 LIG1101     0.0765
      6 C4          6.3900   -3.3620   22.1430 C.3       1 LIG1101     0.0765
      7 C5          7.5990   -3.7790   22.9450 C.3       1 LIG1101     0.0840
      8 C6          9.5900   -3.0230   24.0960 C.3       1 LIG1101     0.2214
      9 C7          9.2910   -4.1110   25.0820 C.2       1 LIG1101    -0.2620
     10 C8          9.7470   -5.4240   25.0500 C.2       1 LIG1101    -0.0772
     11 C9          9.4300   -6.1510   26.2210 C.2       1 LIG1101    -0.1555
     12 C10         8.5330   -5.4500   27.0160 C.2       1 LIG1101     0.0181
     13 C11         8.8520   -1.9520   22.0510 C.3       1 LIG1101     0.0840
     14 N2          8.4260   -2.6180   23.2870 N.4       1 LIG1101    -0.6892
     15 S1          8.2710   -3.8500   26.4530 S.3       1 LIG1101     0.0825
     16 Cl1         7.7100   -6.0260   28.4080 Cl        1 LIG1101     0.0370
     17 H1          6.4737   -2.7358   17.5809 H         1 LIG1101     0.0820
     18 H2          7.1641   -1.4410   18.6170 H         1 LIG1101     0.0820
     19 H3          8.0358   -1.1288   20.2469 H         1 LIG1101     0.0937
     20 H4          7.0747   -0.7964   21.7276 H         1 LIG1101     0.0937
     21 H5          5.7844   -2.6568   22.7312 H         1 LIG1101     0.0937
     22 H6          5.7867   -4.2491   21.8997 H         1 LIG1101     0.0937
     23 H7          7.2650   -4.2687   23.8716 H         1 LIG1101     0.1088
     24 H8          8.1981   -4.4858   22.3521 H         1 LIG1101     0.1088
     25 H9          9.9513   -2.1433   24.6489 H         1 LIG1101     0.1049
     26 H10        10.3785   -3.3780   23.4161 H         1 LIG1101     0.1049
     27 H11        10.2881   -5.8458   24.2159 H         1 LIG1101     0.1697
     28 H12         9.8325   -7.1231   26.4647 H         1 LIG1101     0.1929
     29 H13         9.4914   -2.6395   21.4778 H         1 LIG1101     0.1088
     30 H14         9.4249   -1.0498   22.3115 H         1 LIG1101     0.1088
     31 H15         7.8740   -1.9779   23.8214 H         1 LIG1101     0.4391
     32 Du1         8.7580   -3.2080   18.2060 Du        1 LIG1101     0.0000
@<TRIPOS>BOND
     1    1    4 am
     2    1    5 1
     3    1    6 1
     4    2    4 1
     5    3    4 2
     6    5   13 1
     7    6    7 1
     8    7   14 1
     9    8    9 1
    10    8   14 1
    11    9   10 2
    12    9   15 1
    13   10   11 1
    14   11   12 2
    15   12   15 1
    16   12   16 1
    17   13   14 1
    18    2   17 1
    19    2   18 1
    20    5   19 1
    21    5   20 1
    22    6   21 1
    23    6   22 1
    24    7   23 1
    25    7   24 1
    26    8   25 1
    27    8   26 1
    28   10   27 1
    29   11   28 1
    30   13   29 1
    31   13   30 1
    32   14   31 1
    33    2   32 1
