LIG(A-1101)
  -OEChem-04162022273D

 41 43  0     0  0  0  0  0  0999 V2000
    6.8830   -2.1700   20.8180 N   0  0  0  0  0  0  0  0  0  0  0  0
    8.3440   -3.0280   19.1560 C   0  0  0  0  0  0  0  0  0  0  0  0
    5.9820   -3.3830   19.1230 O   0  0  0  0  0  0  0  0  0  0  0  0
    6.9520   -2.8770   19.6780 C   0  0  0  0  0  0  0  0  0  0  0  0
   12.0090    2.0390   24.6280 C   0  0  0  0  0  0  0  0  0  0  0  0
   10.9990    2.3060   25.4940 C   0  0  0  0  0  0  0  0  0  0  0  0
   10.0070    1.3490   25.7480 C   0  0  0  0  0  0  0  0  0  0  0  0
   10.0300    0.1500   25.1030 C   0  0  0  0  0  0  0  0  0  0  0  0
   11.0560   -0.1680   24.1750 C   0  0  0  0  0  0  0  0  0  0  0  0
    7.9840   -3.2860   22.7300 C   0  0  0  0  0  0  0  0  0  0  0  0
    6.6770   -2.9150   22.0620 C   0  0  0  0  0  0  0  0  0  0  0  0
    7.8380   -1.0640   20.9480 C   0  0  0  0  0  0  0  0  0  0  0  0
    9.1040   -1.4560   21.6840 C   0  0  0  0  0  0  0  0  0  0  0  0
   10.0380   -2.4410   23.6830 C   0  0  0  0  0  0  0  0  0  0  0  0
   11.1220   -1.4100   23.4820 C   0  0  0  0  0  0  0  0  0  0  0  0
   12.1410   -1.6220   22.5880 C   0  0  0  0  0  0  0  0  0  0  0  0
   13.1440   -0.6630   22.3680 C   0  0  0  0  0  0  0  0  0  0  0  0
   13.1080    0.5210   23.0270 C   0  0  0  0  0  0  0  0  0  0  0  0
   12.0670    0.8060   23.9410 C   0  0  0  0  0  0  0  0  0  0  0  0
    8.8040   -2.1000   22.9650 N   0  3  0  0  0  0  0  0  0  0  0  0
    9.0390   -3.2560   17.5180 R#  0  0  0  0  0  0  0  0  0  0  0  0
    8.8444   -2.1162   19.5140 H   0  0  0  0  0  0  0  0  0  0  0  0
    8.7252   -3.8976   19.7114 H   0  0  0  0  0  0  0  0  0  0  0  0
   12.7783    2.7786   24.4619 H   0  0  0  0  0  0  0  0  0  0  0  0
   10.9592    3.2637   25.9916 H   0  0  0  0  0  0  0  0  0  0  0  0
    9.2217    1.5633   26.4577 H   0  0  0  0  0  0  0  0  0  0  0  0
    9.2526   -0.5730   25.3013 H   0  0  0  0  0  0  0  0  0  0  0  0
    7.7708   -3.7731   23.6929 H   0  0  0  0  0  0  0  0  0  0  0  0
    8.5353   -3.9823   22.0810 H   0  0  0  0  0  0  0  0  0  0  0  0
    6.0895   -2.2935   22.7539 H   0  0  0  0  0  0  0  0  0  0  0  0
    6.1212   -3.8367   21.8350 H   0  0  0  0  0  0  0  0  0  0  0  0
    8.1116   -0.7173   19.9406 H   0  0  0  0  0  0  0  0  0  0  0  0
    7.3523   -0.2447   21.4984 H   0  0  0  0  0  0  0  0  0  0  0  0
    9.6788   -2.1550   21.0587 H   0  0  0  0  0  0  0  0  0  0  0  0
    9.7033   -0.5526   21.8701 H   0  0  0  0  0  0  0  0  0  0  0  0
   10.4023   -3.4128   23.3184 H   0  0  0  0  0  0  0  0  0  0  0  0
    9.8135   -2.5132   24.7574 H   0  0  0  0  0  0  0  0  0  0  0  0
   12.1730   -2.5512   22.0385 H   0  0  0  0  0  0  0  0  0  0  0  0
   13.9445   -0.8694   21.6731 H   0  0  0  0  0  0  0  0  0  0  0  0
   13.8818    1.2539   22.8524 H   0  0  0  0  0  0  0  0  0  0  0  0
    8.2801   -1.4588   23.5257 H   0  0  0  0  0  0  0  0  0  0  0  0
  1  4  1  0  0  0  0
  1 11  1  0  0  0  0
  1 12  1  0  0  0  0
  2  4  1  0  0  0  0
  3  4  2  0  0  0  0
  5  6  2  0  0  0  0
  5 19  1  0  0  0  0
  6  7  1  0  0  0  0
  7  8  2  0  0  0  0
  8  9  1  0  0  0  0
  9 15  2  0  0  0  0
  9 19  1  0  0  0  0
 10 11  1  0  0  0  0
 10 20  1  0  0  0  0
 12 13  1  0  0  0  0
 13 20  1  0  0  0  0
 14 15  1  0  0  0  0
 14 20  1  0  0  0  0
 15 16  1  0  0  0  0
 16 17  2  0  0  0  0
 17 18  1  0  0  0  0
 18 19  2  0  0  0  0
  2 22  1  0  0  0  0
  2 23  1  0  0  0  0
  5 24  1  0  0  0  0
  6 25  1  0  0  0  0
  7 26  1  0  0  0  0
  8 27  1  0  0  0  0
 10 28  1  0  0  0  0
 10 29  1  0  0  0  0
 11 30  1  0  0  0  0
 11 31  1  0  0  0  0
 12 32  1  0  0  0  0
 12 33  1  0  0  0  0
 13 34  1  0  0  0  0
 13 35  1  0  0  0  0
 14 36  1  0  0  0  0
 14 37  1  0  0  0  0
 16 38  1  0  0  0  0
 17 39  1  0  0  0  0
 18 40  1  0  0  0  0
 20 41  1  0  0  0  0
  2 21  1  0  0  0  0
M  CHG  1  20   1
M  RGP  1  21   1
M  END
$$$$
