@<TRIPOS>MOLECULE
LIG(A-1101)
   32    31     0     0     0
SMALL
USER_CHARGES

@<TRIPOS>ATOM
      1 C1          2.1650   -8.0610   24.6500 C.3       1 LIG1101    -0.0926
      2 C2          3.2890   -7.0590   24.4950 C.3       1 LIG1101     0.1283
      3 C3          3.2780   -6.3420   23.1300 C.3       1 LIG1101     0.0150
      4 C4          0.9670   -5.8410   22.4420 C.2       1 LIG1101     0.6643
      5 C5         -0.1750   -4.8790   22.5500 C.3       1 LIG1101    -0.1732
      6 C6          4.5350   -5.4950   22.9010 C.2       1 LIG1101     0.6353
      7 C7          6.7640   -5.3030   21.8730 C.3       1 LIG1101     0.0871
      8 C8          6.8720   -4.8540   20.4580 C.3       1 LIG1101    -0.0571
      9 C9          6.0530   -5.3240   19.5760 C.3       1 LIG1101    -0.0566
     10 N1          2.1060   -5.4820   23.0410 N.am      1 LIG1101    -0.5774
     11 N2          5.5330   -6.0320   22.1850 N.am      1 LIG1101    -0.5514
     12 O1          4.5450   -7.7160   24.6770 O.3       1 LIG1101    -0.5960
     13 O2          0.8580   -6.9000   21.8250 O.2       1 LIG1101    -0.6090
     14 O3          4.5830   -4.3590   23.3660 O.2       1 LIG1101    -0.6203
     15 Du1         7.7770   -4.1310   19.3040 Du        1 LIG1101     0.0000
     16 Du2         7.7770   -4.1310   19.3040 Du        1 LIG1101     0.0000
     17 H1          2.2296   -8.5350   25.6405 H         1 LIG1101     0.0514
     18 H2          1.1982   -7.5453   24.5528 H         1 LIG1101     0.0514
     19 H3          2.2500   -8.8309   23.8690 H         1 LIG1101     0.0514
     20 H4          3.1690   -6.2921   25.2744 H         1 LIG1101     0.0483
     21 H5          3.2284   -7.1068   22.3409 H         1 LIG1101     0.1062
     22 H6         -1.0464   -5.2817   22.0128 H         1 LIG1101     0.0681
     23 H7         -0.4327   -4.7334   23.6094 H         1 LIG1101     0.0681
     24 H8          0.1150   -3.9147   22.1073 H         1 LIG1101     0.0681
     25 H9          7.6180   -5.9611   22.0910 H         1 LIG1101     0.0594
     26 H10         6.8110   -4.4147   22.5201 H         1 LIG1101     0.0594
     27 H11         6.2732   -3.9484   20.6351 H         1 LIG1101     0.0475
     28 H12         6.0458   -6.3914   19.3105 H         1 LIG1101     0.0359
     29 H13         5.0420   -4.9086   19.4524 H         1 LIG1101     0.0359
     30 H14         2.1567   -4.5715   23.4514 H         1 LIG1101     0.3277
     31 H15         5.4327   -6.9689   21.8502 H         1 LIG1101     0.3187
     32 H16         5.1870   -7.0910   24.9929 H         1 LIG1101     0.4061
@<TRIPOS>BOND
     1    1    2 1
     2    2    3 1
     3    2   12 1
     4    3    6 1
     5    3   10 1
     6    4    5 1
     7    4   10 am
     8    4   13 2
     9    6   11 am
    10    6   14 2
    11    7    8 1
    12    7   11 1
    13    8    9 1
    14    8   15 1
    15    9   16 1
    16    1   17 1
    17    1   18 1
    18    1   19 1
    19    2   20 1
    20    3   21 1
    21    5   22 1
    22    5   23 1
    23    5   24 1
    24    7   25 1
    25    7   26 1
    26    8   27 1
    27    9   28 1
    28    9   29 1
    29   10   30 1
    30   11   31 1
    31   12   32 1
