@<TRIPOS>MOLECULE
LIG(A-1101)
   28    29     0     0     0
SMALL
USER_CHARGES

@<TRIPOS>ATOM
      1 N1          4.6520    8.1680   10.7410 N.ar      1 LIG1101    -0.6757
      2 C1          2.0470   10.0730    9.4640 C.3       1 LIG1101     0.1398
      3 O1          1.6470    9.5220   10.6820 O.3       1 LIG1101    -0.5979
      4 C2          3.4080    9.5010    9.0190 C.3       1 LIG1101    -0.1416
      5 C3          3.1890    8.1450    8.3320 C.3       1 LIG1101    -0.0700
      6 C4          4.3580    9.4080   10.2000 C.ar      1 LIG1101     0.4287
      7 C5          5.5300    8.1420   11.7840 C.ar      1 LIG1101     0.4020
      8 C6          6.1340    9.2960   12.3190 C.ar      1 LIG1101    -0.2489
      9 C7          5.8100   10.5320   11.7690 C.ar      1 LIG1101    -0.0905
     10 C8          4.9190   10.6000   10.7110 C.ar      1 LIG1101    -0.2367
     11 C9          3.9910   10.3470    7.8900 C.3       1 LIG1101    -0.0700
     12 C10         3.2260    9.9200    6.6400 C.3       1 LIG1101    -0.0825
     13 C11         2.7170    8.5080    6.9150 C.3       1 LIG1101    -0.0825
     14 H1          1.2917    9.8407    8.6988 H         1 LIG1101     0.0461
     15 H2          2.1340   11.1640    9.5740 H         1 LIG1101     0.0461
     16 H3          1.5459    8.5822   10.5869 H         1 LIG1101     0.4078
     17 H4          4.1267    7.5711    8.2951 H         1 LIG1101     0.0521
     18 H5          2.4216    7.5601    8.8603 H         1 LIG1101     0.0521
     19 H6          5.7750    7.1861   12.2228 H         1 LIG1101     0.0210
     20 H7          6.8336    9.2231   13.1385 H         1 LIG1101     0.1430
     21 H8          6.2513   11.4345   12.1653 H         1 LIG1101     0.1373
     22 H9          4.6555   11.5548   10.2806 H         1 LIG1101     0.1423
     23 H10         3.8373   11.4176    8.0903 H         1 LIG1101     0.0521
     24 H11         5.0662   10.1466    7.7724 H         1 LIG1101     0.0521
     25 H12         2.3817   10.6012    6.4582 H         1 LIG1101     0.0435
     26 H13         3.8931    9.9214    5.7654 H         1 LIG1101     0.0435
     27 H14         3.1362    7.8030    6.1821 H         1 LIG1101     0.0435
     28 H15         1.6186    8.4824    6.8616 H         1 LIG1101     0.0435
@<TRIPOS>BOND
     1    1    6 ar
     2    1    7 ar
     3    2    3 1
     4    2    4 1
     5    4    5 1
     6    4    6 1
     7    4   11 1
     8    5   13 1
     9    6   10 ar
    10    7    8 ar
    11    8    9 ar
    12    9   10 ar
    13   11   12 1
    14   12   13 1
    15    2   14 1
    16    2   15 1
    17    3   16 1
    18    5   17 1
    19    5   18 1
    20    7   19 1
    21    8   20 1
    22    9   21 1
    23   10   22 1
    24   11   23 1
    25   11   24 1
    26   12   25 1
    27   12   26 1
    28   13   27 1
    29   13   28 1
