LIG(A-1101)
  -OEChem-04292023373D

 38 40  0     0  0  0  0  0  0999 V2000
   13.8630   -1.3540   23.5770 C   0  0  0  0  0  0  0  0  0  0  0  0
    5.8880    0.7990   18.7560 C   0  0  0  0  0  0  0  0  0  0  0  0
    4.0960    1.8680   19.6250 C   0  0  0  0  0  0  0  0  0  0  0  0
    4.4630    1.5430   20.9280 C   0  0  0  0  0  0  0  0  0  0  0  0
    5.6120    0.8120   21.1430 C   0  0  0  0  0  0  0  0  0  0  0  0
    6.3570    0.4150   20.0270 C   0  0  0  0  0  0  0  0  0  0  0  0
   11.5960   -1.9060   22.9700 C   0  0  0  0  0  0  0  0  0  0  0  0
   10.1450   -1.5150   23.1150 C   0  0  0  0  0  0  0  0  0  0  0  0
   10.7980    0.8020   23.3390 C   0  0  0  0  0  0  0  0  0  0  0  0
   12.2470    0.3960   23.2120 C   0  0  0  0  0  0  0  0  0  0  0  0
    9.2010    0.1820   21.5600 C   0  0  0  0  0  0  0  0  0  0  0  0
    8.4340   -0.9280   20.8580 C   0  0  0  0  0  0  0  0  0  0  0  0
    7.5590   -0.3320   19.8070 C   0  0  0  0  0  0  0  0  0  0  0  0
    7.7660   -0.3530   18.4600 C   0  0  0  0  0  0  0  0  0  0  0  0
   12.4570   -0.9710   23.6990 N   0  3  0  0  0  0  0  0  0  0  0  0
    9.9630   -0.1540   22.6160 N   0  0  0  0  0  0  0  0  0  0  0  0
    6.7630    0.3290   17.8230 N   0  0  0  0  0  0  0  0  0  0  0  0
    4.7820    1.5220   18.5280 N   0  0  0  0  0  0  0  0  0  0  0  0
    9.1350    1.3380   21.1480 O   0  0  0  0  0  0  0  0  0  0  0  0
   13.9973   -2.3810   23.9474 H   0  0  0  0  0  0  0  0  0  0  0  0
   14.1666   -1.3026   22.5210 H   0  0  0  0  0  0  0  0  0  0  0  0
   14.4831   -0.6662   24.1707 H   0  0  0  0  0  0  0  0  0  0  0  0
    3.1911    2.4416   19.4887 H   0  0  0  0  0  0  0  0  0  0  0  0
    3.8540    1.8602   21.7616 H   0  0  0  0  0  0  0  0  0  0  0  0
    5.9277    0.5535   22.1430 H   0  0  0  0  0  0  0  0  0  0  0  0
   11.7395   -2.9193   23.3734 H   0  0  0  0  0  0  0  0  0  0  0  0
   11.8691   -1.8934   21.9045 H   0  0  0  0  0  0  0  0  0  0  0  0
    9.5175   -2.2070   22.5341 H   0  0  0  0  0  0  0  0  0  0  0  0
    9.8559   -1.5600   24.1754 H   0  0  0  0  0  0  0  0  0  0  0  0
   10.5108    0.8111   24.4008 H   0  0  0  0  0  0  0  0  0  0  0  0
   10.6593    1.8066   22.9130 H   0  0  0  0  0  0  0  0  0  0  0  0
   12.5438    0.4501   22.1542 H   0  0  0  0  0  0  0  0  0  0  0  0
   12.8667    1.0869   23.8025 H   0  0  0  0  0  0  0  0  0  0  0  0
    9.1436   -1.6278   20.3924 H   0  0  0  0  0  0  0  0  0  0  0  0
    7.8146   -1.4669   21.5901 H   0  0  0  0  0  0  0  0  0  0  0  0
    8.5974   -0.8357   17.9678 H   0  0  0  0  0  0  0  0  0  0  0  0
   12.2054   -1.0015   24.6664 H   0  0  0  0  0  0  0  0  0  0  0  0
    6.6856    0.4605   16.8347 H   0  0  0  0  0  0  0  0  0  0  0  0
  1 15  1  0  0  0  0
  2  6  1  0  0  0  0
  2 17  1  0  0  0  0
  2 18  2  0  0  0  0
  3  4  2  0  0  0  0
  3 18  1  0  0  0  0
  4  5  1  0  0  0  0
  5  6  2  0  0  0  0
  6 13  1  0  0  0  0
  7  8  1  0  0  0  0
  7 15  1  0  0  0  0
  8 16  1  0  0  0  0
  9 10  1  0  0  0  0
  9 16  1  0  0  0  0
 10 15  1  0  0  0  0
 11 12  1  0  0  0  0
 11 16  1  0  0  0  0
 11 19  2  0  0  0  0
 12 13  1  0  0  0  0
 13 14  2  0  0  0  0
 14 17  1  0  0  0  0
  1 20  1  0  0  0  0
  1 21  1  0  0  0  0
  1 22  1  0  0  0  0
  3 23  1  0  0  0  0
  4 24  1  0  0  0  0
  5 25  1  0  0  0  0
  7 26  1  0  0  0  0
  7 27  1  0  0  0  0
  8 28  1  0  0  0  0
  8 29  1  0  0  0  0
  9 30  1  0  0  0  0
  9 31  1  0  0  0  0
 10 32  1  0  0  0  0
 10 33  1  0  0  0  0
 12 34  1  0  0  0  0
 12 35  1  0  0  0  0
 14 36  1  0  0  0  0
 15 37  1  0  0  0  0
 17 38  1  0  0  0  0
M  CHG  1  15   1
M  END
$$$$
