@<TRIPOS>MOLECULE
LIG(A-1101)
   34    35     0     0     0
SMALL
USER_CHARGES

@<TRIPOS>ATOM
      1 N1          5.4910   -5.3150   24.3760 N.pl3     1 LIG1101    -0.7908
      2 C1          4.2140   -2.5770   26.0540 C.ar      1 LIG1101     0.2380
      3 O1          5.7950   -5.0800   26.8010 O.2       1 LIG1101    -0.6398
      4 C2          3.3880   -1.4770   26.1030 C.ar      1 LIG1101    -0.1926
      5 C3          6.6430   -4.4330   20.5730 C.2       1 LIG1101     0.6591
      6 C4          7.8190   -3.5260   20.3310 C.3       1 LIG1101    -0.1003
      7 C5          2.0210   -1.6590   26.0000 C.ar      1 LIG1101    -0.0450
      8 C6          1.4860   -2.9190   25.8470 C.ar      1 LIG1101    -0.1690
      9 C7          2.3140   -4.0250   25.7940 C.ar      1 LIG1101    -0.0071
     10 C8          3.6900   -3.8630   25.8940 C.ar      1 LIG1101    -0.4043
     11 C9          6.4480   -4.2370   24.0840 C.3       1 LIG1101     0.1884
     12 C10         7.3480   -4.6760   22.9610 C.3       1 LIG1101     0.0868
     13 C11         5.5840   -6.0800   22.0820 C.3       1 LIG1101     0.0868
     14 C12         4.6710   -5.6580   23.2030 C.3       1 LIG1101     0.1884
     15 F1          5.5490   -2.3870   26.1580 F         1 LIG1101    -0.1297
     16 N2          6.5430   -5.0180   21.7880 N.am      1 LIG1101    -0.4725
     17 O2          3.9240   -6.4370   25.9220 O.2       1 LIG1101    -0.6398
     18 O3          5.8190   -4.6190   19.6880 O.2       1 LIG1101    -0.6066
     19 S1          4.7540   -5.2750   25.8410 S.o2      1 LIG1101     1.4950
     20 H1          3.8015   -0.4862   26.2202 H         1 LIG1101     0.1573
     21 H2          7.5584   -2.5194   20.6899 H         1 LIG1101     0.0676
     22 H3          8.6751   -3.9098   20.9053 H         1 LIG1101     0.0676
     23 H4          1.3646   -0.8023   26.0400 H         1 LIG1101     0.1450
     24 H5          0.4161   -3.0434   25.7682 H         1 LIG1101     0.1470
     25 H6          1.8922   -5.0121   25.6752 H         1 LIG1101     0.1657
     26 H7          5.9024   -3.3293   23.7868 H         1 LIG1101     0.0583
     27 H8          7.0509   -4.0258   24.9795 H         1 LIG1101     0.0583
     28 H9          8.0383   -3.8587   22.7050 H         1 LIG1101     0.0679
     29 H10         7.9248   -5.5573   23.2781 H         1 LIG1101     0.0679
     30 H11         6.1277   -6.9892   22.3784 H         1 LIG1101     0.0679
     31 H12         4.9846   -6.2878   21.1834 H         1 LIG1101     0.0679
     32 H13         4.0844   -4.7809   22.8923 H         1 LIG1101     0.0583
     33 H14         3.9898   -6.4837   23.4563 H         1 LIG1101     0.0583
     34 Du1         8.3120   -3.4000   18.5890 Du        1 LIG1101     0.0000
@<TRIPOS>BOND
     1    1   11 1
     2    1   14 1
     3    1   19 1
     4    2    4 ar
     5    2   10 ar
     6    2   15 1
     7    3   19 2
     8    4    7 ar
     9    5    6 1
    10    5   16 am
    11    5   18 2
    12    7    8 ar
    13    8    9 ar
    14    9   10 ar
    15   10   19 1
    16   11   12 1
    17   12   16 1
    18   13   14 1
    19   13   16 1
    20   17   19 2
    21    4   20 1
    22    6   21 1
    23    6   22 1
    24    7   23 1
    25    8   24 1
    26    9   25 1
    27   11   26 1
    28   11   27 1
    29   12   28 1
    30   12   29 1
    31   13   30 1
    32   13   31 1
    33   14   32 1
    34   14   33 1
    35    6   34 1
