@<TRIPOS>MOLECULE
LIG(A-1101)
   37    38     0     0     0
SMALL
USER_CHARGES

@<TRIPOS>ATOM
      1 N1          6.0560   -5.2800   24.2180 N.pl3     1 LIG1101    -0.7893
      2 C1          0.9880   -1.1520   25.8930 C.3       1 LIG1101    -0.0684
      3 O1          6.4980   -4.8020   26.5850 O.2       1 LIG1101    -0.6468
      4 C2          2.0890   -2.1710   25.8530 C.ar      1 LIG1101    -0.0089
      5 C3          6.6760   -4.0460   23.7090 C.3       1 LIG1101     0.1846
      6 C4          6.4680   -4.6290   20.3360 C.2       1 LIG1101     0.6496
      7 C5          7.0960   -3.3370   19.8890 C.3       1 LIG1101    -0.1024
      8 C6          3.3180   -1.9070   26.4330 C.ar      1 LIG1101    -0.1604
      9 C7          4.3440   -2.8330   26.4060 C.ar      1 LIG1101    -0.0132
     10 C8          4.1400   -4.0520   25.7780 C.ar      1 LIG1101    -0.3909
     11 C9          2.9170   -4.3420   25.1950 C.ar      1 LIG1101    -0.0132
     12 C10         1.9070   -3.3990   25.2360 C.ar      1 LIG1101    -0.1604
     13 C11         5.2670   -5.9550   23.1760 C.3       1 LIG1101     0.1846
     14 C12         6.2020   -6.3350   22.0600 C.3       1 LIG1101     0.0754
     15 C13         7.5840   -4.3890   22.5560 C.3       1 LIG1101     0.0754
     16 N2          6.8470   -5.1330   21.5300 N.am      1 LIG1101    -0.4530
     17 O2          4.8420   -6.5300   25.9650 O.2       1 LIG1101    -0.6468
     18 O3          5.6280   -5.1740   19.6320 O.2       1 LIG1101    -0.5991
     19 S1          5.4390   -5.2520   25.7370 S.o2      1 LIG1101     1.4955
     20 H1          1.3198   -0.2329   25.3879 H         1 LIG1101     0.0537
     21 H2          0.1001   -1.5514   25.3810 H         1 LIG1101     0.0537
     22 H3          0.7366   -0.9248   26.9395 H         1 LIG1101     0.0537
     23 H4          5.8922   -3.3539   23.3673 H         1 LIG1101     0.0554
     24 H5          7.2613   -3.5705   24.5098 H         1 LIG1101     0.0554
     25 H6          6.2949   -2.6987   19.4880 H         1 LIG1101     0.0675
     26 H7          7.5379   -2.8576   20.7749 H         1 LIG1101     0.0675
     27 H8          3.4789   -0.9555   26.9178 H         1 LIG1101     0.1417
     28 H9          5.2938   -2.6094   26.8689 H         1 LIG1101     0.1503
     29 H10         2.7544   -5.2950   24.7135 H         1 LIG1101     0.1503
     30 H11         0.9554   -3.6239   24.7774 H         1 LIG1101     0.1417
     31 H12         4.7944   -6.8574   23.5910 H         1 LIG1101     0.0554
     32 H13         4.4896   -5.2753   22.7969 H         1 LIG1101     0.0554
     33 H14         6.9694   -7.0235   22.4436 H         1 LIG1101     0.0715
     34 H15         5.6336   -6.8293   21.2584 H         1 LIG1101     0.0715
     35 H16         7.9793   -3.4610   22.1172 H         1 LIG1101     0.0715
     36 H17         8.4180   -5.0057   22.9223 H         1 LIG1101     0.0715
     37 Du1         8.3940   -3.4530   18.6210 Du        1 LIG1101     0.0000
@<TRIPOS>BOND
     1    1    5 1
     2    1   13 1
     3    1   19 1
     4    2    4 1
     5    3   19 2
     6    4    8 ar
     7    4   12 ar
     8    5   15 1
     9    6    7 1
    10    6   16 am
    11    6   18 2
    12    8    9 ar
    13    9   10 ar
    14   10   11 ar
    15   10   19 1
    16   11   12 ar
    17   13   14 1
    18   14   16 1
    19   15   16 1
    20   17   19 2
    21    2   20 1
    22    2   21 1
    23    2   22 1
    24    5   23 1
    25    5   24 1
    26    7   25 1
    27    7   26 1
    28    8   27 1
    29    9   28 1
    30   11   29 1
    31   12   30 1
    32   13   31 1
    33   13   32 1
    34   14   33 1
    35   14   34 1
    36   15   35 1
    37   15   36 1
    38    7   37 1
