@<TRIPOS>MOLECULE
LIG(A-1101)
   35    35     0     0     0
SMALL
USER_CHARGES

@<TRIPOS>ATOM
      1 C1          7.7120    4.9760   22.5680 C.3       1 LIG1101    -0.1720
      2 C2          6.9510   -0.2240   20.1690 C.ar      1 LIG1101    -0.0850
      3 C3          9.0430    0.4530   22.3300 C.2       1 LIG1101     0.6415
      4 C4          9.9800   -1.7280   21.8820 C.3       1 LIG1101     0.1681
      5 C5         11.3510   -1.5920   22.3760 C.1       1 LIG1101    -0.1012
      6 C6         12.4580   -1.6420   22.8330 C.1       1 LIG1101    -0.0552
      7 C7          7.2810    3.5960   22.9500 C.2       1 LIG1101     0.6643
      8 C8          7.8660    1.2230   22.9140 C.3       1 LIG1101     0.0661
      9 C9          6.5260    0.5830   22.5150 C.3       1 LIG1101    -0.0505
     10 C10         6.2730    0.6260   21.0280 C.ar      1 LIG1101    -0.1240
     11 C11         5.3860    1.5380   20.4750 C.ar      1 LIG1101    -0.0850
     12 C12         5.1740    1.5990   19.1080 C.ar      1 LIG1101    -0.1843
     13 C13         5.8630    0.7370   18.2730 C.ar      1 LIG1101     0.1261
     14 C14         6.7550   -0.1720   18.8020 C.ar      1 LIG1101    -0.1843
     15 N1          7.9910    2.5940   22.4400 N.am      1 LIG1101    -0.5710
     16 N2          9.0960   -0.8440   22.6110 N.am      1 LIG1101    -0.5660
     17 O1          6.3070    3.3850   23.6640 O.2       1 LIG1101    -0.6183
     18 O2          5.7020    0.7840   16.9300 O.3       1 LIG1101    -0.4969
     19 O3          9.8660    1.0170   21.6110 O.2       1 LIG1101    -0.5938
     20 Br1        14.1800   -1.9250   23.6600 Br        1 LIG1101     0.0007
     21 H1          7.0316    5.7119   23.0214 H         1 LIG1101     0.0678
     22 H2          8.7362    5.1530   22.9282 H         1 LIG1101     0.0678
     23 H3          7.6856    5.0783   21.4731 H         1 LIG1101     0.0678
     24 H4          7.6472   -0.9422   20.5763 H         1 LIG1101     0.1386
     25 H5          9.9516   -1.4697   20.8131 H         1 LIG1101     0.0849
     26 H6          9.6466   -2.7675   22.0170 H         1 LIG1101     0.0849
     27 H7          7.9457    1.2058   24.0110 H         1 LIG1101     0.0759
     28 H8          6.5286   -0.4679   22.8401 H         1 LIG1101     0.0701
     29 H9          5.7141    1.1225   23.0247 H         1 LIG1101     0.0701
     30 H10         4.8497    2.2144   21.1241 H         1 LIG1101     0.1386
     31 H11         4.4765    2.3136   18.6967 H         1 LIG1101     0.1423
     32 H12         7.2982   -0.8406   18.1506 H         1 LIG1101     0.1423
     33 H13         8.6364    2.7898   21.7017 H         1 LIG1101     0.3351
     34 H14         8.5167   -1.2151   23.3368 H         1 LIG1101     0.3155
     35 H15         5.2004    1.5566   16.6976 H         1 LIG1101     0.4191
@<TRIPOS>BOND
     1    1    7 1
     2    2   10 ar
     3    2   14 ar
     4    3    8 1
     5    3   16 am
     6    3   19 2
     7    4    5 1
     8    4   16 1
     9    5    6 3
    10    6   20 1
    11    7   15 am
    12    7   17 2
    13    8    9 1
    14    8   15 1
    15    9   10 1
    16   10   11 ar
    17   11   12 ar
    18   12   13 ar
    19   13   14 ar
    20   13   18 1
    21    1   21 1
    22    1   22 1
    23    1   23 1
    24    2   24 1
    25    4   25 1
    26    4   26 1
    27    8   27 1
    28    9   28 1
    29    9   29 1
    30   11   30 1
    31   12   31 1
    32   14   32 1
    33   15   33 1
    34   16   34 1
    35   18   35 1
