@<TRIPOS>MOLECULE
LIG(A-1101)
   17    17     0     0     0
SMALL
USER_CHARGES

@<TRIPOS>ATOM
      1 N1          9.5540    5.1040   22.9770 N.pl3     1 LIG1101    -1.0320
      2 C1         12.6390    1.0500   23.1170 C.ar      1 LIG1101     0.0308
      3 O1         10.4020    5.1620   25.2790 O.2       1 LIG1101    -0.6599
      4 C2         11.4010    1.1190   23.7620 C.ar      1 LIG1101    -0.1322
      5 C3         10.8610    2.3920   24.0270 C.ar      1 LIG1101    -0.0197
      6 C4         11.5330    3.5790   23.6590 C.ar      1 LIG1101    -0.3643
      7 C5         12.7770    3.4460   23.0240 C.ar      1 LIG1101    -0.0197
      8 C6         13.3360    2.1980   22.7540 C.ar      1 LIG1101    -0.1322
      9 O2         11.7620    6.1130   23.4790 O.2       1 LIG1101    -0.6599
     10 S1         10.8740    5.1030   23.9510 S.o2      1 LIG1101     1.5322
     11 Br1        13.4370   -0.7020   22.6570 Br        1 LIG1101    -0.0677
     12 H1          9.3604    6.0384   22.6781 H         1 LIG1101     0.4460
     13 H2          9.7282    4.5283   22.1781 H         1 LIG1101     0.4460
     14 H3         10.8736    0.2213   24.0490 H         1 LIG1101     0.1566
     15 H4          9.9058    2.4631   24.5259 H         1 LIG1101     0.1597
     16 H5         13.3169    4.3360   22.7362 H         1 LIG1101     0.1597
     17 H6         14.2981    2.1232   22.2691 H         1 LIG1101     0.1566
@<TRIPOS>BOND
     1    1   10 1
     2    2    4 ar
     3    2    8 ar
     4    2   11 1
     5    3   10 2
     6    4    5 ar
     7    5    6 ar
     8    6    7 ar
     9    6   10 1
    10    7    8 ar
    11    9   10 2
    12    1   12 1
    13    1   13 1
    14    4   14 1
    15    5   15 1
    16    7   16 1
    17    8   17 1
