@<TRIPOS>MOLECULE
LIG(A-1101)
   32    33     0     0     0
SMALL
USER_CHARGES

@<TRIPOS>ATOM
      1 C1         22.0010   20.1960    4.0200 C.3       1 LIG1101     0.1022
      2 C2         20.7810   19.3500    4.2670 C.3       1 LIG1101     0.0941
      3 C3         21.1850   17.8560    4.2470 C.3       1 LIG1101     0.1820
      4 C4         22.4000   16.3550    5.4930 C.3       1 LIG1101     0.2472
      5 C5         21.9050   15.1130    6.2280 C.ar      1 LIG1101    -0.0883
      6 C6         22.5230   13.9140    5.9320 C.ar      1 LIG1101    -0.1211
      7 C7         22.1250   12.7520    6.5580 C.ar      1 LIG1101    -0.1313
      8 C8         21.1100   12.7760    7.4950 C.ar      1 LIG1101    -0.1314
      9 C9         20.4990   13.9550    7.8000 C.ar      1 LIG1101    -0.1313
     10 C10        20.8960   15.1310    7.1630 C.ar      1 LIG1101    -0.1211
     11 C11        21.7660   18.2470    6.5450 C.3       1 LIG1101     0.1645
     12 C12        20.6070   19.2510    6.6820 C.3       1 LIG1101     0.1265
     13 N1         21.5320   17.3110    5.5280 N.3       1 LIG1101    -0.7903
     14 O1         21.8880   21.3810    4.6910 O.3       1 LIG1101    -0.6006
     15 O2         20.1250   19.7740    5.4500 O.3       1 LIG1101    -0.4142
     16 H1         22.8942   19.6602    4.3736 H         1 LIG1101     0.0435
     17 H2         22.0952   20.3945    2.9422 H         1 LIG1101     0.0435
     18 H3         20.0989   19.5055    3.4181 H         1 LIG1101     0.0777
     19 H4         20.3393   17.2778    3.8465 H         1 LIG1101     0.0457
     20 H5         22.0533   17.7449    3.5809 H         1 LIG1101     0.0457
     21 H6         23.3306   16.7015    5.9662 H         1 LIG1101     0.0437
     22 H7         22.5981   16.0923    4.4434 H         1 LIG1101     0.0437
     23 H8         23.3223   13.8865    5.2063 H         1 LIG1101     0.1349
     24 H9         22.6093   11.8178    6.3146 H         1 LIG1101     0.1298
     25 H10        20.8020   11.8636    7.9839 H         1 LIG1101     0.1300
     26 H11        19.7077   13.9792    8.5346 H         1 LIG1101     0.1298
     27 H12        20.4073   16.0630    7.4058 H         1 LIG1101     0.1349
     28 H13        22.6889   18.7992    6.3140 H         1 LIG1101     0.0434
     29 H14        21.8875   17.7124    7.4987 H         1 LIG1101     0.0434
     30 H15        19.7727   18.7441    7.1889 H         1 LIG1101     0.0538
     31 H16        20.9540   20.0928    7.2992 H         1 LIG1101     0.0538
     32 H17        20.9786   21.6556    4.6987 H         1 LIG1101     0.4159
@<TRIPOS>BOND
     1    1    2 1
     2    1   14 1
     3    2    3 1
     4    2   15 1
     5    3   13 1
     6    4    5 1
     7    4   13 1
     8    5    6 ar
     9    5   10 ar
    10    6    7 ar
    11    7    8 ar
    12    8    9 ar
    13    9   10 ar
    14   11   12 1
    15   11   13 1
    16   12   15 1
    17    1   16 1
    18    1   17 1
    19    2   18 1
    20    3   19 1
    21    3   20 1
    22    4   21 1
    23    4   22 1
    24    6   23 1
    25    7   24 1
    26    8   25 1
    27    9   26 1
    28   10   27 1
    29   11   28 1
    30   11   29 1
    31   12   30 1
    32   12   31 1
    33   14   32 1
