LIG(A-1101)
  -OEChem-04162022243D

 29 30  0     0  0  0  0  0  0999 V2000
    9.0540    6.1740   22.6390 C   0  0  0  0  0  0  0  0  0  0  0  0
   10.3350    5.8720   23.4070 C   0  0  0  0  0  0  0  0  0  0  0  0
   12.7270    5.0060   23.3690 C   0  0  0  0  0  0  0  0  0  0  0  0
   13.1040    3.5780   22.9690 C   0  0  0  0  0  0  0  0  0  0  0  0
   12.1160    2.4940   23.4310 C   0  0  0  0  0  0  0  0  0  0  0  0
   10.9920    2.6720   24.2210 C   0  0  0  0  0  0  0  0  0  0  0  0
   11.0930    0.5210   23.7280 C   0  0  0  0  0  0  0  0  0  0  0  0
   10.8640   -0.8750   23.6040 C   0  0  0  0  0  0  0  0  0  0  0  0
   11.7450   -1.6540   22.8590 C   0  0  0  0  0  0  0  0  0  0  0  0
   12.8490   -1.0610   22.2370 C   0  0  0  0  0  0  0  0  0  0  0  0
   13.0730    0.3090   22.3660 C   0  0  0  0  0  0  0  0  0  0  0  0
   12.1770    1.1110   23.1230 C   0  0  0  0  0  0  0  0  0  0  0  0
   13.7160   -1.8170   21.5060 F   0  0  0  0  0  0  0  0  0  0  0  0
   11.4860    5.3400   22.6970 N   0  0  0  0  0  0  0  0  0  0  0  0
   10.4010    1.4960   24.3840 N   0  0  0  0  0  0  0  0  0  0  0  0
   10.3760    6.0620   24.5710 O   0  0  0  0  0  0  0  0  0  0  0  0
    8.2910    6.5557   23.3333 H   0  0  0  0  0  0  0  0  0  0  0  0
    9.2590    6.9308   21.8675 H   0  0  0  0  0  0  0  0  0  0  0  0
    8.6873    5.2534   22.1614 H   0  0  0  0  0  0  0  0  0  0  0  0
   12.5906    5.0660   24.4589 H   0  0  0  0  0  0  0  0  0  0  0  0
   13.5197    5.7032   23.0598 H   0  0  0  0  0  0  0  0  0  0  0  0
   13.1685    3.5363   21.8717 H   0  0  0  0  0  0  0  0  0  0  0  0
   14.0887    3.3502   23.4031 H   0  0  0  0  0  0  0  0  0  0  0  0
   10.6539    3.6106   24.6346 H   0  0  0  0  0  0  0  0  0  0  0  0
   10.0108   -1.3300   24.0851 H   0  0  0  0  0  0  0  0  0  0  0  0
   11.5762   -2.7162   22.7612 H   0  0  0  0  0  0  0  0  0  0  0  0
   13.9298    0.7619   21.8893 H   0  0  0  0  0  0  0  0  0  0  0  0
   11.4199    5.1991   21.7092 H   0  0  0  0  0  0  0  0  0  0  0  0
    9.5659    1.3455   24.9131 H   0  0  0  0  0  0  0  0  0  0  0  0
  1  2  1  0  0  0  0
  2 14  1  0  0  0  0
  2 16  2  0  0  0  0
  3  4  1  0  0  0  0
  3 14  1  0  0  0  0
  4  5  1  0  0  0  0
  5  6  2  0  0  0  0
  5 12  1  0  0  0  0
  6 15  1  0  0  0  0
  7  8  2  0  0  0  0
  7 12  1  0  0  0  0
  7 15  1  0  0  0  0
  8  9  1  0  0  0  0
  9 10  2  0  0  0  0
 10 11  1  0  0  0  0
 10 13  1  0  0  0  0
 11 12  2  0  0  0  0
  1 17  1  0  0  0  0
  1 18  1  0  0  0  0
  1 19  1  0  0  0  0
  3 20  1  0  0  0  0
  3 21  1  0  0  0  0
  4 22  1  0  0  0  0
  4 23  1  0  0  0  0
  6 24  1  0  0  0  0
  8 25  1  0  0  0  0
  9 26  1  0  0  0  0
 11 27  1  0  0  0  0
 14 28  1  0  0  0  0
 15 29  1  0  0  0  0
M  END
$$$$
