@<TRIPOS>MOLECULE
LIG(A-1101)
   36    37     0     0     0
SMALL
USER_CHARGES

@<TRIPOS>ATOM
      1 N1          6.7430   -2.0750   24.1450 N.am      1 LIG1101    -0.4738
      2 C1          1.3710   -2.7370   27.8260 C.3       1 LIG1101    -0.0589
      3 O1          7.6030   -1.8050   26.2090 O.2       1 LIG1101    -0.5946
      4 C2          2.7370   -2.5490   27.2270 C.ar      1 LIG1101    -0.0562
      5 C3          6.0510   -3.7230   22.4930 C.3       1 LIG1101     0.0605
      6 C4          5.6510   -2.4830   23.2590 C.3       1 LIG1101     0.0647
      7 C5          7.3330   -3.4790   20.3910 C.2       1 LIG1101     0.6522
      8 C6          8.6160   -2.9970   19.7660 C.3       1 LIG1101    -0.1038
      9 C7          3.8120   -3.3240   27.6310 C.ar      1 LIG1101    -0.1386
     10 C8          5.0690   -3.1520   27.0780 C.ar      1 LIG1101    -0.0910
     11 C9          5.2780   -2.1880   26.1070 C.ar      1 LIG1101    -0.1421
     12 C10         4.2090   -1.4120   25.6940 C.ar      1 LIG1101    -0.0910
     13 C11         2.9550   -1.5950   26.2500 C.ar      1 LIG1101    -0.1386
     14 C12         6.6330   -1.9990   25.4850 C.2       1 LIG1101     0.6790
     15 C13         7.9890   -1.8220   23.4210 C.3       1 LIG1101     0.0647
     16 C14         8.3750   -3.0430   22.6150 C.3       1 LIG1101     0.0605
     17 N2          7.2690   -3.4400   21.7390 N.am      1 LIG1101    -0.4605
     18 O2          6.3980   -3.8530   19.6950 O.2       1 LIG1101    -0.6059
     19 H1          1.4067   -3.5401   28.5768 H         1 LIG1101     0.0487
     20 H2          1.0491   -1.8009   28.3057 H         1 LIG1101     0.0487
     21 H3          0.6574   -3.0073   27.0337 H         1 LIG1101     0.0487
     22 H4          6.2354   -4.5483   23.1965 H         1 LIG1101     0.0672
     23 H5          5.2447   -4.0052   21.8000 H         1 LIG1101     0.0672
     24 H6          5.4323   -1.6705   22.5505 H         1 LIG1101     0.0650
     25 H7          4.7544   -2.6975   23.8590 H         1 LIG1101     0.0650
     26 H8          8.7339   -1.9306   20.0089 H         1 LIG1101     0.0669
     27 H9          9.4459   -3.5677   20.2082 H         1 LIG1101     0.0669
     28 H10         3.6663   -4.0766   28.3918 H         1 LIG1101     0.1375
     29 H11         5.8901   -3.7725   27.4054 H         1 LIG1101     0.1448
     30 H12         4.3543   -0.6592   24.9333 H         1 LIG1101     0.1448
     31 H13         2.1317   -0.9816   25.9148 H         1 LIG1101     0.1375
     32 H14         7.8495   -0.9670   22.7431 H         1 LIG1101     0.0650
     33 H15         8.7886   -1.5927   24.1407 H         1 LIG1101     0.0650
     34 H16         9.2584   -2.8099   22.0024 H         1 LIG1101     0.0672
     35 H17         8.6117   -3.8708   23.2997 H         1 LIG1101     0.0672
     36 Du1         8.7080   -3.1760   17.9670 Du        1 LIG1101     0.0000
@<TRIPOS>BOND
     1    1    6 1
     2    1   14 am
     3    1   15 1
     4    2    4 1
     5    3   14 2
     6    4    9 ar
     7    4   13 ar
     8    5    6 1
     9    5   17 1
    10    7    8 1
    11    7   17 am
    12    7   18 2
    13    9   10 ar
    14   10   11 ar
    15   11   12 ar
    16   11   14 1
    17   12   13 ar
    18   15   16 1
    19   16   17 1
    20    2   19 1
    21    2   20 1
    22    2   21 1
    23    5   22 1
    24    5   23 1
    25    6   24 1
    26    6   25 1
    27    8   26 1
    28    8   27 1
    29    9   28 1
    30   10   29 1
    31   12   30 1
    32   13   31 1
    33   15   32 1
    34   15   33 1
    35   16   34 1
    36   16   35 1
    37    8   36 1
