@<TRIPOS>MOLECULE
LIG(A-1101)
   34    35     0     0     0
SMALL
USER_CHARGES

@<TRIPOS>ATOM
      1 N1          6.8580   -4.3150   21.9100 N.am      1 LIG1101    -0.5048
      2 C1          7.7780   -4.7660   19.8290 C.3       1 LIG1101    -0.1069
      3 O1          5.4640   -4.2410   20.1140 O.2       1 LIG1101    -0.5830
      4 C2          6.5600   -4.4090   20.6160 C.2       1 LIG1101     0.6706
      5 C3          0.4670   -4.8070   24.0550 C.3       1 LIG1101    -0.0403
      6 C4         -0.0860   -7.2830   24.9110 C.3       1 LIG1101    -0.0403
      7 C5          1.0610   -7.7230   24.0300 C.3       1 LIG1101     0.0860
      8 C6          5.9810   -4.4560   22.9970 C.ar      1 LIG1101     0.0631
      9 C7          5.9720   -3.4450   23.9510 C.ar      1 LIG1101    -0.1367
     10 C8          5.1100   -3.5330   25.0210 C.ar      1 LIG1101    -0.1192
     11 C9          4.2590   -4.6180   25.1460 C.ar      1 LIG1101    -0.1143
     12 C10         4.2630   -5.6330   24.1970 C.ar      1 LIG1101    -0.1175
     13 C11         5.1230   -5.5460   23.1020 C.ar      1 LIG1101    -0.1053
     14 C12         3.3340   -6.8050   24.3200 C.2       1 LIG1101     0.6743
     15 C13         1.5590   -5.4570   23.2350 C.3       1 LIG1101     0.0860
     16 N2          2.0660   -6.6610   23.9050 N.am      1 LIG1101    -0.4712
     17 O2          3.7660   -7.8620   24.7760 O.2       1 LIG1101    -0.5867
     18 S1         -0.9720   -5.8690   24.2390 S.3       1 LIG1101    -0.2943
     19 H1          7.8137   -4.1224   22.1327 H         1 LIG1101     0.3149
     20 H2          8.6141   -4.9435   20.5214 H         1 LIG1101     0.0681
     21 H3          7.5782   -5.6816   19.2531 H         1 LIG1101     0.0681
     22 H4          0.8653   -4.5748   25.0537 H         1 LIG1101     0.0790
     23 H5          0.1581   -3.8757   23.5578 H         1 LIG1101     0.0790
     24 H6         -0.7899   -8.1215   25.0177 H         1 LIG1101     0.0790
     25 H7          0.3131   -7.0113   25.8994 H         1 LIG1101     0.0790
     26 H8          1.5321   -8.6138   24.4711 H         1 LIG1101     0.0734
     27 H9          0.6728   -7.9702   23.0309 H         1 LIG1101     0.0734
     28 H10         6.6352   -2.5982   23.8538 H         1 LIG1101     0.1405
     29 H11         5.0976   -2.7518   25.7666 H         1 LIG1101     0.1397
     30 H12         3.5860   -4.6760   25.9887 H         1 LIG1101     0.1440
     31 H13         5.1227   -6.3159   22.3446 H         1 LIG1101     0.1556
     32 H14         1.1541   -5.7352   22.2508 H         1 LIG1101     0.0734
     33 H15         2.3850   -4.7426   23.1031 H         1 LIG1101     0.0734
     34 Du1         8.2260   -3.4410   18.6920 Du        1 LIG1101     0.0000
@<TRIPOS>BOND
     1    1    4 am
     2    1    8 1
     3    2    4 1
     4    3    4 2
     5    5   15 1
     6    5   18 1
     7    6    7 1
     8    6   18 1
     9    7   16 1
    10    8    9 ar
    11    8   13 ar
    12    9   10 ar
    13   10   11 ar
    14   11   12 ar
    15   12   13 ar
    16   12   14 1
    17   14   16 am
    18   14   17 2
    19   15   16 1
    20    1   19 1
    21    2   20 1
    22    2   21 1
    23    5   22 1
    24    5   23 1
    25    6   24 1
    26    6   25 1
    27    7   26 1
    28    7   27 1
    29    9   28 1
    30   10   29 1
    31   11   30 1
    32   13   31 1
    33   15   32 1
    34   15   33 1
    35    2   34 1
