@<TRIPOS>MOLECULE
LIG(A-1101)
   41    43     0     0     0
SMALL
USER_CHARGES

@<TRIPOS>ATOM
      1 N1          6.8830   -2.1700   20.8180 N.am      1 LIG1101    -0.4567
      2 C1          8.3440   -3.0280   19.1560 C.3       1 LIG1101    -0.1239
      3 O1          5.9820   -3.3830   19.1230 O.2       1 LIG1101    -0.4630
      4 C2          6.9520   -2.8770   19.6780 C.2       1 LIG1101     0.6341
      5 C3         12.0090    2.0390   24.6280 C.ar      1 LIG1101    -0.0890
      6 C4         10.9990    2.3060   25.4940 C.ar      1 LIG1101    -0.1209
      7 C5         10.0070    1.3490   25.7480 C.ar      1 LIG1101    -0.0753
      8 C6         10.0300    0.1500   25.1030 C.ar      1 LIG1101    -0.1791
      9 C7         11.0560   -0.1680   24.1750 C.ar      1 LIG1101    -0.0179
     10 C8          7.9840   -3.2860   22.7300 C.3       1 LIG1101     0.0638
     11 C9          6.6770   -2.9150   22.0620 C.3       1 LIG1101     0.0534
     12 C10         7.8380   -1.0640   20.9480 C.3       1 LIG1101     0.0534
     13 C11         9.1040   -1.4560   21.6840 C.3       1 LIG1101     0.0638
     14 C12        10.0380   -2.4410   23.6830 C.3       1 LIG1101     0.1799
     15 C13        11.1220   -1.4100   23.4820 C.ar      1 LIG1101    -0.1802
     16 C14        12.1410   -1.6220   22.5880 C.ar      1 LIG1101    -0.0686
     17 C15        13.1440   -0.6630   22.3680 C.ar      1 LIG1101    -0.1455
     18 C16        13.1080    0.5210   23.0270 C.ar      1 LIG1101    -0.0571
     19 C17        12.0670    0.8060   23.9410 C.ar      1 LIG1101    -0.0482
     20 N2          8.8040   -2.1000   22.9650 N.4       1 LIG1101    -0.6828
     21 H1          8.8444   -2.1162   19.5140 H         1 LIG1101     0.0759
     22 H2          8.7252   -3.8976   19.7114 H         1 LIG1101     0.0759
     23 H3         12.7783    2.7786   24.4619 H         1 LIG1101     0.1565
     24 H4         10.9592    3.2637   25.9916 H         1 LIG1101     0.1593
     25 H5          9.2217    1.5633   26.4577 H         1 LIG1101     0.1514
     26 H6          9.2526   -0.5730   25.3013 H         1 LIG1101     0.1087
     27 H7          7.7708   -3.7731   23.6929 H         1 LIG1101     0.1069
     28 H8          8.5353   -3.9823   22.0810 H         1 LIG1101     0.1069
     29 H9          6.0895   -2.2935   22.7539 H         1 LIG1101     0.0987
     30 H10         6.1212   -3.8367   21.8350 H         1 LIG1101     0.0987
     31 H11         8.1116   -0.7173   19.9406 H         1 LIG1101     0.0987
     32 H12         7.3523   -0.2447   21.4984 H         1 LIG1101     0.0987
     33 H13         9.6788   -2.1550   21.0587 H         1 LIG1101     0.1069
     34 H14         9.7033   -0.5526   21.8701 H         1 LIG1101     0.1069
     35 H15        10.4023   -3.4128   23.3184 H         1 LIG1101     0.1028
     36 H16         9.8135   -2.5132   24.7574 H         1 LIG1101     0.1028
     37 H17        12.1730   -2.5512   22.0385 H         1 LIG1101     0.1389
     38 H18        13.9445   -0.8694   21.6731 H         1 LIG1101     0.1611
     39 H19        13.8818    1.2539   22.8524 H         1 LIG1101     0.1593
     40 H20         8.2801   -1.4588   23.5257 H         1 LIG1101     0.4452
     41 Du1         9.0390   -3.2560   17.5180 Du        1 LIG1101     0.0000
@<TRIPOS>BOND
     1    1    4 am
     2    1   11 1
     3    1   12 1
     4    2    4 1
     5    3    4 2
     6    5    6 ar
     7    5   19 ar
     8    6    7 ar
     9    7    8 ar
    10    8    9 ar
    11    9   15 ar
    12    9   19 ar
    13   10   11 1
    14   10   20 1
    15   12   13 1
    16   13   20 1
    17   14   15 1
    18   14   20 1
    19   15   16 ar
    20   16   17 ar
    21   17   18 ar
    22   18   19 ar
    23    2   21 1
    24    2   22 1
    25    5   23 1
    26    6   24 1
    27    7   25 1
    28    8   26 1
    29   10   27 1
    30   10   28 1
    31   11   29 1
    32   11   30 1
    33   12   31 1
    34   12   32 1
    35   13   33 1
    36   13   34 1
    37   14   35 1
    38   14   36 1
    39   16   37 1
    40   17   38 1
    41   18   39 1
    42   20   40 1
    43    2   41 1
