LIG(A-1301)
  -OEChem-04292023503D

 31 32  0     0  0  0  0  0  0999 V2000
    6.4720   -5.2070   21.7570 N   0  0  0  0  0  0  0  0  0  0  0  0
    7.6750   -3.6140   20.3270 C   0  0  0  0  0  0  0  0  0  0  0  0
    5.6570   -4.7360   19.7210 O   0  0  0  0  0  0  0  0  0  0  0  0
    6.5300   -4.5780   20.5670 C   0  0  0  0  0  0  0  0  0  0  0  0
    5.4190   -6.1550   22.1120 C   0  0  0  0  0  0  0  0  0  0  0  0
    4.6470   -5.6330   23.2920 C   0  0  0  0  0  0  0  0  0  0  0  0
    6.6530   -4.4430   24.0550 C   0  0  0  0  0  0  0  0  0  0  0  0
    7.4020   -4.9820   22.8660 C   0  0  0  0  0  0  0  0  0  0  0  0
    4.0460   -3.8690   26.0370 C   0  0  0  0  0  0  0  0  0  0  0  0
    4.5450   -2.6150   26.2980 C   0  0  0  0  0  0  0  0  0  0  0  0
    3.5710   -1.6150   26.0490 C   0  0  0  0  0  0  0  0  0  0  0  0
    2.3160   -2.1770   25.8450 C   0  0  0  0  0  0  0  0  0  0  0  0
    5.5850   -5.3950   24.4030 N   0  0  0  0  0  0  0  0  0  0  0  0
    4.0610   -6.4210   26.0440 O   0  0  0  0  0  0  0  0  0  0  0  0
    6.0940   -5.2160   26.7950 O   0  0  0  0  0  0  0  0  0  0  0  0
    4.9750   -5.3290   25.9130 S   0  0  0  0  0  0  0  0  0  0  0  0
    2.3500   -3.8920   25.7960 S   0  0  0  0  0  0  0  0  0  0  0  0
    0.8310   -1.3450   25.6540 Cl  0  0  0  0  0  0  0  0  0  0  0  0
    8.2310   -3.4650   18.6140 R#  0  0  0  0  0  0  0  0  0  0  0  0
    7.3542   -2.6178   20.6657 H   0  0  0  0  0  0  0  0  0  0  0  0
    8.5307   -3.9489   20.9317 H   0  0  0  0  0  0  0  0  0  0  0  0
    4.7386   -6.2834   21.2572 H   0  0  0  0  0  0  0  0  0  0  0  0
    5.8708   -7.1242   22.3699 H   0  0  0  0  0  0  0  0  0  0  0  0
    4.1483   -4.6909   23.0205 H   0  0  0  0  0  0  0  0  0  0  0  0
    3.8922   -6.3728   23.5970 H   0  0  0  0  0  0  0  0  0  0  0  0
    7.3403   -4.3285   24.9062 H   0  0  0  0  0  0  0  0  0  0  0  0
    6.2130   -3.4663   23.8051 H   0  0  0  0  0  0  0  0  0  0  0  0
    7.8838   -5.9328   23.1377 H   0  0  0  0  0  0  0  0  0  0  0  0
    8.1696   -4.2568   22.5580 H   0  0  0  0  0  0  0  0  0  0  0  0
    5.5477   -2.4173   26.6471 H   0  0  0  0  0  0  0  0  0  0  0  0
    3.7772   -0.5552   26.0214 H   0  0  0  0  0  0  0  0  0  0  0  0
  1  4  1  0  0  0  0
  1  5  1  0  0  0  0
  1  8  1  0  0  0  0
  2  4  1  0  0  0  0
  3  4  2  0  0  0  0
  5  6  1  0  0  0  0
  6 13  1  0  0  0  0
  7  8  1  0  0  0  0
  7 13  1  0  0  0  0
  9 10  2  0  0  0  0
  9 16  1  0  0  0  0
  9 17  1  0  0  0  0
 10 11  1  0  0  0  0
 11 12  2  0  0  0  0
 12 17  1  0  0  0  0
 12 18  1  0  0  0  0
 13 16  1  0  0  0  0
 14 16  2  0  0  0  0
 15 16  2  0  0  0  0
  2 20  1  0  0  0  0
  2 21  1  0  0  0  0
  5 22  1  0  0  0  0
  5 23  1  0  0  0  0
  6 24  1  0  0  0  0
  6 25  1  0  0  0  0
  7 26  1  0  0  0  0
  7 27  1  0  0  0  0
  8 28  1  0  0  0  0
  8 29  1  0  0  0  0
 10 30  1  0  0  0  0
 11 31  1  0  0  0  0
  2 19  1  0  0  0  0
M  RGP  1  19   1
M  END
$$$$
