LIG(A-1101)
  -OEChem-04292023523D

 26 26  0     0  0  0  0  0  0999 V2000
   16.2070    2.3660  -14.6990 C   0  0  0  0  0  0  0  0  0  0  0  0
   16.7570    3.3040  -12.6730 C   0  0  0  0  0  0  0  0  0  0  0  0
   17.6160    2.4530  -11.7500 C   0  0  0  0  0  0  0  0  0  0  0  0
   18.7090    1.7750  -12.2530 C   0  0  0  0  0  0  0  0  0  0  0  0
   19.4850    0.9950  -11.4160 C   0  0  0  0  0  0  0  0  0  0  0  0
   19.1810    0.8860  -10.0750 C   0  0  0  0  0  0  0  0  0  0  0  0
   18.0910    1.5650   -9.5610 C   0  0  0  0  0  0  0  0  0  0  0  0
   16.0550    3.6700   -7.7390 C   0  0  0  0  0  0  0  0  0  0  0  0
   17.3140    2.3470  -10.4080 C   0  0  0  0  0  0  0  0  0  0  0  0
   17.7910    1.4270   -8.1430 N   0  0  0  0  0  0  0  0  0  0  0  0
   17.0200    3.2820  -14.0350 O   0  0  0  0  0  0  0  0  0  0  0  0
   15.8590    3.9680  -12.2770 O   0  0  0  0  0  0  0  0  0  0  0  0
   17.2430    2.3740   -5.7550 O   0  0  0  0  0  0  0  0  0  0  0  0
   18.6350    3.6490   -7.0130 O   0  0  0  0  0  0  0  0  0  0  0  0
   17.4660    2.7810   -7.1550 S   0  0  0  0  0  0  0  0  0  0  0  0
   16.4434    2.3765  -15.7733 H   0  0  0  0  0  0  0  0  0  0  0  0
   16.3838    1.3584  -14.2946 H   0  0  0  0  0  0  0  0  0  0  0  0
   15.1516    2.6396  -14.5532 H   0  0  0  0  0  0  0  0  0  0  0  0
   18.9577    1.8542  -13.3010 H   0  0  0  0  0  0  0  0  0  0  0  0
   20.3374    0.4659  -11.8159 H   0  0  0  0  0  0  0  0  0  0  0  0
   19.7917    0.2729   -9.4288 H   0  0  0  0  0  0  0  0  0  0  0  0
   16.2192    3.9746   -8.7832 H   0  0  0  0  0  0  0  0  0  0  0  0
   15.1657    3.0253   -7.6808 H   0  0  0  0  0  0  0  0  0  0  0  0
   15.9014    4.5637   -7.1164 H   0  0  0  0  0  0  0  0  0  0  0  0
   16.4624    2.8788  -10.0101 H   0  0  0  0  0  0  0  0  0  0  0  0
   17.2901    0.5970   -7.8976 H   0  0  0  0  0  0  0  0  0  0  0  0
  1 11  1  0  0  0  0
  2  3  1  0  0  0  0
  2 11  1  0  0  0  0
  2 12  2  0  0  0  0
  3  4  2  0  0  0  0
  3  9  1  0  0  0  0
  4  5  1  0  0  0  0
  5  6  2  0  0  0  0
  6  7  1  0  0  0  0
  7  9  2  0  0  0  0
  7 10  1  0  0  0  0
  8 15  1  0  0  0  0
 10 15  1  0  0  0  0
 13 15  2  0  0  0  0
 14 15  2  0  0  0  0
  1 16  1  0  0  0  0
  1 17  1  0  0  0  0
  1 18  1  0  0  0  0
  4 19  1  0  0  0  0
  5 20  1  0  0  0  0
  6 21  1  0  0  0  0
  8 22  1  0  0  0  0
  8 23  1  0  0  0  0
  8 24  1  0  0  0  0
  9 25  1  0  0  0  0
 10 26  1  0  0  0  0
M  END
$$$$
