@<TRIPOS>MOLECULE
LIG(A-1101)
   33    34     0     0     0
SMALL
USER_CHARGES

@<TRIPOS>ATOM
      1 N1          5.5540   -4.8850   26.0300 N.pl3     1 LIG1101     0.3176
      2 C1          7.0110   -5.0180   26.0910 C.ar      1 LIG1101    -0.1714
      3 O1          4.9120   -5.7580   25.4670 O.2       1 LIG1101    -0.2010
      4 C2          7.5450   -5.4250   27.3080 C.ar      1 LIG1101    -0.0700
      5 C3          6.5970   -3.9330   19.7480 C.2       1 LIG1101     0.6606
      6 C4          7.2090   -2.8290   18.9400 C.3       1 LIG1101    -0.1019
      7 C5          8.9110   -5.5710   27.4400 C.ar      1 LIG1101    -0.1471
      8 C6          9.7490   -5.3150   26.3710 C.ar      1 LIG1101    -0.0833
      9 C7          9.2280   -4.9060   25.1540 C.ar      1 LIG1101    -0.1726
     10 C8          7.8540   -4.7510   24.9870 C.ar      1 LIG1101     0.1972
     11 C9          7.7400   -3.1240   23.0620 C.3       1 LIG1101     0.1819
     12 C10         8.1760   -3.4440   21.6480 C.3       1 LIG1101     0.0656
     13 C11         6.7660   -5.4370   21.6620 C.3       1 LIG1101     0.0656
     14 C12         6.2790   -5.0820   23.0460 C.3       1 LIG1101     0.1819
     15 N2          7.3150   -4.3380   23.7700 N.pl3     1 LIG1101    -0.6920
     16 N3          7.1520   -4.2240   20.9440 N.am      1 LIG1101    -0.4755
     17 O2          5.0370   -3.9280   26.5830 O.2       1 LIG1101    -0.2010
     18 O3          5.6660   -4.5720   19.2830 O.2       1 LIG1101    -0.6016
     19 H1          6.8942   -5.6260   28.1461 H         1 LIG1101     0.1583
     20 H2          6.5572   -2.5785   18.0901 H         1 LIG1101     0.0670
     21 H3          7.3516   -1.9372   19.5680 H         1 LIG1101     0.0670
     22 H4          9.3279   -5.8873   28.3847 H         1 LIG1101     0.1483
     23 H5         10.8163   -5.4345   26.4850 H         1 LIG1101     0.1424
     24 H6          9.8934   -4.7056   24.3273 H         1 LIG1101     0.1446
     25 H7          8.5821   -2.6682   23.6034 H         1 LIG1101     0.0684
     26 H8          6.8996   -2.4151   23.0274 H         1 LIG1101     0.0684
     27 H9          8.3489   -2.5038   21.1038 H         1 LIG1101     0.0615
     28 H10         9.1096   -4.0247   21.6825 H         1 LIG1101     0.0615
     29 H11         7.6356   -6.1059   21.7418 H         1 LIG1101     0.0615
     30 H12         5.9611   -5.9461   21.1116 H         1 LIG1101     0.0615
     31 H13         5.3746   -4.4610   22.9652 H         1 LIG1101     0.0684
     32 H14         6.0423   -6.0047   23.5961 H         1 LIG1101     0.0684
     33 Du1         8.8090   -3.4260   18.3390 Du        1 LIG1101     0.0000
@<TRIPOS>BOND
     1    1    2 1
     2    1    3 2
     3    1   17 2
     4    2    4 ar
     5    2   10 ar
     6    4    7 ar
     7    5    6 1
     8    5   16 am
     9    5   18 2
    10    7    8 ar
    11    8    9 ar
    12    9   10 ar
    13   10   15 1
    14   11   12 1
    15   11   15 1
    16   12   16 1
    17   13   14 1
    18   13   16 1
    19   14   15 1
    20    4   19 1
    21    6   20 1
    22    6   21 1
    23    7   22 1
    24    8   23 1
    25    9   24 1
    26   11   25 1
    27   11   26 1
    28   12   27 1
    29   12   28 1
    30   13   29 1
    31   13   30 1
    32   14   31 1
    33   14   32 1
    34    6   33 1
