@<TRIPOS>MOLECULE
LIG(A-701)
   31    32     0     0     0
SMALL
USER_CHARGES

@<TRIPOS>ATOM
      1 C1         25.8390    4.8250   13.3550 C.2       1 LIG701      0.6711
      2 C2         25.4140    4.4510   11.9300 C.ar      1 LIG701     -0.1476
      3 C3         25.1590    5.4190   10.9640 C.ar      1 LIG701     -0.0749
      4 C4         24.7920    5.0540    9.6840 C.ar      1 LIG701     -0.1480
      5 C5         24.6750    3.7200    9.3580 C.ar      1 LIG701      0.0716
      6 C6         23.0540    2.6680    7.7360 C.2       1 LIG701      0.6437
      7 C7         22.7440    2.3030    6.2700 C.3       1 LIG701      0.0681
      8 C8         23.1510    1.1210    6.0300 C.3       1 LIG701     -0.0965
      9 C9         23.8060    1.1750    4.6640 C.3       1 LIG701     -0.1100
     10 C10        24.4820    2.5330    4.7510 C.3       1 LIG701      0.1233
     11 C11        24.9370    2.7470   10.3040 C.ar      1 LIG701     -0.1480
     12 C12        25.3050    3.1100   11.5900 C.ar      1 LIG701     -0.0749
     13 N1         25.8640    6.1990   13.8180 N.am      1 LIG701     -0.6743
     14 N2         24.3000    3.3520    8.0160 N.am      1 LIG701     -0.4744
     15 O1         26.1780    3.9690   14.1090 O.2       1 LIG701     -0.6205
     16 O2         22.3040    2.3930    8.6160 O.2       1 LIG701     -0.5820
     17 O3         23.5800    3.2660    5.2730 O.3       1 LIG701     -0.4289
     18 H1         25.2489    6.4650   11.2174 H         1 LIG701      0.1478
     19 H2         24.5971    5.8121    8.9399 H         1 LIG701      0.1463
     20 H3         21.6711    2.4492    6.0764 H         1 LIG701      0.0970
     21 H4         23.8797    0.8055    6.7913 H         1 LIG701      0.0683
     22 H5         22.3038    0.4194    6.0204 H         1 LIG701      0.0683
     23 H6         24.5359    0.3633    4.5286 H         1 LIG701      0.0607
     24 H7         23.0635    1.1395    3.8532 H         1 LIG701      0.0607
     25 H8         25.3762    2.4899    5.3902 H         1 LIG701      0.0528
     26 H9         24.7622    2.9005    3.7528 H         1 LIG701      0.0528
     27 H10        24.8549    1.7028   10.0409 H         1 LIG701      0.1463
     28 H11        25.5072    2.3482   12.3284 H         1 LIG701      0.1478
     29 H12        26.1609    6.4073   14.7499 H         1 LIG701      0.3120
     30 H13        25.5843    6.9382   13.2054 H         1 LIG701      0.3120
     31 H14        24.9150    3.5743    7.2595 H         1 LIG701      0.3291
@<TRIPOS>BOND
     1    1    2 1
     2    1   13 am
     3    1   15 2
     4    2    3 ar
     5    2   12 ar
     6    3    4 ar
     7    4    5 ar
     8    5   11 ar
     9    5   14 1
    10    6    7 1
    11    6   14 am
    12    6   16 2
    13    7    8 1
    14    7   17 1
    15    8    9 1
    16    9   10 1
    17   10   17 1
    18   11   12 ar
    19    3   18 1
    20    4   19 1
    21    7   20 1
    22    8   21 1
    23    8   22 1
    24    9   23 1
    25    9   24 1
    26   10   25 1
    27   10   26 1
    28   11   27 1
    29   12   28 1
    30   13   29 1
    31   13   30 1
    32   14   31 1
