JAV-UNI-450-1
 OpenBabel03242009303D

 48 51  0  0  1  0  0  0  0  0999 V2000
    6.4416   -1.9737   20.9420 C   0  0  0  0  0  0  0  0  0  0  0  0
    6.8179   -3.2993   21.1583 C   0  0  0  0  0  0  0  0  0  0  0  0
    7.0987   -0.9435   21.6146 C   0  0  0  0  0  0  0  0  0  0  0  0
   12.8625   -0.0175   23.5027 C   0  0  0  0  0  0  0  0  0  0  0  0
   12.6991   -0.9544   22.4874 C   0  0  0  0  0  0  0  0  0  0  0  0
    7.9358   -6.4174   28.0260 C   0  0  0  0  0  0  0  0  0  0  0  0
    7.8514   -3.5947   22.0473 C   0  0  0  0  0  0  0  0  0  0  0  0
    8.1322   -1.2389   22.5036 C   0  0  0  0  0  0  0  0  0  0  0  0
   11.9828   -0.0034   24.5845 C   0  0  0  0  0  0  0  0  0  0  0  0
   11.6578   -1.8786   22.5556 C   0  0  0  0  0  0  0  0  0  0  0  0
    8.6199   -5.8616   26.9507 C   0  0  0  0  0  0  0  0  0  0  0  0
    7.9284   -5.7174   29.2218 C   0  0  0  0  0  0  0  0  0  0  0  0
    9.1996   -4.0195   28.3389 C   0  0  0  0  0  0  0  0  0  0  0  0
    8.5086   -2.5645   22.7200 C   0  0  0  0  0  0  0  0  0  0  0  0
   10.9276   -0.9257   24.6633 C   0  0  0  0  0  0  0  0  0  0  0  0
   10.7677   -1.8757   23.6425 C   0  0  0  0  0  0  0  0  0  0  0  0
    9.2667   -4.6401   27.1018 C   0  0  0  0  0  0  0  0  0  0  0  0
    7.7237   -1.6550   26.5946 C   0  0  0  0  0  0  0  0  0  0  0  0
   10.0034   -0.8672   25.8511 C   0  0  0  0  0  0  0  0  0  0  0  0
    9.6392   -2.8869   23.6929 C   0  0  1  0  0  0  0  0  0  0  0  0
    9.0994   -3.1006   25.1293 C   0  0  1  0  0  0  0  0  0  0  0  0
    7.6586   -0.4171   27.4556 C   0  0  0  0  0  0  0  0  0  0  0  0
   10.0131   -4.0138   25.9601 C   0  0  0  0  0  0  0  0  0  0  0  0
    8.5449   -4.5285   29.4066 N   0  0  0  0  0  0  0  0  0  0  0  0
    8.8858   -1.8221   25.8297 N   0  0  0  0  0  0  0  0  0  0  0  0
    6.7730   -2.4409   26.5942 O   0  0  0  0  0  0  0  0  0  0  0  0
    5.6377   -1.7438   20.2487 H   0  0  0  0  0  0  0  0  0  0  0  0
    6.3071   -4.1016   20.6338 H   0  0  0  0  0  0  0  0  0  0  0  0
    6.8067    0.0887   21.4456 H   0  0  0  0  0  0  0  0  0  0  0  0
   13.6738    0.7027   23.4531 H   0  0  0  0  0  0  0  0  0  0  0  0
   13.3823   -0.9669   21.6434 H   0  0  0  0  0  0  0  0  0  0  0  0
    7.4242   -7.3684   27.9311 H   0  0  0  0  0  0  0  0  0  0  0  0
    8.1377   -4.6305   22.2098 H   0  0  0  0  0  0  0  0  0  0  0  0
    8.6385   -0.4297   23.0233 H   0  0  0  0  0  0  0  0  0  0  0  0
   12.1224    0.7355   25.3701 H   0  0  0  0  0  0  0  0  0  0  0  0
   11.5435   -2.6059   21.7554 H   0  0  0  0  0  0  0  0  0  0  0  0
    8.6437   -6.3867   25.9997 H   0  0  0  0  0  0  0  0  0  0  0  0
    7.4091   -6.1087   30.0904 H   0  0  0  0  0  0  0  0  0  0  0  0
    9.6848   -3.0647   28.5165 H   0  0  0  0  0  0  0  0  0  0  0  0
   10.5756   -1.0754   26.7633 H   0  0  0  0  0  0  0  0  0  0  0  0
    9.6031    0.1486   25.9252 H   0  0  0  0  0  0  0  0  0  0  0  0
   10.0553   -3.8746   23.3472 H   0  0  0  0  0  0  0  0  0  0  0  0
    8.1363   -3.6244   25.0615 H   0  0  0  0  0  0  0  0  0  0  0  0
    7.2087    0.3874   26.8843 H   0  0  0  0  0  0  0  0  0  0  0  0
    8.6638   -0.1424   27.7570 H   0  0  0  0  0  0  0  0  0  0  0  0
    7.0599   -0.6293   28.3349 H   0  0  0  0  0  0  0  0  0  0  0  0
   10.8565   -3.4292   26.3334 H   0  0  0  0  0  0  0  0  0  0  0  0
   10.4303   -4.7863   25.3105 H   0  0  0  0  0  0  0  0  0  0  0  0
  1  2  1  0  0  0  0
  1  3  2  0  0  0  0
  1 27  1  0  0  0  0
  2  7  2  0  0  0  0
  2 28  1  0  0  0  0
  3  8  1  0  0  0  0
  3 29  1  0  0  0  0
  4  5  1  0  0  0  0
  4  9  2  0  0  0  0
  4 30  1  0  0  0  0
  5 10  2  0  0  0  0
  5 31  1  0  0  0  0
  6 11  2  0  0  0  0
  6 12  1  0  0  0  0
  6 32  1  0  0  0  0
  7 14  1  0  0  0  0
  7 33  1  0  0  0  0
  8 14  2  0  0  0  0
  8 34  1  0  0  0  0
  9 15  1  0  0  0  0
  9 35  1  0  0  0  0
 10 16  1  0  0  0  0
 10 36  1  0  0  0  0
 11 17  1  0  0  0  0
 11 37  1  0  0  0  0
 12 24  2  0  0  0  0
 12 38  1  0  0  0  0
 13 17  2  0  0  0  0
 13 24  1  0  0  0  0
 13 39  1  0  0  0  0
 14 20  1  0  0  0  0
 15 16  2  0  0  0  0
 15 19  1  0  0  0  0
 16 20  1  0  0  0  0
 17 23  1  0  0  0  0
 18 22  1  0  0  0  0
 18 25  1  0  0  0  0
 18 26  2  0  0  0  0
 19 25  1  0  0  0  0
 19 40  1  0  0  0  0
 19 41  1  0  0  0  0
 20 21  1  0  0  0  0
 20 42  1  6  0  0  0
 21 23  1  0  0  0  0
 21 25  1  0  0  0  0
 21 43  1  6  0  0  0
 22 44  1  0  0  0  0
 22 45  1  0  0  0  0
 22 46  1  0  0  0  0
 23 47  1  0  0  0  0
 23 48  1  0  0  0  0
M  END
>  <Chemgauss4 Score>
-7.24855089187622

>  <Number of Confs>
14

$$$$
