SAL-INS-1c7-11
 OpenBabel03242009303D

 41 43  0  0  1  0  0  0  0  0999 V2000
    7.1687   -0.4543   22.8562 C   0  0  0  0  0  0  0  0  0  0  0  0
    7.5750   -1.3707   21.8863 C   0  0  0  0  0  0  0  0  0  0  0  0
    7.3576   -0.7401   24.2084 C   0  0  0  0  0  0  0  0  0  0  0  0
    8.1702   -2.5729   22.2686 C   0  0  0  0  0  0  0  0  0  0  0  0
    7.9528   -1.9423   24.5906 C   0  0  0  0  0  0  0  0  0  0  0  0
   10.9260   -1.0041   25.0598 C   0  0  0  0  0  0  0  0  0  0  0  0
   11.1079    0.1720   24.2764 C   0  0  0  0  0  0  0  0  0  0  0  0
    8.3591   -2.8587   23.6207 C   0  0  0  0  0  0  0  0  0  0  0  0
   11.2774   -2.1441   24.3711 C   0  0  0  0  0  0  0  0  0  0  0  0
   11.5918   -0.1140   23.0186 C   0  0  0  0  0  0  0  0  0  0  0  0
    6.1341   -5.4560   26.0251 C   0  0  0  0  0  0  0  0  0  0  0  0
    8.5096   -5.4268   26.6388 C   0  0  0  0  0  0  0  0  0  0  0  0
    9.9094   -5.1533   26.0914 C   0  0  0  0  0  0  0  0  0  0  0  0
    7.9264   -5.2627   24.2341 C   0  0  0  0  0  0  0  0  0  0  0  0
    9.0090   -4.1720   24.0391 C   0  0  2  0  0  0  0  0  0  0  0  0
   11.2323   -3.5700   24.8392 C   0  0  0  0  0  0  0  0  0  0  0  0
    5.8870   -5.6504   27.4993 C   0  0  0  0  0  0  0  0  0  0  0  0
    7.4644   -5.3492   25.6212 N   0  0  0  0  0  0  0  0  0  0  0  0
    9.8808   -3.9785   25.2202 N   0  0  0  0  0  0  0  0  0  0  0  0
    5.1765   -5.4037   25.2488 O   0  0  0  0  0  0  0  0  0  0  0  0
   11.8243   -1.7946   22.7865 S   0  0  0  0  0  0  0  0  0  0  0  0
    4.1411   -5.7143   27.7132 Cl  0  0  0  0  0  0  0  0  0  0  0  0
   11.9624    1.1892   21.6875 Br  0  0  0  0  0  0  0  0  0  0  0  0
    6.7065    0.4823   22.5583 H   0  0  0  0  0  0  0  0  0  0  0  0
    7.4290   -1.1479   20.8334 H   0  0  0  0  0  0  0  0  0  0  0  0
    7.0424   -0.0263   24.9637 H   0  0  0  0  0  0  0  0  0  0  0  0
    8.4835   -3.2811   21.5059 H   0  0  0  0  0  0  0  0  0  0  0  0
    8.0958   -2.1564   25.6465 H   0  0  0  0  0  0  0  0  0  0  0  0
   10.5556   -1.0091   26.0771 H   0  0  0  0  0  0  0  0  0  0  0  0
   10.8917    1.1734   24.6273 H   0  0  0  0  0  0  0  0  0  0  0  0
    8.4952   -6.4151   27.1342 H   0  0  0  0  0  0  0  0  0  0  0  0
    8.2522   -4.6908   27.4246 H   0  0  0  0  0  0  0  0  0  0  0  0
   10.5716   -4.9743   26.9372 H   0  0  0  0  0  0  0  0  0  0  0  0
   10.2650   -6.0341   25.5567 H   0  0  0  0  0  0  0  0  0  0  0  0
    7.0368   -5.0433   23.6230 H   0  0  0  0  0  0  0  0  0  0  0  0
    8.3107   -6.2261   23.8789 H   0  0  0  0  0  0  0  0  0  0  0  0
    9.6567   -4.4771   23.1711 H   0  0  0  0  0  0  0  0  0  0  0  0
   11.5794   -4.2464   24.0505 H   0  0  0  0  0  0  0  0  0  0  0  0
   11.8843   -3.7198   25.7062 H   0  0  0  0  0  0  0  0  0  0  0  0
    6.2974   -4.8045   28.0389 H   0  0  0  0  0  0  0  0  0  0  0  0
    6.3348   -6.5873   27.8099 H   0  0  0  0  0  0  0  0  0  0  0  0
  1  2  1  0  0  0  0
  1  3  2  0  0  0  0
  1 24  1  0  0  0  0
  2  4  2  0  0  0  0
  2 25  1  0  0  0  0
  3  5  1  0  0  0  0
  3 26  1  0  0  0  0
  4  8  1  0  0  0  0
  4 27  1  0  0  0  0
  5  8  2  0  0  0  0
  5 28  1  0  0  0  0
  6  7  1  0  0  0  0
  6  9  2  0  0  0  0
  6 29  1  0  0  0  0
  7 10  2  0  0  0  0
  7 30  1  0  0  0  0
  8 15  1  0  0  0  0
  9 16  1  0  0  0  0
  9 21  1  0  0  0  0
 10 21  1  0  0  0  0
 10 23  1  0  0  0  0
 11 17  1  0  0  0  0
 11 18  1  0  0  0  0
 11 20  2  0  0  0  0
 12 13  1  0  0  0  0
 12 18  1  0  0  0  0
 12 31  1  0  0  0  0
 12 32  1  0  0  0  0
 13 19  1  0  0  0  0
 13 33  1  0  0  0  0
 13 34  1  0  0  0  0
 14 15  1  0  0  0  0
 14 18  1  0  0  0  0
 14 35  1  0  0  0  0
 14 36  1  0  0  0  0
 15 19  1  0  0  0  0
 15 37  1  6  0  0  0
 16 19  1  0  0  0  0
 16 38  1  0  0  0  0
 16 39  1  0  0  0  0
 17 22  1  0  0  0  0
 17 40  1  0  0  0  0
 17 41  1  0  0  0  0
M  END
>  <Chemgauss4 Score>
-4.64848136901855

>  <Number of Confs>
90

$$$$
