DAR-DIA-033-11
 OpenBabel03242009303D

 52 54  0  0  0  0  0  0  0  0999 V2000
   13.1304   -0.0451   22.7852 C   0  0  0  0  0  0  0  0  0  0  0  0
   12.9519   -1.2617   22.1269 C   0  0  0  0  0  0  0  0  0  0  0  0
   12.4812    0.1944   23.9965 C   0  0  0  0  0  0  0  0  0  0  0  0
   12.1242   -2.2390   22.6797 C   0  0  0  0  0  0  0  0  0  0  0  0
   11.6535   -0.7829   24.5492 C   0  0  0  0  0  0  0  0  0  0  0  0
    6.4718   -5.6845   27.8083 C   0  0  0  0  0  0  0  0  0  0  0  0
    6.7718   -5.1150   29.0353 C   0  0  0  0  0  0  0  0  0  0  0  0
    8.5683   -3.9756   28.1678 C   0  0  0  0  0  0  0  0  0  0  0  0
    7.2821   -5.3618   26.7255 C   0  0  0  0  0  0  0  0  0  0  0  0
   11.4750   -1.9996   23.8909 C   0  0  0  0  0  0  0  0  0  0  0  0
    8.3525   -4.4918   26.9002 C   0  0  0  0  0  0  0  0  0  0  0  0
    6.5780   -3.4475   23.2434 C   0  0  0  0  0  0  0  0  0  0  0  0
    9.9071   -2.9297   25.6502 C   0  0  0  0  0  0  0  0  0  0  0  0
    6.5956    0.8693   22.6611 C   0  0  0  0  0  0  0  0  0  0  0  0
    6.5715   -0.1799   21.5484 C   0  0  0  0  0  0  0  0  0  0  0  0
    6.8917    0.2758   24.0369 C   0  0  0  0  0  0  0  0  0  0  0  0
    7.2949   -1.4608   21.9450 C   0  0  0  0  0  0  0  0  0  0  0  0
    6.2837   -1.1121   24.2051 C   0  0  0  0  0  0  0  0  0  0  0  0
    6.9787   -5.9680   25.3773 C   0  0  0  0  0  0  0  0  0  0  0  0
    5.7877   -5.3115   24.6835 C   0  0  0  0  0  0  0  0  0  0  0  0
    7.8029   -4.2659   29.2437 N   0  0  0  0  0  0  0  0  0  0  0  0
    6.7069   -2.0486   23.1527 N   0  0  0  0  0  0  0  0  0  0  0  0
   10.6355   -2.9910   24.4515 N   0  0  0  0  0  0  0  0  0  0  0  0
    9.1931   -4.1377   25.8452 N   0  0  0  0  0  0  0  0  0  0  0  0
    6.0023   -3.9058   24.4250 N   0  0  0  0  0  0  0  0  0  0  0  0
    6.9391   -4.2157   22.3468 O   0  0  0  0  0  0  0  0  0  0  0  0
    9.8869   -1.9748   26.4202 O   0  0  0  0  0  0  0  0  0  0  0  0
   13.7754    0.7158   22.3555 H   0  0  0  0  0  0  0  0  0  0  0  0
   13.4578   -1.4489   21.1843 H   0  0  0  0  0  0  0  0  0  0  0  0
   12.6213    1.1415   24.5094 H   0  0  0  0  0  0  0  0  0  0  0  0
   11.9927   -3.1835   22.1576 H   0  0  0  0  0  0  0  0  0  0  0  0
   11.1528   -0.5851   25.4938 H   0  0  0  0  0  0  0  0  0  0  0  0
    5.6293   -6.3599   27.7056 H   0  0  0  0  0  0  0  0  0  0  0  0
    6.1705   -5.3346   29.9114 H   0  0  0  0  0  0  0  0  0  0  0  0
    9.3875   -3.2911   28.3673 H   0  0  0  0  0  0  0  0  0  0  0  0
    7.3465    1.6451   22.4216 H   0  0  0  0  0  0  0  0  0  0  0  0
    5.6211    1.3939   22.6893 H   0  0  0  0  0  0  0  0  0  0  0  0
    5.5293   -0.4086   21.2873 H   0  0  0  0  0  0  0  0  0  0  0  0
    7.0367    0.2389   20.6442 H   0  0  0  0  0  0  0  0  0  0  0  0
    7.9812    0.2219   24.1903 H   0  0  0  0  0  0  0  0  0  0  0  0
    6.5009    0.9467   24.8167 H   0  0  0  0  0  0  0  0  0  0  0  0
    7.2150   -2.2103   21.1482 H   0  0  0  0  0  0  0  0  0  0  0  0
    8.3525   -1.2245   22.0709 H   0  0  0  0  0  0  0  0  0  0  0  0
    6.5333   -1.5051   25.2006 H   0  0  0  0  0  0  0  0  0  0  0  0
    5.1852   -1.0559   24.1580 H   0  0  0  0  0  0  0  0  0  0  0  0
    6.7739   -7.0373   25.5147 H   0  0  0  0  0  0  0  0  0  0  0  0
    7.8677   -5.9109   24.7363 H   0  0  0  0  0  0  0  0  0  0  0  0
    5.6122   -5.7876   23.7137 H   0  0  0  0  0  0  0  0  0  0  0  0
    4.8731   -5.4020   25.2788 H   0  0  0  0  0  0  0  0  0  0  0  0
   10.5492   -3.8542   23.9209 H   0  0  0  0  0  0  0  0  0  0  0  0
    9.3203   -4.8368   25.1054 H   0  0  0  0  0  0  0  0  0  0  0  0
    5.7250   -3.2309   25.1260 H   0  0  0  0  0  0  0  0  0  0  0  0
  1  2  1  0  0  0  0
  1  3  2  0  0  0  0
  1 28  1  0  0  0  0
  2  4  2  0  0  0  0
  2 29  1  0  0  0  0
  3  5  1  0  0  0  0
  3 30  1  0  0  0  0
  4 10  1  0  0  0  0
  4 31  1  0  0  0  0
  5 10  2  0  0  0  0
  5 32  1  0  0  0  0
  6  7  2  0  0  0  0
  6  9  1  0  0  0  0
  6 33  1  0  0  0  0
  7 21  1  0  0  0  0
  7 34  1  0  0  0  0
  8 11  1  0  0  0  0
  8 21  2  0  0  0  0
  8 35  1  0  0  0  0
  9 11  2  0  0  0  0
  9 19  1  0  0  0  0
 10 23  1  0  0  0  0
 11 24  1  0  0  0  0
 12 22  1  0  0  0  0
 12 25  1  0  0  0  0
 12 26  2  0  0  0  0
 13 23  1  0  0  0  0
 13 24  1  0  0  0  0
 13 27  2  0  0  0  0
 14 15  1  0  0  0  0
 14 16  1  0  0  0  0
 14 36  1  0  0  0  0
 14 37  1  0  0  0  0
 15 17  1  0  0  0  0
 15 38  1  0  0  0  0
 15 39  1  0  0  0  0
 16 18  1  0  0  0  0
 16 40  1  0  0  0  0
 16 41  1  0  0  0  0
 17 22  1  0  0  0  0
 17 42  1  0  0  0  0
 17 43  1  0  0  0  0
 18 22  1  0  0  0  0
 18 44  1  0  0  0  0
 18 45  1  0  0  0  0
 19 20  1  0  0  0  0
 19 46  1  0  0  0  0
 19 47  1  0  0  0  0
 20 25  1  0  0  0  0
 20 48  1  0  0  0  0
 20 49  1  0  0  0  0
 23 50  1  0  0  0  0
 24 51  1  0  0  0  0
 25 52  1  0  0  0  0
M  END
>  <Chemgauss4 Score>
-4.93022680282593

>  <Number of Confs>
200

$$$$
